
     RDKit          3D

 35 36  0  0  1  0  0  0  0  0999 V2000
   37.8660   26.6960   42.8250 C   0  0  0  0  0  0  0  0  0  0  0  0
   37.0860   25.5670   42.2120 C   0  0  2  0  0  0  0  0  0  0  0  0
   37.7480   24.2350   42.2690 C   0  0  0  0  0  0  0  0  0  0  0  0
   37.5060   23.5520   40.9430 C   0  0  0  0  0  0  0  0  0  0  0  0
   36.5990   24.5020   40.1650 C   0  0  0  0  0  0  0  0  0  0  0  0
   36.9770   25.8550   40.7240 C   0  0  2  0  0  0  0  0  0  0  0  0
   38.2980   26.2520   40.1210 C   0  0  0  0  0  0  0  0  0  0  0  0
   36.8910   27.8320   43.1520 C   0  0  2  0  0  0  0  0  0  0  0  0
   39.2040   30.6670   42.1270 C   0  0  0  0  0  0  0  0  0  0  0  0
   38.7450   29.5060   42.7910 C   0  0  0  0  0  0  0  0  0  0  0  0
   37.4330   29.0470   42.4860 C   0  0  0  0  0  0  0  0  0  0  0  0
   36.7020   29.7660   41.5640 N   0  0  0  0  0  0  0  0  0  0  0  0
   37.1810   30.8600   40.9600 C   0  0  0  0  0  0  0  0  0  0  0  0
   38.4170   31.3110   41.2340 N   0  0  0  0  0  0  0  0  0  0  0  0
   36.7730   28.0190   44.6520 C   0  0  0  0  0  0  0  0  0  0  0  0
   38.6266   27.0516   42.1144 H   0  0  0  0  0  0  0  0  0  0  0  0
   38.3712   26.3546   43.7405 H   0  0  0  0  0  0  0  0  0  0  0  0
   36.1427   25.5185   42.7758 H   0  0  0  0  0  0  0  0  0  0  0  0
   38.8281   24.3590   42.4363 H   0  0  0  0  0  0  0  0  0  0  0  0
   37.3402   23.6340   43.0951 H   0  0  0  0  0  0  0  0  0  0  0  0
   38.4551   23.3999   40.4082 H   0  0  0  0  0  0  0  0  0  0  0  0
   37.0508   22.5585   41.0685 H   0  0  0  0  0  0  0  0  0  0  0  0
   35.5381   24.2785   40.3506 H   0  0  0  0  0  0  0  0  0  0  0  0
   36.7242   24.4298   39.0745 H   0  0  0  0  0  0  0  0  0  0  0  0
   36.2767   26.6770   40.5147 H   0  0  0  0  0  0  0  0  0  0  0  0
   39.0176   26.4683   40.9244 H   0  0  0  0  0  0  0  0  0  0  0  0
   38.6793   25.4288   39.4990 H   0  0  0  0  0  0  0  0  0  0  0  0
   38.1623   27.1491   39.4990 H   0  0  0  0  0  0  0  0  0  0  0  0
   35.8753   27.6134   42.7907 H   0  0  0  0  0  0  0  0  0  0  0  0
   40.2127   31.0513   42.3388 H   0  0  0  0  0  0  0  0  0  0  0  0
   39.3793   28.9766   43.5172 H   0  0  0  0  0  0  0  0  0  0  0  0
   36.5558   31.3962   40.2309 H   0  0  0  0  0  0  0  0  0  0  0  0
   37.2920   27.1965   45.1660 H   0  0  0  0  0  0  0  0  0  0  0  0
   37.2303   28.9774   44.9391 H   0  0  0  0  0  0  0  0  0  0  0  0
   35.7111   28.0188   44.9391 H   0  0  0  0  0  0  0  0  0  0  0  0
  1  8  1  0
  2  3  1  0
  2  1  1  0
  4  3  1  0
  5  6  1  0
  5  4  1  0
  6  2  1  0
  7  6  1  0
  8 15  1  0
  9 10  2  0
 11 10  1  0
 11  8  1  0
 12 11  2  0
 13 14  2  0
 13 12  1  0
 14  9  1  0
  1 16  1  0
  1 17  1  0
  2 18  1  1
  3 19  1  0
  3 20  1  0
  4 21  1  0
  4 22  1  0
  5 23  1  0
  5 24  1  0
  6 25  1  1
  7 26  1  0
  7 27  1  0
  7 28  1  0
  8 29  1  6
  9 30  1  0
 10 31  1  0
 13 32  1  0
 15 33  1  0
 15 34  1  0
 15 35  1  0
M  ISO  8  16   8  17   8  18  13  19  13  20  13  21  13  22  13  23  13
M  ISO  8  24  13  25  13  26   8  27   8  28   8  29   8  30  14  31  14
M  ISO  4  32  14  33   8  34   8  35   8
M  END
>  <minimizedAffinity>  (1) 
-4.88739586

>  <minimizedRMSD>  (1) 
0.0310092382

$$$$
