
     RDKit          3D

 33 34  0  0  1  0  0  0  0  0999 V2000
   37.8650   26.7040   42.8150 C   0  0  0  0  0  0  0  0  0  0  0  0
   37.0760   25.5690   42.2150 C   0  0  2  0  0  0  0  0  0  0  0  0
   37.7730   24.2480   42.2590 C   0  0  0  0  0  0  0  0  0  0  0  0
   37.4570   23.5340   40.9750 C   0  0  0  0  0  0  0  0  0  0  0  0
   36.6150   24.4990   40.1600 C   0  0  0  0  0  0  0  0  0  0  0  0
   37.0020   25.8490   40.7160 C   0  0  2  0  0  0  0  0  0  0  0  0
   38.7030   26.2210   40.1990 S   0  0  0  0  0  0  0  0  0  0  0  0
   36.8930   27.8450   43.1320 C   0  0  2  0  0  0  0  0  0  0  0  0
   39.1970   30.6740   42.1090 C   0  0  0  0  0  0  0  0  0  0  0  0
   38.7470   29.5090   42.7740 C   0  0  0  0  0  0  0  0  0  0  0  0
   37.4250   29.0540   42.4720 C   0  0  0  0  0  0  0  0  0  0  0  0
   36.7030   29.7820   41.5620 N   0  0  0  0  0  0  0  0  0  0  0  0
   37.1690   30.8740   40.9590 C   0  0  0  0  0  0  0  0  0  0  0  0
   38.4070   31.3270   41.2220 N   0  0  0  0  0  0  0  0  0  0  0  0
   36.7770   28.0110   44.6340 C   0  0  0  0  0  0  0  0  0  0  0  0
   38.6245   27.0497   42.0983 H   0  0  0  0  0  0  0  0  0  0  0  0
   38.3736   26.3713   43.7318 H   0  0  0  0  0  0  0  0  0  0  0  0
   36.1291   25.5162   42.7723 H   0  0  0  0  0  0  0  0  0  0  0  0
   38.8590   24.3980   42.3490 H   0  0  0  0  0  0  0  0  0  0  0  0
   37.4376   23.6590   43.1253 H   0  0  0  0  0  0  0  0  0  0  0  0
   38.3837   23.2859   40.4368 H   0  0  0  0  0  0  0  0  0  0  0  0
   36.9251   22.5887   41.1583 H   0  0  0  0  0  0  0  0  0  0  0  0
   35.5419   24.3056   40.3049 H   0  0  0  0  0  0  0  0  0  0  0  0
   36.7870   24.4131   39.0769 H   0  0  0  0  0  0  0  0  0  0  0  0
   36.3246   26.6599   40.4101 H   0  0  0  0  0  0  0  0  0  0  0  0
   39.4898   26.3931   41.3072 H   0  0  0  0  0  0  0  0  0  0  0  0
   35.8781   27.6421   42.7594 H   0  0  0  0  0  0  0  0  0  0  0  0
   40.2072   31.0571   42.3158 H   0  0  0  0  0  0  0  0  0  0  0  0
   39.3867   28.9758   43.4927 H   0  0  0  0  0  0  0  0  0  0  0  0
   36.5345   31.4108   40.2384 H   0  0  0  0  0  0  0  0  0  0  0  0
   37.3377   27.2087   45.1360 H   0  0  0  0  0  0  0  0  0  0  0  0
   37.1908   28.9869   44.9281 H   0  0  0  0  0  0  0  0  0  0  0  0
   35.7184   27.9579   44.9281 H   0  0  0  0  0  0  0  0  0  0  0  0
  1  8  1  0
  2  3  1  0
  2  1  1  0
  4  3  1  0
  5  6  1  0
  5  4  1  0
  6  2  1  0
  7  6  1  0
  8 15  1  0
  9 10  2  0
 11 10  1  0
 11  8  1  0
 12 11  2  0
 13 14  2  0
 13 12  1  0
 14  9  1  0
  1 16  1  0
  1 17  1  0
  2 18  1  1
  3 19  1  0
  3 20  1  0
  4 21  1  0
  4 22  1  0
  5 23  1  0
  5 24  1  0
  6 25  1  1
  7 26  1  0
  8 27  1  6
  9 28  1  0
 10 29  1  0
 13 30  1  0
 15 31  1  0
 15 32  1  0
 15 33  1  0
M  ISO  8  16   8  17   8  18  13  19  13  20  13  21  13  22  13  23  13
M  ISO  8  24  13  25  13  26  11  27   8  28  14  29  14  30  14  31   8
M  ISO  2  32   8  33   8
M  END
>  <minimizedAffinity>  (1) 
-4.80731583

>  <minimizedRMSD>  (1) 
0.031006692

$$$$
