
     RDKit          3D

 45 48  0  0  1  0  0  0  0  0999 V2000
   39.3010   25.7550   42.0240 C   0  0  1  0  0  0  0  0  0  0  0  0
   39.2190   24.3560   41.3490 C   0  0  0  0  0  0  0  0  0  0  0  0
   37.8790   23.8350   41.6300 C   0  0  0  0  0  0  0  0  0  0  0  0
   37.0570   25.1110   41.9450 C   0  0  0  0  0  0  0  0  0  0  0  0
   38.0050   25.8660   42.6860 C   0  0  2  0  0  0  0  0  0  0  0  0
   41.7570   26.7840   44.6620 C   0  0  0  0  0  0  0  0  0  0  0  0
   40.5630   26.6860   43.9500 C   0  0  0  0  0  0  0  0  0  0  0  0
   40.4930   25.8880   42.8070 C   0  0  0  0  0  0  0  0  0  0  0  0
   41.6160   25.2080   42.4120 N   0  0  0  0  0  0  0  0  0  0  0  0
   42.7670   25.3090   43.1110 C   0  0  0  0  0  0  0  0  0  0  0  0
   42.8530   26.0870   44.2280 N   0  0  0  0  0  0  0  0  0  0  0  0
   37.4570   27.2560   42.7920 C   0  0  2  0  0  0  0  0  0  0  0  0
   36.3220   27.4570   43.7190 C   0  0  0  0  0  0  0  0  0  0  0  0
   37.1160   27.6240   41.4340 C   0  0  0  0  0  0  0  0  0  0  0  0
   37.0030   29.0380   41.3160 N   0  0  0  0  0  0  0  0  0  0  0  0
   35.9280   29.7540   40.9100 C   0  0  0  0  0  0  0  0  0  0  0  0
   36.3000   31.0690   40.7770 C   0  0  0  0  0  0  0  0  0  0  0  0
   37.5980   31.0950   41.1150 N   0  0  0  0  0  0  0  0  0  0  0  0
   38.0410   29.8680   41.4490 C   0  0  0  0  0  0  0  0  0  0  0  0
   39.3990   30.0410   41.7760 N   0  0  0  0  0  0  0  0  0  0  0  0
   40.5350   29.3100   41.5300 C   0  0  0  0  0  0  0  0  0  0  0  0
   41.6040   29.8940   42.0920 N   0  0  0  0  0  0  0  0  0  0  0  0
   41.1720   31.0040   42.7040 C   0  0  0  0  0  0  0  0  0  0  0  0
   39.8470   31.0600   42.4940 N   0  0  0  0  0  0  0  0  0  0  0  0
   39.4292   26.6184   41.3547 H   0  0  0  0  0  0  0  0  0  0  0  0
   39.9830   23.6859   41.7700 H   0  0  0  0  0  0  0  0  0  0  0  0
   39.3988   24.4263   40.2661 H   0  0  0  0  0  0  0  0  0  0  0  0
   37.4696   23.3089   40.7550 H   0  0  0  0  0  0  0  0  0  0  0  0
   37.8661   23.1022   42.4502 H   0  0  0  0  0  0  0  0  0  0  0  0
   36.7535   25.6335   41.0258 H   0  0  0  0  0  0  0  0  0  0  0  0
   36.1118   24.9229   42.4753 H   0  0  0  0  0  0  0  0  0  0  0  0
   38.1696   25.5028   43.7112 H   0  0  0  0  0  0  0  0  0  0  0  0
   41.8183   27.4137   45.5618 H   0  0  0  0  0  0  0  0  0  0  0  0
   39.6744   27.2384   44.2893 H   0  0  0  0  0  0  0  0  0  0  0  0
   43.6534   24.7524   42.7726 H   0  0  0  0  0  0  0  0  0  0  0  0
   38.2210   27.9012   43.2503 H   0  0  0  0  0  0  0  0  0  0  0  0
   36.6806   27.3935   44.7570 H   0  0  0  0  0  0  0  0  0  0  0  0
   35.8773   28.4479   43.5447 H   0  0  0  0  0  0  0  0  0  0  0  0
   35.5640   26.6791   43.5447 H   0  0  0  0  0  0  0  0  0  0  0  0
   37.9020   27.2652   40.7531 H   0  0  0  0  0  0  0  0  0  0  0  0
   36.1507   27.1661   41.1722 H   0  0  0  0  0  0  0  0  0  0  0  0
   34.9232   29.3493   40.7185 H   0  0  0  0  0  0  0  0  0  0  0  0
   35.6717   31.9153   40.4624 H   0  0  0  0  0  0  0  0  0  0  0  0
   40.5645   28.3746   40.9519 H   0  0  0  0  0  0  0  0  0  0  0  0
   41.7815   31.7263   43.2669 H   0  0  0  0  0  0  0  0  0  0  0  0
  1  5  1  0
  1  8  1  0
  2  3  1  0
  2  1  1  0
  3  4  1  0
  4  5  1  0
  5 12  1  0
  7  6  2  0
  8  7  1  0
  9  8  2  0
  9 10  1  0
 10 11  2  0
 11  6  1  0
 12 13  1  0
 14 12  1  0
 15 14  1  0
 15 19  1  0
 16 15  1  0
 17 16  2  0
 17 18  1  0
 18 19  2  0
 19 20  1  0
 20 24  1  0
 21 20  1  0
 21 22  2  0
 22 23  1  0
 24 23  2  0
  1 25  1  6
  2 26  1  0
  2 27  1  0
  3 28  1  0
  3 29  1  0
  4 30  1  0
  4 31  1  0
  5 32  1  1
  6 33  1  0
  7 34  1  0
 10 35  1  0
 12 36  1  1
 13 37  1  0
 13 38  1  0
 13 39  1  0
 14 40  1  0
 14 41  1  0
 16 42  1  0
 17 43  1  0
 21 44  1  0
 23 45  1  0
M  ISO  8  25  13  26  13  27  13  28  13  29  13  30  13  31  13  32  13
M  ISO  8  33  14  34  14  35  14  36   8  37   8  38   8  39   8  40   8
M  ISO  5  41   8  42  14  43  14  44  14  45  14
M  END
>  <minimizedAffinity>  (1) 
-5.84795046

>  <minimizedRMSD>  (1) 
0.580449224

$$$$
