
     RDKit          3D

 52 55  0  0  1  0  0  0  0  0999 V2000
   37.8020   27.4610   42.8500 C   0  0  2  0  0  0  0  0  0  0  0  0
   39.6030   25.8460   42.2120 C   0  0  1  0  0  0  0  0  0  0  0  0
   39.4830   24.4020   41.6410 C   0  0  0  0  0  0  0  0  0  0  0  0
   38.1260   23.9460   41.9460 C   0  0  0  0  0  0  0  0  0  0  0  0
   37.3420   25.2650   42.1730 C   0  0  0  0  0  0  0  0  0  0  0  0
   38.3100   26.0490   42.8580 C   0  0  2  0  0  0  0  0  0  0  0  0
   42.0770   26.9870   44.7810 C   0  0  0  0  0  0  0  0  0  0  0  0
   40.8790   26.8650   44.0760 C   0  0  0  0  0  0  0  0  0  0  0  0
   40.8010   26.0050   42.9790 C   0  0  0  0  0  0  0  0  0  0  0  0
   41.9110   25.2960   42.6250 N   0  0  0  0  0  0  0  0  0  0  0  0
   43.0650   25.4150   43.3090 C   0  0  0  0  0  0  0  0  0  0  0  0
   43.1540   26.2490   44.3760 N   0  0  0  0  0  0  0  0  0  0  0  0
   36.6590   27.7650   43.7350 C   0  0  0  0  0  0  0  0  0  0  0  0
   37.5130   27.7350   41.4640 C   0  0  0  0  0  0  0  0  0  0  0  0
   37.0830   29.0710   41.2830 N   0  0  0  0  0  0  0  0  0  0  0  0
   35.8770   29.5240   40.8610 C   0  0  0  0  0  0  0  0  0  0  0  0
   35.9600   30.8730   40.6540 C   0  0  0  0  0  0  0  0  0  0  0  0
   37.2340   31.2030   40.9670 N   0  0  0  0  0  0  0  0  0  0  0  0
   37.9200   30.1050   41.3540 C   0  0  0  0  0  0  0  0  0  0  0  0
   41.7270   31.7510   42.0210 C   0  0  0  0  0  0  0  0  0  0  0  0
   41.3940   30.6840   42.8250 C   0  0  0  0  0  0  0  0  0  0  0  0
   40.1410   30.1720   42.5890 C   0  0  0  0  0  0  0  0  0  0  0  0
   39.2230   30.6100   41.6580 C   0  0  0  0  0  0  0  0  0  0  0  0
   39.7050   31.7040   40.9120 C   0  0  0  0  0  0  0  0  0  0  0  0
   40.9550   32.3210   41.0500 C   0  0  0  0  0  0  0  0  0  0  0  0
   43.3070   32.4880   42.2350 S   0  0  0  0  0  0  0  0  0  0  0  0
   44.2470   32.0920   41.1130 O   0  0  0  0  0  0  0  0  0  0  0  0
   43.9270   32.0510   43.5050 O   0  0  0  0  0  0  0  0  0  0  0  0
   38.5702   28.1198   43.2811 H   0  0  0  0  0  0  0  0  0  0  0  0
   39.7534   26.6545   41.4814 H   0  0  0  0  0  0  0  0  0  0  0  0
   40.2221   23.7419   42.1185 H   0  0  0  0  0  0  0  0  0  0  0  0
   39.6742   24.3853   40.5579 H   0  0  0  0  0  0  0  0  0  0  0  0
   37.7038   23.3778   41.1040 H   0  0  0  0  0  0  0  0  0  0  0  0
   38.0864   23.2699   42.8128 H   0  0  0  0  0  0  0  0  0  0  0  0
   37.0494   25.7289   41.2195 H   0  0  0  0  0  0  0  0  0  0  0  0
   36.3956   25.1387   42.7193 H   0  0  0  0  0  0  0  0  0  0  0  0
   38.4612   25.7657   43.9101 H   0  0  0  0  0  0  0  0  0  0  0  0
   42.1532   27.6633   45.6452 H   0  0  0  0  0  0  0  0  0  0  0  0
   39.9971   27.4457   44.3842 H   0  0  0  0  0  0  0  0  0  0  0  0
   43.9441   24.8305   42.9998 H   0  0  0  0  0  0  0  0  0  0  0  0
   36.9757   27.6808   44.7850 H   0  0  0  0  0  0  0  0  0  0  0  0
   36.3059   28.7883   43.5395 H   0  0  0  0  0  0  0  0  0  0  0  0
   35.8442   27.0523   43.5395 H   0  0  0  0  0  0  0  0  0  0  0  0
   38.4225   27.5674   40.8684 H   0  0  0  0  0  0  0  0  0  0  0  0
   36.7053   27.0631   41.1382 H   0  0  0  0  0  0  0  0  0  0  0  0
   34.9788   28.9073   40.7099 H   0  0  0  0  0  0  0  0  0  0  0  0
   35.1618   31.5458   40.3072 H   0  0  0  0  0  0  0  0  0  0  0  0
   42.0720   30.2769   43.5896 H   0  0  0  0  0  0  0  0  0  0  0  0
   39.8364   29.3180   43.2118 H   0  0  0  0  0  0  0  0  0  0  0  0
   39.0324   32.1146   40.1445 H   0  0  0  0  0  0  0  0  0  0  0  0
   41.2807   33.1760   40.4394 H   0  0  0  0  0  0  0  0  0  0  0  0
   43.1131   33.8442   42.2395 H   0  0  0  0  0  0  0  0  0  0  0  0
  1  6  1  0
  1 13  1  0
  2  6  1  0
  2  9  1  0
  3  4  1  0
  3  2  1  0
  4  5  1  0
  5  6  1  0
  8  7  2  0
  9  8  1  0
 10  9  2  0
 10 11  1  0
 11 12  2  0
 12  7  1  0
 14  1  1  0
 15 19  1  0
 15 14  1  0
 16 15  1  0
 17 16  2  0
 17 18  1  0
 18 19  2  0
 19 23  1  0
 20 26  1  0
 20 21  2  0
 22 21  1  0
 23 22  2  0
 24 25  2  0
 24 23  1  0
 25 20  1  0
 26 28  2  0
 27 26  2  0
  1 29  1  1
  2 30  1  6
  3 31  1  0
  3 32  1  0
  4 33  1  0
  4 34  1  0
  5 35  1  0
  5 36  1  0
  6 37  1  1
  7 38  1  0
  8 39  1  0
 11 40  1  0
 13 41  1  0
 13 42  1  0
 13 43  1  0
 14 44  1  0
 14 45  1  0
 16 46  1  0
 17 47  1  0
 21 48  1  0
 22 49  1  0
 24 50  1  0
 25 51  1  0
 26 52  1  0
M  ISO  8  29   8  30  13  31  13  32  13  33  13  34  13  35  13  36  13
M  ISO  8  37  13  38  14  39  14  40  14  41   8  42   8  43   8  44   8
M  ISO  8  45   8  46  14  47  14  48  14  49  14  50  14  51  14  52  11
M  END
>  <minimizedAffinity>  (1) 
-5.81102753

>  <minimizedRMSD>  (1) 
1.289873

$$$$
