
     RDKit          3D

 47 49  0  0  1  0  0  0  0  0999 V2000
   37.0830   30.8990   40.3140 C   0  0  1  0  0  0  0  0  0  0  0  0
   40.1700   33.0510   40.6660 C   0  0  0  0  0  0  0  0  0  0  0  0
   39.3370   31.9120   40.6540 C   0  0  0  0  0  0  0  0  0  0  0  0
   37.9800   32.0640   40.3380 C   0  0  0  0  0  0  0  0  0  0  0  0
   37.5770   33.3440   40.0630 N   0  0  0  0  0  0  0  0  0  0  0  0
   38.3560   34.4190   40.0730 C   0  0  0  0  0  0  0  0  0  0  0  0
   39.6700   34.2560   40.3810 N   0  0  0  0  0  0  0  0  0  0  0  0
   37.3870   30.1180   39.0430 C   0  0  0  0  0  0  0  0  0  0  0  0
   36.1770   30.0400   38.1850 C   0  0  2  0  0  0  0  0  0  0  0  0
   35.2360   28.9280   38.5070 C   0  0  0  0  0  0  0  0  0  0  0  0
   34.6430   28.4920   37.1780 C   0  0  0  0  0  0  0  0  0  0  0  0
   35.3100   29.3460   36.1140 C   0  0  0  0  0  0  0  0  0  0  0  0
   36.6010   29.7420   36.7710 C   0  0  2  0  0  0  0  0  0  0  0  0
   37.5090   28.5790   36.6330 C   0  0  0  0  0  0  0  0  0  0  0  0
   38.2620   27.9410   35.9170 O   0  0  0  0  0  0  0  0  0  0  0  0
   37.2450   30.0370   41.5440 C   0  0  0  0  0  0  0  0  0  0  0  0
   37.5170   28.6730   41.3050 N   0  0  0  0  0  0  0  0  0  0  0  0
   36.5280   27.7540   41.8150 C   0  0  0  0  0  0  0  0  0  0  0  0
   36.6430   27.4890   43.2950 C   0  0  0  0  0  0  0  0  0  0  0  0
   37.4970   28.3770   43.9030 O   0  0  0  0  0  0  0  0  0  0  0  0
   38.7590   28.1600   43.3730 C   0  0  0  0  0  0  0  0  0  0  0  0
   38.8290   28.3830   41.8900 C   0  0  0  0  0  0  0  0  0  0  0  0
   36.0347   31.2321   40.3189 H   0  0  0  0  0  0  0  0  0  0  0  0
   41.2371   32.9457   40.9115 H   0  0  0  0  0  0  0  0  0  0  0  0
   39.7470   30.9188   40.8894 H   0  0  0  0  0  0  0  0  0  0  0  0
   37.9495   35.4139   39.8386 H   0  0  0  0  0  0  0  0  0  0  0  0
   38.1922   30.6238   38.4900 H   0  0  0  0  0  0  0  0  0  0  0  0
   37.6996   29.0990   39.3149 H   0  0  0  0  0  0  0  0  0  0  0  0
   35.6729   31.0049   38.3426 H   0  0  0  0  0  0  0  0  0  0  0  0
   35.7758   28.0934   38.9782 H   0  0  0  0  0  0  0  0  0  0  0  0
   34.4561   29.2484   39.2135 H   0  0  0  0  0  0  0  0  0  0  0  0
   34.8523   27.4271   36.9984 H   0  0  0  0  0  0  0  0  0  0  0  0
   33.5504   28.6192   37.1663 H   0  0  0  0  0  0  0  0  0  0  0  0
   34.6997   30.2291   35.8740 H   0  0  0  0  0  0  0  0  0  0  0  0
   35.4497   28.8216   35.1572 H   0  0  0  0  0  0  0  0  0  0  0  0
   37.1386   30.6072   36.3557 H   0  0  0  0  0  0  0  0  0  0  0  0
   37.4995   28.0644   37.6052 H   0  0  0  0  0  0  0  0  0  0  0  0
   38.0749   30.4480   42.1376 H   0  0  0  0  0  0  0  0  0  0  0  0
   36.2727   30.0628   42.0579 H   0  0  0  0  0  0  0  0  0  0  0  0
   35.5308   28.1729   41.6150 H   0  0  0  0  0  0  0  0  0  0  0  0
   36.6935   26.7932   41.3057 H   0  0  0  0  0  0  0  0  0  0  0  0
   35.6470   27.5813   43.7526 H   0  0  0  0  0  0  0  0  0  0  0  0
   37.0461   26.4748   43.4326 H   0  0  0  0  0  0  0  0  0  0  0  0
   39.4656   28.8463   43.8626 H   0  0  0  0  0  0  0  0  0  0  0  0
   39.0107   27.1048   43.5551 H   0  0  0  0  0  0  0  0  0  0  0  0
   39.2347   27.4773   41.4156 H   0  0  0  0  0  0  0  0  0  0  0  0
   39.4750   29.2555   41.7127 H   0  0  0  0  0  0  0  0  0  0  0  0
  1  4  1  0
  1 16  1  0
  3  2  2  0
  4  3  1  0
  5  6  1  0
  5  4  2  0
  6  7  2  0
  7  2  1  0
  8  1  1  0
  9 10  1  0
  9  8  1  0
 11 10  1  0
 12 13  1  0
 12 11  1  0
 13  9  1  0
 14 13  1  0
 15 14  2  0
 17 16  1  0
 17 18  1  0
 17 22  1  0
 18 19  1  0
 19 20  1  0
 21 20  1  0
 22 21  1  0
  1 23  1  6
  2 24  1  0
  3 25  1  0
  6 26  1  0
  8 27  1  0
  8 28  1  0
  9 29  1  6
 10 30  1  0
 10 31  1  0
 11 32  1  0
 11 33  1  0
 12 34  1  0
 12 35  1  0
 13 36  1  6
 14 37  1  0
 16 38  1  0
 16 39  1  0
 18 40  1  0
 18 41  1  0
 19 42  1  0
 19 43  1  0
 21 44  1  0
 21 45  1  0
 22 46  1  0
 22 47  1  0
M  ISO  8  23   8  24  14  25  14  26  14  27   8  28   8  29  13  30  13
M  ISO  8  31  13  32  13  33  13  34  13  35  13  36  13  37   6  38   8
M  ISO  8  39   8  40  13  41  13  42  13  43  13  44  13  45  13  46  13
M  ISO  1  47  13
M  END
>  <minimizedAffinity>  (1) 
-4.87177134

>  <minimizedRMSD>  (1) 
4.78913879

$$$$
