
     RDKit          3D

 36 37  0  0  1  0  0  0  0  0999 V2000
   37.8500   26.3920   42.3250 C   0  0  0  0  0  0  0  0  0  0  0  0
   37.2320   25.0930   41.9230 C   0  0  2  0  0  0  0  0  0  0  0  0
   38.1690   23.9240   41.8980 C   0  0  0  0  0  0  0  0  0  0  0  0
   37.7270   23.0430   40.7550 C   0  0  0  0  0  0  0  0  0  0  0  0
   36.5250   23.7560   40.1250 C   0  0  0  0  0  0  0  0  0  0  0  0
   36.7760   25.1910   40.5060 C   0  0  2  0  0  0  0  0  0  0  0  0
   37.7960   25.7030   39.5530 C   0  0  0  0  0  0  0  0  0  0  0  0
   38.9520   26.0420   39.3600 O   0  0  0  0  0  0  0  0  0  0  0  0
   36.7550   27.4190   42.5580 C   0  0  2  0  0  0  0  0  0  0  0  0
   38.9530   30.0990   41.0340 C   0  0  0  0  0  0  0  0  0  0  0  0
   38.5740   28.8820   41.6280 C   0  0  0  0  0  0  0  0  0  0  0  0
   37.2060   28.6720   41.9380 C   0  0  0  0  0  0  0  0  0  0  0  0
   36.3630   29.7090   41.6170 N   0  0  0  0  0  0  0  0  0  0  0  0
   36.7390   30.8460   41.0600 C   0  0  0  0  0  0  0  0  0  0  0  0
   38.0470   31.0500   40.7620 N   0  0  0  0  0  0  0  0  0  0  0  0
   36.4880   27.5890   44.0480 C   0  0  0  0  0  0  0  0  0  0  0  0
   36.7970   28.8960   44.5350 N   0  0  0  0  0  0  0  0  0  0  0  0
   38.5191   26.7434   41.5257 H   0  0  0  0  0  0  0  0  0  0  0  0
   38.4282   26.2538   43.2505 H   0  0  0  0  0  0  0  0  0  0  0  0
   36.4441   24.9263   42.6722 H   0  0  0  0  0  0  0  0  0  0  0  0
   39.2011   24.2680   41.7352 H   0  0  0  0  0  0  0  0  0  0  0  0
   38.1475   23.3772   42.8522 H   0  0  0  0  0  0  0  0  0  0  0  0
   38.5373   22.9335   40.0192 H   0  0  0  0  0  0  0  0  0  0  0  0
   37.4655   22.0314   41.0988 H   0  0  0  0  0  0  0  0  0  0  0  0
   35.5773   23.3904   40.5472 H   0  0  0  0  0  0  0  0  0  0  0  0
   36.4326   23.5950   39.0408 H   0  0  0  0  0  0  0  0  0  0  0  0
   35.9255   25.8862   40.4484 H   0  0  0  0  0  0  0  0  0  0  0  0
   37.2759   25.8353   38.5928 H   0  0  0  0  0  0  0  0  0  0  0  0
   35.8040   27.0970   42.1087 H   0  0  0  0  0  0  0  0  0  0  0  0
   40.0108   30.2741   40.7882 H   0  0  0  0  0  0  0  0  0  0  0  0
   39.3240   28.1079   41.8479 H   0  0  0  0  0  0  0  0  0  0  0  0
   35.9945   31.6248   40.8385 H   0  0  0  0  0  0  0  0  0  0  0  0
   35.4227   27.3898   44.2361 H   0  0  0  0  0  0  0  0  0  0  0  0
   37.1435   26.8821   44.5777 H   0  0  0  0  0  0  0  0  0  0  0  0
   36.7951   28.8879   45.5650 H   0  0  0  0  0  0  0  0  0  0  0  0
   37.7278   29.1777   44.1956 H   0  0  0  0  0  0  0  0  0  0  0  0
  1  9  1  0
  2  1  1  0
  3  2  1  0
  4  3  1  0
  5  6  1  0
  5  4  1  0
  6  2  1  0
  7  6  1  0
  8  7  2  0
  9 16  1  0
 10 11  2  0
 11 12  1  0
 12  9  1  0
 13 12  2  0
 14 13  1  0
 15 10  1  0
 15 14  2  0
 16 17  1  0
  1 18  1  0
  1 19  1  0
  2 20  1  1
  3 21  1  0
  3 22  1  0
  4 23  1  0
  4 24  1  0
  5 25  1  0
  5 26  1  0
  6 27  1  1
  7 28  1  0
  9 29  1  6
 10 30  1  0
 11 31  1  0
 14 32  1  0
 16 33  1  0
 16 34  1  0
 17 35  1  0
 17 36  1  0
M  ISO  8  18   8  19   8  20  13  21  13  22  13  23  13  24  13  25  13
M  ISO  8  26  13  27  13  28   6  29   8  30  14  31  14  32  14  33   8
M  ISO  3  34   8  35   5  36   5
M  END
>  <minimizedAffinity>  (1) 
-4.49595881

>  <minimizedRMSD>  (1) 
0.866549492

$$$$
