
     RDKit          3D

 41 42  0  0  1  0  0  0  0  0999 V2000
   37.5670   28.2120   41.3530 C   0  0  1  0  0  0  0  0  0  0  0  0
   36.8560   29.7630   37.9720 C   0  0  0  0  0  0  0  0  0  0  0  0
   37.5770   29.3210   39.0950 C   0  0  0  0  0  0  0  0  0  0  0  0
   36.8660   28.6930   40.1560 C   0  0  0  0  0  0  0  0  0  0  0  0
   35.5150   28.5830   39.9610 N   0  0  0  0  0  0  0  0  0  0  0  0
   34.8400   28.9990   38.9040 C   0  0  0  0  0  0  0  0  0  0  0  0
   35.5210   29.5970   37.8960 N   0  0  0  0  0  0  0  0  0  0  0  0
   38.6080   27.2120   40.8850 C   0  0  0  0  0  0  0  0  0  0  0  0
   38.3650   25.8860   41.5060 C   0  0  2  0  0  0  0  0  0  0  0  0
   39.4100   24.8490   41.2930 C   0  0  0  0  0  0  0  0  0  0  0  0
   38.7010   23.5220   41.1830 C   0  0  0  0  0  0  0  0  0  0  0  0
   37.2080   23.8400   41.3160 C   0  0  0  0  0  0  0  0  0  0  0  0
   37.1490   25.2740   40.8680 C   0  0  2  0  0  0  0  0  0  0  0  0
   37.1690   25.2450   39.3820 C   0  0  0  0  0  0  0  0  0  0  0  0
   36.6870   25.6800   38.3400 O   0  0  0  0  0  0  0  0  0  0  0  0
   38.2100   29.3450   42.1230 C   0  0  0  0  0  0  0  0  0  0  0  0
   38.0510   29.2490   43.5330 N   0  0  0  0  0  0  0  0  0  0  0  0
   36.9040   28.5000   43.9220 C   0  0  0  0  0  0  0  0  0  0  0  0
   36.0040   27.9010   43.2120 N   0  0  0  0  0  0  0  0  0  0  0  0
   36.5730   28.2970   45.3050 N   0  0  0  0  0  0  0  0  0  0  0  0
   36.1320   27.9720   42.1640 H   0  0  0  0  0  0  0  0  0  0  0  0
   36.8534   27.7419   42.0457 H   0  0  0  0  0  0  0  0  0  0  0  0
   37.3895   30.2515   37.1433 H   0  0  0  0  0  0  0  0  0  0  0  0
   38.6670   29.4576   39.1524 H   0  0  0  0  0  0  0  0  0  0  0  0
   33.7501   28.8631   38.8434 H   0  0  0  0  0  0  0  0  0  0  0  0
   38.5524   27.1157   39.7906 H   0  0  0  0  0  0  0  0  0  0  0  0
   39.6053   27.5686   41.1820 H   0  0  0  0  0  0  0  0  0  0  0  0
   38.3025   26.1156   42.5799 H   0  0  0  0  0  0  0  0  0  0  0  0
   39.9658   25.0579   40.3670 H   0  0  0  0  0  0  0  0  0  0  0  0
   40.1295   24.8411   42.1250 H   0  0  0  0  0  0  0  0  0  0  0  0
   38.9088   23.0552   40.2089 H   0  0  0  0  0  0  0  0  0  0  0  0
   39.0371   22.8157   41.9564 H   0  0  0  0  0  0  0  0  0  0  0  0
   36.6026   23.1930   40.6642 H   0  0  0  0  0  0  0  0  0  0  0  0
   36.8096   23.6763   42.3281 H   0  0  0  0  0  0  0  0  0  0  0  0
   36.2613   25.8574   41.1538 H   0  0  0  0  0  0  0  0  0  0  0  0
   37.9496   24.5264   39.0917 H   0  0  0  0  0  0  0  0  0  0  0  0
   39.2863   29.3507   41.8958 H   0  0  0  0  0  0  0  0  0  0  0  0
   37.7059   30.2705   41.8080 H   0  0  0  0  0  0  0  0  0  0  0  0
   38.7012   29.6788   44.2063 H   0  0  0  0  0  0  0  0  0  0  0  0
   35.7375   27.7511   45.5598 H   0  0  0  0  0  0  0  0  0  0  0  0
   37.1711   28.6973   46.0418 H   0  0  0  0  0  0  0  0  0  0  0  0
  1 16  1  0
  2  3  2  0
  3  4  1  0
  4  1  1  0
  5  4  2  0
  6  5  1  0
  7  2  1  0
  7  6  2  0
  8  1  1  0
  8  9  1  0
 10  9  1  0
 11 10  1  0
 11 12  1  0
 13 12  1  0
 13  9  1  0
 14 13  1  0
 15 14  2  0
 16 17  1  0
 17 18  1  0
 18 20  1  0
 19 18  2  0
 21 19  1  0
  1 22  1  1
  2 23  1  0
  3 24  1  0
  6 25  1  0
  8 26  1  0
  8 27  1  0
  9 28  1  1
 10 29  1  0
 10 30  1  0
 11 31  1  0
 11 32  1  0
 12 33  1  0
 12 34  1  0
 13 35  1  6
 14 36  1  0
 16 37  1  0
 16 38  1  0
 17 39  1  0
 20 40  1  0
 20 41  1  0
M  ISO  8  22   8  23  14  24  14  25  14  26   8  27   8  28  13  29  13
M  ISO  8  30  13  31  13  32  13  33  13  34  13  35  13  36   6  37   8
M  ISO  1  38   8
M  END
>  <minimizedAffinity>  (1) 
-4.4126029

>  <minimizedRMSD>  (1) 
2.92302012

$$$$
