
     RDKit          3D

 46 49  0  0  1  0  0  0  0  0999 V2000
   39.1970   25.7670   42.0370 C   0  0  1  0  0  0  0  0  0  0  0  0
   39.1350   24.3790   41.3320 C   0  0  0  0  0  0  0  0  0  0  0  0
   37.8000   23.8360   41.5950 C   0  0  0  0  0  0  0  0  0  0  0  0
   36.9620   25.0910   41.9580 C   0  0  0  0  0  0  0  0  0  0  0  0
   37.9020   25.8570   42.7060 C   0  0  2  0  0  0  0  0  0  0  0  0
   41.6670   26.8520   44.6290 C   0  0  0  0  0  0  0  0  0  0  0  0
   40.4720   26.7490   43.9180 C   0  0  0  0  0  0  0  0  0  0  0  0
   40.3910   25.9080   42.8100 C   0  0  0  0  0  0  0  0  0  0  0  0
   41.5000   25.1970   42.4490 N   0  0  0  0  0  0  0  0  0  0  0  0
   42.6540   25.2980   43.1380 C   0  0  0  0  0  0  0  0  0  0  0  0
   42.7450   26.1140   44.2190 N   0  0  0  0  0  0  0  0  0  0  0  0
   37.3340   27.2350   42.8230 C   0  0  2  0  0  0  0  0  0  0  0  0
   36.2680   27.4300   43.8290 C   0  0  0  0  0  0  0  0  0  0  0  0
   36.9010   27.5690   41.4870 C   0  0  0  0  0  0  0  0  0  0  0  0
   36.8560   28.9770   41.3130 N   0  0  0  0  0  0  0  0  0  0  0  0
   35.8180   29.7190   40.8560 C   0  0  0  0  0  0  0  0  0  0  0  0
   36.2560   31.0080   40.6690 C   0  0  0  0  0  0  0  0  0  0  0  0
   37.5530   30.9840   41.0300 N   0  0  0  0  0  0  0  0  0  0  0  0
   37.9270   29.7540   41.4250 C   0  0  0  0  0  0  0  0  0  0  0  0
   39.3120   29.8820   41.7700 C   0  0  0  0  0  0  0  0  0  0  0  0
   39.9510   30.7730   42.6540 C   0  0  0  0  0  0  0  0  0  0  0  0
   41.3130   30.5650   42.6960 C   0  0  0  0  0  0  0  0  0  0  0  0
   41.4710   29.5220   41.8120 C   0  0  0  0  0  0  0  0  0  0  0  0
   40.3270   29.1800   41.3250 O   0  0  0  0  0  0  0  0  0  0  0  0
   39.3064   26.6435   41.3815 H   0  0  0  0  0  0  0  0  0  0  0  0
   39.9049   23.7096   41.7432 H   0  0  0  0  0  0  0  0  0  0  0  0
   39.3192   24.4739   40.2517 H   0  0  0  0  0  0  0  0  0  0  0  0
   37.3952   23.3382   40.7015 H   0  0  0  0  0  0  0  0  0  0  0  0
   37.7965   23.0747   42.3890 H   0  0  0  0  0  0  0  0  0  0  0  0
   36.6331   25.6285   41.0564 H   0  0  0  0  0  0  0  0  0  0  0  0
   36.0332   24.8665   42.5030 H   0  0  0  0  0  0  0  0  0  0  0  0
   38.0749   25.4924   43.7293 H   0  0  0  0  0  0  0  0  0  0  0  0
   41.7424   27.5145   45.5039 H   0  0  0  0  0  0  0  0  0  0  0  0
   39.5933   27.3316   44.2318 H   0  0  0  0  0  0  0  0  0  0  0  0
   43.5305   24.7136   42.8213 H   0  0  0  0  0  0  0  0  0  0  0  0
   38.1092   27.9104   43.2141 H   0  0  0  0  0  0  0  0  0  0  0  0
   36.6977   27.3514   44.8385 H   0  0  0  0  0  0  0  0  0  0  0  0
   35.8182   28.4253   43.6984 H   0  0  0  0  0  0  0  0  0  0  0  0
   35.4950   26.6584   43.6984 H   0  0  0  0  0  0  0  0  0  0  0  0
   37.6051   27.1374   40.7604 H   0  0  0  0  0  0  0  0  0  0  0  0
   35.8922   27.1600   41.3289 H   0  0  0  0  0  0  0  0  0  0  0  0
   34.7984   29.3519   40.6670 H   0  0  0  0  0  0  0  0  0  0  0  0
   35.6757   31.8687   40.3051 H   0  0  0  0  0  0  0  0  0  0  0  0
   39.4265   31.5420   43.2401 H   0  0  0  0  0  0  0  0  0  0  0  0
   42.0764   31.0955   43.2841 H   0  0  0  0  0  0  0  0  0  0  0  0
   42.4315   29.0498   41.5583 H   0  0  0  0  0  0  0  0  0  0  0  0
  1  5  1  0
  1  8  1  0
  2  3  1  0
  2  1  1  0
  3  4  1  0
  4  5  1  0
  5 12  1  0
  7  6  2  0
  8  7  1  0
  9  8  2  0
  9 10  1  0
 10 11  2  0
 11  6  1  0
 12 13  1  0
 14 12  1  0
 15 19  1  0
 15 14  1  0
 16 15  1  0
 17 16  2  0
 17 18  1  0
 18 19  2  0
 19 20  1  0
 20 21  2  0
 21 22  1  0
 23 22  2  0
 24 20  1  0
 24 23  1  0
  1 25  1  6
  2 26  1  0
  2 27  1  0
  3 28  1  0
  3 29  1  0
  4 30  1  0
  4 31  1  0
  5 32  1  1
  6 33  1  0
  7 34  1  0
 10 35  1  0
 12 36  1  1
 13 37  1  0
 13 38  1  0
 13 39  1  0
 14 40  1  0
 14 41  1  0
 16 42  1  0
 17 43  1  0
 21 44  1  0
 22 45  1  0
 23 46  1  0
M  ISO  8  25  13  26  13  27  13  28  13  29  13  30  13  31  13  32  13
M  ISO  8  33  14  34  14  35  14  36   8  37   8  38   8  39   8  40   8
M  ISO  6  41   8  42  14  43  14  44  14  45  14  46  14
M  END
>  <minimizedAffinity>  (1) 
-5.72843027

>  <minimizedRMSD>  (1) 
0.648201406

$$$$
