
     RDKit          3D

 43 45  0  0  1  0  0  0  0  0999 V2000
   38.9560   26.6100   42.7440 C   0  0  1  0  0  0  0  0  0  0  0  0
   42.4570   25.2270   43.1120 C   0  0  0  0  0  0  0  0  0  0  0  0
   41.1500   25.3890   42.6150 C   0  0  0  0  0  0  0  0  0  0  0  0
   40.3520   26.3720   43.2070 C   0  0  0  0  0  0  0  0  0  0  0  0
   40.9090   27.1010   44.2270 N   0  0  0  0  0  0  0  0  0  0  0  0
   42.1400   26.9300   44.6760 C   0  0  0  0  0  0  0  0  0  0  0  0
   42.9250   25.9910   44.1220 N   0  0  0  0  0  0  0  0  0  0  0  0
   38.3510   25.2570   42.4500 C   0  0  0  0  0  0  0  0  0  0  0  0
   37.2000   25.3900   41.5380 C   0  0  2  0  0  0  0  0  0  0  0  0
   36.5590   24.0900   41.1510 C   0  0  0  0  0  0  0  0  0  0  0  0
   36.0840   24.2790   39.7120 C   0  0  0  0  0  0  0  0  0  0  0  0
   36.4770   25.7030   39.3280 C   0  0  0  0  0  0  0  0  0  0  0  0
   37.6250   25.9700   40.2460 C   0  0  2  0  0  0  0  0  0  0  0  0
   38.8240   25.3130   39.6400 C   0  0  0  0  0  0  0  0  0  0  0  0
   39.9890   25.4550   39.2530 O   0  0  0  0  0  0  0  0  0  0  0  0
   38.1350   27.3430   43.8060 C   0  0  0  0  0  0  0  0  0  0  0  0
   37.3380   28.3370   43.2830 O   0  0  0  0  0  0  0  0  0  0  0  0
   37.6940   29.4100   42.5260 C   0  0  0  0  0  0  0  0  0  0  0  0
   38.9600   29.9410   42.8020 C   0  0  0  0  0  0  0  0  0  0  0  0
   39.4650   31.0310   42.1200 C   0  0  0  0  0  0  0  0  0  0  0  0
   38.7160   31.6030   41.1570 N   0  0  0  0  0  0  0  0  0  0  0  0
   37.4940   31.0970   40.8850 C   0  0  0  0  0  0  0  0  0  0  0  0
   37.0020   30.0340   41.5520 N   0  0  0  0  0  0  0  0  0  0  0  0
   38.9563   27.2471   41.8473 H   0  0  0  0  0  0  0  0  0  0  0  0
   43.1108   24.4618   42.6681 H   0  0  0  0  0  0  0  0  0  0  0  0
   40.7710   24.7655   41.7918 H   0  0  0  0  0  0  0  0  0  0  0  0
   42.5199   27.5532   45.4990 H   0  0  0  0  0  0  0  0  0  0  0  0
   39.1114   24.6152   41.9811 H   0  0  0  0  0  0  0  0  0  0  0  0
   38.0055   24.8104   43.3940 H   0  0  0  0  0  0  0  0  0  0  0  0
   36.4926   26.0132   42.1047 H   0  0  0  0  0  0  0  0  0  0  0  0
   37.2891   23.2693   41.2097 H   0  0  0  0  0  0  0  0  0  0  0  0
   35.7281   23.8298   41.8232 H   0  0  0  0  0  0  0  0  0  0  0  0
   36.5762   23.5534   39.0477 H   0  0  0  0  0  0  0  0  0  0  0  0
   34.9996   24.1193   39.6193 H   0  0  0  0  0  0  0  0  0  0  0  0
   36.7868   25.7611   38.2741 H   0  0  0  0  0  0  0  0  0  0  0  0
   35.6563   26.4292   39.4233 H   0  0  0  0  0  0  0  0  0  0  0  0
   37.8907   27.0265   40.3986 H   0  0  0  0  0  0  0  0  0  0  0  0
   38.5563   24.2605   39.4652 H   0  0  0  0  0  0  0  0  0  0  0  0
   37.4919   26.6117   44.3175 H   0  0  0  0  0  0  0  0  0  0  0  0
   38.8451   27.8217   44.4964 H   0  0  0  0  0  0  0  0  0  0  0  0
   39.5725   29.4748   43.5878 H   0  0  0  0  0  0  0  0  0  0  0  0
   40.4633   31.4260   42.3594 H   0  0  0  0  0  0  0  0  0  0  0  0
   36.8838   31.5647   40.0982 H   0  0  0  0  0  0  0  0  0  0  0  0
  1  4  1  0
  1 16  1  0
  2  7  2  0
  3  2  1  0
  3  4  2  0
  4  5  1  0
  5  6  2  0
  7  6  1  0
  8  1  1  0
  9  8  1  0
 10  9  1  0
 11 10  1  0
 12 11  1  0
 12 13  1  0
 13  9  1  0
 14 13  1  0
 15 14  2  0
 17 16  1  0
 18 19  2  0
 18 17  1  0
 20 19  1  0
 21 20  2  0
 22 21  1  0
 22 23  2  0
 23 18  1  0
  1 24  1  6
  2 25  1  0
  3 26  1  0
  6 27  1  0
  8 28  1  0
  8 29  1  0
  9 30  1  1
 10 31  1  0
 10 32  1  0
 11 33  1  0
 11 34  1  0
 12 35  1  0
 12 36  1  0
 13 37  1  1
 14 38  1  0
 16 39  1  0
 16 40  1  0
 19 41  1  0
 20 42  1  0
 22 43  1  0
M  ISO  8  24   8  25  14  26  14  27  14  28   8  29   8  30  13  31  13
M  ISO  8  32  13  33  13  34  13  35  13  36  13  37  13  38   6  39   8
M  ISO  4  40   8  41  14  42  14  43  14
M  END
>  <minimizedAffinity>  (1) 
-4.80846643

>  <minimizedRMSD>  (1) 
5.03108215

$$$$
