
     RDKit          3D

 38 39  0  0  1  0  0  0  0  0999 V2000
   37.7090   27.2800   40.0460 C   0  0  0  0  0  0  0  0  0  0  0  0
   37.0860   26.1070   40.7170 C   0  0  2  0  0  0  0  0  0  0  0  0
   38.0540   25.2080   41.4240 C   0  0  0  0  0  0  0  0  0  0  0  0
   37.5060   23.8010   41.2830 C   0  0  0  0  0  0  0  0  0  0  0  0
   36.2270   23.9390   40.4660 C   0  0  0  0  0  0  0  0  0  0  0  0
   36.4700   25.2140   39.7160 C   0  0  2  0  0  0  0  0  0  0  0  0
   37.3560   24.8770   38.5550 C   0  0  0  0  0  0  0  0  0  0  0  0
   37.6200   24.0310   37.7070 O   0  0  0  0  0  0  0  0  0  0  0  0
   37.2280   28.5620   40.6820 C   0  0  2  0  0  0  0  0  0  0  0  0
   37.0980   31.8970   38.9000 C   0  0  0  0  0  0  0  0  0  0  0  0
   37.0110   30.9460   39.9340 C   0  0  0  0  0  0  0  0  0  0  0  0
   37.3020   29.6150   39.6330 C   0  0  0  0  0  0  0  0  0  0  0  0
   37.6600   29.3270   38.3310 N   0  0  0  0  0  0  0  0  0  0  0  0
   37.7350   30.2420   37.3730 C   0  0  0  0  0  0  0  0  0  0  0  0
   37.4530   31.5370   37.6570 N   0  0  0  0  0  0  0  0  0  0  0  0
   38.0790   28.9170   41.8910 C   0  0  0  0  0  0  0  0  0  0  0  0
   37.2980   29.2520   42.9960 O   0  0  0  0  0  0  0  0  0  0  0  0
   37.2920   28.3440   44.0670 C   0  0  0  0  0  0  0  0  0  0  0  0
   38.1420   27.4130   44.0240 O   0  0  0  0  0  0  0  0  0  0  0  0
   36.4280   28.4240   45.1230 O   0  0  0  0  0  0  0  0  0  0  0  0
   37.4340   27.2775   38.9809 H   0  0  0  0  0  0  0  0  0  0  0  0
   38.8019   27.2151   40.1523 H   0  0  0  0  0  0  0  0  0  0  0  0
   36.3825   26.5598   41.4312 H   0  0  0  0  0  0  0  0  0  0  0  0
   39.0486   25.2781   40.9593 H   0  0  0  0  0  0  0  0  0  0  0  0
   38.1646   25.4908   42.4813 H   0  0  0  0  0  0  0  0  0  0  0  0
   38.2287   23.1582   40.7591 H   0  0  0  0  0  0  0  0  0  0  0  0
   37.3151   23.3386   42.2627 H   0  0  0  0  0  0  0  0  0  0  0  0
   36.0985   23.0897   39.7788 H   0  0  0  0  0  0  0  0  0  0  0  0
   35.3114   23.9515   41.0756 H   0  0  0  0  0  0  0  0  0  0  0  0
   35.5826   25.7072   39.2926 H   0  0  0  0  0  0  0  0  0  0  0  0
   38.0410   25.7242   38.4033 H   0  0  0  0  0  0  0  0  0  0  0  0
   36.1964   28.4598   41.0500 H   0  0  0  0  0  0  0  0  0  0  0  0
   36.8714   32.9519   39.1142 H   0  0  0  0  0  0  0  0  0  0  0  0
   36.7213   31.2442   40.9524 H   0  0  0  0  0  0  0  0  0  0  0  0
   38.0248   29.9508   36.3526 H   0  0  0  0  0  0  0  0  0  0  0  0
   38.7083   28.0525   42.1492 H   0  0  0  0  0  0  0  0  0  0  0  0
   38.6938   29.7912   41.6304 H   0  0  0  0  0  0  0  0  0  0  0  0
   36.4715   27.7535   45.8501 H   0  0  0  0  0  0  0  0  0  0  0  0
  1  9  1  0
  1  2  1  0
  2  3  1  0
  4  3  1  0
  5  4  1  0
  6  5  1  0
  6  2  1  0
  7  6  1  0
  8  7  2  0
  9 16  1  0
 10 11  2  0
 12 11  1  0
 12  9  1  0
 13 12  2  0
 14 15  2  0
 14 13  1  0
 15 10  1  0
 16 17  1  0
 17 18  1  0
 18 20  1  0
 19 18  2  0
  1 21  1  0
  1 22  1  0
  2 23  1  1
  3 24  1  0
  3 25  1  0
  4 26  1  0
  4 27  1  0
  5 28  1  0
  5 29  1  0
  6 30  1  6
  7 31  1  0
  9 32  1  1
 10 33  1  0
 11 34  1  0
 14 35  1  0
 16 36  1  0
 16 37  1  0
 20 38  1  0
M  ISO  8  21   8  22   8  23  13  24  13  25  13  26  13  27  13  28  13
M  ISO  8  29  13  30  13  31   6  32   8  33  14  34  14  35  14  36   8
M  ISO  2  37   8  38   3
M  END
>  <minimizedAffinity>  (1) 
-4.41901636

>  <minimizedRMSD>  (1) 
2.68813896

$$$$
