
     RDKit          3D

 47 50  0  0  1  0  0  0  0  0999 V2000
   37.3530   27.2810   42.8680 C   0  0  2  0  0  0  0  0  0  0  0  0
   39.2060   25.7990   42.0750 C   0  0  1  0  0  0  0  0  0  0  0  0
   39.1300   24.4010   41.3920 C   0  0  0  0  0  0  0  0  0  0  0  0
   37.7970   23.8680   41.6740 C   0  0  0  0  0  0  0  0  0  0  0  0
   36.9670   25.1320   42.0210 C   0  0  0  0  0  0  0  0  0  0  0  0
   37.9170   25.8950   42.7520 C   0  0  2  0  0  0  0  0  0  0  0  0
   41.7180   26.9300   44.6080 C   0  0  0  0  0  0  0  0  0  0  0  0
   40.5180   26.8290   43.9070 C   0  0  0  0  0  0  0  0  0  0  0  0
   40.4110   25.9440   42.8330 C   0  0  0  0  0  0  0  0  0  0  0  0
   41.4970   25.1910   42.4980 N   0  0  0  0  0  0  0  0  0  0  0  0
   42.6550   25.2900   43.1790 C   0  0  0  0  0  0  0  0  0  0  0  0
   42.7760   26.1480   44.2250 N   0  0  0  0  0  0  0  0  0  0  0  0
   36.2860   27.4870   43.8690 C   0  0  0  0  0  0  0  0  0  0  0  0
   36.9250   27.6110   41.5260 C   0  0  0  0  0  0  0  0  0  0  0  0
   36.8960   29.0130   41.3350 N   0  0  0  0  0  0  0  0  0  0  0  0
   35.8630   29.7900   40.9220 C   0  0  0  0  0  0  0  0  0  0  0  0
   36.3210   31.0620   40.7100 C   0  0  0  0  0  0  0  0  0  0  0  0
   37.6420   31.0170   41.0110 N   0  0  0  0  0  0  0  0  0  0  0  0
   37.9920   29.7670   41.3950 C   0  0  0  0  0  0  0  0  0  0  0  0
   39.3870   29.8690   41.6850 C   0  0  0  0  0  0  0  0  0  0  0  0
   40.0140   30.6690   42.6190 C   0  0  0  0  0  0  0  0  0  0  0  0
   41.3630   30.7240   42.8820 C   0  0  0  0  0  0  0  0  0  0  0  0
   42.1270   29.9240   42.1610 N   0  0  0  0  0  0  0  0  0  0  0  0
   41.6010   29.1150   41.2340 C   0  0  0  0  0  0  0  0  0  0  0  0
   40.2980   29.0930   41.0130 N   0  0  0  0  0  0  0  0  0  0  0  0
   38.1290   27.9528   43.2636 H   0  0  0  0  0  0  0  0  0  0  0  0
   39.3135   26.6705   41.4124 H   0  0  0  0  0  0  0  0  0  0  0  0
   39.9005   23.7341   41.8063 H   0  0  0  0  0  0  0  0  0  0  0  0
   39.3040   24.4796   40.3087 H   0  0  0  0  0  0  0  0  0  0  0  0
   37.3837   23.3561   40.7924 H   0  0  0  0  0  0  0  0  0  0  0  0
   37.7966   23.1205   42.4810 H   0  0  0  0  0  0  0  0  0  0  0  0
   36.6385   25.6600   41.1136 H   0  0  0  0  0  0  0  0  0  0  0  0
   36.0368   24.9241   42.5700 H   0  0  0  0  0  0  0  0  0  0  0  0
   38.0995   25.5313   43.7740 H   0  0  0  0  0  0  0  0  0  0  0  0
   41.8144   27.6257   45.4546 H   0  0  0  0  0  0  0  0  0  0  0  0
   39.6558   27.4462   44.1998 H   0  0  0  0  0  0  0  0  0  0  0  0
   43.5133   24.6683   42.8844 H   0  0  0  0  0  0  0  0  0  0  0  0
   36.7111   27.4049   44.8802 H   0  0  0  0  0  0  0  0  0  0  0  0
   35.8465   28.4866   43.7360 H   0  0  0  0  0  0  0  0  0  0  0  0
   35.5060   26.7229   43.7360 H   0  0  0  0  0  0  0  0  0  0  0  0
   37.6248   27.1638   40.8047 H   0  0  0  0  0  0  0  0  0  0  0  0
   35.9102   27.2147   41.3736 H   0  0  0  0  0  0  0  0  0  0  0  0
   34.8258   29.4522   40.7806 H   0  0  0  0  0  0  0  0  0  0  0  0
   35.7422   31.9330   40.3690 H   0  0  0  0  0  0  0  0  0  0  0  0
   39.3681   31.3309   43.2145 H   0  0  0  0  0  0  0  0  0  0  0  0
   41.7805   31.3946   43.6475 H   0  0  0  0  0  0  0  0  0  0  0  0
   42.2619   28.4594   40.6480 H   0  0  0  0  0  0  0  0  0  0  0  0
  1 13  1  0
  2  6  1  0
  2  9  1  0
  3  4  1  0
  3  2  1  0
  4  5  1  0
  5  6  1  0
  6  1  1  0
  8  7  2  0
  9  8  1  0
 10  9  2  0
 10 11  1  0
 11 12  2  0
 12  7  1  0
 14  1  1  0
 15 19  1  0
 15 14  1  0
 16 15  1  0
 17 16  2  0
 17 18  1  0
 18 19  2  0
 19 20  1  0
 20 21  2  0
 21 22  1  0
 23 22  2  0
 24 23  1  0
 25 24  2  0
 25 20  1  0
  1 26  1  1
  2 27  1  6
  3 28  1  0
  3 29  1  0
  4 30  1  0
  4 31  1  0
  5 32  1  0
  5 33  1  0
  6 34  1  1
  7 35  1  0
  8 36  1  0
 11 37  1  0
 13 38  1  0
 13 39  1  0
 13 40  1  0
 14 41  1  0
 14 42  1  0
 16 43  1  0
 17 44  1  0
 21 45  1  0
 22 46  1  0
 24 47  1  0
M  ISO  8  26   8  27  13  28  13  29  13  30  13  31  13  32  13  33  13
M  ISO  8  34  13  35  14  36  14  37  14  38   8  39   8  40   8  41   8
M  ISO  6  42   8  43  14  44  14  45  14  46  14  47  14
M  END
>  <minimizedAffinity>  (1) 
-5.69457054

>  <minimizedRMSD>  (1) 
0.597620368

$$$$
