
     RDKit          3D

 52 55  0  0  1  0  0  0  0  0999 V2000
   37.8590   28.2100   41.3810 C   0  0  1  0  0  0  0  0  0  0  0  0
   38.6360   30.9370   38.9030 C   0  0  0  0  0  0  0  0  0  0  0  0
   38.6270   29.6730   39.5140 C   0  0  0  0  0  0  0  0  0  0  0  0
   37.8590   29.5030   40.6590 C   0  0  0  0  0  0  0  0  0  0  0  0
   37.1550   30.5840   41.1160 N   0  0  0  0  0  0  0  0  0  0  0  0
   37.1880   31.7710   40.5070 C   0  0  0  0  0  0  0  0  0  0  0  0
   37.9260   31.9480   39.4040 N   0  0  0  0  0  0  0  0  0  0  0  0
   38.4580   27.1510   40.5390 C   0  0  0  0  0  0  0  0  0  0  0  0
   38.3610   25.8210   41.1380 C   0  0  2  0  0  0  0  0  0  0  0  0
   39.2840   24.8270   40.4880 C   0  0  0  0  0  0  0  0  0  0  0  0
   38.5550   23.4950   40.6040 C   0  0  0  0  0  0  0  0  0  0  0  0
   37.1950   23.8130   41.2320 C   0  0  0  0  0  0  0  0  0  0  0  0
   36.9990   25.2600   40.8670 C   0  0  2  0  0  0  0  0  0  0  0  0
   36.5900   25.3070   39.4370 C   0  0  0  0  0  0  0  0  0  0  0  0
   35.7060   24.7870   38.7390 O   0  0  0  0  0  0  0  0  0  0  0  0
   38.4740   28.2790   42.7700 C   0  0  1  0  0  0  0  0  0  0  0  0
   39.7610   28.6490   42.8610 N   0  0  0  0  0  0  0  0  0  0  0  0
   40.3190   29.8490   42.6060 C   0  0  0  0  0  0  0  0  0  0  0  0
   41.6480   29.8240   42.8110 N   0  0  0  0  0  0  0  0  0  0  0  0
   41.9820   28.5890   43.2100 C   0  0  0  0  0  0  0  0  0  0  0  0
   43.2300   28.0990   43.5330 C   0  0  0  0  0  0  0  0  0  0  0  0
   43.2820   26.8070   43.9040 N   0  0  0  0  0  0  0  0  0  0  0  0
   42.1320   26.0720   43.9390 C   0  0  0  0  0  0  0  0  0  0  0  0
   40.9250   26.5720   43.6190 N   0  0  0  0  0  0  0  0  0  0  0  0
   40.8130   27.8580   43.2410 C   0  0  0  0  0  0  0  0  0  0  0  0
   44.4010   28.8800   43.4870 N   0  0  0  0  0  0  0  0  0  0  0  0
   37.5340   28.7530   43.6960 O   0  0  0  0  0  0  0  0  0  0  0  0
   36.6250   28.0590   44.3570 C   0  0  0  0  0  0  0  0  0  0  0  0
   36.2840   28.5000   45.6520 N   0  0  0  0  0  0  0  0  0  0  0  0
   36.1120   27.0620   43.8100 O   0  0  0  0  0  0  0  0  0  0  0  0
   36.8073   27.9465   41.5670 H   0  0  0  0  0  0  0  0  0  0  0  0
   39.2385   31.0957   37.9965 H   0  0  0  0  0  0  0  0  0  0  0  0
   39.2122   28.8399   39.0974 H   0  0  0  0  0  0  0  0  0  0  0  0
   36.6047   32.6100   40.9142 H   0  0  0  0  0  0  0  0  0  0  0  0
   39.5206   27.3877   40.3815 H   0  0  0  0  0  0  0  0  0  0  0  0
   37.8976   27.1271   39.5927 H   0  0  0  0  0  0  0  0  0  0  0  0
   38.6000   25.9519   42.2037 H   0  0  0  0  0  0  0  0  0  0  0  0
   40.2484   24.7894   41.0158 H   0  0  0  0  0  0  0  0  0  0  0  0
   39.5118   25.0890   39.4442 H   0  0  0  0  0  0  0  0  0  0  0  0
   38.4211   23.0445   39.6095 H   0  0  0  0  0  0  0  0  0  0  0  0
   39.1225   22.7762   41.2133 H   0  0  0  0  0  0  0  0  0  0  0  0
   36.4017   23.1836   40.8025 H   0  0  0  0  0  0  0  0  0  0  0  0
   37.1569   23.6245   42.3151 H   0  0  0  0  0  0  0  0  0  0  0  0
   36.2253   25.8218   41.4108 H   0  0  0  0  0  0  0  0  0  0  0  0
   37.2372   25.9735   38.8480 H   0  0  0  0  0  0  0  0  0  0  0  0
   38.6836   27.2523   43.1045 H   0  0  0  0  0  0  0  0  0  0  0  0
   39.7592   30.7354   42.2729 H   0  0  0  0  0  0  0  0  0  0  0  0
   42.1958   25.0172   44.2445 H   0  0  0  0  0  0  0  0  0  0  0  0
   45.3084   28.4629   43.7390 H   0  0  0  0  0  0  0  0  0  0  0  0
   44.3500   29.8683   43.2014 H   0  0  0  0  0  0  0  0  0  0  0  0
   35.5797   27.9875   46.2018 H   0  0  0  0  0  0  0  0  0  0  0  0
   36.7392   29.3347   46.0483 H   0  0  0  0  0  0  0  0  0  0  0  0
  1 16  1  0
  2  7  2  0
  2  3  1  0
  3  4  2  0
  4  5  1  0
  4  1  1  0
  6  5  2  0
  7  6  1  0
  8  9  1  0
  8  1  1  0
 10 11  1  0
 10  9  1  0
 11 12  1  0
 13  9  1  0
 13 12  1  0
 14 13  1  0
 15 14  2  0
 16 17  1  0
 16 27  1  0
 17 25  1  0
 18 19  2  0
 18 17  1  0
 19 20  1  0
 20 25  2  0
 20 21  1  0
 21 22  2  0
 22 23  1  0
 24 23  2  0
 25 24  1  0
 26 21  1  0
 27 28  1  0
 28 29  1  0
 30 28  2  0
  1 31  1  1
  2 32  1  0
  3 33  1  0
  6 34  1  0
  8 35  1  0
  8 36  1  0
  9 37  1  1
 10 38  1  0
 10 39  1  0
 11 40  1  0
 11 41  1  0
 12 42  1  0
 12 43  1  0
 13 44  1  1
 14 45  1  0
 16 46  1  1
 18 47  1  0
 23 48  1  0
 26 49  1  0
 26 50  1  0
 29 51  1  0
 29 52  1  0
M  ISO  8  31   8  32  14  33  14  34  14  35   8  36   8  37  13  38  13
M  ISO  8  39  13  40  13  41  13  42  13  43  13  44  13  45   6  46   8
M  ISO  2  47  14  48  14
M  END
>  <minimizedAffinity>  (1) 
-5.34341002

>  <minimizedRMSD>  (1) 
1.2932744

$$$$
