
     RDKit          3D

 52 54  0  0  1  0  0  0  0  0999 V2000
   37.7650   28.3130   41.0960 C   0  0  1  0  0  0  0  0  0  0  0  0
   38.5970   30.8520   38.4410 C   0  0  0  0  0  0  0  0  0  0  0  0
   38.6340   29.6610   39.1830 C   0  0  0  0  0  0  0  0  0  0  0  0
   37.7390   29.5210   40.2380 C   0  0  0  0  0  0  0  0  0  0  0  0
   36.8870   30.5550   40.4740 N   0  0  0  0  0  0  0  0  0  0  0  0
   36.8760   31.6770   39.7520 C   0  0  0  0  0  0  0  0  0  0  0  0
   37.7360   31.8230   38.7300 N   0  0  0  0  0  0  0  0  0  0  0  0
   38.4840   27.2150   40.4090 C   0  0  0  0  0  0  0  0  0  0  0  0
   38.3610   25.9390   41.1150 C   0  0  2  0  0  0  0  0  0  0  0  0
   39.3090   24.8970   40.5910 C   0  0  0  0  0  0  0  0  0  0  0  0
   38.5750   23.5710   40.7940 C   0  0  0  0  0  0  0  0  0  0  0  0
   37.2030   23.9360   41.3410 C   0  0  0  0  0  0  0  0  0  0  0  0
   37.0120   25.3470   40.8500 C   0  0  2  0  0  0  0  0  0  0  0  0
   36.6600   25.2700   39.4060 C   0  0  0  0  0  0  0  0  0  0  0  0
   35.7360   24.7890   38.7400 O   0  0  0  0  0  0  0  0  0  0  0  0
   38.2660   28.5740   42.5030 C   0  0  1  0  0  0  0  0  0  0  0  0
   41.9890   30.5130   42.9620 C   0  0  0  0  0  0  0  0  0  0  0  0
   41.8750   29.1380   42.9640 C   0  0  0  0  0  0  0  0  0  0  0  0
   40.6310   28.5300   42.8070 C   0  0  0  0  0  0  0  0  0  0  0  0
   39.4450   29.2580   42.6400 C   0  0  0  0  0  0  0  0  0  0  0  0
   39.6640   30.6210   42.6520 C   0  0  0  0  0  0  0  0  0  0  0  0
   40.8600   31.2880   42.8020 C   0  0  0  0  0  0  0  0  0  0  0  0
   43.5220   31.3280   43.1570 S   0  0  0  0  0  0  0  0  0  0  0  0
   43.4100   32.7530   42.6940 O   0  0  0  0  0  0  0  0  0  0  0  0
   43.8970   31.3520   44.6230 O   0  0  0  0  0  0  0  0  0  0  0  0
   37.1980   28.8360   43.3710 O   0  0  0  0  0  0  0  0  0  0  0  0
   36.5900   28.0020   44.1920 C   0  0  0  0  0  0  0  0  0  0  0  0
   36.3720   28.4310   45.5150 N   0  0  0  0  0  0  0  0  0  0  0  0
   36.2310   26.8880   43.7600 O   0  0  0  0  0  0  0  0  0  0  0  0
   36.7236   27.9919   41.2457 H   0  0  0  0  0  0  0  0  0  0  0  0
   39.2958   30.9849   37.6019 H   0  0  0  0  0  0  0  0  0  0  0  0
   39.3495   28.8624   38.9373 H   0  0  0  0  0  0  0  0  0  0  0  0
   36.1645   32.4806   39.9929 H   0  0  0  0  0  0  0  0  0  0  0  0
   38.0688   27.1000   39.3969 H   0  0  0  0  0  0  0  0  0  0  0  0
   39.5512   27.4801   40.3796 H   0  0  0  0  0  0  0  0  0  0  0  0
   38.5567   26.1667   42.1732 H   0  0  0  0  0  0  0  0  0  0  0  0
   40.2518   24.9097   41.1575 H   0  0  0  0  0  0  0  0  0  0  0  0
   39.5770   25.0686   39.5380 H   0  0  0  0  0  0  0  0  0  0  0  0
   38.4763   23.0375   39.8371 H   0  0  0  0  0  0  0  0  0  0  0  0
   39.1209   22.9071   41.4804 H   0  0  0  0  0  0  0  0  0  0  0  0
   36.4262   23.2684   40.9399 H   0  0  0  0  0  0  0  0  0  0  0  0
   37.1314   23.8422   42.4347 H   0  0  0  0  0  0  0  0  0  0  0  0
   36.2160   25.9434   41.3198 H   0  0  0  0  0  0  0  0  0  0  0  0
   37.4102   25.7654   38.7721 H   0  0  0  0  0  0  0  0  0  0  0  0
   38.6906   27.6336   42.8842 H   0  0  0  0  0  0  0  0  0  0  0  0
   42.7737   28.5165   43.0906 H   0  0  0  0  0  0  0  0  0  0  0  0
   40.5775   27.4313   42.8145 H   0  0  0  0  0  0  0  0  0  0  0  0
   38.7726   31.2531   42.5261 H   0  0  0  0  0  0  0  0  0  0  0  0
   40.9118   32.3868   42.7945 H   0  0  0  0  0  0  0  0  0  0  0  0
   44.4658   30.6609   42.4214 H   0  0  0  0  0  0  0  0  0  0  0  0
   35.9004   27.8090   46.1870 H   0  0  0  0  0  0  0  0  0  0  0  0
   36.6841   29.3669   45.8110 H   0  0  0  0  0  0  0  0  0  0  0  0
  1 16  1  0
  2  7  2  0
  2  3  1  0
  3  4  2  0
  4  5  1  0
  4  1  1  0
  6  5  2  0
  7  6  1  0
  8  1  1  0
  8  9  1  0
 10 11  1  0
 10  9  1  0
 11 12  1  0
 13  9  1  0
 13 12  1  0
 14 13  1  0
 15 14  2  0
 16 20  1  0
 16 26  1  0
 17 18  2  0
 17 23  1  0
 19 18  1  0
 20 21  1  0
 20 19  2  0
 21 22  2  0
 22 17  1  0
 23 25  2  0
 24 23  2  0
 26 27  1  0
 27 28  1  0
 29 27  2  0
  1 30  1  1
  2 31  1  0
  3 32  1  0
  6 33  1  0
  8 34  1  0
  8 35  1  0
  9 36  1  1
 10 37  1  0
 10 38  1  0
 11 39  1  0
 11 40  1  0
 12 41  1  0
 12 42  1  0
 13 43  1  1
 14 44  1  0
 16 45  1  1
 18 46  1  0
 19 47  1  0
 21 48  1  0
 22 49  1  0
 23 50  1  0
 28 51  1  0
 28 52  1  0
M  ISO  8  30   8  31  14  32  14  33  14  34   8  35   8  36  13  37  13
M  ISO  8  38  13  39  13  40  13  41  13  42  13  43  13  44   6  45   8
M  ISO  5  46  14  47  14  48  14  49  14  50  11
M  END
>  <minimizedAffinity>  (1) 
-5.28169441

>  <minimizedRMSD>  (1) 
1.21771204

$$$$
