
     RDKit          3D

 50 53  0  0  1  0  0  0  0  0999 V2000
   37.8660   28.2050   41.3840 C   0  0  1  0  0  0  0  0  0  0  0  0
   38.6310   30.9350   38.9060 C   0  0  0  0  0  0  0  0  0  0  0  0
   38.6380   29.6690   39.5160 C   0  0  0  0  0  0  0  0  0  0  0  0
   37.8690   29.5020   40.6670 C   0  0  0  0  0  0  0  0  0  0  0  0
   37.1640   30.5800   41.1190 N   0  0  0  0  0  0  0  0  0  0  0  0
   37.1850   31.7680   40.5100 C   0  0  0  0  0  0  0  0  0  0  0  0
   37.9200   31.9440   39.4020 N   0  0  0  0  0  0  0  0  0  0  0  0
   38.4730   27.1510   40.5440 C   0  0  0  0  0  0  0  0  0  0  0  0
   38.3610   25.8200   41.1400 C   0  0  2  0  0  0  0  0  0  0  0  0
   39.2820   24.8230   40.4910 C   0  0  0  0  0  0  0  0  0  0  0  0
   38.5460   23.4910   40.6020 C   0  0  0  0  0  0  0  0  0  0  0  0
   37.1860   23.8140   41.2250 C   0  0  0  0  0  0  0  0  0  0  0  0
   37.0000   25.2640   40.8640 C   0  0  2  0  0  0  0  0  0  0  0  0
   36.5970   25.3190   39.4320 C   0  0  0  0  0  0  0  0  0  0  0  0
   35.7070   24.8120   38.7380 O   0  0  0  0  0  0  0  0  0  0  0  0
   38.4690   28.2800   42.7780 C   0  0  1  0  0  0  0  0  0  0  0  0
   39.7490   28.6570   42.8570 N   0  0  0  0  0  0  0  0  0  0  0  0
   40.3130   29.8540   42.6010 C   0  0  0  0  0  0  0  0  0  0  0  0
   41.6440   29.8230   42.7990 N   0  0  0  0  0  0  0  0  0  0  0  0
   41.9820   28.5900   43.1950 C   0  0  0  0  0  0  0  0  0  0  0  0
   43.2250   28.1090   43.5060 C   0  0  0  0  0  0  0  0  0  0  0  0
   43.2770   26.8030   43.8790 N   0  0  0  0  0  0  0  0  0  0  0  0
   42.1440   26.0680   43.9240 C   0  0  0  0  0  0  0  0  0  0  0  0
   40.9450   26.5720   43.6120 N   0  0  0  0  0  0  0  0  0  0  0  0
   40.7930   27.8530   43.2330 C   0  0  0  0  0  0  0  0  0  0  0  0
   37.5280   28.7550   43.7010 O   0  0  0  0  0  0  0  0  0  0  0  0
   36.6200   28.0630   44.3640 C   0  0  0  0  0  0  0  0  0  0  0  0
   36.2780   28.5040   45.6580 N   0  0  0  0  0  0  0  0  0  0  0  0
   36.1040   27.0650   43.8180 O   0  0  0  0  0  0  0  0  0  0  0  0
   36.8154   27.9305   41.5598 H   0  0  0  0  0  0  0  0  0  0  0  0
   39.2280   31.0955   37.9962 H   0  0  0  0  0  0  0  0  0  0  0  0
   39.2290   28.8396   39.1003 H   0  0  0  0  0  0  0  0  0  0  0  0
   36.5982   32.6042   40.9179 H   0  0  0  0  0  0  0  0  0  0  0  0
   39.5385   27.3844   40.4018 H   0  0  0  0  0  0  0  0  0  0  0  0
   37.9293   27.1338   39.5879 H   0  0  0  0  0  0  0  0  0  0  0  0
   38.5917   25.9498   42.2077 H   0  0  0  0  0  0  0  0  0  0  0  0
   40.2445   24.7804   41.0219 H   0  0  0  0  0  0  0  0  0  0  0  0
   39.5140   25.0861   39.4484 H   0  0  0  0  0  0  0  0  0  0  0  0
   38.4139   23.0427   39.6062 H   0  0  0  0  0  0  0  0  0  0  0  0
   39.1082   22.7685   41.2118 H   0  0  0  0  0  0  0  0  0  0  0  0
   36.3910   23.1906   40.7899 H   0  0  0  0  0  0  0  0  0  0  0  0
   37.1420   23.6218   42.3072 H   0  0  0  0  0  0  0  0  0  0  0  0
   36.2271   25.8258   41.4090 H   0  0  0  0  0  0  0  0  0  0  0  0
   37.2555   25.9747   38.8434 H   0  0  0  0  0  0  0  0  0  0  0  0
   38.6667   27.2579   43.1334 H   0  0  0  0  0  0  0  0  0  0  0  0
   39.7561   30.7437   42.2719 H   0  0  0  0  0  0  0  0  0  0  0  0
   44.1251   28.7395   43.4572 H   0  0  0  0  0  0  0  0  0  0  0  0
   42.2104   25.0133   44.2293 H   0  0  0  0  0  0  0  0  0  0  0  0
   35.5738   27.9911   46.2075 H   0  0  0  0  0  0  0  0  0  0  0  0
   36.7322   29.3392   46.0543 H   0  0  0  0  0  0  0  0  0  0  0  0
  1 16  1  0
  2  7  2  0
  2  3  1  0
  3  4  2  0
  4  5  1  0
  4  1  1  0
  6  5  2  0
  7  6  1  0
  8  9  1  0
  8  1  1  0
 10 11  1  0
 10  9  1  0
 11 12  1  0
 13  9  1  0
 13 12  1  0
 14 13  1  0
 15 14  2  0
 16 17  1  0
 16 26  1  0
 17 25  1  0
 18 19  2  0
 18 17  1  0
 19 20  1  0
 20 25  2  0
 20 21  1  0
 21 22  2  0
 22 23  1  0
 24 23  2  0
 25 24  1  0
 26 27  1  0
 27 28  1  0
 29 27  2  0
  1 30  1  1
  2 31  1  0
  3 32  1  0
  6 33  1  0
  8 34  1  0
  8 35  1  0
  9 36  1  1
 10 37  1  0
 10 38  1  0
 11 39  1  0
 11 40  1  0
 12 41  1  0
 12 42  1  0
 13 43  1  1
 14 44  1  0
 16 45  1  1
 18 46  1  0
 21 47  1  0
 23 48  1  0
 28 49  1  0
 28 50  1  0
M  ISO  8  30   8  31  14  32  14  33  14  34   8  35   8  36  13  37  13
M  ISO  8  38  13  39  13  40  13  41  13  42  13  43  13  44   6  45   8
M  ISO  3  46  14  47  14  48  14
M  END
>  <minimizedAffinity>  (1) 
-5.26607132

>  <minimizedRMSD>  (1) 
1.27704477

$$$$
