
     RDKit          3D

 53 55  0  0  1  0  0  0  0  0999 V2000
   37.3410   28.1630   40.9060 C   0  0  1  0  0  0  0  0  0  0  0  0
   38.1230   31.0070   38.5670 C   0  0  0  0  0  0  0  0  0  0  0  0
   38.0550   29.6960   39.0740 C   0  0  0  0  0  0  0  0  0  0  0  0
   37.4400   29.4980   40.2930 C   0  0  0  0  0  0  0  0  0  0  0  0
   36.9300   30.6120   40.9290 N   0  0  0  0  0  0  0  0  0  0  0  0
   37.0110   31.8400   40.4240 C   0  0  0  0  0  0  0  0  0  0  0  0
   37.6140   32.0360   39.2320 N   0  0  0  0  0  0  0  0  0  0  0  0
   37.5330   27.1220   39.8550 C   0  0  0  0  0  0  0  0  0  0  0  0
   36.5250   26.0780   39.8740 C   0  0  2  0  0  0  0  0  0  0  0  0
   36.8980   24.9310   40.7790 C   0  0  0  0  0  0  0  0  0  0  0  0
   36.2360   23.7160   40.1340 C   0  0  0  0  0  0  0  0  0  0  0  0
   35.6120   24.2160   38.8310 C   0  0  0  0  0  0  0  0  0  0  0  0
   36.4290   25.4410   38.5250 C   0  0  2  0  0  0  0  0  0  0  0  0
   37.7350   24.9800   37.9790 C   0  0  0  0  0  0  0  0  0  0  0  0
   38.1100   24.1570   37.1290 O   0  0  0  0  0  0  0  0  0  0  0  0
   38.3230   27.9340   42.0570 C   0  0  1  0  0  0  0  0  0  0  0  0
   39.7350   27.9110   41.8670 C   0  0  1  0  0  0  0  0  0  0  0  0
   40.7440   28.2960   42.8850 C   0  0  0  0  0  0  0  0  0  0  0  0
   41.0870   27.2710   43.9190 C   0  0  0  0  0  0  0  0  0  0  0  0
   40.2960   26.0170   43.9180 C   0  0  0  0  0  0  0  0  0  0  0  0
   40.0860   25.5040   42.5420 C   0  0  0  0  0  0  0  0  0  0  0  0
   40.2320   26.4810   41.4280 C   0  0  0  0  0  0  0  0  0  0  0  0
   37.7390   28.4360   43.2440 O   0  0  0  0  0  0  0  0  0  0  0  0
   36.8160   27.8370   43.9930 C   0  0  0  0  0  0  0  0  0  0  0  0
   36.4430   28.4650   45.2000 N   0  0  0  0  0  0  0  0  0  0  0  0
   36.3210   26.7640   43.5950 O   0  0  0  0  0  0  0  0  0  0  0  0
   36.3363   28.0920   41.3482 H   0  0  0  0  0  0  0  0  0  0  0  0
   38.6097   31.1828   37.5963 H   0  0  0  0  0  0  0  0  0  0  0  0
   38.4811   28.8512   38.5130 H   0  0  0  0  0  0  0  0  0  0  0  0
   36.5882   32.6927   40.9756 H   0  0  0  0  0  0  0  0  0  0  0  0
   38.5181   26.6558   40.0044 H   0  0  0  0  0  0  0  0  0  0  0  0
   37.4506   27.6294   38.8825 H   0  0  0  0  0  0  0  0  0  0  0  0
   35.5995   26.5709   40.2065 H   0  0  0  0  0  0  0  0  0  0  0  0
   37.9900   24.8049   40.8195 H   0  0  0  0  0  0  0  0  0  0  0  0
   36.5698   25.0888   41.8170 H   0  0  0  0  0  0  0  0  0  0  0  0
   36.9857   22.9387   39.9248 H   0  0  0  0  0  0  0  0  0  0  0  0
   35.4797   23.2707   40.7972 H   0  0  0  0  0  0  0  0  0  0  0  0
   35.7065   23.4659   38.0320 H   0  0  0  0  0  0  0  0  0  0  0  0
   34.5337   24.4181   38.9116 H   0  0  0  0  0  0  0  0  0  0  0  0
   36.0278   26.1443   37.7804 H   0  0  0  0  0  0  0  0  0  0  0  0
   38.5828   25.5010   38.4479 H   0  0  0  0  0  0  0  0  0  0  0  0
   38.4643   26.8481   42.1607 H   0  0  0  0  0  0  0  0  0  0  0  0
   39.7294   28.7466   41.1516 H   0  0  0  0  0  0  0  0  0  0  0  0
   41.2175   29.2888   42.8794 H   0  0  0  0  0  0  0  0  0  0  0  0
   41.8920   27.4404   44.6492 H   0  0  0  0  0  0  0  0  0  0  0  0
   40.8323   25.2564   44.5044 H   0  0  0  0  0  0  0  0  0  0  0  0
   39.3113   26.2314   44.3589 H   0  0  0  0  0  0  0  0  0  0  0  0
   40.8144   24.6971   42.3736 H   0  0  0  0  0  0  0  0  0  0  0  0
   39.0321   25.1903   42.5113 H   0  0  0  0  0  0  0  0  0  0  0  0
   39.6353   26.1400   40.5691 H   0  0  0  0  0  0  0  0  0  0  0  0
   41.2954   26.5466   41.1544 H   0  0  0  0  0  0  0  0  0  0  0  0
   35.7321   28.0327   45.8072 H   0  0  0  0  0  0  0  0  0  0  0  0
   36.8816   29.3557   45.4740 H   0  0  0  0  0  0  0  0  0  0  0  0
  1 16  1  0
  2  3  2  0
  2  7  1  0
  3  4  1  0
  4  1  1  0
  4  5  2  0
  6  5  1  0
  7  6  2  0
  8  9  1  0
  8  1  1  0
  9 10  1  0
 11 10  1  0
 12 11  1  0
 13 12  1  0
 13  9  1  0
 14 13  1  0
 15 14  2  0
 16 23  1  0
 17 16  1  0
 17 18  1  0
 18 19  2  0
 20 19  1  0
 21 20  1  0
 22 17  1  0
 22 21  1  0
 23 24  1  0
 24 25  1  0
 26 24  2  0
  1 27  1  1
  2 28  1  0
  3 29  1  0
  6 30  1  0
  8 31  1  0
  8 32  1  0
  9 33  1  1
 10 34  1  0
 10 35  1  0
 11 36  1  0
 11 37  1  0
 12 38  1  0
 12 39  1  0
 13 40  1  6
 14 41  1  0
 16 42  1  1
 17 43  1  6
 18 44  1  0
 19 45  1  0
 20 46  1  0
 20 47  1  0
 21 48  1  0
 21 49  1  0
 22 50  1  0
 22 51  1  0
 25 52  1  0
 25 53  1  0
M  ISO  8  27   8  28  14  29  14  30  14  31   8  32   8  33  13  34  13
M  ISO  8  35  13  36  13  37  13  38  13  39  13  40  13  41   6  42   8
M  ISO  8  43  13  44  13  45  13  46  13  47  13  48  13  49  13  50  13
M  ISO  1  51  13
M  END
>  <minimizedAffinity>  (1) 
-5.16847706

>  <minimizedRMSD>  (1) 
1.8221159

$$$$
