
     RDKit          3D

 48 50  0  0  1  0  0  0  0  0999 V2000
   37.7310   28.3330   41.2920 C   0  0  1  0  0  0  0  0  0  0  0  0
   38.3550   30.9690   38.6800 C   0  0  0  0  0  0  0  0  0  0  0  0
   38.4240   29.7420   39.3570 C   0  0  0  0  0  0  0  0  0  0  0  0
   37.6580   29.5850   40.5070 C   0  0  0  0  0  0  0  0  0  0  0  0
   36.8880   30.6410   40.8960 N   0  0  0  0  0  0  0  0  0  0  0  0
   36.8460   31.7950   40.2300 C   0  0  0  0  0  0  0  0  0  0  0  0
   37.5820   31.9580   39.1190 N   0  0  0  0  0  0  0  0  0  0  0  0
   38.4100   27.2740   40.5100 C   0  0  0  0  0  0  0  0  0  0  0  0
   38.3280   25.9570   41.1440 C   0  0  2  0  0  0  0  0  0  0  0  0
   39.2990   24.9760   40.5500 C   0  0  0  0  0  0  0  0  0  0  0  0
   38.6090   23.6220   40.6890 C   0  0  0  0  0  0  0  0  0  0  0  0
   37.2220   23.9170   41.2630 C   0  0  0  0  0  0  0  0  0  0  0  0
   36.9940   25.3480   40.8510 C   0  0  2  0  0  0  0  0  0  0  0  0
   36.6260   25.3420   39.4090 C   0  0  0  0  0  0  0  0  0  0  0  0
   35.7310   24.8350   38.7140 O   0  0  0  0  0  0  0  0  0  0  0  0
   38.3370   28.5190   42.6730 C   0  0  1  0  0  0  0  0  0  0  0  0
   39.5840   29.0830   42.7280 C   0  0  0  0  0  0  0  0  0  0  0  0
   39.8710   30.4320   42.6910 C   0  0  0  0  0  0  0  0  0  0  0  0
   41.1190   31.0060   42.7320 C   0  0  0  0  0  0  0  0  0  0  0  0
   42.2270   30.1930   42.8200 C   0  0  0  0  0  0  0  0  0  0  0  0
   41.9580   28.8420   42.8590 C   0  0  0  0  0  0  0  0  0  0  0  0
   40.7220   28.3340   42.8170 N   0  0  0  0  0  0  0  0  0  0  0  0
   37.3550   28.8540   43.6110 O   0  0  0  0  0  0  0  0  0  0  0  0
   36.6080   28.0330   44.3320 C   0  0  0  0  0  0  0  0  0  0  0  0
   36.2920   28.4340   45.6460 N   0  0  0  0  0  0  0  0  0  0  0  0
   36.2170   26.9640   43.8190 O   0  0  0  0  0  0  0  0  0  0  0  0
   36.6975   28.0085   41.4835 H   0  0  0  0  0  0  0  0  0  0  0  0
   38.9522   31.1158   37.7680 H   0  0  0  0  0  0  0  0  0  0  0  0
   39.0654   28.9278   38.9888 H   0  0  0  0  0  0  0  0  0  0  0  0
   36.2075   32.6147   40.5911 H   0  0  0  0  0  0  0  0  0  0  0  0
   39.4704   27.5448   40.3990 H   0  0  0  0  0  0  0  0  0  0  0  0
   37.9015   27.2044   39.5371 H   0  0  0  0  0  0  0  0  0  0  0  0
   38.5261   26.1245   42.2130 H   0  0  0  0  0  0  0  0  0  0  0  0
   40.2496   24.9864   41.1035 H   0  0  0  0  0  0  0  0  0  0  0  0
   39.5464   25.2136   39.5048 H   0  0  0  0  0  0  0  0  0  0  0  0
   38.5212   23.1344   39.7069 H   0  0  0  0  0  0  0  0  0  0  0  0
   39.1795   22.9421   41.3388 H   0  0  0  0  0  0  0  0  0  0  0  0
   36.4620   23.2522   40.8267 H   0  0  0  0  0  0  0  0  0  0  0  0
   37.1551   23.7583   42.3494 H   0  0  0  0  0  0  0  0  0  0  0  0
   36.1886   25.9011   41.3564 H   0  0  0  0  0  0  0  0  0  0  0  0
   37.3253   25.9389   38.8051 H   0  0  0  0  0  0  0  0  0  0  0  0
   38.6886   27.5429   43.0385 H   0  0  0  0  0  0  0  0  0  0  0  0
   39.0138   31.1178   42.6216 H   0  0  0  0  0  0  0  0  0  0  0  0
   41.2313   32.0996   42.6950 H   0  0  0  0  0  0  0  0  0  0  0  0
   43.2512   30.5925   42.8565 H   0  0  0  0  0  0  0  0  0  0  0  0
   42.8055   28.1442   42.9284 H   0  0  0  0  0  0  0  0  0  0  0  0
   35.7133   27.8275   46.2444 H   0  0  0  0  0  0  0  0  0  0  0  0
   36.6398   29.3335   46.0077 H   0  0  0  0  0  0  0  0  0  0  0  0
  1 16  1  0
  2  7  2  0
  2  3  1  0
  3  4  2  0
  4  5  1  0
  4  1  1  0
  6  5  2  0
  7  6  1  0
  8  9  1  0
  8  1  1  0
 10 11  1  0
 10  9  1  0
 11 12  1  0
 13  9  1  0
 13 12  1  0
 14 13  1  0
 15 14  2  0
 16 17  1  0
 16 23  1  0
 17 22  1  0
 18 17  2  0
 18 19  1  0
 19 20  2  0
 20 21  1  0
 22 21  2  0
 23 24  1  0
 24 25  1  0
 26 24  2  0
  1 27  1  1
  2 28  1  0
  3 29  1  0
  6 30  1  0
  8 31  1  0
  8 32  1  0
  9 33  1  1
 10 34  1  0
 10 35  1  0
 11 36  1  0
 11 37  1  0
 12 38  1  0
 12 39  1  0
 13 40  1  1
 14 41  1  0
 16 42  1  1
 18 43  1  0
 19 44  1  0
 20 45  1  0
 21 46  1  0
 25 47  1  0
 25 48  1  0
M  ISO  8  27   8  28  14  29  14  30  14  31   8  32   8  33  13  34  13
M  ISO  8  35  13  36  13  37  13  38  13  39  13  40  13  41   6  42   8
M  ISO  4  43  14  44  14  45  14  46  14
M  END
>  <minimizedAffinity>  (1) 
-5.06683302

>  <minimizedRMSD>  (1) 
0.622626901

$$$$
