
     RDKit          3D

 46 48  0  0  1  0  0  0  0  0999 V2000
   37.7380   28.3750   41.2910 C   0  0  1  0  0  0  0  0  0  0  0  0
   38.2980   30.9720   38.6260 C   0  0  0  0  0  0  0  0  0  0  0  0
   38.3860   29.7590   39.3220 C   0  0  0  0  0  0  0  0  0  0  0  0
   37.6350   29.6120   40.4840 C   0  0  0  0  0  0  0  0  0  0  0  0
   36.8540   30.6650   40.8690 N   0  0  0  0  0  0  0  0  0  0  0  0
   36.7940   31.8070   40.1810 C   0  0  0  0  0  0  0  0  0  0  0  0
   37.5150   31.9610   39.0590 N   0  0  0  0  0  0  0  0  0  0  0  0
   38.3900   27.3000   40.5120 C   0  0  0  0  0  0  0  0  0  0  0  0
   38.3070   25.9930   41.1700 C   0  0  2  0  0  0  0  0  0  0  0  0
   39.3070   25.0150   40.6180 C   0  0  0  0  0  0  0  0  0  0  0  0
   38.6320   23.6540   40.7630 C   0  0  0  0  0  0  0  0  0  0  0  0
   37.2310   23.9390   41.3040 C   0  0  0  0  0  0  0  0  0  0  0  0
   36.9890   25.3570   40.8610 C   0  0  2  0  0  0  0  0  0  0  0  0
   36.6530   25.3220   39.4110 C   0  0  0  0  0  0  0  0  0  0  0  0
   35.7340   24.8660   38.7160 O   0  0  0  0  0  0  0  0  0  0  0  0
   38.3980   28.5920   42.6500 C   0  0  1  0  0  0  0  0  0  0  0  0
   39.6170   29.2120   42.6250 C   0  0  0  0  0  0  0  0  0  0  0  0
   39.8360   30.5730   42.7880 C   0  0  0  0  0  0  0  0  0  0  0  0
   41.2020   30.8690   42.7060 C   0  0  0  0  0  0  0  0  0  0  0  0
   41.7510   29.6230   42.4900 C   0  0  0  0  0  0  0  0  0  0  0  0
   40.8200   28.7110   42.4510 O   0  0  0  0  0  0  0  0  0  0  0  0
   37.4470   28.9210   43.6200 O   0  0  0  0  0  0  0  0  0  0  0  0
   36.6590   28.0950   44.2940 C   0  0  0  0  0  0  0  0  0  0  0  0
   36.3390   28.4420   45.6210 N   0  0  0  0  0  0  0  0  0  0  0  0
   36.2330   27.0640   43.7280 O   0  0  0  0  0  0  0  0  0  0  0  0
   36.7115   28.0546   41.5226 H   0  0  0  0  0  0  0  0  0  0  0  0
   38.8851   31.1110   37.7062 H   0  0  0  0  0  0  0  0  0  0  0  0
   39.0312   28.9452   38.9596 H   0  0  0  0  0  0  0  0  0  0  0  0
   36.1507   32.6261   40.5349 H   0  0  0  0  0  0  0  0  0  0  0  0
   39.4505   27.5583   40.3755 H   0  0  0  0  0  0  0  0  0  0  0  0
   37.8627   27.2211   39.5498 H   0  0  0  0  0  0  0  0  0  0  0  0
   38.4740   26.1854   42.2401 H   0  0  0  0  0  0  0  0  0  0  0  0
   40.2427   25.0483   41.1954 H   0  0  0  0  0  0  0  0  0  0  0  0
   39.5781   25.2381   39.5755 H   0  0  0  0  0  0  0  0  0  0  0  0
   38.5705   23.1510   39.7867 H   0  0  0  0  0  0  0  0  0  0  0  0
   39.1978   22.9911   41.4341 H   0  0  0  0  0  0  0  0  0  0  0  0
   36.4896   23.2544   40.8662 H   0  0  0  0  0  0  0  0  0  0  0  0
   37.1460   23.8004   42.3919 H   0  0  0  0  0  0  0  0  0  0  0  0
   36.1631   25.9037   41.3396 H   0  0  0  0  0  0  0  0  0  0  0  0
   37.4145   25.8304   38.8014 H   0  0  0  0  0  0  0  0  0  0  0  0
   38.7865   27.6341   43.0263 H   0  0  0  0  0  0  0  0  0  0  0  0
   39.0443   31.3174   42.9584 H   0  0  0  0  0  0  0  0  0  0  0  0
   41.7062   31.8429   42.7917 H   0  0  0  0  0  0  0  0  0  0  0  0
   42.8262   29.4255   42.3675 H   0  0  0  0  0  0  0  0  0  0  0  0
   35.7298   27.8287   46.1811 H   0  0  0  0  0  0  0  0  0  0  0  0
   36.7142   29.3090   46.0314 H   0  0  0  0  0  0  0  0  0  0  0  0
  1 16  1  0
  2  7  2  0
  2  3  1  0
  3  4  2  0
  4  5  1  0
  4  1  1  0
  6  5  2  0
  7  6  1  0
  8  9  1  0
  8  1  1  0
 10 11  1  0
 10  9  1  0
 11 12  1  0
 13  9  1  0
 13 12  1  0
 14 13  1  0
 15 14  2  0
 16 22  1  0
 17 16  1  0
 17 18  2  0
 19 18  1  0
 20 19  2  0
 21 20  1  0
 21 17  1  0
 22 23  1  0
 23 24  1  0
 25 23  2  0
  1 26  1  1
  2 27  1  0
  3 28  1  0
  6 29  1  0
  8 30  1  0
  8 31  1  0
  9 32  1  1
 10 33  1  0
 10 34  1  0
 11 35  1  0
 11 36  1  0
 12 37  1  0
 12 38  1  0
 13 39  1  1
 14 40  1  0
 16 41  1  1
 18 42  1  0
 19 43  1  0
 20 44  1  0
 24 45  1  0
 24 46  1  0
M  ISO  8  26   8  27  14  28  14  29  14  30   8  31   8  32  13  33  13
M  ISO  8  34  13  35  13  36  13  37  13  38  13  39  13  40   6  41   8
M  ISO  3  42  14  43  14  44  14
M  END
>  <minimizedAffinity>  (1) 
-4.91245651

>  <minimizedRMSD>  (1) 
0.572657108

$$$$
