
     RDKit          3D

 46 48  0  0  1  0  0  0  0  0999 V2000
   37.7350   28.3810   41.3010 C   0  0  1  0  0  0  0  0  0  0  0  0
   38.3190   30.9930   38.6540 C   0  0  0  0  0  0  0  0  0  0  0  0
   38.4030   29.7690   39.3410 C   0  0  0  0  0  0  0  0  0  0  0  0
   37.6560   29.6280   40.5080 C   0  0  0  0  0  0  0  0  0  0  0  0
   36.8960   30.6900   40.8950 N   0  0  0  0  0  0  0  0  0  0  0  0
   36.8360   31.8370   40.2240 C   0  0  0  0  0  0  0  0  0  0  0  0
   37.5540   31.9860   39.0950 N   0  0  0  0  0  0  0  0  0  0  0  0
   38.3720   27.3060   40.5090 C   0  0  0  0  0  0  0  0  0  0  0  0
   38.2990   25.9990   41.1690 C   0  0  2  0  0  0  0  0  0  0  0  0
   39.3070   25.0280   40.6190 C   0  0  0  0  0  0  0  0  0  0  0  0
   38.6420   23.6620   40.7680 C   0  0  0  0  0  0  0  0  0  0  0  0
   37.2360   23.9370   41.3070 C   0  0  0  0  0  0  0  0  0  0  0  0
   36.9860   25.3530   40.8630 C   0  0  2  0  0  0  0  0  0  0  0  0
   36.6500   25.3150   39.4110 C   0  0  0  0  0  0  0  0  0  0  0  0
   35.7340   24.8470   38.7220 O   0  0  0  0  0  0  0  0  0  0  0  0
   38.3650   28.5630   42.6670 C   0  0  1  0  0  0  0  0  0  0  0  0
   39.6250   29.1830   42.6670 C   0  0  0  0  0  0  0  0  0  0  0  0
   39.9570   30.5850   42.7130 C   0  0  0  0  0  0  0  0  0  0  0  0
   41.2790   30.8790   42.6950 C   0  0  0  0  0  0  0  0  0  0  0  0
   42.2210   29.8340   42.6350 C   0  0  0  0  0  0  0  0  0  0  0  0
   41.1200   28.3560   42.6030 S   0  0  0  0  0  0  0  0  0  0  0  0
   37.4230   28.9040   43.6330 O   0  0  0  0  0  0  0  0  0  0  0  0
   36.6370   28.0760   44.3140 C   0  0  0  0  0  0  0  0  0  0  0  0
   36.3130   28.4310   45.6380 N   0  0  0  0  0  0  0  0  0  0  0  0
   36.2230   27.0420   43.7540 O   0  0  0  0  0  0  0  0  0  0  0  0
   36.7022   28.0735   41.5220 H   0  0  0  0  0  0  0  0  0  0  0  0
   38.8999   31.1317   37.7303 H   0  0  0  0  0  0  0  0  0  0  0  0
   39.0372   28.9506   38.9694 H   0  0  0  0  0  0  0  0  0  0  0  0
   36.2032   32.6592   40.5896 H   0  0  0  0  0  0  0  0  0  0  0  0
   39.4301   27.5632   40.3533 H   0  0  0  0  0  0  0  0  0  0  0  0
   37.8282   27.2282   39.5560 H   0  0  0  0  0  0  0  0  0  0  0  0
   38.4648   26.1942   42.2388 H   0  0  0  0  0  0  0  0  0  0  0  0
   40.2426   25.0701   41.1960 H   0  0  0  0  0  0  0  0  0  0  0  0
   39.5766   25.2506   39.5761 H   0  0  0  0  0  0  0  0  0  0  0  0
   38.5859   23.1553   39.7933 H   0  0  0  0  0  0  0  0  0  0  0  0
   39.2123   23.0064   41.4425 H   0  0  0  0  0  0  0  0  0  0  0  0
   36.5003   23.2472   40.8677 H   0  0  0  0  0  0  0  0  0  0  0  0
   37.1491   23.7975   42.3947 H   0  0  0  0  0  0  0  0  0  0  0  0
   36.1570   25.8938   41.3430 H   0  0  0  0  0  0  0  0  0  0  0  0
   37.4041   25.8317   38.7992 H   0  0  0  0  0  0  0  0  0  0  0  0
   38.7040   27.5803   43.0268 H   0  0  0  0  0  0  0  0  0  0  0  0
   39.1850   31.3672   42.7598 H   0  0  0  0  0  0  0  0  0  0  0  0
   41.6143   31.9262   42.7270 H   0  0  0  0  0  0  0  0  0  0  0  0
   43.3196   29.8858   42.6131 H   0  0  0  0  0  0  0  0  0  0  0  0
   35.7068   27.8182   46.2018 H   0  0  0  0  0  0  0  0  0  0  0  0
   36.6823   29.3034   46.0423 H   0  0  0  0  0  0  0  0  0  0  0  0
  1 16  1  0
  2  7  2  0
  2  3  1  0
  3  4  2  0
  4  5  1  0
  4  1  1  0
  6  5  2  0
  7  6  1  0
  8  9  1  0
  8  1  1  0
 10 11  1  0
 10  9  1  0
 11 12  1  0
 13  9  1  0
 13 12  1  0
 14 13  1  0
 15 14  2  0
 16 17  1  0
 16 22  1  0
 17 18  2  0
 19 18  1  0
 20 19  2  0
 21 20  1  0
 21 17  1  0
 22 23  1  0
 23 24  1  0
 25 23  2  0
  1 26  1  1
  2 27  1  0
  3 28  1  0
  6 29  1  0
  8 30  1  0
  8 31  1  0
  9 32  1  1
 10 33  1  0
 10 34  1  0
 11 35  1  0
 11 36  1  0
 12 37  1  0
 12 38  1  0
 13 39  1  1
 14 40  1  0
 16 41  1  1
 18 42  1  0
 19 43  1  0
 20 44  1  0
 24 45  1  0
 24 46  1  0
M  ISO  8  26   8  27  14  28  14  29  14  30   8  31   8  32  13  33  13
M  ISO  8  34  13  35  13  36  13  37  13  38  13  39  13  40   6  41   8
M  ISO  3  42  14  43  14  44  14
M  END
>  <minimizedAffinity>  (1) 
-4.91104746

>  <minimizedRMSD>  (1) 
0.847525775

$$$$
