
     RDKit          3D

 48 50  0  0  1  0  0  0  0  0999 V2000
   39.1280   26.0560   42.2410 C   0  0  1  0  0  0  0  0  0  0  0  0
   38.8900   24.6780   41.5740 C   0  0  0  0  0  0  0  0  0  0  0  0
   37.5320   24.2710   41.9010 C   0  0  0  0  0  0  0  0  0  0  0  0
   36.8470   25.5820   42.3520 C   0  0  0  0  0  0  0  0  0  0  0  0
   37.9130   26.2760   43.0230 C   0  0  2  0  0  0  0  0  0  0  0  0
   41.8690   26.8920   44.6830 C   0  0  0  0  0  0  0  0  0  0  0  0
   40.6250   26.9080   44.0530 C   0  0  0  0  0  0  0  0  0  0  0  0
   40.3850   26.0870   42.9430 C   0  0  0  0  0  0  0  0  0  0  0  0
   41.3890   25.2820   42.5030 N   0  0  0  0  0  0  0  0  0  0  0  0
   42.5900   25.2710   43.1170 C   0  0  0  0  0  0  0  0  0  0  0  0
   42.8360   26.0610   44.1930 N   0  0  0  0  0  0  0  0  0  0  0  0
   37.4830   27.6700   43.2410 C   0  0  2  0  0  0  0  0  0  0  0  0
   36.7160   27.9070   44.4910 C   0  0  0  0  0  0  0  0  0  0  0  0
   36.6830   27.9380   42.0230 C   0  0  0  0  0  0  0  0  0  0  0  0
   36.9280   29.2660   41.6110 N   0  0  0  0  0  0  0  0  0  0  0  0
   36.0700   30.1160   40.9940 C   0  0  0  0  0  0  0  0  0  0  0  0
   36.6930   31.2730   40.7150 C   0  0  0  0  0  0  0  0  0  0  0  0
   37.9360   31.0850   41.1800 N   0  0  0  0  0  0  0  0  0  0  0  0
   38.1200   29.8660   41.7340 C   0  0  0  0  0  0  0  0  0  0  0  0
   39.4640   29.7310   42.1360 C   0  0  0  0  0  0  0  0  0  0  0  0
   39.9930   31.0930   42.5820 C   0  0  0  0  0  0  0  0  0  0  0  0
   40.4500   29.4070   40.9490 C   0  0  0  0  0  0  0  0  0  0  0  0
   39.2596   26.8983   41.5459 H   0  0  0  0  0  0  0  0  0  0  0  0
   39.6083   23.9416   41.9635 H   0  0  0  0  0  0  0  0  0  0  0  0
   39.0268   24.7425   40.4845 H   0  0  0  0  0  0  0  0  0  0  0  0
   37.0272   23.8493   41.0193 H   0  0  0  0  0  0  0  0  0  0  0  0
   37.4989   23.4885   42.6734 H   0  0  0  0  0  0  0  0  0  0  0  0
   36.4805   26.1564   41.4884 H   0  0  0  0  0  0  0  0  0  0  0  0
   35.9629   25.4190   42.9859 H   0  0  0  0  0  0  0  0  0  0  0  0
   38.1510   25.9074   44.0317 H   0  0  0  0  0  0  0  0  0  0  0  0
   42.0669   27.5337   45.5543 H   0  0  0  0  0  0  0  0  0  0  0  0
   39.8290   27.5677   44.4288 H   0  0  0  0  0  0  0  0  0  0  0  0
   43.3840   24.6102   42.7391 H   0  0  0  0  0  0  0  0  0  0  0  0
   38.3385   28.3464   43.3847 H   0  0  0  0  0  0  0  0  0  0  0  0
   37.3604   27.7079   45.3599 H   0  0  0  0  0  0  0  0  0  0  0  0
   36.3750   28.9524   44.5193 H   0  0  0  0  0  0  0  0  0  0  0  0
   35.8447   27.2362   44.5193 H   0  0  0  0  0  0  0  0  0  0  0  0
   36.9776   27.2412   41.2245 H   0  0  0  0  0  0  0  0  0  0  0  0
   35.6127   27.8003   42.2364 H   0  0  0  0  0  0  0  0  0  0  0  0
   35.0196   29.8913   40.7571 H   0  0  0  0  0  0  0  0  0  0  0  0
   36.2801   32.1650   40.2211 H   0  0  0  0  0  0  0  0  0  0  0  0
   39.4457   28.9353   42.8953 H   0  0  0  0  0  0  0  0  0  0  0  0
   40.0103   31.1377   43.6810 H   0  0  0  0  0  0  0  0  0  0  0  0
   41.0120   31.2358   42.1931 H   0  0  0  0  0  0  0  0  0  0  0  0
   39.3376   31.8862   42.1931 H   0  0  0  0  0  0  0  0  0  0  0  0
   41.4210   29.0879   41.3556 H   0  0  0  0  0  0  0  0  0  0  0  0
   40.0281   28.6003   40.3316 H   0  0  0  0  0  0  0  0  0  0  0  0
   40.5888   30.3068   40.3316 H   0  0  0  0  0  0  0  0  0  0  0  0
  1  8  1  0
  1  5  1  0
  2  3  1  0
  2  1  1  0
  3  4  1  0
  4  5  1  0
  5 12  1  0
  7  6  2  0
  8  7  1  0
  9  8  2  0
  9 10  1  0
 10 11  2  0
 11  6  1  0
 12 13  1  0
 14 12  1  0
 15 19  1  0
 15 14  1  0
 16 15  1  0
 17 16  2  0
 17 18  1  0
 18 19  2  0
 19 20  1  0
 20 21  1  0
 22 20  1  0
  1 23  1  6
  2 24  1  0
  2 25  1  0
  3 26  1  0
  3 27  1  0
  4 28  1  0
  4 29  1  0
  5 30  1  1
  6 31  1  0
  7 32  1  0
 10 33  1  0
 12 34  1  1
 13 35  1  0
 13 36  1  0
 13 37  1  0
 14 38  1  0
 14 39  1  0
 16 40  1  0
 17 41  1  0
 20 42  1  0
 21 43  1  0
 21 44  1  0
 21 45  1  0
 22 46  1  0
 22 47  1  0
 22 48  1  0
M  ISO  8  23  13  24  13  25  13  26  13  27  13  28  13  29  13  30  13
M  ISO  8  31  14  32  14  33  14  34   8  35   8  36   8  37   8  38   8
M  ISO  8  39   8  40  14  41  14  42   8  43   8  44   8  45   8  46   8
M  ISO  2  47   8  48   8
M  END
>  <minimizedAffinity>  (1) 
-5.59970903

>  <minimizedRMSD>  (1) 
0.200937927

$$$$
