
     RDKit          3D

 46 48  0  0  1  0  0  0  0  0999 V2000
   37.7500   28.3890   41.3010 C   0  0  1  0  0  0  0  0  0  0  0  0
   38.3050   30.9840   38.6300 C   0  0  0  0  0  0  0  0  0  0  0  0
   38.4070   29.7670   39.3280 C   0  0  0  0  0  0  0  0  0  0  0  0
   37.6520   29.6260   40.4930 C   0  0  0  0  0  0  0  0  0  0  0  0
   36.8700   30.6780   40.8690 N   0  0  0  0  0  0  0  0  0  0  0  0
   36.7990   31.8170   40.1810 C   0  0  0  0  0  0  0  0  0  0  0  0
   37.5160   31.9690   39.0620 N   0  0  0  0  0  0  0  0  0  0  0  0
   38.3680   27.3040   40.5130 C   0  0  0  0  0  0  0  0  0  0  0  0
   38.2910   26.0050   41.1800 C   0  0  2  0  0  0  0  0  0  0  0  0
   39.3000   25.0240   40.6460 C   0  0  0  0  0  0  0  0  0  0  0  0
   38.6290   23.6630   40.7960 C   0  0  0  0  0  0  0  0  0  0  0  0
   37.2220   23.9470   41.3240 C   0  0  0  0  0  0  0  0  0  0  0  0
   36.9790   25.3590   40.8670 C   0  0  2  0  0  0  0  0  0  0  0  0
   36.6590   25.3100   39.4120 C   0  0  0  0  0  0  0  0  0  0  0  0
   35.7360   24.8700   38.7210 O   0  0  0  0  0  0  0  0  0  0  0  0
   38.4070   28.5980   42.6550 C   0  0  1  0  0  0  0  0  0  0  0  0
   39.5980   29.1990   42.6320 N   0  0  0  0  0  0  0  0  0  0  0  0
   39.7940   30.5440   42.7750 C   0  0  0  0  0  0  0  0  0  0  0  0
   41.1570   30.8490   42.7050 C   0  0  0  0  0  0  0  0  0  0  0  0
   41.7810   29.6580   42.5160 N   0  0  0  0  0  0  0  0  0  0  0  0
   40.8350   28.6850   42.4750 C   0  0  0  0  0  0  0  0  0  0  0  0
   37.4600   28.9210   43.6310 O   0  0  0  0  0  0  0  0  0  0  0  0
   36.6670   28.1000   44.2970 C   0  0  0  0  0  0  0  0  0  0  0  0
   36.3410   28.4420   45.6240 N   0  0  0  0  0  0  0  0  0  0  0  0
   36.2390   27.0750   43.7240 O   0  0  0  0  0  0  0  0  0  0  0  0
   36.7241   28.0777   41.5471 H   0  0  0  0  0  0  0  0  0  0  0  0
   38.8883   31.1265   37.7083 H   0  0  0  0  0  0  0  0  0  0  0  0
   39.0579   28.9563   38.9687 H   0  0  0  0  0  0  0  0  0  0  0  0
   36.1505   32.6326   40.5334 H   0  0  0  0  0  0  0  0  0  0  0  0
   39.4267   27.5507   40.3450 H   0  0  0  0  0  0  0  0  0  0  0  0
   37.8127   27.2240   39.5668 H   0  0  0  0  0  0  0  0  0  0  0  0
   38.4526   26.2096   42.2487 H   0  0  0  0  0  0  0  0  0  0  0  0
   40.2299   25.0653   41.2322 H   0  0  0  0  0  0  0  0  0  0  0  0
   39.5801   25.2387   39.6041 H   0  0  0  0  0  0  0  0  0  0  0  0
   38.5770   23.1524   39.8231 H   0  0  0  0  0  0  0  0  0  0  0  0
   39.1918   23.0074   41.4767 H   0  0  0  0  0  0  0  0  0  0  0  0
   36.4866   23.2559   40.8864 H   0  0  0  0  0  0  0  0  0  0  0  0
   37.1286   23.8172   42.4123 H   0  0  0  0  0  0  0  0  0  0  0  0
   36.1462   25.9045   41.3348 H   0  0  0  0  0  0  0  0  0  0  0  0
   37.4412   25.7848   38.8015 H   0  0  0  0  0  0  0  0  0  0  0  0
   38.7911   27.6365   43.0264 H   0  0  0  0  0  0  0  0  0  0  0  0
   38.9926   31.2826   42.9241 H   0  0  0  0  0  0  0  0  0  0  0  0
   41.6239   31.8417   42.7858 H   0  0  0  0  0  0  0  0  0  0  0  0
   41.0497   27.6156   42.3322 H   0  0  0  0  0  0  0  0  0  0  0  0
   35.7258   27.8288   46.1776 H   0  0  0  0  0  0  0  0  0  0  0  0
   36.7178   29.3052   46.0408 H   0  0  0  0  0  0  0  0  0  0  0  0
  1 16  1  0
  2  7  2  0
  2  3  1  0
  3  4  2  0
  4  5  1  0
  4  1  1  0
  6  5  2  0
  7  6  1  0
  8  9  1  0
  8  1  1  0
 10 11  1  0
 10  9  1  0
 11 12  1  0
 13  9  1  0
 13 12  1  0
 14 13  1  0
 15 14  2  0
 16 22  1  0
 17 16  1  0
 17 18  1  0
 19 18  2  0
 20 19  1  0
 21 20  2  0
 21 17  1  0
 22 23  1  0
 23 24  1  0
 25 23  2  0
  1 26  1  1
  2 27  1  0
  3 28  1  0
  6 29  1  0
  8 30  1  0
  8 31  1  0
  9 32  1  1
 10 33  1  0
 10 34  1  0
 11 35  1  0
 11 36  1  0
 12 37  1  0
 12 38  1  0
 13 39  1  1
 14 40  1  0
 16 41  1  1
 18 42  1  0
 19 43  1  0
 21 44  1  0
 24 45  1  0
 24 46  1  0
M  ISO  8  26   8  27  14  28  14  29  14  30   8  31   8  32  13  33  13
M  ISO  8  34  13  35  13  36  13  37  13  38  13  39  13  40   6  41   8
M  ISO  3  42  14  43  14  44  14
M  END
>  <minimizedAffinity>  (1) 
-4.79641628

>  <minimizedRMSD>  (1) 
0.592238605

$$$$
