
     RDKit          3D

 41 42  0  0  1  0  0  0  0  0999 V2000
   37.5730   28.2540   41.3170 C   0  0  1  0  0  0  0  0  0  0  0  0
   36.9740   30.6360   38.4640 C   0  0  0  0  0  0  0  0  0  0  0  0
   37.1610   29.4230   39.1530 C   0  0  0  0  0  0  0  0  0  0  0  0
   37.3210   29.4880   40.5400 C   0  0  0  0  0  0  0  0  0  0  0  0
   37.2840   30.7200   41.1230 N   0  0  0  0  0  0  0  0  0  0  0  0
   37.1050   31.8470   40.4340 C   0  0  0  0  0  0  0  0  0  0  0  0
   36.9500   31.8030   39.1020 N   0  0  0  0  0  0  0  0  0  0  0  0
   38.1710   27.2120   40.4540 C   0  0  0  0  0  0  0  0  0  0  0  0
   38.2930   25.9160   41.1260 C   0  0  2  0  0  0  0  0  0  0  0  0
   39.2990   25.0210   40.4570 C   0  0  0  0  0  0  0  0  0  0  0  0
   38.7710   23.6090   40.7040 C   0  0  0  0  0  0  0  0  0  0  0  0
   37.4280   23.7820   41.4120 C   0  0  0  0  0  0  0  0  0  0  0  0
   37.0090   25.1640   40.9910 C   0  0  2  0  0  0  0  0  0  0  0  0
   36.4990   25.0700   39.5940 C   0  0  0  0  0  0  0  0  0  0  0  0
   35.6620   24.3820   38.9940 O   0  0  0  0  0  0  0  0  0  0  0  0
   38.3770   28.4960   42.5890 C   0  0  1  0  0  0  0  0  0  0  0  0
   39.5520   29.0980   42.4100 N   0  0  0  0  0  0  0  0  0  0  0  0
   37.5360   28.8380   43.6510 O   0  0  0  0  0  0  0  0  0  0  0  0
   36.6870   28.0580   44.3020 C   0  0  0  0  0  0  0  0  0  0  0  0
   36.3250   28.4400   45.6090 N   0  0  0  0  0  0  0  0  0  0  0  0
   36.2450   27.0360   43.7320 O   0  0  0  0  0  0  0  0  0  0  0  0
   36.5979   27.8849   41.6677 H   0  0  0  0  0  0  0  0  0  0  0  0
   36.8446   30.6186   37.3718 H   0  0  0  0  0  0  0  0  0  0  0  0
   37.1805   28.4608   38.6203 H   0  0  0  0  0  0  0  0  0  0  0  0
   37.0843   32.8140   40.9580 H   0  0  0  0  0  0  0  0  0  0  0  0
   39.1737   27.5438   40.1467 H   0  0  0  0  0  0  0  0  0  0  0  0
   37.5028   27.0747   39.5910 H   0  0  0  0  0  0  0  0  0  0  0  0
   38.5788   26.1395   42.1645 H   0  0  0  0  0  0  0  0  0  0  0  0
   40.2946   25.1490   40.9070 H   0  0  0  0  0  0  0  0  0  0  0  0
   39.4146   25.2452   39.3863 H   0  0  0  0  0  0  0  0  0  0  0  0
   38.6350   23.0790   39.7498 H   0  0  0  0  0  0  0  0  0  0  0  0
   39.4727   23.0154   41.3084 H   0  0  0  0  0  0  0  0  0  0  0  0
   36.7019   23.0274   41.0754 H   0  0  0  0  0  0  0  0  0  0  0  0
   37.4901   23.6577   42.5032 H   0  0  0  0  0  0  0  0  0  0  0  0
   36.2046   25.6478   41.5645 H   0  0  0  0  0  0  0  0  0  0  0  0
   36.9898   25.7945   38.9275 H   0  0  0  0  0  0  0  0  0  0  0  0
   38.8107   27.5536   42.9549 H   0  0  0  0  0  0  0  0  0  0  0  0
   39.9709   29.3126   43.3262 H   0  0  0  0  0  0  0  0  0  0  0  0
   40.1802   28.4749   41.8827 H   0  0  0  0  0  0  0  0  0  0  0  0
   35.6672   27.8617   46.1510 H   0  0  0  0  0  0  0  0  0  0  0  0
   36.7182   29.2975   46.0225 H   0  0  0  0  0  0  0  0  0  0  0  0
  1 16  1  0
  2  7  2  0
  2  3  1  0
  3  4  2  0
  4  5  1  0
  4  1  1  0
  6  5  2  0
  7  6  1  0
  8  9  1  0
  8  1  1  0
 10 11  1  0
 10  9  1  0
 11 12  1  0
 13  9  1  0
 13 12  1  0
 14 13  1  0
 15 14  2  0
 16 18  1  0
 17 16  1  0
 18 19  1  0
 19 20  1  0
 21 19  2  0
  1 22  1  1
  2 23  1  0
  3 24  1  0
  6 25  1  0
  8 26  1  0
  8 27  1  0
  9 28  1  1
 10 29  1  0
 10 30  1  0
 11 31  1  0
 11 32  1  0
 12 33  1  0
 12 34  1  0
 13 35  1  1
 14 36  1  0
 16 37  1  1
 17 38  1  0
 17 39  1  0
 20 40  1  0
 20 41  1  0
M  ISO  8  22   8  23  14  24  14  25  14  26   8  27   8  28  13  29  13
M  ISO  8  30  13  31  13  32  13  33  13  34  13  35  13  36   6  37   8
M  ISO  2  38   5  39   5
M  END
>  <minimizedAffinity>  (1) 
-4.57326317

>  <minimizedRMSD>  (1) 
0.140340015

$$$$
