
     RDKit          3D

 40 41  0  0  1  0  0  0  0  0999 V2000
   37.6720   28.3000   41.2930 C   0  0  1  0  0  0  0  0  0  0  0  0
   38.2100   30.9570   38.6820 C   0  0  0  0  0  0  0  0  0  0  0  0
   38.2370   29.7010   39.3100 C   0  0  0  0  0  0  0  0  0  0  0  0
   37.6140   29.5800   40.5510 C   0  0  0  0  0  0  0  0  0  0  0  0
   37.0140   30.6950   41.0740 N   0  0  0  0  0  0  0  0  0  0  0  0
   37.0130   31.8680   40.4450 C   0  0  0  0  0  0  0  0  0  0  0  0
   37.6120   31.9990   39.2460 N   0  0  0  0  0  0  0  0  0  0  0  0
   38.1980   27.2220   40.4310 C   0  0  0  0  0  0  0  0  0  0  0  0
   38.3000   25.9380   41.1280 C   0  0  2  0  0  0  0  0  0  0  0  0
   39.3060   25.0170   40.4940 C   0  0  0  0  0  0  0  0  0  0  0  0
   38.7630   23.6160   40.7570 C   0  0  0  0  0  0  0  0  0  0  0  0
   37.4150   23.8140   41.4470 C   0  0  0  0  0  0  0  0  0  0  0  0
   37.0100   25.1910   40.9930 C   0  0  2  0  0  0  0  0  0  0  0  0
   36.5190   25.0740   39.5950 C   0  0  0  0  0  0  0  0  0  0  0  0
   35.6730   24.3940   39.0030 O   0  0  0  0  0  0  0  0  0  0  0  0
   38.4210   28.4010   42.6190 C   0  0  1  0  0  0  0  0  0  0  0  0
   39.9930   29.0170   42.5270 S   0  0  0  0  0  0  0  0  0  0  0  0
   37.5590   28.7940   43.6480 O   0  0  0  0  0  0  0  0  0  0  0  0
   36.6830   28.0480   44.3010 C   0  0  0  0  0  0  0  0  0  0  0  0
   36.3320   28.4520   45.6030 N   0  0  0  0  0  0  0  0  0  0  0  0
   36.2100   27.0380   43.7390 O   0  0  0  0  0  0  0  0  0  0  0  0
   36.6387   28.0430   41.5692 H   0  0  0  0  0  0  0  0  0  0  0  0
   38.6946   31.0796   37.7022 H   0  0  0  0  0  0  0  0  0  0  0  0
   38.7337   28.8406   38.8378 H   0  0  0  0  0  0  0  0  0  0  0  0
   36.5199   32.7358   40.9074 H   0  0  0  0  0  0  0  0  0  0  0  0
   39.1989   27.5109   40.0779 H   0  0  0  0  0  0  0  0  0  0  0  0
   37.4934   27.0912   39.5964 H   0  0  0  0  0  0  0  0  0  0  0  0
   38.5755   26.1842   42.1641 H   0  0  0  0  0  0  0  0  0  0  0  0
   40.2952   25.1437   40.9580 H   0  0  0  0  0  0  0  0  0  0  0  0
   39.4386   25.2187   39.4208 H   0  0  0  0  0  0  0  0  0  0  0  0
   38.6321   23.0720   39.8099 H   0  0  0  0  0  0  0  0  0  0  0  0
   39.4523   23.0250   41.3779 H   0  0  0  0  0  0  0  0  0  0  0  0
   36.6866   23.0579   41.1188 H   0  0  0  0  0  0  0  0  0  0  0  0
   37.4656   23.7124   42.5411 H   0  0  0  0  0  0  0  0  0  0  0  0
   36.2015   25.6902   41.5472 H   0  0  0  0  0  0  0  0  0  0  0  0
   37.0390   25.7664   38.9166 H   0  0  0  0  0  0  0  0  0  0  0  0
   38.7287   27.3963   42.9443 H   0  0  0  0  0  0  0  0  0  0  0  0
   40.4830   29.2090   43.7919 H   0  0  0  0  0  0  0  0  0  0  0  0
   35.6536   27.9009   46.1480 H   0  0  0  0  0  0  0  0  0  0  0  0
   36.7535   29.2987   46.0107 H   0  0  0  0  0  0  0  0  0  0  0  0
  1 16  1  0
  2  7  2  0
  2  3  1  0
  3  4  2  0
  4  5  1  0
  4  1  1  0
  6  5  2  0
  7  6  1  0
  8  9  1  0
  8  1  1  0
 10 11  1  0
 10  9  1  0
 11 12  1  0
 13  9  1  0
 13 12  1  0
 14 13  1  0
 15 14  2  0
 16 18  1  0
 17 16  1  0
 18 19  1  0
 19 20  1  0
 21 19  2  0
  1 22  1  1
  2 23  1  0
  3 24  1  0
  6 25  1  0
  8 26  1  0
  8 27  1  0
  9 28  1  1
 10 29  1  0
 10 30  1  0
 11 31  1  0
 11 32  1  0
 12 33  1  0
 12 34  1  0
 13 35  1  1
 14 36  1  0
 16 37  1  1
 17 38  1  0
 20 39  1  0
 20 40  1  0
M  ISO  8  22   8  23  14  24  14  25  14  26   8  27   8  28  13  29  13
M  ISO  8  30  13  31  13  32  13  33  13  34  13  35  13  36   6  37   8
M  ISO  1  38  11
M  END
>  <minimizedAffinity>  (1) 
-4.48161554

>  <minimizedRMSD>  (1) 
0.481831819

$$$$
