
     RDKit          3D

 42 44  0  0  1  0  0  0  0  0999 V2000
   39.4040   25.9950   42.2510 C   0  0  1  0  0  0  0  0  0  0  0  0
   39.2240   24.5930   41.6020 C   0  0  0  0  0  0  0  0  0  0  0  0
   37.8670   24.1560   41.9260 C   0  0  0  0  0  0  0  0  0  0  0  0
   37.1270   25.4770   42.2730 C   0  0  0  0  0  0  0  0  0  0  0  0
   38.1400   26.1780   42.9670 C   0  0  2  0  0  0  0  0  0  0  0  0
   42.0270   26.9710   44.7410 C   0  0  0  0  0  0  0  0  0  0  0  0
   40.8090   26.9260   44.0730 C   0  0  0  0  0  0  0  0  0  0  0  0
   40.6310   26.0760   42.9840 C   0  0  0  0  0  0  0  0  0  0  0  0
   41.6830   25.2930   42.5990 N   0  0  0  0  0  0  0  0  0  0  0  0
   42.8640   25.3330   43.2470 C   0  0  0  0  0  0  0  0  0  0  0  0
   43.0430   26.1600   44.3060 N   0  0  0  0  0  0  0  0  0  0  0  0
   37.6820   27.6050   43.0770 C   0  0  2  0  0  0  0  0  0  0  0  0
   36.7510   27.9270   44.1670 C   0  0  0  0  0  0  0  0  0  0  0  0
   37.1220   27.9180   41.8020 C   0  0  0  0  0  0  0  0  0  0  0  0
   37.0680   29.2980   41.5400 N   0  0  0  0  0  0  0  0  0  0  0  0
   36.0220   29.9890   40.9850 C   0  0  0  0  0  0  0  0  0  0  0  0
   36.4670   31.2030   40.6420 C   0  0  0  0  0  0  0  0  0  0  0  0
   37.7690   31.1940   41.0150 N   0  0  0  0  0  0  0  0  0  0  0  0
   38.1640   30.0700   41.5660 C   0  0  0  0  0  0  0  0  0  0  0  0
   39.5520   30.1780   41.9740 C   0  0  0  0  0  0  0  0  0  0  0  0
   39.8760   30.9320   43.0800 F   0  0  0  0  0  0  0  0  0  0  0  0
   40.3250   31.0850   41.1570 F   0  0  0  0  0  0  0  0  0  0  0  0
   40.3990   29.1520   41.6340 F   0  0  0  0  0  0  0  0  0  0  0  0
   39.5474   26.8421   41.5640 H   0  0  0  0  0  0  0  0  0  0  0  0
   39.9593   23.8863   42.0142 H   0  0  0  0  0  0  0  0  0  0  0  0
   39.3786   24.6359   40.5138 H   0  0  0  0  0  0  0  0  0  0  0  0
   37.3987   23.6590   41.0636 H   0  0  0  0  0  0  0  0  0  0  0  0
   37.8397   23.4241   42.7467 H   0  0  0  0  0  0  0  0  0  0  0  0
   36.8124   26.0142   41.3662 H   0  0  0  0  0  0  0  0  0  0  0  0
   36.1970   25.3398   42.8442 H   0  0  0  0  0  0  0  0  0  0  0  0
   38.3178   25.8079   43.9875 H   0  0  0  0  0  0  0  0  0  0  0  0
   42.1725   27.6427   45.5999 H   0  0  0  0  0  0  0  0  0  0  0  0
   39.9794   27.5665   44.4069 H   0  0  0  0  0  0  0  0  0  0  0  0
   43.6906   24.6884   42.9134 H   0  0  0  0  0  0  0  0  0  0  0  0
   38.5518   28.2215   43.3479 H   0  0  0  0  0  0  0  0  0  0  0  0
   37.2458   27.7559   45.1344 H   0  0  0  0  0  0  0  0  0  0  0  0
   36.4486   28.9819   44.0913 H   0  0  0  0  0  0  0  0  0  0  0  0
   35.8615   27.2843   44.0913 H   0  0  0  0  0  0  0  0  0  0  0  0
   37.7355   27.4392   41.0246 H   0  0  0  0  0  0  0  0  0  0  0  0
   36.0866   27.5465   41.8018 H   0  0  0  0  0  0  0  0  0  0  0  0
   34.9980   29.6119   40.8463 H   0  0  0  0  0  0  0  0  0  0  0  0
   35.9049   32.0203   40.1665 H   0  0  0  0  0  0  0  0  0  0  0  0
  1  5  1  0
  1  8  1  0
  2  3  1  0
  2  1  1  0
  3  4  1  0
  4  5  1  0
  5 12  1  0
  7  6  2  0
  8  7  1  0
  9  8  2  0
  9 10  1  0
 10 11  2  0
 11  6  1  0
 12 13  1  0
 14 12  1  0
 15 19  1  0
 15 14  1  0
 16 15  1  0
 17 16  2  0
 17 18  1  0
 18 19  2  0
 19 20  1  0
 20 21  1  0
 22 20  1  0
 23 20  1  0
  1 24  1  6
  2 25  1  0
  2 26  1  0
  3 27  1  0
  3 28  1  0
  4 29  1  0
  4 30  1  0
  5 31  1  1
  6 32  1  0
  7 33  1  0
 10 34  1  0
 12 35  1  1
 13 36  1  0
 13 37  1  0
 13 38  1  0
 14 39  1  0
 14 40  1  0
 16 41  1  0
 17 42  1  0
M  ISO  8  24  13  25  13  26  13  27  13  28  13  29  13  30  13  31  13
M  ISO  8  32  14  33  14  34  14  35   8  36   8  37   8  38   8  39   8
M  ISO  3  40   8  41  14  42  14
M  END
>  <minimizedAffinity>  (1) 
-5.57622051

>  <minimizedRMSD>  (1) 
0.41425851

$$$$
