
     RDKit          3D

 15 16  0  0  0  0  0  0  0  0999 V2000
   37.9100   29.7850   41.9680 C   0  0  0  0  0  0  0  0  0  0  0  0
   37.6390   28.4110   42.0560 C   0  0  0  0  0  0  0  0  0  0  0  0
   36.4600   27.9360   41.4810 C   0  0  0  0  0  0  0  0  0  0  0  0
   35.6210   28.8310   40.8570 N   0  0  0  0  0  0  0  0  0  0  0  0
   35.9220   30.1510   40.7960 C   0  0  0  0  0  0  0  0  0  0  0  0
   37.0660   30.6180   41.3530 N   0  0  0  0  0  0  0  0  0  0  0  0
   38.4930   27.4220   42.7030 C   0  0  0  0  0  0  0  0  0  0  0  0
   38.4020   26.0670   42.6660 N   0  0  0  0  0  0  0  0  0  0  0  0
   39.3860   25.5790   43.3990 O   0  0  0  0  0  0  0  0  0  0  0  0
   40.1090   26.5460   43.9100 C   0  0  0  0  0  0  0  0  0  0  0  0
   39.5550   27.7170   43.4790 N   0  0  0  0  0  0  0  0  0  0  0  0
   38.8337   30.1832   42.4133 H   0  0  0  0  0  0  0  0  0  0  0  0
   36.2058   26.8667   41.5255 H   0  0  0  0  0  0  0  0  0  0  0  0
   35.2347   30.8465   40.2921 H   0  0  0  0  0  0  0  0  0  0  0  0
   40.9900   26.4354   44.5593 H   0  0  0  0  0  0  0  0  0  0  0  0
  1  2  2  0
  2  7  1  0
  3  2  1  0
  4  3  2  0
  5  4  1  0
  5  6  2  0
  6  1  1  0
  7 11  1  0
  8  7  2  0
  8  9  1  0
  9 10  1  0
 11 10  2  0
  1 12  1  0
  3 13  1  0
  5 14  1  0
 10 15  1  0
M  ISO  4  12  14  13  14  14  14  15  14
M  END
>  <minimizedAffinity>  (1) 
-3.29570055

>  <minimizedRMSD>  (1) 
2.16923261

$$$$
