
     RDKit          3D

 25 27  0  0  0  0  0  0  0  0999 V2000
   39.5380   32.1220   39.9940 C   0  0  0  0  0  0  0  0  0  0  0  0
   38.2150   32.3520   40.1950 N   0  0  0  0  0  0  0  0  0  0  0  0
   37.7560   31.4280   41.0060 O   0  0  0  0  0  0  0  0  0  0  0  0
   38.7250   30.6010   41.3440 C   0  0  0  0  0  0  0  0  0  0  0  0
   39.8490   31.0270   40.7150 N   0  0  0  0  0  0  0  0  0  0  0  0
   41.0730   32.4320   37.9930 C   0  0  0  0  0  0  0  0  0  0  0  0
   40.4830   32.8670   39.1800 C   0  0  0  0  0  0  0  0  0  0  0  0
   40.8250   34.1400   39.6370 C   0  0  0  0  0  0  0  0  0  0  0  0
   41.7130   34.8980   38.9150 N   0  0  0  0  0  0  0  0  0  0  0  0
   42.2570   34.4300   37.7720 C   0  0  0  0  0  0  0  0  0  0  0  0
   41.9320   33.2030   37.3250 N   0  0  0  0  0  0  0  0  0  0  0  0
   38.6240   29.4490   42.2230 C   0  0  0  0  0  0  0  0  0  0  0  0
   39.6950   28.6470   42.5430 C   0  0  0  0  0  0  0  0  0  0  0  0
   39.5030   27.5700   43.3910 C   0  0  0  0  0  0  0  0  0  0  0  0
   38.2660   27.2510   43.9410 C   0  0  0  0  0  0  0  0  0  0  0  0
   37.1700   28.0570   43.6230 C   0  0  0  0  0  0  0  0  0  0  0  0
   37.3990   29.1280   42.7720 C   0  0  0  0  0  0  0  0  0  0  0  0
   40.8251   31.4346   37.6008 H   0  0  0  0  0  0  0  0  0  0  0  0
   40.3874   34.5325   40.5668 H   0  0  0  0  0  0  0  0  0  0  0  0
   42.9662   35.0516   37.2057 H   0  0  0  0  0  0  0  0  0  0  0  0
   40.6921   28.8591   42.1298 H   0  0  0  0  0  0  0  0  0  0  0  0
   40.3678   26.9379   43.6412 H   0  0  0  0  0  0  0  0  0  0  0  0
   38.1533   26.3852   44.6101 H   0  0  0  0  0  0  0  0  0  0  0  0
   36.1690   27.8511   44.0299 H   0  0  0  0  0  0  0  0  0  0  0  0
   36.5419   29.7682   42.5160 H   0  0  0  0  0  0  0  0  0  0  0  0
  1  2  2  0
  1  5  1  0
  2  3  1  0
  3  4  1  0
  4 12  1  0
  5  4  2  0
  6  7  2  0
  7  8  1  0
  7  1  1  0
  9  8  2  0
 10  9  1  0
 11 10  2  0
 11  6  1  0
 12 13  2  0
 12 17  1  0
 13 14  1  0
 14 15  2  0
 16 15  1  0
 17 16  2  0
  6 18  1  0
  8 19  1  0
 10 20  1  0
 13 21  1  0
 14 22  1  0
 15 23  1  0
 16 24  1  0
 17 25  1  0
M  ISO  8  18  14  19  14  20  14  21  14  22  14  23  14  24  14  25  14
M  END
>  <minimizedAffinity>  (1) 
-4.91888332

>  <minimizedRMSD>  (1) 
6.27140141

$$$$
