
     RDKit          3D

 29 31  0  0  0  0  0  0  0  0999 V2000
   39.6030   32.0550   38.9480 C   0  0  0  0  0  0  0  0  0  0  0  0
   38.7020   31.4410   38.1360 N   0  0  0  0  0  0  0  0  0  0  0  0
   37.9310   30.6980   38.9130 O   0  0  0  0  0  0  0  0  0  0  0  0
   38.2810   30.7990   40.1640 C   0  0  0  0  0  0  0  0  0  0  0  0
   39.3360   31.6520   40.2090 N   0  0  0  0  0  0  0  0  0  0  0  0
   37.6700   30.1400   41.2440 N   0  0  0  0  0  0  0  0  0  0  0  0
   38.3380   29.6520   42.4020 C   0  0  0  0  0  0  0  0  0  0  0  0
   37.5300   28.8100   43.3040 C   0  0  0  0  0  0  0  0  0  0  0  0
   36.4660   28.0760   42.7170 N   0  0  0  0  0  0  0  0  0  0  0  0
   36.0460   28.4370   41.4110 C   0  0  0  0  0  0  0  0  0  0  0  0
   36.2130   29.9270   41.1800 C   0  0  0  0  0  0  0  0  0  0  0  0
   40.9480   34.1980   39.2350 C   0  0  0  0  0  0  0  0  0  0  0  0
   40.6640   32.9760   38.5820 C   0  0  0  0  0  0  0  0  0  0  0  0
   41.4640   32.6330   37.5010 C   0  0  0  0  0  0  0  0  0  0  0  0
   42.4770   33.4560   37.1040 N   0  0  0  0  0  0  0  0  0  0  0  0
   42.7150   34.6270   37.7670 C   0  0  0  0  0  0  0  0  0  0  0  0
   41.9510   34.9750   38.8150 N   0  0  0  0  0  0  0  0  0  0  0  0
   39.2007   29.0569   42.0679 H   0  0  0  0  0  0  0  0  0  0  0  0
   38.6079   30.5429   42.9880 H   0  0  0  0  0  0  0  0  0  0  0  0
   38.2087   28.0874   43.7806 H   0  0  0  0  0  0  0  0  0  0  0  0
   37.0447   29.5146   43.9954 H   0  0  0  0  0  0  0  0  0  0  0  0
   36.7580   27.0889   42.6824 H   0  0  0  0  0  0  0  0  0  0  0  0
   36.6508   27.8885   40.6739 H   0  0  0  0  0  0  0  0  0  0  0  0
   34.9816   28.1820   41.3016 H   0  0  0  0  0  0  0  0  0  0  0  0
   35.6994   30.5035   41.9634 H   0  0  0  0  0  0  0  0  0  0  0  0
   35.7798   30.2571   40.2243 H   0  0  0  0  0  0  0  0  0  0  0  0
   40.3385   34.5114   40.0954 H   0  0  0  0  0  0  0  0  0  0  0  0
   41.2802   31.6923   36.9613 H   0  0  0  0  0  0  0  0  0  0  0  0
   43.5338   35.2856   37.4416 H   0  0  0  0  0  0  0  0  0  0  0  0
  1  5  1  0
  2  3  1  0
  2  1  2  0
  3  4  1  0
  4  5  2  0
  4  6  1  0
  6  7  1  0
  7  8  1  0
  9  8  1  0
 10  9  1  0
 11  6  1  0
 11 10  1  0
 13  1  1  0
 13 12  2  0
 14 13  1  0
 15 14  2  0
 15 16  1  0
 16 17  2  0
 17 12  1  0
  7 18  1  0
  7 19  1  0
  8 20  1  0
  8 21  1  0
  9 22  1  0
 10 23  1  0
 10 24  1  0
 11 25  1  0
 11 26  1  0
 12 27  1  0
 14 28  1  0
 16 29  1  0
M  ISO  8  18  13  19  13  20  13  21  13  22   5  23  13  24  13  25  13
M  ISO  4  26  13  27  14  28  14  29  14
M  END
>  <minimizedAffinity>  (1) 
-4.77518654

>  <minimizedRMSD>  (1) 
7.13292646

$$$$
