
     RDKit          3D

 22 24  0  0  0  0  0  0  0  0999 V2000
   38.4950   31.9600   40.3230 C   0  0  0  0  0  0  0  0  0  0  0  0
   37.1580   32.2190   40.3250 N   0  0  0  0  0  0  0  0  0  0  0  0
   36.5630   31.2570   40.9920 O   0  0  0  0  0  0  0  0  0  0  0  0
   37.4490   30.3850   41.4230 C   0  0  0  0  0  0  0  0  0  0  0  0
   38.6680   30.8140   41.0100 N   0  0  0  0  0  0  0  0  0  0  0  0
   40.5920   32.2090   38.9000 C   0  0  0  0  0  0  0  0  0  0  0  0
   39.5860   32.7220   39.7200 C   0  0  0  0  0  0  0  0  0  0  0  0
   39.6010   34.0820   40.0030 C   0  0  0  0  0  0  0  0  0  0  0  0
   40.6030   34.8540   39.4650 N   0  0  0  0  0  0  0  0  0  0  0  0
   41.5560   34.3180   38.6760 C   0  0  0  0  0  0  0  0  0  0  0  0
   41.5460   32.9850   38.3970 N   0  0  0  0  0  0  0  0  0  0  0  0
   37.2720   29.1630   42.1990 C   0  0  0  0  0  0  0  0  0  0  0  0
   36.5000   28.0520   41.9190 C   0  0  0  0  0  0  0  0  0  0  0  0
   36.7050   27.1950   42.9920 C   0  0  0  0  0  0  0  0  0  0  0  0
   37.5780   27.8140   43.8660 C   0  0  0  0  0  0  0  0  0  0  0  0
   37.8830   28.9730   43.3500 O   0  0  0  0  0  0  0  0  0  0  0  0
   40.5952   31.1346   38.6640 H   0  0  0  0  0  0  0  0  0  0  0  0
   38.8279   34.5313   40.6437 H   0  0  0  0  0  0  0  0  0  0  0  0
   42.3445   34.9598   38.2561 H   0  0  0  0  0  0  0  0  0  0  0  0
   35.8624   27.8833   41.0386 H   0  0  0  0  0  0  0  0  0  0  0  0
   36.2531   26.2007   43.1229 H   0  0  0  0  0  0  0  0  0  0  0  0
   37.9469   27.4060   44.8186 H   0  0  0  0  0  0  0  0  0  0  0  0
  1  2  2  0
  1  5  1  0
  2  3  1  0
  3  4  1  0
  4 12  1  0
  5  4  2  0
  6  7  2  0
  7  8  1  0
  7  1  1  0
  9  8  2  0
 10  9  1  0
 11 10  2  0
 11  6  1  0
 12 16  1  0
 13 12  2  0
 13 14  1  0
 14 15  2  0
 16 15  1  0
  6 17  1  0
  8 18  1  0
 10 19  1  0
 13 20  1  0
 14 21  1  0
 15 22  1  0
M  ISO  6  17  14  18  14  19  14  20  14  21  14  22  14
M  END
>  <minimizedAffinity>  (1) 
-4.7738986

>  <minimizedRMSD>  (1) 
6.12108612

$$$$
