
     RDKit          3D

 22 24  0  0  0  0  0  0  0  0999 V2000
   38.7590   28.6950   42.6950 C   0  0  0  0  0  0  0  0  0  0  0  0
   38.1440   27.8950   43.6160 N   0  0  0  0  0  0  0  0  0  0  0  0
   39.0290   27.0090   44.0360 O   0  0  0  0  0  0  0  0  0  0  0  0
   40.1720   27.1930   43.4400 C   0  0  0  0  0  0  0  0  0  0  0  0
   40.0280   28.2570   42.5850 N   0  0  0  0  0  0  0  0  0  0  0  0
   38.9330   30.8890   41.4430 C   0  0  0  0  0  0  0  0  0  0  0  0
   38.2030   29.8140   41.9500 C   0  0  0  0  0  0  0  0  0  0  0  0
   36.8150   29.7890   41.7340 C   0  0  0  0  0  0  0  0  0  0  0  0
   36.2440   30.8350   41.0300 N   0  0  0  0  0  0  0  0  0  0  0  0
   37.0050   31.8530   40.5620 C   0  0  0  0  0  0  0  0  0  0  0  0
   38.3460   31.8750   40.7710 N   0  0  0  0  0  0  0  0  0  0  0  0
   41.4260   26.4610   43.5860 C   0  0  0  0  0  0  0  0  0  0  0  0
   42.6150   26.8550   44.1620 C   0  0  0  0  0  0  0  0  0  0  0  0
   43.5650   25.8560   44.0930 C   0  0  0  0  0  0  0  0  0  0  0  0
   42.8970   24.8500   43.4550 N   0  0  0  0  0  0  0  0  0  0  0  0
   41.6430   25.2000   43.1560 N   0  0  0  0  0  0  0  0  0  0  0  0
   40.0208   30.9220   41.6029 H   0  0  0  0  0  0  0  0  0  0  0  0
   36.1989   28.9608   42.1140 H   0  0  0  0  0  0  0  0  0  0  0  0
   36.5296   32.6736   40.0046 H   0  0  0  0  0  0  0  0  0  0  0  0
   42.7851   27.8411   44.6189 H   0  0  0  0  0  0  0  0  0  0  0  0
   44.6018   25.8673   44.4603 H   0  0  0  0  0  0  0  0  0  0  0  0
   43.3098   23.9332   43.2316 H   0  0  0  0  0  0  0  0  0  0  0  0
  1  2  2  0
  2  3  1  0
  4 12  1  0
  4  3  1  0
  5  1  1  0
  5  4  2  0
  6  7  2  0
  7  1  1  0
  8  7  1  0
  9  8  2  0
 10 11  2  0
 10  9  1  0
 11  6  1  0
 12 13  1  0
 14 13  2  0
 15 14  1  0
 16 15  1  0
 16 12  2  0
  6 17  1  0
  8 18  1  0
 10 19  1  0
 13 20  1  0
 14 21  1  0
 15 22  1  0
M  ISO  6  17  14  18  14  19  14  20  14  21  14  22   9
M  END
>  <minimizedAffinity>  (1) 
-4.71796608

>  <minimizedRMSD>  (1) 
1.96653652

$$$$
