
     RDKit          3D

 31 33  0  0  0  0  0  0  0  0999 V2000
   38.5620   28.7740   42.7390 C   0  0  0  0  0  0  0  0  0  0  0  0
   37.7730   27.9360   43.4790 N   0  0  0  0  0  0  0  0  0  0  0  0
   38.5660   27.0300   44.0310 O   0  0  0  0  0  0  0  0  0  0  0  0
   39.8110   27.2400   43.6870 C   0  0  0  0  0  0  0  0  0  0  0  0
   39.8160   28.3290   42.8790 N   0  0  0  0  0  0  0  0  0  0  0  0
   39.0280   30.9520   41.5200 C   0  0  0  0  0  0  0  0  0  0  0  0
   38.1590   29.9280   41.9450 C   0  0  0  0  0  0  0  0  0  0  0  0
   36.8130   30.0090   41.5890 C   0  0  0  0  0  0  0  0  0  0  0  0
   36.3950   31.0860   40.8370 N   0  0  0  0  0  0  0  0  0  0  0  0
   37.2740   32.0540   40.4490 C   0  0  0  0  0  0  0  0  0  0  0  0
   38.5810   31.9760   40.7950 N   0  0  0  0  0  0  0  0  0  0  0  0
   40.9440   26.3920   44.1450 C   0  0  0  0  0  0  0  0  0  0  0  0
   42.0010   27.3530   44.6250 C   0  0  0  0  0  0  0  0  0  0  0  0
   43.3230   26.6680   44.8550 C   0  0  0  0  0  0  0  0  0  0  0  0
   43.7740   26.2220   43.4800 C   0  0  0  0  0  0  0  0  0  0  0  0
   42.8380   25.2140   42.9280 C   0  0  0  0  0  0  0  0  0  0  0  0
   41.3900   25.4640   43.0810 C   0  0  0  0  0  0  0  0  0  0  0  0
   40.0930   30.9052   41.7913 H   0  0  0  0  0  0  0  0  0  0  0  0
   36.1009   29.2309   41.9013 H   0  0  0  0  0  0  0  0  0  0  0  0
   36.9183   32.9053   39.8500 H   0  0  0  0  0  0  0  0  0  0  0  0
   40.6642   25.7172   44.9674 H   0  0  0  0  0  0  0  0  0  0  0  0
   42.1356   28.1400   43.8684 H   0  0  0  0  0  0  0  0  0  0  0  0
   41.6659   27.7761   45.5835 H   0  0  0  0  0  0  0  0  0  0  0  0
   44.0504   27.3673   45.2931 H   0  0  0  0  0  0  0  0  0  0  0  0
   43.2366   25.8251   45.5565 H   0  0  0  0  0  0  0  0  0  0  0  0
   43.8048   27.0931   42.8090 H   0  0  0  0  0  0  0  0  0  0  0  0
   44.7740   25.7712   43.5626 H   0  0  0  0  0  0  0  0  0  0  0  0
   43.0596   24.2557   43.4205 H   0  0  0  0  0  0  0  0  0  0  0  0
   43.0110   25.2397   41.8420 H   0  0  0  0  0  0  0  0  0  0  0  0
   41.0268   25.8676   42.1243 H   0  0  0  0  0  0  0  0  0  0  0  0
   40.9778   24.4896   43.3820 H   0  0  0  0  0  0  0  0  0  0  0  0
  1  5  1  0
  1  2  2  0
  2  3  1  0
  4  3  1  0
  4 12  1  0
  5  4  2  0
  6  7  2  0
  7  1  1  0
  8  7  1  0
  9  8  2  0
 10 11  2  0
 10  9  1  0
 11  6  1  0
 12 13  1  0
 13 14  1  0
 15 14  1  0
 16 17  1  0
 16 15  1  0
 17 12  1  0
  6 18  1  0
  8 19  1  0
 10 20  1  0
 12 21  1  0
 13 22  1  0
 13 23  1  0
 14 24  1  0
 14 25  1  0
 15 26  1  0
 15 27  1  0
 16 28  1  0
 16 29  1  0
 17 30  1  0
 17 31  1  0
M  ISO  8  18  14  19  14  20  14  21  13  22  13  23  13  24  13  25  13
M  ISO  6  26  13  27  13  28  13  29  13  30  13  31  13
M  END
>  <minimizedAffinity>  (1) 
-4.65414906

>  <minimizedRMSD>  (1) 
2.12894607

$$$$
