
     RDKit          3D

 18 19  0  0  0  0  0  0  0  0999 V2000
   39.0050   32.8930   41.1220 C   0  0  0  0  0  0  0  0  0  0  0  0
   38.2990   31.6790   41.0090 C   0  0  0  0  0  0  0  0  0  0  0  0
   37.2300   31.5860   40.1210 C   0  0  0  0  0  0  0  0  0  0  0  0
   36.9220   32.7140   39.3910 N   0  0  0  0  0  0  0  0  0  0  0  0
   37.6140   33.8640   39.5190 C   0  0  0  0  0  0  0  0  0  0  0  0
   38.6470   33.9490   40.3790 N   0  0  0  0  0  0  0  0  0  0  0  0
   38.6250   30.4820   41.7830 C   0  0  0  0  0  0  0  0  0  0  0  0
   39.8630   29.9350   41.9880 N   0  0  0  0  0  0  0  0  0  0  0  0
   39.6950   28.8610   42.7430 O   0  0  0  0  0  0  0  0  0  0  0  0
   38.4390   28.6890   43.0310 C   0  0  0  0  0  0  0  0  0  0  0  0
   37.7360   29.7040   42.4340 N   0  0  0  0  0  0  0  0  0  0  0  0
   37.7550   27.6510   43.8330 C   0  0  0  0  0  0  0  0  0  0  0  0
   36.9790   28.2100   44.8300 F   0  0  0  0  0  0  0  0  0  0  0  0
   37.0410   26.8050   43.0090 F   0  0  0  0  0  0  0  0  0  0  0  0
   38.7550   26.8770   44.4100 F   0  0  0  0  0  0  0  0  0  0  0  0
   39.8507   32.9740   41.8207 H   0  0  0  0  0  0  0  0  0  0  0  0
   36.6570   30.6539   40.0073 H   0  0  0  0  0  0  0  0  0  0  0  0
   37.3326   34.7400   38.9161 H   0  0  0  0  0  0  0  0  0  0  0  0
  2  1  2  0
  2  7  1  0
  3  2  1  0
  4  5  1  0
  4  3  2  0
  5  6  2  0
  6  1  1  0
  7  8  2  0
  7 11  1  0
  8  9  1  0
  9 10  1  0
 10 12  1  0
 11 10  2  0
 12 15  1  0
 12 13  1  0
 14 12  1  0
  1 16  1  0
  3 17  1  0
  5 18  1  0
M  ISO  3  16  14  17  14  18  14
M  END
>  <minimizedAffinity>  (1) 
-4.56708574

>  <minimizedRMSD>  (1) 
3.87225151

$$$$
