
     RDKit          3D

 25 27  0  0  0  0  0  0  0  0999 V2000
   39.0670   27.5580   43.0430 C   0  0  0  0  0  0  0  0  0  0  0  0
   38.8660   26.3160   43.5390 N   0  0  0  0  0  0  0  0  0  0  0  0
   39.9970   25.8980   44.0590 O   0  0  0  0  0  0  0  0  0  0  0  0
   40.9340   26.7940   43.9360 C   0  0  0  0  0  0  0  0  0  0  0  0
   40.3600   27.8450   43.2970 N   0  0  0  0  0  0  0  0  0  0  0  0
   38.3660   29.7890   42.0790 C   0  0  0  0  0  0  0  0  0  0  0  0
   38.1250   28.4410   42.3700 C   0  0  0  0  0  0  0  0  0  0  0  0
   36.9020   27.8870   41.9960 C   0  0  0  0  0  0  0  0  0  0  0  0
   35.9880   28.6890   41.3580 N   0  0  0  0  0  0  0  0  0  0  0  0
   36.2590   29.9870   41.0950 C   0  0  0  0  0  0  0  0  0  0  0  0
   37.4420   30.5270   41.4560 N   0  0  0  0  0  0  0  0  0  0  0  0
   42.3230   26.7140   44.3830 C   0  0  0  0  0  0  0  0  0  0  0  0
   42.6480   27.2590   45.6090 C   0  0  0  0  0  0  0  0  0  0  0  0
   43.9670   27.2010   46.0690 C   0  0  0  0  0  0  0  0  0  0  0  0
   44.9320   26.5930   45.2800 C   0  0  0  0  0  0  0  0  0  0  0  0
   44.5550   26.0680   44.0730 C   0  0  0  0  0  0  0  0  0  0  0  0
   43.2600   26.1040   43.5780 C   0  0  0  0  0  0  0  0  0  0  0  0
   39.3250   30.2452   42.3658 H   0  0  0  0  0  0  0  0  0  0  0  0
   36.6742   26.8317   42.2070 H   0  0  0  0  0  0  0  0  0  0  0  0
   35.5094   30.6080   40.5827 H   0  0  0  0  0  0  0  0  0  0  0  0
   41.8708   27.7379   46.2227 H   0  0  0  0  0  0  0  0  0  0  0  0
   44.2360   27.6322   47.0445 H   0  0  0  0  0  0  0  0  0  0  0  0
   45.9776   26.5338   45.6166 H   0  0  0  0  0  0  0  0  0  0  0  0
   45.3287   25.5869   43.4565 H   0  0  0  0  0  0  0  0  0  0  0  0
   42.9968   25.6715   42.6014 H   0  0  0  0  0  0  0  0  0  0  0  0
  1  5  1  0
  1  2  2  0
  2  3  1  0
  4  3  1  0
  4 12  1  0
  5  4  2  0
  6  7  2  0
  7  1  1  0
  8  7  1  0
  9  8  2  0
 10  9  1  0
 10 11  2  0
 11  6  1  0
 12 13  2  0
 13 14  1  0
 15 14  2  0
 16 15  1  0
 17 16  2  0
 17 12  1  0
  6 18  1  0
  8 19  1  0
 10 20  1  0
 13 21  1  0
 14 22  1  0
 15 23  1  0
 16 24  1  0
 17 25  1  0
M  ISO  8  18  14  19  14  20  14  21  14  22  14  23  14  24  14  25  14
M  END
>  <minimizedAffinity>  (1) 
-4.4895153

>  <minimizedRMSD>  (1) 
1.11587429

$$$$
