
     RDKit          3D

 21 23  0  0  0  0  0  0  0  0999 V2000
   39.1680   32.5600   39.7630 C   0  0  0  0  0  0  0  0  0  0  0  0
   37.9010   32.9990   39.9150 N   0  0  0  0  0  0  0  0  0  0  0  0
   37.2370   32.0950   40.6270 O   0  0  0  0  0  0  0  0  0  0  0  0
   38.0220   31.1040   40.9330 C   0  0  0  0  0  0  0  0  0  0  0  0
   39.2420   31.3670   40.4050 N   0  0  0  0  0  0  0  0  0  0  0  0
   40.8560   34.4270   39.4290 C   0  0  0  0  0  0  0  0  0  0  0  0
   40.2720   33.1930   39.0650 C   0  0  0  0  0  0  0  0  0  0  0  0
   40.7810   32.5080   37.9480 C   0  0  0  0  0  0  0  0  0  0  0  0
   41.8220   33.0880   37.2750 N   0  0  0  0  0  0  0  0  0  0  0  0
   42.3590   34.2680   37.6480 C   0  0  0  0  0  0  0  0  0  0  0  0
   41.8740   34.9270   38.7180 N   0  0  0  0  0  0  0  0  0  0  0  0
   37.7000   29.9080   41.7010 C   0  0  0  0  0  0  0  0  0  0  0  0
   38.5200   29.6520   42.8590 C   0  0  0  0  0  0  0  0  0  0  0  0
   37.7940   28.0710   43.5390 S   0  0  0  0  0  0  0  0  0  0  0  0
   36.5200   28.0560   42.1280 C   0  0  0  0  0  0  0  0  0  0  0  0
   36.7600   28.9750   41.5300 N   0  0  0  0  0  0  0  0  0  0  0  0
   40.4727   34.9789   40.2999 H   0  0  0  0  0  0  0  0  0  0  0  0
   40.3593   31.5439   37.6275 H   0  0  0  0  0  0  0  0  0  0  0  0
   43.1965   34.6938   37.0759 H   0  0  0  0  0  0  0  0  0  0  0  0
   39.3641   30.2417   43.2461 H   0  0  0  0  0  0  0  0  0  0  0  0
   35.7283   27.3157   41.9405 H   0  0  0  0  0  0  0  0  0  0  0  0
  1  2  2  0
  1  5  1  0
  2  3  1  0
  3  4  1  0
  4 12  1  0
  5  4  2  0
  7  6  2  0
  7  1  1  0
  8  7  1  0
  9 10  1  0
  9  8  2  0
 10 11  2  0
 11  6  1  0
 12 13  2  0
 13 14  1  0
 15 14  1  0
 16 12  1  0
 16 15  2  0
  6 17  1  0
  8 18  1  0
 10 19  1  0
 13 20  1  0
 15 21  1  0
M  ISO  5  17  14  18  14  19  14  20  14  21  14
M  END
>  <minimizedAffinity>  (1) 
-4.42095804

>  <minimizedRMSD>  (1) 
6.75561619

$$$$
