
     RDKit          3D

 28 30  0  0  0  0  0  0  0  0999 V2000
   39.4980   32.3730   39.6150 C   0  0  0  0  0  0  0  0  0  0  0  0
   38.3880   32.8970   40.1850 N   0  0  0  0  0  0  0  0  0  0  0  0
   37.7320   31.8980   40.7540 O   0  0  0  0  0  0  0  0  0  0  0  0
   38.3720   30.7570   40.5770 C   0  0  0  0  0  0  0  0  0  0  0  0
   39.4880   31.0350   39.8600 N   0  0  0  0  0  0  0  0  0  0  0  0
   37.9800   29.4730   41.0400 N   0  0  0  0  0  0  0  0  0  0  0  0
   36.6260   29.2640   41.5030 C   0  0  0  0  0  0  0  0  0  0  0  0
   36.5240   27.7870   41.8380 C   0  0  0  0  0  0  0  0  0  0  0  0
   37.4950   27.5280   42.8140 O   0  0  0  0  0  0  0  0  0  0  0  0
   38.7640   27.5140   42.2770 C   0  0  0  0  0  0  0  0  0  0  0  0
   38.9140   28.3900   41.0520 C   0  0  0  0  0  0  0  0  0  0  0  0
   41.1990   32.5260   37.7240 C   0  0  0  0  0  0  0  0  0  0  0  0
   40.5670   33.0350   38.8580 C   0  0  0  0  0  0  0  0  0  0  0  0
   40.9550   34.2880   39.3560 C   0  0  0  0  0  0  0  0  0  0  0  0
   41.9500   34.9700   38.7030 N   0  0  0  0  0  0  0  0  0  0  0  0
   42.5380   34.4390   37.6020 C   0  0  0  0  0  0  0  0  0  0  0  0
   42.1560   33.2230   37.1260 N   0  0  0  0  0  0  0  0  0  0  0  0
   36.4290   29.8736   42.3972 H   0  0  0  0  0  0  0  0  0  0  0  0
   35.8889   29.5570   40.7409 H   0  0  0  0  0  0  0  0  0  0  0  0
   35.5223   27.5551   42.2288 H   0  0  0  0  0  0  0  0  0  0  0  0
   36.6856   27.1663   40.9443 H   0  0  0  0  0  0  0  0  0  0  0  0
   39.4699   27.8652   43.0440 H   0  0  0  0  0  0  0  0  0  0  0  0
   38.9689   26.4804   41.9611 H   0  0  0  0  0  0  0  0  0  0  0  0
   38.7526   27.7740   40.1550 H   0  0  0  0  0  0  0  0  0  0  0  0
   39.9265   28.8197   41.0682 H   0  0  0  0  0  0  0  0  0  0  0  0
   40.9033   31.5446   37.3246 H   0  0  0  0  0  0  0  0  0  0  0  0
   40.4729   34.7132   40.2486 H   0  0  0  0  0  0  0  0  0  0  0  0
   43.3334   34.9983   37.0877 H   0  0  0  0  0  0  0  0  0  0  0  0
  1  5  1  0
  1  2  2  0
  2  3  1  0
  4  3  1  0
  4  6  1  0
  5  4  2  0
  6 11  1  0
  6  7  1  0
  7  8  1  0
  8  9  1  0
 10  9  1  0
 11 10  1  0
 12 13  2  0
 13 14  1  0
 13  1  1  0
 15 14  2  0
 16 15  1  0
 17 16  2  0
 17 12  1  0
  7 18  1  0
  7 19  1  0
  8 20  1  0
  8 21  1  0
 10 22  1  0
 10 23  1  0
 11 24  1  0
 11 25  1  0
 12 26  1  0
 14 27  1  0
 16 28  1  0
M  ISO  8  18  13  19  13  20  13  21  13  22  13  23  13  24  13  25  13
M  ISO  3  26  14  27  14  28  14
M  END
>  <minimizedAffinity>  (1) 
-4.40643024

>  <minimizedRMSD>  (1) 
6.86763477

$$$$
