
     RDKit          3D

 21 23  0  0  0  0  0  0  0  0999 V2000
   39.1700   31.5010   40.5750 C   0  0  0  0  0  0  0  0  0  0  0  0
   38.5640   30.7940   39.5810 N   0  0  0  0  0  0  0  0  0  0  0  0
   37.9150   29.8030   40.1510 O   0  0  0  0  0  0  0  0  0  0  0  0
   38.0610   29.8220   41.4450 C   0  0  0  0  0  0  0  0  0  0  0  0
   38.8510   30.8890   41.7180 N   0  0  0  0  0  0  0  0  0  0  0  0
   37.5070   28.9110   42.3840 N   0  0  0  0  0  0  0  0  0  0  0  0
   37.9110   28.7500   43.6390 C   0  0  0  0  0  0  0  0  0  0  0  0
   37.1600   27.7950   44.2560 N   0  0  0  0  0  0  0  0  0  0  0  0
   36.3020   27.4120   43.2940 C   0  0  0  0  0  0  0  0  0  0  0  0
   36.5020   28.0790   42.1570 N   0  0  0  0  0  0  0  0  0  0  0  0
   41.3800   32.7350   40.7760 C   0  0  0  0  0  0  0  0  0  0  0  0
   40.0080   32.6950   40.4400 C   0  0  0  0  0  0  0  0  0  0  0  0
   39.3890   33.8510   39.9470 C   0  0  0  0  0  0  0  0  0  0  0  0
   40.1390   34.9860   39.8070 N   0  0  0  0  0  0  0  0  0  0  0  0
   41.4620   34.9880   40.1430 C   0  0  0  0  0  0  0  0  0  0  0  0
   42.0680   33.8710   40.6220 N   0  0  0  0  0  0  0  0  0  0  0  0
   38.7331   29.3071   44.1120 H   0  0  0  0  0  0  0  0  0  0  0  0
   35.5286   26.6415   43.4288 H   0  0  0  0  0  0  0  0  0  0  0  0
   41.8801   31.8348   41.1628 H   0  0  0  0  0  0  0  0  0  0  0  0
   38.3224   33.8459   39.6782 H   0  0  0  0  0  0  0  0  0  0  0  0
   42.0480   35.9112   40.0236 H   0  0  0  0  0  0  0  0  0  0  0  0
  1  5  1  0
  2  3  1  0
  2  1  2  0
  3  4  1  0
  4  5  2  0
  4  6  1  0
  6  7  1  0
  7  8  2  0
  9  8  1  0
 10  6  1  0
 10  9  2  0
 12  1  1  0
 12 11  2  0
 13 12  1  0
 14 13  2  0
 14 15  1  0
 15 16  2  0
 16 11  1  0
  7 17  1  0
  9 18  1  0
 11 19  1  0
 13 20  1  0
 15 21  1  0
M  ISO  5  17  14  18  14  19  14  20  14  21  14
M  END
>  <minimizedAffinity>  (1) 
-4.40257502

>  <minimizedRMSD>  (1) 
5.83500481

$$$$
