
     RDKit          3D

 22 24  0  0  0  0  0  0  0  0999 V2000
   39.1750   31.0280   41.7340 C   0  0  0  0  0  0  0  0  0  0  0  0
   38.1470   30.0920   41.9850 C   0  0  0  0  0  0  0  0  0  0  0  0
   36.8990   30.3180   41.4070 C   0  0  0  0  0  0  0  0  0  0  0  0
   36.7260   31.4390   40.6210 N   0  0  0  0  0  0  0  0  0  0  0  0
   37.7370   32.3090   40.4070 C   0  0  0  0  0  0  0  0  0  0  0  0
   38.9630   32.0990   40.9670 N   0  0  0  0  0  0  0  0  0  0  0  0
   38.2730   28.9010   42.8010 C   0  0  0  0  0  0  0  0  0  0  0  0
   37.4470   28.4320   43.7640 N   0  0  0  0  0  0  0  0  0  0  0  0
   37.9670   27.3120   44.2360 O   0  0  0  0  0  0  0  0  0  0  0  0
   39.0840   27.0310   43.6280 C   0  0  0  0  0  0  0  0  0  0  0  0
   39.2950   28.0210   42.7190 N   0  0  0  0  0  0  0  0  0  0  0  0
   40.0260   25.9050   43.7940 C   0  0  0  0  0  0  0  0  0  0  0  0
   39.6700   24.5720   43.1830 C   0  0  0  0  0  0  0  0  0  0  0  0
   40.7620   25.4160   42.6210 C   0  0  0  0  0  0  0  0  0  0  0  0
   40.1686   30.8709   42.1791 H   0  0  0  0  0  0  0  0  0  0  0  0
   36.0683   29.6166   41.5741 H   0  0  0  0  0  0  0  0  0  0  0  0
   37.5702   33.1943   39.7758 H   0  0  0  0  0  0  0  0  0  0  0  0
   40.3102   26.2517   44.7985 H   0  0  0  0  0  0  0  0  0  0  0  0
   39.9089   23.6383   43.7133 H   0  0  0  0  0  0  0  0  0  0  0  0
   38.7539   24.1077   42.7891 H   0  0  0  0  0  0  0  0  0  0  0  0
   41.8092   25.0965   42.7273 H   0  0  0  0  0  0  0  0  0  0  0  0
   40.9828   25.8262   41.6245 H   0  0  0  0  0  0  0  0  0  0  0  0
  1  2  2  0
  2  7  1  0
  3  2  1  0
  4  3  2  0
  5  4  1  0
  5  6  2  0
  6  1  1  0
  7  8  2  0
  8  9  1  0
 10 12  1  0
 10  9  1  0
 11  7  1  0
 11 10  2  0
 13 12  1  0
 14 13  1  0
 14 12  1  0
  1 15  1  0
  3 16  1  0
  5 17  1  0
 12 18  1  0
 13 19  1  0
 13 20  1  0
 14 21  1  0
 14 22  1  0
M  ISO  8  15  14  16  14  17  14  18  13  19  13  20  13  21  13  22  13
M  END
>  <minimizedAffinity>  (1) 
-4.2697072

>  <minimizedRMSD>  (1) 
2.25184536

$$$$
