
     RDKit          3D

 18 19  0  0  0  0  0  0  0  0999 V2000
   38.3020   29.6570   42.0550 C   0  0  0  0  0  0  0  0  0  0  0  0
   38.0250   28.3070   42.2660 C   0  0  0  0  0  0  0  0  0  0  0  0
   36.7820   27.8140   41.8500 C   0  0  0  0  0  0  0  0  0  0  0  0
   35.9000   28.6760   41.2560 N   0  0  0  0  0  0  0  0  0  0  0  0
   36.2110   29.9780   41.0710 C   0  0  0  0  0  0  0  0  0  0  0  0
   37.4170   30.4650   41.4730 N   0  0  0  0  0  0  0  0  0  0  0  0
   38.9310   27.3550   42.8930 C   0  0  0  0  0  0  0  0  0  0  0  0
   38.7590   26.0190   43.0820 N   0  0  0  0  0  0  0  0  0  0  0  0
   39.8340   25.5590   43.6900 O   0  0  0  0  0  0  0  0  0  0  0  0
   40.6880   26.5200   43.9010 C   0  0  0  0  0  0  0  0  0  0  0  0
   40.1340   27.6540   43.4050 N   0  0  0  0  0  0  0  0  0  0  0  0
   41.9850   26.5310   44.5180 C   0  0  0  0  0  0  0  0  0  0  0  0
   43.0530   26.0980   43.9880 O   0  0  0  0  0  0  0  0  0  0  0  0
   42.2560   27.0200   45.7900 O   0  0  0  0  0  0  0  0  0  0  0  0
   39.2723   30.0638   42.3760 H   0  0  0  0  0  0  0  0  0  0  0  0
   36.5198   26.7559   41.9975 H   0  0  0  0  0  0  0  0  0  0  0  0
   35.4837   30.6498   40.5917 H   0  0  0  0  0  0  0  0  0  0  0  0
   43.1798   26.9918   46.1447 H   0  0  0  0  0  0  0  0  0  0  0  0
  1  2  2  0
  2  7  1  0
  3  2  1  0
  4  3  2  0
  5  4  1  0
  5  6  2  0
  6  1  1  0
  7  8  2  0
  7 11  1  0
  8  9  1  0
  9 10  1  0
 10 12  1  0
 11 10  2  0
 12 14  1  0
 13 12  2  0
  1 15  1  0
  3 16  1  0
  5 17  1  0
 14 18  1  0
M  ISO  4  15  14  16  14  17  14  18   3
M  END
>  <minimizedAffinity>  (1) 
-4.05348587

>  <minimizedRMSD>  (1) 
0.592630863

$$$$
