
     RDKit          3D

 21 22  0  0  0  0  0  0  0  0999 V2000
   38.2910   29.9060   42.2470 C   0  0  0  0  0  0  0  0  0  0  0  0
   37.3890   30.3790   41.2830 C   0  0  0  0  0  0  0  0  0  0  0  0
   36.3030   29.5700   40.9700 C   0  0  0  0  0  0  0  0  0  0  0  0
   36.1560   28.3580   41.6040 N   0  0  0  0  0  0  0  0  0  0  0  0
   37.0490   27.9440   42.5250 C   0  0  0  0  0  0  0  0  0  0  0  0
   38.1070   28.7220   42.8370 N   0  0  0  0  0  0  0  0  0  0  0  0
   37.4910   31.6510   40.5790 C   0  0  0  0  0  0  0  0  0  0  0  0
   36.8520   32.0580   39.4550 N   0  0  0  0  0  0  0  0  0  0  0  0
   37.2550   33.2770   39.1870 O   0  0  0  0  0  0  0  0  0  0  0  0
   38.1180   33.6850   40.0720 C   0  0  0  0  0  0  0  0  0  0  0  0
   38.2840   32.6760   40.9630 N   0  0  0  0  0  0  0  0  0  0  0  0
   38.8640   34.9620   40.2260 C   0  0  0  0  0  0  0  0  0  0  0  0
   40.3080   34.8360   39.8730 C   0  0  0  0  0  0  0  0  0  0  0  0
   39.1624   30.5188   42.5211 H   0  0  0  0  0  0  0  0  0  0  0  0
   35.5666   29.8964   40.2209 H   0  0  0  0  0  0  0  0  0  0  0  0
   36.9155   26.9720   43.0224 H   0  0  0  0  0  0  0  0  0  0  0  0
   38.4067   35.7172   39.5698 H   0  0  0  0  0  0  0  0  0  0  0  0
   38.8069   35.2524   41.2854 H   0  0  0  0  0  0  0  0  0  0  0  0
   40.9074   34.7837   40.7939 H   0  0  0  0  0  0  0  0  0  0  0  0
   40.4626   33.9210   39.2824 H   0  0  0  0  0  0  0  0  0  0  0  0
   40.6187   35.7104   39.2824 H   0  0  0  0  0  0  0  0  0  0  0  0
  1  6  2  0
  2  1  1  0
  3  2  2  0
  3  4  1  0
  4  5  2  0
  5  6  1  0
  7 11  1  0
  7  2  1  0
  8  7  2  0
  9  8  1  0
  9 10  1  0
 10 12  1  0
 10 11  2  0
 13 12  1  0
  1 14  1  0
  3 15  1  0
  5 16  1  0
 12 17  1  0
 12 18  1  0
 13 19  1  0
 13 20  1  0
 13 21  1  0
M  ISO  8  14  14  15  14  16  14  17   8  18   8  19   8  20   8  21   8
M  END
>  <minimizedAffinity>  (1) 
-3.99657011

>  <minimizedRMSD>  (1) 
6.21019411

$$$$
