
     RDKit          3D

 17 18  0  0  0  0  0  0  0  0999 V2000
   38.0160   29.8220   41.9980 C   0  0  0  0  0  0  0  0  0  0  0  0
   37.2290   30.5770   41.1170 C   0  0  0  0  0  0  0  0  0  0  0  0
   36.0220   30.0410   40.6390 C   0  0  0  0  0  0  0  0  0  0  0  0
   35.6630   28.7910   41.0590 N   0  0  0  0  0  0  0  0  0  0  0  0
   36.4530   28.0870   41.9170 C   0  0  0  0  0  0  0  0  0  0  0  0
   37.6120   28.6070   42.3720 N   0  0  0  0  0  0  0  0  0  0  0  0
   37.5570   31.9200   40.6300 C   0  0  0  0  0  0  0  0  0  0  0  0
   36.8530   32.7160   39.7670 N   0  0  0  0  0  0  0  0  0  0  0  0
   37.5360   33.8250   39.6280 O   0  0  0  0  0  0  0  0  0  0  0  0
   38.6420   33.8020   40.3450 C   0  0  0  0  0  0  0  0  0  0  0  0
   38.6630   32.6030   40.9800 N   0  0  0  0  0  0  0  0  0  0  0  0
   39.5850   34.8910   40.3800 C   0  0  0  0  0  0  0  0  0  0  0  0
   40.5040   34.8920   39.5220 O   0  0  0  0  0  0  0  0  0  0  0  0
   38.9635   30.2302   42.3796 H   0  0  0  0  0  0  0  0  0  0  0  0
   35.3844   30.6106   39.9469 H   0  0  0  0  0  0  0  0  0  0  0  0
   36.1425   27.0832   42.2426 H   0  0  0  0  0  0  0  0  0  0  0  0
   39.5038   35.6919   41.1297 H   0  0  0  0  0  0  0  0  0  0  0  0
  1  6  2  0
  2  1  1  0
  3  4  1  0
  3  2  2  0
  4  5  2  0
  5  6  1  0
  7 11  1  0
  7  2  1  0
  8  7  2  0
  9  8  1  0
  9 10  1  0
 10 12  1  0
 10 11  2  0
 13 12  2  0
  1 14  1  0
  3 15  1  0
  5 16  1  0
 12 17  1  0
M  ISO  4  14  14  15  14  16  14  17   6
M  END
>  <minimizedAffinity>  (1) 
-3.90377569

>  <minimizedRMSD>  (1) 
6.25762463

$$$$
