
     RDKit          3D

 18 19  0  0  0  0  0  0  0  0999 V2000
   37.8920   29.8870   41.9110 C   0  0  0  0  0  0  0  0  0  0  0  0
   37.6770   28.5100   42.0530 C   0  0  0  0  0  0  0  0  0  0  0  0
   36.5050   27.9650   41.5210 C   0  0  0  0  0  0  0  0  0  0  0  0
   35.6220   28.8030   40.8840 N   0  0  0  0  0  0  0  0  0  0  0  0
   35.8670   30.1320   40.7670 C   0  0  0  0  0  0  0  0  0  0  0  0
   37.0100   30.6670   41.2860 N   0  0  0  0  0  0  0  0  0  0  0  0
   38.5810   27.5790   42.7190 C   0  0  0  0  0  0  0  0  0  0  0  0
   38.4420   26.2520   42.9190 N   0  0  0  0  0  0  0  0  0  0  0  0
   39.5170   25.8270   43.5690 O   0  0  0  0  0  0  0  0  0  0  0  0
   40.3350   26.8140   43.7960 C   0  0  0  0  0  0  0  0  0  0  0  0
   39.7700   27.9280   43.2710 N   0  0  0  0  0  0  0  0  0  0  0  0
   41.6390   26.7110   44.5000 C   0  0  0  0  0  0  0  0  0  0  0  0
   38.8082   30.3341   42.3241 H   0  0  0  0  0  0  0  0  0  0  0  0
   36.2943   26.8891   41.6103 H   0  0  0  0  0  0  0  0  0  0  0  0
   35.1424   30.7802   40.2524 H   0  0  0  0  0  0  0  0  0  0  0  0
   41.4709   26.7243   45.5870 H   0  0  0  0  0  0  0  0  0  0  0  0
   42.1351   25.7709   44.2172 H   0  0  0  0  0  0  0  0  0  0  0  0
   42.2766   27.5616   44.2172 H   0  0  0  0  0  0  0  0  0  0  0  0
  1  2  2  0
  2  7  1  0
  3  2  1  0
  4  3  2  0
  5  4  1  0
  5  6  2  0
  6  1  1  0
  7  8  2  0
  7 11  1  0
  8  9  1  0
  9 10  1  0
 10 12  1  0
 11 10  2  0
  1 13  1  0
  3 14  1  0
  5 15  1  0
 12 16  1  0
 12 17  1  0
 12 18  1  0
M  ISO  6  13  14  14  14  15  14  16   8  17   8  18   8
M  END
>  <minimizedAffinity>  (1) 
-3.64436603

>  <minimizedRMSD>  (1) 
0.254270762

$$$$
