
     RDKit          3D

 16 17  0  0  0  0  0  0  0  0999 V2000
   38.0700   30.0060   41.8560 C   0  0  0  0  0  0  0  0  0  0  0  0
   37.8290   28.6440   42.1510 C   0  0  0  0  0  0  0  0  0  0  0  0
   36.6370   28.0700   41.7480 C   0  0  0  0  0  0  0  0  0  0  0  0
   35.7380   28.8550   41.0750 N   0  0  0  0  0  0  0  0  0  0  0  0
   35.9930   30.1550   40.8050 C   0  0  0  0  0  0  0  0  0  0  0  0
   37.1530   30.7130   41.1980 N   0  0  0  0  0  0  0  0  0  0  0  0
   38.7550   27.7730   42.8640 C   0  0  0  0  0  0  0  0  0  0  0  0
   38.5650   26.5190   43.3190 N   0  0  0  0  0  0  0  0  0  0  0  0
   39.6790   26.1140   43.9060 O   0  0  0  0  0  0  0  0  0  0  0  0
   40.5870   27.0430   43.8550 C   0  0  0  0  0  0  0  0  0  0  0  0
   40.0260   28.1020   43.2000 N   0  0  0  0  0  0  0  0  0  0  0  0
   42.2400   26.9140   44.5280 S   0  0  0  0  0  0  0  0  0  0  0  0
   39.0120   30.4800   42.1691 H   0  0  0  0  0  0  0  0  0  0  0  0
   36.4170   27.0136   41.9616 H   0  0  0  0  0  0  0  0  0  0  0  0
   35.2502   30.7584   40.2626 H   0  0  0  0  0  0  0  0  0  0  0  0
   42.1775   26.9189   45.8966 H   0  0  0  0  0  0  0  0  0  0  0  0
  1  2  2  0
  2  7  1  0
  3  2  1  0
  4  3  2  0
  5  4  1  0
  5  6  2  0
  6  1  1  0
  7 11  1  0
  7  8  2  0
  8  9  1  0
 10  9  1  0
 10 12  1  0
 11 10  2  0
  1 13  1  0
  3 14  1  0
  5 15  1  0
 12 16  1  0
M  ISO  4  13  14  14  14  15  14  16  11
M  END
>  <minimizedAffinity>  (1) 
-3.5904882

>  <minimizedRMSD>  (1) 
0.566875756

$$$$
