
     RDKit          3D

 40 42  0  0  1  0  0  0  0  0999 V2000
   39.1950   26.1230   42.2320 C   0  0  1  0  0  0  0  0  0  0  0  0
   38.9330   24.7150   41.6180 C   0  0  0  0  0  0  0  0  0  0  0  0
   37.5660   24.3380   41.9470 C   0  0  0  0  0  0  0  0  0  0  0  0
   36.9000   25.6700   42.3610 C   0  0  0  0  0  0  0  0  0  0  0  0
   37.9750   26.3540   42.9980 C   0  0  2  0  0  0  0  0  0  0  0  0
   41.9360   26.9540   44.6780 C   0  0  0  0  0  0  0  0  0  0  0  0
   40.6970   26.9880   44.0310 C   0  0  0  0  0  0  0  0  0  0  0  0
   40.4450   26.1490   42.9440 C   0  0  0  0  0  0  0  0  0  0  0  0
   41.4410   25.3010   42.5380 N   0  0  0  0  0  0  0  0  0  0  0  0
   42.6320   25.2740   43.1660 C   0  0  0  0  0  0  0  0  0  0  0  0
   42.8860   26.0870   44.2240 N   0  0  0  0  0  0  0  0  0  0  0  0
   37.5500   27.7730   43.1820 C   0  0  2  0  0  0  0  0  0  0  0  0
   36.8030   28.0750   44.4280 C   0  0  0  0  0  0  0  0  0  0  0  0
   36.7030   28.0230   41.9750 C   0  0  0  0  0  0  0  0  0  0  0  0
   37.0090   29.3590   41.5480 N   0  0  0  0  0  0  0  0  0  0  0  0
   36.1540   30.3070   41.0930 C   0  0  0  0  0  0  0  0  0  0  0  0
   36.8470   31.4230   40.7150 C   0  0  0  0  0  0  0  0  0  0  0  0
   38.1400   31.1220   40.9560 N   0  0  0  0  0  0  0  0  0  0  0  0
   38.2400   29.8790   41.4570 C   0  0  0  0  0  0  0  0  0  0  0  0
   39.5470   29.5880   41.6900 O   0  0  0  0  0  0  0  0  0  0  0  0
   39.3489   26.9485   41.5215 H   0  0  0  0  0  0  0  0  0  0  0  0
   39.6363   23.9838   42.0431 H   0  0  0  0  0  0  0  0  0  0  0  0
   39.0756   24.7368   40.5275 H   0  0  0  0  0  0  0  0  0  0  0  0
   37.0594   23.9026   41.0731 H   0  0  0  0  0  0  0  0  0  0  0  0
   37.5159   23.5757   42.7385 H   0  0  0  0  0  0  0  0  0  0  0  0
   36.5374   26.2251   41.4833 H   0  0  0  0  0  0  0  0  0  0  0  0
   36.0145   25.5426   43.0010 H   0  0  0  0  0  0  0  0  0  0  0  0
   38.2160   25.9836   44.0053 H   0  0  0  0  0  0  0  0  0  0  0  0
   42.1403   27.6126   45.5351 H   0  0  0  0  0  0  0  0  0  0  0  0
   39.9164   27.6797   44.3804 H   0  0  0  0  0  0  0  0  0  0  0  0
   43.4122   24.5819   42.8163 H   0  0  0  0  0  0  0  0  0  0  0  0
   38.4310   28.4238   43.2837 H   0  0  0  0  0  0  0  0  0  0  0  0
   37.4258   27.8232   45.2991 H   0  0  0  0  0  0  0  0  0  0  0  0
   36.5514   29.1455   44.4543 H   0  0  0  0  0  0  0  0  0  0  0  0
   35.8781   27.4802   44.4543 H   0  0  0  0  0  0  0  0  0  0  0  0
   36.9471   27.3023   41.1806 H   0  0  0  0  0  0  0  0  0  0  0  0
   35.6329   27.9073   42.2021 H   0  0  0  0  0  0  0  0  0  0  0  0
   35.0612   30.1947   41.0361 H   0  0  0  0  0  0  0  0  0  0  0  0
   36.4405   32.3593   40.3050 H   0  0  0  0  0  0  0  0  0  0  0  0
   39.7990   28.7058   42.0619 H   0  0  0  0  0  0  0  0  0  0  0  0
  1  8  1  0
  1  5  1  0
  2  3  1  0
  2  1  1  0
  3  4  1  0
  4  5  1  0
  5 12  1  0
  7  6  2  0
  8  7  1  0
  9  8  2  0
  9 10  1  0
 10 11  2  0
 11  6  1  0
 12 13  1  0
 14 12  1  0
 15 14  1  0
 16 15  1  0
 17 18  1  0
 17 16  2  0
 18 19  2  0
 19 15  1  0
 19 20  1  0
  1 21  1  6
  2 22  1  0
  2 23  1  0
  3 24  1  0
  3 25  1  0
  4 26  1  0
  4 27  1  0
  5 28  1  1
  6 29  1  0
  7 30  1  0
 10 31  1  0
 12 32  1  6
 13 33  1  0
 13 34  1  0
 13 35  1  0
 14 36  1  0
 14 37  1  0
 16 38  1  0
 17 39  1  0
 20 40  1  0
M  ISO  8  21  13  22  13  23  13  24  13  25  13  26  13  27  13  28  13
M  ISO  8  29  14  30  14  31  14  32   8  33   8  34   8  35   8  36   8
M  ISO  4  37   8  38  14  39  14  40   3
M  END
>  <minimizedAffinity>  (1) 
-5.35976982

>  <minimizedRMSD>  (1) 
0.113433428

$$$$
