
     RDKit          3D

 40 43  0  0  0  0  0  0  0  0999 V2000
   37.0440   29.7560   40.5800 C   0  0  0  0  0  0  0  0  0  0  0  0
   36.0120   30.5990   40.7100 N   0  0  0  0  0  0  0  0  0  0  0  0
   36.4680   31.8310   40.6500 O   0  0  0  0  0  0  0  0  0  0  0  0
   37.7630   31.8250   40.4840 C   0  0  0  0  0  0  0  0  0  0  0  0
   38.1440   30.5310   40.4380 N   0  0  0  0  0  0  0  0  0  0  0  0
   38.7290   32.8560   40.3600 N   0  0  0  0  0  0  0  0  0  0  0  0
   40.0000   32.5060   40.6710 C   0  0  0  0  0  0  0  0  0  0  0  0
   41.0170   33.4350   40.5820 C   0  0  0  0  0  0  0  0  0  0  0  0
   40.6250   34.7030   40.1610 C   0  0  0  0  0  0  0  0  0  0  0  0
   41.5230   35.5800   40.0650 O   0  0  0  0  0  0  0  0  0  0  0  0
   39.3540   35.0290   39.8550 N   0  0  0  0  0  0  0  0  0  0  0  0
   38.4040   34.0910   39.9580 C   0  0  0  0  0  0  0  0  0  0  0  0
   37.2070   34.3610   39.6820 O   0  0  0  0  0  0  0  0  0  0  0  0
   37.6440   27.4710   41.5700 C   0  0  0  0  0  0  0  0  0  0  0  0
   37.0900   28.2850   40.5770 C   0  0  0  0  0  0  0  0  0  0  0  0
   36.4990   27.7000   39.4350 C   0  0  0  0  0  0  0  0  0  0  0  0
   36.5180   26.3130   39.3930 N   0  0  0  0  0  0  0  0  0  0  0  0
   37.0650   25.5780   40.3760 C   0  0  0  0  0  0  0  0  0  0  0  0
   37.6210   26.1500   41.4530 N   0  0  0  0  0  0  0  0  0  0  0  0
   37.0490   24.1560   40.2660 N   0  0  0  0  0  0  0  0  0  0  0  0
   35.7690   23.4630   40.1690 C   0  0  0  0  0  0  0  0  0  0  0  0
   35.9020   22.5030   38.9930 C   0  0  0  0  0  0  0  0  0  0  0  0
   36.9750   21.4920   39.2740 C   0  0  0  0  0  0  0  0  0  0  0  0
   37.9770   21.9270   40.2940 C   0  0  0  0  0  0  0  0  0  0  0  0
   38.2900   23.4060   40.2480 C   0  0  0  0  0  0  0  0  0  0  0  0
   40.2223   31.4787   40.9954 H   0  0  0  0  0  0  0  0  0  0  0  0
   42.0615   33.1913   40.8260 H   0  0  0  0  0  0  0  0  0  0  0  0
   39.1173   35.9830   39.5472 H   0  0  0  0  0  0  0  0  0  0  0  0
   38.1036   27.9310   42.4572 H   0  0  0  0  0  0  0  0  0  0  0  0
   36.0529   28.3044   38.6315 H   0  0  0  0  0  0  0  0  0  0  0  0
   35.5638   22.9069   41.0956 H   0  0  0  0  0  0  0  0  0  0  0  0
   34.9378   24.1685   40.0225 H   0  0  0  0  0  0  0  0  0  0  0  0
   36.1641   23.0702   38.0877 H   0  0  0  0  0  0  0  0  0  0  0  0
   34.9452   21.9815   38.8428 H   0  0  0  0  0  0  0  0  0  0  0  0
   36.4944   20.5704   39.6342 H   0  0  0  0  0  0  0  0  0  0  0  0
   37.5257   21.3468   38.3329 H   0  0  0  0  0  0  0  0  0  0  0  0
   37.5828   21.6865   41.2924 H   0  0  0  0  0  0  0  0  0  0  0  0
   38.9132   21.3937   40.0722 H   0  0  0  0  0  0  0  0  0  0  0  0
   38.8458   23.6361   39.3271 H   0  0  0  0  0  0  0  0  0  0  0  0
   38.9017   23.6819   41.1196 H   0  0  0  0  0  0  0  0  0  0  0  0
  1  2  2  0
  3  2  1  0
  4  3  1  0
  5  4  2  0
  5  1  1  0
  6  4  1  0
  6  7  1  0
  8  7  2  0
  9  8  1  0
 10  9  2  0
 11 12  1  0
 11  9  1  0
 12  6  1  0
 13 12  2  0
 15  1  1  0
 15 14  2  0
 16 15  1  0
 17 16  2  0
 17 18  1  0
 18 19  2  0
 19 14  1  0
 20 18  1  0
 21 20  1  0
 22 23  1  0
 22 21  1  0
 23 24  1  0
 25 20  1  0
 25 24  1  0
  7 26  1  0
  8 27  1  0
 11 28  1  0
 14 29  1  0
 16 30  1  0
 21 31  1  0
 21 32  1  0
 22 33  1  0
 22 34  1  0
 23 35  1  0
 23 36  1  0
 24 37  1  0
 24 38  1  0
 25 39  1  0
 25 40  1  0
M  ISO  8  26  14  27  14  28   9  29  14  30  14  31  13  32  13  33  13
M  ISO  7  34  13  35  13  36  13  37  13  38  13  39  13  40  13
M  END
>  <minimizedAffinity>  (1) 
-6.23926449

>  <minimizedRMSD>  (1) 
8.85022259

$$$$
