
     RDKit          3D

 36 40  0  0  0  0  0  0  0  0999 V2000
   39.9030   30.3640   41.9160 C   0  0  0  0  0  0  0  0  0  0  0  0
   38.7370   29.9970   41.2660 C   0  0  0  0  0  0  0  0  0  0  0  0
   38.1220   30.9120   40.3830 C   0  0  0  0  0  0  0  0  0  0  0  0
   38.7520   32.1320   40.2370 N   0  0  0  0  0  0  0  0  0  0  0  0
   39.8850   32.4400   40.8920 C   0  0  0  0  0  0  0  0  0  0  0  0
   40.4580   31.5630   41.7260 N   0  0  0  0  0  0  0  0  0  0  0  0
   40.4700   33.7210   40.6850 N   0  0  0  0  0  0  0  0  0  0  0  0
   41.8170   33.8150   40.8110 C   0  0  0  0  0  0  0  0  0  0  0  0
   42.1970   35.0960   40.5810 N   0  0  0  0  0  0  0  0  0  0  0  0
   41.0940   35.8180   40.3070 C   0  0  0  0  0  0  0  0  0  0  0  0
   40.7540   37.1200   39.9950 C   0  0  0  0  0  0  0  0  0  0  0  0
   39.4700   37.4770   39.7790 N   0  0  0  0  0  0  0  0  0  0  0  0
   38.4750   36.5770   39.8620 C   0  0  0  0  0  0  0  0  0  0  0  0
   38.7460   35.2800   40.1660 N   0  0  0  0  0  0  0  0  0  0  0  0
   40.0230   34.9330   40.3790 C   0  0  0  0  0  0  0  0  0  0  0  0
   38.0270   28.7150   41.3850 C   0  0  0  0  0  0  0  0  0  0  0  0
   36.8400   28.4110   41.9310 N   0  0  0  0  0  0  0  0  0  0  0  0
   36.6350   27.1300   41.7940 O   0  0  0  0  0  0  0  0  0  0  0  0
   37.6410   26.5700   41.1770 C   0  0  0  0  0  0  0  0  0  0  0  0
   38.5250   27.5480   40.9130 N   0  0  0  0  0  0  0  0  0  0  0  0
   37.9140   25.2280   40.7850 N   0  0  0  0  0  0  0  0  0  0  0  0
   38.7820   25.1030   39.7540 C   0  0  0  0  0  0  0  0  0  0  0  0
   39.1200   23.8460   39.2920 C   0  0  0  0  0  0  0  0  0  0  0  0
   38.5070   22.7800   39.9620 C   0  0  0  0  0  0  0  0  0  0  0  0
   38.7820   21.6100   39.5760 O   0  0  0  0  0  0  0  0  0  0  0  0
   37.6470   22.9400   40.9860 N   0  0  0  0  0  0  0  0  0  0  0  0
   37.3510   24.1830   41.3980 C   0  0  0  0  0  0  0  0  0  0  0  0
   36.5550   24.3720   42.3470 O   0  0  0  0  0  0  0  0  0  0  0  0
   40.3825   29.6521   42.6039 H   0  0  0  0  0  0  0  0  0  0  0  0
   37.1954   30.6670   39.8432 H   0  0  0  0  0  0  0  0  0  0  0  0
   42.4936   32.9842   41.0601 H   0  0  0  0  0  0  0  0  0  0  0  0
   41.5449   37.8809   39.9211 H   0  0  0  0  0  0  0  0  0  0  0  0
   37.4362   36.8916   39.6830 H   0  0  0  0  0  0  0  0  0  0  0  0
   39.2164   25.9987   39.2860 H   0  0  0  0  0  0  0  0  0  0  0  0
   39.8204   23.6932   38.4577 H   0  0  0  0  0  0  0  0  0  0  0  0
   37.2230   22.1216   41.4458 H   0  0  0  0  0  0  0  0  0  0  0  0
  2 16  1  0
  2  1  2  0
  3  2  1  0
  4  3  2  0
  4  5  1  0
  5  6  2  0
  6  1  1  0
  7  8  1  0
  7  5  1  0
  9  8  2  0
 10 15  2  0
 10  9  1  0
 11 10  1  0
 12 13  1  0
 12 11  2  0
 13 14  2  0
 14 15  1  0
 15  7  1  0
 16 17  2  0
 18 17  1  0
 19 18  1  0
 20 19  2  0
 20 16  1  0
 21 19  1  0
 21 27  1  0
 22 21  1  0
 23 22  2  0
 23 24  1  0
 24 26  1  0
 25 24  2  0
 26 27  1  0
 27 28  2  0
  1 29  1  0
  3 30  1  0
  8 31  1  0
 11 32  1  0
 13 33  1  0
 22 34  1  0
 23 35  1  0
 26 36  1  0
M  ISO  8  29  14  30  14  31  14  32  14  33  14  34  14  35  14  36   9
M  END
>  <minimizedAffinity>  (1) 
-6.23330021

>  <minimizedRMSD>  (1) 
4.73261118

$$$$
