
     RDKit          3D

 35 38  0  0  0  0  0  0  0  0999 V2000
   42.6000   31.4920   41.3000 C   0  0  0  0  0  0  0  0  0  0  0  0
   42.2880   30.5690   42.3150 C   0  0  0  0  0  0  0  0  0  0  0  0
   40.9510   30.4160   42.7500 C   0  0  0  0  0  0  0  0  0  0  0  0
   40.0120   31.2130   42.1230 N   0  0  0  0  0  0  0  0  0  0  0  0
   40.3770   32.0860   41.1480 C   0  0  0  0  0  0  0  0  0  0  0  0
   41.6430   32.2290   40.7380 N   0  0  0  0  0  0  0  0  0  0  0  0
   39.3410   32.8810   40.5430 N   0  0  0  0  0  0  0  0  0  0  0  0
   38.1900   32.2760   40.1560 C   0  0  0  0  0  0  0  0  0  0  0  0
   37.1760   33.0340   39.5660 C   0  0  0  0  0  0  0  0  0  0  0  0
   37.4270   34.3840   39.4180 C   0  0  0  0  0  0  0  0  0  0  0  0
   36.5120   35.0680   38.8870 O   0  0  0  0  0  0  0  0  0  0  0  0
   38.5610   35.0030   39.7960 N   0  0  0  0  0  0  0  0  0  0  0  0
   39.5080   34.2020   40.3640 C   0  0  0  0  0  0  0  0  0  0  0  0
   40.5820   34.7600   40.7270 O   0  0  0  0  0  0  0  0  0  0  0  0
   43.2480   29.6990   42.9900 C   0  0  0  0  0  0  0  0  0  0  0  0
   44.4190   29.2130   42.5620 N   0  0  0  0  0  0  0  0  0  0  0  0
   44.9390   28.4840   43.5160 O   0  0  0  0  0  0  0  0  0  0  0  0
   44.1510   28.4670   44.5690 C   0  0  0  0  0  0  0  0  0  0  0  0
   43.0910   29.2270   44.2460 N   0  0  0  0  0  0  0  0  0  0  0  0
   44.2400   27.8460   45.8390 N   0  0  0  0  0  0  0  0  0  0  0  0
   43.4820   28.4140   46.8080 C   0  0  0  0  0  0  0  0  0  0  0  0
   43.5040   27.8790   48.0820 C   0  0  0  0  0  0  0  0  0  0  0  0
   44.3230   26.7790   48.2520 C   0  0  0  0  0  0  0  0  0  0  0  0
   44.3650   26.2640   49.4050 O   0  0  0  0  0  0  0  0  0  0  0  0
   45.0760   26.2220   47.2630 N   0  0  0  0  0  0  0  0  0  0  0  0
   45.0170   26.7810   46.0520 C   0  0  0  0  0  0  0  0  0  0  0  0
   45.6970   26.3000   45.1080 O   0  0  0  0  0  0  0  0  0  0  0  0
   43.6424   31.6060   40.9678 H   0  0  0  0  0  0  0  0  0  0  0  0
   40.6745   29.7039   43.5415 H   0  0  0  0  0  0  0  0  0  0  0  0
   38.0561   31.1945   40.3060 H   0  0  0  0  0  0  0  0  0  0  0  0
   36.2293   32.5805   39.2372 H   0  0  0  0  0  0  0  0  0  0  0  0
   38.7042   36.0146   39.6650 H   0  0  0  0  0  0  0  0  0  0  0  0
   42.8566   29.2905   46.5832 H   0  0  0  0  0  0  0  0  0  0  0  0
   42.9093   28.3006   48.9058 H   0  0  0  0  0  0  0  0  0  0  0  0
   45.6693   25.3995   47.4429 H   0  0  0  0  0  0  0  0  0  0  0  0
  1  2  2  0
  2  3  1  0
  2 15  1  0
  4  3  2  0
  5  4  1  0
  6  5  2  0
  6  1  1  0
  7  5  1  0
  8  7  1  0
  9  8  2  0
 10  9  1  0
 10 12  1  0
 11 10  2  0
 12 13  1  0
 13  7  1  0
 13 14  2  0
 15 19  1  0
 16 15  2  0
 16 17  1  0
 17 18  1  0
 18 20  1  0
 19 18  2  0
 20 26  1  0
 20 21  1  0
 21 22  2  0
 22 23  1  0
 23 24  2  0
 25 23  1  0
 26 25  1  0
 27 26  2  0
  1 28  1  0
  3 29  1  0
  8 30  1  0
  9 31  1  0
 12 32  1  0
 21 33  1  0
 22 34  1  0
 25 35  1  0
M  ISO  8  28  14  29  14  30  14  31  14  32   9  33  14  34  14  35   9
M  END
>  <minimizedAffinity>  (1) 
-6.09922361

>  <minimizedRMSD>  (1) 
4.35731649

$$$$
