
     RDKit          3D

 34 36  0  0  0  0  0  0  0  0999 V2000
   38.1140   31.3590   41.0220 C   0  0  0  0  0  0  0  0  0  0  0  0
   36.7980   31.1090   41.0080 N   0  0  0  0  0  0  0  0  0  0  0  0
   36.6170   29.8380   41.2920 O   0  0  0  0  0  0  0  0  0  0  0  0
   37.7730   29.2460   41.4910 C   0  0  0  0  0  0  0  0  0  0  0  0
   38.7200   30.1880   41.3260 N   0  0  0  0  0  0  0  0  0  0  0  0
   38.1260   27.9140   41.8180 N   0  0  0  0  0  0  0  0  0  0  0  0
   39.3780   27.5560   41.4580 C   0  0  0  0  0  0  0  0  0  0  0  0
   39.8240   26.2770   41.7290 C   0  0  0  0  0  0  0  0  0  0  0  0
   38.9040   25.4430   42.3760 C   0  0  0  0  0  0  0  0  0  0  0  0
   39.2730   24.2630   42.6440 O   0  0  0  0  0  0  0  0  0  0  0  0
   37.6520   25.8340   42.7250 N   0  0  0  0  0  0  0  0  0  0  0  0
   37.2710   27.0860   42.4380 C   0  0  0  0  0  0  0  0  0  0  0  0
   36.1240   27.4830   42.7430 O   0  0  0  0  0  0  0  0  0  0  0  0
   40.2460   32.7600   40.8020 C   0  0  0  0  0  0  0  0  0  0  0  0
   38.8570   32.6060   40.7740 C   0  0  0  0  0  0  0  0  0  0  0  0
   38.0330   33.7160   40.4860 C   0  0  0  0  0  0  0  0  0  0  0  0
   38.6890   34.9110   40.2460 N   0  0  0  0  0  0  0  0  0  0  0  0
   40.0280   35.0100   40.2840 C   0  0  0  0  0  0  0  0  0  0  0  0
   40.8000   33.9510   40.5590 N   0  0  0  0  0  0  0  0  0  0  0  0
   40.5810   36.3660   40.0030 C   0  0  0  0  0  0  0  0  0  0  0  0
   39.4520   37.3540   39.8920 C   0  0  0  0  0  0  0  0  0  0  0  0
   41.3820   36.7490   41.2430 C   0  0  0  0  0  0  0  0  0  0  0  0
   40.0371   28.2774   40.9530 H   0  0  0  0  0  0  0  0  0  0  0  0
   40.8335   25.9368   41.4551 H   0  0  0  0  0  0  0  0  0  0  0  0
   37.0098   25.1834   43.1994 H   0  0  0  0  0  0  0  0  0  0  0  0
   40.8872   31.8946   41.0256 H   0  0  0  0  0  0  0  0  0  0  0  0
   36.9364   33.6359   40.4543 H   0  0  0  0  0  0  0  0  0  0  0  0
   41.1756   36.3675   39.0776 H   0  0  0  0  0  0  0  0  0  0  0  0
   39.1192   37.6452   40.8992 H   0  0  0  0  0  0  0  0  0  0  0  0
   39.7971   38.2455   39.3478 H   0  0  0  0  0  0  0  0  0  0  0  0
   38.6141   36.8937   39.3478 H   0  0  0  0  0  0  0  0  0  0  0  0
   40.8138   36.4773   42.1449 H   0  0  0  0  0  0  0  0  0  0  0  0
   42.3424   36.2127   41.2392 H   0  0  0  0  0  0  0  0  0  0  0  0
   41.5675   37.8332   41.2392 H   0  0  0  0  0  0  0  0  0  0  0  0
  1  5  1  0
  2  1  2  0
  2  3  1  0
  3  4  1  0
  4  6  1  0
  5  4  2  0
  6 12  1  0
  7  8  2  0
  7  6  1  0
  8  9  1  0
  9 10  2  0
  9 11  1  0
 12 11  1  0
 12 13  2  0
 15 14  2  0
 15  1  1  0
 16 15  1  0
 17 18  1  0
 17 16  2  0
 18 19  2  0
 19 14  1  0
 20 18  1  0
 20 22  1  0
 21 20  1  0
  7 23  1  0
  8 24  1  0
 11 25  1  0
 14 26  1  0
 16 27  1  0
 20 28  1  0
 21 29  1  0
 21 30  1  0
 21 31  1  0
 22 32  1  0
 22 33  1  0
 22 34  1  0
M  ISO  8  23  14  24  14  25   9  26  14  27  14  28   8  29   8  30   8
M  ISO  4  31   8  32   8  33   8  34   8
M  END
>  <minimizedAffinity>  (1) 
-5.98051977

>  <minimizedRMSD>  (1) 
3.32072091

$$$$
