
     RDKit          3D

 38 41  0  0  0  0  0  0  0  0999 V2000
   41.2660   29.7700   38.0640 C   0  0  0  0  0  0  0  0  0  0  0  0
   41.3390   29.2740   36.8230 N   0  0  0  0  0  0  0  0  0  0  0  0
   42.3490   29.8380   36.2100 O   0  0  0  0  0  0  0  0  0  0  0  0
   42.9550   30.6920   37.0010 C   0  0  0  0  0  0  0  0  0  0  0  0
   42.2820   30.6540   38.1630 N   0  0  0  0  0  0  0  0  0  0  0  0
   44.0690   31.5350   36.8230 N   0  0  0  0  0  0  0  0  0  0  0  0
   44.1150   32.5990   37.6560 C   0  0  0  0  0  0  0  0  0  0  0  0
   45.1540   33.4990   37.5730 C   0  0  0  0  0  0  0  0  0  0  0  0
   46.1090   33.2180   36.5890 C   0  0  0  0  0  0  0  0  0  0  0  0
   47.0910   33.9980   36.4520 O   0  0  0  0  0  0  0  0  0  0  0  0
   46.0380   32.1410   35.7630 N   0  0  0  0  0  0  0  0  0  0  0  0
   45.0000   31.2950   35.8900 C   0  0  0  0  0  0  0  0  0  0  0  0
   44.9070   30.2930   35.1440 O   0  0  0  0  0  0  0  0  0  0  0  0
   40.6360   28.7980   40.3320 C   0  0  0  0  0  0  0  0  0  0  0  0
   40.3270   29.4820   39.1530 C   0  0  0  0  0  0  0  0  0  0  0  0
   39.0190   29.9630   38.9340 C   0  0  0  0  0  0  0  0  0  0  0  0
   38.1020   29.7160   39.9350 N   0  0  0  0  0  0  0  0  0  0  0  0
   38.4470   29.0490   41.0600 C   0  0  0  0  0  0  0  0  0  0  0  0
   39.6900   28.5940   41.2620 N   0  0  0  0  0  0  0  0  0  0  0  0
   37.4370   28.8000   42.1160 C   0  0  0  0  0  0  0  0  0  0  0  0
   38.1920   28.7620   43.4480 C   0  0  0  0  0  0  0  0  0  0  0  0
   37.0990   28.2340   44.3560 C   0  0  0  0  0  0  0  0  0  0  0  0
   36.3380   27.2440   43.4970 C   0  0  0  0  0  0  0  0  0  0  0  0
   36.8190   27.4430   42.0730 C   0  0  0  0  0  0  0  0  0  0  0  0
   43.3202   32.7462   38.4021 H   0  0  0  0  0  0  0  0  0  0  0  0
   45.2281   34.3760   38.2328 H   0  0  0  0  0  0  0  0  0  0  0  0
   46.7656   31.9757   35.0529 H   0  0  0  0  0  0  0  0  0  0  0  0
   41.6576   28.4257   40.4982 H   0  0  0  0  0  0  0  0  0  0  0  0
   38.7454   30.5047   38.0165 H   0  0  0  0  0  0  0  0  0  0  0  0
   36.6679   29.5756   41.9860 H   0  0  0  0  0  0  0  0  0  0  0  0
   39.0546   28.0806   43.4088 H   0  0  0  0  0  0  0  0  0  0  0  0
   38.6295   29.7219   43.7598 H   0  0  0  0  0  0  0  0  0  0  0  0
   37.5315   27.7340   45.2352 H   0  0  0  0  0  0  0  0  0  0  0  0
   36.4528   29.0357   44.7429 H   0  0  0  0  0  0  0  0  0  0  0  0
   36.5472   26.2159   43.8276 H   0  0  0  0  0  0  0  0  0  0  0  0
   35.2527   27.4054   43.5743 H   0  0  0  0  0  0  0  0  0  0  0  0
   35.9787   27.4132   41.3637 H   0  0  0  0  0  0  0  0  0  0  0  0
   37.5141   26.6598   41.7361 H   0  0  0  0  0  0  0  0  0  0  0  0
  1  5  1  0
  1 15  1  0
  2  1  2  0
  3  2  1  0
  3  4  1  0
  4  5  2  0
  6  4  1  0
  6  7  1  0
  8  7  2  0
  9  8  1  0
 10  9  2  0
 11 12  1  0
 11  9  1  0
 12  6  1  0
 13 12  2  0
 14 19  2  0
 15 14  1  0
 16 15  2  0
 16 17  1  0
 17 18  2  0
 18 19  1  0
 18 20  1  0
 20 21  1  0
 21 22  1  0
 23 22  1  0
 24 20  1  0
 24 23  1  0
  7 25  1  0
  8 26  1  0
 11 27  1  0
 14 28  1  0
 16 29  1  0
 20 30  1  0
 21 31  1  0
 21 32  1  0
 22 33  1  0
 22 34  1  0
 23 35  1  0
 23 36  1  0
 24 37  1  0
 24 38  1  0
M  ISO  8  25  14  26  14  27   9  28  14  29  14  30  13  31  13  32  13
M  ISO  6  33  13  34  13  35  13  36  13  37  13  38  13
M  END
>  <minimizedAffinity>  (1) 
-5.92658949

>  <minimizedRMSD>  (1) 
7.88228035

$$$$
