
     RDKit          3D

 38 41  0  0  0  0  0  0  0  0999 V2000
   43.8420   29.8520   42.8700 C   0  0  0  0  0  0  0  0  0  0  0  0
   45.0160   29.2670   42.5960 N   0  0  0  0  0  0  0  0  0  0  0  0
   45.3590   28.5120   43.6140 O   0  0  0  0  0  0  0  0  0  0  0  0
   44.4420   28.5830   44.5520 C   0  0  0  0  0  0  0  0  0  0  0  0
   43.4890   29.4170   44.1010 N   0  0  0  0  0  0  0  0  0  0  0  0
   44.3310   27.9730   45.8270 N   0  0  0  0  0  0  0  0  0  0  0  0
   43.5390   28.6270   46.7060 C   0  0  0  0  0  0  0  0  0  0  0  0
   43.3510   28.1340   47.9760 C   0  0  0  0  0  0  0  0  0  0  0  0
   44.0330   26.9420   48.2540 C   0  0  0  0  0  0  0  0  0  0  0  0
   43.9050   26.4320   49.4080 O   0  0  0  0  0  0  0  0  0  0  0  0
   44.8160   26.3120   47.3610 N   0  0  0  0  0  0  0  0  0  0  0  0
   44.9640   26.8380   46.1300 C   0  0  0  0  0  0  0  0  0  0  0  0
   45.6850   26.2740   45.2790 O   0  0  0  0  0  0  0  0  0  0  0  0
   42.2850   30.4730   40.9370 C   0  0  0  0  0  0  0  0  0  0  0  0
   43.0230   30.7820   42.0840 C   0  0  0  0  0  0  0  0  0  0  0  0
   43.0130   32.1070   42.5750 C   0  0  0  0  0  0  0  0  0  0  0  0
   42.2640   33.0190   41.8780 N   0  0  0  0  0  0  0  0  0  0  0  0
   41.5680   32.6780   40.7800 C   0  0  0  0  0  0  0  0  0  0  0  0
   41.5780   31.4200   40.3140 N   0  0  0  0  0  0  0  0  0  0  0  0
   40.8260   33.7100   40.1380 N   0  0  0  0  0  0  0  0  0  0  0  0
   39.3840   33.7300   40.3000 C   0  0  0  0  0  0  0  0  0  0  0  0
   39.0630   35.1450   40.7950 C   0  0  0  0  0  0  0  0  0  0  0  0
   39.4570   36.0250   39.8170 O   0  0  0  0  0  0  0  0  0  0  0  0
   40.8240   36.1060   39.6180 C   0  0  0  0  0  0  0  0  0  0  0  0
   41.4420   34.7440   39.3310 C   0  0  0  0  0  0  0  0  0  0  0  0
   43.0414   29.5601   46.4032 H   0  0  0  0  0  0  0  0  0  0  0  0
   42.7134   28.6375   48.7176 H   0  0  0  0  0  0  0  0  0  0  0  0
   45.2970   25.4374   47.6153 H   0  0  0  0  0  0  0  0  0  0  0  0
   42.2866   29.4449   40.5458 H   0  0  0  0  0  0  0  0  0  0  0  0
   43.5793   32.3928   43.4737 H   0  0  0  0  0  0  0  0  0  0  0  0
   38.8838   33.5328   39.3403 H   0  0  0  0  0  0  0  0  0  0  0  0
   39.0349   32.9569   41.0003 H   0  0  0  0  0  0  0  0  0  0  0  0
   37.9824   35.2434   40.9753 H   0  0  0  0  0  0  0  0  0  0  0  0
   39.5893   35.3537   41.7381 H   0  0  0  0  0  0  0  0  0  0  0  0
   41.0195   36.7714   38.7642 H   0  0  0  0  0  0  0  0  0  0  0  0
   41.2784   36.4970   40.5403 H   0  0  0  0  0  0  0  0  0  0  0  0
   41.2996   34.5020   38.2674 H   0  0  0  0  0  0  0  0  0  0  0  0
   42.5130   34.7878   39.5780 H   0  0  0  0  0  0  0  0  0  0  0  0
  1  5  1  0
  2  1  2  0
  2  3  1  0
  3  4  1  0
  4  6  1  0
  5  4  2  0
  6 12  1  0
  6  7  1  0
  7  8  2  0
  8  9  1  0
  9 10  2  0
 11  9  1  0
 12 11  1  0
 13 12  2  0
 14 15  2  0
 15 16  1  0
 15  1  1  0
 17 16  2  0
 18 17  1  0
 19 18  2  0
 19 14  1  0
 20 21  1  0
 20 18  1  0
 21 22  1  0
 23 22  1  0
 24 23  1  0
 25 24  1  0
 25 20  1  0
  7 26  1  0
  8 27  1  0
 11 28  1  0
 14 29  1  0
 16 30  1  0
 21 31  1  0
 21 32  1  0
 22 33  1  0
 22 34  1  0
 24 35  1  0
 24 36  1  0
 25 37  1  0
 25 38  1  0
M  ISO  8  26  14  27  14  28   9  29  14  30  14  31  13  32  13  33  13
M  ISO  5  34  13  35  13  36  13  37  13  38  13
M  END
>  <minimizedAffinity>  (1) 
-5.7765336

>  <minimizedRMSD>  (1) 
4.92510128

$$$$
