
     RDKit          3D

 42 44  0  0  1  0  0  0  0  0999 V2000
   39.2340   26.0840   42.2920 C   0  0  1  0  0  0  0  0  0  0  0  0
   38.9740   24.7100   41.6020 C   0  0  0  0  0  0  0  0  0  0  0  0
   37.6150   24.3100   41.9700 C   0  0  0  0  0  0  0  0  0  0  0  0
   36.9410   25.6510   42.3650 C   0  0  0  0  0  0  0  0  0  0  0  0
   38.0030   26.3000   43.0510 C   0  0  2  0  0  0  0  0  0  0  0  0
   41.9830   26.8970   44.6930 C   0  0  0  0  0  0  0  0  0  0  0  0
   40.7380   26.9170   44.0700 C   0  0  0  0  0  0  0  0  0  0  0  0
   40.4920   26.0930   42.9720 C   0  0  0  0  0  0  0  0  0  0  0  0
   41.4910   25.2790   42.5340 N   0  0  0  0  0  0  0  0  0  0  0  0
   42.6960   25.2590   43.1370 C   0  0  0  0  0  0  0  0  0  0  0  0
   42.9460   26.0560   44.2030 N   0  0  0  0  0  0  0  0  0  0  0  0
   37.5930   27.7320   43.2120 C   0  0  2  0  0  0  0  0  0  0  0  0
   36.7850   28.0650   44.3970 C   0  0  0  0  0  0  0  0  0  0  0  0
   36.9430   28.0660   41.9850 C   0  0  0  0  0  0  0  0  0  0  0  0
   37.1470   29.4120   41.6180 N   0  0  0  0  0  0  0  0  0  0  0  0
   36.2170   30.3010   41.1810 C   0  0  0  0  0  0  0  0  0  0  0  0
   36.8540   31.4070   40.7230 C   0  0  0  0  0  0  0  0  0  0  0  0
   38.1570   31.1260   40.9160 N   0  0  0  0  0  0  0  0  0  0  0  0
   38.3650   29.9290   41.4610 C   0  0  0  0  0  0  0  0  0  0  0  0
   39.7710   29.6680   41.6930 C   0  0  0  0  0  0  0  0  0  0  0  0
   39.3878   26.9515   41.6333 H   0  0  0  0  0  0  0  0  0  0  0  0
   39.6992   23.9632   41.9574 H   0  0  0  0  0  0  0  0  0  0  0  0
   39.0840   24.7863   40.5102 H   0  0  0  0  0  0  0  0  0  0  0  0
   37.0971   23.8449   41.1182 H   0  0  0  0  0  0  0  0  0  0  0  0
   37.5905   23.5626   42.7767 H   0  0  0  0  0  0  0  0  0  0  0  0
   36.6258   26.2206   41.4784 H   0  0  0  0  0  0  0  0  0  0  0  0
   36.0218   25.5376   42.9585 H   0  0  0  0  0  0  0  0  0  0  0  0
   38.2045   25.9045   44.0575 H   0  0  0  0  0  0  0  0  0  0  0  0
   42.1884   27.5425   45.5597 H   0  0  0  0  0  0  0  0  0  0  0  0
   39.9472   27.5837   44.4444 H   0  0  0  0  0  0  0  0  0  0  0  0
   43.4833   24.5896   42.7601 H   0  0  0  0  0  0  0  0  0  0  0  0
   38.4882   28.3397   43.4104 H   0  0  0  0  0  0  0  0  0  0  0  0
   37.3555   27.8299   45.3076 H   0  0  0  0  0  0  0  0  0  0  0  0
   36.5402   29.1373   44.3843 H   0  0  0  0  0  0  0  0  0  0  0  0
   35.8557   27.4766   44.3843 H   0  0  0  0  0  0  0  0  0  0  0  0
   37.3382   27.4188   41.1882 H   0  0  0  0  0  0  0  0  0  0  0  0
   35.8624   27.9169   42.1264 H   0  0  0  0  0  0  0  0  0  0  0  0
   35.1277   30.1487   41.1962 H   0  0  0  0  0  0  0  0  0  0  0  0
   36.4112   32.3184   40.2950 H   0  0  0  0  0  0  0  0  0  0  0  0
   39.9636   29.6323   42.7754 H   0  0  0  0  0  0  0  0  0  0  0  0
   40.0446   28.7037   41.2399 H   0  0  0  0  0  0  0  0  0  0  0  0
   40.3724   30.4698   41.2399 H   0  0  0  0  0  0  0  0  0  0  0  0
  1  8  1  0
  1  5  1  0
  2  3  1  0
  2  1  1  0
  3  4  1  0
  4  5  1  0
  5 12  1  0
  7  6  2  0
  8  7  1  0
  9  8  2  0
  9 10  1  0
 10 11  2  0
 11  6  1  0
 12 13  1  0
 14 12  1  0
 15 14  1  0
 16 15  1  0
 17 18  1  0
 17 16  2  0
 18 19  2  0
 19 15  1  0
 19 20  1  0
  1 21  1  6
  2 22  1  0
  2 23  1  0
  3 24  1  0
  3 25  1  0
  4 26  1  0
  4 27  1  0
  5 28  1  1
  6 29  1  0
  7 30  1  0
 10 31  1  0
 12 32  1  1
 13 33  1  0
 13 34  1  0
 13 35  1  0
 14 36  1  0
 14 37  1  0
 16 38  1  0
 17 39  1  0
 20 40  1  0
 20 41  1  0
 20 42  1  0
M  ISO  8  21  13  22  13  23  13  24  13  25  13  26  13  27  13  28  13
M  ISO  8  29  14  30  14  31  14  32   8  33   8  34   8  35   8  36   8
M  ISO  6  37   8  38  14  39  14  40   8  41   8  42   8
M  END
>  <minimizedAffinity>  (1) 
-5.33813238

>  <minimizedRMSD>  (1) 
0.165791988

$$$$
