
     RDKit          3D

 26 28  0  0  0  0  0  0  0  0999 V2000
   38.6680   30.0550   41.3890 C   0  0  0  0  0  0  0  0  0  0  0  0
   38.0370   28.8770   41.2960 N   0  0  0  0  0  0  0  0  0  0  0  0
   38.7110   27.9830   41.9830 O   0  0  0  0  0  0  0  0  0  0  0  0
   39.7750   28.5440   42.5290 C   0  0  0  0  0  0  0  0  0  0  0  0
   39.7530   29.8370   42.1610 N   0  0  0  0  0  0  0  0  0  0  0  0
   40.8010   28.0240   43.3440 N   0  0  0  0  0  0  0  0  0  0  0  0
   41.9520   28.7360   43.3180 C   0  0  0  0  0  0  0  0  0  0  0  0
   43.0360   28.3350   44.0690 C   0  0  0  0  0  0  0  0  0  0  0  0
   42.8350   27.1720   44.8230 C   0  0  0  0  0  0  0  0  0  0  0  0
   43.7820   26.7410   45.5380 O   0  0  0  0  0  0  0  0  0  0  0  0
   41.6720   26.4810   44.8280 N   0  0  0  0  0  0  0  0  0  0  0  0
   40.6570   26.9200   44.0800 C   0  0  0  0  0  0  0  0  0  0  0  0
   39.5620   26.3030   44.0590 O   0  0  0  0  0  0  0  0  0  0  0  0
   38.9500   32.5700   41.1060 C   0  0  0  0  0  0  0  0  0  0  0  0
   38.3290   31.3550   40.8110 C   0  0  0  0  0  0  0  0  0  0  0  0
   37.2710   31.3270   39.8750 C   0  0  0  0  0  0  0  0  0  0  0  0
   36.9150   32.5290   39.3030 N   0  0  0  0  0  0  0  0  0  0  0  0
   37.5590   33.6790   39.6300 C   0  0  0  0  0  0  0  0  0  0  0  0
   38.5620   33.7090   40.5170 N   0  0  0  0  0  0  0  0  0  0  0  0
   37.1790   34.8790   39.0370 O   0  0  0  0  0  0  0  0  0  0  0  0
   42.0226   29.6393   42.6943 H   0  0  0  0  0  0  0  0  0  0  0  0
   43.9875   28.8870   44.0756 H   0  0  0  0  0  0  0  0  0  0  0  0
   41.5712   25.6301   45.3996 H   0  0  0  0  0  0  0  0  0  0  0  0
   39.7730   32.5926   41.8355 H   0  0  0  0  0  0  0  0  0  0  0  0
   36.7560   30.3903   39.6153 H   0  0  0  0  0  0  0  0  0  0  0  0
   37.6473   35.7184   39.2741 H   0  0  0  0  0  0  0  0  0  0  0  0
  1  5  1  0
  2  1  2  0
  2  3  1  0
  3  4  1  0
  4  6  1  0
  5  4  2  0
  6 12  1  0
  7  6  1  0
  7  8  2  0
  8  9  1  0
  9 11  1  0
  9 10  2  0
 12 11  1  0
 13 12  2  0
 15 14  2  0
 15  1  1  0
 16 15  1  0
 17 18  1  0
 17 16  2  0
 18 19  2  0
 19 14  1  0
 20 18  1  0
  7 21  1  0
  8 22  1  0
 11 23  1  0
 14 24  1  0
 16 25  1  0
 20 26  1  0
M  ISO  6  21  14  22  14  23   9  24  14  25  14  26   3
M  END
>  <minimizedAffinity>  (1) 
-5.51833439

>  <minimizedRMSD>  (1) 
0.165565282

$$$$
