
     RDKit          3D

 27 29  0  0  0  0  0  0  0  0999 V2000
   38.7060   30.0730   41.4440 C   0  0  0  0  0  0  0  0  0  0  0  0
   38.0640   28.8980   41.3590 N   0  0  0  0  0  0  0  0  0  0  0  0
   38.7500   28.0000   42.0300 O   0  0  0  0  0  0  0  0  0  0  0  0
   39.8180   28.5390   42.5520 C   0  0  0  0  0  0  0  0  0  0  0  0
   39.8040   29.8380   42.1940 N   0  0  0  0  0  0  0  0  0  0  0  0
   40.8670   28.0220   43.3470 N   0  0  0  0  0  0  0  0  0  0  0  0
   42.0260   28.7190   43.2860 C   0  0  0  0  0  0  0  0  0  0  0  0
   43.1250   28.3090   44.0220 C   0  0  0  0  0  0  0  0  0  0  0  0
   42.9250   27.1670   44.7910 C   0  0  0  0  0  0  0  0  0  0  0  0
   43.8920   26.7360   45.4900 O   0  0  0  0  0  0  0  0  0  0  0  0
   41.7580   26.4880   44.8360 N   0  0  0  0  0  0  0  0  0  0  0  0
   40.7270   26.9310   44.1020 C   0  0  0  0  0  0  0  0  0  0  0  0
   39.6260   26.3270   44.1180 O   0  0  0  0  0  0  0  0  0  0  0  0
   39.0380   32.5830   41.1340 C   0  0  0  0  0  0  0  0  0  0  0  0
   38.3760   31.3920   40.8810 C   0  0  0  0  0  0  0  0  0  0  0  0
   37.2670   31.3830   40.0050 C   0  0  0  0  0  0  0  0  0  0  0  0
   36.9120   32.5920   39.4480 N   0  0  0  0  0  0  0  0  0  0  0  0
   37.5930   33.7270   39.7280 C   0  0  0  0  0  0  0  0  0  0  0  0
   38.6530   33.7290   40.5680 N   0  0  0  0  0  0  0  0  0  0  0  0
   37.1510   34.9340   39.1020 N   0  0  0  0  0  0  0  0  0  0  0  0
   42.0949   29.6137   42.6499 H   0  0  0  0  0  0  0  0  0  0  0  0
   44.0846   28.8462   44.0002 H   0  0  0  0  0  0  0  0  0  0  0  0
   41.6621   25.6467   45.4225 H   0  0  0  0  0  0  0  0  0  0  0  0
   39.9004   32.5840   41.8168 H   0  0  0  0  0  0  0  0  0  0  0  0
   36.7156   30.4582   39.7795 H   0  0  0  0  0  0  0  0  0  0  0  0
   37.6417   35.8203   39.2881 H   0  0  0  0  0  0  0  0  0  0  0  0
   36.3419   34.9173   38.4649 H   0  0  0  0  0  0  0  0  0  0  0  0
  1  5  1  0
  2  1  2  0
  2  3  1  0
  3  4  1  0
  4  6  1  0
  5  4  2  0
  6 12  1  0
  7  6  1  0
  7  8  2  0
  8  9  1  0
  9 11  1  0
  9 10  2  0
 12 13  2  0
 12 11  1  0
 15 14  2  0
 15  1  1  0
 16 15  1  0
 17 18  1  0
 17 16  2  0
 18 19  2  0
 19 14  1  0
 20 18  1  0
  7 21  1  0
  8 22  1  0
 11 23  1  0
 14 24  1  0
 16 25  1  0
 20 26  1  0
 20 27  1  0
M  ISO  5  21  14  22  14  23   9  24  14  25  14
M  END
>  <minimizedAffinity>  (1) 
-5.43516779

>  <minimizedRMSD>  (1) 
0.15901655

$$$$
