
     RDKit          3D

 32 35  0  0  0  0  0  0  0  0999 V2000
   40.8970   29.4050   41.4180 C   0  0  0  0  0  0  0  0  0  0  0  0
   40.0020   28.4060   41.3090 N   0  0  0  0  0  0  0  0  0  0  0  0
   40.5690   27.2900   41.7130 O   0  0  0  0  0  0  0  0  0  0  0  0
   41.8160   27.5260   42.0890 C   0  0  0  0  0  0  0  0  0  0  0  0
   42.0220   28.8410   41.9060 N   0  0  0  0  0  0  0  0  0  0  0  0
   42.8300   26.6880   42.5900 N   0  0  0  0  0  0  0  0  0  0  0  0
   44.0870   27.1540   42.3990 C   0  0  0  0  0  0  0  0  0  0  0  0
   45.1620   26.4060   42.8480 C   0  0  0  0  0  0  0  0  0  0  0  0
   44.8390   25.2030   43.4760 C   0  0  0  0  0  0  0  0  0  0  0  0
   45.7870   24.4800   43.9050 O   0  0  0  0  0  0  0  0  0  0  0  0
   43.5740   24.7750   43.6480 N   0  0  0  0  0  0  0  0  0  0  0  0
   42.5690   25.5280   43.1980 C   0  0  0  0  0  0  0  0  0  0  0  0
   41.3750   25.1530   43.3450 O   0  0  0  0  0  0  0  0  0  0  0  0
   41.7570   31.6330   40.5490 C   0  0  0  0  0  0  0  0  0  0  0  0
   40.7620   30.8280   41.0990 C   0  0  0  0  0  0  0  0  0  0  0  0
   39.5120   31.3810   41.3880 C   0  0  0  0  0  0  0  0  0  0  0  0
   39.3280   32.7130   41.1090 N   0  0  0  0  0  0  0  0  0  0  0  0
   40.3130   33.4570   40.5790 C   0  0  0  0  0  0  0  0  0  0  0  0
   41.5320   32.9240   40.2960 N   0  0  0  0  0  0  0  0  0  0  0  0
   39.9440   34.8490   40.3490 C   0  0  0  0  0  0  0  0  0  0  0  0
   40.9320   35.8220   40.4740 C   0  0  0  0  0  0  0  0  0  0  0  0
   40.3550   37.0690   40.2120 C   0  0  0  0  0  0  0  0  0  0  0  0
   39.0320   36.7570   39.9400 C   0  0  0  0  0  0  0  0  0  0  0  0
   38.8310   35.4670   40.0290 O   0  0  0  0  0  0  0  0  0  0  0  0
   44.2522   28.1164   41.8926 H   0  0  0  0  0  0  0  0  0  0  0  0
   46.2025   26.7385   42.7181 H   0  0  0  0  0  0  0  0  0  0  0  0
   43.3851   23.8793   44.1201 H   0  0  0  0  0  0  0  0  0  0  0  0
   42.7414   31.1988   40.3201 H   0  0  0  0  0  0  0  0  0  0  0  0
   38.7054   30.7723   41.8227 H   0  0  0  0  0  0  0  0  0  0  0  0
   41.9854   35.6412   40.7341 H   0  0  0  0  0  0  0  0  0  0  0  0
   40.8353   38.0586   40.2199 H   0  0  0  0  0  0  0  0  0  0  0  0
   38.2564   37.4938   39.6841 H   0  0  0  0  0  0  0  0  0  0  0  0
  1  5  1  0
  2  1  2  0
  2  3  1  0
  3  4  1  0
  4  6  1  0
  5  4  2  0
  6 12  1  0
  7  6  1  0
  7  8  2  0
  8  9  1  0
  9 11  1  0
  9 10  2  0
 12 13  2  0
 12 11  1  0
 14 15  2  0
 15 16  1  0
 15  1  1  0
 17 16  2  0
 18 17  1  0
 19 14  1  0
 19 18  2  0
 20 21  2  0
 20 18  1  0
 22 21  1  0
 23 24  1  0
 23 22  2  0
 24 20  1  0
  7 25  1  0
  8 26  1  0
 11 27  1  0
 14 28  1  0
 16 29  1  0
 21 30  1  0
 22 31  1  0
 23 32  1  0
M  ISO  8  25  14  26  14  27   9  28  14  29  14  30  14  31  14  32  14
M  END
>  <minimizedAffinity>  (1) 
-5.39413166

>  <minimizedRMSD>  (1) 
2.97798324

$$$$
