
     RDKit          3D

 41 43  0  0  1  0  0  0  0  0999 V2000
   39.2120   26.0060   42.2380 C   0  0  1  0  0  0  0  0  0  0  0  0
   39.0060   24.6150   41.5630 C   0  0  0  0  0  0  0  0  0  0  0  0
   37.6470   24.1820   41.9150 C   0  0  0  0  0  0  0  0  0  0  0  0
   36.9300   25.5080   42.2820 C   0  0  0  0  0  0  0  0  0  0  0  0
   37.9650   26.2150   42.9620 C   0  0  2  0  0  0  0  0  0  0  0  0
   41.8970   26.9450   44.6710 C   0  0  0  0  0  0  0  0  0  0  0  0
   40.6630   26.9290   44.0190 C   0  0  0  0  0  0  0  0  0  0  0  0
   40.4530   26.0610   42.9470 C   0  0  0  0  0  0  0  0  0  0  0  0
   41.4710   25.2410   42.5610 N   0  0  0  0  0  0  0  0  0  0  0  0
   42.6600   25.2610   43.1960 C   0  0  0  0  0  0  0  0  0  0  0  0
   42.8820   26.0990   44.2380 N   0  0  0  0  0  0  0  0  0  0  0  0
   37.5070   27.6270   43.0880 C   0  0  2  0  0  0  0  0  0  0  0  0
   36.6730   27.9480   44.2750 C   0  0  0  0  0  0  0  0  0  0  0  0
   36.8160   27.8960   41.8450 C   0  0  0  0  0  0  0  0  0  0  0  0
   37.0670   29.2370   41.4360 N   0  0  0  0  0  0  0  0  0  0  0  0
   36.1870   30.2500   41.2490 C   0  0  0  0  0  0  0  0  0  0  0  0
   36.8460   31.3310   40.7160 C   0  0  0  0  0  0  0  0  0  0  0  0
   38.1350   30.9380   40.5950 N   0  0  0  0  0  0  0  0  0  0  0  0
   38.2650   29.6700   41.0330 C   0  0  0  0  0  0  0  0  0  0  0  0
   39.5750   29.2410   40.9080 N   0  0  0  0  0  0  0  0  0  0  0  0
   39.3571   26.8622   41.5628 H   0  0  0  0  0  0  0  0  0  0  0  0
   39.7454   23.8944   41.9425 H   0  0  0  0  0  0  0  0  0  0  0  0
   39.1355   24.6772   40.4724 H   0  0  0  0  0  0  0  0  0  0  0  0
   37.1563   23.6927   41.0607 H   0  0  0  0  0  0  0  0  0  0  0  0
   37.6294   23.4446   42.7310 H   0  0  0  0  0  0  0  0  0  0  0  0
   36.5993   26.0478   41.3824 H   0  0  0  0  0  0  0  0  0  0  0  0
   36.0151   25.3721   42.8774 H   0  0  0  0  0  0  0  0  0  0  0  0
   38.1687   25.8606   43.9832 H   0  0  0  0  0  0  0  0  0  0  0  0
   42.0746   27.6250   45.5172 H   0  0  0  0  0  0  0  0  0  0  0  0
   39.8568   27.6001   44.3500 H   0  0  0  0  0  0  0  0  0  0  0  0
   43.4628   24.5866   42.8633 H   0  0  0  0  0  0  0  0  0  0  0  0
   38.3776   28.2769   43.2600 H   0  0  0  0  0  0  0  0  0  0  0  0
   37.2404   27.7296   45.1917 H   0  0  0  0  0  0  0  0  0  0  0  0
   36.4032   29.0142   44.2560 H   0  0  0  0  0  0  0  0  0  0  0  0
   35.7579   27.3378   44.2560 H   0  0  0  0  0  0  0  0  0  0  0  0
   37.1759   27.2039   41.0695 H   0  0  0  0  0  0  0  0  0  0  0  0
   35.7348   27.7566   41.9920 H   0  0  0  0  0  0  0  0  0  0  0  0
   35.1136   30.2127   41.4866 H   0  0  0  0  0  0  0  0  0  0  0  0
   36.4174   32.3073   40.4454 H   0  0  0  0  0  0  0  0  0  0  0  0
   39.8353   28.2887   41.2018 H   0  0  0  0  0  0  0  0  0  0  0  0
   40.2895   29.8740   40.5212 H   0  0  0  0  0  0  0  0  0  0  0  0
  1  8  1  0
  1  5  1  0
  2  3  1  0
  2  1  1  0
  3  4  1  0
  4  5  1  0
  5 12  1  0
  7  6  2  0
  8  7  1  0
  9  8  2  0
  9 10  1  0
 10 11  2  0
 11  6  1  0
 12 13  1  0
 14 12  1  0
 15 14  1  0
 16 15  1  0
 17 16  2  0
 18 17  1  0
 18 19  2  0
 19 15  1  0
 20 19  1  0
  1 21  1  6
  2 22  1  0
  2 23  1  0
  3 24  1  0
  3 25  1  0
  4 26  1  0
  4 27  1  0
  5 28  1  1
  6 29  1  0
  7 30  1  0
 10 31  1  0
 12 32  1  1
 13 33  1  0
 13 34  1  0
 13 35  1  0
 14 36  1  0
 14 37  1  0
 16 38  1  0
 17 39  1  0
 20 40  1  0
 20 41  1  0
M  ISO  8  21  13  22  13  23  13  24  13  25  13  26  13  27  13  28  13
M  ISO  8  29  14  30  14  31  14  32   8  33   8  34   8  35   8  36   8
M  ISO  3  37   8  38  14  39  14
M  END
>  <minimizedAffinity>  (1) 
-5.2293725

>  <minimizedRMSD>  (1) 
0.370052755

$$$$
