
     RDKit          3D

 28 30  0  0  0  0  0  0  0  0999 V2000
   39.6800   29.0200   41.4630 C   0  0  0  0  0  0  0  0  0  0  0  0
   38.9330   27.9090   41.4350 N   0  0  0  0  0  0  0  0  0  0  0  0
   39.6770   26.9080   41.8200 O   0  0  0  0  0  0  0  0  0  0  0  0
   40.8960   27.3150   42.1010 C   0  0  0  0  0  0  0  0  0  0  0  0
   40.9040   28.6400   41.8810 N   0  0  0  0  0  0  0  0  0  0  0  0
   42.0480   26.6370   42.5470 N   0  0  0  0  0  0  0  0  0  0  0  0
   43.2150   27.2710   42.2790 C   0  0  0  0  0  0  0  0  0  0  0  0
   44.4140   26.7050   42.6510 C   0  0  0  0  0  0  0  0  0  0  0  0
   44.3090   25.4670   43.3040 C   0  0  0  0  0  0  0  0  0  0  0  0
   45.3640   24.8800   43.6770 O   0  0  0  0  0  0  0  0  0  0  0  0
   43.1190   24.8480   43.5620 N   0  0  0  0  0  0  0  0  0  0  0  0
   41.9900   25.4570   43.1710 C   0  0  0  0  0  0  0  0  0  0  0  0
   40.8760   24.9200   43.3920 O   0  0  0  0  0  0  0  0  0  0  0  0
   40.2160   31.5060   41.1660 C   0  0  0  0  0  0  0  0  0  0  0  0
   39.3390   30.4080   41.1180 C   0  0  0  0  0  0  0  0  0  0  0  0
   38.0020   30.5900   40.6960 C   0  0  0  0  0  0  0  0  0  0  0  0
   37.6460   31.8820   40.3500 N   0  0  0  0  0  0  0  0  0  0  0  0
   38.5420   32.9000   40.4180 C   0  0  0  0  0  0  0  0  0  0  0  0
   39.8080   32.7190   40.8210 N   0  0  0  0  0  0  0  0  0  0  0  0
   38.0610   34.2210   40.0300 C   0  0  0  0  0  0  0  0  0  0  0  0
   38.6650   35.2530   40.3860 O   0  0  0  0  0  0  0  0  0  0  0  0
   36.9230   34.3910   39.2530 O   0  0  0  0  0  0  0  0  0  0  0  0
   43.2047   28.2419   41.7621 H   0  0  0  0  0  0  0  0  0  0  0  0
   45.3822   27.1873   42.4512 H   0  0  0  0  0  0  0  0  0  0  0  0
   43.0896   23.9381   44.0438 H   0  0  0  0  0  0  0  0  0  0  0  0
   41.2551   31.3562   41.4944 H   0  0  0  0  0  0  0  0  0  0  0  0
   37.2876   29.7550   40.6457 H   0  0  0  0  0  0  0  0  0  0  0  0
   36.4104   33.6014   38.9465 H   0  0  0  0  0  0  0  0  0  0  0  0
  1  5  1  0
  2  1  2  0
  2  3  1  0
  3  4  1  0
  4  6  1  0
  5  4  2  0
  6 12  1  0
  7  6  1  0
  7  8  2  0
  8  9  1  0
  9 11  1  0
  9 10  2  0
 12 13  2  0
 12 11  1  0
 15 14  2  0
 15  1  1  0
 16 15  1  0
 17 18  1  0
 17 16  2  0
 18 19  2  0
 19 14  1  0
 20 21  2  0
 20 18  1  0
 22 20  1  0
  7 23  1  0
  8 24  1  0
 11 25  1  0
 14 26  1  0
 16 27  1  0
 22 28  1  0
M  ISO  6  23  14  24  14  25   9  26  14  27  14  28   3
M  END
>  <minimizedAffinity>  (1) 
-5.36079884

>  <minimizedRMSD>  (1) 
1.97795582

$$$$
