
     RDKit          3D

 31 33  0  0  0  0  0  0  0  0999 V2000
   40.2500   30.7860   41.5040 C   0  0  0  0  0  0  0  0  0  0  0  0
   39.6630   29.6610   41.0570 N   0  0  0  0  0  0  0  0  0  0  0  0
   40.1330   28.6460   41.7440 O   0  0  0  0  0  0  0  0  0  0  0  0
   41.0040   29.0570   42.6240 C   0  0  0  0  0  0  0  0  0  0  0  0
   41.0900   30.3980   42.4880 N   0  0  0  0  0  0  0  0  0  0  0  0
   41.7900   28.3840   43.5980 N   0  0  0  0  0  0  0  0  0  0  0  0
   42.9290   29.0260   43.9500 C   0  0  0  0  0  0  0  0  0  0  0  0
   43.7720   28.4640   44.8900 C   0  0  0  0  0  0  0  0  0  0  0  0
   43.3490   27.2370   45.4070 C   0  0  0  0  0  0  0  0  0  0  0  0
   44.0810   26.6760   46.2710 O   0  0  0  0  0  0  0  0  0  0  0  0
   42.2080   26.6280   45.0330 N   0  0  0  0  0  0  0  0  0  0  0  0
   41.4250   27.2100   44.1190 C   0  0  0  0  0  0  0  0  0  0  0  0
   40.3550   26.6690   43.7480 O   0  0  0  0  0  0  0  0  0  0  0  0
   41.1000   33.0700   40.7420 C   0  0  0  0  0  0  0  0  0  0  0  0
   40.0890   32.1860   41.0870 C   0  0  0  0  0  0  0  0  0  0  0  0
   38.7510   32.6270   41.0500 C   0  0  0  0  0  0  0  0  0  0  0  0
   38.5240   33.9280   40.6690 N   0  0  0  0  0  0  0  0  0  0  0  0
   39.5390   34.7460   40.3440 C   0  0  0  0  0  0  0  0  0  0  0  0
   40.8150   34.3250   40.3790 N   0  0  0  0  0  0  0  0  0  0  0  0
   39.2580   36.1480   39.9360 C   0  0  0  0  0  0  0  0  0  0  0  0
   40.4490   36.9850   40.3930 C   0  0  0  0  0  0  0  0  0  0  0  0
   43.1826   29.9921   43.4891 H   0  0  0  0  0  0  0  0  0  0  0  0
   44.7076   28.9474   45.2078 H   0  0  0  0  0  0  0  0  0  0  0  0
   41.9412   25.7233   45.4467 H   0  0  0  0  0  0  0  0  0  0  0  0
   42.1476   32.7354   40.7672 H   0  0  0  0  0  0  0  0  0  0  0  0
   37.9207   31.9562   41.3157 H   0  0  0  0  0  0  0  0  0  0  0  0
   39.1481   36.2100   38.8433 H   0  0  0  0  0  0  0  0  0  0  0  0
   38.3228   36.5114   40.3871 H   0  0  0  0  0  0  0  0  0  0  0  0
   40.4811   37.0075   41.4923 H   0  0  0  0  0  0  0  0  0  0  0  0
   41.3787   36.5406   40.0081 H   0  0  0  0  0  0  0  0  0  0  0  0
   40.3459   38.0103   40.0081 H   0  0  0  0  0  0  0  0  0  0  0  0
  1  5  1  0
  2  1  2  0
  2  3  1  0
  3  4  1  0
  4  6  1  0
  5  4  2  0
  6  7  1  0
  6 12  1  0
  7  8  2  0
  8  9  1  0
  9 10  2  0
 11  9  1  0
 12 11  1  0
 13 12  2  0
 14 15  2  0
 15  1  1  0
 16 15  1  0
 17 16  2  0
 18 19  2  0
 18 17  1  0
 19 14  1  0
 20 18  1  0
 20 21  1  0
  7 22  1  0
  8 23  1  0
 11 24  1  0
 14 25  1  0
 16 26  1  0
 20 27  1  0
 20 28  1  0
 21 29  1  0
 21 30  1  0
 21 31  1  0
M  ISO  8  22  14  23  14  24   9  25  14  26  14  27   8  28   8  29   8
M  ISO  2  30   8  31   8
M  END
>  <minimizedAffinity>  (1) 
-5.15167904

>  <minimizedRMSD>  (1) 
1.70686662

$$$$
