
     RDKit          3D

 41 45  0  0  0  0  0  0  0  0999 V2000
   39.7500   30.9590   41.1460 C   0  0  0  0  0  0  0  0  0  0  0  0
   39.4720   29.6300   41.3670 C   0  0  0  0  0  0  0  0  0  0  0  0
   38.4900   29.0010   40.5630 C   0  0  0  0  0  0  0  0  0  0  0  0
   37.8660   29.7530   39.6040 N   0  0  0  0  0  0  0  0  0  0  0  0
   38.1830   31.0530   39.4360 C   0  0  0  0  0  0  0  0  0  0  0  0
   39.1130   31.6460   40.1970 N   0  0  0  0  0  0  0  0  0  0  0  0
   38.0900   27.6390   40.6690 N   0  0  0  0  0  0  0  0  0  0  0  0
   36.9950   27.0230   40.2220 C   0  0  0  0  0  0  0  0  0  0  0  0
   36.9980   25.7140   40.5330 N   0  0  0  0  0  0  0  0  0  0  0  0
   38.1560   25.5020   41.2070 C   0  0  0  0  0  0  0  0  0  0  0  0
   38.7030   24.3730   41.7680 C   0  0  0  0  0  0  0  0  0  0  0  0
   39.8930   24.4540   42.3910 N   0  0  0  0  0  0  0  0  0  0  0  0
   40.5350   25.6450   42.4570 C   0  0  0  0  0  0  0  0  0  0  0  0
   40.0290   26.7710   41.9190 N   0  0  0  0  0  0  0  0  0  0  0  0
   38.8420   26.6970   41.2960 C   0  0  0  0  0  0  0  0  0  0  0  0
   40.0770   28.7320   42.3630 C   0  0  0  0  0  0  0  0  0  0  0  0
   39.5440   28.0040   43.3500 N   0  0  0  0  0  0  0  0  0  0  0  0
   40.5100   27.3610   43.9690 O   0  0  0  0  0  0  0  0  0  0  0  0
   41.6680   27.6420   43.4220 C   0  0  0  0  0  0  0  0  0  0  0  0
   41.4060   28.4970   42.4190 N   0  0  0  0  0  0  0  0  0  0  0  0
   42.9770   27.2170   43.7150 N   0  0  0  0  0  0  0  0  0  0  0  0
   43.8350   27.2680   42.6570 C   0  0  0  0  0  0  0  0  0  0  0  0
   45.1470   26.8820   42.8030 C   0  0  0  0  0  0  0  0  0  0  0  0
   45.4890   26.4480   44.1010 C   0  0  0  0  0  0  0  0  0  0  0  0
   46.6780   26.0740   44.3220 O   0  0  0  0  0  0  0  0  0  0  0  0
   44.6250   26.4090   45.1160 N   0  0  0  0  0  0  0  0  0  0  0  0
   43.3620   26.7970   44.9180 C   0  0  0  0  0  0  0  0  0  0  0  0
   42.5240   26.7750   45.8420 O   0  0  0  0  0  0  0  0  0  0  0  0
   37.4670   31.7960   38.3810 C   0  0  0  0  0  0  0  0  0  0  0  0
   36.9770   32.9800   38.8710 F   0  0  0  0  0  0  0  0  0  0  0  0
   38.2930   32.0470   37.3070 F   0  0  0  0  0  0  0  0  0  0  0  0
   36.3670   31.0530   37.9540 F   0  0  0  0  0  0  0  0  0  0  0  0
   38.0140   23.1260   41.6900 N   0  0  0  0  0  0  0  0  0  0  0  0
   40.5096   31.4629   41.7617 H   0  0  0  0  0  0  0  0  0  0  0  0
   36.1881   27.5238   39.6670 H   0  0  0  0  0  0  0  0  0  0  0  0
   41.5069   25.6942   42.9697 H   0  0  0  0  0  0  0  0  0  0  0  0
   43.4753   27.6205   41.6791 H   0  0  0  0  0  0  0  0  0  0  0  0
   45.8707   26.9095   41.9751 H   0  0  0  0  0  0  0  0  0  0  0  0
   44.9287   26.0826   46.0445 H   0  0  0  0  0  0  0  0  0  0  0  0
   38.4272   22.2820   42.1117 H   0  0  0  0  0  0  0  0  0  0  0  0
   37.1034   23.0698   41.2120 H   0  0  0  0  0  0  0  0  0  0  0  0
  1  2  2  0
  2 16  1  0
  3  7  1  0
  3  2  1  0
  4  3  2  0
  5  4  1  0
  5  6  2  0
  6  1  1  0
  7 15  1  0
  8  9  2  0
  8  7  1  0
  9 10  1  0
 10 15  2  0
 10 11  1  0
 11 12  2  0
 12 13  1  0
 14 13  2  0
 15 14  1  0
 16 20  1  0
 16 17  2  0
 17 18  1  0
 19 21  1  0
 19 18  1  0
 20 19  2  0
 21 27  1  0
 22 23  2  0
 22 21  1  0
 23 24  1  0
 24 25  2  0
 24 26  1  0
 27 26  1  0
 27 28  2  0
 29 30  1  0
 29  5  1  0
 31 29  1  0
 32 29  1  0
 33 11  1  0
  1 34  1  0
  8 35  1  0
 13 36  1  0
 22 37  1  0
 23 38  1  0
 26 39  1  0
 33 40  1  0
 33 41  1  0
M  ISO  6  34  14  35  14  36  14  37  14  38  14  39   9
M  END
>  <minimizedAffinity>  (1) 
-6.5925498

>  <minimizedRMSD>  (1) 
1.49176872

$$$$
