
     RDKit          3D

 41 44  0  0  0  0  0  0  0  0999 V2000
   39.6420   30.6960   40.8040 C   0  0  0  0  0  0  0  0  0  0  0  0
   39.3740   29.3810   41.1090 C   0  0  0  0  0  0  0  0  0  0  0  0
   38.3880   28.7080   40.3590 C   0  0  0  0  0  0  0  0  0  0  0  0
   37.7540   29.4110   39.3670 N   0  0  0  0  0  0  0  0  0  0  0  0
   38.0620   30.7000   39.1190 C   0  0  0  0  0  0  0  0  0  0  0  0
   38.9960   31.3340   39.8290 N   0  0  0  0  0  0  0  0  0  0  0  0
   37.9590   27.3580   40.5070 N   0  0  0  0  0  0  0  0  0  0  0  0
   38.4190   26.4350   41.3460 C   0  0  0  0  0  0  0  0  0  0  0  0
   37.8930   25.1600   41.3680 C   0  0  0  0  0  0  0  0  0  0  0  0
   38.4250   24.1570   42.3120 C   0  0  0  0  0  0  0  0  0  0  0  0
   36.8610   24.8310   40.4950 C   0  0  0  0  0  0  0  0  0  0  0  0
   36.3680   23.6830   40.4930 O   0  0  0  0  0  0  0  0  0  0  0  0
   36.4080   25.7840   39.6490 N   0  0  0  0  0  0  0  0  0  0  0  0
   36.9490   27.0340   39.6520 C   0  0  0  0  0  0  0  0  0  0  0  0
   36.4220   27.8050   38.8100 O   0  0  0  0  0  0  0  0  0  0  0  0
   39.9980   28.5500   42.1470 C   0  0  0  0  0  0  0  0  0  0  0  0
   39.5590   28.1490   43.3410 N   0  0  0  0  0  0  0  0  0  0  0  0
   40.4940   27.4140   43.9010 O   0  0  0  0  0  0  0  0  0  0  0  0
   41.5310   27.3170   43.1190 C   0  0  0  0  0  0  0  0  0  0  0  0
   41.2340   28.0210   42.0220 N   0  0  0  0  0  0  0  0  0  0  0  0
   42.7850   26.6560   43.2380 N   0  0  0  0  0  0  0  0  0  0  0  0
   43.3760   26.3190   42.0710 C   0  0  0  0  0  0  0  0  0  0  0  0
   44.5930   25.6750   42.0800 C   0  0  0  0  0  0  0  0  0  0  0  0
   45.1260   25.4170   43.3590 C   0  0  0  0  0  0  0  0  0  0  0  0
   46.2390   24.8300   43.4180 O   0  0  0  0  0  0  0  0  0  0  0  0
   44.5120   25.7650   44.4930 N   0  0  0  0  0  0  0  0  0  0  0  0
   43.3290   26.3900   44.4370 C   0  0  0  0  0  0  0  0  0  0  0  0
   42.7340   26.7260   45.4790 O   0  0  0  0  0  0  0  0  0  0  0  0
   37.3290   31.3830   38.0300 C   0  0  0  0  0  0  0  0  0  0  0  0
   36.9410   32.6350   38.4220 F   0  0  0  0  0  0  0  0  0  0  0  0
   38.0950   31.4530   36.8950 F   0  0  0  0  0  0  0  0  0  0  0  0
   36.1510   30.6780   37.7540 F   0  0  0  0  0  0  0  0  0  0  0  0
   40.4093   31.2341   41.3800 H   0  0  0  0  0  0  0  0  0  0  0  0
   39.2354   26.6932   42.0365 H   0  0  0  0  0  0  0  0  0  0  0  0
   38.2464   24.4937   43.3439 H   0  0  0  0  0  0  0  0  0  0  0  0
   37.9190   23.1942   42.1477 H   0  0  0  0  0  0  0  0  0  0  0  0
   39.5059   24.0359   42.1477 H   0  0  0  0  0  0  0  0  0  0  0  0
   35.6445   25.5618   38.9944 H   0  0  0  0  0  0  0  0  0  0  0  0
   42.8861   26.5585   41.1157 H   0  0  0  0  0  0  0  0  0  0  0  0
   45.1121   25.3828   41.1552 H   0  0  0  0  0  0  0  0  0  0  0  0
   44.9451   25.5543   45.4035 H   0  0  0  0  0  0  0  0  0  0  0  0
  1  2  2  0
  2 16  1  0
  3  7  1  0
  3  2  1  0
  4  3  2  0
  5  4  1  0
  5  6  2  0
  6  1  1  0
  7  8  1  0
  8  9  2  0
  9 10  1  0
 11  9  1  0
 12 11  2  0
 13 14  1  0
 13 11  1  0
 14  7  1  0
 15 14  2  0
 16 17  2  0
 17 18  1  0
 19 21  1  0
 19 18  1  0
 20 16  1  0
 20 19  2  0
 21 27  1  0
 22 23  2  0
 22 21  1  0
 23 24  1  0
 24 25  2  0
 24 26  1  0
 27 26  1  0
 27 28  2  0
 29 30  1  0
 29  5  1  0
 31 29  1  0
 32 29  1  0
  1 33  1  0
  8 34  1  0
 10 35  1  0
 10 36  1  0
 10 37  1  0
 13 38  1  0
 22 39  1  0
 23 40  1  0
 26 41  1  0
M  ISO  8  33  14  34  14  35   8  36   8  37   8  38   9  39  14  40  14
M  ISO  1  41   9
M  END
>  <minimizedAffinity>  (1) 
-6.41444492

>  <minimizedRMSD>  (1) 
2.01265287

$$$$
