
     RDKit          3D

 39 42  0  0  0  0  0  0  0  0999 V2000
   39.4800   30.4640   41.0200 C   0  0  0  0  0  0  0  0  0  0  0  0
   39.3050   29.1350   41.3300 C   0  0  0  0  0  0  0  0  0  0  0  0
   38.3610   28.3760   40.5920 C   0  0  0  0  0  0  0  0  0  0  0  0
   37.6780   29.0350   39.6020 N   0  0  0  0  0  0  0  0  0  0  0  0
   37.8920   30.3400   39.3440 C   0  0  0  0  0  0  0  0  0  0  0  0
   38.7830   31.0430   40.0450 N   0  0  0  0  0  0  0  0  0  0  0  0
   38.1230   26.9890   40.8560 N   0  0  0  0  0  0  0  0  0  0  0  0
   37.0570   26.3980   41.3910 C   0  0  0  0  0  0  0  0  0  0  0  0
   37.0690   25.0240   41.5450 C   0  0  0  0  0  0  0  0  0  0  0  0
   38.1400   24.2650   41.1640 C   0  0  0  0  0  0  0  0  0  0  0  0
   38.0870   22.8420   41.3510 N   0  0  0  0  0  0  0  0  0  0  0  0
   39.2230   24.8850   40.6170 N   0  0  0  0  0  0  0  0  0  0  0  0
   39.1850   26.2200   40.4800 C   0  0  0  0  0  0  0  0  0  0  0  0
   40.2590   26.6730   39.9570 O   0  0  0  0  0  0  0  0  0  0  0  0
   39.9950   28.3640   42.3690 C   0  0  0  0  0  0  0  0  0  0  0  0
   39.5500   27.7680   43.4780 N   0  0  0  0  0  0  0  0  0  0  0  0
   40.5680   27.2000   44.0830 O   0  0  0  0  0  0  0  0  0  0  0  0
   41.6790   27.3990   43.4100 C   0  0  0  0  0  0  0  0  0  0  0  0
   41.3290   28.1210   42.3460 N   0  0  0  0  0  0  0  0  0  0  0  0
   43.0040   26.9990   43.6440 N   0  0  0  0  0  0  0  0  0  0  0  0
   43.7830   26.9380   42.5280 C   0  0  0  0  0  0  0  0  0  0  0  0
   45.1060   26.5560   42.6210 C   0  0  0  0  0  0  0  0  0  0  0  0
   45.5440   26.2550   43.9220 C   0  0  0  0  0  0  0  0  0  0  0  0
   46.7440   25.9000   44.0760 O   0  0  0  0  0  0  0  0  0  0  0  0
   44.7520   26.3260   45.0040 N   0  0  0  0  0  0  0  0  0  0  0  0
   43.4780   26.7000   44.8550 C   0  0  0  0  0  0  0  0  0  0  0  0
   42.7140   26.7770   45.8360 O   0  0  0  0  0  0  0  0  0  0  0  0
   37.0940   30.9350   38.2530 C   0  0  0  0  0  0  0  0  0  0  0  0
   36.7930   32.2380   38.5440 F   0  0  0  0  0  0  0  0  0  0  0  0
   37.7900   30.8980   37.0610 F   0  0  0  0  0  0  0  0  0  0  0  0
   35.8890   30.2520   38.1050 F   0  0  0  0  0  0  0  0  0  0  0  0
   40.2096   31.0592   41.5886 H   0  0  0  0  0  0  0  0  0  0  0  0
   36.1846   26.9904   41.7041 H   0  0  0  0  0  0  0  0  0  0  0  0
   36.1921   24.5278   41.9865 H   0  0  0  0  0  0  0  0  0  0  0  0
   38.8855   22.2555   41.0693 H   0  0  0  0  0  0  0  0  0  0  0  0
   37.2505   22.4080   41.7668 H   0  0  0  0  0  0  0  0  0  0  0  0
   43.3553   27.1946   41.5476 H   0  0  0  0  0  0  0  0  0  0  0  0
   45.7669   26.4920   41.7440 H   0  0  0  0  0  0  0  0  0  0  0  0
   45.1220   26.0950   45.9371 H   0  0  0  0  0  0  0  0  0  0  0  0
  1  2  2  0
  2 15  1  0
  3  7  1  0
  3  2  1  0
  4  3  2  0
  5  4  1  0
  5  6  2  0
  6  1  1  0
  7  8  1  0
  8  9  2  0
 10 11  1  0
 10  9  1  0
 12 10  2  0
 13 12  1  0
 13  7  1  0
 14 13  2  0
 15 16  2  0
 16 17  1  0
 18 20  1  0
 18 17  1  0
 19 15  1  0
 19 18  2  0
 20 26  1  0
 21 22  2  0
 21 20  1  0
 22 23  1  0
 23 24  2  0
 23 25  1  0
 26 25  1  0
 26 27  2  0
 28 29  1  0
 28  5  1  0
 30 28  1  0
 31 28  1  0
  1 32  1  0
  8 33  1  0
  9 34  1  0
 11 35  1  0
 11 36  1  0
 21 37  1  0
 22 38  1  0
 25 39  1  0
M  ISO  6  32  14  33  14  34  14  37  14  38  14  39   9
M  END
>  <minimizedAffinity>  (1) 
-6.37602711

>  <minimizedRMSD>  (1) 
1.67747879

$$$$
