
     RDKit          3D

 26 28  0  0  0  0  0  0  0  0999 V2000
   37.5480   28.4170   43.4600 C   0  0  0  0  0  0  0  0  0  0  0  0
   37.2860   27.1180   42.9680 C   0  0  0  0  0  0  0  0  0  0  0  0
   37.0170   26.9990   41.6090 C   0  0  0  0  0  0  0  0  0  0  0  0
   37.0230   28.1270   40.8570 N   0  0  0  0  0  0  0  0  0  0  0  0
   37.2720   29.3460   41.3360 C   0  0  0  0  0  0  0  0  0  0  0  0
   37.5370   29.4870   42.6580 N   0  0  0  0  0  0  0  0  0  0  0  0
   37.2900   30.5350   40.5770 N   0  0  0  0  0  0  0  0  0  0  0  0
   37.9410   31.5640   41.1250 N   0  0  0  0  0  0  0  0  0  0  0  0
   37.8560   32.6140   40.2560 C   0  0  0  0  0  0  0  0  0  0  0  0
   37.1320   32.1670   39.1780 C   0  0  0  0  0  0  0  0  0  0  0  0
   36.7660   30.8360   39.3780 C   0  0  0  0  0  0  0  0  0  0  0  0
   36.0010   29.9670   38.5130 C   0  0  0  0  0  0  0  0  0  0  0  0
   36.5220   29.7490   37.2580 C   0  0  0  0  0  0  0  0  0  0  0  0
   35.9220   28.9500   36.3110 C   0  0  0  0  0  0  0  0  0  0  0  0
   34.7330   28.3090   36.5820 C   0  0  0  0  0  0  0  0  0  0  0  0
   34.2320   28.5430   37.8440 C   0  0  0  0  0  0  0  0  0  0  0  0
   34.8500   29.3290   38.7360 N   0  0  0  0  0  0  0  0  0  0  0  0
   37.7665   28.5511   44.5297 H   0  0  0  0  0  0  0  0  0  0  0  0
   37.2945   26.2402   43.6309 H   0  0  0  0  0  0  0  0  0  0  0  0
   36.8056   26.0185   41.1574 H   0  0  0  0  0  0  0  0  0  0  0  0
   38.2828   33.6186   40.3924 H   0  0  0  0  0  0  0  0  0  0  0  0
   36.8792   32.7673   38.2916 H   0  0  0  0  0  0  0  0  0  0  0  0
   37.4708   30.2406   36.9970 H   0  0  0  0  0  0  0  0  0  0  0  0
   36.3971   28.8220   35.3272 H   0  0  0  0  0  0  0  0  0  0  0  0
   34.2251   27.6632   35.8506 H   0  0  0  0  0  0  0  0  0  0  0  0
   33.2843   28.0642   38.1315 H   0  0  0  0  0  0  0  0  0  0  0  0
  2  1  2  0
  3  2  1  0
  4  5  1  0
  4  3  2  0
  5  6  2  0
  6  1  1  0
  7  8  1  0
  7  5  1  0
  9  8  2  0
 10 11  2  0
 10  9  1  0
 11  7  1  0
 12 17  1  0
 12 11  1  0
 13 12  2  0
 14 15  2  0
 14 13  1  0
 15 16  1  0
 16 17  2  0
  1 18  1  0
  2 19  1  0
  3 20  1  0
  9 21  1  0
 10 22  1  0
 13 23  1  0
 14 24  1  0
 15 25  1  0
 16 26  1  0
M  ISO  8  18  14  19  14  20  14  21  14  22  14  23  14  24  14  25  14
M  ISO  1  26  14
M  END
>  <minimizedAffinity>  (1) 
-4.68095064

>  <minimizedRMSD>  (1) 
1.95794427

$$$$
