
     RDKit          3D

 42 46  0  0  0  0  0  0  0  0999 V2000
   39.1130   30.6920   41.8580 C   0  0  0  0  0  0  0  0  0  0  0  0
   39.4210   29.3550   41.7570 C   0  0  0  0  0  0  0  0  0  0  0  0
   38.9570   28.6320   40.6460 C   0  0  0  0  0  0  0  0  0  0  0  0
   38.2140   29.3120   39.7140 N   0  0  0  0  0  0  0  0  0  0  0  0
   37.9410   30.6230   39.8640 C   0  0  0  0  0  0  0  0  0  0  0  0
   38.3880   31.3110   40.9320 N   0  0  0  0  0  0  0  0  0  0  0  0
   40.2120   28.5430   42.7070 C   0  0  0  0  0  0  0  0  0  0  0  0
   39.8440   27.6260   43.5960 N   0  0  0  0  0  0  0  0  0  0  0  0
   40.9160   27.1830   44.2070 O   0  0  0  0  0  0  0  0  0  0  0  0
   41.9840   27.7780   43.7520 C   0  0  0  0  0  0  0  0  0  0  0  0
   41.5510   28.6330   42.8090 N   0  0  0  0  0  0  0  0  0  0  0  0
   43.3660   27.6730   44.0600 N   0  0  0  0  0  0  0  0  0  0  0  0
   44.2020   28.0370   43.0770 C   0  0  0  0  0  0  0  0  0  0  0  0
   45.5690   27.9710   43.2800 C   0  0  0  0  0  0  0  0  0  0  0  0
   45.9610   27.5160   44.5360 C   0  0  0  0  0  0  0  0  0  0  0  0
   47.2030   27.4360   44.7730 O   0  0  0  0  0  0  0  0  0  0  0  0
   45.0980   27.1620   45.4890 N   0  0  0  0  0  0  0  0  0  0  0  0
   43.7870   27.2380   45.2600 C   0  0  0  0  0  0  0  0  0  0  0  0
   42.9580   26.9150   46.1310 O   0  0  0  0  0  0  0  0  0  0  0  0
   39.2480   27.2020   40.4740 C   0  0  0  0  0  0  0  0  0  0  0  0
   40.4270   26.8360   39.8230 C   0  0  0  0  0  0  0  0  0  0  0  0
   40.4230   25.4870   39.8160 N   0  0  0  0  0  0  0  0  0  0  0  0
   39.3010   25.0120   40.4270 C   0  0  0  0  0  0  0  0  0  0  0  0
   38.7970   23.7530   40.6940 C   0  0  0  0  0  0  0  0  0  0  0  0
   37.5830   23.6240   41.3600 C   0  0  0  0  0  0  0  0  0  0  0  0
   36.8590   24.7380   41.7670 C   0  0  0  0  0  0  0  0  0  0  0  0
   37.3380   26.0120   41.5130 C   0  0  0  0  0  0  0  0  0  0  0  0
   38.5460   26.0860   40.8510 C   0  0  0  0  0  0  0  0  0  0  0  0
   37.1340   31.2610   38.8080 C   0  0  0  0  0  0  0  0  0  0  0  0
   36.6430   32.4640   39.2430 F   0  0  0  0  0  0  0  0  0  0  0  0
   37.8930   31.4760   37.6770 F   0  0  0  0  0  0  0  0  0  0  0  0
   36.0390   30.4700   38.5000 F   0  0  0  0  0  0  0  0  0  0  0  0
   39.4755   31.2623   42.7259 H   0  0  0  0  0  0  0  0  0  0  0  0
   43.8028   28.3865   42.1134 H   0  0  0  0  0  0  0  0  0  0  0  0
   46.2944   28.2576   42.5043 H   0  0  0  0  0  0  0  0  0  0  0  0
   45.4439   26.8303   46.4007 H   0  0  0  0  0  0  0  0  0  0  0  0
   41.1946   27.5040   39.4053 H   0  0  0  0  0  0  0  0  0  0  0  0
   41.1632   24.8991   39.4068 H   0  0  0  0  0  0  0  0  0  0  0  0
   39.3535   22.8572   40.3812 H   0  0  0  0  0  0  0  0  0  0  0  0
   37.1876   22.6190   41.5690 H   0  0  0  0  0  0  0  0  0  0  0  0
   35.9018   24.6072   42.2929 H   0  0  0  0  0  0  0  0  0  0  0  0
   36.7872   26.9129   41.8212 H   0  0  0  0  0  0  0  0  0  0  0  0
  2  1  2  0
  2  7  1  0
  3  2  1  0
  4  5  1  0
  4  3  2  0
  5  6  2  0
  6  1  1  0
  7 11  1  0
  7  8  2  0
  8  9  1  0
 10 12  1  0
 10  9  1  0
 11 10  2  0
 12 18  1  0
 13 14  2  0
 13 12  1  0
 14 15  1  0
 15 16  2  0
 15 17  1  0
 18 17  1  0
 18 19  2  0
 20  3  1  0
 20 28  1  0
 21 20  2  0
 22 21  1  0
 22 23  1  0
 23 24  2  0
 23 28  1  0
 24 25  1  0
 25 26  2  0
 27 26  1  0
 28 27  2  0
 29 30  1  0
 29  5  1  0
 31 29  1  0
 32 29  1  0
  1 33  1  0
 13 34  1  0
 14 35  1  0
 17 36  1  0
 21 37  1  0
 22 38  1  0
 24 39  1  0
 25 40  1  0
 26 41  1  0
 27 42  1  0
M  ISO  8  33  14  34  14  35  14  36   9  37  14  38   9  39  14  40  14
M  ISO  2  41  14  42  14
M  END
>  <minimizedAffinity>  (1) 
-6.26992273

>  <minimizedRMSD>  (1) 
0.768033862

$$$$
