
     RDKit          3D

 43 46  0  0  0  0  0  0  0  0999 V2000
   37.3520   29.2490   41.2180 C   0  0  0  0  0  0  0  0  0  0  0  0
   37.6580   27.9510   41.5590 C   0  0  0  0  0  0  0  0  0  0  0  0
   36.9990   26.9160   40.8860 C   0  0  0  0  0  0  0  0  0  0  0  0
   36.0800   27.2570   39.9180 N   0  0  0  0  0  0  0  0  0  0  0  0
   35.8230   28.5600   39.6290 C   0  0  0  0  0  0  0  0  0  0  0  0
   36.4590   29.5270   40.2790 N   0  0  0  0  0  0  0  0  0  0  0  0
   37.0730   25.4880   41.0230 N   0  0  0  0  0  0  0  0  0  0  0  0
   37.4330   24.5260   42.0310 C   0  0  0  0  0  0  0  0  0  0  0  0
   38.3790   23.4690   41.5710 C   0  0  0  0  0  0  0  0  0  0  0  0
   38.0940   23.0070   40.1570 C   0  0  0  0  0  0  0  0  0  0  0  0
   36.7050   23.4340   39.7210 C   0  0  0  0  0  0  0  0  0  0  0  0
   36.6560   24.9220   39.7300 C   0  0  0  0  0  0  0  0  0  0  0  0
   38.6150   27.4930   42.5590 C   0  0  0  0  0  0  0  0  0  0  0  0
   38.5120   27.2920   43.8680 N   0  0  0  0  0  0  0  0  0  0  0  0
   39.6580   26.8770   44.3420 O   0  0  0  0  0  0  0  0  0  0  0  0
   40.5410   26.7910   43.3710 C   0  0  0  0  0  0  0  0  0  0  0  0
   39.9090   27.1700   42.2580 N   0  0  0  0  0  0  0  0  0  0  0  0
   41.8970   26.4010   43.3570 N   0  0  0  0  0  0  0  0  0  0  0  0
   42.3400   25.9450   42.1680 C   0  0  0  0  0  0  0  0  0  0  0  0
   43.6460   25.5320   42.0220 C   0  0  0  0  0  0  0  0  0  0  0  0
   44.4260   25.6300   43.1820 C   0  0  0  0  0  0  0  0  0  0  0  0
   45.6380   25.2680   43.1260 O   0  0  0  0  0  0  0  0  0  0  0  0
   43.9600   26.0870   44.3510 N   0  0  0  0  0  0  0  0  0  0  0  0
   42.6830   26.4730   44.4280 C   0  0  0  0  0  0  0  0  0  0  0  0
   42.2140   26.9070   45.5130 O   0  0  0  0  0  0  0  0  0  0  0  0
   34.8220   28.8360   38.5820 C   0  0  0  0  0  0  0  0  0  0  0  0
   35.2360   29.8640   37.7800 F   0  0  0  0  0  0  0  0  0  0  0  0
   34.5810   27.7080   37.8330 F   0  0  0  0  0  0  0  0  0  0  0  0
   33.6250   29.2450   39.1830 F   0  0  0  0  0  0  0  0  0  0  0  0
   37.8605   30.0749   41.7370 H   0  0  0  0  0  0  0  0  0  0  0  0
   37.9013   25.0649   42.8678 H   0  0  0  0  0  0  0  0  0  0  0  0
   36.5040   24.0103   42.3156 H   0  0  0  0  0  0  0  0  0  0  0  0
   39.4023   23.8706   41.6108 H   0  0  0  0  0  0  0  0  0  0  0  0
   38.2574   22.6011   42.2358 H   0  0  0  0  0  0  0  0  0  0  0  0
   38.8372   23.4482   39.4766 H   0  0  0  0  0  0  0  0  0  0  0  0
   38.1515   21.9089   40.1262 H   0  0  0  0  0  0  0  0  0  0  0  0
   35.9550   23.0318   40.4180 H   0  0  0  0  0  0  0  0  0  0  0  0
   36.4867   23.0510   38.7132 H   0  0  0  0  0  0  0  0  0  0  0  0
   37.3260   25.3025   38.9450 H   0  0  0  0  0  0  0  0  0  0  0  0
   35.6138   25.2249   39.5511 H   0  0  0  0  0  0  0  0  0  0  0  0
   41.6541   25.9025   41.3091 H   0  0  0  0  0  0  0  0  0  0  0  0
   44.0455   25.1547   41.0691 H   0  0  0  0  0  0  0  0  0  0  0  0
   44.5746   26.1401   45.1759 H   0  0  0  0  0  0  0  0  0  0  0  0
  1  2  2  0
  2 13  1  0
  3  7  1  0
  3  2  1  0
  4  3  2  0
  5  4  1  0
  5  6  2  0
  6  1  1  0
  7  8  1  0
  9  8  1  0
 10  9  1  0
 11 12  1  0
 11 10  1  0
 12  7  1  0
 13 14  2  0
 14 15  1  0
 16 15  1  0
 17 13  1  0
 17 16  2  0
 18 16  1  0
 18 24  1  0
 19 18  1  0
 20 19  2  0
 20 21  1  0
 21 23  1  0
 22 21  2  0
 23 24  1  0
 24 25  2  0
 26 29  1  0
 26  5  1  0
 27 26  1  0
 28 26  1  0
  1 30  1  0
  8 31  1  0
  8 32  1  0
  9 33  1  0
  9 34  1  0
 10 35  1  0
 10 36  1  0
 11 37  1  0
 11 38  1  0
 12 39  1  0
 12 40  1  0
 19 41  1  0
 20 42  1  0
 23 43  1  0
M  ISO  8  30  14  31  13  32  13  33  13  34  13  35  13  36  13  37  13
M  ISO  6  38  13  39  13  40  13  41  14  42  14  43   9
M  END
>  <minimizedAffinity>  (1) 
-6.24009275

>  <minimizedRMSD>  (1) 
3.24959588

$$$$
