
     RDKit          3D

 35 38  0  0  0  0  0  0  0  0999 V2000
   37.0430   29.1570   41.6200 C   0  0  0  0  0  0  0  0  0  0  0  0
   37.5680   27.8890   41.7130 C   0  0  0  0  0  0  0  0  0  0  0  0
   37.1220   26.8980   40.8110 C   0  0  0  0  0  0  0  0  0  0  0  0
   36.1770   27.2640   39.8780 N   0  0  0  0  0  0  0  0  0  0  0  0
   35.7020   28.5170   39.8380 C   0  0  0  0  0  0  0  0  0  0  0  0
   36.1300   29.4600   40.7010 N   0  0  0  0  0  0  0  0  0  0  0  0
   37.5760   25.5450   40.7870 N   0  0  0  0  0  0  0  0  0  0  0  0
   38.4580   24.9980   39.9520 N   0  0  0  0  0  0  0  0  0  0  0  0
   38.6520   23.7000   40.2140 C   0  0  0  0  0  0  0  0  0  0  0  0
   37.8330   23.4200   41.2860 C   0  0  0  0  0  0  0  0  0  0  0  0
   37.1580   24.5720   41.6480 C   0  0  0  0  0  0  0  0  0  0  0  0
   38.5720   27.3950   42.6610 C   0  0  0  0  0  0  0  0  0  0  0  0
   38.5050   27.0980   43.9680 N   0  0  0  0  0  0  0  0  0  0  0  0
   39.6900   26.6870   44.3700 O   0  0  0  0  0  0  0  0  0  0  0  0
   40.5320   26.7030   43.3760 C   0  0  0  0  0  0  0  0  0  0  0  0
   39.8510   27.1430   42.3050 N   0  0  0  0  0  0  0  0  0  0  0  0
   41.9110   26.3630   43.2770 N   0  0  0  0  0  0  0  0  0  0  0  0
   42.3130   25.9880   42.0490 C   0  0  0  0  0  0  0  0  0  0  0  0
   43.6320   25.6330   41.8300 C   0  0  0  0  0  0  0  0  0  0  0  0
   44.4520   25.7030   42.9530 C   0  0  0  0  0  0  0  0  0  0  0  0
   45.6740   25.3880   42.8090 O   0  0  0  0  0  0  0  0  0  0  0  0
   44.0190   26.0810   44.1620 N   0  0  0  0  0  0  0  0  0  0  0  0
   42.7400   26.4120   44.3210 C   0  0  0  0  0  0  0  0  0  0  0  0
   42.3020   26.7700   45.4410 O   0  0  0  0  0  0  0  0  0  0  0  0
   34.6890   28.8120   38.8010 C   0  0  0  0  0  0  0  0  0  0  0  0
   35.1420   29.8320   37.9770 F   0  0  0  0  0  0  0  0  0  0  0  0
   34.4080   27.7010   38.0540 F   0  0  0  0  0  0  0  0  0  0  0  0
   33.5320   29.2930   39.3970 F   0  0  0  0  0  0  0  0  0  0  0  0
   37.3845   29.9351   42.3186 H   0  0  0  0  0  0  0  0  0  0  0  0
   39.3220   23.0053   39.6863 H   0  0  0  0  0  0  0  0  0  0  0  0
   37.7322   22.4397   41.7747 H   0  0  0  0  0  0  0  0  0  0  0  0
   36.4304   24.6818   42.4657 H   0  0  0  0  0  0  0  0  0  0  0  0
   41.5922   25.9637   41.2184 H   0  0  0  0  0  0  0  0  0  0  0  0
   44.0046   25.3193   40.8437 H   0  0  0  0  0  0  0  0  0  0  0  0
   44.6688   26.1153   44.9605 H   0  0  0  0  0  0  0  0  0  0  0  0
  1  2  2  0
  2 12  1  0
  3  2  1  0
  4  3  2  0
  5  4  1  0
  5  6  2  0
  6  1  1  0
  7  3  1  0
  7 11  1  0
  8  9  2  0
  8  7  1  0
  9 10  1  0
 10 11  2  0
 12 13  2  0
 13 14  1  0
 15 14  1  0
 16 12  1  0
 16 15  2  0
 17 15  1  0
 17 23  1  0
 18 17  1  0
 19 18  2  0
 19 20  1  0
 20 22  1  0
 21 20  2  0
 22 23  1  0
 23 24  2  0
 25 28  1  0
 25  5  1  0
 26 25  1  0
 27 25  1  0
  1 29  1  0
  9 30  1  0
 10 31  1  0
 11 32  1  0
 18 33  1  0
 19 34  1  0
 22 35  1  0
M  ISO  7  29  14  30  14  31  14  32  14  33  14  34  14  35   9
M  END
>  <minimizedAffinity>  (1) 
-6.19590425

>  <minimizedRMSD>  (1) 
3.19707274

$$$$
