
     RDKit          3D

 38 41  0  0  0  0  0  0  0  0999 V2000
   39.4280   30.6010   40.9000 C   0  0  0  0  0  0  0  0  0  0  0  0
   39.2800   29.2560   41.1500 C   0  0  0  0  0  0  0  0  0  0  0  0
   38.4020   28.5080   40.3340 C   0  0  0  0  0  0  0  0  0  0  0  0
   37.7380   29.1690   39.3270 N   0  0  0  0  0  0  0  0  0  0  0  0
   37.9290   30.4850   39.1370 C   0  0  0  0  0  0  0  0  0  0  0  0
   38.7590   31.1890   39.9090 N   0  0  0  0  0  0  0  0  0  0  0  0
   38.1970   27.1160   40.5310 N   0  0  0  0  0  0  0  0  0  0  0  0
   38.9170   26.2510   39.7750 C   0  0  0  0  0  0  0  0  0  0  0  0
   38.7310   24.9000   39.9510 C   0  0  0  0  0  0  0  0  0  0  0  0
   37.8160   24.4340   40.8940 C   0  0  0  0  0  0  0  0  0  0  0  0
   37.5860   23.2050   41.1180 O   0  0  0  0  0  0  0  0  0  0  0  0
   37.1450   25.3750   41.6000 N   0  0  0  0  0  0  0  0  0  0  0  0
   37.3060   26.6950   41.4490 C   0  0  0  0  0  0  0  0  0  0  0  0
   36.6690   27.5310   42.1190 O   0  0  0  0  0  0  0  0  0  0  0  0
   39.9390   28.4600   42.1960 C   0  0  0  0  0  0  0  0  0  0  0  0
   39.5440   28.0700   43.4030 N   0  0  0  0  0  0  0  0  0  0  0  0
   40.5070   27.3690   43.9500 O   0  0  0  0  0  0  0  0  0  0  0  0
   41.5400   27.2810   43.1320 C   0  0  0  0  0  0  0  0  0  0  0  0
   41.1890   27.9600   42.0410 N   0  0  0  0  0  0  0  0  0  0  0  0
   42.7900   26.6410   43.2730 N   0  0  0  0  0  0  0  0  0  0  0  0
   43.3730   26.3180   42.0830 C   0  0  0  0  0  0  0  0  0  0  0  0
   44.6010   25.6800   42.0760 C   0  0  0  0  0  0  0  0  0  0  0  0
   45.1440   25.4190   43.3300 C   0  0  0  0  0  0  0  0  0  0  0  0
   46.2630   24.8390   43.4140 O   0  0  0  0  0  0  0  0  0  0  0  0
   44.5360   25.7550   44.4670 N   0  0  0  0  0  0  0  0  0  0  0  0
   43.3510   26.3690   44.4440 C   0  0  0  0  0  0  0  0  0  0  0  0
   42.7560   26.6960   45.4880 O   0  0  0  0  0  0  0  0  0  0  0  0
   37.1730   31.1140   38.0290 C   0  0  0  0  0  0  0  0  0  0  0  0
   36.8810   32.4270   38.3430 F   0  0  0  0  0  0  0  0  0  0  0  0
   37.8840   31.0760   36.8600 F   0  0  0  0  0  0  0  0  0  0  0  0
   35.9480   30.4790   37.8730 F   0  0  0  0  0  0  0  0  0  0  0  0
   40.1071   31.1983   41.5261 H   0  0  0  0  0  0  0  0  0  0  0  0
   39.6383   26.6239   39.0329 H   0  0  0  0  0  0  0  0  0  0  0  0
   39.3063   24.1842   39.3455 H   0  0  0  0  0  0  0  0  0  0  0  0
   36.4636   25.0524   42.3018 H   0  0  0  0  0  0  0  0  0  0  0  0
   42.8706   26.5629   41.1356 H   0  0  0  0  0  0  0  0  0  0  0  0
   45.1123   25.3987   41.1436 H   0  0  0  0  0  0  0  0  0  0  0  0
   44.9833   25.5396   45.3695 H   0  0  0  0  0  0  0  0  0  0  0  0
  1  2  2  0
  2 15  1  0
  3  7  1  0
  3  2  1  0
  4  3  2  0
  5  4  1  0
  5  6  2  0
  6  1  1  0
  7 13  1  0
  8  9  2  0
  8  7  1  0
  9 10  1  0
 10 11  2  0
 10 12  1  0
 13 12  1  0
 13 14  2  0
 15 16  2  0
 16 17  1  0
 18 20  1  0
 18 17  1  0
 19 15  1  0
 19 18  2  0
 20 26  1  0
 21 20  1  0
 22 21  2  0
 22 23  1  0
 23 24  2  0
 23 25  1  0
 26 25  1  0
 26 27  2  0
 28 29  1  0
 28  5  1  0
 30 28  1  0
 31 28  1  0
  1 32  1  0
  8 33  1  0
  9 34  1  0
 12 35  1  0
 21 36  1  0
 22 37  1  0
 25 38  1  0
M  ISO  7  32  14  33  14  34  14  35   9  36  14  37  14  38   9
M  END
>  <minimizedAffinity>  (1) 
-6.14929771

>  <minimizedRMSD>  (1) 
1.95720112

$$$$
