
     RDKit          3D

 37 40  0  0  0  0  0  0  0  0999 V2000
   39.1480   29.9720   40.5580 C   0  0  0  0  0  0  0  0  0  0  0  0
   39.0520   28.6720   41.0130 C   0  0  0  0  0  0  0  0  0  0  0  0
   38.1900   27.7740   40.3340 C   0  0  0  0  0  0  0  0  0  0  0  0
   37.4980   28.2550   39.2580 N   0  0  0  0  0  0  0  0  0  0  0  0
   37.6320   29.5430   38.8570 C   0  0  0  0  0  0  0  0  0  0  0  0
   38.4460   30.3760   39.5040 N   0  0  0  0  0  0  0  0  0  0  0  0
   39.7570   28.0740   42.1520 C   0  0  0  0  0  0  0  0  0  0  0  0
   39.3700   27.8230   43.3980 N   0  0  0  0  0  0  0  0  0  0  0  0
   40.3660   27.2750   44.0520 O   0  0  0  0  0  0  0  0  0  0  0  0
   41.4050   27.1550   43.2720 C   0  0  0  0  0  0  0  0  0  0  0  0
   41.0390   27.6500   42.0850 N   0  0  0  0  0  0  0  0  0  0  0  0
   42.7050   26.6370   43.4890 N   0  0  0  0  0  0  0  0  0  0  0  0
   43.3400   26.2110   42.3750 C   0  0  0  0  0  0  0  0  0  0  0  0
   44.6130   25.6850   42.4550 C   0  0  0  0  0  0  0  0  0  0  0  0
   45.1520   25.6410   43.7460 C   0  0  0  0  0  0  0  0  0  0  0  0
   46.3200   25.1700   43.8900 O   0  0  0  0  0  0  0  0  0  0  0  0
   44.4950   26.0730   44.8260 N   0  0  0  0  0  0  0  0  0  0  0  0
   43.2630   26.5740   44.6920 C   0  0  0  0  0  0  0  0  0  0  0  0
   42.6260   26.9850   45.6930 O   0  0  0  0  0  0  0  0  0  0  0  0
   38.0500   26.3770   40.7750 C   0  0  0  0  0  0  0  0  0  0  0  0
   37.0330   26.0090   41.6440 C   0  0  0  0  0  0  0  0  0  0  0  0
   36.9410   24.6930   42.0280 C   0  0  0  0  0  0  0  0  0  0  0  0
   37.8830   23.8130   41.5150 C   0  0  0  0  0  0  0  0  0  0  0  0
   38.8970   24.1750   40.6510 C   0  0  0  0  0  0  0  0  0  0  0  0
   38.9160   25.4680   40.3280 N   0  0  0  0  0  0  0  0  0  0  0  0
   36.8380   29.9530   37.6900 C   0  0  0  0  0  0  0  0  0  0  0  0
   37.1080   31.2680   37.3760 F   0  0  0  0  0  0  0  0  0  0  0  0
   37.1300   29.1740   36.6000 F   0  0  0  0  0  0  0  0  0  0  0  0
   35.4780   29.8950   37.9840 F   0  0  0  0  0  0  0  0  0  0  0  0
   39.8126   30.6811   41.0733 H   0  0  0  0  0  0  0  0  0  0  0  0
   42.8390   26.2840   41.3984 H   0  0  0  0  0  0  0  0  0  0  0  0
   45.1624   25.3275   41.5716 H   0  0  0  0  0  0  0  0  0  0  0  0
   44.9349   26.0204   45.7559 H   0  0  0  0  0  0  0  0  0  0  0  0
   36.3158   26.7547   42.0175 H   0  0  0  0  0  0  0  0  0  0  0  0
   36.1524   24.3509   42.7144 H   0  0  0  0  0  0  0  0  0  0  0  0
   37.8176   22.7572   41.8166 H   0  0  0  0  0  0  0  0  0  0  0  0
   39.6304   23.4542   40.2605 H   0  0  0  0  0  0  0  0  0  0  0  0
  1  2  2  0
  2  7  1  0
  3 20  1  0
  3  2  1  0
  4  3  2  0
  5  4  1  0
  5  6  2  0
  6  1  1  0
  7  8  2  0
  8  9  1  0
 10 12  1  0
 10  9  1  0
 11  7  1  0
 11 10  2  0
 12 18  1  0
 13 14  2  0
 13 12  1  0
 14 15  1  0
 15 16  2  0
 15 17  1  0
 18 17  1  0
 18 19  2  0
 20 21  2  0
 21 22  1  0
 23 22  2  0
 24 23  1  0
 25 24  2  0
 25 20  1  0
 26 29  1  0
 26  5  1  0
 27 26  1  0
 28 26  1  0
  1 30  1  0
 13 31  1  0
 14 32  1  0
 17 33  1  0
 21 34  1  0
 22 35  1  0
 23 36  1  0
 24 37  1  0
M  ISO  8  30  14  31  14  32  14  33   9  34  14  35  14  36  14  37  14
M  END
>  <minimizedAffinity>  (1) 
-5.87756062

>  <minimizedRMSD>  (1) 
2.22838736

$$$$
