
     RDKit          3D

 35 38  0  0  0  0  0  0  0  0999 V2000
   38.9580   27.6750   42.2890 C   0  0  0  0  0  0  0  0  0  0  0  0
   38.6810   27.4560   43.5890 N   0  0  0  0  0  0  0  0  0  0  0  0
   39.7640   26.9970   44.1780 O   0  0  0  0  0  0  0  0  0  0  0  0
   40.7410   26.9050   43.3240 C   0  0  0  0  0  0  0  0  0  0  0  0
   40.2590   27.3240   42.1310 N   0  0  0  0  0  0  0  0  0  0  0  0
   42.0900   26.4740   43.4490 N   0  0  0  0  0  0  0  0  0  0  0  0
   42.6400   25.9990   42.3030 C   0  0  0  0  0  0  0  0  0  0  0  0
   43.9420   25.5500   42.2920 C   0  0  0  0  0  0  0  0  0  0  0  0
   44.6050   25.6330   43.5330 C   0  0  0  0  0  0  0  0  0  0  0  0
   45.8070   25.2370   43.5920 O   0  0  0  0  0  0  0  0  0  0  0  0
   44.0300   26.1070   44.6410 N   0  0  0  0  0  0  0  0  0  0  0  0
   42.7620   26.5300   44.5920 C   0  0  0  0  0  0  0  0  0  0  0  0
   42.1960   26.9790   45.6130 O   0  0  0  0  0  0  0  0  0  0  0  0
   37.8930   29.4860   40.8400 C   0  0  0  0  0  0  0  0  0  0  0  0
   38.1350   28.1750   41.1850 C   0  0  0  0  0  0  0  0  0  0  0  0
   37.5430   27.1500   40.4160 C   0  0  0  0  0  0  0  0  0  0  0  0
   36.7500   27.5070   39.3540 N   0  0  0  0  0  0  0  0  0  0  0  0
   36.5520   28.8180   39.0660 C   0  0  0  0  0  0  0  0  0  0  0  0
   37.1160   29.7780   39.7990 N   0  0  0  0  0  0  0  0  0  0  0  0
   37.7270   25.7520   40.6850 N   0  0  0  0  0  0  0  0  0  0  0  0
   37.5150   25.4430   41.9990 C   0  0  0  0  0  0  0  0  0  0  0  0
   37.7210   24.0720   42.1340 C   0  0  0  0  0  0  0  0  0  0  0  0
   38.0510   23.6020   40.8980 N   0  0  0  0  0  0  0  0  0  0  0  0
   38.0520   24.6260   40.0240 C   0  0  0  0  0  0  0  0  0  0  0  0
   35.6870   29.1130   37.9100 C   0  0  0  0  0  0  0  0  0  0  0  0
   36.1320   30.2570   37.2660 F   0  0  0  0  0  0  0  0  0  0  0  0
   35.6960   28.0820   37.0100 F   0  0  0  0  0  0  0  0  0  0  0  0
   34.3850   29.3730   38.3330 F   0  0  0  0  0  0  0  0  0  0  0  0
   42.0436   25.9725   41.3791 H   0  0  0  0  0  0  0  0  0  0  0  0
   44.4264   25.1574   41.3858 H   0  0  0  0  0  0  0  0  0  0  0  0
   44.5577   26.1465   45.5247 H   0  0  0  0  0  0  0  0  0  0  0  0
   38.3449   30.2979   41.4287 H   0  0  0  0  0  0  0  0  0  0  0  0
   37.2347   26.1442   42.7988 H   0  0  0  0  0  0  0  0  0  0  0  0
   37.6342   23.4829   43.0589 H   0  0  0  0  0  0  0  0  0  0  0  0
   38.2801   24.5542   38.9503 H   0  0  0  0  0  0  0  0  0  0  0  0
  1  2  2  0
  2  3  1  0
  4  6  1  0
  4  3  1  0
  5  1  1  0
  5  4  2  0
  6 12  1  0
  7  6  1  0
  8  7  2  0
  8  9  1  0
  9 10  2  0
  9 11  1  0
 12 11  1  0
 12 13  2  0
 14 15  2  0
 15  1  1  0
 16 20  1  0
 16 15  1  0
 17 16  2  0
 18 17  1  0
 18 19  2  0
 19 14  1  0
 20 21  1  0
 21 22  2  0
 23 22  1  0
 24 20  1  0
 24 23  2  0
 25 28  1  0
 25 18  1  0
 26 25  1  0
 27 25  1  0
  7 29  1  0
  8 30  1  0
 11 31  1  0
 14 32  1  0
 21 33  1  0
 22 34  1  0
 24 35  1  0
M  ISO  7  29  14  30  14  31   9  32  14  33  14  34  14  35  14
M  END
>  <minimizedAffinity>  (1) 
-5.62761164

>  <minimizedRMSD>  (1) 
2.7879355

$$$$
