
     RDKit          3D

 30 32  0  0  0  0  0  0  0  0999 V2000
   40.1860   28.6580   42.6430 C   0  0  0  0  0  0  0  0  0  0  0  0
   39.8320   27.6370   43.4360 N   0  0  0  0  0  0  0  0  0  0  0  0
   40.8870   27.2520   44.1170 O   0  0  0  0  0  0  0  0  0  0  0  0
   41.9330   27.9910   43.7960 C   0  0  0  0  0  0  0  0  0  0  0  0
   41.5070   28.8650   42.8830 N   0  0  0  0  0  0  0  0  0  0  0  0
   43.2620   27.9640   44.2460 N   0  0  0  0  0  0  0  0  0  0  0  0
   44.1580   28.5030   43.3690 C   0  0  0  0  0  0  0  0  0  0  0  0
   45.5040   28.5380   43.6860 C   0  0  0  0  0  0  0  0  0  0  0  0
   45.8280   27.9870   44.9410 C   0  0  0  0  0  0  0  0  0  0  0  0
   47.0420   27.9860   45.2930 O   0  0  0  0  0  0  0  0  0  0  0  0
   44.9230   27.4690   45.7710 N   0  0  0  0  0  0  0  0  0  0  0  0
   43.6340   27.4600   45.4180 C   0  0  0  0  0  0  0  0  0  0  0  0
   42.7680   26.9820   46.1750 O   0  0  0  0  0  0  0  0  0  0  0  0
   38.9730   30.7560   41.8580 C   0  0  0  0  0  0  0  0  0  0  0  0
   39.4110   29.4470   41.6920 C   0  0  0  0  0  0  0  0  0  0  0  0
   39.0870   28.8050   40.5010 C   0  0  0  0  0  0  0  0  0  0  0  0
   38.3620   29.4890   39.5640 N   0  0  0  0  0  0  0  0  0  0  0  0
   37.9640   30.7480   39.7750 C   0  0  0  0  0  0  0  0  0  0  0  0
   38.2710   31.3660   40.9110 N   0  0  0  0  0  0  0  0  0  0  0  0
   37.1820   31.4190   38.7180 C   0  0  0  0  0  0  0  0  0  0  0  0
   36.6770   32.6100   39.1650 F   0  0  0  0  0  0  0  0  0  0  0  0
   37.9610   31.6240   37.5970 F   0  0  0  0  0  0  0  0  0  0  0  0
   36.0960   30.6110   38.3630 F   0  0  0  0  0  0  0  0  0  0  0  0
   39.4350   27.4650   40.1080 C   0  0  0  0  0  0  0  0  0  0  0  0
   38.9570   26.3220   40.2040 O   0  0  0  0  0  0  0  0  0  0  0  0
   43.8093   28.9103   42.4085 H   0  0  0  0  0  0  0  0  0  0  0  0
   46.2617   28.9627   43.0110 H   0  0  0  0  0  0  0  0  0  0  0  0
   45.2150   27.0783   46.6782 H   0  0  0  0  0  0  0  0  0  0  0  0
   39.2116   31.2938   42.7874 H   0  0  0  0  0  0  0  0  0  0  0  0
   40.3950   27.4477   39.5712 H   0  0  0  0  0  0  0  0  0  0  0  0
  1  5  1  0
  1  2  2  0
  2  3  1  0
  4  3  1  0
  4  6  1  0
  5  4  2  0
  6 12  1  0
  7  8  2  0
  7  6  1  0
  8  9  1  0
  9 10  2  0
  9 11  1  0
 12 11  1  0
 12 13  2  0
 15 14  2  0
 15  1  1  0
 16 15  1  0
 17 18  1  0
 17 16  2  0
 18 19  2  0
 19 14  1  0
 20 21  1  0
 20 18  1  0
 22 20  1  0
 23 20  1  0
 24 25  2  0
 24 16  1  0
  7 26  1  0
  8 27  1  0
 11 28  1  0
 14 29  1  0
 24 30  1  0
M  ISO  5  26  14  27  14  28   9  29  14  30   6
M  END
>  <minimizedAffinity>  (1) 
-4.59425735

>  <minimizedRMSD>  (1) 
0.537530184

$$$$
