
     RDKit          3D

 50 53  0  0  0  0  0  0  0  0999 V2000
   39.2240   30.7440   41.6890 C   0  0  0  0  0  0  0  0  0  0  0  0
   39.3810   29.3700   41.6600 C   0  0  0  0  0  0  0  0  0  0  0  0
   38.7650   28.6350   40.6260 C   0  0  0  0  0  0  0  0  0  0  0  0
   38.0430   29.3910   39.7160 N   0  0  0  0  0  0  0  0  0  0  0  0
   37.9260   30.7220   39.7970 C   0  0  0  0  0  0  0  0  0  0  0  0
   38.5100   31.3900   40.7730 N   0  0  0  0  0  0  0  0  0  0  0  0
   40.1380   28.5810   42.6100 C   0  0  0  0  0  0  0  0  0  0  0  0
   39.7570   27.7360   43.5470 N   0  0  0  0  0  0  0  0  0  0  0  0
   40.7670   27.2450   44.1730 O   0  0  0  0  0  0  0  0  0  0  0  0
   41.8770   27.7330   43.6870 C   0  0  0  0  0  0  0  0  0  0  0  0
   41.5030   28.5730   42.7060 N   0  0  0  0  0  0  0  0  0  0  0  0
   43.2620   27.5630   43.9710 N   0  0  0  0  0  0  0  0  0  0  0  0
   44.1100   27.8780   42.9890 C   0  0  0  0  0  0  0  0  0  0  0  0
   45.4660   27.7450   43.1860 C   0  0  0  0  0  0  0  0  0  0  0  0
   45.8380   27.2720   44.4480 C   0  0  0  0  0  0  0  0  0  0  0  0
   47.0680   27.1330   44.6810 O   0  0  0  0  0  0  0  0  0  0  0  0
   44.9520   26.9560   45.4370 N   0  0  0  0  0  0  0  0  0  0  0  0
   43.6550   27.1070   45.1820 C   0  0  0  0  0  0  0  0  0  0  0  0
   42.8200   26.8310   46.0520 O   0  0  0  0  0  0  0  0  0  0  0  0
   37.1190   31.3810   38.7480 C   0  0  0  0  0  0  0  0  0  0  0  0
   36.6320   32.5750   39.2160 F   0  0  0  0  0  0  0  0  0  0  0  0
   37.8550   31.5890   37.6260 F   0  0  0  0  0  0  0  0  0  0  0  0
   36.0020   30.5860   38.4410 F   0  0  0  0  0  0  0  0  0  0  0  0
   38.7990   27.1710   40.4110 C   0  0  0  0  0  0  0  0  0  0  0  0
   40.1720   26.6120   40.1680 C   0  0  0  0  0  0  0  0  0  0  0  0
   38.0980   26.9140   39.0250 C   0  0  0  0  0  0  0  0  0  0  0  0
   37.9960   26.3740   41.3700 C   0  0  0  0  0  0  0  0  0  0  0  0
   37.7580   24.9610   40.8710 C   0  0  0  0  0  0  0  0  0  0  0  0
   36.5380   24.6280   40.3140 C   0  0  0  0  0  0  0  0  0  0  0  0
   36.2220   23.3740   39.8370 C   0  0  0  0  0  0  0  0  0  0  0  0
   37.1810   22.3850   39.9170 C   0  0  0  0  0  0  0  0  0  0  0  0
   38.4110   22.6820   40.4670 C   0  0  0  0  0  0  0  0  0  0  0  0
   38.7170   23.9400   40.9420 C   0  0  0  0  0  0  0  0  0  0  0  0
   39.7045   31.3191   42.4942 H   0  0  0  0  0  0  0  0  0  0  0  0
   43.7261   28.2429   42.0249 H   0  0  0  0  0  0  0  0  0  0  0  0
   46.2027   27.9927   42.4076 H   0  0  0  0  0  0  0  0  0  0  0  0
   45.2772   26.6116   46.3516 H   0  0  0  0  0  0  0  0  0  0  0  0
   40.6625   26.4123   41.1321 H   0  0  0  0  0  0  0  0  0  0  0  0
   40.0908   25.6753   39.5970 H   0  0  0  0  0  0  0  0  0  0  0  0
   40.7681   27.3390   39.5970 H   0  0  0  0  0  0  0  0  0  0  0  0
   37.0775   26.5399   39.1940 H   0  0  0  0  0  0  0  0  0  0  0  0
   38.0542   27.8545   38.4563 H   0  0  0  0  0  0  0  0  0  0  0  0
   38.6725   26.1680   38.4563 H   0  0  0  0  0  0  0  0  0  0  0  0
   38.5318   26.3268   42.3295 H   0  0  0  0  0  0  0  0  0  0  0  0
   37.0180   26.8640   41.4858 H   0  0  0  0  0  0  0  0  0  0  0  0
   35.7706   25.4132   40.2471 H   0  0  0  0  0  0  0  0  0  0  0  0
   35.2321   23.1672   39.4042 H   0  0  0  0  0  0  0  0  0  0  0  0
   36.9673   21.3715   39.5466 H   0  0  0  0  0  0  0  0  0  0  0  0
   39.1719   21.8900   40.5286 H   0  0  0  0  0  0  0  0  0  0  0  0
   39.7082   24.1417   41.3744 H   0  0  0  0  0  0  0  0  0  0  0  0
  2  1  2  0
  2  7  1  0
  3  2  1  0
  4  5  1  0
  4  3  2  0
  5  6  2  0
  6  1  1  0
  7 11  1  0
  7  8  2  0
  8  9  1  0
 10 12  1  0
 10  9  1  0
 11 10  2  0
 12 18  1  0
 13 14  2  0
 13 12  1  0
 14 15  1  0
 15 16  2  0
 15 17  1  0
 18 17  1  0
 18 19  2  0
 20 21  1  0
 20  5  1  0
 22 20  1  0
 23 20  1  0
 24  3  1  0
 24 27  1  0
 25 24  1  0
 26 24  1  0
 28 33  1  0
 28 27  1  0
 29 28  2  0
 30 31  2  0
 30 29  1  0
 31 32  1  0
 32 33  2  0
  1 34  1  0
 13 35  1  0
 14 36  1  0
 17 37  1  0
 25 38  1  0
 25 39  1  0
 25 40  1  0
 26 41  1  0
 26 42  1  0
 26 43  1  0
 27 44  1  0
 27 45  1  0
 29 46  1  0
 30 47  1  0
 31 48  1  0
 32 49  1  0
 33 50  1  0
M  ISO  8  34  14  35  14  36  14  37   9  38   8  39   8  40   8  41   8
M  ISO  8  42   8  43   8  44   8  45   8  46  14  47  14  48  14  49  14
M  ISO  1  50  14
M  END
>  <minimizedAffinity>  (1) 
-5.72358465

>  <minimizedRMSD>  (1) 
0.615151823

$$$$
