
     RDKit          3D

 50 53  0  0  0  0  0  0  0  0999 V2000
   39.2870   30.8680   41.4760 C   0  0  0  0  0  0  0  0  0  0  0  0
   39.3250   29.4860   41.4560 C   0  0  0  0  0  0  0  0  0  0  0  0
   38.6610   28.7970   40.4170 C   0  0  0  0  0  0  0  0  0  0  0  0
   38.0170   29.6040   39.4930 N   0  0  0  0  0  0  0  0  0  0  0  0
   38.0130   30.9370   39.5610 C   0  0  0  0  0  0  0  0  0  0  0  0
   38.6430   31.5660   40.5450 N   0  0  0  0  0  0  0  0  0  0  0  0
   39.9980   28.6440   42.4220 C   0  0  0  0  0  0  0  0  0  0  0  0
   39.5450   27.9570   43.4510 N   0  0  0  0  0  0  0  0  0  0  0  0
   40.4950   27.3350   44.0550 O   0  0  0  0  0  0  0  0  0  0  0  0
   41.6330   27.5730   43.4600 C   0  0  0  0  0  0  0  0  0  0  0  0
   41.3390   28.3890   42.4360 N   0  0  0  0  0  0  0  0  0  0  0  0
   42.9820   27.1690   43.6740 N   0  0  0  0  0  0  0  0  0  0  0  0
   43.7960   27.2540   42.6180 C   0  0  0  0  0  0  0  0  0  0  0  0
   45.1180   26.8870   42.7390 C   0  0  0  0  0  0  0  0  0  0  0  0
   45.4970   26.4430   44.0120 C   0  0  0  0  0  0  0  0  0  0  0  0
   46.6960   26.0960   44.1780 O   0  0  0  0  0  0  0  0  0  0  0  0
   44.6470   26.3680   45.0630 N   0  0  0  0  0  0  0  0  0  0  0  0
   43.3820   26.7350   44.8890 C   0  0  0  0  0  0  0  0  0  0  0  0
   42.5780   26.6780   45.8320 O   0  0  0  0  0  0  0  0  0  0  0  0
   37.2820   31.6630   38.5010 C   0  0  0  0  0  0  0  0  0  0  0  0
   36.7280   32.8120   39.0130 F   0  0  0  0  0  0  0  0  0  0  0  0
   38.1070   31.9630   37.4640 F   0  0  0  0  0  0  0  0  0  0  0  0
   36.2200   30.8740   38.0410 F   0  0  0  0  0  0  0  0  0  0  0  0
   38.5720   27.3340   40.2130 C   0  0  0  0  0  0  0  0  0  0  0  0
   39.9010   26.6480   40.0700 C   0  0  0  0  0  0  0  0  0  0  0  0
   37.9440   27.1310   38.7860 C   0  0  0  0  0  0  0  0  0  0  0  0
   37.6350   26.6250   41.1190 C   0  0  0  0  0  0  0  0  0  0  0  0
   37.4100   25.1890   40.6830 C   0  0  0  0  0  0  0  0  0  0  0  0
   38.2700   24.1860   41.1000 C   0  0  0  0  0  0  0  0  0  0  0  0
   38.1270   22.8780   40.7410 C   0  0  0  0  0  0  0  0  0  0  0  0
   37.0930   22.5040   39.9290 C   0  0  0  0  0  0  0  0  0  0  0  0
   36.2120   23.4700   39.4890 C   0  0  0  0  0  0  0  0  0  0  0  0
   36.3520   24.7950   39.8500 C   0  0  0  0  0  0  0  0  0  0  0  0
   39.8040   31.4053   42.2847 H   0  0  0  0  0  0  0  0  0  0  0  0
   43.4110   27.6165   41.6535 H   0  0  0  0  0  0  0  0  0  0  0  0
   45.8244   26.9388   41.8974 H   0  0  0  0  0  0  0  0  0  0  0  0
   44.9748   26.0328   45.9801 H   0  0  0  0  0  0  0  0  0  0  0  0
   40.3131   26.4353   41.0675 H   0  0  0  0  0  0  0  0  0  0  0  0
   39.7695   25.7051   39.5189 H   0  0  0  0  0  0  0  0  0  0  0  0
   40.5934   27.3013   39.5189 H   0  0  0  0  0  0  0  0  0  0  0  0
   36.9019   26.7941   38.8886 H   0  0  0  0  0  0  0  0  0  0  0  0
   37.9691   28.0830   38.2355 H   0  0  0  0  0  0  0  0  0  0  0  0
   38.5216   26.3738   38.2355 H   0  0  0  0  0  0  0  0  0  0  0  0
   38.0530   26.6271   42.1365 H   0  0  0  0  0  0  0  0  0  0  0  0
   36.6676   27.1478   41.0887 H   0  0  0  0  0  0  0  0  0  0  0  0
   39.1113   24.4586   41.7542 H   0  0  0  0  0  0  0  0  0  0  0  0
   38.8424   22.1255   41.1042 H   0  0  0  0  0  0  0  0  0  0  0  0
   36.9658   21.4525   39.6320 H   0  0  0  0  0  0  0  0  0  0  0  0
   35.3777   23.1774   38.8346 H   0  0  0  0  0  0  0  0  0  0  0  0
   35.6331   25.5429   39.4841 H   0  0  0  0  0  0  0  0  0  0  0  0
  2  1  2  0
  2  7  1  0
  3  2  1  0
  4  5  1  0
  4  3  2  0
  5  6  2  0
  6  1  1  0
  7 11  1  0
  7  8  2  0
  8  9  1  0
 10 12  1  0
 10  9  1  0
 11 10  2  0
 12 18  1  0
 13 14  2  0
 13 12  1  0
 14 15  1  0
 15 16  2  0
 15 17  1  0
 18 17  1  0
 18 19  2  0
 20 21  1  0
 20  5  1  0
 22 20  1  0
 23 20  1  0
 24  3  1  0
 24 27  1  0
 25 24  1  0
 26 24  1  0
 28 29  2  0
 28 27  1  0
 30 29  1  0
 31 30  2  0
 32 33  2  0
 32 31  1  0
 33 28  1  0
  1 34  1  0
 13 35  1  0
 14 36  1  0
 17 37  1  0
 25 38  1  0
 25 39  1  0
 25 40  1  0
 26 41  1  0
 26 42  1  0
 26 43  1  0
 27 44  1  0
 27 45  1  0
 29 46  1  0
 30 47  1  0
 31 48  1  0
 32 49  1  0
 33 50  1  0
M  ISO  8  34  14  35  14  36  14  37   9  38   8  39   8  40   8  41   8
M  ISO  8  42   8  43   8  44   8  45   8  46  14  47  14  48  14  49  14
M  ISO  1  50  14
M  END
>  <minimizedAffinity>  (1) 
-5.68768311

>  <minimizedRMSD>  (1) 
0.727034271

$$$$
