
     RDKit          3D

 52 55  0  0  0  0  0  0  0  0999 V2000
   39.8850   30.9130   40.6180 C   0  0  0  0  0  0  0  0  0  0  0  0
   39.5690   29.5900   40.8850 C   0  0  0  0  0  0  0  0  0  0  0  0
   38.5960   28.9510   40.0940 C   0  0  0  0  0  0  0  0  0  0  0  0
   38.0340   29.7340   39.0980 N   0  0  0  0  0  0  0  0  0  0  0  0
   38.3740   30.9990   38.8870 C   0  0  0  0  0  0  0  0  0  0  0  0
   39.2920   31.5880   39.6370 N   0  0  0  0  0  0  0  0  0  0  0  0
   40.1480   28.7690   41.9280 C   0  0  0  0  0  0  0  0  0  0  0  0
   39.7070   28.4330   43.1260 N   0  0  0  0  0  0  0  0  0  0  0  0
   40.5480   27.6740   43.7360 O   0  0  0  0  0  0  0  0  0  0  0  0
   41.5940   27.4650   42.9850 C   0  0  0  0  0  0  0  0  0  0  0  0
   41.3490   28.1440   41.8590 N   0  0  0  0  0  0  0  0  0  0  0  0
   42.8060   26.7330   43.1260 N   0  0  0  0  0  0  0  0  0  0  0  0
   43.4280   26.3960   41.9920 C   0  0  0  0  0  0  0  0  0  0  0  0
   44.6130   25.6970   42.0410 C   0  0  0  0  0  0  0  0  0  0  0  0
   45.0700   25.3940   43.3210 C   0  0  0  0  0  0  0  0  0  0  0  0
   46.1540   24.7550   43.4220 O   0  0  0  0  0  0  0  0  0  0  0  0
   44.4190   25.7470   44.4620 N   0  0  0  0  0  0  0  0  0  0  0  0
   43.2740   26.4240   44.3590 C   0  0  0  0  0  0  0  0  0  0  0  0
   42.6500   26.7640   45.3730 O   0  0  0  0  0  0  0  0  0  0  0  0
   37.6830   31.7030   37.7860 C   0  0  0  0  0  0  0  0  0  0  0  0
   37.0570   32.8270   38.2670 F   0  0  0  0  0  0  0  0  0  0  0  0
   38.5660   32.0540   36.8070 F   0  0  0  0  0  0  0  0  0  0  0  0
   36.6950   30.8820   37.2440 F   0  0  0  0  0  0  0  0  0  0  0  0
   38.0970   27.5400   40.2120 C   0  0  0  0  0  0  0  0  0  0  0  0
   39.1140   26.5130   39.7560 C   0  0  0  0  0  0  0  0  0  0  0  0
   36.9770   27.3840   39.1170 C   0  0  0  0  0  0  0  0  0  0  0  0
   37.4160   27.2330   41.4750 C   0  0  0  0  0  0  0  0  0  0  0  0
   37.0060   25.8190   41.6870 N   0  0  0  0  0  0  0  0  0  0  0  0
   38.1290   25.1590   42.3860 C   0  0  0  0  0  0  0  0  0  0  0  0
   38.2670   23.7810   41.8670 C   0  0  0  0  0  0  0  0  0  0  0  0
   37.2690   23.6460   40.7710 C   0  0  0  0  0  0  0  0  0  0  0  0
   36.9120   25.0930   40.4370 C   0  0  0  0  0  0  0  0  0  0  0  0
   40.6451   31.4173   41.2327 H   0  0  0  0  0  0  0  0  0  0  0  0
   42.9938   26.6767   41.0211 H   0  0  0  0  0  0  0  0  0  0  0  0
   45.1596   25.3992   41.1341 H   0  0  0  0  0  0  0  0  0  0  0  0
   44.8016   25.4972   45.3851 H   0  0  0  0  0  0  0  0  0  0  0  0
   39.5796   26.0428   40.6347 H   0  0  0  0  0  0  0  0  0  0  0  0
   38.6121   25.7434   39.1512 H   0  0  0  0  0  0  0  0  0  0  0  0
   39.8885   27.0074   39.1512 H   0  0  0  0  0  0  0  0  0  0  0  0
   36.0016   27.2481   39.6070 H   0  0  0  0  0  0  0  0  0  0  0  0
   36.9495   28.2870   38.4894 H   0  0  0  0  0  0  0  0  0  0  0  0
   37.1973   26.5079   38.4894 H   0  0  0  0  0  0  0  0  0  0  0  0
   38.0946   27.5097   42.2953 H   0  0  0  0  0  0  0  0  0  0  0  0
   36.4766   27.8044   41.4429 H   0  0  0  0  0  0  0  0  0  0  0  0
   39.0585   25.7181   42.2032 H   0  0  0  0  0  0  0  0  0  0  0  0
   37.9337   25.1339   43.4682 H   0  0  0  0  0  0  0  0  0  0  0  0
   39.2835   23.6202   41.4786 H   0  0  0  0  0  0  0  0  0  0  0  0
   38.0953   23.0365   42.6583 H   0  0  0  0  0  0  0  0  0  0  0  0
   37.7076   23.1376   39.8997 H   0  0  0  0  0  0  0  0  0  0  0  0
   36.3947   23.0433   41.0582 H   0  0  0  0  0  0  0  0  0  0  0  0
   37.6200   25.5026   39.7015 H   0  0  0  0  0  0  0  0  0  0  0  0
   35.9071   25.1717   39.9966 H   0  0  0  0  0  0  0  0  0  0  0  0
  1  2  2  0
  2  7  1  0
  3 24  1  0
  3  2  1  0
  4  3  2  0
  5  4  1  0
  5  6  2  0
  6  1  1  0
  7  8  2  0
  8  9  1  0
 10 12  1  0
 10  9  1  0
 11  7  1  0
 11 10  2  0
 12 18  1  0
 13 14  2  0
 13 12  1  0
 14 15  1  0
 15 16  2  0
 15 17  1  0
 18 17  1  0
 18 19  2  0
 20 21  1  0
 20  5  1  0
 22 20  1  0
 23 20  1  0
 24 27  1  0
 25 24  1  0
 26 24  1  0
 27 28  1  0
 28 29  1  0
 30 29  1  0
 31 30  1  0
 32 31  1  0
 32 28  1  0
  1 33  1  0
 13 34  1  0
 14 35  1  0
 17 36  1  0
 25 37  1  0
 25 38  1  0
 25 39  1  0
 26 40  1  0
 26 41  1  0
 26 42  1  0
 27 43  1  0
 27 44  1  0
 29 45  1  0
 29 46  1  0
 30 47  1  0
 30 48  1  0
 31 49  1  0
 31 50  1  0
 32 51  1  0
 32 52  1  0
M  ISO  8  33  14  34  14  35  14  36   9  37   8  38   8  39   8  40   8
M  ISO  8  41   8  42   8  43   8  44   8  45  13  46  13  47  13  48  13
M  ISO  4  49  13  50  13  51  13  52  13
M  END
>  <minimizedAffinity>  (1) 
-5.59468603

>  <minimizedRMSD>  (1) 
1.45561361

$$$$
