
     RDKit          3D

 48 51  0  0  0  0  0  0  0  0999 V2000
   39.0230   30.5080   41.5230 C   0  0  0  0  0  0  0  0  0  0  0  0
   39.2410   29.1380   41.5430 C   0  0  0  0  0  0  0  0  0  0  0  0
   38.6870   28.3580   40.5270 C   0  0  0  0  0  0  0  0  0  0  0  0
   37.9560   29.0430   39.5710 N   0  0  0  0  0  0  0  0  0  0  0  0
   37.7760   30.3630   39.5990 C   0  0  0  0  0  0  0  0  0  0  0  0
   38.3070   31.0910   40.5690 N   0  0  0  0  0  0  0  0  0  0  0  0
   40.0040   28.4150   42.5390 C   0  0  0  0  0  0  0  0  0  0  0  0
   39.6260   27.6460   43.5410 N   0  0  0  0  0  0  0  0  0  0  0  0
   40.6410   27.1940   44.1900 O   0  0  0  0  0  0  0  0  0  0  0  0
   41.7510   27.6390   43.6570 C   0  0  0  0  0  0  0  0  0  0  0  0
   41.3650   28.4020   42.6250 N   0  0  0  0  0  0  0  0  0  0  0  0
   43.1320   27.4800   43.9400 N   0  0  0  0  0  0  0  0  0  0  0  0
   43.9760   27.7260   42.9350 C   0  0  0  0  0  0  0  0  0  0  0  0
   45.3330   27.6030   43.1260 C   0  0  0  0  0  0  0  0  0  0  0  0
   45.7180   27.2130   44.4210 C   0  0  0  0  0  0  0  0  0  0  0  0
   46.9530   27.0890   44.6340 O   0  0  0  0  0  0  0  0  0  0  0  0
   44.8410   26.9690   45.4200 N   0  0  0  0  0  0  0  0  0  0  0  0
   43.5430   27.1050   45.1740 C   0  0  0  0  0  0  0  0  0  0  0  0
   42.7090   26.8900   46.0700 O   0  0  0  0  0  0  0  0  0  0  0  0
   36.9730   30.9550   38.5140 C   0  0  0  0  0  0  0  0  0  0  0  0
   36.6780   32.2650   38.8040 F   0  0  0  0  0  0  0  0  0  0  0  0
   37.6420   30.8860   37.3250 F   0  0  0  0  0  0  0  0  0  0  0  0
   35.7460   30.2830   38.4150 F   0  0  0  0  0  0  0  0  0  0  0  0
   38.7880   26.8750   40.3520 C   0  0  0  0  0  0  0  0  0  0  0  0
   40.2020   26.3680   40.2330 C   0  0  0  0  0  0  0  0  0  0  0  0
   38.1920   26.5520   38.9300 C   0  0  0  0  0  0  0  0  0  0  0  0
   37.9570   26.0730   41.2720 C   0  0  0  0  0  0  0  0  0  0  0  0
   37.7840   24.6460   40.7660 C   0  0  0  0  0  0  0  0  0  0  0  0
   36.4940   24.4110   40.2750 C   0  0  0  0  0  0  0  0  0  0  0  0
   36.1960   23.1580   39.7840 C   0  0  0  0  0  0  0  0  0  0  0  0
   37.1030   22.1650   39.7650 N   0  0  0  0  0  0  0  0  0  0  0  0
   38.3350   22.4170   40.2430 C   0  0  0  0  0  0  0  0  0  0  0  0
   38.6580   23.6260   40.7290 N   0  0  0  0  0  0  0  0  0  0  0  0
   39.4560   31.1293   42.3208 H   0  0  0  0  0  0  0  0  0  0  0  0
   43.5854   28.0277   41.9519 H   0  0  0  0  0  0  0  0  0  0  0  0
   46.0624   27.7954   42.3254 H   0  0  0  0  0  0  0  0  0  0  0  0
   45.1724   26.6836   46.3525 H   0  0  0  0  0  0  0  0  0  0  0  0
   40.6232   26.2170   41.2379 H   0  0  0  0  0  0  0  0  0  0  0  0
   40.2044   25.4130   39.6871 H   0  0  0  0  0  0  0  0  0  0  0  0
   40.8107   27.1039   39.6871 H   0  0  0  0  0  0  0  0  0  0  0  0
   37.2302   26.0308   39.0453 H   0  0  0  0  0  0  0  0  0  0  0  0
   38.0369   27.4895   38.3759 H   0  0  0  0  0  0  0  0  0  0  0  0
   38.8927   25.9102   38.3759 H   0  0  0  0  0  0  0  0  0  0  0  0
   38.4407   26.0461   42.2596 H   0  0  0  0  0  0  0  0  0  0  0  0
   36.9631   26.5399   41.3361 H   0  0  0  0  0  0  0  0  0  0  0  0
   35.7358   25.2080   40.2810 H   0  0  0  0  0  0  0  0  0  0  0  0
   35.1852   22.9642   39.3957 H   0  0  0  0  0  0  0  0  0  0  0  0
   39.0912   21.6182   40.2355 H   0  0  0  0  0  0  0  0  0  0  0  0
  1  2  2  0
  2  7  1  0
  3  2  1  0
  4  5  1  0
  4  3  2  0
  5  6  2  0
  6  1  1  0
  7 11  1  0
  7  8  2  0
  8  9  1  0
 10 12  1  0
 10  9  1  0
 11 10  2  0
 12 18  1  0
 13 14  2  0
 13 12  1  0
 14 15  1  0
 15 16  2  0
 15 17  1  0
 18 17  1  0
 18 19  2  0
 20 21  1  0
 20  5  1  0
 22 20  1  0
 23 20  1  0
 24  3  1  0
 24 27  1  0
 25 24  1  0
 26 24  1  0
 28 27  1  0
 29 28  2  0
 30 29  1  0
 31 30  2  0
 31 32  1  0
 32 33  2  0
 33 28  1  0
  1 34  1  0
 13 35  1  0
 14 36  1  0
 17 37  1  0
 25 38  1  0
 25 39  1  0
 25 40  1  0
 26 41  1  0
 26 42  1  0
 26 43  1  0
 27 44  1  0
 27 45  1  0
 29 46  1  0
 30 47  1  0
 32 48  1  0
M  ISO  8  34  14  35  14  36  14  37   9  38   8  39   8  40   8  41   8
M  ISO  7  42   8  43   8  44   8  45   8  46  14  47  14  48  14
M  END
>  <minimizedAffinity>  (1) 
-5.42591047

>  <minimizedRMSD>  (1) 
0.631054282

$$$$
