
     RDKit          3D

 47 50  0  0  0  0  0  0  0  0999 V2000
   39.6860   30.9200   40.7560 C   0  0  0  0  0  0  0  0  0  0  0  0
   39.5140   29.5510   40.8870 C   0  0  0  0  0  0  0  0  0  0  0  0
   38.7090   28.8720   39.9460 C   0  0  0  0  0  0  0  0  0  0  0  0
   38.1580   29.6730   38.9620 N   0  0  0  0  0  0  0  0  0  0  0  0
   38.3580   30.9870   38.8850 C   0  0  0  0  0  0  0  0  0  0  0  0
   39.1150   31.6070   39.7740 N   0  0  0  0  0  0  0  0  0  0  0  0
   40.0930   28.7170   41.9200 C   0  0  0  0  0  0  0  0  0  0  0  0
   39.6360   28.3370   43.0940 N   0  0  0  0  0  0  0  0  0  0  0  0
   40.4830   27.5850   43.7050 O   0  0  0  0  0  0  0  0  0  0  0  0
   41.5510   27.4250   42.9690 C   0  0  0  0  0  0  0  0  0  0  0  0
   41.3180   28.1260   41.8530 N   0  0  0  0  0  0  0  0  0  0  0  0
   42.7810   26.7210   43.1180 N   0  0  0  0  0  0  0  0  0  0  0  0
   43.4330   26.4320   41.9890 C   0  0  0  0  0  0  0  0  0  0  0  0
   44.6310   25.7530   42.0530 C   0  0  0  0  0  0  0  0  0  0  0  0
   45.0650   25.4220   43.3370 C   0  0  0  0  0  0  0  0  0  0  0  0
   46.1550   24.8020   43.4330 O   0  0  0  0  0  0  0  0  0  0  0  0
   44.3800   25.7300   44.4620 N   0  0  0  0  0  0  0  0  0  0  0  0
   43.2300   26.3840   44.3490 C   0  0  0  0  0  0  0  0  0  0  0  0
   42.5770   26.6840   45.3590 O   0  0  0  0  0  0  0  0  0  0  0  0
   37.6950   31.7010   37.7670 C   0  0  0  0  0  0  0  0  0  0  0  0
   37.0500   32.8170   38.2480 F   0  0  0  0  0  0  0  0  0  0  0  0
   38.5970   32.0570   36.8170 F   0  0  0  0  0  0  0  0  0  0  0  0
   36.7070   30.8780   37.2080 F   0  0  0  0  0  0  0  0  0  0  0  0
   38.3940   27.4310   39.9020 C   0  0  0  0  0  0  0  0  0  0  0  0
   39.5630   26.5480   39.5360 C   0  0  0  0  0  0  0  0  0  0  0  0
   37.4430   27.2210   38.6630 C   0  0  0  0  0  0  0  0  0  0  0  0
   37.6110   26.9120   41.0440 C   0  0  0  0  0  0  0  0  0  0  0  0
   37.6330   25.4290   41.0160 N   0  0  0  0  0  0  0  0  0  0  0  0
   36.5960   24.8730   40.4180 N   0  0  0  0  0  0  0  0  0  0  0  0
   36.6810   23.5380   40.4300 C   0  0  0  0  0  0  0  0  0  0  0  0
   37.8780   23.2490   41.0940 C   0  0  0  0  0  0  0  0  0  0  0  0
   38.4560   24.4530   41.4510 C   0  0  0  0  0  0  0  0  0  0  0  0
   40.3133   31.4522   41.4862 H   0  0  0  0  0  0  0  0  0  0  0  0
   43.0176   26.7332   41.0160 H   0  0  0  0  0  0  0  0  0  0  0  0
   45.2058   25.4900   41.1528 H   0  0  0  0  0  0  0  0  0  0  0  0
   44.7433   25.4625   45.3879 H   0  0  0  0  0  0  0  0  0  0  0  0
   40.0474   26.1821   40.4533 H   0  0  0  0  0  0  0  0  0  0  0  0
   39.2052   25.6927   38.9440 H   0  0  0  0  0  0  0  0  0  0  0  0
   40.2879   27.1260   38.9440 H   0  0  0  0  0  0  0  0  0  0  0  0
   36.4256   26.9963   39.0156 H   0  0  0  0  0  0  0  0  0  0  0  0
   37.4262   28.1371   38.0543 H   0  0  0  0  0  0  0  0  0  0  0  0
   37.8135   26.3830   38.0543 H   0  0  0  0  0  0  0  0  0  0  0  0
   38.0532   27.2689   41.9859 H   0  0  0  0  0  0  0  0  0  0  0  0
   36.5726   27.2678   40.9726 H   0  0  0  0  0  0  0  0  0  0  0  0
   35.9625   22.8201   40.0076 H   0  0  0  0  0  0  0  0  0  0  0  0
   38.2848   22.2470   41.2952 H   0  0  0  0  0  0  0  0  0  0  0  0
   39.4064   24.5891   41.9878 H   0  0  0  0  0  0  0  0  0  0  0  0
  1  2  2  0
  2  7  1  0
  3  2  1  0
  4  3  2  0
  5  4  1  0
  5  6  2  0
  6  1  1  0
  7  8  2  0
  8  9  1  0
 10 12  1  0
 10  9  1  0
 11  7  1  0
 11 10  2  0
 12 18  1  0
 13 14  2  0
 13 12  1  0
 14 15  1  0
 15 16  2  0
 15 17  1  0
 18 17  1  0
 18 19  2  0
 20 21  1  0
 20  5  1  0
 22 20  1  0
 23 20  1  0
 24  3  1  0
 24 27  1  0
 25 24  1  0
 26 24  1  0
 28 27  1  0
 28 32  1  0
 29 30  2  0
 29 28  1  0
 30 31  1  0
 31 32  2  0
  1 33  1  0
 13 34  1  0
 14 35  1  0
 17 36  1  0
 25 37  1  0
 25 38  1  0
 25 39  1  0
 26 40  1  0
 26 41  1  0
 26 42  1  0
 27 43  1  0
 27 44  1  0
 30 45  1  0
 31 46  1  0
 32 47  1  0
M  ISO  8  33  14  34  14  35  14  36   9  37   8  38   8  39   8  40   8
M  ISO  7  41   8  42   8  43   8  44   8  45  14  46  14  47  14
M  END
>  <minimizedAffinity>  (1) 
-5.40146589

>  <minimizedRMSD>  (1) 
1.31246281

$$$$
