
     RDKit          3D

 53 56  0  0  0  0  0  0  0  0999 V2000
   39.2320   30.8950   41.5210 C   0  0  0  0  0  0  0  0  0  0  0  0
   39.3090   29.5110   41.4670 C   0  0  0  0  0  0  0  0  0  0  0  0
   38.6860   28.8370   40.3910 C   0  0  0  0  0  0  0  0  0  0  0  0
   38.0490   29.6570   39.4850 N   0  0  0  0  0  0  0  0  0  0  0  0
   38.0060   30.9780   39.5850 C   0  0  0  0  0  0  0  0  0  0  0  0
   38.5920   31.5970   40.5940 N   0  0  0  0  0  0  0  0  0  0  0  0
   39.9770   28.6580   42.4280 C   0  0  0  0  0  0  0  0  0  0  0  0
   39.5140   27.9410   43.4360 N   0  0  0  0  0  0  0  0  0  0  0  0
   40.4670   27.3210   44.0410 O   0  0  0  0  0  0  0  0  0  0  0  0
   41.6130   27.5990   43.4620 C   0  0  0  0  0  0  0  0  0  0  0  0
   41.3140   28.4310   42.4570 N   0  0  0  0  0  0  0  0  0  0  0  0
   42.9600   27.2110   43.6960 N   0  0  0  0  0  0  0  0  0  0  0  0
   43.7910   27.3280   42.6570 C   0  0  0  0  0  0  0  0  0  0  0  0
   45.1190   26.9780   42.8000 C   0  0  0  0  0  0  0  0  0  0  0  0
   45.4840   26.5140   44.0650 C   0  0  0  0  0  0  0  0  0  0  0  0
   46.6810   26.1850   44.2330 O   0  0  0  0  0  0  0  0  0  0  0  0
   44.6170   26.4060   45.1050 N   0  0  0  0  0  0  0  0  0  0  0  0
   43.3540   26.7580   44.9100 C   0  0  0  0  0  0  0  0  0  0  0  0
   42.5260   26.6730   45.8350 O   0  0  0  0  0  0  0  0  0  0  0  0
   37.2750   31.7040   38.5210 C   0  0  0  0  0  0  0  0  0  0  0  0
   36.7200   32.8520   39.0400 F   0  0  0  0  0  0  0  0  0  0  0  0
   38.1030   32.0200   37.4920 F   0  0  0  0  0  0  0  0  0  0  0  0
   36.2200   30.9170   38.0360 F   0  0  0  0  0  0  0  0  0  0  0  0
   38.6440   27.3610   40.1340 C   0  0  0  0  0  0  0  0  0  0  0  0
   39.9970   26.7170   40.1090 C   0  0  0  0  0  0  0  0  0  0  0  0
   38.1380   27.1920   38.6670 C   0  0  0  0  0  0  0  0  0  0  0  0
   37.6340   26.6460   40.9670 C   0  0  0  0  0  0  0  0  0  0  0  0
   37.2610   25.3490   40.6680 N   0  0  0  0  0  0  0  0  0  0  0  0
   37.8130   24.3500   41.5070 C   0  0  0  0  0  0  0  0  0  0  0  0
   38.1100   23.0570   40.8060 C   0  0  0  0  0  0  0  0  0  0  0  0
   37.0460   22.6390   40.0290 O   0  0  0  0  0  0  0  0  0  0  0  0
   35.9500   23.4710   40.0420 C   0  0  0  0  0  0  0  0  0  0  0  0
   36.3780   24.9180   39.6950 C   0  0  0  0  0  0  0  0  0  0  0  0
   39.7147   31.4253   42.3551 H   0  0  0  0  0  0  0  0  0  0  0  0
   43.4191   27.7016   41.6915 H   0  0  0  0  0  0  0  0  0  0  0  0
   45.8402   27.0593   41.9734 H   0  0  0  0  0  0  0  0  0  0  0  0
   44.9330   26.0593   46.0220 H   0  0  0  0  0  0  0  0  0  0  0  0
   40.3436   26.5520   41.1398 H   0  0  0  0  0  0  0  0  0  0  0  0
   39.9342   25.7522   39.5844 H   0  0  0  0  0  0  0  0  0  0  0  0
   40.7062   27.3741   39.5844 H   0  0  0  0  0  0  0  0  0  0  0  0
   37.0947   26.8435   38.6768 H   0  0  0  0  0  0  0  0  0  0  0  0
   38.1968   28.1586   38.1452 H   0  0  0  0  0  0  0  0  0  0  0  0
   38.7659   26.4548   38.1452 H   0  0  0  0  0  0  0  0  0  0  0  0
   38.0284   26.6303   41.9937 H   0  0  0  0  0  0  0  0  0  0  0  0
   36.7125   27.2155   40.7760 H   0  0  0  0  0  0  0  0  0  0  0  0
   38.7512   24.7358   41.9324 H   0  0  0  0  0  0  0  0  0  0  0  0
   37.0578   24.1281   42.2754 H   0  0  0  0  0  0  0  0  0  0  0  0
   38.9897   23.1957   40.1604 H   0  0  0  0  0  0  0  0  0  0  0  0
   38.2983   22.2887   41.5704 H   0  0  0  0  0  0  0  0  0  0  0  0
   35.2177   23.1201   39.3000 H   0  0  0  0  0  0  0  0  0  0  0  0
   35.5000   23.4589   41.0457 H   0  0  0  0  0  0  0  0  0  0  0  0
   36.8694   24.9358   38.7110 H   0  0  0  0  0  0  0  0  0  0  0  0
   35.4985   25.5776   39.6589 H   0  0  0  0  0  0  0  0  0  0  0  0
  2  1  2  0
  2  7  1  0
  3  2  1  0
  4  5  1  0
  4  3  2  0
  5  6  2  0
  6  1  1  0
  7 11  1  0
  7  8  2  0
  8  9  1  0
 10 12  1  0
 10  9  1  0
 11 10  2  0
 12 18  1  0
 13 14  2  0
 13 12  1  0
 14 15  1  0
 15 16  2  0
 15 17  1  0
 18 17  1  0
 18 19  2  0
 20 21  1  0
 20  5  1  0
 22 20  1  0
 23 20  1  0
 24  3  1  0
 24 27  1  0
 25 24  1  0
 26 24  1  0
 28 27  1  0
 28 29  1  0
 30 29  1  0
 31 32  1  0
 31 30  1  0
 33 32  1  0
 33 28  1  0
  1 34  1  0
 13 35  1  0
 14 36  1  0
 17 37  1  0
 25 38  1  0
 25 39  1  0
 25 40  1  0
 26 41  1  0
 26 42  1  0
 26 43  1  0
 27 44  1  0
 27 45  1  0
 29 46  1  0
 29 47  1  0
 30 48  1  0
 30 49  1  0
 32 50  1  0
 32 51  1  0
 33 52  1  0
 33 53  1  0
M  ISO  8  34  14  35  14  36  14  37   9  38   8  39   8  40   8  41   8
M  ISO  8  42   8  43   8  44   8  45   8  46  13  47  13  48  13  49  13
M  ISO  4  50  13  51  13  52  13  53  13
M  END
>  <minimizedAffinity>  (1) 
-5.3908906

>  <minimizedRMSD>  (1) 
0.78241694

$$$$
