
     RDKit          3D

 47 50  0  0  0  0  0  0  0  0999 V2000
   39.3470   30.8940   41.4870 C   0  0  0  0  0  0  0  0  0  0  0  0
   39.3760   29.5110   41.4620 C   0  0  0  0  0  0  0  0  0  0  0  0
   38.6910   28.8230   40.4300 C   0  0  0  0  0  0  0  0  0  0  0  0
   38.0410   29.6360   39.5230 N   0  0  0  0  0  0  0  0  0  0  0  0
   38.0410   30.9630   39.5870 C   0  0  0  0  0  0  0  0  0  0  0  0
   38.6880   31.5920   40.5600 N   0  0  0  0  0  0  0  0  0  0  0  0
   40.0550   28.6620   42.4210 C   0  0  0  0  0  0  0  0  0  0  0  0
   39.6120   27.9880   43.4640 N   0  0  0  0  0  0  0  0  0  0  0  0
   40.5650   27.3530   44.0480 O   0  0  0  0  0  0  0  0  0  0  0  0
   41.6920   27.5670   43.4310 C   0  0  0  0  0  0  0  0  0  0  0  0
   41.3820   28.3810   42.4170 N   0  0  0  0  0  0  0  0  0  0  0  0
   43.0350   27.1430   43.6180 N   0  0  0  0  0  0  0  0  0  0  0  0
   43.8300   27.1980   42.5400 C   0  0  0  0  0  0  0  0  0  0  0  0
   45.1470   26.8060   42.6380 C   0  0  0  0  0  0  0  0  0  0  0  0
   45.5400   26.3710   43.9020 C   0  0  0  0  0  0  0  0  0  0  0  0
   46.7410   26.0020   44.0320 O   0  0  0  0  0  0  0  0  0  0  0  0
   44.7210   26.3230   44.9760 N   0  0  0  0  0  0  0  0  0  0  0  0
   43.4560   26.7140   44.8290 C   0  0  0  0  0  0  0  0  0  0  0  0
   42.6670   26.6850   45.7930 O   0  0  0  0  0  0  0  0  0  0  0  0
   37.2960   31.6880   38.5400 C   0  0  0  0  0  0  0  0  0  0  0  0
   36.7380   32.8300   39.0640 F   0  0  0  0  0  0  0  0  0  0  0  0
   38.1130   32.0110   37.5020 F   0  0  0  0  0  0  0  0  0  0  0  0
   36.2410   30.9030   38.0810 F   0  0  0  0  0  0  0  0  0  0  0  0
   38.5980   27.3470   40.2190 C   0  0  0  0  0  0  0  0  0  0  0  0
   39.9200   26.6780   40.0030 C   0  0  0  0  0  0  0  0  0  0  0  0
   37.8730   27.1570   38.8400 C   0  0  0  0  0  0  0  0  0  0  0  0
   37.7030   26.6610   41.1920 C   0  0  0  0  0  0  0  0  0  0  0  0
   37.3210   25.2720   40.8350 C   0  0  0  0  0  0  0  0  0  0  0  0
   38.0860   24.2660   41.4500 C   0  0  0  0  0  0  0  0  0  0  0  0
   37.6250   23.0820   41.0160 N   0  0  0  0  0  0  0  0  0  0  0  0
   36.6090   23.2460   40.1580 C   0  0  0  0  0  0  0  0  0  0  0  0
   36.4640   24.5760   40.0820 N   0  0  0  0  0  0  0  0  0  0  0  0
   39.8782   31.4294   42.2877 H   0  0  0  0  0  0  0  0  0  0  0  0
   43.4315   27.5554   41.5791 H   0  0  0  0  0  0  0  0  0  0  0  0
   45.8371   26.8343   41.7819 H   0  0  0  0  0  0  0  0  0  0  0  0
   45.0671   25.9915   45.8877 H   0  0  0  0  0  0  0  0  0  0  0  0
   40.3772   26.4466   40.9763 H   0  0  0  0  0  0  0  0  0  0  0  0
   39.7715   25.7466   39.4370 H   0  0  0  0  0  0  0  0  0  0  0  0
   40.5825   27.3493   39.4370 H   0  0  0  0  0  0  0  0  0  0  0  0
   36.8222   26.8816   39.0131 H   0  0  0  0  0  0  0  0  0  0  0  0
   37.9167   28.0969   38.2702 H   0  0  0  0  0  0  0  0  0  0  0  0
   38.3720   26.3593   38.2702 H   0  0  0  0  0  0  0  0  0  0  0  0
   38.2168   26.6325   42.1642 H   0  0  0  0  0  0  0  0  0  0  0  0
   36.7674   27.2394   41.2035 H   0  0  0  0  0  0  0  0  0  0  0  0
   38.9129   24.4207   42.1587 H   0  0  0  0  0  0  0  0  0  0  0  0
   36.0291   22.4697   39.6373 H   0  0  0  0  0  0  0  0  0  0  0  0
   35.7500   25.0254   39.4912 H   0  0  0  0  0  0  0  0  0  0  0  0
  2  1  2  0
  2  7  1  0
  3  2  1  0
  4  5  1  0
  4  3  2  0
  5  6  2  0
  6  1  1  0
  7  8  2  0
  8  9  1  0
 10 12  1  0
 10  9  1  0
 11  7  1  0
 11 10  2  0
 12 18  1  0
 13 14  2  0
 13 12  1  0
 14 15  1  0
 15 16  2  0
 15 17  1  0
 18 17  1  0
 18 19  2  0
 20 21  1  0
 20  5  1  0
 22 20  1  0
 23 20  1  0
 24  3  1  0
 24 27  1  0
 25 24  1  0
 26 24  1  0
 28 27  1  0
 28 29  2  0
 30 29  1  0
 31 30  2  0
 32 31  1  0
 32 28  1  0
  1 33  1  0
 13 34  1  0
 14 35  1  0
 17 36  1  0
 25 37  1  0
 25 38  1  0
 25 39  1  0
 26 40  1  0
 26 41  1  0
 26 42  1  0
 27 43  1  0
 27 44  1  0
 29 45  1  0
 31 46  1  0
 32 47  1  0
M  ISO  8  33  14  34  14  35  14  36   9  37   8  38   8  39   8  40   8
M  ISO  7  41   8  42   8  43   8  44   8  45  14  46  14  47   9
M  END
>  <minimizedAffinity>  (1) 
-5.27381039

>  <minimizedRMSD>  (1) 
0.719464064

$$$$
