
     RDKit          3D

 46 49  0  0  0  0  0  0  0  0999 V2000
   39.2830   30.7560   41.6590 C   0  0  0  0  0  0  0  0  0  0  0  0
   39.4050   29.3730   41.6370 C   0  0  0  0  0  0  0  0  0  0  0  0
   38.7520   28.6430   40.6230 C   0  0  0  0  0  0  0  0  0  0  0  0
   38.0310   29.4080   39.7220 N   0  0  0  0  0  0  0  0  0  0  0  0
   37.9470   30.7340   39.7890 C   0  0  0  0  0  0  0  0  0  0  0  0
   38.5650   31.4080   40.7450 N   0  0  0  0  0  0  0  0  0  0  0  0
   40.1590   28.5760   42.5840 C   0  0  0  0  0  0  0  0  0  0  0  0
   39.7740   27.7780   43.5590 N   0  0  0  0  0  0  0  0  0  0  0  0
   40.7820   27.2560   44.1650 O   0  0  0  0  0  0  0  0  0  0  0  0
   41.8950   27.6820   43.6240 C   0  0  0  0  0  0  0  0  0  0  0  0
   41.5190   28.5050   42.6380 N   0  0  0  0  0  0  0  0  0  0  0  0
   43.2800   27.4550   43.8660 N   0  0  0  0  0  0  0  0  0  0  0  0
   44.1060   27.7110   42.8490 C   0  0  0  0  0  0  0  0  0  0  0  0
   45.4600   27.5230   43.0000 C   0  0  0  0  0  0  0  0  0  0  0  0
   45.8590   27.0600   44.2670 C   0  0  0  0  0  0  0  0  0  0  0  0
   47.0870   26.8740   44.4500 O   0  0  0  0  0  0  0  0  0  0  0  0
   44.9970   26.8090   45.2820 N   0  0  0  0  0  0  0  0  0  0  0  0
   43.6970   27.0100   45.0730 C   0  0  0  0  0  0  0  0  0  0  0  0
   42.8760   26.7900   45.9790 O   0  0  0  0  0  0  0  0  0  0  0  0
   37.1360   31.4050   38.7500 C   0  0  0  0  0  0  0  0  0  0  0  0
   36.6400   32.5900   39.2330 F   0  0  0  0  0  0  0  0  0  0  0  0
   37.8810   31.6470   37.6340 F   0  0  0  0  0  0  0  0  0  0  0  0
   36.0300   30.6010   38.4240 F   0  0  0  0  0  0  0  0  0  0  0  0
   38.7500   27.1700   40.4220 C   0  0  0  0  0  0  0  0  0  0  0  0
   40.1030   26.5970   40.1050 C   0  0  0  0  0  0  0  0  0  0  0  0
   37.9500   26.9170   39.0900 C   0  0  0  0  0  0  0  0  0  0  0  0
   37.9920   26.4050   41.4400 C   0  0  0  0  0  0  0  0  0  0  0  0
   37.6300   25.0190   40.9380 C   0  0  0  0  0  0  0  0  0  0  0  0
   38.6700   24.0120   41.1530 C   0  0  0  0  0  0  0  0  0  0  0  0
   37.8820   22.5700   40.4380 S   0  0  0  0  0  0  0  0  0  0  0  0
   36.3030   23.5160   39.9650 C   0  0  0  0  0  0  0  0  0  0  0  0
   36.5190   24.6370   40.3420 N   0  0  0  0  0  0  0  0  0  0  0  0
   39.7912   31.3272   42.4499 H   0  0  0  0  0  0  0  0  0  0  0  0
   43.7039   28.0721   41.8909 H   0  0  0  0  0  0  0  0  0  0  0  0
   46.1778   27.7201   42.1901 H   0  0  0  0  0  0  0  0  0  0  0  0
   45.3388   26.4710   46.1930 H   0  0  0  0  0  0  0  0  0  0  0  0
   40.6344   26.3719   41.0414 H   0  0  0  0  0  0  0  0  0  0  0  0
   39.9821   25.6728   39.5208 H   0  0  0  0  0  0  0  0  0  0  0  0
   40.6826   27.3269   39.5208 H   0  0  0  0  0  0  0  0  0  0  0  0
   36.9270   26.5935   39.3325 H   0  0  0  0  0  0  0  0  0  0  0  0
   37.9112   27.8467   38.5034 H   0  0  0  0  0  0  0  0  0  0  0  0
   38.4528   26.1340   38.5034 H   0  0  0  0  0  0  0  0  0  0  0  0
   38.6082   26.3075   42.3460 H   0  0  0  0  0  0  0  0  0  0  0  0
   37.0603   26.9480   41.6570 H   0  0  0  0  0  0  0  0  0  0  0  0
   39.6596   24.1123   41.6226 H   0  0  0  0  0  0  0  0  0  0  0  0
   35.4033   23.1290   39.4642 H   0  0  0  0  0  0  0  0  0  0  0  0
  2  1  2  0
  2  7  1  0
  3  2  1  0
  4  5  1  0
  4  3  2  0
  5  6  2  0
  6  1  1  0
  7 11  1  0
  7  8  2  0
  8  9  1  0
 10 12  1  0
 10  9  1  0
 11 10  2  0
 12 18  1  0
 13 14  2  0
 13 12  1  0
 14 15  1  0
 15 16  2  0
 15 17  1  0
 18 17  1  0
 18 19  2  0
 20 21  1  0
 20  5  1  0
 22 20  1  0
 23 20  1  0
 24  3  1  0
 24 27  1  0
 25 24  1  0
 26 24  1  0
 28 29  2  0
 28 27  1  0
 30 29  1  0
 31 32  2  0
 31 30  1  0
 32 28  1  0
  1 33  1  0
 13 34  1  0
 14 35  1  0
 17 36  1  0
 25 37  1  0
 25 38  1  0
 25 39  1  0
 26 40  1  0
 26 41  1  0
 26 42  1  0
 27 43  1  0
 27 44  1  0
 29 45  1  0
 31 46  1  0
M  ISO  8  33  14  34  14  35  14  36   9  37   8  38   8  39   8  40   8
M  ISO  6  41   8  42   8  43   8  44   8  45  14  46  14
M  END
>  <minimizedAffinity>  (1) 
-5.26070261

>  <minimizedRMSD>  (1) 
0.592502117

$$$$
