
     RDKit          3D

 19 20  0  0  0  0  0  0  0  0999 V2000
   38.7170   31.6690   41.0410 C   0  0  0  0  0  0  0  0  0  0  0  0
   37.5290   32.0530   40.4020 C   0  0  0  0  0  0  0  0  0  0  0  0
   37.4600   33.3260   39.8460 C   0  0  0  0  0  0  0  0  0  0  0  0
   38.5620   34.1280   39.9570 N   0  0  0  0  0  0  0  0  0  0  0  0
   39.6840   33.7320   40.5740 C   0  0  0  0  0  0  0  0  0  0  0  0
   39.7800   32.5100   41.1200 N   0  0  0  0  0  0  0  0  0  0  0  0
   38.9300   30.3970   41.6550 N   0  0  0  0  0  0  0  0  0  0  0  0
   38.6810   29.7870   42.8260 C   0  0  0  0  0  0  0  0  0  0  0  0
   39.1700   28.5250   42.7460 N   0  0  0  0  0  0  0  0  0  0  0  0
   39.7180   28.3780   41.5150 C   0  0  0  0  0  0  0  0  0  0  0  0
   39.5600   29.5470   40.8540 N   0  0  0  0  0  0  0  0  0  0  0  0
   36.4520   31.0970   40.3660 C   0  0  0  0  0  0  0  0  0  0  0  0
   36.3290   30.3830   39.3600 O   0  0  0  0  0  0  0  0  0  0  0  0
   35.5680   30.9760   41.4370 O   0  0  0  0  0  0  0  0  0  0  0  0
   36.5508   33.6754   39.3349 H   0  0  0  0  0  0  0  0  0  0  0  0
   40.5402   34.4200   40.6338 H   0  0  0  0  0  0  0  0  0  0  0  0
   38.1718   30.2317   43.6938 H   0  0  0  0  0  0  0  0  0  0  0  0
   40.2035   27.4715   41.1243 H   0  0  0  0  0  0  0  0  0  0  0  0
   34.8321   30.3148   41.3992 H   0  0  0  0  0  0  0  0  0  0  0  0
  1  6  1  0
  1  7  1  0
  2  1  2  0
  3  4  2  0
  3  2  1  0
  4  5  1  0
  5  6  2  0
  7  8  1  0
  9  8  2  0
 10  9  1  0
 11 10  2  0
 11  7  1  0
 12  2  1  0
 12 14  1  0
 13 12  2  0
  3 15  1  0
  5 16  1  0
  8 17  1  0
 10 18  1  0
 14 19  1  0
M  ISO  5  15  14  16  14  17  14  18  14  19   3
M  END
>  <minimizedAffinity>  (1) 
-4.35545826

>  <minimizedRMSD>  (1) 
4.23143148

$$$$
