
     RDKit          3D

 19 20  0  0  0  0  0  0  0  0999 V2000
   38.6230   26.9650   41.8500 C   0  0  0  0  0  0  0  0  0  0  0  0
   38.4180   27.1750   43.2210 C   0  0  0  0  0  0  0  0  0  0  0  0
   39.3400   26.6510   44.1200 C   0  0  0  0  0  0  0  0  0  0  0  0
   40.4000   25.9590   43.6030 N   0  0  0  0  0  0  0  0  0  0  0  0
   40.5780   25.7710   42.2930 C   0  0  0  0  0  0  0  0  0  0  0  0
   39.6970   26.2700   41.4090 N   0  0  0  0  0  0  0  0  0  0  0  0
   37.7700   27.4380   40.8160 N   0  0  0  0  0  0  0  0  0  0  0  0
   36.6390   27.0720   40.1960 C   0  0  0  0  0  0  0  0  0  0  0  0
   36.3540   28.0100   39.2590 N   0  0  0  0  0  0  0  0  0  0  0  0
   37.3230   28.9560   39.3100 C   0  0  0  0  0  0  0  0  0  0  0  0
   38.1870   28.5760   40.2840 N   0  0  0  0  0  0  0  0  0  0  0  0
   37.2310   27.9390   43.6150 C   0  0  0  0  0  0  0  0  0  0  0  0
   37.2440   29.2610   43.2090 F   0  0  0  0  0  0  0  0  0  0  0  0
   36.0350   27.3200   43.2660 F   0  0  0  0  0  0  0  0  0  0  0  0
   37.1900   27.9930   45.0150 F   0  0  0  0  0  0  0  0  0  0  0  0
   39.2214   26.7878   45.2050 H   0  0  0  0  0  0  0  0  0  0  0  0
   41.4505   25.2046   41.9353 H   0  0  0  0  0  0  0  0  0  0  0  0
   36.0467   26.1700   40.4097 H   0  0  0  0  0  0  0  0  0  0  0  0
   37.3949   29.8571   38.6832 H   0  0  0  0  0  0  0  0  0  0  0  0
  1  2  2  0
  2 12  1  0
  2  3  1  0
  4  3  2  0
  5  4  1  0
  6  1  1  0
  6  5  2  0
  7  1  1  0
  8  7  1  0
  9 10  1  0
  9  8  2  0
 10 11  2  0
 11  7  1  0
 12 15  1  0
 13 12  1  0
 14 12  1  0
  3 16  1  0
  5 17  1  0
  8 18  1  0
 10 19  1  0
M  ISO  4  16  14  17  14  18  14  19  14
M  END
>  <minimizedAffinity>  (1) 
-4.17344093

>  <minimizedRMSD>  (1) 
5.46558189

$$$$
