
     RDKit          3D

 17 18  0  0  0  0  0  0  0  0999 V2000
   36.6190   31.0910   39.5060 C   0  0  0  0  0  0  0  0  0  0  0  0
   35.7820   30.4170   40.4070 C   0  0  0  0  0  0  0  0  0  0  0  0
   35.1480   29.2570   39.9680 C   0  0  0  0  0  0  0  0  0  0  0  0
   35.3710   28.8420   38.6970 N   0  0  0  0  0  0  0  0  0  0  0  0
   36.1840   29.5060   37.8400 C   0  0  0  0  0  0  0  0  0  0  0  0
   36.7900   30.6170   38.2640 N   0  0  0  0  0  0  0  0  0  0  0  0
   37.3290   32.2860   39.8160 N   0  0  0  0  0  0  0  0  0  0  0  0
   37.3050   33.5820   39.4790 C   0  0  0  0  0  0  0  0  0  0  0  0
   38.2860   34.2130   40.1560 N   0  0  0  0  0  0  0  0  0  0  0  0
   38.9150   33.2800   40.9180 C   0  0  0  0  0  0  0  0  0  0  0  0
   38.2980   32.1020   40.6830 N   0  0  0  0  0  0  0  0  0  0  0  0
   35.6400   30.9400   41.6620 O   0  0  0  0  0  0  0  0  0  0  0  0
   34.4824   28.6914   40.6366 H   0  0  0  0  0  0  0  0  0  0  0  0
   36.3413   29.1369   36.8158 H   0  0  0  0  0  0  0  0  0  0  0  0
   36.6054   34.0511   38.7716 H   0  0  0  0  0  0  0  0  0  0  0  0
   39.7639   33.4515   41.5962 H   0  0  0  0  0  0  0  0  0  0  0  0
   35.0567   30.4894   42.3230 H   0  0  0  0  0  0  0  0  0  0  0  0
  1  7  1  0
  1  2  2  0
  2 12  1  0
  3  2  1  0
  4  3  2  0
  5  6  2  0
  5  4  1  0
  6  1  1  0
  7 11  1  0
  8  7  1  0
  8  9  2  0
  9 10  1  0
 11 10  2  0
  3 13  1  0
  5 14  1  0
  8 15  1  0
 10 16  1  0
 12 17  1  0
M  ISO  5  13  14  14  14  15  14  16  14  17   3
M  END
>  <minimizedAffinity>  (1) 
-4.09405565

>  <minimizedRMSD>  (1) 
1.13440299

$$$$
