
     RDKit          3D

 19 20  0  0  0  0  0  0  0  0999 V2000
   37.6150   30.0050   41.0420 C   0  0  0  0  0  0  0  0  0  0  0  0
   38.7060   29.8970   40.1640 C   0  0  0  0  0  0  0  0  0  0  0  0
   38.9650   30.9610   39.3050 C   0  0  0  0  0  0  0  0  0  0  0  0
   38.1510   32.0420   39.3630 N   0  0  0  0  0  0  0  0  0  0  0  0
   37.1170   32.1260   40.2050 C   0  0  0  0  0  0  0  0  0  0  0  0
   36.8540   31.1110   41.0380 N   0  0  0  0  0  0  0  0  0  0  0  0
   37.2260   29.0050   41.9730 N   0  0  0  0  0  0  0  0  0  0  0  0
   36.4860   27.8860   41.9990 C   0  0  0  0  0  0  0  0  0  0  0  0
   36.5210   27.3760   43.2480 N   0  0  0  0  0  0  0  0  0  0  0  0
   37.3080   28.2100   44.0010 C   0  0  0  0  0  0  0  0  0  0  0  0
   37.7260   29.2050   43.1830 N   0  0  0  0  0  0  0  0  0  0  0  0
   39.4830   28.6460   40.2410 C   0  0  0  0  0  0  0  0  0  0  0  0
   39.8074   30.9250   38.5986 H   0  0  0  0  0  0  0  0  0  0  0  0
   36.4841   33.0256   40.2139 H   0  0  0  0  0  0  0  0  0  0  0  0
   35.9418   27.4562   41.1451 H   0  0  0  0  0  0  0  0  0  0  0  0
   37.5530   28.0928   45.0669 H   0  0  0  0  0  0  0  0  0  0  0  0
   39.6476   28.3810   41.2958 H   0  0  0  0  0  0  0  0  0  0  0  0
   38.9275   27.8381   39.7423 H   0  0  0  0  0  0  0  0  0  0  0  0
   40.4534   28.7858   39.7423 H   0  0  0  0  0  0  0  0  0  0  0  0
  1  7  1  0
  2 12  1  0
  2  1  2  0
  3  4  2  0
  3  2  1  0
  4  5  1  0
  5  6  2  0
  6  1  1  0
  7  8  1  0
  7 11  1  0
  8  9  2  0
  9 10  1  0
 11 10  2  0
  3 13  1  0
  5 14  1  0
  8 15  1  0
 10 16  1  0
 12 17  1  0
 12 18  1  0
 12 19  1  0
M  ISO  7  13  14  14  14  15  14  16  14  17   8  18   8  19   8
M  END
>  <minimizedAffinity>  (1) 
-3.44522405

>  <minimizedRMSD>  (1) 
4.8190546

$$$$
