
     RDKit          3D

 25 26  0  0  0  0  0  0  0  0999 V2000
   38.1970   30.6940   40.4320 C   0  0  0  0  0  0  0  0  0  0  0  0
   38.2380   30.9390   39.0490 C   0  0  0  0  0  0  0  0  0  0  0  0
   38.8600   32.0930   38.5960 C   0  0  0  0  0  0  0  0  0  0  0  0
   39.3990   32.9260   39.5160 N   0  0  0  0  0  0  0  0  0  0  0  0
   39.3560   32.6820   40.8480 C   0  0  0  0  0  0  0  0  0  0  0  0
   38.7560   31.5700   41.3000 N   0  0  0  0  0  0  0  0  0  0  0  0
   37.5940   29.5560   41.0340 N   0  0  0  0  0  0  0  0  0  0  0  0
   36.3660   29.1220   41.3400 C   0  0  0  0  0  0  0  0  0  0  0  0
   36.5120   27.8960   41.9300 N   0  0  0  0  0  0  0  0  0  0  0  0
   37.8320   27.6060   41.9730 C   0  0  0  0  0  0  0  0  0  0  0  0
   38.4730   28.6460   41.4140 N   0  0  0  0  0  0  0  0  0  0  0  0
   37.6000   29.9280   38.1720 C   0  0  0  0  0  0  0  0  0  0  0  0
   38.2150   28.5480   38.3460 C   0  0  0  0  0  0  0  0  0  0  0  0
   36.1090   29.8710   38.4630 C   0  0  0  0  0  0  0  0  0  0  0  0
   38.9135   32.3239   37.5218 H   0  0  0  0  0  0  0  0  0  0  0  0
   39.8104   33.3916   41.5551 H   0  0  0  0  0  0  0  0  0  0  0  0
   35.4194   29.6501   41.1529 H   0  0  0  0  0  0  0  0  0  0  0  0
   38.2916   26.6957   42.3854 H   0  0  0  0  0  0  0  0  0  0  0  0
   37.7698   30.2337   37.1291 H   0  0  0  0  0  0  0  0  0  0  0  0
   38.3150   28.3237   39.4182 H   0  0  0  0  0  0  0  0  0  0  0  0
   37.5671   27.7955   37.8728 H   0  0  0  0  0  0  0  0  0  0  0  0
   39.2078   28.5267   37.8728 H   0  0  0  0  0  0  0  0  0  0  0  0
   35.9478   29.8648   39.5511 H   0  0  0  0  0  0  0  0  0  0  0  0
   35.6159   30.7509   38.0242 H   0  0  0  0  0  0  0  0  0  0  0  0
   35.6845   28.9560   38.0242 H   0  0  0  0  0  0  0  0  0  0  0  0
  1  7  1  0
  1  6  1  0
  2  1  2  0
  3  2  1  0
  3  4  2  0
  4  5  1  0
  5  6  2  0
  7  8  1  0
  7 11  1  0
  8  9  2  0
  9 10  1  0
 11 10  2  0
 12 13  1  0
 12 14  1  0
 12  2  1  0
  3 15  1  0
  5 16  1  0
  8 17  1  0
 10 18  1  0
 12 19  1  0
 13 20  1  0
 13 21  1  0
 13 22  1  0
 14 23  1  0
 14 24  1  0
 14 25  1  0
M  ISO  8  15  14  16  14  17  14  18  14  19   8  20   8  21   8  22   8
M  ISO  3  23   8  24   8  25   8
M  END
>  <minimizedAffinity>  (1) 
-3.24323726

>  <minimizedRMSD>  (1) 
4.77083778

$$$$
