
     RDKit          3D

 36 39  0  0  0  0  0  0  0  0999 V2000
   40.6310   29.4520   42.7290 C   0  0  0  0  0  0  0  0  0  0  0  0
   39.8520   27.1170   43.0000 C   0  0  0  0  0  0  0  0  0  0  0  0
   40.8940   28.0500   43.0310 C   0  0  0  0  0  0  0  0  0  0  0  0
   42.1850   27.6070   43.3550 C   0  0  0  0  0  0  0  0  0  0  0  0
   42.3370   26.2740   43.6240 N   0  0  0  0  0  0  0  0  0  0  0  0
   41.3230   25.4150   43.5840 C   0  0  0  0  0  0  0  0  0  0  0  0
   40.0800   25.8050   43.2790 N   0  0  0  0  0  0  0  0  0  0  0  0
   38.5070   27.4270   42.6890 N   0  0  0  0  0  0  0  0  0  0  0  0
   37.4140   27.9070   43.2730 C   0  0  0  0  0  0  0  0  0  0  0  0
   36.4080   27.9590   42.3810 N   0  0  0  0  0  0  0  0  0  0  0  0
   36.9130   27.4890   41.1990 C   0  0  0  0  0  0  0  0  0  0  0  0
   38.2010   27.1720   41.4240 N   0  0  0  0  0  0  0  0  0  0  0  0
   40.8700   29.6820   41.2500 C   0  0  0  0  0  0  0  0  0  0  0  0
   40.4960   31.0220   40.8460 N   0  0  0  0  0  0  0  0  0  0  0  0
   41.3140   32.0290   40.4980 C   0  0  0  0  0  0  0  0  0  0  0  0
   40.5170   33.0940   40.1980 N   0  0  0  0  0  0  0  0  0  0  0  0
   39.2370   32.7580   40.3570 C   0  0  0  0  0  0  0  0  0  0  0  0
   38.0110   33.3890   40.2120 C   0  0  0  0  0  0  0  0  0  0  0  0
   38.0990   34.5850   39.8340 O   0  0  0  0  0  0  0  0  0  0  0  0
   36.8420   32.7370   40.4650 N   0  0  0  0  0  0  0  0  0  0  0  0
   36.8490   31.4490   40.8680 C   0  0  0  0  0  0  0  0  0  0  0  0
   35.6040   30.8080   41.1200 N   0  0  0  0  0  0  0  0  0  0  0  0
   38.0390   30.8330   41.0090 N   0  0  0  0  0  0  0  0  0  0  0  0
   39.2120   31.4310   40.7730 C   0  0  0  0  0  0  0  0  0  0  0  0
   39.5874   29.6951   42.9778 H   0  0  0  0  0  0  0  0  0  0  0  0
   41.2981   30.0953   43.3216 H   0  0  0  0  0  0  0  0  0  0  0  0
   43.0378   28.3008   43.3912 H   0  0  0  0  0  0  0  0  0  0  0  0
   41.5111   24.3546   43.8078 H   0  0  0  0  0  0  0  0  0  0  0  0
   37.3425   28.2152   44.3265 H   0  0  0  0  0  0  0  0  0  0  0  0
   36.3700   27.3895   40.2476 H   0  0  0  0  0  0  0  0  0  0  0  0
   41.9379   29.5302   41.0342 H   0  0  0  0  0  0  0  0  0  0  0  0
   40.2477   28.9697   40.6885 H   0  0  0  0  0  0  0  0  0  0  0  0
   42.4130   32.0001   40.4620 H   0  0  0  0  0  0  0  0  0  0  0  0
   35.9458   33.2309   40.3478 H   0  0  0  0  0  0  0  0  0  0  0  0
   35.5837   29.8255   41.4285 H   0  0  0  0  0  0  0  0  0  0  0  0
   34.7230   31.3265   40.9940 H   0  0  0  0  0  0  0  0  0  0  0  0
  1  3  1  0
  2  3  1  0
  2  7  2  0
  3  4  2  0
  4  5  1  0
  6  5  2  0
  7  6  1  0
  8  2  1  0
  8  9  1  0
 10  9  2  0
 11 12  2  0
 11 10  1  0
 12  8  1  0
 13  1  1  0
 14 13  1  0
 15 14  1  0
 16 17  1  0
 16 15  2  0
 17 24  2  0
 18 17  1  0
 18 20  1  0
 19 18  2  0
 20 21  1  0
 21 23  2  0
 21 22  1  0
 24 14  1  0
 24 23  1  0
  1 25  1  0
  1 26  1  0
  4 27  1  0
  6 28  1  0
  9 29  1  0
 11 30  1  0
 13 31  1  0
 13 32  1  0
 15 33  1  0
 20 34  1  0
 22 35  1  0
 22 36  1  0
M  ISO  8  25   8  26   8  27  14  28  14  29  14  30  14  31   8  32   8
M  ISO  2  33  14  34   9
M  END
>  <minimizedAffinity>  (1) 
-6.34283066

>  <minimizedRMSD>  (1) 
6.16321611

$$$$
