
     RDKit          3D

 33 35  0  0  0  0  0  0  0  0999 V2000
   37.7430   31.9180   38.4010 C   0  0  0  0  0  0  0  0  0  0  0  0
   36.4920   29.7820   38.6210 C   0  0  0  0  0  0  0  0  0  0  0  0
   36.9560   30.9800   39.1840 C   0  0  0  0  0  0  0  0  0  0  0  0
   36.6330   31.2300   40.5210 C   0  0  0  0  0  0  0  0  0  0  0  0
   35.8890   30.2960   41.1870 N   0  0  0  0  0  0  0  0  0  0  0  0
   35.4670   29.1720   40.6180 C   0  0  0  0  0  0  0  0  0  0  0  0
   35.7570   28.8990   39.3410 N   0  0  0  0  0  0  0  0  0  0  0  0
   36.7420   29.3940   37.2790 N   0  0  0  0  0  0  0  0  0  0  0  0
   36.2640   29.6150   36.0510 C   0  0  0  0  0  0  0  0  0  0  0  0
   36.9880   28.9020   35.1600 N   0  0  0  0  0  0  0  0  0  0  0  0
   37.9380   28.2260   35.8740 C   0  0  0  0  0  0  0  0  0  0  0  0
   37.7570   28.5510   37.1610 N   0  0  0  0  0  0  0  0  0  0  0  0
   39.1450   31.9850   38.9730 C   0  0  0  0  0  0  0  0  0  0  0  0
   39.5320   33.2980   39.4020 N   0  0  0  0  0  0  0  0  0  0  0  0
   38.6800   34.0700   40.1250 C   0  0  0  0  0  0  0  0  0  0  0  0
   39.0510   35.3500   40.5470 C   0  0  0  0  0  0  0  0  0  0  0  0
   40.3040   35.8700   40.2380 C   0  0  0  0  0  0  0  0  0  0  0  0
   40.6380   37.1770   40.6880 N   0  0  0  0  0  0  0  0  0  0  0  0
   41.1340   35.0750   39.5160 N   0  0  0  0  0  0  0  0  0  0  0  0
   40.7250   33.8330   39.1270 C   0  0  0  0  0  0  0  0  0  0  0  0
   41.5820   33.1840   38.4580 O   0  0  0  0  0  0  0  0  0  0  0  0
   37.2792   32.9145   38.4443 H   0  0  0  0  0  0  0  0  0  0  0  0
   37.7848   31.5840   37.3538 H   0  0  0  0  0  0  0  0  0  0  0  0
   36.9673   32.1504   41.0221 H   0  0  0  0  0  0  0  0  0  0  0  0
   34.8716   28.4568   41.2045 H   0  0  0  0  0  0  0  0  0  0  0  0
   35.4169   30.2720   35.8047 H   0  0  0  0  0  0  0  0  0  0  0  0
   38.7030   27.5467   35.4699 H   0  0  0  0  0  0  0  0  0  0  0  0
   39.1998   31.3072   39.8376 H   0  0  0  0  0  0  0  0  0  0  0  0
   39.8347   31.6946   38.1668 H   0  0  0  0  0  0  0  0  0  0  0  0
   37.6833   33.6823   40.3823 H   0  0  0  0  0  0  0  0  0  0  0  0
   38.3422   35.9548   41.1317 H   0  0  0  0  0  0  0  0  0  0  0  0
   41.5613   37.5771   40.4681 H   0  0  0  0  0  0  0  0  0  0  0  0
   39.9567   37.7235   41.2339 H   0  0  0  0  0  0  0  0  0  0  0  0
  1 13  1  0
  1  3  1  0
  2  3  1  0
  2  7  2  0
  3  4  2  0
  4  5  1  0
  6  5  2  0
  7  6  1  0
  8  2  1  0
  9  8  1  0
 10 11  1  0
 10  9  2  0
 11 12  2  0
 12  8  1  0
 13 14  1  0
 14 15  1  0
 15 16  2  0
 17 16  1  0
 17 18  1  0
 19 17  2  0
 20 14  1  0
 20 19  1  0
 21 20  2  0
  1 22  1  0
  1 23  1  0
  4 24  1  0
  6 25  1  0
  9 26  1  0
 11 27  1  0
 13 28  1  0
 13 29  1  0
 15 30  1  0
 16 31  1  0
 18 32  1  0
 18 33  1  0
M  ISO  8  22   8  23   8  24  14  25  14  26  14  27  14  28   8  29   8
M  ISO  2  30  14  31  14
M  END
>  <minimizedAffinity>  (1) 
-5.44780684

>  <minimizedRMSD>  (1) 
4.33818054

$$$$
