
     RDKit          3D

 36 38  0  0  1  0  0  0  0  0999 V2000
   37.4620   31.4210   40.0390 C   0  0  0  0  0  0  0  0  0  0  0  0
   38.6230   31.3480   40.8400 C   0  0  0  0  0  0  0  0  0  0  0  0
   39.3050   32.5330   41.1110 C   0  0  0  0  0  0  0  0  0  0  0  0
   38.8170   33.6880   40.5900 N   0  0  0  0  0  0  0  0  0  0  0  0
   37.7170   33.7250   39.8350 C   0  0  0  0  0  0  0  0  0  0  0  0
   37.0280   32.6090   39.5480 N   0  0  0  0  0  0  0  0  0  0  0  0
   36.6670   30.3070   39.6790 N   0  0  0  0  0  0  0  0  0  0  0  0
   36.6510   29.3260   38.7750 C   0  0  0  0  0  0  0  0  0  0  0  0
   35.5750   28.5530   38.9770 N   0  0  0  0  0  0  0  0  0  0  0  0
   34.9030   29.0740   40.0440 C   0  0  0  0  0  0  0  0  0  0  0  0
   35.6060   30.1510   40.4470 N   0  0  0  0  0  0  0  0  0  0  0  0
   39.0670   30.0490   41.3560 C   0  0  0  0  0  0  0  0  0  0  0  0
   38.7610   29.9920   42.8290 C   0  0  0  0  0  0  0  0  0  0  0  0
   38.5230   28.5690   43.3130 C   0  0  2  0  0  0  0  0  0  0  0  0
   39.7110   27.7150   42.9620 C   0  0  0  0  0  0  0  0  0  0  0  0
   39.3740   26.3330   43.5030 C   0  0  0  0  0  0  0  0  0  0  0  0
   38.3240   25.8120   42.5530 C   0  0  0  0  0  0  0  0  0  0  0  0
   37.0730   26.6260   42.5360 C   0  0  0  0  0  0  0  0  0  0  0  0
   37.2100   28.0640   42.8540 C   0  0  0  0  0  0  0  0  0  0  0  0
   40.2141   32.5325   41.7303 H   0  0  0  0  0  0  0  0  0  0  0  0
   37.3676   34.6902   39.4396 H   0  0  0  0  0  0  0  0  0  0  0  0
   37.4034   29.1752   37.9869 H   0  0  0  0  0  0  0  0  0  0  0  0
   33.9720   28.6910   40.4874 H   0  0  0  0  0  0  0  0  0  0  0  0
   38.5340   29.2404   40.8344 H   0  0  0  0  0  0  0  0  0  0  0  0
   40.1474   29.9260   41.1898 H   0  0  0  0  0  0  0  0  0  0  0  0
   39.6103   30.4173   43.3838 H   0  0  0  0  0  0  0  0  0  0  0  0
   37.8395   30.5665   43.0045 H   0  0  0  0  0  0  0  0  0  0  0  0
   38.4483   28.5356   44.4100 H   0  0  0  0  0  0  0  0  0  0  0  0
   39.8535   27.6796   41.8718 H   0  0  0  0  0  0  0  0  0  0  0  0
   40.6450   28.1099   43.3883 H   0  0  0  0  0  0  0  0  0  0  0  0
   40.2622   25.6841   43.4973 H   0  0  0  0  0  0  0  0  0  0  0  0
   39.0235   26.3615   44.5453 H   0  0  0  0  0  0  0  0  0  0  0  0
   38.7473   25.8046   41.5377 H   0  0  0  0  0  0  0  0  0  0  0  0
   38.0477   24.8054   42.9000 H   0  0  0  0  0  0  0  0  0  0  0  0
   36.0967   26.1783   42.2985 H   0  0  0  0  0  0  0  0  0  0  0  0
   36.3523   28.7450   42.7513 H   0  0  0  0  0  0  0  0  0  0  0  0
  1  2  1  0
  2  3  2  0
  2 12  1  0
  4  3  1  0
  5  4  2  0
  6  5  1  0
  6  1  2  0
  7  1  1  0
  7 11  1  0
  8  9  2  0
  8  7  1  0
  9 10  1  0
 10 11  2  0
 12 13  1  0
 14 13  1  0
 15 14  1  0
 15 16  1  0
 17 16  1  0
 18 17  1  0
 18 19  2  0
 19 14  1  0
  3 20  1  0
  5 21  1  0
  8 22  1  0
 10 23  1  0
 12 24  1  0
 12 25  1  0
 13 26  1  0
 13 27  1  0
 14 28  1  1
 15 29  1  0
 15 30  1  0
 16 31  1  0
 16 32  1  0
 17 33  1  0
 17 34  1  0
 18 35  1  0
 19 36  1  0
M  ISO  8  20  14  21  14  22  14  23  14  24   8  25   8  26   8  27   8
M  ISO  8  28  13  29  13  30  13  31  13  32  13  33  13  34  13  35  13
M  ISO  1  36  13
M  END
>  <minimizedAffinity>  (1) 
-5.30516672

>  <minimizedRMSD>  (1) 
7.0192132

$$$$
