
     RDKit          3D

 27 29  0  0  0  0  0  0  0  0999 V2000
   37.4050   31.7100   38.7000 C   0  0  0  0  0  0  0  0  0  0  0  0
   36.7790   30.6910   39.4160 C   0  0  0  0  0  0  0  0  0  0  0  0
   36.3180   29.5800   38.7060 C   0  0  0  0  0  0  0  0  0  0  0  0
   36.5090   29.5600   37.3590 N   0  0  0  0  0  0  0  0  0  0  0  0
   37.1150   30.5560   36.7040 C   0  0  0  0  0  0  0  0  0  0  0  0
   37.5700   31.6390   37.3530 N   0  0  0  0  0  0  0  0  0  0  0  0
   37.9220   32.8950   39.2900 N   0  0  0  0  0  0  0  0  0  0  0  0
   37.5020   34.0870   39.7040 C   0  0  0  0  0  0  0  0  0  0  0  0
   38.5420   34.7870   40.1930 N   0  0  0  0  0  0  0  0  0  0  0  0
   39.6520   33.9800   40.0690 C   0  0  0  0  0  0  0  0  0  0  0  0
   39.2290   32.8340   39.5130 N   0  0  0  0  0  0  0  0  0  0  0  0
   36.6090   30.7810   40.8560 C   0  0  0  0  0  0  0  0  0  0  0  0
   37.8710   30.2660   41.5400 C   0  0  0  0  0  0  0  0  0  0  0  0
   37.4050   29.1970   42.4650 C   0  0  0  0  0  0  0  0  0  0  0  0
   36.4990   28.2540   42.0740 N   0  0  0  0  0  0  0  0  0  0  0  0
   36.2690   27.4450   43.0730 O   0  0  0  0  0  0  0  0  0  0  0  0
   36.9780   27.7970   44.1170 C   0  0  0  0  0  0  0  0  0  0  0  0
   37.6940   28.8940   43.7470 N   0  0  0  0  0  0  0  0  0  0  0  0
   35.8161   28.7470   39.2199 H   0  0  0  0  0  0  0  0  0  0  0  0
   37.2428   30.4864   35.6137 H   0  0  0  0  0  0  0  0  0  0  0  0
   36.4634   34.4458   39.6543 H   0  0  0  0  0  0  0  0  0  0  0  0
   40.6818   34.2264   40.3670 H   0  0  0  0  0  0  0  0  0  0  0  0
   36.4365   31.8291   41.1419 H   0  0  0  0  0  0  0  0  0  0  0  0
   35.7453   30.1745   41.1661 H   0  0  0  0  0  0  0  0  0  0  0  0
   38.5718   29.8556   40.7981 H   0  0  0  0  0  0  0  0  0  0  0  0
   38.4057   31.0662   42.0726 H   0  0  0  0  0  0  0  0  0  0  0  0
   36.9919   27.3030   45.0997 H   0  0  0  0  0  0  0  0  0  0  0  0
  1  7  1  0
  1  2  1  0
  2 12  1  0
  3  2  2  0
  4  3  1  0
  5  6  1  0
  5  4  2  0
  6  1  2  0
  7 11  1  0
  7  8  1  0
  8  9  2  0
 10  9  1  0
 11 10  2  0
 12 13  1  0
 13 14  1  0
 14 18  1  0
 15 14  2  0
 15 16  1  0
 16 17  1  0
 18 17  2  0
  3 19  1  0
  5 20  1  0
  8 21  1  0
 10 22  1  0
 12 23  1  0
 12 24  1  0
 13 25  1  0
 13 26  1  0
 17 27  1  0
M  ISO  8  19  14  20  14  21  14  22  14  23   8  24   8  25   8  26   8
M  ISO  1  27  14
M  END
>  <minimizedAffinity>  (1) 
-4.94483042

>  <minimizedRMSD>  (1) 
5.69976807

$$$$
