
     RDKit          3D

 32 34  0  0  0  0  0  0  0  0999 V2000
   38.0710   31.0380   41.0840 C   0  0  0  0  0  0  0  0  0  0  0  0
   37.1260   31.2660   40.0870 C   0  0  0  0  0  0  0  0  0  0  0  0
   37.1130   32.4990   39.4380 C   0  0  0  0  0  0  0  0  0  0  0  0
   38.0510   33.4210   39.8330 N   0  0  0  0  0  0  0  0  0  0  0  0
   38.9420   33.1730   40.7900 C   0  0  0  0  0  0  0  0  0  0  0  0
   38.9720   31.9960   41.4270 N   0  0  0  0  0  0  0  0  0  0  0  0
   38.1910   29.8400   41.8150 N   0  0  0  0  0  0  0  0  0  0  0  0
   37.6300   29.2350   42.8770 C   0  0  0  0  0  0  0  0  0  0  0  0
   38.2350   28.0350   43.0690 N   0  0  0  0  0  0  0  0  0  0  0  0
   39.1880   27.9150   42.0960 C   0  0  0  0  0  0  0  0  0  0  0  0
   39.1270   29.0310   41.3560 N   0  0  0  0  0  0  0  0  0  0  0  0
   36.1690   30.2270   39.7340 C   0  0  0  0  0  0  0  0  0  0  0  0
   36.7030   29.4060   38.5900 C   0  0  0  0  0  0  0  0  0  0  0  0
   35.6110   29.2530   37.5940 C   0  0  0  0  0  0  0  0  0  0  0  0
   35.7900   29.3260   36.2330 C   0  0  0  0  0  0  0  0  0  0  0  0
   34.6550   29.1600   35.4360 C   0  0  0  0  0  0  0  0  0  0  0  0
   33.4150   28.9350   35.9620 C   0  0  0  0  0  0  0  0  0  0  0  0
   33.2340   28.8610   37.3260 C   0  0  0  0  0  0  0  0  0  0  0  0
   34.3550   29.0250   38.1260 C   0  0  0  0  0  0  0  0  0  0  0  0
   36.3844   32.7237   38.6451 H   0  0  0  0  0  0  0  0  0  0  0  0
   39.6692   33.9517   41.0634 H   0  0  0  0  0  0  0  0  0  0  0  0
   36.8141   29.6455   43.4900 H   0  0  0  0  0  0  0  0  0  0  0  0
   39.8725   27.0666   41.9489 H   0  0  0  0  0  0  0  0  0  0  0  0
   36.0011   29.5749   40.6038 H   0  0  0  0  0  0  0  0  0  0  0  0
   35.2206   30.6954   39.4321 H   0  0  0  0  0  0  0  0  0  0  0  0
   37.5606   29.9184   38.1296 H   0  0  0  0  0  0  0  0  0  0  0  0
   37.0390   28.4213   38.9470 H   0  0  0  0  0  0  0  0  0  0  0  0
   36.7813   29.5068   35.7919 H   0  0  0  0  0  0  0  0  0  0  0  0
   34.7642   29.2125   34.3427 H   0  0  0  0  0  0  0  0  0  0  0  0
   32.5525   28.8117   35.2905 H   0  0  0  0  0  0  0  0  0  0  0  0
   32.2408   28.6793   37.7626 H   0  0  0  0  0  0  0  0  0  0  0  0
   34.2414   28.9720   39.2188 H   0  0  0  0  0  0  0  0  0  0  0  0
  1  6  1  0
  1  7  1  0
  2  1  2  0
  3  4  2  0
  3  2  1  0
  4  5  1  0
  5  6  2  0
  7  8  1  0
  8  9  2  0
 10  9  1  0
 11  7  1  0
 11 10  2  0
 12  2  1  0
 13 12  1  0
 14 19  1  0
 14 13  1  0
 15 14  2  0
 16 17  2  0
 16 15  1  0
 17 18  1  0
 18 19  2  0
  3 20  1  0
  5 21  1  0
  8 22  1  0
 10 23  1  0
 12 24  1  0
 12 25  1  0
 13 26  1  0
 13 27  1  0
 15 28  1  0
 16 29  1  0
 17 30  1  0
 18 31  1  0
 19 32  1  0
M  ISO  8  20  14  21  14  22  14  23  14  24   8  25   8  26   8  27   8
M  ISO  5  28  14  29  14  30  14  31  14  32  14
M  END
>  <minimizedAffinity>  (1) 
-4.83595181

>  <minimizedRMSD>  (1) 
5.18805218

$$$$
