
     RDKit          3D

 35 37  0  0  0  0  0  0  0  0999 V2000
   37.3810   32.2290   39.2540 C   0  0  0  0  0  0  0  0  0  0  0  0
   38.3800   30.4490   37.8450 C   0  0  0  0  0  0  0  0  0  0  0  0
   37.2990   30.9420   38.5810 C   0  0  0  0  0  0  0  0  0  0  0  0
   36.1310   30.1760   38.6610 C   0  0  0  0  0  0  0  0  0  0  0  0
   36.1260   28.9750   38.0030 N   0  0  0  0  0  0  0  0  0  0  0  0
   37.1670   28.5350   37.3120 C   0  0  0  0  0  0  0  0  0  0  0  0
   38.3030   29.2440   37.2130 N   0  0  0  0  0  0  0  0  0  0  0  0
   39.6100   31.1200   37.6830 N   0  0  0  0  0  0  0  0  0  0  0  0
   40.1510   32.0800   36.9270 C   0  0  0  0  0  0  0  0  0  0  0  0
   41.4360   32.2690   37.2850 N   0  0  0  0  0  0  0  0  0  0  0  0
   41.6900   31.3870   38.3040 C   0  0  0  0  0  0  0  0  0  0  0  0
   40.5510   30.7020   38.5200 N   0  0  0  0  0  0  0  0  0  0  0  0
   37.9220   32.0430   40.6470 C   0  0  0  0  0  0  0  0  0  0  0  0
   39.0650   32.9560   40.7810 N   0  0  0  0  0  0  0  0  0  0  0  0
   38.8310   34.2170   40.3490 C   0  0  0  0  0  0  0  0  0  0  0  0
   39.7840   35.2000   40.3990 C   0  0  0  0  0  0  0  0  0  0  0  0
   39.4800   36.5900   39.9080 C   0  0  0  0  0  0  0  0  0  0  0  0
   41.0310   34.8500   40.9200 C   0  0  0  0  0  0  0  0  0  0  0  0
   41.9230   35.7360   40.9750 O   0  0  0  0  0  0  0  0  0  0  0  0
   41.2270   33.5870   41.3380 N   0  0  0  0  0  0  0  0  0  0  0  0
   40.2740   32.6370   41.2790 C   0  0  0  0  0  0  0  0  0  0  0  0
   40.4250   31.4540   41.6610 O   0  0  0  0  0  0  0  0  0  0  0  0
   36.3779   32.6770   39.3087 H   0  0  0  0  0  0  0  0  0  0  0  0
   38.0529   32.8919   38.6891 H   0  0  0  0  0  0  0  0  0  0  0  0
   35.2547   30.5234   39.2279 H   0  0  0  0  0  0  0  0  0  0  0  0
   37.0989   27.5612   36.8049 H   0  0  0  0  0  0  0  0  0  0  0  0
   39.6268   32.6321   36.1330 H   0  0  0  0  0  0  0  0  0  0  0  0
   42.6416   31.2629   38.8417 H   0  0  0  0  0  0  0  0  0  0  0  0
   37.1496   32.2909   41.3900 H   0  0  0  0  0  0  0  0  0  0  0  0
   38.2266   30.9998   40.8173 H   0  0  0  0  0  0  0  0  0  0  0  0
   37.8386   34.4618   39.9426 H   0  0  0  0  0  0  0  0  0  0  0  0
   39.3337   37.2591   40.7688 H   0  0  0  0  0  0  0  0  0  0  0  0
   40.3195   36.9553   39.2982 H   0  0  0  0  0  0  0  0  0  0  0  0
   38.5647   36.5715   39.2982 H   0  0  0  0  0  0  0  0  0  0  0  0
   42.1490   33.3342   41.7212 H   0  0  0  0  0  0  0  0  0  0  0  0
  1 13  1  0
  2  3  1  0
  3  4  2  0
  3  1  1  0
  5  4  1  0
  6  5  2  0
  7  6  1  0
  7  2  2  0
  8  2  1  0
  8 12  1  0
  9 10  2  0
  9  8  1  0
 10 11  1  0
 11 12  2  0
 13 14  1  0
 14 21  1  0
 15 16  2  0
 15 14  1  0
 16 18  1  0
 17 16  1  0
 18 19  2  0
 18 20  1  0
 21 20  1  0
 21 22  2  0
  1 23  1  0
  1 24  1  0
  4 25  1  0
  6 26  1  0
  9 27  1  0
 11 28  1  0
 13 29  1  0
 13 30  1  0
 15 31  1  0
 17 32  1  0
 17 33  1  0
 17 34  1  0
 20 35  1  0
M  ISO  8  23   8  24   8  25  14  26  14  27  14  28  14  29   8  30   8
M  ISO  5  31  14  32   8  33   8  34   8  35   9
M  END
>  <minimizedAffinity>  (1) 
-4.73198366

>  <minimizedRMSD>  (1) 
4.41703176

$$$$
