
     RDKit          3D

 34 36  0  0  0  0  0  0  0  0999 V2000
   37.5580   31.5490   39.9730 C   0  0  0  0  0  0  0  0  0  0  0  0
   38.7210   31.4420   40.7320 C   0  0  0  0  0  0  0  0  0  0  0  0
   39.4100   32.6130   41.0520 C   0  0  0  0  0  0  0  0  0  0  0  0
   38.9100   33.7980   40.6070 N   0  0  0  0  0  0  0  0  0  0  0  0
   37.7960   33.8710   39.8830 C   0  0  0  0  0  0  0  0  0  0  0  0
   37.0980   32.7650   39.5510 N   0  0  0  0  0  0  0  0  0  0  0  0
   36.7560   30.4540   39.5730 N   0  0  0  0  0  0  0  0  0  0  0  0
   36.7190   29.5170   38.6260 C   0  0  0  0  0  0  0  0  0  0  0  0
   35.6310   28.7340   38.8170 N   0  0  0  0  0  0  0  0  0  0  0  0
   34.9860   29.2270   39.9330 C   0  0  0  0  0  0  0  0  0  0  0  0
   35.7030   30.2690   40.3590 N   0  0  0  0  0  0  0  0  0  0  0  0
   39.1950   30.1460   41.1720 C   0  0  0  0  0  0  0  0  0  0  0  0
   38.8590   29.9400   42.6300 C   0  0  0  0  0  0  0  0  0  0  0  0
   37.6920   29.0920   42.7080 N   0  0  0  0  0  0  0  0  0  0  0  0
   37.4060   28.6560   44.0580 C   0  0  0  0  0  0  0  0  0  0  0  0
   36.6370   27.3560   43.9320 C   0  0  0  0  0  0  0  0  0  0  0  0
   36.6270   27.1020   42.4420 C   0  0  0  0  0  0  0  0  0  0  0  0
   37.8960   27.8210   42.0280 C   0  0  0  0  0  0  0  0  0  0  0  0
   40.3335   32.5789   41.6486 H   0  0  0  0  0  0  0  0  0  0  0  0
   37.4361   34.8549   39.5477 H   0  0  0  0  0  0  0  0  0  0  0  0
   37.4554   29.3985   37.8175 H   0  0  0  0  0  0  0  0  0  0  0  0
   34.0613   28.8372   40.3836 H   0  0  0  0  0  0  0  0  0  0  0  0
   38.7133   29.3594   40.5726 H   0  0  0  0  0  0  0  0  0  0  0  0
   40.2864   30.0982   41.0430 H   0  0  0  0  0  0  0  0  0  0  0  0
   39.7046   29.4581   43.1427 H   0  0  0  0  0  0  0  0  0  0  0  0
   38.6594   30.9071   43.1146 H   0  0  0  0  0  0  0  0  0  0  0  0
   38.3423   28.4924   44.6117 H   0  0  0  0  0  0  0  0  0  0  0  0
   36.8257   29.4118   44.6075 H   0  0  0  0  0  0  0  0  0  0  0  0
   37.1481   26.5422   44.4672 H   0  0  0  0  0  0  0  0  0  0  0  0
   35.6280   27.4084   44.3669 H   0  0  0  0  0  0  0  0  0  0  0  0
   36.6767   26.0272   42.2134 H   0  0  0  0  0  0  0  0  0  0  0  0
   35.7181   27.4444   41.9257 H   0  0  0  0  0  0  0  0  0  0  0  0
   38.7965   27.3031   42.3898 H   0  0  0  0  0  0  0  0  0  0  0  0
   38.0569   27.8941   40.9423 H   0  0  0  0  0  0  0  0  0  0  0  0
  1  2  1  0
  2  3  2  0
  2 12  1  0
  4  3  1  0
  5  4  2  0
  6  5  1  0
  6  1  2  0
  7  1  1  0
  7 11  1  0
  8  9  2  0
  8  7  1  0
  9 10  1  0
 10 11  2  0
 12 13  1  0
 13 14  1  0
 14 15  1  0
 16 15  1  0
 17 16  1  0
 18 17  1  0
 18 14  1  0
  3 19  1  0
  5 20  1  0
  8 21  1  0
 10 22  1  0
 12 23  1  0
 12 24  1  0
 13 25  1  0
 13 26  1  0
 15 27  1  0
 15 28  1  0
 16 29  1  0
 16 30  1  0
 17 31  1  0
 17 32  1  0
 18 33  1  0
 18 34  1  0
M  ISO  8  19  14  20  14  21  14  22  14  23   8  24   8  25   8  26   8
M  ISO  8  27  13  28  13  29  13  30  13  31  13  32  13  33  13  34  13
M  END
>  <minimizedAffinity>  (1) 
-4.68679905

>  <minimizedRMSD>  (1) 
6.27720785

$$$$
