
     RDKit          3D

 30 32  0  0  0  0  0  0  0  0999 V2000
   38.0250   31.0490   41.0280 C   0  0  0  0  0  0  0  0  0  0  0  0
   37.1180   31.3260   40.0080 C   0  0  0  0  0  0  0  0  0  0  0  0
   37.1620   32.5750   39.3880 C   0  0  0  0  0  0  0  0  0  0  0  0
   38.1040   33.4540   39.8290 N   0  0  0  0  0  0  0  0  0  0  0  0
   38.9690   33.1690   40.8110 C   0  0  0  0  0  0  0  0  0  0  0  0
   38.9450   31.9740   41.4210 N   0  0  0  0  0  0  0  0  0  0  0  0
   38.0870   29.8230   41.7380 N   0  0  0  0  0  0  0  0  0  0  0  0
   37.4950   29.2060   42.7560 C   0  0  0  0  0  0  0  0  0  0  0  0
   38.0550   27.9870   42.9330 N   0  0  0  0  0  0  0  0  0  0  0  0
   39.0280   27.8630   41.9790 C   0  0  0  0  0  0  0  0  0  0  0  0
   39.0190   29.0030   41.2660 N   0  0  0  0  0  0  0  0  0  0  0  0
   36.1380   30.3160   39.6020 C   0  0  0  0  0  0  0  0  0  0  0  0
   36.6790   29.5580   38.4090 C   0  0  0  0  0  0  0  0  0  0  0  0
   35.5160   29.2930   37.5210 C   0  0  0  0  0  0  0  0  0  0  0  0
   34.2650   28.9880   38.0140 C   0  0  0  0  0  0  0  0  0  0  0  0
   33.1770   28.7400   37.1790 C   0  0  0  0  0  0  0  0  0  0  0  0
   33.3540   28.8010   35.8610 N   0  0  0  0  0  0  0  0  0  0  0  0
   34.5770   29.0980   35.3850 C   0  0  0  0  0  0  0  0  0  0  0  0
   35.6570   29.3450   36.1730 N   0  0  0  0  0  0  0  0  0  0  0  0
   36.4659   32.8384   38.5780 H   0  0  0  0  0  0  0  0  0  0  0  0
   39.7075   33.9230   41.1210 H   0  0  0  0  0  0  0  0  0  0  0  0
   36.6762   29.6223   43.3611 H   0  0  0  0  0  0  0  0  0  0  0  0
   39.6897   26.9979   41.8251 H   0  0  0  0  0  0  0  0  0  0  0  0
   35.9614   29.6179   40.4336 H   0  0  0  0  0  0  0  0  0  0  0  0
   35.1895   30.8044   39.3338 H   0  0  0  0  0  0  0  0  0  0  0  0
   37.4307   30.1638   37.8817 H   0  0  0  0  0  0  0  0  0  0  0  0
   37.1678   28.6222   38.7178 H   0  0  0  0  0  0  0  0  0  0  0  0
   34.1208   28.9387   39.1034 H   0  0  0  0  0  0  0  0  0  0  0  0
   32.1904   28.4984   37.6012 H   0  0  0  0  0  0  0  0  0  0  0  0
   34.7109   29.1436   34.2941 H   0  0  0  0  0  0  0  0  0  0  0  0
  1  6  1  0
  1  7  1  0
  2  1  2  0
  3  4  2  0
  3  2  1  0
  4  5  1  0
  5  6  2  0
  7  8  1  0
  8  9  2  0
 10  9  1  0
 11  7  1  0
 11 10  2  0
 12  2  1  0
 13 12  1  0
 14 15  2  0
 14 13  1  0
 16 15  1  0
 17 16  2  0
 18 17  1  0
 18 19  2  0
 19 14  1  0
  3 20  1  0
  5 21  1  0
  8 22  1  0
 10 23  1  0
 12 24  1  0
 12 25  1  0
 13 26  1  0
 13 27  1  0
 15 28  1  0
 16 29  1  0
 18 30  1  0
M  ISO  8  20  14  21  14  22  14  23  14  24   8  25   8  26   8  27   8
M  ISO  3  28  14  29  14  30  14
M  END
>  <minimizedAffinity>  (1) 
-4.48576021

>  <minimizedRMSD>  (1) 
5.27636909

$$$$
