
     RDKit          3D

 22 23  0  0  0  0  0  0  0  0999 V2000
   37.1720   30.0980   40.9410 C   0  0  0  0  0  0  0  0  0  0  0  0
   36.6750   29.6180   39.7200 C   0  0  0  0  0  0  0  0  0  0  0  0
   36.5740   30.5250   38.6560 C   0  0  0  0  0  0  0  0  0  0  0  0
   36.9690   31.8240   38.8850 N   0  0  0  0  0  0  0  0  0  0  0  0
   37.4390   32.2380   40.0730 C   0  0  0  0  0  0  0  0  0  0  0  0
   37.5410   31.3690   41.1120 N   0  0  0  0  0  0  0  0  0  0  0  0
   37.2690   29.1640   42.0110 N   0  0  0  0  0  0  0  0  0  0  0  0
   36.4880   27.9530   42.1710 C   0  0  0  0  0  0  0  0  0  0  0  0
   37.4410   27.0340   42.9310 C   0  0  0  0  0  0  0  0  0  0  0  0
   38.7180   27.8360   43.1540 C   0  0  0  0  0  0  0  0  0  0  0  0
   38.1680   29.2450   43.1490 C   0  0  0  0  0  0  0  0  0  0  0  0
   36.3750   28.5663   39.6017 H   0  0  0  0  0  0  0  0  0  0  0  0
   36.1928   30.2103   37.6733 H   0  0  0  0  0  0  0  0  0  0  0  0
   37.7431   33.2868   40.2054 H   0  0  0  0  0  0  0  0  0  0  0  0
   35.5743   28.1447   42.7527 H   0  0  0  0  0  0  0  0  0  0  0  0
   36.1420   27.5287   41.2169 H   0  0  0  0  0  0  0  0  0  0  0  0
   37.0007   26.7420   43.8958 H   0  0  0  0  0  0  0  0  0  0  0  0
   37.6410   26.1103   42.3682 H   0  0  0  0  0  0  0  0  0  0  0  0
   39.1895   27.5882   44.1165 H   0  0  0  0  0  0  0  0  0  0  0  0
   39.5087   27.6516   42.4118 H   0  0  0  0  0  0  0  0  0  0  0  0
   38.9603   29.9914   42.9904 H   0  0  0  0  0  0  0  0  0  0  0  0
   37.6943   29.5595   44.0907 H   0  0  0  0  0  0  0  0  0  0  0  0
  1  6  1  0
  1  7  1  0
  2  1  2  0
  3  4  2  0
  3  2  1  0
  4  5  1  0
  5  6  2  0
  7  8  1  0
  7 11  1  0
  8  9  1  0
  9 10  1  0
 11 10  1  0
  2 12  1  0
  3 13  1  0
  5 14  1  0
  8 15  1  0
  8 16  1  0
  9 17  1  0
  9 18  1  0
 10 19  1  0
 10 20  1  0
 11 21  1  0
 11 22  1  0
M  ISO  8  12  14  13  14  14  14  15  13  16  13  17  13  18  13  19  13
M  ISO  3  20  13  21  13  22  13
M  END
>  <minimizedAffinity>  (1) 
-3.40607119

>  <minimizedRMSD>  (1) 
3.97117209

$$$$
