
     RDKit          3D

 29 31  0  0  0  0  0  0  0  0999 V2000
   38.8680   31.3540   39.4480 C   0  0  0  0  0  0  0  0  0  0  0  0
   37.8630   32.1810   39.9550 C   0  0  0  0  0  0  0  0  0  0  0  0
   36.8480   31.6100   40.7140 C   0  0  0  0  0  0  0  0  0  0  0  0
   36.9070   30.2540   40.9160 N   0  0  0  0  0  0  0  0  0  0  0  0
   37.8770   29.4890   40.4210 C   0  0  0  0  0  0  0  0  0  0  0  0
   38.8650   30.0140   39.6860 N   0  0  0  0  0  0  0  0  0  0  0  0
   39.9590   31.8010   38.6600 N   0  0  0  0  0  0  0  0  0  0  0  0
   40.2350   32.1010   37.3860 C   0  0  0  0  0  0  0  0  0  0  0  0
   41.5200   32.4860   37.2850 N   0  0  0  0  0  0  0  0  0  0  0  0
   42.0550   32.4170   38.5530 C   0  0  0  0  0  0  0  0  0  0  0  0
   41.0670   31.9960   39.3610 N   0  0  0  0  0  0  0  0  0  0  0  0
   37.8940   33.6250   39.6750 C   0  0  0  0  0  0  0  0  0  0  0  0
   38.7000   34.3100   40.7420 C   0  0  0  0  0  0  0  0  0  0  0  0
   39.7320   35.1870   40.1290 C   0  0  0  0  0  0  0  0  0  0  0  0
   40.5580   36.1110   40.9380 C   0  0  0  0  0  0  0  0  0  0  0  0
   39.4570   36.6430   40.0360 C   0  0  0  0  0  0  0  0  0  0  0  0
   36.0335   32.2183   41.1341 H   0  0  0  0  0  0  0  0  0  0  0  0
   37.8667   28.4070   40.6192 H   0  0  0  0  0  0  0  0  0  0  0  0
   39.5219   32.0420   36.5505 H   0  0  0  0  0  0  0  0  0  0  0  0
   43.0873   32.6588   38.8461 H   0  0  0  0  0  0  0  0  0  0  0  0
   38.3566   33.8009   38.6926 H   0  0  0  0  0  0  0  0  0  0  0  0
   36.8695   34.0253   39.6669 H   0  0  0  0  0  0  0  0  0  0  0  0
   38.0306   34.9198   41.3665 H   0  0  0  0  0  0  0  0  0  0  0  0
   39.1996   33.5470   41.3569 H   0  0  0  0  0  0  0  0  0  0  0  0
   39.9860   34.3847   39.4206 H   0  0  0  0  0  0  0  0  0  0  0  0
   40.4398   36.1436   42.0311 H   0  0  0  0  0  0  0  0  0  0  0  0
   41.6356   36.3006   41.0515 H   0  0  0  0  0  0  0  0  0  0  0  0
   39.7119   37.1962   39.1201 H   0  0  0  0  0  0  0  0  0  0  0  0
   38.5734   37.2838   40.1725 H   0  0  0  0  0  0  0  0  0  0  0  0
  1  6  2  0
  1  2  1  0
  2  3  2  0
  3  4  1  0
  5  4  2  0
  6  5  1  0
  7 11  1  0
  7  1  1  0
  8  7  1  0
  9  8  2  0
  9 10  1  0
 10 11  2  0
 12  2  1  0
 12 13  1  0
 14 13  1  0
 14 15  1  0
 16 14  1  0
 16 15  1  0
  3 17  1  0
  5 18  1  0
  8 19  1  0
 10 20  1  0
 12 21  1  0
 12 22  1  0
 13 23  1  0
 13 24  1  0
 14 25  1  0
 15 26  1  0
 15 27  1  0
 16 28  1  0
 16 29  1  0
M  ISO  8  17  14  18  14  19  14  20  14  21   8  22   8  23   8  24   8
M  ISO  5  25  13  26  13  27  13  28  13  29  13
M  END
>  <minimizedAffinity>  (1) 
-4.20069408

>  <minimizedRMSD>  (1) 
2.07298923

$$$$
