
     RDKit          3D

 19 19  0  0  0  0  0  0  0  0999 V2000
   36.5480   28.7100   41.9520 C   0  0  0  0  0  0  0  0  0  0  0  0
   35.6130   28.6910   40.9090 C   0  0  0  0  0  0  0  0  0  0  0  0
   35.5970   29.7830   40.0260 C   0  0  0  0  0  0  0  0  0  0  0  0
   36.4900   30.7900   40.2390 N   0  0  0  0  0  0  0  0  0  0  0  0
   37.3790   30.7690   41.2610 C   0  0  0  0  0  0  0  0  0  0  0  0
   37.3990   29.7250   42.1100 N   0  0  0  0  0  0  0  0  0  0  0  0
   36.5840   27.5750   42.8920 C   0  0  0  0  0  0  0  0  0  0  0  0
   37.5340   26.5490   42.3080 C   0  0  0  0  0  0  0  0  0  0  0  0
   37.0830   27.9500   44.2540 C   0  0  0  0  0  0  0  0  0  0  0  0
   34.9152   27.8496   40.7858 H   0  0  0  0  0  0  0  0  0  0  0  0
   34.8854   29.8241   39.1882 H   0  0  0  0  0  0  0  0  0  0  0  0
   38.0829   31.6034   41.3966 H   0  0  0  0  0  0  0  0  0  0  0  0
   35.5580   27.1987   43.0170 H   0  0  0  0  0  0  0  0  0  0  0  0
   38.0354   26.0075   43.1237 H   0  0  0  0  0  0  0  0  0  0  0  0
   36.9691   25.8372   41.6882 H   0  0  0  0  0  0  0  0  0  0  0  0
   38.2871   27.0576   41.6882 H   0  0  0  0  0  0  0  0  0  0  0  0
   36.4514   27.4754   45.0194 H   0  0  0  0  0  0  0  0  0  0  0  0
   38.1215   27.6070   44.3713 H   0  0  0  0  0  0  0  0  0  0  0  0
   37.0424   29.0430   44.3713 H   0  0  0  0  0  0  0  0  0  0  0  0
  1  6  2  0
  1  7  1  0
  2  1  1  0
  3  4  1  0
  3  2  2  0
  4  5  2  0
  5  6  1  0
  7  9  1  0
  8  7  1  0
  2 10  1  0
  3 11  1  0
  5 12  1  0
  7 13  1  0
  8 14  1  0
  8 15  1  0
  8 16  1  0
  9 17  1  0
  9 18  1  0
  9 19  1  0
M  ISO  8  10  14  11  14  12  14  13   8  14   8  15   8  16   8  17   8
M  ISO  2  18   8  19   8
M  END
>  <minimizedAffinity>  (1) 
-3.39712548

>  <minimizedRMSD>  (1) 
3.16339874

$$$$
