
     RDKit          3D

 36 38  0  0  0  0  0  0  0  0999 V2000
   38.5010   31.0590   39.0830 C   0  0  0  0  0  0  0  0  0  0  0  0
   37.6650   31.9370   39.7750 C   0  0  0  0  0  0  0  0  0  0  0  0
   36.5390   31.4200   40.4070 C   0  0  0  0  0  0  0  0  0  0  0  0
   36.3230   30.0640   40.3050 N   0  0  0  0  0  0  0  0  0  0  0  0
   37.1430   29.2560   39.6340 C   0  0  0  0  0  0  0  0  0  0  0  0
   38.2420   29.7340   39.0140 N   0  0  0  0  0  0  0  0  0  0  0  0
   39.6820   31.4540   38.3970 N   0  0  0  0  0  0  0  0  0  0  0  0
   40.0470   31.9720   37.2280 C   0  0  0  0  0  0  0  0  0  0  0  0
   41.3930   32.1060   37.2060 N   0  0  0  0  0  0  0  0  0  0  0  0
   41.8600   31.6530   38.4070 C   0  0  0  0  0  0  0  0  0  0  0  0
   40.7870   31.2640   39.1040 N   0  0  0  0  0  0  0  0  0  0  0  0
   37.9600   33.3570   39.8340 C   0  0  0  0  0  0  0  0  0  0  0  0
   38.9360   33.6190   40.9710 C   0  0  0  0  0  0  0  0  0  0  0  0
   39.5370   34.9170   40.8800 N   0  0  0  0  0  0  0  0  0  0  0  0
   40.9600   34.8710   40.8040 C   0  0  0  0  0  0  0  0  0  0  0  0
   41.5620   36.1920   41.1730 C   0  0  0  0  0  0  0  0  0  0  0  0
   40.6380   37.2690   41.0240 N   0  0  0  0  0  0  0  0  0  0  0  0
   39.7100   37.1100   39.9480 C   0  0  0  0  0  0  0  0  0  0  0  0
   38.8870   35.8450   40.0180 C   0  0  0  0  0  0  0  0  0  0  0  0
   35.8485   32.0686   40.9661 H   0  0  0  0  0  0  0  0  0  0  0  0
   36.9200   28.1800   39.5846 H   0  0  0  0  0  0  0  0  0  0  0  0
   39.3644   32.2472   36.4105 H   0  0  0  0  0  0  0  0  0  0  0  0
   42.9092   31.6156   38.7353 H   0  0  0  0  0  0  0  0  0  0  0  0
   38.4085   33.6793   38.8827 H   0  0  0  0  0  0  0  0  0  0  0  0
   37.0312   33.9202   40.0075 H   0  0  0  0  0  0  0  0  0  0  0  0
   38.3954   33.5451   41.9261 H   0  0  0  0  0  0  0  0  0  0  0  0
   39.7388   32.8698   40.9065 H   0  0  0  0  0  0  0  0  0  0  0  0
   41.3321   34.1007   41.4955 H   0  0  0  0  0  0  0  0  0  0  0  0
   41.2474   34.6325   39.7693 H   0  0  0  0  0  0  0  0  0  0  0  0
   41.8905   36.1503   42.2220 H   0  0  0  0  0  0  0  0  0  0  0  0
   42.4074   36.3778   40.4942 H   0  0  0  0  0  0  0  0  0  0  0  0
   40.1030   37.3573   41.8997 H   0  0  0  0  0  0  0  0  0  0  0  0
   40.2751   37.1015   39.0043 H   0  0  0  0  0  0  0  0  0  0  0  0
   39.0028   37.9498   40.0156 H   0  0  0  0  0  0  0  0  0  0  0  0
   37.8868   36.0770   40.4127 H   0  0  0  0  0  0  0  0  0  0  0  0
   38.7862   35.4108   39.0124 H   0  0  0  0  0  0  0  0  0  0  0  0
  1  2  1  0
  2 12  1  0
  2  3  2  0
  4  3  1  0
  5  4  2  0
  6  1  2  0
  6  5  1  0
  7  1  1  0
  7 11  1  0
  8  7  1  0
  9  8  2  0
  9 10  1  0
 10 11  2  0
 12 13  1  0
 14 13  1  0
 15 14  1  0
 15 16  1  0
 17 16  1  0
 18 19  1  0
 18 17  1  0
 19 14  1  0
  3 20  1  0
  5 21  1  0
  8 22  1  0
 10 23  1  0
 12 24  1  0
 12 25  1  0
 13 26  1  0
 13 27  1  0
 15 28  1  0
 15 29  1  0
 16 30  1  0
 16 31  1  0
 17 32  1  0
 18 33  1  0
 18 34  1  0
 19 35  1  0
 19 36  1  0
M  ISO  8  20  14  21  14  22  14  23  14  24   8  25   8  26   8  27   8
M  ISO  8  28  13  29  13  30  13  31  13  32   5  33  13  34  13  35  13
M  ISO  1  36  13
M  END
>  <minimizedAffinity>  (1) 
-4.71676064

>  <minimizedRMSD>  (1) 
2.97188425

$$$$
