
     RDKit          3D

 22 22  0  0  0  0  0  0  0  0999 V2000
   36.8430   28.8490   41.4960 C   0  0  0  0  0  0  0  0  0  0  0  0
   36.7740   27.4570   41.3000 C   0  0  0  0  0  0  0  0  0  0  0  0
   37.2900   26.6240   42.3000 C   0  0  0  0  0  0  0  0  0  0  0  0
   37.8350   27.2110   43.4190 N   0  0  0  0  0  0  0  0  0  0  0  0
   37.8810   28.5500   43.5700 C   0  0  0  0  0  0  0  0  0  0  0  0
   37.3880   29.3560   42.6140 N   0  0  0  0  0  0  0  0  0  0  0  0
   36.2720   29.6290   40.3830 C   0  0  0  0  0  0  0  0  0  0  0  0
   37.0830   29.4440   39.1210 C   0  0  0  0  0  0  0  0  0  0  0  0
   36.3020   31.0880   40.7740 C   0  0  0  0  0  0  0  0  0  0  0  0
   34.8380   29.2100   40.0970 C   0  0  0  0  0  0  0  0  0  0  0  0
   36.3275   27.0356   40.3873 H   0  0  0  0  0  0  0  0  0  0  0  0
   37.2606   25.5295   42.1941 H   0  0  0  0  0  0  0  0  0  0  0  0
   38.3235   28.9843   44.4786 H   0  0  0  0  0  0  0  0  0  0  0  0
   38.1240   29.2065   39.3856 H   0  0  0  0  0  0  0  0  0  0  0  0
   36.6579   28.6198   38.5295 H   0  0  0  0  0  0  0  0  0  0  0  0
   37.0574   30.3711   38.5295 H   0  0  0  0  0  0  0  0  0  0  0  0
   36.3038   31.1737   41.8707 H   0  0  0  0  0  0  0  0  0  0  0  0
   37.2100   31.5578   40.3680 H   0  0  0  0  0  0  0  0  0  0  0  0
   35.4141   31.5947   40.3680 H   0  0  0  0  0  0  0  0  0  0  0  0
   34.3052   29.0543   41.0467 H   0  0  0  0  0  0  0  0  0  0  0  0
   34.3340   29.9984   39.5188 H   0  0  0  0  0  0  0  0  0  0  0  0
   34.8378   28.2742   39.5188 H   0  0  0  0  0  0  0  0  0  0  0  0
  1  6  2  0
  2  1  1  0
  2  3  2  0
  3  4  1  0
  4  5  2  0
  6  5  1  0
  7  9  1  0
  7  1  1  0
  8  7  1  0
 10  7  1  0
  2 11  1  0
  3 12  1  0
  5 13  1  0
  8 14  1  0
  8 15  1  0
  8 16  1  0
  9 17  1  0
  9 18  1  0
  9 19  1  0
 10 20  1  0
 10 21  1  0
 10 22  1  0
M  ISO  8  11  14  12  14  13  14  14   8  15   8  16   8  17   8  18   8
M  ISO  4  19   8  20   8  21   8  22   8
M  END
>  <minimizedAffinity>  (1) 
-3.38512945

>  <minimizedRMSD>  (1) 
4.08311319

$$$$
