
     RDKit          3D

 39 41  0  0  1  0  0  0  0  0999 V2000
   38.9920   33.0330   40.9830 C   0  0  0  0  0  0  0  0  0  0  0  0
   40.2600   33.6440   40.6600 N   0  0  0  0  0  0  0  0  0  0  0  0
   41.3800   32.8130   40.8960 C   0  0  0  0  0  0  0  0  0  0  0  0
   42.6270   33.6320   41.0350 C   0  0  0  0  0  0  0  0  0  0  0  0
   42.5060   34.9110   40.3890 N   0  0  0  0  0  0  0  0  0  0  0  0
   41.7140   34.8660   39.2030 C   0  0  0  0  0  0  0  0  0  0  0  0
   40.2450   34.5010   39.5620 C   0  0  2  0  0  0  0  0  0  0  0  0
   39.7750   35.8990   40.0660 C   0  0  0  0  0  0  0  0  0  0  0  0
   38.4070   36.0350   39.7380 F   0  0  0  0  0  0  0  0  0  0  0  0
   40.3500   36.9290   39.3840 F   0  0  0  0  0  0  0  0  0  0  0  0
   39.8260   35.9870   41.4280 F   0  0  0  0  0  0  0  0  0  0  0  0
   38.2900   32.5090   39.7510 C   0  0  0  0  0  0  0  0  0  0  0  0
   38.2190   30.0340   39.6930 C   0  0  0  0  0  0  0  0  0  0  0  0
   37.6510   31.2340   40.0910 C   0  0  0  0  0  0  0  0  0  0  0  0
   36.4560   31.2070   40.8150 C   0  0  0  0  0  0  0  0  0  0  0  0
   35.9250   29.9640   41.0810 N   0  0  0  0  0  0  0  0  0  0  0  0
   36.5050   28.8270   40.6770 C   0  0  0  0  0  0  0  0  0  0  0  0
   37.6580   28.8400   39.9780 N   0  0  0  0  0  0  0  0  0  0  0  0
   39.4320   29.9440   38.9470 N   0  0  0  0  0  0  0  0  0  0  0  0
   39.8330   30.0460   37.6690 C   0  0  0  0  0  0  0  0  0  0  0  0
   41.1590   29.8410   37.6230 N   0  0  0  0  0  0  0  0  0  0  0  0
   41.5750   29.6080   38.9150 C   0  0  0  0  0  0  0  0  0  0  0  0
   40.4860   29.6810   39.6820 N   0  0  0  0  0  0  0  0  0  0  0  0
   39.1662   32.1967   41.6760 H   0  0  0  0  0  0  0  0  0  0  0  0
   38.3504   33.8000   41.4413 H   0  0  0  0  0  0  0  0  0  0  0  0
   41.2175   32.2425   41.8223 H   0  0  0  0  0  0  0  0  0  0  0  0
   41.4992   32.1292   40.0426 H   0  0  0  0  0  0  0  0  0  0  0  0
   42.8295   33.7919   42.1043 H   0  0  0  0  0  0  0  0  0  0  0  0
   43.4493   33.0837   40.5520 H   0  0  0  0  0  0  0  0  0  0  0  0
   42.0712   35.5717   41.0488 H   0  0  0  0  0  0  0  0  0  0  0  0
   42.1223   34.1064   38.5202 H   0  0  0  0  0  0  0  0  0  0  0  0
   41.7339   35.8522   38.7161 H   0  0  0  0  0  0  0  0  0  0  0  0
   39.6520   34.0325   38.7627 H   0  0  0  0  0  0  0  0  0  0  0  0
   39.0212   32.3547   38.9439 H   0  0  0  0  0  0  0  0  0  0  0  0
   37.5344   33.2319   39.4097 H   0  0  0  0  0  0  0  0  0  0  0  0
   35.9647   32.1306   41.1549 H   0  0  0  0  0  0  0  0  0  0  0  0
   36.0320   27.8640   40.9199 H   0  0  0  0  0  0  0  0  0  0  0  0
   39.1849   30.2610   36.8066 H   0  0  0  0  0  0  0  0  0  0  0  0
   42.6028   29.4022   39.2487 H   0  0  0  0  0  0  0  0  0  0  0  0
  2  3  1  0
  2  1  1  0
  3  4  1  0
  5  4  1  0
  6  7  1  0
  6  5  1  0
  7  8  1  0
  7  2  1  0
  8 11  1  0
  9  8  1  0
 10  8  1  0
 12 14  1  0
 12  1  1  0
 13 18  2  0
 13 14  1  0
 14 15  2  0
 15 16  1  0
 17 16  2  0
 18 17  1  0
 19 23  1  0
 19 13  1  0
 20 19  1  0
 21 20  2  0
 21 22  1  0
 22 23  2  0
  1 24  1  0
  1 25  1  0
  3 26  1  0
  3 27  1  0
  4 28  1  0
  4 29  1  0
  5 30  1  0
  6 31  1  0
  6 32  1  0
  7 33  1  6
 12 34  1  0
 12 35  1  0
 15 36  1  0
 17 37  1  0
 20 38  1  0
 22 39  1  0
M  ISO  8  24   8  25   8  26  13  27  13  28  13  29  13  30   5  31  13
M  ISO  8  32  13  33  13  34   8  35   8  36  14  37  14  38  14  39  14
M  END
>  <minimizedAffinity>  (1) 
-5.35147667

>  <minimizedRMSD>  (1) 
1.959216

$$$$
