
     RDKit          3D

 39 41  0  0  1  0  0  0  0  0999 V2000
   40.1270   33.7010   40.0860 C   0  0  0  0  0  0  0  0  0  0  0  0
   41.2960   33.9250   40.8940 N   0  0  0  0  0  0  0  0  0  0  0  0
   42.0920   32.7620   41.0440 C   0  0  0  0  0  0  0  0  0  0  0  0
   42.9930   32.8580   42.2340 C   0  0  0  0  0  0  0  0  0  0  0  0
   43.1860   34.2050   42.6430 N   0  0  0  0  0  0  0  0  0  0  0  0
   43.2100   35.1480   41.5660 C   0  0  0  0  0  0  0  0  0  0  0  0
   41.9440   35.1580   40.7200 C   0  0  2  0  0  0  0  0  0  0  0  0
   41.1390   36.3120   41.2420 C   0  0  0  0  0  0  0  0  0  0  0  0
   40.5450   37.0630   40.4240 O   0  0  0  0  0  0  0  0  0  0  0  0
   40.9340   36.7070   42.5660 O   0  0  0  0  0  0  0  0  0  0  0  0
   40.4680   33.1300   38.7290 C   0  0  0  0  0  0  0  0  0  0  0  0
   40.0570   30.8400   37.8990 C   0  0  0  0  0  0  0  0  0  0  0  0
   39.5700   32.0390   38.4230 C   0  0  0  0  0  0  0  0  0  0  0  0
   38.2070   32.1560   38.6430 C   0  0  0  0  0  0  0  0  0  0  0  0
   37.4170   31.0630   38.3220 N   0  0  0  0  0  0  0  0  0  0  0  0
   37.9260   29.9360   37.8220 C   0  0  0  0  0  0  0  0  0  0  0  0
   39.2430   29.8060   37.6030 N   0  0  0  0  0  0  0  0  0  0  0  0
   41.4290   30.5950   37.6290 N   0  0  0  0  0  0  0  0  0  0  0  0
   42.3340   30.8390   36.6880 C   0  0  0  0  0  0  0  0  0  0  0  0
   43.5160   30.3080   37.0570 N   0  0  0  0  0  0  0  0  0  0  0  0
   43.3270   29.7180   38.2670 C   0  0  0  0  0  0  0  0  0  0  0  0
   42.0450   29.9130   38.5840 N   0  0  0  0  0  0  0  0  0  0  0  0
   39.4647   32.9962   40.6100 H   0  0  0  0  0  0  0  0  0  0  0  0
   39.6359   34.6726   39.9283 H   0  0  0  0  0  0  0  0  0  0  0  0
   41.4312   31.8911   41.1665 H   0  0  0  0  0  0  0  0  0  0  0  0
   42.7193   32.6577   40.1465 H   0  0  0  0  0  0  0  0  0  0  0  0
   42.5455   32.2941   43.0657 H   0  0  0  0  0  0  0  0  0  0  0  0
   43.9724   32.4418   41.9555 H   0  0  0  0  0  0  0  0  0  0  0  0
   42.4188   34.4621   43.2803 H   0  0  0  0  0  0  0  0  0  0  0  0
   43.3500   36.1533   41.9901 H   0  0  0  0  0  0  0  0  0  0  0  0
   44.0335   34.8490   40.9009 H   0  0  0  0  0  0  0  0  0  0  0  0
   42.1190   35.2798   39.6409 H   0  0  0  0  0  0  0  0  0  0  0  0
   40.3727   37.4977   42.7654 H   0  0  0  0  0  0  0  0  0  0  0  0
   40.3646   33.9147   37.9650 H   0  0  0  0  0  0  0  0  0  0  0  0
   41.5037   32.7595   38.7380 H   0  0  0  0  0  0  0  0  0  0  0  0
   37.7701   33.0776   39.0551 H   0  0  0  0  0  0  0  0  0  0  0  0
   37.2537   29.0982   37.5850 H   0  0  0  0  0  0  0  0  0  0  0  0
   42.1476   31.3886   35.7536 H   0  0  0  0  0  0  0  0  0  0  0  0
   44.0807   29.1857   38.8659 H   0  0  0  0  0  0  0  0  0  0  0  0
  1  2  1  0
  2  3  1  0
  3  4  1  0
  4  5  1  0
  6  5  1  0
  7  2  1  0
  7  8  1  0
  7  6  1  0
  8 10  1  0
  9  8  2  0
 11  1  1  0
 12 13  1  0
 13 14  2  0
 13 11  1  0
 15 14  1  0
 16 15  2  0
 17 16  1  0
 17 12  2  0
 18 12  1  0
 18 22  1  0
 19 20  2  0
 19 18  1  0
 20 21  1  0
 21 22  2  0
  1 23  1  0
  1 24  1  0
  3 25  1  0
  3 26  1  0
  4 27  1  0
  4 28  1  0
  5 29  1  0
  6 30  1  0
  6 31  1  0
  7 32  1  6
 10 33  1  0
 11 34  1  0
 11 35  1  0
 14 36  1  0
 16 37  1  0
 19 38  1  0
 21 39  1  0
M  ISO  8  23   8  24   8  25  13  26  13  27  13  28  13  29   5  30  13
M  ISO  8  31  13  32  13  33   3  34   8  35   8  36  14  37  14  38  14
M  ISO  1  39  14
M  END
>  <minimizedAffinity>  (1) 
-5.00536871

>  <minimizedRMSD>  (1) 
2.94545865

$$$$
