
     RDKit          3D

 46 49  0  0  1  0  0  0  0  0999 V2000
   39.3520   31.9650   40.2740 C   0  0  0  0  0  0  0  0  0  0  0  0
   40.5690   32.4870   39.7250 N   0  0  0  0  0  0  0  0  0  0  0  0
   41.2300   31.5920   38.8570 C   0  0  0  0  0  0  0  0  0  0  0  0
   42.6780   31.9250   38.6950 C   0  0  0  0  0  0  0  0  0  0  0  0
   42.9520   33.2650   39.0840 N   0  0  0  0  0  0  0  0  0  0  0  0
   41.9000   34.1910   38.7520 C   0  0  0  0  0  0  0  0  0  0  0  0
   40.5520   33.8500   39.3260 C   0  0  2  0  0  0  0  0  0  0  0  0
   40.2670   34.7670   40.3860 N   0  0  0  0  0  0  0  0  0  0  0  0
   41.3540   35.5560   40.8510 C   0  0  0  0  0  0  0  0  0  0  0  0
   40.9420   37.0020   40.8050 C   0  0  0  0  0  0  0  0  0  0  0  0
   39.5950   37.0370   40.1580 C   0  0  0  0  0  0  0  0  0  0  0  0
   39.1620   35.6190   40.0460 C   0  0  0  0  0  0  0  0  0  0  0  0
   38.3220   31.6620   39.2100 C   0  0  0  0  0  0  0  0  0  0  0  0
   37.6360   29.2820   39.2820 C   0  0  0  0  0  0  0  0  0  0  0  0
   37.4390   30.6160   39.6820 C   0  0  0  0  0  0  0  0  0  0  0  0
   36.3850   30.8990   40.5340 C   0  0  0  0  0  0  0  0  0  0  0  0
   35.5880   29.8560   40.9420 N   0  0  0  0  0  0  0  0  0  0  0  0
   35.8040   28.5980   40.5420 C   0  0  0  0  0  0  0  0  0  0  0  0
   36.8220   28.2930   39.7140 N   0  0  0  0  0  0  0  0  0  0  0  0
   38.6740   28.8560   38.4160 N   0  0  0  0  0  0  0  0  0  0  0  0
   38.9250   28.8100   37.1090 C   0  0  0  0  0  0  0  0  0  0  0  0
   40.1520   28.2640   36.9270 N   0  0  0  0  0  0  0  0  0  0  0  0
   40.6500   27.9740   38.1710 C   0  0  0  0  0  0  0  0  0  0  0  0
   39.7070   28.3570   39.0410 N   0  0  0  0  0  0  0  0  0  0  0  0
   39.5800   31.0372   40.8191 H   0  0  0  0  0  0  0  0  0  0  0  0
   38.9295   32.7313   40.9406 H   0  0  0  0  0  0  0  0  0  0  0  0
   41.1445   30.5744   39.2659 H   0  0  0  0  0  0  0  0  0  0  0  0
   40.7542   31.6686   37.8682 H   0  0  0  0  0  0  0  0  0  0  0  0
   43.2735   31.2428   39.3194 H   0  0  0  0  0  0  0  0  0  0  0  0
   42.9406   31.8138   37.6326 H   0  0  0  0  0  0  0  0  0  0  0  0
   43.0929   33.2851   40.1041 H   0  0  0  0  0  0  0  0  0  0  0  0
   42.1889   35.1846   39.1252 H   0  0  0  0  0  0  0  0  0  0  0  0
   41.7885   34.1523   37.6583 H   0  0  0  0  0  0  0  0  0  0  0  0
   39.7396   33.9553   38.5919 H   0  0  0  0  0  0  0  0  0  0  0  0
   42.3295   35.1745   41.1870 H   0  0  0  0  0  0  0  0  0  0  0  0
   41.5180   37.8632   41.1744 H   0  0  0  0  0  0  0  0  0  0  0  0
   38.8868   37.6058   40.7784 H   0  0  0  0  0  0  0  0  0  0  0  0
   39.6312   37.5280   39.1743 H   0  0  0  0  0  0  0  0  0  0  0  0
   38.3260   35.4326   40.7362 H   0  0  0  0  0  0  0  0  0  0  0  0
   38.8329   35.4099   39.0174 H   0  0  0  0  0  0  0  0  0  0  0  0
   38.8289   31.3286   38.2924 H   0  0  0  0  0  0  0  0  0  0  0  0
   37.7371   32.5684   38.9950 H   0  0  0  0  0  0  0  0  0  0  0  0
   36.1913   31.9270   40.8740 H   0  0  0  0  0  0  0  0  0  0  0  0
   35.1378   27.7974   40.8958 H   0  0  0  0  0  0  0  0  0  0  0  0
   38.2506   29.1565   36.3120 H   0  0  0  0  0  0  0  0  0  0  0  0
   41.6240   27.5200   38.4060 H   0  0  0  0  0  0  0  0  0  0  0  0
  2  1  1  0
  3  2  1  0
  4  3  1  0
  4  5  1  0
  6  5  1  0
  6  7  1  0
  7  2  1  0
  7  8  1  0
  8  9  1  0
 10  9  2  0
 11 10  1  0
 12 11  1  0
 12  8  1  0
 13 15  1  0
 13  1  1  0
 14 15  1  0
 14 19  2  0
 15 16  2  0
 16 17  1  0
 18 17  2  0
 19 18  1  0
 20 24  1  0
 20 14  1  0
 21 20  1  0
 22 21  2  0
 22 23  1  0
 23 24  2  0
  1 25  1  0
  1 26  1  0
  3 27  1  0
  3 28  1  0
  4 29  1  0
  4 30  1  0
  5 31  1  0
  6 32  1  0
  6 33  1  0
  7 34  1  6
  9 35  1  0
 10 36  1  0
 11 37  1  0
 11 38  1  0
 12 39  1  0
 12 40  1  0
 13 41  1  0
 13 42  1  0
 16 43  1  0
 18 44  1  0
 21 45  1  0
 23 46  1  0
M  ISO  8  25   8  26   8  27  13  28  13  29  13  30  13  31   5  32  13
M  ISO  8  33  13  34  13  35  13  36  13  37  13  38  13  39  13  40  13
M  ISO  6  41   8  42   8  43  14  44  14  45  14  46  14
M  END
>  <minimizedAffinity>  (1) 
-4.88583899

>  <minimizedRMSD>  (1) 
3.28499532

$$$$
