
     RDKit          3D

 38 40  0  0  1  0  0  0  0  0999 V2000
   40.8830   33.5260   38.7920 C   0  0  0  0  0  0  0  0  0  0  0  0
   42.2920   33.7690   38.9080 N   0  0  0  0  0  0  0  0  0  0  0  0
   42.8210   33.4060   40.1840 C   0  0  0  0  0  0  0  0  0  0  0  0
   44.1240   34.0930   40.4510 C   0  0  0  0  0  0  0  0  0  0  0  0
   44.7280   34.5640   39.2570 N   0  0  0  0  0  0  0  0  0  0  0  0
   44.5290   33.7160   38.1260 C   0  0  0  0  0  0  0  0  0  0  0  0
   43.0780   33.4760   37.7830 C   0  0  2  0  0  0  0  0  0  0  0  0
   42.6920   34.3830   36.6890 N   0  0  0  0  0  0  0  0  0  0  0  0
   40.5620   32.0480   38.7680 C   0  0  0  0  0  0  0  0  0  0  0  0
   39.1600   31.1440   40.6020 C   0  0  0  0  0  0  0  0  0  0  0  0
   39.2660   31.8290   39.3820 C   0  0  0  0  0  0  0  0  0  0  0  0
   38.1050   32.2860   38.7810 C   0  0  0  0  0  0  0  0  0  0  0  0
   36.9080   32.0380   39.4270 N   0  0  0  0  0  0  0  0  0  0  0  0
   36.8550   31.3800   40.5930 C   0  0  0  0  0  0  0  0  0  0  0  0
   37.9720   30.9270   41.1930 N   0  0  0  0  0  0  0  0  0  0  0  0
   40.2750   30.6270   41.3170 N   0  0  0  0  0  0  0  0  0  0  0  0
   41.0620   29.5560   41.2990 C   0  0  0  0  0  0  0  0  0  0  0  0
   41.9730   29.6810   42.2890 N   0  0  0  0  0  0  0  0  0  0  0  0
   41.7340   30.8590   42.9250 C   0  0  0  0  0  0  0  0  0  0  0  0
   40.6830   31.4030   42.2930 N   0  0  0  0  0  0  0  0  0  0  0  0
   40.3716   33.9864   39.6502 H   0  0  0  0  0  0  0  0  0  0  0  0
   40.5403   33.9632   37.8426 H   0  0  0  0  0  0  0  0  0  0  0  0
   42.0999   33.6906   40.9644 H   0  0  0  0  0  0  0  0  0  0  0  0
   42.9948   32.3198   40.1903 H   0  0  0  0  0  0  0  0  0  0  0  0
   43.9449   34.9476   41.1200 H   0  0  0  0  0  0  0  0  0  0  0  0
   44.8055   33.3637   40.9131 H   0  0  0  0  0  0  0  0  0  0  0  0
   44.3338   35.4904   39.0394 H   0  0  0  0  0  0  0  0  0  0  0  0
   45.0174   34.1798   37.2563 H   0  0  0  0  0  0  0  0  0  0  0  0
   44.9601   32.7373   38.3836 H   0  0  0  0  0  0  0  0  0  0  0  0
   42.9305   32.4292   37.4788 H   0  0  0  0  0  0  0  0  0  0  0  0
   42.3195   35.2583   37.0840 H   0  0  0  0  0  0  0  0  0  0  0  0
   43.5171   34.5919   36.1089 H   0  0  0  0  0  0  0  0  0  0  0  0
   40.5400   31.6936   37.7269 H   0  0  0  0  0  0  0  0  0  0  0  0
   41.3321   31.4945   39.3253 H   0  0  0  0  0  0  0  0  0  0  0  0
   38.1341   32.8271   37.8237 H   0  0  0  0  0  0  0  0  0  0  0  0
   35.8790   31.2064   41.0698 H   0  0  0  0  0  0  0  0  0  0  0  0
   40.9848   28.7120   40.5978 H   0  0  0  0  0  0  0  0  0  0  0  0
   42.2866   31.2781   43.7788 H   0  0  0  0  0  0  0  0  0  0  0  0
  1  2  1  0
  2  3  1  0
  3  4  1  0
  5  4  1  0
  6  5  1  0
  7  6  1  0
  7  2  1  0
  8  7  1  0
  9  1  1  0
  9 11  1  0
 10 15  2  0
 10 16  1  0
 11 10  1  0
 12 11  2  0
 12 13  1  0
 13 14  2  0
 14 15  1  0
 16 20  1  0
 17 16  1  0
 17 18  2  0
 18 19  1  0
 20 19  2  0
  1 21  1  0
  1 22  1  0
  3 23  1  0
  3 24  1  0
  4 25  1  0
  4 26  1  0
  5 27  1  0
  6 28  1  0
  6 29  1  0
  7 30  1  6
  8 31  1  0
  8 32  1  0
  9 33  1  0
  9 34  1  0
 12 35  1  0
 14 36  1  0
 17 37  1  0
 19 38  1  0
M  ISO  8  21   8  22   8  23  13  24  13  25  13  26  13  27   5  28  13
M  ISO  8  29  13  30  13  31   5  32   5  33   8  34   8  35  14  36  14
M  ISO  2  37  14  38  14
M  END
>  <minimizedAffinity>  (1) 
-4.79238462

>  <minimizedRMSD>  (1) 
3.93973184

$$$$
