
     RDKit          3D

 45 47  0  0  1  0  0  0  0  0999 V2000
   39.9200   32.2050   40.7880 C   0  0  0  0  0  0  0  0  0  0  0  0
   40.9920   33.1030   40.5050 N   0  0  0  0  0  0  0  0  0  0  0  0
   42.2770   32.4780   40.4640 C   0  0  0  0  0  0  0  0  0  0  0  0
   43.3740   33.4890   40.6230 C   0  0  0  0  0  0  0  0  0  0  0  0
   42.9770   34.7860   40.2130 N   0  0  0  0  0  0  0  0  0  0  0  0
   41.9980   34.7990   39.1780 C   0  0  0  0  0  0  0  0  0  0  0  0
   40.7010   34.1170   39.6030 C   0  0  2  0  0  0  0  0  0  0  0  0
   39.9720   35.2430   40.3360 C   0  0  0  0  0  0  0  0  0  0  0  0
   40.3860   36.6040   39.8530 C   0  0  0  0  0  0  0  0  0  0  0  0
   38.4690   35.1450   40.1170 C   0  0  0  0  0  0  0  0  0  0  0  0
   39.3170   31.5880   39.5620 C   0  0  0  0  0  0  0  0  0  0  0  0
   37.7840   29.6670   39.3960 C   0  0  0  0  0  0  0  0  0  0  0  0
   38.0720   30.9270   39.9130 C   0  0  0  0  0  0  0  0  0  0  0  0
   37.1460   31.5200   40.7610 C   0  0  0  0  0  0  0  0  0  0  0  0
   35.9930   30.8130   41.0340 N   0  0  0  0  0  0  0  0  0  0  0  0
   35.7570   29.6150   40.5200 C   0  0  0  0  0  0  0  0  0  0  0  0
   36.6380   29.0100   39.6910 N   0  0  0  0  0  0  0  0  0  0  0  0
   38.6470   28.9570   38.5210 N   0  0  0  0  0  0  0  0  0  0  0  0
   38.9570   28.9260   37.2180 C   0  0  0  0  0  0  0  0  0  0  0  0
   39.8970   27.9810   37.0170 N   0  0  0  0  0  0  0  0  0  0  0  0
   40.1670   27.4190   38.2430 C   0  0  0  0  0  0  0  0  0  0  0  0
   39.3820   28.0460   39.1270 N   0  0  0  0  0  0  0  0  0  0  0  0
   40.3019   31.3988   41.4316 H   0  0  0  0  0  0  0  0  0  0  0  0
   39.1283   32.7907   41.2781 H   0  0  0  0  0  0  0  0  0  0  0  0
   42.3451   31.7426   41.2792 H   0  0  0  0  0  0  0  0  0  0  0  0
   42.3949   31.9847   39.4879 H   0  0  0  0  0  0  0  0  0  0  0  0
   43.6677   33.5279   41.6823 H   0  0  0  0  0  0  0  0  0  0  0  0
   44.2127   33.1771   39.9833 H   0  0  0  0  0  0  0  0  0  0  0  0
   42.5890   35.2782   41.0304 H   0  0  0  0  0  0  0  0  0  0  0  0
   42.4032   34.2740   38.3004 H   0  0  0  0  0  0  0  0  0  0  0  0
   41.7669   35.8489   38.9449 H   0  0  0  0  0  0  0  0  0  0  0  0
   40.1319   33.6746   38.7721 H   0  0  0  0  0  0  0  0  0  0  0  0
   40.2360   35.1252   41.3973 H   0  0  0  0  0  0  0  0  0  0  0  0
   40.5841   37.2552   40.7171 H   0  0  0  0  0  0  0  0  0  0  0  0
   41.2978   36.5153   39.2441 H   0  0  0  0  0  0  0  0  0  0  0  0
   39.5793   37.0381   39.2441 H   0  0  0  0  0  0  0  0  0  0  0  0
   37.9580   35.1117   41.0905 H   0  0  0  0  0  0  0  0  0  0  0  0
   38.1229   36.0225   39.5511 H   0  0  0  0  0  0  0  0  0  0  0  0
   38.2398   34.2300   39.5511 H   0  0  0  0  0  0  0  0  0  0  0  0
   40.0168   30.8513   39.1406 H   0  0  0  0  0  0  0  0  0  0  0  0
   39.1174   32.3729   38.8176 H   0  0  0  0  0  0  0  0  0  0  0  0
   37.3245   32.5137   41.1977 H   0  0  0  0  0  0  0  0  0  0  0  0
   34.8196   29.0986   40.7742 H   0  0  0  0  0  0  0  0  0  0  0  0
   38.5166   29.5667   36.4398 H   0  0  0  0  0  0  0  0  0  0  0  0
   40.8858   26.6137   38.4549 H   0  0  0  0  0  0  0  0  0  0  0  0
  2  1  1  0
  3  2  1  0
  3  4  1  0
  5  4  1  0
  6  7  1  0
  6  5  1  0
  7  8  1  0
  7  2  1  0
  9  8  1  0
 10  8  1  0
 11 13  1  0
 11  1  1  0
 12 17  2  0
 12 13  1  0
 13 14  2  0
 14 15  1  0
 16 15  2  0
 17 16  1  0
 18 22  1  0
 18 12  1  0
 19 18  1  0
 20 19  2  0
 20 21  1  0
 21 22  2  0
  1 23  1  0
  1 24  1  0
  3 25  1  0
  3 26  1  0
  4 27  1  0
  4 28  1  0
  5 29  1  0
  6 30  1  0
  6 31  1  0
  7 32  1  6
  8 33  1  0
  9 34  1  0
  9 35  1  0
  9 36  1  0
 10 37  1  0
 10 38  1  0
 10 39  1  0
 11 40  1  0
 11 41  1  0
 14 42  1  0
 16 43  1  0
 19 44  1  0
 21 45  1  0
M  ISO  8  23   8  24   8  25  13  26  13  27  13  28  13  29   5  30  13
M  ISO  8  31  13  32  13  33   8  34   8  35   8  36   8  37   8  38   8
M  ISO  7  39   8  40   8  41   8  42  14  43  14  44  14  45  14
M  END
>  <minimizedAffinity>  (1) 
-4.75159216

>  <minimizedRMSD>  (1) 
2.77609158

$$$$
