
     RDKit          3D

 48 50  0  0  1  0  0  0  0  0999 V2000
   39.9140   32.3830   40.6440 C   0  0  0  0  0  0  0  0  0  0  0  0
   41.0590   33.1770   40.2960 N   0  0  0  0  0  0  0  0  0  0  0  0
   40.8180   34.0720   39.2130 C   0  0  0  0  0  0  0  0  0  0  0  0
   42.1020   34.5230   38.5870 C   0  0  0  0  0  0  0  0  0  0  0  0
   43.1730   34.4900   39.5020 N   0  0  0  0  0  0  0  0  0  0  0  0
   42.7780   34.7000   40.8600 C   0  0  0  0  0  0  0  0  0  0  0  0
   41.8510   33.5750   41.3720 C   0  0  2  0  0  0  0  0  0  0  0  0
   42.9590   32.6490   41.8180 C   0  0  0  0  0  0  0  0  0  0  0  0
   44.0790   33.5710   42.3190 C   0  0  0  0  0  0  0  0  0  0  0  0
   43.5480   31.8680   40.6550 C   0  0  0  0  0  0  0  0  0  0  0  0
   42.6980   31.6720   42.8920 C   0  0  0  0  0  0  0  0  0  0  0  0
   39.9620   31.0010   40.0980 C   0  0  0  0  0  0  0  0  0  0  0  0
   37.8320   29.7660   40.0300 C   0  0  0  0  0  0  0  0  0  0  0  0
   38.6930   30.6890   39.4460 C   0  0  0  0  0  0  0  0  0  0  0  0
   38.3130   31.2860   38.2440 C   0  0  0  0  0  0  0  0  0  0  0  0
   37.1020   30.9180   37.7180 N   0  0  0  0  0  0  0  0  0  0  0  0
   36.3070   30.0320   38.3090 C   0  0  0  0  0  0  0  0  0  0  0  0
   36.6570   29.4440   39.4710 N   0  0  0  0  0  0  0  0  0  0  0  0
   38.1160   29.0970   41.2490 N   0  0  0  0  0  0  0  0  0  0  0  0
   38.8270   28.0420   41.6750 C   0  0  0  0  0  0  0  0  0  0  0  0
   38.6800   27.9170   43.0010 N   0  0  0  0  0  0  0  0  0  0  0  0
   37.8450   28.9390   43.3950 C   0  0  0  0  0  0  0  0  0  0  0  0
   37.5320   29.6260   42.2940 N   0  0  0  0  0  0  0  0  0  0  0  0
   39.8529   32.3221   41.7406 H   0  0  0  0  0  0  0  0  0  0  0  0
   39.0339   32.8743   40.2035 H   0  0  0  0  0  0  0  0  0  0  0  0
   40.2088   33.5603   38.4534 H   0  0  0  0  0  0  0  0  0  0  0  0
   40.2909   34.9556   39.6021 H   0  0  0  0  0  0  0  0  0  0  0  0
   42.3368   33.8607   37.7407 H   0  0  0  0  0  0  0  0  0  0  0  0
   41.9713   35.5628   38.2527 H   0  0  0  0  0  0  0  0  0  0  0  0
   43.6291   33.5689   39.4351 H   0  0  0  0  0  0  0  0  0  0  0  0
   43.6784   34.7333   41.4910 H   0  0  0  0  0  0  0  0  0  0  0  0
   42.2226   35.6481   40.9103 H   0  0  0  0  0  0  0  0  0  0  0  0
   41.1035   33.7412   42.1617 H   0  0  0  0  0  0  0  0  0  0  0  0
   44.0852   33.5761   43.4190 H   0  0  0  0  0  0  0  0  0  0  0  0
   45.0481   33.2054   41.9486 H   0  0  0  0  0  0  0  0  0  0  0  0
   43.9064   34.5923   41.9486 H   0  0  0  0  0  0  0  0  0  0  0  0
   44.1680   31.0459   41.0420 H   0  0  0  0  0  0  0  0  0  0  0  0
   42.7341   31.4556   40.0406 H   0  0  0  0  0  0  0  0  0  0  0  0
   44.1682   32.5372   40.0406 H   0  0  0  0  0  0  0  0  0  0  0  0
   42.8280   32.1586   43.8699 H   0  0  0  0  0  0  0  0  0  0  0  0
   41.6680   31.2962   42.8035 H   0  0  0  0  0  0  0  0  0  0  0  0
   43.4034   30.8326   42.8035 H   0  0  0  0  0  0  0  0  0  0  0  0
   40.7788   30.9248   39.3652 H   0  0  0  0  0  0  0  0  0  0  0  0
   40.1366   30.2893   40.9184 H   0  0  0  0  0  0  0  0  0  0  0  0
   38.9578   32.0208   37.7397 H   0  0  0  0  0  0  0  0  0  0  0  0
   35.3454   29.7735   37.8415 H   0  0  0  0  0  0  0  0  0  0  0  0
   39.4346   27.3837   41.0366 H   0  0  0  0  0  0  0  0  0  0  0  0
   37.5023   29.1486   44.4190 H   0  0  0  0  0  0  0  0  0  0  0  0
  2  1  1  0
  2  7  1  0
  3  2  1  0
  4  3  1  0
  4  5  1  0
  5  6  1  0
  6  7  1  0
  7  8  1  0
  8  9  1  0
  8 11  1  0
 10  8  1  0
 12  1  1  0
 13 19  1  0
 14 13  1  0
 14 12  1  0
 15 14  2  0
 16 15  1  0
 16 17  2  0
 17 18  1  0
 18 13  2  0
 19 20  1  0
 19 23  1  0
 20 21  2  0
 21 22  1  0
 23 22  2  0
  1 24  1  0
  1 25  1  0
  3 26  1  0
  3 27  1  0
  4 28  1  0
  4 29  1  0
  5 30  1  0
  6 31  1  0
  6 32  1  0
  7 33  1  1
  9 34  1  0
  9 35  1  0
  9 36  1  0
 10 37  1  0
 10 38  1  0
 10 39  1  0
 11 40  1  0
 11 41  1  0
 11 42  1  0
 12 43  1  0
 12 44  1  0
 15 45  1  0
 17 46  1  0
 20 47  1  0
 22 48  1  0
M  ISO  8  24   8  25   8  26  13  27  13  28  13  29  13  30   5  31  13
M  ISO  8  32  13  33  13  34   8  35   8  36   8  37   8  38   8  39   8
M  ISO  8  40   8  41   8  42   8  43   8  44   8  45  14  46  14  47  14
M  ISO  1  48  14
M  END
>  <minimizedAffinity>  (1) 
-4.5707798

>  <minimizedRMSD>  (1) 
4.76055574

$$$$
