
     RDKit          3D

 48 51  0  0  1  0  0  0  0  0999 V2000
   39.3600   31.3770   40.2310 C   0  0  0  0  0  0  0  0  0  0  0  0
   38.4210   29.2760   41.1820 C   0  0  0  0  0  0  0  0  0  0  0  0
   38.2220   30.5500   40.6170 C   0  0  0  0  0  0  0  0  0  0  0  0
   36.9190   30.9940   40.4400 C   0  0  0  0  0  0  0  0  0  0  0  0
   35.9150   30.1370   40.8400 N   0  0  0  0  0  0  0  0  0  0  0  0
   36.1540   28.9590   41.3620 C   0  0  0  0  0  0  0  0  0  0  0  0
   37.4050   28.4960   41.5480 N   0  0  0  0  0  0  0  0  0  0  0  0
   39.7170   28.7310   41.4010 N   0  0  0  0  0  0  0  0  0  0  0  0
   40.6530   28.0980   40.6840 C   0  0  0  0  0  0  0  0  0  0  0  0
   41.6960   27.8180   41.4880 N   0  0  0  0  0  0  0  0  0  0  0  0
   41.3800   28.2960   42.7220 C   0  0  0  0  0  0  0  0  0  0  0  0
   40.1460   28.8550   42.6270 N   0  0  0  0  0  0  0  0  0  0  0  0
   42.2490   28.1980   43.9010 C   0  0  0  0  0  0  0  0  0  0  0  0
   43.1820   29.1630   44.1460 C   0  0  0  0  0  0  0  0  0  0  0  0
   44.0130   29.1150   45.2330 C   0  0  0  0  0  0  0  0  0  0  0  0
   43.9490   28.0760   46.1420 C   0  0  0  0  0  0  0  0  0  0  0  0
   42.9920   27.1060   45.8710 C   0  0  0  0  0  0  0  0  0  0  0  0
   42.1460   27.1410   44.7820 C   0  0  0  0  0  0  0  0  0  0  0  0
   38.8680   32.5830   39.4460 C   0  0  0  0  0  0  0  0  0  0  0  0
   39.8390   33.6290   39.4440 N   0  0  0  0  0  0  0  0  0  0  0  0
   39.6430   34.5990   40.4720 C   0  0  0  0  0  0  0  0  0  0  0  0
   40.3190   35.8880   40.1540 C   0  0  0  0  0  0  0  0  0  0  0  0
   41.3380   35.7200   39.1830 N   0  0  0  0  0  0  0  0  0  0  0  0
   42.0580   34.4860   39.3110 C   0  0  0  0  0  0  0  0  0  0  0  0
   41.1460   33.2710   39.1200 C   0  0  2  0  0  0  0  0  0  0  0  0
   41.2650   32.9920   37.6620 C   0  0  0  0  0  0  0  0  0  0  0  0
   42.3470   32.9660   37.0820 O   0  0  0  0  0  0  0  0  0  0  0  0
   39.8883   31.7178   41.1336 H   0  0  0  0  0  0  0  0  0  0  0  0
   40.0458   30.7873   39.6050 H   0  0  0  0  0  0  0  0  0  0  0  0
   36.6983   31.9791   40.0030 H   0  0  0  0  0  0  0  0  0  0  0  0
   35.3040   28.3268   41.6583 H   0  0  0  0  0  0  0  0  0  0  0  0
   40.5820   27.8480   39.6152 H   0  0  0  0  0  0  0  0  0  0  0  0
   43.2694   30.0077   43.4468 H   0  0  0  0  0  0  0  0  0  0  0  0
   44.7468   29.9201   45.3860 H   0  0  0  0  0  0  0  0  0  0  0  0
   44.6101   28.0208   47.0195 H   0  0  0  0  0  0  0  0  0  0  0  0
   42.9036   26.2588   46.5670 H   0  0  0  0  0  0  0  0  0  0  0  0
   41.4056   26.3439   44.6195 H   0  0  0  0  0  0  0  0  0  0  0  0
   38.6671   32.2780   38.4084 H   0  0  0  0  0  0  0  0  0  0  0  0
   37.9517   32.9595   39.9241 H   0  0  0  0  0  0  0  0  0  0  0  0
   38.5645   34.7819   40.5878 H   0  0  0  0  0  0  0  0  0  0  0  0
   40.0797   34.2046   41.4014 H   0  0  0  0  0  0  0  0  0  0  0  0
   39.5717   36.5966   39.7675 H   0  0  0  0  0  0  0  0  0  0  0  0
   40.7831   36.2684   41.0759 H   0  0  0  0  0  0  0  0  0  0  0  0
   42.0068   36.4979   39.2754 H   0  0  0  0  0  0  0  0  0  0  0  0
   42.8526   34.4573   38.5509 H   0  0  0  0  0  0  0  0  0  0  0  0
   42.4789   34.4404   40.3263 H   0  0  0  0  0  0  0  0  0  0  0  0
   41.4095   32.4045   39.7442 H   0  0  0  0  0  0  0  0  0  0  0  0
   40.3493   32.8021   37.0829 H   0  0  0  0  0  0  0  0  0  0  0  0
  1  3  1  0
  2  8  1  0
  2  7  2  0
  3  2  1  0
  4  3  2  0
  4  5  1  0
  5  6  2  0
  6  7  1  0
  8 12  1  0
  9  8  1  0
  9 10  2  0
 10 11  1  0
 11 13  1  0
 12 11  2  0
 13 14  2  0
 13 18  1  0
 14 15  1  0
 15 16  2  0
 17 16  1  0
 18 17  2  0
 19  1  1  0
 20 19  1  0
 20 21  1  0
 22 21  1  0
 23 24  1  0
 23 22  1  0
 25 24  1  0
 25 20  1  0
 26 25  1  0
 27 26  2  0
  1 28  1  0
  1 29  1  0
  4 30  1  0
  6 31  1  0
  9 32  1  0
 14 33  1  0
 15 34  1  0
 16 35  1  0
 17 36  1  0
 18 37  1  0
 19 38  1  0
 19 39  1  0
 21 40  1  0
 21 41  1  0
 22 42  1  0
 22 43  1  0
 23 44  1  0
 24 45  1  0
 24 46  1  0
 25 47  1  1
 26 48  1  0
M  ISO  8  28   8  29   8  30  14  31  14  32  14  33  14  34  14  35  14
M  ISO  8  36  14  37  14  38   8  39   8  40  13  41  13  42  13  43  13
M  ISO  5  44   5  45  13  46  13  47  13  48   6
M  END
>  <minimizedAffinity>  (1) 
-5.7669096

>  <minimizedRMSD>  (1) 
2.42752194

$$$$
