
     RDKit          3D

 45 48  0  0  1  0  0  0  0  0999 V2000
   38.9340   32.0040   40.9600 C   0  0  0  0  0  0  0  0  0  0  0  0
   38.3120   29.5990   41.0860 C   0  0  0  0  0  0  0  0  0  0  0  0
   37.9300   30.9470   40.9490 C   0  0  0  0  0  0  0  0  0  0  0  0
   36.5780   31.2390   40.8030 C   0  0  0  0  0  0  0  0  0  0  0  0
   35.7150   30.1730   40.8070 N   0  0  0  0  0  0  0  0  0  0  0  0
   36.1210   28.9200   40.9390 C   0  0  0  0  0  0  0  0  0  0  0  0
   37.4240   28.6050   41.0810 N   0  0  0  0  0  0  0  0  0  0  0  0
   39.6710   29.2020   41.2410 N   0  0  0  0  0  0  0  0  0  0  0  0
   40.7340   28.9800   40.4670 C   0  0  0  0  0  0  0  0  0  0  0  0
   41.7710   28.6000   41.2460 N   0  0  0  0  0  0  0  0  0  0  0  0
   41.3120   28.5960   42.5270 C   0  0  0  0  0  0  0  0  0  0  0  0
   40.0140   28.9730   42.4780 N   0  0  0  0  0  0  0  0  0  0  0  0
   42.1310   28.2380   43.6890 C   0  0  0  0  0  0  0  0  0  0  0  0
   41.8210   27.0920   44.3930 C   0  0  0  0  0  0  0  0  0  0  0  0
   42.7450   26.9910   45.4320 C   0  0  0  0  0  0  0  0  0  0  0  0
   43.5550   28.0630   45.3060 N   0  0  0  0  0  0  0  0  0  0  0  0
   43.1910   28.8020   44.2710 N   0  0  0  0  0  0  0  0  0  0  0  0
   38.7110   32.9250   39.7730 C   0  0  0  0  0  0  0  0  0  0  0  0
   39.6150   34.0320   39.8010 N   0  0  0  0  0  0  0  0  0  0  0  0
   39.1140   35.1460   40.5190 C   0  0  0  0  0  0  0  0  0  0  0  0
   39.8170   36.4120   40.1630 C   0  0  0  0  0  0  0  0  0  0  0  0
   41.0470   36.1610   39.4850 N   0  0  0  0  0  0  0  0  0  0  0  0
   41.7580   35.0370   40.0210 C   0  0  0  0  0  0  0  0  0  0  0  0
   40.9730   33.7330   39.8640 C   0  0  2  0  0  0  0  0  0  0  0  0
   41.4540   33.2060   38.5560 C   0  0  0  0  0  0  0  0  0  0  0  0
   41.8070   33.9570   37.6530 O   0  0  0  0  0  0  0  0  0  0  0  0
   38.8493   32.5807   41.8928 H   0  0  0  0  0  0  0  0  0  0  0  0
   39.9374   31.5579   40.8951 H   0  0  0  0  0  0  0  0  0  0  0  0
   36.2190   32.2726   40.6900 H   0  0  0  0  0  0  0  0  0  0  0  0
   35.3738   28.1128   40.9326 H   0  0  0  0  0  0  0  0  0  0  0  0
   40.7622   29.0885   39.3727 H   0  0  0  0  0  0  0  0  0  0  0  0
   41.0010   26.3917   44.1756 H   0  0  0  0  0  0  0  0  0  0  0  0
   42.8020   26.2015   46.1958 H   0  0  0  0  0  0  0  0  0  0  0  0
   44.3468   28.2762   45.9293 H   0  0  0  0  0  0  0  0  0  0  0  0
   37.6787   33.3039   39.8017 H   0  0  0  0  0  0  0  0  0  0  0  0
   38.8886   32.3533   38.8502 H   0  0  0  0  0  0  0  0  0  0  0  0
   38.0436   35.2602   40.2928 H   0  0  0  0  0  0  0  0  0  0  0  0
   39.2807   34.9584   41.5900 H   0  0  0  0  0  0  0  0  0  0  0  0
   39.1651   37.0097   39.5089 H   0  0  0  0  0  0  0  0  0  0  0  0
   40.0433   36.9517   41.0944 H   0  0  0  0  0  0  0  0  0  0  0  0
   41.6437   36.9967   39.5657 H   0  0  0  0  0  0  0  0  0  0  0  0
   42.7178   34.9393   39.4926 H   0  0  0  0  0  0  0  0  0  0  0  0
   41.9111   35.2136   41.0959 H   0  0  0  0  0  0  0  0  0  0  0  0
   41.1132   33.0172   40.6874 H   0  0  0  0  0  0  0  0  0  0  0  0
   41.4934   32.1183   38.3966 H   0  0  0  0  0  0  0  0  0  0  0  0
  2  8  1  0
  3  1  1  0
  3  2  2  0
  4  5  2  0
  4  3  1  0
  5  6  1  0
  6  7  2  0
  7  2  1  0
  8 12  1  0
  9  8  1  0
  9 10  2  0
 10 11  1  0
 11 13  1  0
 12 11  2  0
 13 17  2  0
 13 14  1  0
 14 15  2  0
 16 15  1  0
 17 16  1  0
 18 19  1  0
 18  1  1  0
 19 24  1  0
 19 20  1  0
 21 20  1  0
 22 23  1  0
 22 21  1  0
 24 23  1  0
 25 24  1  0
 26 25  2  0
  1 27  1  0
  1 28  1  0
  4 29  1  0
  6 30  1  0
  9 31  1  0
 14 32  1  0
 15 33  1  0
 16 34  1  0
 18 35  1  0
 18 36  1  0
 20 37  1  0
 20 38  1  0
 21 39  1  0
 21 40  1  0
 22 41  1  0
 23 42  1  0
 23 43  1  0
 24 44  1  1
 25 45  1  0
M  ISO  8  27   8  28   8  29  14  30  14  31  14  32  14  33  14  34   9
M  ISO  8  35   8  36   8  37  13  38  13  39  13  40  13  41   5  42  13
M  ISO  3  43  13  44  13  45   6
M  END
>  <minimizedAffinity>  (1) 
-5.56547165

>  <minimizedRMSD>  (1) 
2.21975923

$$$$
