
     RDKit          3D

 50 52  0  0  1  0  0  0  0  0999 V2000
   40.7640   32.3920   38.2110 C   0  0  0  0  0  0  0  0  0  0  0  0
   39.1370   33.2980   39.8620 C   0  0  0  0  0  0  0  0  0  0  0  0
   40.3100   33.4570   39.1010 C   0  0  0  0  0  0  0  0  0  0  0  0
   41.0280   34.6450   39.2200 C   0  0  0  0  0  0  0  0  0  0  0  0
   40.5140   35.5820   40.0940 N   0  0  0  0  0  0  0  0  0  0  0  0
   39.4150   35.3860   40.7830 C   0  0  0  0  0  0  0  0  0  0  0  0
   38.7040   34.2540   40.6890 N   0  0  0  0  0  0  0  0  0  0  0  0
   38.3410   32.1230   39.8000 N   0  0  0  0  0  0  0  0  0  0  0  0
   37.3910   31.6080   39.0110 C   0  0  0  0  0  0  0  0  0  0  0  0
   37.0120   30.4180   39.5290 N   0  0  0  0  0  0  0  0  0  0  0  0
   37.7630   30.2130   40.6690 C   0  0  0  0  0  0  0  0  0  0  0  0
   38.5530   31.2860   40.7790 N   0  0  0  0  0  0  0  0  0  0  0  0
   37.5850   28.9930   41.4970 C   0  0  0  0  0  0  0  0  0  0  0  0
   37.9330   29.2510   42.9570 C   0  0  0  0  0  0  0  0  0  0  0  0
   38.5980   27.9120   41.0770 C   0  0  0  0  0  0  0  0  0  0  0  0
   36.2210   28.3940   41.4490 C   0  0  0  0  0  0  0  0  0  0  0  0
   41.9410   31.6670   38.8470 C   0  0  0  0  0  0  0  0  0  0  0  0
   43.1200   31.8100   38.0500 N   0  0  0  0  0  0  0  0  0  0  0  0
   44.0230   32.7870   38.5620 C   0  0  0  0  0  0  0  0  0  0  0  0
   44.9540   33.2750   37.4990 C   0  0  0  0  0  0  0  0  0  0  0  0
   45.0350   32.3620   36.3970 N   0  0  0  0  0  0  0  0  0  0  0  0
   44.9540   30.9870   36.7830 C   0  0  0  0  0  0  0  0  0  0  0  0
   43.6280   30.6510   37.4670 C   0  0  2  0  0  0  0  0  0  0  0  0
   42.7670   30.2160   36.3350 C   0  0  0  0  0  0  0  0  0  0  0  0
   43.2330   30.0180   35.2150 O   0  0  0  0  0  0  0  0  0  0  0  0
   41.0766   32.8258   37.2497 H   0  0  0  0  0  0  0  0  0  0  0  0
   39.9426   31.6801   38.0421 H   0  0  0  0  0  0  0  0  0  0  0  0
   41.9514   34.8260   38.6503 H   0  0  0  0  0  0  0  0  0  0  0  0
   39.0650   36.1781   41.4613 H   0  0  0  0  0  0  0  0  0  0  0  0
   36.9881   32.0724   38.0988 H   0  0  0  0  0  0  0  0  0  0  0  0
   37.2181   28.7210   43.6035 H   0  0  0  0  0  0  0  0  0  0  0  0
   38.9510   28.8877   43.1610 H   0  0  0  0  0  0  0  0  0  0  0  0
   37.8812   30.3307   43.1610 H   0  0  0  0  0  0  0  0  0  0  0  0
   39.0326   27.4482   41.9748 H   0  0  0  0  0  0  0  0  0  0  0  0
   38.0871   27.1437   40.4781 H   0  0  0  0  0  0  0  0  0  0  0  0
   39.3979   28.3719   40.4781 H   0  0  0  0  0  0  0  0  0  0  0  0
   35.8549   28.2332   42.4737 H   0  0  0  0  0  0  0  0  0  0  0  0
   35.5396   29.0757   40.9189 H   0  0  0  0  0  0  0  0  0  0  0  0
   36.2619   27.4310   40.9189 H   0  0  0  0  0  0  0  0  0  0  0  0
   42.1276   32.0899   39.8452 H   0  0  0  0  0  0  0  0  0  0  0  0
   41.6956   30.5974   38.9224 H   0  0  0  0  0  0  0  0  0  0  0  0
   43.4463   33.6387   38.9520 H   0  0  0  0  0  0  0  0  0  0  0  0
   44.6202   32.3234   39.3610 H   0  0  0  0  0  0  0  0  0  0  0  0
   44.5937   34.2465   37.1298 H   0  0  0  0  0  0  0  0  0  0  0  0
   45.9574   33.3650   37.9407 H   0  0  0  0  0  0  0  0  0  0  0  0
   45.9330   32.5123   35.9154 H   0  0  0  0  0  0  0  0  0  0  0  0
   45.0565   30.3611   35.8843 H   0  0  0  0  0  0  0  0  0  0  0  0
   45.7620   30.7926   37.5036 H   0  0  0  0  0  0  0  0  0  0  0  0
   43.7046   29.8907   38.2582 H   0  0  0  0  0  0  0  0  0  0  0  0
   41.6901   30.0683   36.5037 H   0  0  0  0  0  0  0  0  0  0  0  0
  1 17  1  0
  1  3  1  0
  2  7  2  0
  3  4  2  0
  3  2  1  0
  4  5  1  0
  5  6  2  0
  7  6  1  0
  8  2  1  0
  8 12  1  0
  9 10  2  0
  9  8  1  0
 10 11  1  0
 11 12  2  0
 11 13  1  0
 13 14  1  0
 15 13  1  0
 16 13  1  0
 18 19  1  0
 18 17  1  0
 20 19  1  0
 21 22  1  0
 21 20  1  0
 22 23  1  0
 23 18  1  0
 24 23  1  0
 25 24  2  0
  1 26  1  0
  1 27  1  0
  4 28  1  0
  6 29  1  0
  9 30  1  0
 14 31  1  0
 14 32  1  0
 14 33  1  0
 15 34  1  0
 15 35  1  0
 15 36  1  0
 16 37  1  0
 16 38  1  0
 16 39  1  0
 17 40  1  0
 17 41  1  0
 19 42  1  0
 19 43  1  0
 20 44  1  0
 20 45  1  0
 21 46  1  0
 22 47  1  0
 22 48  1  0
 23 49  1  1
 24 50  1  0
M  ISO  8  26   8  27   8  28  14  29  14  30  14  31   8  32   8  33   8
M  ISO  8  34   8  35   8  36   8  37   8  38   8  39   8  40   8  41   8
M  ISO  8  42  13  43  13  44  13  45  13  46   5  47  13  48  13  49  13
M  ISO  1  50   6
M  END
>  <minimizedAffinity>  (1) 
-5.38762426

>  <minimizedRMSD>  (1) 
5.3354373

$$$$
