
     RDKit          3D

 44 46  0  0  1  0  0  0  0  0999 V2000
   38.1910   33.5370   40.0010 C   0  0  0  0  0  0  0  0  0  0  0  0
   39.3260   34.3980   39.9080 N   0  0  0  0  0  0  0  0  0  0  0  0
   39.1780   35.6270   40.6080 C   0  0  0  0  0  0  0  0  0  0  0  0
   40.1060   36.6710   40.0770 C   0  0  0  0  0  0  0  0  0  0  0  0
   41.2240   36.0950   39.4190 N   0  0  0  0  0  0  0  0  0  0  0  0
   41.6610   34.8510   39.9380 C   0  0  0  0  0  0  0  0  0  0  0  0
   40.5730   33.7770   39.9140 C   0  0  2  0  0  0  0  0  0  0  0  0
   40.8210   33.0910   38.6220 C   0  0  0  0  0  0  0  0  0  0  0  0
   41.9280   32.6900   38.2780 O   0  0  0  0  0  0  0  0  0  0  0  0
   38.4470   32.1870   39.3870 C   0  0  0  0  0  0  0  0  0  0  0  0
   38.5440   30.2810   41.0020 C   0  0  0  0  0  0  0  0  0  0  0  0
   37.7860   31.1540   40.1840 C   0  0  0  0  0  0  0  0  0  0  0  0
   36.4150   31.0010   40.1590 C   0  0  0  0  0  0  0  0  0  0  0  0
   35.8880   29.9980   40.9440 N   0  0  0  0  0  0  0  0  0  0  0  0
   36.6320   29.2140   41.6870 C   0  0  0  0  0  0  0  0  0  0  0  0
   37.9730   29.3290   41.7390 N   0  0  0  0  0  0  0  0  0  0  0  0
   39.9580   30.3540   41.0920 N   0  0  0  0  0  0  0  0  0  0  0  0
   41.0200   29.9310   40.3890 C   0  0  0  0  0  0  0  0  0  0  0  0
   42.1500   30.3230   41.0280 N   0  0  0  0  0  0  0  0  0  0  0  0
   41.7500   31.0000   42.1440 C   0  0  0  0  0  0  0  0  0  0  0  0
   40.3980   30.9940   42.1410 N   0  0  0  0  0  0  0  0  0  0  0  0
   42.6640   31.6190   43.1560 C   0  0  0  0  0  0  0  0  0  0  0  0
   43.3050   30.5280   43.9760 C   0  0  0  0  0  0  0  0  0  0  0  0
   37.9365   33.4005   41.0624 H   0  0  0  0  0  0  0  0  0  0  0  0
   37.3651   34.0076   39.4474 H   0  0  0  0  0  0  0  0  0  0  0  0
   38.1418   35.9794   40.4977 H   0  0  0  0  0  0  0  0  0  0  0  0
   39.4203   35.4541   41.6670 H   0  0  0  0  0  0  0  0  0  0  0  0
   39.5591   37.3038   39.3625 H   0  0  0  0  0  0  0  0  0  0  0  0
   40.4764   37.2640   40.9262 H   0  0  0  0  0  0  0  0  0  0  0  0
   42.0082   36.7596   39.4844 H   0  0  0  0  0  0  0  0  0  0  0  0
   42.5127   34.5003   39.3367 H   0  0  0  0  0  0  0  0  0  0  0  0
   41.9393   35.0133   40.9898 H   0  0  0  0  0  0  0  0  0  0  0  0
   40.5894   33.0909   40.7737 H   0  0  0  0  0  0  0  0  0  0  0  0
   39.9719   32.9346   37.9404 H   0  0  0  0  0  0  0  0  0  0  0  0
   38.0490   32.1694   38.3617 H   0  0  0  0  0  0  0  0  0  0  0  0
   39.5298   31.9947   39.3641 H   0  0  0  0  0  0  0  0  0  0  0  0
   35.7737   31.6480   39.5425 H   0  0  0  0  0  0  0  0  0  0  0  0
   36.1431   28.4343   42.2895 H   0  0  0  0  0  0  0  0  0  0  0  0
   40.9804   29.3604   39.4494 H   0  0  0  0  0  0  0  0  0  0  0  0
   43.4440   32.1993   42.6414 H   0  0  0  0  0  0  0  0  0  0  0  0
   42.0893   32.2874   43.8140 H   0  0  0  0  0  0  0  0  0  0  0  0
   43.1752   30.7490   45.0457 H   0  0  0  0  0  0  0  0  0  0  0  0
   42.8293   29.5646   43.7402 H   0  0  0  0  0  0  0  0  0  0  0  0
   44.3781   30.4745   43.7402 H   0  0  0  0  0  0  0  0  0  0  0  0
  2  7  1  0
  2  1  1  0
  2  3  1  0
  4  3  1  0
  5  6  1  0
  5  4  1  0
  7  6  1  0
  8  7  1  0
  9  8  2  0
 10  1  1  0
 10 12  1  0
 11 17  1  0
 11 16  2  0
 12 11  1  0
 13 12  2  0
 13 14  1  0
 14 15  2  0
 15 16  1  0
 17 21  1  0
 18 19  2  0
 18 17  1  0
 19 20  1  0
 20 22  1  0
 21 20  2  0
 22 23  1  0
  1 24  1  0
  1 25  1  0
  3 26  1  0
  3 27  1  0
  4 28  1  0
  4 29  1  0
  5 30  1  0
  6 31  1  0
  6 32  1  0
  7 33  1  1
  8 34  1  0
 10 35  1  0
 10 36  1  0
 13 37  1  0
 15 38  1  0
 18 39  1  0
 22 40  1  0
 22 41  1  0
 23 42  1  0
 23 43  1  0
 23 44  1  0
M  ISO  8  24   8  25   8  26  13  27  13  28  13  29  13  30   5  31  13
M  ISO  8  32  13  33  13  34   6  35   8  36   8  37  14  38  14  39  14
M  ISO  5  40   8  41   8  42   8  43   8  44   8
M  END
>  <minimizedAffinity>  (1) 
-4.87328672

>  <minimizedRMSD>  (1) 
0.428350955

$$$$
