
     RDKit          3D

 12 12  0  0  0  0  0  0  0  0999 V2000
   36.7850   29.3810   41.9840 C   0  0  0  0  0  0  0  0  0  0  0  0
   38.0750   29.6750   42.4830 C   0  0  0  0  0  0  0  0  0  0  0  0
   38.8490   28.5860   42.9460 C   0  0  0  0  0  0  0  0  0  0  0  0
   38.3170   27.3300   42.8870 N   0  0  0  0  0  0  0  0  0  0  0  0
   37.0740   27.1030   42.3980 C   0  0  0  0  0  0  0  0  0  0  0  0
   36.3250   28.1280   41.9540 N   0  0  0  0  0  0  0  0  0  0  0  0
   35.9890   30.4610   41.5130 N   0  0  0  0  0  0  0  0  0  0  0  0
   38.4594   30.7053   42.5098 H   0  0  0  0  0  0  0  0  0  0  0  0
   39.8608   28.7477   43.3462 H   0  0  0  0  0  0  0  0  0  0  0  0
   36.6765   26.0779   42.3641 H   0  0  0  0  0  0  0  0  0  0  0  0
   35.0446   30.2817   41.1430 H   0  0  0  0  0  0  0  0  0  0  0  0
   36.3568   31.4227   41.5418 H   0  0  0  0  0  0  0  0  0  0  0  0
  1  2  2  0
  2  3  1  0
  4  3  2  0
  5  4  1  0
  6  1  1  0
  6  5  2  0
  7  1  1  0
  2  8  1  0
  3  9  1  0
  5 10  1  0
  7 11  1  0
  7 12  1  0
M  ISO  3   8  14   9  14  10  14
M  END
>  <minimizedAffinity>  (1) 
-2.81817579

>  <minimizedRMSD>  (1) 
2.70443559

$$$$
