
     RDKit          3D

 37 40  0  0  1  0  0  0  0  0999 V2000
   37.6280   31.0890   40.8990 C   0  0  1  0  0  0  0  0  0  0  0  0
   38.5820   32.2300   41.0180 C   0  0  0  0  0  0  0  0  0  0  0  0
   37.9520   33.2340   40.0650 C   0  0  0  0  0  0  0  0  0  0  0  0
   37.1820   32.3860   39.0450 C   0  0  0  0  0  0  0  0  0  0  0  0
   37.4770   30.9340   39.4110 C   0  0  2  0  0  0  0  0  0  0  0  0
   36.3700   30.1260   39.0010 N   0  0  0  0  0  0  0  0  0  0  0  0
   35.3420   29.7660   39.8240 C   0  0  0  0  0  0  0  0  0  0  0  0
   34.4720   29.0110   39.1310 N   0  0  0  0  0  0  0  0  0  0  0  0
   34.9020   28.8590   37.8540 C   0  0  0  0  0  0  0  0  0  0  0  0
   34.4400   28.2090   36.7210 C   0  0  0  0  0  0  0  0  0  0  0  0
   33.3580   27.5770   36.8040 O   0  0  0  0  0  0  0  0  0  0  0  0
   35.1400   28.2570   35.5530 N   0  0  0  0  0  0  0  0  0  0  0  0
   36.3080   28.9610   35.5260 C   0  0  0  0  0  0  0  0  0  0  0  0
   37.0940   29.0560   34.3420 N   0  0  0  0  0  0  0  0  0  0  0  0
   36.7530   29.5930   36.6390 N   0  0  0  0  0  0  0  0  0  0  0  0
   36.1010   29.5740   37.8040 C   0  0  0  0  0  0  0  0  0  0  0  0
   39.6620   28.1320   41.7270 C   0  0  0  0  0  0  0  0  0  0  0  0
   39.0220   27.6590   42.9220 C   0  0  0  0  0  0  0  0  0  0  0  0
   37.9050   28.3600   43.4100 C   0  0  0  0  0  0  0  0  0  0  0  0
   37.4770   29.4450   42.7420 N   0  0  0  0  0  0  0  0  0  0  0  0
   38.1060   29.8750   41.6040 C   0  0  0  0  0  0  0  0  0  0  0  0
   39.1800   29.2260   41.1090 N   0  0  0  0  0  0  0  0  0  0  0  0
   36.6586   31.2657   41.3880 H   0  0  0  0  0  0  0  0  0  0  0  0
   38.6212   32.6185   42.0464 H   0  0  0  0  0  0  0  0  0  0  0  0
   39.6261   31.9751   40.7836 H   0  0  0  0  0  0  0  0  0  0  0  0
   37.2673   33.9035   40.6063 H   0  0  0  0  0  0  0  0  0  0  0  0
   38.7053   33.8751   39.5838 H   0  0  0  0  0  0  0  0  0  0  0  0
   37.5304   32.6030   38.0244 H   0  0  0  0  0  0  0  0  0  0  0  0
   36.1034   32.6005   39.0694 H   0  0  0  0  0  0  0  0  0  0  0  0
   38.3453   30.4434   38.9470 H   0  0  0  0  0  0  0  0  0  0  0  0
   35.2418   30.0480   40.8825 H   0  0  0  0  0  0  0  0  0  0  0  0
   34.7957   27.7736   34.7112 H   0  0  0  0  0  0  0  0  0  0  0  0
   37.9722   29.5941   34.3487 H   0  0  0  0  0  0  0  0  0  0  0  0
   36.7842   28.5866   33.4791 H   0  0  0  0  0  0  0  0  0  0  0  0
   40.5379   27.6052   41.3205 H   0  0  0  0  0  0  0  0  0  0  0  0
   39.3976   26.7670   43.4448 H   0  0  0  0  0  0  0  0  0  0  0  0
   37.3902   28.0261   44.3230 H   0  0  0  0  0  0  0  0  0  0  0  0
  1  2  1  0
  1 21  1  0
  3  2  1  0
  4  5  1  0
  4  3  1  0
  5  1  1  0
  6  5  1  0
  6  7  1  0
  8  7  2  0
  9  8  1  0
 10 11  2  0
 10  9  1  0
 12 10  1  0
 13 12  1  0
 13 15  2  0
 14 13  1  0
 15 16  1  0
 16  9  2  0
 16  6  1  0
 17 18  2  0
 18 19  1  0
 20 19  2  0
 21 20  1  0
 22 21  2  0
 22 17  1  0
  1 23  1  1
  2 24  1  0
  2 25  1  0
  3 26  1  0
  3 27  1  0
  4 28  1  0
  4 29  1  0
  5 30  1  6
  7 31  1  0
 12 32  1  0
 14 33  1  0
 14 34  1  0
 17 35  1  0
 18 36  1  0
 19 37  1  0
M  ISO  8  23  13  24  13  25  13  26  13  27  13  28  13  29  13  30  13
M  ISO  5  31  14  32   9  35  14  36  14  37  14
M  END
>  <minimizedAffinity>  (1) 
-5.53400946

>  <minimizedRMSD>  (1) 
1.02694201

$$$$
