
     RDKit          3D

 36 39  0  0  1  0  0  0  0  0999 V2000
   38.1760   29.9640   39.0540 C   0  0  1  0  0  0  0  0  0  0  0  0
   36.9960   29.3390   38.3900 C   0  0  0  0  0  0  0  0  0  0  0  0
   36.9870   30.0990   37.0640 C   0  0  0  0  0  0  0  0  0  0  0  0
   37.5620   31.4680   37.3900 C   0  0  0  0  0  0  0  0  0  0  0  0
   37.9270   31.4390   38.8670 C   0  0  2  0  0  0  0  0  0  0  0  0
   39.6370   28.7450   42.2100 C   0  0  0  0  0  0  0  0  0  0  0  0
   38.5240   28.8160   43.1140 C   0  0  0  0  0  0  0  0  0  0  0  0
   37.2970   29.2760   42.6040 C   0  0  0  0  0  0  0  0  0  0  0  0
   37.2070   29.6300   41.3080 N   0  0  0  0  0  0  0  0  0  0  0  0
   38.2960   29.5460   40.4780 C   0  0  0  0  0  0  0  0  0  0  0  0
   39.4910   29.1080   40.9270 N   0  0  0  0  0  0  0  0  0  0  0  0
   39.1820   32.1320   39.0080 N   0  0  0  0  0  0  0  0  0  0  0  0
   40.3740   31.7310   38.5470 C   0  0  0  0  0  0  0  0  0  0  0  0
   41.3390   32.6200   38.8550 N   0  0  0  0  0  0  0  0  0  0  0  0
   40.7740   33.6340   39.5370 C   0  0  0  0  0  0  0  0  0  0  0  0
   41.3090   34.7850   40.0780 C   0  0  0  0  0  0  0  0  0  0  0  0
   40.4480   35.6250   40.7200 N   0  0  0  0  0  0  0  0  0  0  0  0
   39.1340   35.2930   40.7930 C   0  0  0  0  0  0  0  0  0  0  0  0
   38.6250   34.1720   40.2640 N   0  0  0  0  0  0  0  0  0  0  0  0
   39.4360   33.3020   39.6140 C   0  0  0  0  0  0  0  0  0  0  0  0
   42.7090   35.0200   39.9330 N   0  0  0  0  0  0  0  0  0  0  0  0
   39.1421   29.6567   38.6270 H   0  0  0  0  0  0  0  0  0  0  0  0
   37.1403   28.2591   38.2381 H   0  0  0  0  0  0  0  0  0  0  0  0
   36.0593   29.4058   38.9628 H   0  0  0  0  0  0  0  0  0  0  0  0
   35.9608   30.1926   36.6792 H   0  0  0  0  0  0  0  0  0  0  0  0
   37.5691   29.5811   36.2875 H   0  0  0  0  0  0  0  0  0  0  0  0
   38.4573   31.6598   36.7804 H   0  0  0  0  0  0  0  0  0  0  0  0
   36.8377   32.2670   37.1734 H   0  0  0  0  0  0  0  0  0  0  0  0
   37.1927   31.8799   39.5572 H   0  0  0  0  0  0  0  0  0  0  0  0
   40.6140   28.3913   42.5711 H   0  0  0  0  0  0  0  0  0  0  0  0
   38.6274   28.5209   44.1686 H   0  0  0  0  0  0  0  0  0  0  0  0
   36.4164   29.3462   43.2595 H   0  0  0  0  0  0  0  0  0  0  0  0
   40.5432   30.7978   37.9897 H   0  0  0  0  0  0  0  0  0  0  0  0
   38.4510   35.9803   41.3138 H   0  0  0  0  0  0  0  0  0  0  0  0
   43.1318   35.8720   40.3282 H   0  0  0  0  0  0  0  0  0  0  0  0
   43.2967   34.3376   39.4332 H   0  0  0  0  0  0  0  0  0  0  0  0
  1 10  1  0
  2  1  1  0
  3  4  1  0
  3  2  1  0
  4  5  1  0
  5 12  1  0
  5  1  1  0
  6  7  2  0
  8  7  1  0
  9  8  2  0
 10 11  2  0
 10  9  1  0
 11  6  1  0
 12 20  1  0
 13 14  2  0
 13 12  1  0
 14 15  1  0
 15 20  2  0
 15 16  1  0
 16 17  2  0
 17 18  1  0
 19 18  2  0
 20 19  1  0
 21 16  1  0
  1 22  1  6
  2 23  1  0
  2 24  1  0
  3 25  1  0
  3 26  1  0
  4 27  1  0
  4 28  1  0
  5 29  1  1
  6 30  1  0
  7 31  1  0
  8 32  1  0
 13 33  1  0
 18 34  1  0
 21 35  1  0
 21 36  1  0
M  ISO  8  22  13  23  13  24  13  25  13  26  13  27  13  28  13  29  13
M  ISO  5  30  14  31  14  32  14  33  14  34  14
M  END
>  <minimizedAffinity>  (1) 
-5.47791004

>  <minimizedRMSD>  (1) 
5.90266323

$$$$
