
     RDKit          3D

 33 35  0  0  1  0  0  0  0  0999 V2000
   36.8840   31.0170   40.3460 C   0  0  1  0  0  0  0  0  0  0  0  0
   37.6230   32.2860   40.6250 C   0  0  0  0  0  0  0  0  0  0  0  0
   37.2740   33.0920   39.3810 C   0  0  0  0  0  0  0  0  0  0  0  0
   37.2720   32.0470   38.2860 C   0  0  0  0  0  0  0  0  0  0  0  0
   37.2160   30.6830   38.9450 C   0  0  2  0  0  0  0  0  0  0  0  0
   38.6560   29.1640   43.0000 C   0  0  0  0  0  0  0  0  0  0  0  0
   37.7750   28.0550   43.2310 C   0  0  0  0  0  0  0  0  0  0  0  0
   36.5990   27.9690   42.4620 C   0  0  0  0  0  0  0  0  0  0  0  0
   36.3410   28.9230   41.5430 N   0  0  0  0  0  0  0  0  0  0  0  0
   37.2000   29.9680   41.3470 C   0  0  0  0  0  0  0  0  0  0  0  0
   38.3330   30.0840   42.0620 N   0  0  0  0  0  0  0  0  0  0  0  0
   36.2150   29.8970   38.1970 C   0  0  0  0  0  0  0  0  0  0  0  0
   36.5170   29.6080   36.8580 C   0  0  0  0  0  0  0  0  0  0  0  0
   35.6060   28.8740   36.1240 C   0  0  0  0  0  0  0  0  0  0  0  0
   34.4200   28.4220   36.6640 C   0  0  0  0  0  0  0  0  0  0  0  0
   34.1590   28.7320   37.9990 C   0  0  0  0  0  0  0  0  0  0  0  0
   35.0540   29.4670   38.7590 C   0  0  0  0  0  0  0  0  0  0  0  0
   35.7931   31.1152   40.4475 H   0  0  0  0  0  0  0  0  0  0  0  0
   37.2587   32.7748   41.5406 H   0  0  0  0  0  0  0  0  0  0  0  0
   38.7015   32.1585   40.8000 H   0  0  0  0  0  0  0  0  0  0  0  0
   36.2847   33.5627   39.4798 H   0  0  0  0  0  0  0  0  0  0  0  0
   37.9746   33.9182   39.1897 H   0  0  0  0  0  0  0  0  0  0  0  0
   38.1887   32.1342   37.6843 H   0  0  0  0  0  0  0  0  0  0  0  0
   36.4060   32.1883   37.6226 H   0  0  0  0  0  0  0  0  0  0  0  0
   38.1233   30.0612   38.9382 H   0  0  0  0  0  0  0  0  0  0  0  0
   39.5851   29.2651   43.5801 H   0  0  0  0  0  0  0  0  0  0  0  0
   38.0121   27.2931   43.9881 H   0  0  0  0  0  0  0  0  0  0  0  0
   35.8984   27.1337   42.6085 H   0  0  0  0  0  0  0  0  0  0  0  0
   37.4560   29.9573   36.4039 H   0  0  0  0  0  0  0  0  0  0  0  0
   35.8340   28.6420   35.0732 H   0  0  0  0  0  0  0  0  0  0  0  0
   33.7061   27.8385   36.0641 H   0  0  0  0  0  0  0  0  0  0  0  0
   33.2216   28.3850   38.4583 H   0  0  0  0  0  0  0  0  0  0  0  0
   34.8271   29.7011   39.8096 H   0  0  0  0  0  0  0  0  0  0  0  0
  1  2  1  0
  1 10  1  0
  3  2  1  0
  4  5  1  0
  4  3  1  0
  5  1  1  0
  6  7  2  0
  8  7  1  0
  9  8  2  0
 10  9  1  0
 10 11  2  0
 11  6  1  0
 12 17  1  0
 12  5  1  0
 13 12  2  0
 14 15  2  0
 14 13  1  0
 15 16  1  0
 16 17  2  0
  1 18  1  6
  2 19  1  0
  2 20  1  0
  3 21  1  0
  3 22  1  0
  4 23  1  0
  4 24  1  0
  5 25  1  1
  6 26  1  0
  7 27  1  0
  8 28  1  0
 13 29  1  0
 14 30  1  0
 15 31  1  0
 16 32  1  0
 17 33  1  0
M  ISO  8  18  13  19  13  20  13  21  13  22  13  23  13  24  13  25  13
M  ISO  8  26  14  27  14  28  14  29  14  30  14  31  14  32  14  33  14
M  END
>  <minimizedAffinity>  (1) 
-5.22883081

>  <minimizedRMSD>  (1) 
0.985256672

$$$$
