
     RDKit          3D

 36 38  0  0  1  0  0  0  0  0999 V2000
   37.6000   31.3290   40.6990 C   0  0  1  0  0  0  0  0  0  0  0  0
   38.4310   32.5510   40.9230 C   0  0  0  0  0  0  0  0  0  0  0  0
   37.8740   33.5040   39.8920 C   0  0  0  0  0  0  0  0  0  0  0  0
   37.2200   32.6170   38.8340 C   0  0  0  0  0  0  0  0  0  0  0  0
   37.5810   31.1790   39.2120 C   0  0  2  0  0  0  0  0  0  0  0  0
   39.8860   28.6320   41.7660 C   0  0  0  0  0  0  0  0  0  0  0  0
   39.1660   28.0580   42.8640 C   0  0  0  0  0  0  0  0  0  0  0  0
   37.9160   28.5990   43.2080 C   0  0  0  0  0  0  0  0  0  0  0  0
   37.4460   29.6370   42.4900 N   0  0  0  0  0  0  0  0  0  0  0  0
   38.1590   30.1640   41.4450 C   0  0  0  0  0  0  0  0  0  0  0  0
   39.3650   29.6630   41.0910 N   0  0  0  0  0  0  0  0  0  0  0  0
   34.6590   28.5430   37.5160 C   0  0  0  0  0  0  0  0  0  0  0  0
   34.5860   28.8870   38.8650 C   0  0  0  0  0  0  0  0  0  0  0  0
   35.5300   29.7340   39.4010 C   0  0  0  0  0  0  0  0  0  0  0  0
   36.5730   30.2790   38.6570 C   0  0  0  0  0  0  0  0  0  0  0  0
   36.5920   29.9020   37.3270 C   0  0  0  0  0  0  0  0  0  0  0  0
   35.6720   29.0530   36.7300 C   0  0  0  0  0  0  0  0  0  0  0  0
   33.5300   27.4810   36.7050 S   0  0  0  0  0  0  0  0  0  0  0  0
   33.7270   26.0480   37.1340 O   0  0  0  0  0  0  0  0  0  0  0  0
   33.8170   27.5900   35.2140 O   0  0  0  0  0  0  0  0  0  0  0  0
   36.5725   31.4002   41.0852 H   0  0  0  0  0  0  0  0  0  0  0  0
   38.2985   32.9430   41.9422 H   0  0  0  0  0  0  0  0  0  0  0  0
   39.5125   32.3754   40.8256 H   0  0  0  0  0  0  0  0  0  0  0  0
   37.1291   34.1726   40.3481 H   0  0  0  0  0  0  0  0  0  0  0  0
   38.6570   34.1458   39.4618 H   0  0  0  0  0  0  0  0  0  0  0  0
   37.6118   32.8601   37.8353 H   0  0  0  0  0  0  0  0  0  0  0  0
   36.1305   32.7646   38.8001 H   0  0  0  0  0  0  0  0  0  0  0  0
   38.5181   30.7438   38.8345 H   0  0  0  0  0  0  0  0  0  0  0  0
   40.8666   28.2251   41.4782 H   0  0  0  0  0  0  0  0  0  0  0  0
   39.5840   27.2102   43.4266 H   0  0  0  0  0  0  0  0  0  0  0  0
   37.3345   28.1843   44.0446 H   0  0  0  0  0  0  0  0  0  0  0  0
   33.7802   28.4847   39.4966 H   0  0  0  0  0  0  0  0  0  0  0  0
   35.4566   29.9923   40.4677 H   0  0  0  0  0  0  0  0  0  0  0  0
   37.3969   30.3055   36.6951 H   0  0  0  0  0  0  0  0  0  0  0  0
   35.7475   28.7943   35.6635 H   0  0  0  0  0  0  0  0  0  0  0  0
   32.2450   27.8422   37.0135 H   0  0  0  0  0  0  0  0  0  0  0  0
  1  2  1  0
  1 10  1  0
  3  2  1  0
  4  5  1  0
  4  3  1  0
  5  1  1  0
  6  7  2  0
  7  8  1  0
  9  8  2  0
 10  9  1  0
 11 10  2  0
 11  6  1  0
 12 13  2  0
 13 14  1  0
 15  5  1  0
 15 14  2  0
 16 15  1  0
 17 16  2  0
 17 12  1  0
 18 19  2  0
 18 12  1  0
 20 18  2  0
  1 21  1  1
  2 22  1  0
  2 23  1  0
  3 24  1  0
  3 25  1  0
  4 26  1  0
  4 27  1  0
  5 28  1  6
  6 29  1  0
  7 30  1  0
  8 31  1  0
 13 32  1  0
 14 33  1  0
 16 34  1  0
 17 35  1  0
 18 36  1  0
M  ISO  8  21  13  22  13  23  13  24  13  25  13  26  13  27  13  28  13
M  ISO  8  29  14  30  14  31  14  32  14  33  14  34  14  35  14  36  11
M  END
>  <minimizedAffinity>  (1) 
-4.98309565

>  <minimizedRMSD>  (1) 
1.62087893

$$$$
