
     RDKit          3D

 36 38  0  0  1  0  0  0  0  0999 V2000
   37.9680   30.9180   41.1140 C   0  0  1  0  0  0  0  0  0  0  0  0
   39.1090   31.2520   40.2190 C   0  0  0  0  0  0  0  0  0  0  0  0
   38.5590   32.4500   39.4620 C   0  0  0  0  0  0  0  0  0  0  0  0
   37.0540   32.2750   39.4640 C   0  0  0  0  0  0  0  0  0  0  0  0
   36.7680   31.0350   40.2480 C   0  0  1  0  0  0  0  0  0  0  0  0
   39.3080   27.6070   41.9830 C   0  0  0  0  0  0  0  0  0  0  0  0
   38.5160   27.2430   43.1240 C   0  0  0  0  0  0  0  0  0  0  0  0
   37.5280   28.1480   43.5570 C   0  0  0  0  0  0  0  0  0  0  0  0
   37.3650   29.3080   42.8950 N   0  0  0  0  0  0  0  0  0  0  0  0
   38.1450   29.6170   41.8070 C   0  0  0  0  0  0  0  0  0  0  0  0
   39.0900   28.7830   41.3680 N   0  0  0  0  0  0  0  0  0  0  0  0
   36.3400   29.8370   39.5220 C   0  0  0  0  0  0  0  0  0  0  0  0
   34.9360   29.3990   39.9710 C   0  0  0  0  0  0  0  0  0  0  0  0
   34.2480   28.8440   38.7680 C   0  0  0  0  0  0  0  0  0  0  0  0
   35.3090   28.7060   37.6660 C   0  0  0  0  0  0  0  0  0  0  0  0
   36.1790   29.9060   38.0370 C   0  0  0  0  0  0  0  0  0  0  0  0
   37.8754   31.6017   41.9707 H   0  0  0  0  0  0  0  0  0  0  0  0
   40.0072   31.5186   40.7953 H   0  0  0  0  0  0  0  0  0  0  0  0
   39.4304   30.4218   39.5728 H   0  0  0  0  0  0  0  0  0  0  0  0
   38.9430   32.4626   38.4313 H   0  0  0  0  0  0  0  0  0  0  0  0
   38.8597   33.3999   39.9281 H   0  0  0  0  0  0  0  0  0  0  0  0
   36.5719   33.1429   39.9376 H   0  0  0  0  0  0  0  0  0  0  0  0
   36.6632   32.1945   38.4389 H   0  0  0  0  0  0  0  0  0  0  0  0
   35.8350   31.1235   40.8240 H   0  0  0  0  0  0  0  0  0  0  0  0
   40.0897   26.9269   41.6135 H   0  0  0  0  0  0  0  0  0  0  0  0
   38.6761   26.2868   43.6437 H   0  0  0  0  0  0  0  0  0  0  0  0
   36.8971   27.9096   44.4259 H   0  0  0  0  0  0  0  0  0  0  0  0
   37.1808   29.1685   39.7591 H   0  0  0  0  0  0  0  0  0  0  0  0
   35.0122   28.6282   40.7521 H   0  0  0  0  0  0  0  0  0  0  0  0
   34.3743   30.2475   40.3887 H   0  0  0  0  0  0  0  0  0  0  0  0
   33.8154   27.8598   39.0009 H   0  0  0  0  0  0  0  0  0  0  0  0
   33.4303   29.5047   38.4444 H   0  0  0  0  0  0  0  0  0  0  0  0
   34.8761   28.8034   36.6595 H   0  0  0  0  0  0  0  0  0  0  0  0
   35.8269   27.7366   37.6205 H   0  0  0  0  0  0  0  0  0  0  0  0
   37.1583   29.8394   37.5404 H   0  0  0  0  0  0  0  0  0  0  0  0
   35.7231   30.8552   37.7190 H   0  0  0  0  0  0  0  0  0  0  0  0
  1 10  1  0
  2  1  1  0
  3  4  1  0
  3  2  1  0
  4  5  1  0
  5  1  1  0
  6  7  2  0
  7  8  1  0
  9  8  2  0
 10  9  1  0
 11 10  2  0
 11  6  1  0
 12 13  1  0
 12  5  1  0
 14 13  1  0
 15 16  1  0
 15 14  1  0
 16 12  1  0
  1 17  1  1
  2 18  1  0
  2 19  1  0
  3 20  1  0
  3 21  1  0
  4 22  1  0
  4 23  1  0
  5 24  1  1
  6 25  1  0
  7 26  1  0
  8 27  1  0
 12 28  1  0
 13 29  1  0
 13 30  1  0
 14 31  1  0
 14 32  1  0
 15 33  1  0
 15 34  1  0
 16 35  1  0
 16 36  1  0
M  ISO  8  17  13  18  13  19  13  20  13  21  13  22  13  23  13  24  13
M  ISO  8  25  14  26  14  27  14  28  13  29  13  30  13  31  13  32  13
M  ISO  4  33  13  34  13  35  13  36  13
M  END
>  <minimizedAffinity>  (1) 
-4.70341873

>  <minimizedRMSD>  (1) 
2.08989024

$$$$
