
     RDKit          3D

 38 40  0  0  1  0  0  0  0  0999 V2000
   36.7460   30.6220   40.4540 C   0  0  1  0  0  0  0  0  0  0  0  0
   37.4610   31.9160   40.6810 C   0  0  0  0  0  0  0  0  0  0  0  0
   37.1990   32.6310   39.3590 C   0  0  0  0  0  0  0  0  0  0  0  0
   37.0620   31.5230   38.3290 C   0  0  0  0  0  0  0  0  0  0  0  0
   37.2230   30.2240   39.0890 C   0  0  2  0  0  0  0  0  0  0  0  0
   38.3690   28.9690   43.3200 C   0  0  0  0  0  0  0  0  0  0  0  0
   37.5330   27.8220   43.5280 C   0  0  0  0  0  0  0  0  0  0  0  0
   36.4360   27.6440   42.6680 C   0  0  0  0  0  0  0  0  0  0  0  0
   36.1980   28.5520   41.6750 N   0  0  0  0  0  0  0  0  0  0  0  0
   37.0330   29.6310   41.5260 C   0  0  0  0  0  0  0  0  0  0  0  0
   38.0980   29.8360   42.3320 N   0  0  0  0  0  0  0  0  0  0  0  0
   36.5560   29.1050   38.5260 N   0  0  0  0  0  0  0  0  0  0  0  0
   35.3530   29.3580   37.8200 C   0  0  0  0  0  0  0  0  0  0  0  0
   34.5500   28.0520   37.8450 C   0  0  0  0  0  0  0  0  0  0  0  0
   35.5180   26.9160   37.6670 C   0  0  0  0  0  0  0  0  0  0  0  0
   36.6750   27.4100   36.8420 C   0  0  0  0  0  0  0  0  0  0  0  0
   37.4690   28.3690   37.6800 C   0  0  0  0  0  0  0  0  0  0  0  0
   35.6493   30.6955   40.4960 H   0  0  0  0  0  0  0  0  0  0  0  0
   37.0344   32.4693   41.5307 H   0  0  0  0  0  0  0  0  0  0  0  0
   38.5261   31.8067   40.9334 H   0  0  0  0  0  0  0  0  0  0  0  0
   36.2726   33.2213   39.4164 H   0  0  0  0  0  0  0  0  0  0  0  0
   38.0064   33.3331   39.1036 H   0  0  0  0  0  0  0  0  0  0  0  0
   37.8443   31.6161   37.5613 H   0  0  0  0  0  0  0  0  0  0  0  0
   36.0915   31.5703   37.8134 H   0  0  0  0  0  0  0  0  0  0  0  0
   38.2530   29.8381   39.0759 H   0  0  0  0  0  0  0  0  0  0  0  0
   39.2370   29.1389   43.9739 H   0  0  0  0  0  0  0  0  0  0  0  0
   37.7439   27.1047   44.3349 H   0  0  0  0  0  0  0  0  0  0  0  0
   35.7712   26.7767   42.7937 H   0  0  0  0  0  0  0  0  0  0  0  0
   35.5752   29.6476   36.7823 H   0  0  0  0  0  0  0  0  0  0  0  0
   34.7874   30.1814   38.2806 H   0  0  0  0  0  0  0  0  0  0  0  0
   34.0279   27.9517   38.8080 H   0  0  0  0  0  0  0  0  0  0  0  0
   33.7984   28.0468   37.0418 H   0  0  0  0  0  0  0  0  0  0  0  0
   35.8789   26.5768   38.6492 H   0  0  0  0  0  0  0  0  0  0  0  0
   35.0248   26.0717   37.1631 H   0  0  0  0  0  0  0  0  0  0  0  0
   37.3091   26.5621   36.5436 H   0  0  0  0  0  0  0  0  0  0  0  0
   36.3091   27.9104   35.9333 H   0  0  0  0  0  0  0  0  0  0  0  0
   38.1849   27.8125   38.3028 H   0  0  0  0  0  0  0  0  0  0  0  0
   38.0253   29.0631   37.0329 H   0  0  0  0  0  0  0  0  0  0  0  0
  1  2  1  0
  1 10  1  0
  3  2  1  0
  4  5  1  0
  4  3  1  0
  5  1  1  0
  6  7  2  0
  8  7  1  0
  9  8  2  0
 10  9  1  0
 10 11  2  0
 11  6  1  0
 12  5  1  0
 13 14  1  0
 13 12  1  0
 15 14  1  0
 16 15  1  0
 16 17  1  0
 17 12  1  0
  1 18  1  6
  2 19  1  0
  2 20  1  0
  3 21  1  0
  3 22  1  0
  4 23  1  0
  4 24  1  0
  5 25  1  1
  6 26  1  0
  7 27  1  0
  8 28  1  0
 13 29  1  0
 13 30  1  0
 14 31  1  0
 14 32  1  0
 15 33  1  0
 15 34  1  0
 16 35  1  0
 16 36  1  0
 17 37  1  0
 17 38  1  0
M  ISO  8  18  13  19  13  20  13  21  13  22  13  23  13  24  13  25  13
M  ISO  8  26  14  27  14  28  14  29  13  30  13  31  13  32  13  33  13
M  ISO  5  34  13  35  13  36  13  37  13  38  13
M  END
>  <minimizedAffinity>  (1) 
-4.59790993

>  <minimizedRMSD>  (1) 
1.21722603

$$$$
