
     RDKit          3D

 30 32  0  0  1  0  0  0  0  0999 V2000
   36.9660   31.1120   40.3840 C   0  0  1  0  0  0  0  0  0  0  0  0
   37.7110   32.3540   40.7340 C   0  0  0  0  0  0  0  0  0  0  0  0
   37.5130   33.2020   39.4920 C   0  0  0  0  0  0  0  0  0  0  0  0
   37.2820   32.2220   38.3630 C   0  0  0  0  0  0  0  0  0  0  0  0
   37.3830   30.8250   38.9740 C   0  0  2  0  0  0  0  0  0  0  0  0
   38.5650   29.1250   43.0350 C   0  0  0  0  0  0  0  0  0  0  0  0
   37.6740   28.0060   43.1700 C   0  0  0  0  0  0  0  0  0  0  0  0
   36.5460   27.9660   42.3310 C   0  0  0  0  0  0  0  0  0  0  0  0
   36.3340   28.9680   41.4330 N   0  0  0  0  0  0  0  0  0  0  0  0
   37.2120   30.0100   41.3440 C   0  0  0  0  0  0  0  0  0  0  0  0
   38.3000   30.0880   42.1220 N   0  0  0  0  0  0  0  0  0  0  0  0
   36.4410   29.9780   38.2170 C   0  0  0  0  0  0  0  0  0  0  0  0
   36.5460   29.5480   36.8930 C   0  0  0  0  0  0  0  0  0  0  0  0
   35.4570   28.7820   36.5920 N   0  0  0  0  0  0  0  0  0  0  0  0
   34.6950   28.7370   37.7010 C   0  0  0  0  0  0  0  0  0  0  0  0
   35.2730   29.4530   38.6910 N   0  0  0  0  0  0  0  0  0  0  0  0
   35.8744   31.2294   40.4517 H   0  0  0  0  0  0  0  0  0  0  0  0
   37.2819   32.8404   41.6224 H   0  0  0  0  0  0  0  0  0  0  0  0
   38.7670   32.1806   40.9885 H   0  0  0  0  0  0  0  0  0  0  0  0
   36.6410   33.8616   39.6124 H   0  0  0  0  0  0  0  0  0  0  0  0
   38.3812   33.8490   39.2982 H   0  0  0  0  0  0  0  0  0  0  0  0
   38.0476   32.3524   37.5840 H   0  0  0  0  0  0  0  0  0  0  0  0
   36.3002   32.3807   37.8930 H   0  0  0  0  0  0  0  0  0  0  0  0
   38.3501   30.3016   38.9461 H   0  0  0  0  0  0  0  0  0  0  0  0
   39.4592   29.1986   43.6714 H   0  0  0  0  0  0  0  0  0  0  0  0
   37.8672   27.2091   43.9033 H   0  0  0  0  0  0  0  0  0  0  0  0
   35.8369   27.1279   42.3998 H   0  0  0  0  0  0  0  0  0  0  0  0
   37.3707   29.7871   36.2054 H   0  0  0  0  0  0  0  0  0  0  0  0
   33.7411   28.1963   37.7886 H   0  0  0  0  0  0  0  0  0  0  0  0
   34.8965   29.5808   39.6412 H   0  0  0  0  0  0  0  0  0  0  0  0
  1  2  1  0
  1 10  1  0
  3  2  1  0
  4  5  1  0
  4  3  1  0
  5  1  1  0
  6  7  2  0
  8  7  1  0
  9  8  2  0
 10  9  1  0
 10 11  2  0
 11  6  1  0
 12 16  1  0
 12  5  1  0
 13 12  2  0
 14 13  1  0
 14 15  2  0
 15 16  1  0
  1 17  1  6
  2 18  1  0
  2 19  1  0
  3 20  1  0
  3 21  1  0
  4 22  1  0
  4 23  1  0
  5 24  1  1
  6 25  1  0
  7 26  1  0
  8 27  1  0
 13 28  1  0
 15 29  1  0
 16 30  1  0
M  ISO  8  17  13  18  13  19  13  20  13  21  13  22  13  23  13  24  13
M  ISO  6  25  14  26  14  27  14  28  14  29  14  30   9
M  END
>  <minimizedAffinity>  (1) 
-4.50529671

>  <minimizedRMSD>  (1) 
0.76396507

$$$$
