
     RDKit          3D

 37 39  0  0  1  0  0  0  0  0999 V2000
   36.9110   30.8740   40.1860 C   0  0  1  0  0  0  0  0  0  0  0  0
   37.4160   32.2300   40.5670 C   0  0  0  0  0  0  0  0  0  0  0  0
   37.2390   32.9770   39.2490 C   0  0  0  0  0  0  0  0  0  0  0  0
   37.3800   31.9170   38.1690 C   0  0  0  0  0  0  0  0  0  0  0  0
   37.6330   30.6130   38.8980 C   0  0  2  0  0  0  0  0  0  0  0  0
   38.4090   29.1530   43.0740 C   0  0  0  0  0  0  0  0  0  0  0  0
   37.5310   28.0350   43.2540 C   0  0  0  0  0  0  0  0  0  0  0  0
   36.4490   27.8970   42.3680 C   0  0  0  0  0  0  0  0  0  0  0  0
   36.2680   28.8200   41.3730 N   0  0  0  0  0  0  0  0  0  0  0  0
   37.1390   29.8660   41.2520 C   0  0  0  0  0  0  0  0  0  0  0  0
   38.1910   30.0350   42.0820 N   0  0  0  0  0  0  0  0  0  0  0  0
   37.1780   29.4510   38.1990 N   0  0  0  0  0  0  0  0  0  0  0  0
   35.8240   29.4840   37.7600 C   0  0  0  0  0  0  0  0  0  0  0  0
   35.4750   28.0470   37.3510 C   0  0  0  0  0  0  0  0  0  0  0  0
   36.2410   27.8000   36.1430 N   0  0  0  0  0  0  0  0  0  0  0  0
   37.6470   27.9740   36.3420 C   0  0  0  0  0  0  0  0  0  0  0  0
   37.9900   29.2780   37.0080 C   0  0  0  0  0  0  0  0  0  0  0  0
   35.8200   30.8143   40.0585 H   0  0  0  0  0  0  0  0  0  0  0  0
   36.8120   32.6766   41.3705 H   0  0  0  0  0  0  0  0  0  0  0  0
   38.4417   32.2407   40.9642 H   0  0  0  0  0  0  0  0  0  0  0  0
   36.2452   33.4461   39.2018 H   0  0  0  0  0  0  0  0  0  0  0  0
   37.9765   33.7846   39.1316 H   0  0  0  0  0  0  0  0  0  0  0  0
   38.2253   32.1555   37.5068 H   0  0  0  0  0  0  0  0  0  0  0  0
   36.4800   31.8597   37.5392 H   0  0  0  0  0  0  0  0  0  0  0  0
   38.6984   30.3680   39.0202 H   0  0  0  0  0  0  0  0  0  0  0  0
   39.2655   29.2907   43.7503 H   0  0  0  0  0  0  0  0  0  0  0  0
   37.6989   27.3069   44.0612 H   0  0  0  0  0  0  0  0  0  0  0  0
   35.7518   27.0527   42.4732 H   0  0  0  0  0  0  0  0  0  0  0  0
   35.1662   29.8194   38.5754 H   0  0  0  0  0  0  0  0  0  0  0  0
   35.6897   30.1844   36.9225 H   0  0  0  0  0  0  0  0  0  0  0  0
   35.7635   27.3396   38.1424 H   0  0  0  0  0  0  0  0  0  0  0  0
   34.3951   27.9161   37.1877 H   0  0  0  0  0  0  0  0  0  0  0  0
   35.9270   28.4550   35.4128 H   0  0  0  0  0  0  0  0  0  0  0  0
   38.0162   27.1511   36.9718 H   0  0  0  0  0  0  0  0  0  0  0  0
   38.1216   27.9769   35.3496 H   0  0  0  0  0  0  0  0  0  0  0  0
   39.0537   29.2760   37.2884 H   0  0  0  0  0  0  0  0  0  0  0  0
   37.7919   30.1051   36.3103 H   0  0  0  0  0  0  0  0  0  0  0  0
  1  2  1  0
  1 10  1  0
  3  2  1  0
  4  5  1  0
  4  3  1  0
  5  1  1  0
  6  7  2  0
  8  7  1  0
  9  8  2  0
 10  9  1  0
 10 11  2  0
 11  6  1  0
 12  5  1  0
 13 12  1  0
 14 13  1  0
 15 16  1  0
 15 14  1  0
 16 17  1  0
 17 12  1  0
  1 18  1  6
  2 19  1  0
  2 20  1  0
  3 21  1  0
  3 22  1  0
  4 23  1  0
  4 24  1  0
  5 25  1  1
  6 26  1  0
  7 27  1  0
  8 28  1  0
 13 29  1  0
 13 30  1  0
 14 31  1  0
 14 32  1  0
 15 33  1  0
 16 34  1  0
 16 35  1  0
 17 36  1  0
 17 37  1  0
M  ISO  8  18  13  19  13  20  13  21  13  22  13  23  13  24  13  25  13
M  ISO  8  26  14  27  14  28  14  29  13  30  13  31  13  32  13  33   5
M  ISO  4  34  13  35  13  36  13  37  13
M  END
>  <minimizedAffinity>  (1) 
-4.47092962

>  <minimizedRMSD>  (1) 
1.58843994

$$$$
