
     RDKit          3D

 32 33  0  0  1  0  0  0  0  0999 V2000
   36.8490   30.8650   40.2070 C   0  0  1  0  0  0  0  0  0  0  0  0
   37.3950   32.2130   40.5480 C   0  0  0  0  0  0  0  0  0  0  0  0
   37.2340   32.9480   39.2270 C   0  0  0  0  0  0  0  0  0  0  0  0
   37.3040   31.8760   38.1490 C   0  0  0  0  0  0  0  0  0  0  0  0
   37.4850   30.5670   38.8860 C   0  0  2  0  0  0  0  0  0  0  0  0
   38.4600   29.1720   43.0480 C   0  0  0  0  0  0  0  0  0  0  0  0
   37.5960   28.0480   43.2700 C   0  0  0  0  0  0  0  0  0  0  0  0
   36.4810   27.9000   42.4250 C   0  0  0  0  0  0  0  0  0  0  0  0
   36.2640   28.8110   41.4450 N   0  0  0  0  0  0  0  0  0  0  0  0
   37.1170   29.8680   41.2710 C   0  0  0  0  0  0  0  0  0  0  0  0
   38.1890   30.0460   42.0520 N   0  0  0  0  0  0  0  0  0  0  0  0
   36.9110   29.4030   38.1620 C   0  0  0  0  0  0  0  0  0  0  0  0
   35.4430   29.4370   37.9560 C   0  0  0  0  0  0  0  0  0  0  0  0
   37.5700   29.2780   36.8040 C   0  0  0  0  0  0  0  0  0  0  0  0
   35.7519   30.8303   40.1358 H   0  0  0  0  0  0  0  0  0  0  0  0
   36.8118   32.6922   41.3482 H   0  0  0  0  0  0  0  0  0  0  0  0
   38.4268   32.1958   40.9289 H   0  0  0  0  0  0  0  0  0  0  0  0
   36.2638   33.4651   39.1914 H   0  0  0  0  0  0  0  0  0  0  0  0
   38.0123   33.7132   39.0903 H   0  0  0  0  0  0  0  0  0  0  0  0
   38.1569   32.0604   37.4793 H   0  0  0  0  0  0  0  0  0  0  0  0
   36.3990   31.8686   37.5238 H   0  0  0  0  0  0  0  0  0  0  0  0
   38.5334   30.2505   38.9888 H   0  0  0  0  0  0  0  0  0  0  0  0
   39.3422   29.3227   43.6875 H   0  0  0  0  0  0  0  0  0  0  0  0
   37.7989   27.3258   44.0745 H   0  0  0  0  0  0  0  0  0  0  0  0
   35.7918   27.0531   42.5583 H   0  0  0  0  0  0  0  0  0  0  0  0
   37.1119   28.5410   38.8152 H   0  0  0  0  0  0  0  0  0  0  0  0
   34.9359   29.4487   38.9321 H   0  0  0  0  0  0  0  0  0  0  0  0
   35.1728   30.3416   37.3915 H   0  0  0  0  0  0  0  0  0  0  0  0
   35.1312   28.5458   37.3915 H   0  0  0  0  0  0  0  0  0  0  0  0
   38.6431   29.0745   36.9345 H   0  0  0  0  0  0  0  0  0  0  0  0
   37.1054   28.4520   36.2456 H   0  0  0  0  0  0  0  0  0  0  0  0
   37.4401   30.2168   36.2456 H   0  0  0  0  0  0  0  0  0  0  0  0
  1  2  1  0
  1 10  1  0
  3  2  1  0
  4  5  1  0
  4  3  1  0
  5  1  1  0
  6  7  2  0
  8  7  1  0
  9  8  2  0
 10  9  1  0
 10 11  2  0
 11  6  1  0
 12  5  1  0
 13 12  1  0
 14 12  1  0
  1 15  1  6
  2 16  1  0
  2 17  1  0
  3 18  1  0
  3 19  1  0
  4 20  1  0
  4 21  1  0
  5 22  1  1
  6 23  1  0
  7 24  1  0
  8 25  1  0
 12 26  1  0
 13 27  1  0
 13 28  1  0
 13 29  1  0
 14 30  1  0
 14 31  1  0
 14 32  1  0
M  ISO  8  15  13  16  13  17  13  18  13  19  13  20  13  21  13  22  13
M  ISO  8  23  14  24  14  25  14  26   8  27   8  28   8  29   8  30   8
M  ISO  2  31   8  32   8
M  END
>  <minimizedAffinity>  (1) 
-4.3387537

>  <minimizedRMSD>  (1) 
1.06202674

$$$$
