
     RDKit          3D

 29 31  0  0  1  0  0  0  0  0999 V2000
   36.8760   30.9340   40.2160 C   0  0  1  0  0  0  0  0  0  0  0  0
   37.4360   32.2680   40.5810 C   0  0  0  0  0  0  0  0  0  0  0  0
   37.2850   33.0290   39.2720 C   0  0  0  0  0  0  0  0  0  0  0  0
   37.3440   31.9590   38.1800 C   0  0  0  0  0  0  0  0  0  0  0  0
   37.5340   30.6310   38.8990 C   0  0  2  0  0  0  0  0  0  0  0  0
   38.4220   29.1790   43.0630 C   0  0  0  0  0  0  0  0  0  0  0  0
   37.5550   28.0510   43.2440 C   0  0  0  0  0  0  0  0  0  0  0  0
   36.4640   27.9210   42.3670 C   0  0  0  0  0  0  0  0  0  0  0  0
   36.2630   28.8560   41.3870 N   0  0  0  0  0  0  0  0  0  0  0  0
   37.1160   29.9090   41.2590 C   0  0  0  0  0  0  0  0  0  0  0  0
   38.1750   30.0700   42.0790 N   0  0  0  0  0  0  0  0  0  0  0  0
   36.9390   29.5200   38.2120 N   0  0  0  0  0  0  0  0  0  0  0  0
   37.4260   28.3100   37.8760 C   0  0  0  0  0  0  0  0  0  0  0  0
   36.4690   27.6220   37.2370 N   0  0  0  0  0  0  0  0  0  0  0  0
   35.3780   28.4110   37.1770 C   0  0  0  0  0  0  0  0  0  0  0  0
   35.6980   29.5660   37.7820 N   0  0  0  0  0  0  0  0  0  0  0  0
   35.7790   30.9331   40.1347 H   0  0  0  0  0  0  0  0  0  0  0  0
   36.8571   32.7394   41.3889 H   0  0  0  0  0  0  0  0  0  0  0  0
   38.4671   32.2323   40.9626 H   0  0  0  0  0  0  0  0  0  0  0  0
   36.3213   33.5586   39.2421 H   0  0  0  0  0  0  0  0  0  0  0  0
   38.0683   33.7908   39.1454 H   0  0  0  0  0  0  0  0  0  0  0  0
   38.1895   32.1508   37.5030 H   0  0  0  0  0  0  0  0  0  0  0  0
   36.4291   31.9577   37.5693 H   0  0  0  0  0  0  0  0  0  0  0  0
   38.5827   30.3089   38.9793 H   0  0  0  0  0  0  0  0  0  0  0  0
   39.2886   29.3184   43.7261 H   0  0  0  0  0  0  0  0  0  0  0  0
   37.7371   27.3142   44.0402 H   0  0  0  0  0  0  0  0  0  0  0  0
   35.7737   27.0705   42.4678 H   0  0  0  0  0  0  0  0  0  0  0  0
   38.4417   27.9462   38.0905 H   0  0  0  0  0  0  0  0  0  0  0  0
   34.4103   28.1571   36.7197 H   0  0  0  0  0  0  0  0  0  0  0  0
  1  2  1  0
  1 10  1  0
  3  2  1  0
  4  5  1  0
  4  3  1  0
  5  1  1  0
  6  7  2  0
  8  7  1  0
  9  8  2  0
 10  9  1  0
 10 11  2  0
 11  6  1  0
 12  5  1  0
 13 12  1  0
 14 13  2  0
 15 14  1  0
 15 16  2  0
 16 12  1  0
  1 17  1  6
  2 18  1  0
  2 19  1  0
  3 20  1  0
  3 21  1  0
  4 22  1  0
  4 23  1  0
  5 24  1  1
  6 25  1  0
  7 26  1  0
  8 27  1  0
 13 28  1  0
 15 29  1  0
M  ISO  8  17  13  18  13  19  13  20  13  21  13  22  13  23  13  24  13
M  ISO  5  25  14  26  14  27  14  28  14  29  14
M  END
>  <minimizedAffinity>  (1) 
-4.31235504

>  <minimizedRMSD>  (1) 
1.11298823

$$$$
