
     RDKit          3D

 29 30  0  0  1  0  0  0  0  0999 V2000
   36.8390   30.8750   40.2050 C   0  0  1  0  0  0  0  0  0  0  0  0
   37.4190   32.2060   40.5510 C   0  0  0  0  0  0  0  0  0  0  0  0
   37.2330   32.9590   39.2500 C   0  0  0  0  0  0  0  0  0  0  0  0
   37.3230   31.8960   38.1640 C   0  0  0  0  0  0  0  0  0  0  0  0
   37.4970   30.5600   38.8870 C   0  0  2  0  0  0  0  0  0  0  0  0
   38.4000   29.1820   43.0860 C   0  0  0  0  0  0  0  0  0  0  0  0
   37.5410   28.0460   43.2630 C   0  0  0  0  0  0  0  0  0  0  0  0
   36.4530   27.8840   42.3840 C   0  0  0  0  0  0  0  0  0  0  0  0
   36.2580   28.7950   41.4130 N   0  0  0  0  0  0  0  0  0  0  0  0
   37.0920   29.8700   41.2670 C   0  0  0  0  0  0  0  0  0  0  0  0
   38.1380   30.0510   42.0890 N   0  0  0  0  0  0  0  0  0  0  0  0
   36.6900   29.5770   38.0630 C   0  0  0  0  0  0  0  0  0  0  0  0
   36.7490   29.9040   36.5970 C   0  0  0  0  0  0  0  0  0  0  0  0
   35.7419   30.8691   40.1250 H   0  0  0  0  0  0  0  0  0  0  0  0
   36.8680   32.6834   41.3747 H   0  0  0  0  0  0  0  0  0  0  0  0
   38.4605   32.1655   40.9028 H   0  0  0  0  0  0  0  0  0  0  0  0
   36.2508   33.4537   39.2265 H   0  0  0  0  0  0  0  0  0  0  0  0
   37.9866   33.7494   39.1184 H   0  0  0  0  0  0  0  0  0  0  0  0
   38.1860   32.0909   37.5104 H   0  0  0  0  0  0  0  0  0  0  0  0
   36.4242   31.8942   37.5299 H   0  0  0  0  0  0  0  0  0  0  0  0
   38.5106   30.1537   39.0196 H   0  0  0  0  0  0  0  0  0  0  0  0
   39.2594   29.3414   43.7539 H   0  0  0  0  0  0  0  0  0  0  0  0
   37.7282   27.3187   44.0667 H   0  0  0  0  0  0  0  0  0  0  0  0
   35.7729   27.0259   42.4894 H   0  0  0  0  0  0  0  0  0  0  0  0
   37.0923   28.5653   38.2195 H   0  0  0  0  0  0  0  0  0  0  0  0
   35.6405   29.6370   38.3868 H   0  0  0  0  0  0  0  0  0  0  0  0
   36.9430   30.9791   36.4687 H   0  0  0  0  0  0  0  0  0  0  0  0
   37.5575   29.3266   36.1248 H   0  0  0  0  0  0  0  0  0  0  0  0
   35.7897   29.6456   36.1248 H   0  0  0  0  0  0  0  0  0  0  0  0
  1  2  1  0
  1 10  1  0
  3  2  1  0
  4  5  1  0
  4  3  1  0
  5  1  1  0
  6  7  2  0
  8  7  1  0
  9  8  2  0
 10  9  1  0
 10 11  2  0
 11  6  1  0
 12  5  1  0
 13 12  1  0
  1 14  1  6
  2 15  1  0
  2 16  1  0
  3 17  1  0
  3 18  1  0
  4 19  1  0
  4 20  1  0
  5 21  1  1
  6 22  1  0
  7 23  1  0
  8 24  1  0
 12 25  1  0
 12 26  1  0
 13 27  1  0
 13 28  1  0
 13 29  1  0
M  ISO  8  14  13  15  13  16  13  17  13  18  13  19  13  20  13  21  13
M  ISO  8  22  14  23  14  24  14  25   8  26   8  27   8  28   8  29   8
M  END
>  <minimizedAffinity>  (1) 
-4.16632032

>  <minimizedRMSD>  (1) 
0.733066738

$$$$
