
     RDKit          3D

 25 26  0  0  1  0  0  0  0  0999 V2000
   36.9200   31.0950   40.3980 C   0  0  1  0  0  0  0  0  0  0  0  0
   37.7240   32.3050   40.7140 C   0  0  0  0  0  0  0  0  0  0  0  0
   37.4760   33.1560   39.4750 C   0  0  0  0  0  0  0  0  0  0  0  0
   37.3010   32.1480   38.3540 C   0  0  0  0  0  0  0  0  0  0  0  0
   37.2820   30.7650   38.9870 C   0  0  2  0  0  0  0  0  0  0  0  0
   38.4010   29.1400   43.1460 C   0  0  0  0  0  0  0  0  0  0  0  0
   37.5400   27.9890   43.1900 C   0  0  0  0  0  0  0  0  0  0  0  0
   36.4770   27.9100   42.2690 C   0  0  0  0  0  0  0  0  0  0  0  0
   36.3100   28.9120   41.3860 N   0  0  0  0  0  0  0  0  0  0  0  0
   37.1480   29.9940   41.3690 C   0  0  0  0  0  0  0  0  0  0  0  0
   38.1660   30.1050   42.2270 N   0  0  0  0  0  0  0  0  0  0  0  0
   36.1620   30.0560   38.3970 N   0  0  0  0  0  0  0  0  0  0  0  0
   35.8372   31.2663   40.4888 H   0  0  0  0  0  0  0  0  0  0  0  0
   37.3612   32.8036   41.6249 H   0  0  0  0  0  0  0  0  0  0  0  0
   38.7858   32.1015   40.9172 H   0  0  0  0  0  0  0  0  0  0  0  0
   36.5680   33.7649   39.5963 H   0  0  0  0  0  0  0  0  0  0  0  0
   38.2967   33.8620   39.2799 H   0  0  0  0  0  0  0  0  0  0  0  0
   38.1378   32.2255   37.6443 H   0  0  0  0  0  0  0  0  0  0  0  0
   36.3677   32.3367   37.8033 H   0  0  0  0  0  0  0  0  0  0  0  0
   38.2035   30.1749   38.8749 H   0  0  0  0  0  0  0  0  0  0  0  0
   39.2403   29.2348   43.8507 H   0  0  0  0  0  0  0  0  0  0  0  0
   37.7076   27.1887   43.9259 H   0  0  0  0  0  0  0  0  0  0  0  0
   35.7964   27.0459   42.2714 H   0  0  0  0  0  0  0  0  0  0  0  0
   35.5633   29.6770   39.1446 H   0  0  0  0  0  0  0  0  0  0  0  0
   35.6140   30.7044   37.8138 H   0  0  0  0  0  0  0  0  0  0  0  0
  1  2  1  0
  1 10  1  0
  3  2  1  0
  4  5  1  0
  4  3  1  0
  5  1  1  0
  6  7  2  0
  8  7  1  0
  9  8  2  0
 10  9  1  0
 10 11  2  0
 11  6  1  0
 12  5  1  0
  1 13  1  6
  2 14  1  0
  2 15  1  0
  3 16  1  0
  3 17  1  0
  4 18  1  0
  4 19  1  0
  5 20  1  1
  6 21  1  0
  7 22  1  0
  8 23  1  0
 12 24  1  0
 12 25  1  0
M  ISO  8  13  13  14  13  15  13  16  13  17  13  18  13  19  13  20  13
M  ISO  5  21  14  22  14  23  14  24   5  25   5
M  END
>  <minimizedAffinity>  (1) 
-3.98254848

>  <minimizedRMSD>  (1) 
0.370365679

$$$$
