
     RDKit          3D

 24 25  0  0  1  0  0  0  0  0999 V2000
   36.8780   30.8060   40.2410 C   0  0  1  0  0  0  0  0  0  0  0  0
   37.4090   32.1580   40.5520 C   0  0  0  0  0  0  0  0  0  0  0  0
   37.2040   32.8630   39.2140 C   0  0  0  0  0  0  0  0  0  0  0  0
   37.3680   31.7730   38.1750 C   0  0  0  0  0  0  0  0  0  0  0  0
   37.5010   30.4570   38.9250 C   0  0  2  0  0  0  0  0  0  0  0  0
   38.5100   29.1680   43.1170 C   0  0  0  0  0  0  0  0  0  0  0  0
   37.6390   28.0500   43.3470 C   0  0  0  0  0  0  0  0  0  0  0  0
   36.5220   27.8810   42.5090 C   0  0  0  0  0  0  0  0  0  0  0  0
   36.3080   28.7680   41.5260 N   0  0  0  0  0  0  0  0  0  0  0  0
   37.1560   29.8300   41.3260 C   0  0  0  0  0  0  0  0  0  0  0  0
   38.2330   30.0190   42.1090 N   0  0  0  0  0  0  0  0  0  0  0  0
   36.4050   29.2850   38.0760 S   0  0  0  0  0  0  0  0  0  0  0  0
   35.7804   30.7830   40.1716 H   0  0  0  0  0  0  0  0  0  0  0  0
   36.8360   32.6424   41.3564 H   0  0  0  0  0  0  0  0  0  0  0  0
   38.4471   32.1661   40.9157 H   0  0  0  0  0  0  0  0  0  0  0  0
   36.1977   33.3038   39.1581 H   0  0  0  0  0  0  0  0  0  0  0  0
   37.9151   33.6890   39.0659 H   0  0  0  0  0  0  0  0  0  0  0  0
   38.2704   31.9575   37.5737 H   0  0  0  0  0  0  0  0  0  0  0  0
   36.5055   31.7494   37.4927 H   0  0  0  0  0  0  0  0  0  0  0  0
   38.5167   30.0415   39.0002 H   0  0  0  0  0  0  0  0  0  0  0  0
   39.3917   29.3280   43.7550 H   0  0  0  0  0  0  0  0  0  0  0  0
   37.8412   27.3398   44.1623 H   0  0  0  0  0  0  0  0  0  0  0  0
   35.8350   27.0349   42.6575 H   0  0  0  0  0  0  0  0  0  0  0  0
   35.7167   28.5490   39.0041 H   0  0  0  0  0  0  0  0  0  0  0  0
  1  2  1  0
  1 10  1  0
  3  2  1  0
  4  5  1  0
  4  3  1  0
  5  1  1  0
  6  7  2  0
  8  7  1  0
  9  8  2  0
 10  9  1  0
 10 11  2  0
 11  6  1  0
 12  5  1  0
  1 13  1  6
  2 14  1  0
  2 15  1  0
  3 16  1  0
  3 17  1  0
  4 18  1  0
  4 19  1  0
  5 20  1  1
  6 21  1  0
  7 22  1  0
  8 23  1  0
 12 24  1  0
M  ISO  8  13  13  14  13  15  13  16  13  17  13  18  13  19  13  20  13
M  ISO  4  21  14  22  14  23  14  24  11
M  END
>  <minimizedAffinity>  (1) 
-3.95874047

>  <minimizedRMSD>  (1) 
0.724117756

$$$$
