
     RDKit          3D

 44 48  0  0  1  0  0  0  0  0999 V2000
   37.8440   31.5150   40.8120 C   0  0  1  0  0  0  0  0  0  0  0  0
   38.5310   32.8160   40.7920 C   0  0  0  0  0  0  0  0  0  0  0  0
   37.7140   33.5730   39.7450 C   0  0  0  0  0  0  0  0  0  0  0  0
   37.1170   32.5100   38.8440 C   0  0  0  0  0  0  0  0  0  0  0  0
   37.6740   31.1910   39.3360 C   0  0  2  0  0  0  0  0  0  0  0  0
   40.6640   29.4730   42.0490 C   0  0  0  0  0  0  0  0  0  0  0  0
   40.0050   28.5990   42.9930 C   0  0  0  0  0  0  0  0  0  0  0  0
   38.6060   28.7360   43.1640 C   0  0  0  0  0  0  0  0  0  0  0  0
   37.9140   29.6730   42.4510 N   0  0  0  0  0  0  0  0  0  0  0  0
   38.6080   30.4750   41.5680 C   0  0  0  0  0  0  0  0  0  0  0  0
   39.9480   30.3880   41.3620 N   0  0  0  0  0  0  0  0  0  0  0  0
   36.7890   30.0680   39.0970 C   0  0  0  0  0  0  0  0  0  0  0  0
   35.4590   29.7460   39.0380 C   0  0  0  0  0  0  0  0  0  0  0  0
   35.0490   28.4950   38.7820 C   0  0  0  0  0  0  0  0  0  0  0  0
   35.9830   27.5040   38.5710 C   0  0  0  0  0  0  0  0  0  0  0  0
   37.5690   28.4390   38.7560 S   0  0  0  0  0  0  0  0  0  0  0  0
   36.0590   26.0940   38.3310 C   0  0  0  0  0  0  0  0  0  0  0  0
   35.7070   25.6400   37.0920 N   0  0  0  0  0  0  0  0  0  0  0  0
   35.8290   24.3620   36.7150 C   0  0  0  0  0  0  0  0  0  0  0  0
   36.3100   23.4340   37.5430 N   0  0  0  0  0  0  0  0  0  0  0  0
   36.6890   23.7790   38.8040 C   0  0  0  0  0  0  0  0  0  0  0  0
   37.1610   22.8380   39.6880 C   0  0  0  0  0  0  0  0  0  0  0  0
   37.5100   23.1890   40.9720 C   0  0  0  0  0  0  0  0  0  0  0  0
   37.3520   24.5380   41.2980 C   0  0  0  0  0  0  0  0  0  0  0  0
   36.8750   25.4450   40.3790 C   0  0  0  0  0  0  0  0  0  0  0  0
   36.5330   25.1090   39.1140 C   0  0  0  0  0  0  0  0  0  0  0  0
   36.8816   31.5419   41.3441 H   0  0  0  0  0  0  0  0  0  0  0  0
   38.4843   33.3107   41.7734 H   0  0  0  0  0  0  0  0  0  0  0  0
   39.6054   32.7535   40.5647 H   0  0  0  0  0  0  0  0  0  0  0  0
   36.9175   34.1573   40.2289 H   0  0  0  0  0  0  0  0  0  0  0  0
   38.3361   34.2823   39.1794 H   0  0  0  0  0  0  0  0  0  0  0  0
   37.4120   32.6842   37.7987 H   0  0  0  0  0  0  0  0  0  0  0  0
   36.0176   32.5224   38.8770 H   0  0  0  0  0  0  0  0  0  0  0  0
   38.5921   30.8630   38.8266 H   0  0  0  0  0  0  0  0  0  0  0  0
   41.7495   29.3924   41.8904 H   0  0  0  0  0  0  0  0  0  0  0  0
   40.5739   27.8490   43.5622 H   0  0  0  0  0  0  0  0  0  0  0  0
   38.0745   28.0852   43.8739 H   0  0  0  0  0  0  0  0  0  0  0  0
   34.7087   30.5329   39.2047 H   0  0  0  0  0  0  0  0  0  0  0  0
   33.9748   28.2617   38.7408 H   0  0  0  0  0  0  0  0  0  0  0  0
   35.5256   24.0702   35.6987 H   0  0  0  0  0  0  0  0  0  0  0  0
   37.2610   21.7913   39.3649 H   0  0  0  0  0  0  0  0  0  0  0  0
   37.8896   22.4533   41.6963 H   0  0  0  0  0  0  0  0  0  0  0  0
   37.6140   24.8824   42.3093 H   0  0  0  0  0  0  0  0  0  0  0  0
   36.7665   26.4950   40.6885 H   0  0  0  0  0  0  0  0  0  0  0  0
  1 10  1  0
  2  1  1  0
  3  2  1  0
  4  5  1  0
  4  3  1  0
  5  1  1  0
  6  7  2  0
  7  8  1  0
  9  8  2  0
 10  9  1  0
 11 10  2  0
 11  6  1  0
 12  5  1  0
 13 12  2  0
 14 13  1  0
 15 16  1  0
 15 14  2  0
 16 12  1  0
 17 15  1  0
 17 26  1  0
 18 17  2  0
 19 18  1  0
 19 20  2  0
 20 21  1  0
 21 26  2  0
 21 22  1  0
 22 23  2  0
 23 24  1  0
 25 24  2  0
 26 25  1  0
  1 27  1  1
  2 28  1  0
  2 29  1  0
  3 30  1  0
  3 31  1  0
  4 32  1  0
  4 33  1  0
  5 34  1  6
  6 35  1  0
  7 36  1  0
  8 37  1  0
 13 38  1  0
 14 39  1  0
 19 40  1  0
 22 41  1  0
 23 42  1  0
 24 43  1  0
 25 44  1  0
M  ISO  8  27  13  28  13  29  13  30  13  31  13  32  13  33  13  34  13
M  ISO  8  35  14  36  14  37  14  38  14  39  14  40  14  41  14  42  14
M  ISO  2  43  14  44  14
M  END
>  <minimizedAffinity>  (1) 
-5.67927122

>  <minimizedRMSD>  (1) 
1.71106839

$$$$
