
     RDKit          3D

 43 47  0  0  1  0  0  0  0  0999 V2000
   36.9000   30.8780   40.4380 C   0  0  1  0  0  0  0  0  0  0  0  0
   37.6670   32.1310   40.5350 C   0  0  0  0  0  0  0  0  0  0  0  0
   37.3580   32.7860   39.1910 C   0  0  0  0  0  0  0  0  0  0  0  0
   37.0000   31.6560   38.2500 C   0  0  0  0  0  0  0  0  0  0  0  0
   37.2360   30.3870   39.0350 C   0  0  2  0  0  0  0  0  0  0  0  0
   38.7770   29.2050   43.1420 C   0  0  0  0  0  0  0  0  0  0  0  0
   37.8730   28.1420   43.5190 C   0  0  0  0  0  0  0  0  0  0  0  0
   36.6450   28.0310   42.8160 C   0  0  0  0  0  0  0  0  0  0  0  0
   36.3470   28.9100   41.8220 N   0  0  0  0  0  0  0  0  0  0  0  0
   37.2440   29.8960   41.5110 C   0  0  0  0  0  0  0  0  0  0  0  0
   38.4350   30.0520   42.1480 N   0  0  0  0  0  0  0  0  0  0  0  0
   36.4140   29.2730   38.6010 C   0  0  0  0  0  0  0  0  0  0  0  0
   35.1180   29.0270   38.1780 C   0  0  0  0  0  0  0  0  0  0  0  0
   34.7380   27.7730   37.8580 C   0  0  0  0  0  0  0  0  0  0  0  0
   35.6560   26.7350   37.9550 C   0  0  0  0  0  0  0  0  0  0  0  0
   37.2020   27.6080   38.5560 S   0  0  0  0  0  0  0  0  0  0  0  0
   35.4560   25.3840   37.6720 N   0  0  0  0  0  0  0  0  0  0  0  0
   34.7450   24.9920   36.5900 C   0  0  0  0  0  0  0  0  0  0  0  0
   34.6710   23.6580   36.4990 N   0  0  0  0  0  0  0  0  0  0  0  0
   35.3430   23.1790   37.5360 C   0  0  0  0  0  0  0  0  0  0  0  0
   35.6390   21.9200   38.0110 C   0  0  0  0  0  0  0  0  0  0  0  0
   36.3610   21.7180   39.1220 N   0  0  0  0  0  0  0  0  0  0  0  0
   36.8120   22.8140   39.7940 C   0  0  0  0  0  0  0  0  0  0  0  0
   36.5570   24.0880   39.3800 N   0  0  0  0  0  0  0  0  0  0  0  0
   35.8260   24.2300   38.2580 C   0  0  0  0  0  0  0  0  0  0  0  0
   35.1530   20.7940   37.2840 N   0  0  0  0  0  0  0  0  0  0  0  0
   35.8199   31.0205   40.5901 H   0  0  0  0  0  0  0  0  0  0  0  0
   37.3176   32.7514   41.3735 H   0  0  0  0  0  0  0  0  0  0  0  0
   38.7406   31.9845   40.7247 H   0  0  0  0  0  0  0  0  0  0  0  0
   36.5128   33.4830   39.2906 H   0  0  0  0  0  0  0  0  0  0  0  0
   38.2155   33.3652   38.8179 H   0  0  0  0  0  0  0  0  0  0  0  0
   37.6423   31.6809   37.3574 H   0  0  0  0  0  0  0  0  0  0  0  0
   35.9603   31.7312   37.8988 H   0  0  0  0  0  0  0  0  0  0  0  0
   38.2459   29.9648   38.9259 H   0  0  0  0  0  0  0  0  0  0  0  0
   39.7388   29.3232   43.6625 H   0  0  0  0  0  0  0  0  0  0  0  0
   38.1290   27.4402   44.3264 H   0  0  0  0  0  0  0  0  0  0  0  0
   35.9336   27.2332   43.0754 H   0  0  0  0  0  0  0  0  0  0  0  0
   34.3980   29.8552   38.1030 H   0  0  0  0  0  0  0  0  0  0  0  0
   33.7094   27.5739   37.5229 H   0  0  0  0  0  0  0  0  0  0  0  0
   34.2833   25.6854   35.8716 H   0  0  0  0  0  0  0  0  0  0  0  0
   37.4060   22.6651   40.7078 H   0  0  0  0  0  0  0  0  0  0  0  0
   35.3580   19.8402   37.6143 H   0  0  0  0  0  0  0  0  0  0  0  0
   34.5969   20.9343   36.4285 H   0  0  0  0  0  0  0  0  0  0  0  0
  1  2  1  0
  1 10  1  0
  3  2  1  0
  4  5  1  0
  4  3  1  0
  5  1  1  0
  6  7  2  0
  8  7  1  0
  9  8  2  0
 10  9  1  0
 10 11  2  0
 11  6  1  0
 12  5  1  0
 13 12  2  0
 14 15  2  0
 14 13  1  0
 15 16  1  0
 16 12  1  0
 17 15  1  0
 17 25  1  0
 18 17  1  0
 19 18  2  0
 19 20  1  0
 20 21  2  0
 20 25  1  0
 21 22  1  0
 22 23  2  0
 24 23  1  0
 25 24  2  0
 26 21  1  0
  1 27  1  6
  2 28  1  0
  2 29  1  0
  3 30  1  0
  3 31  1  0
  4 32  1  0
  4 33  1  0
  5 34  1  1
  6 35  1  0
  7 36  1  0
  8 37  1  0
 13 38  1  0
 14 39  1  0
 18 40  1  0
 23 41  1  0
 26 42  1  0
 26 43  1  0
M  ISO  8  27  13  28  13  29  13  30  13  31  13  32  13  33  13  34  13
M  ISO  7  35  14  36  14  37  14  38  14  39  14  40  14  41  14
M  END
>  <minimizedAffinity>  (1) 
-5.17849731

>  <minimizedRMSD>  (1) 
1.25797904

$$$$
