
     RDKit          3D

 40 43  0  0  1  0  0  0  0  0999 V2000
   36.9480   30.9000   40.4440 C   0  0  1  0  0  0  0  0  0  0  0  0
   37.7550   32.1260   40.5600 C   0  0  0  0  0  0  0  0  0  0  0  0
   37.4840   32.8040   39.2280 C   0  0  0  0  0  0  0  0  0  0  0  0
   37.0480   31.7080   38.2700 C   0  0  0  0  0  0  0  0  0  0  0  0
   37.2550   30.4150   39.0310 C   0  0  2  0  0  0  0  0  0  0  0  0
   38.7800   29.1300   43.1220 C   0  0  0  0  0  0  0  0  0  0  0  0
   37.8460   28.0840   43.4720 C   0  0  0  0  0  0  0  0  0  0  0  0
   36.6160   28.0130   42.7680 C   0  0  0  0  0  0  0  0  0  0  0  0
   36.3470   28.9220   41.7900 N   0  0  0  0  0  0  0  0  0  0  0  0
   37.2640   29.8890   41.5000 C   0  0  0  0  0  0  0  0  0  0  0  0
   38.4560   30.0000   42.1440 N   0  0  0  0  0  0  0  0  0  0  0  0
   36.3780   29.3450   38.5920 C   0  0  0  0  0  0  0  0  0  0  0  0
   35.0730   29.1580   38.1810 C   0  0  0  0  0  0  0  0  0  0  0  0
   34.6260   27.9310   37.8410 C   0  0  0  0  0  0  0  0  0  0  0  0
   35.5190   26.8640   37.9180 C   0  0  0  0  0  0  0  0  0  0  0  0
   37.0940   27.6490   38.5090 S   0  0  0  0  0  0  0  0  0  0  0  0
   35.3030   25.5200   37.6250 N   0  0  0  0  0  0  0  0  0  0  0  0
   36.2840   24.6980   37.9490 C   0  0  0  0  0  0  0  0  0  0  0  0
   36.1740   23.3260   37.7000 C   0  0  0  0  0  0  0  0  0  0  0  0
   34.9950   22.8880   37.1050 C   0  0  0  0  0  0  0  0  0  0  0  0
   34.8430   21.6450   36.8550 O   0  0  0  0  0  0  0  0  0  0  0  0
   34.0230   23.7940   36.7970 N   0  0  0  0  0  0  0  0  0  0  0  0
   34.1580   25.1080   37.0490 C   0  0  0  0  0  0  0  0  0  0  0  0
   33.2520   25.9460   36.7610 O   0  0  0  0  0  0  0  0  0  0  0  0
   35.8745   31.0802   40.6023 H   0  0  0  0  0  0  0  0  0  0  0  0
   37.4186   32.7487   41.4021 H   0  0  0  0  0  0  0  0  0  0  0  0
   38.8213   31.9404   40.7564 H   0  0  0  0  0  0  0  0  0  0  0  0
   36.6860   33.5531   39.3377 H   0  0  0  0  0  0  0  0  0  0  0  0
   38.3783   33.3258   38.8567 H   0  0  0  0  0  0  0  0  0  0  0  0
   37.6646   31.7232   37.3592 H   0  0  0  0  0  0  0  0  0  0  0  0
   36.0042   31.8339   37.9466 H   0  0  0  0  0  0  0  0  0  0  0  0
   38.2471   29.9574   38.9030 H   0  0  0  0  0  0  0  0  0  0  0  0
   39.7430   29.2153   43.6468 H   0  0  0  0  0  0  0  0  0  0  0  0
   38.0831   27.3600   44.2655 H   0  0  0  0  0  0  0  0  0  0  0  0
   35.8841   27.2285   43.0107 H   0  0  0  0  0  0  0  0  0  0  0  0
   34.3902   30.0189   38.1302 H   0  0  0  0  0  0  0  0  0  0  0  0
   33.5874   27.7776   37.5128 H   0  0  0  0  0  0  0  0  0  0  0  0
   37.1957   25.0955   38.4188 H   0  0  0  0  0  0  0  0  0  0  0  0
   36.9814   22.6264   37.9622 H   0  0  0  0  0  0  0  0  0  0  0  0
   33.1545   23.4597   36.3556 H   0  0  0  0  0  0  0  0  0  0  0  0
  1  2  1  0
  1 10  1  0
  3  2  1  0
  4  5  1  0
  4  3  1  0
  5  1  1  0
  6  7  2  0
  8  7  1  0
  9  8  2  0
 10  9  1  0
 10 11  2  0
 11  6  1  0
 12  5  1  0
 13 12  2  0
 14 15  2  0
 14 13  1  0
 15 16  1  0
 16 12  1  0
 17 15  1  0
 17 18  1  0
 19 18  2  0
 20 19  1  0
 21 20  2  0
 22 23  1  0
 22 20  1  0
 23 17  1  0
 24 23  2  0
  1 25  1  6
  2 26  1  0
  2 27  1  0
  3 28  1  0
  3 29  1  0
  4 30  1  0
  4 31  1  0
  5 32  1  1
  6 33  1  0
  7 34  1  0
  8 35  1  0
 13 36  1  0
 14 37  1  0
 18 38  1  0
 19 39  1  0
 22 40  1  0
M  ISO  8  25  13  26  13  27  13  28  13  29  13  30  13  31  13  32  13
M  ISO  8  33  14  34  14  35  14  36  14  37  14  38  14  39  14  40   9
M  END
>  <minimizedAffinity>  (1) 
-4.94952393

>  <minimizedRMSD>  (1) 
0.886659265

$$$$
