
     RDKit          3D

 43 46  0  0  1  0  0  0  0  0999 V2000
   36.8940   30.7530   40.5530 C   0  0  1  0  0  0  0  0  0  0  0  0
   37.7070   31.9700   40.7210 C   0  0  0  0  0  0  0  0  0  0  0  0
   37.4250   32.7170   39.4170 C   0  0  0  0  0  0  0  0  0  0  0  0
   37.0200   31.6570   38.4120 C   0  0  0  0  0  0  0  0  0  0  0  0
   37.2120   30.3380   39.1240 C   0  0  2  0  0  0  0  0  0  0  0  0
   38.6880   28.8570   43.1590 C   0  0  0  0  0  0  0  0  0  0  0  0
   37.7610   27.8000   43.4610 C   0  0  0  0  0  0  0  0  0  0  0  0
   36.5460   27.7680   42.7450 C   0  0  0  0  0  0  0  0  0  0  0  0
   36.2880   28.7150   41.8120 N   0  0  0  0  0  0  0  0  0  0  0  0
   37.2080   29.6990   41.5660 C   0  0  0  0  0  0  0  0  0  0  0  0
   38.3920   29.7800   42.2180 N   0  0  0  0  0  0  0  0  0  0  0  0
   36.3420   29.2840   38.6240 C   0  0  0  0  0  0  0  0  0  0  0  0
   35.0160   29.1170   38.2290 C   0  0  0  0  0  0  0  0  0  0  0  0
   34.5900   27.8990   37.8240 C   0  0  0  0  0  0  0  0  0  0  0  0
   35.4820   26.8360   37.8060 C   0  0  0  0  0  0  0  0  0  0  0  0
   37.0790   27.6070   38.4200 S   0  0  0  0  0  0  0  0  0  0  0  0
   35.3010   25.5450   37.4480 N   0  0  0  0  0  0  0  0  0  0  0  0
   33.9980   24.9740   37.1780 C   0  0  0  0  0  0  0  0  0  0  0  0
   34.0190   23.6070   37.8800 C   0  0  0  0  0  0  0  0  0  0  0  0
   34.9410   23.6280   38.9240 O   0  0  0  0  0  0  0  0  0  0  0  0
   36.2500   23.6580   38.5080 C   0  0  0  0  0  0  0  0  0  0  0  0
   36.3900   24.5950   37.3000 C   0  0  0  0  0  0  0  0  0  0  0  0
   35.8192   30.9208   40.7164 H   0  0  0  0  0  0  0  0  0  0  0  0
   37.3802   32.5525   41.5950 H   0  0  0  0  0  0  0  0  0  0  0  0
   38.7742   31.7717   40.8990 H   0  0  0  0  0  0  0  0  0  0  0  0
   36.6094   33.4412   39.5593 H   0  0  0  0  0  0  0  0  0  0  0  0
   38.3050   33.2823   39.0762 H   0  0  0  0  0  0  0  0  0  0  0  0
   37.6593   31.7091   37.5184 H   0  0  0  0  0  0  0  0  0  0  0  0
   35.9832   31.7912   38.0699 H   0  0  0  0  0  0  0  0  0  0  0  0
   38.2074   29.8889   38.9914 H   0  0  0  0  0  0  0  0  0  0  0  0
   39.6451   28.9144   43.6981 H   0  0  0  0  0  0  0  0  0  0  0  0
   37.9915   27.0422   44.2243 H   0  0  0  0  0  0  0  0  0  0  0  0
   35.8096   26.9754   42.9441 H   0  0  0  0  0  0  0  0  0  0  0  0
   34.3211   29.9695   38.2465 H   0  0  0  0  0  0  0  0  0  0  0  0
   33.5456   27.7522   37.5116 H   0  0  0  0  0  0  0  0  0  0  0  0
   33.2020   25.6106   37.5918 H   0  0  0  0  0  0  0  0  0  0  0  0
   33.7972   24.8857   36.1001 H   0  0  0  0  0  0  0  0  0  0  0  0
   33.0185   23.3865   38.2805 H   0  0  0  0  0  0  0  0  0  0  0  0
   34.3071   22.8307   37.1559 H   0  0  0  0  0  0  0  0  0  0  0  0
   36.8857   24.0223   39.3284 H   0  0  0  0  0  0  0  0  0  0  0  0
   36.5628   22.6437   38.2193 H   0  0  0  0  0  0  0  0  0  0  0  0
   36.2911   24.0337   36.3591 H   0  0  0  0  0  0  0  0  0  0  0  0
   37.3728   25.0877   37.2647 H   0  0  0  0  0  0  0  0  0  0  0  0
  1  2  1  0
  1 10  1  0
  3  2  1  0
  4  5  1  0
  4  3  1  0
  5  1  1  0
  6  7  2  0
  8  7  1  0
  9  8  2  0
 10  9  1  0
 10 11  2  0
 11  6  1  0
 12  5  1  0
 13 12  2  0
 14 13  1  0
 15 14  2  0
 15 16  1  0
 16 12  1  0
 17 15  1  0
 18 17  1  0
 18 19  1  0
 19 20  1  0
 21 20  1  0
 22 17  1  0
 22 21  1  0
  1 23  1  6
  2 24  1  0
  2 25  1  0
  3 26  1  0
  3 27  1  0
  4 28  1  0
  4 29  1  0
  5 30  1  1
  6 31  1  0
  7 32  1  0
  8 33  1  0
 13 34  1  0
 14 35  1  0
 18 36  1  0
 18 37  1  0
 19 38  1  0
 19 39  1  0
 21 40  1  0
 21 41  1  0
 22 42  1  0
 22 43  1  0
M  ISO  8  23  13  24  13  25  13  26  13  27  13  28  13  29  13  30  13
M  ISO  8  31  14  32  14  33  14  34  14  35  14  36  13  37  13  38  13
M  ISO  5  39  13  40  13  41  13  42  13  43  13
M  END
>  <minimizedAffinity>  (1) 
-4.9164257

>  <minimizedRMSD>  (1) 
0.690248013

$$$$
