
     RDKit          3D

 38 41  0  0  1  0  0  0  0  0999 V2000
   36.8730   30.8670   40.4120 C   0  0  1  0  0  0  0  0  0  0  0  0
   37.6780   32.0910   40.5560 C   0  0  0  0  0  0  0  0  0  0  0  0
   37.4210   32.7880   39.2270 C   0  0  0  0  0  0  0  0  0  0  0  0
   37.0470   31.6950   38.2460 C   0  0  0  0  0  0  0  0  0  0  0  0
   37.2090   30.3950   39.0030 C   0  0  2  0  0  0  0  0  0  0  0  0
   38.6000   29.1070   43.1620 C   0  0  0  0  0  0  0  0  0  0  0  0
   37.6920   28.0160   43.4330 C   0  0  0  0  0  0  0  0  0  0  0  0
   36.5140   27.9160   42.6470 C   0  0  0  0  0  0  0  0  0  0  0  0
   36.2700   28.8340   41.6750 N   0  0  0  0  0  0  0  0  0  0  0  0
   37.1650   29.8460   41.4630 C   0  0  0  0  0  0  0  0  0  0  0  0
   38.3090   29.9890   42.1840 N   0  0  0  0  0  0  0  0  0  0  0  0
   36.3320   29.3350   38.5340 C   0  0  0  0  0  0  0  0  0  0  0  0
   35.0190   29.1530   38.1500 C   0  0  0  0  0  0  0  0  0  0  0  0
   34.5930   27.9320   37.7620 C   0  0  0  0  0  0  0  0  0  0  0  0
   35.4960   26.8750   37.7580 C   0  0  0  0  0  0  0  0  0  0  0  0
   37.0720   27.6580   38.3480 S   0  0  0  0  0  0  0  0  0  0  0  0
   35.3080   25.5260   37.4030 C   0  0  0  0  0  0  0  0  0  0  0  0
   34.0460   25.0210   37.1600 C   0  0  0  0  0  0  0  0  0  0  0  0
   33.9490   23.6900   36.8180 C   0  0  0  0  0  0  0  0  0  0  0  0
   35.0230   22.8860   36.7150 N   0  0  0  0  0  0  0  0  0  0  0  0
   36.2380   23.4050   36.9580 C   0  0  0  0  0  0  0  0  0  0  0  0
   36.3820   24.7170   37.3000 N   0  0  0  0  0  0  0  0  0  0  0  0
   35.7968   31.0477   40.5502 H   0  0  0  0  0  0  0  0  0  0  0  0
   37.3312   32.7017   41.4026 H   0  0  0  0  0  0  0  0  0  0  0  0
   38.7419   31.9037   40.7635 H   0  0  0  0  0  0  0  0  0  0  0  0
   36.5969   33.5097   39.3272 H   0  0  0  0  0  0  0  0  0  0  0  0
   38.3056   33.3472   38.8883 H   0  0  0  0  0  0  0  0  0  0  0  0
   37.7163   31.7170   37.3733 H   0  0  0  0  0  0  0  0  0  0  0  0
   36.0215   31.8208   37.8685 H   0  0  0  0  0  0  0  0  0  0  0  0
   38.1988   29.9275   38.8947 H   0  0  0  0  0  0  0  0  0  0  0  0
   39.5231   29.2175   43.7499 H   0  0  0  0  0  0  0  0  0  0  0  0
   37.9073   27.2841   44.2254 H   0  0  0  0  0  0  0  0  0  0  0  0
   35.8006   27.0977   42.8242 H   0  0  0  0  0  0  0  0  0  0  0  0
   34.3199   30.0022   38.1600 H   0  0  0  0  0  0  0  0  0  0  0  0
   33.5485   27.7761   37.4541 H   0  0  0  0  0  0  0  0  0  0  0  0
   33.1520   25.6573   37.2366 H   0  0  0  0  0  0  0  0  0  0  0  0
   32.9528   23.2672   36.6211 H   0  0  0  0  0  0  0  0  0  0  0  0
   37.1280   22.7633   36.8801 H   0  0  0  0  0  0  0  0  0  0  0  0
  1  2  1  0
  1 10  1  0
  3  2  1  0
  4  5  1  0
  4  3  1  0
  5  1  1  0
  6  7  2  0
  8  7  1  0
  9  8  2  0
 10  9  1  0
 10 11  2  0
 11  6  1  0
 12  5  1  0
 13 12  2  0
 14 13  1  0
 15 14  2  0
 15 16  1  0
 16 12  1  0
 17 15  1  0
 18 17  2  0
 19 18  1  0
 20 19  2  0
 20 21  1  0
 21 22  2  0
 22 17  1  0
  1 23  1  6
  2 24  1  0
  2 25  1  0
  3 26  1  0
  3 27  1  0
  4 28  1  0
  4 29  1  0
  5 30  1  1
  6 31  1  0
  7 32  1  0
  8 33  1  0
 13 34  1  0
 14 35  1  0
 18 36  1  0
 19 37  1  0
 21 38  1  0
M  ISO  8  23  13  24  13  25  13  26  13  27  13  28  13  29  13  30  13
M  ISO  8  31  14  32  14  33  14  34  14  35  14  36  14  37  14  38  14
M  END
>  <minimizedAffinity>  (1) 
-4.84761047

>  <minimizedRMSD>  (1) 
0.725691557

$$$$
