
     RDKit          3D

 37 39  0  0  1  0  0  0  0  0999 V2000
   36.9470   30.9600   40.5060 C   0  0  1  0  0  0  0  0  0  0  0  0
   37.7590   32.1580   40.7620 C   0  0  0  0  0  0  0  0  0  0  0  0
   37.5550   32.9580   39.4790 C   0  0  0  0  0  0  0  0  0  0  0  0
   37.1550   31.9510   38.4190 C   0  0  0  0  0  0  0  0  0  0  0  0
   37.3080   30.5980   39.0710 C   0  0  2  0  0  0  0  0  0  0  0  0
   38.5970   28.9650   43.1400 C   0  0  0  0  0  0  0  0  0  0  0  0
   37.6640   27.8750   43.3140 C   0  0  0  0  0  0  0  0  0  0  0  0
   36.4960   27.8570   42.5050 C   0  0  0  0  0  0  0  0  0  0  0  0
   36.2840   28.8510   41.6010 N   0  0  0  0  0  0  0  0  0  0  0  0
   37.2030   29.8560   41.4820 C   0  0  0  0  0  0  0  0  0  0  0  0
   38.3380   29.9230   42.2280 N   0  0  0  0  0  0  0  0  0  0  0  0
   36.4340   29.5870   38.5000 C   0  0  0  0  0  0  0  0  0  0  0  0
   35.1250   29.4180   38.1090 C   0  0  0  0  0  0  0  0  0  0  0  0
   34.6970   28.2460   37.6070 C   0  0  0  0  0  0  0  0  0  0  0  0
   35.5920   27.2000   37.4860 C   0  0  0  0  0  0  0  0  0  0  0  0
   37.1660   27.9370   38.1360 S   0  0  0  0  0  0  0  0  0  0  0  0
   35.5610   25.8570   37.0250 N   0  0  0  0  0  0  0  0  0  0  0  0
   34.3890   25.1220   37.1860 C   0  0  0  0  0  0  0  0  0  0  0  0
   33.2530   25.7720   37.1080 N   0  0  0  0  0  0  0  0  0  0  0  0
   34.4600   23.6990   37.4250 N   0  0  0  0  0  0  0  0  0  0  0  0
   32.3310   25.3320   37.2100 H   0  0  0  0  0  0  0  0  0  0  0  0
   35.8696   31.1402   40.6353 H   0  0  0  0  0  0  0  0  0  0  0  0
   37.3919   32.7098   41.6399 H   0  0  0  0  0  0  0  0  0  0  0  0
   38.8136   31.9400   40.9864 H   0  0  0  0  0  0  0  0  0  0  0  0
   36.7592   33.7049   39.6165 H   0  0  0  0  0  0  0  0  0  0  0  0
   38.4672   33.5027   39.1940 H   0  0  0  0  0  0  0  0  0  0  0  0
   37.8149   32.0324   37.5427 H   0  0  0  0  0  0  0  0  0  0  0  0
   36.1279   32.1190   38.0630 H   0  0  0  0  0  0  0  0  0  0  0  0
   38.2986   30.1361   38.9474 H   0  0  0  0  0  0  0  0  0  0  0  0
   39.5125   29.0124   43.7479 H   0  0  0  0  0  0  0  0  0  0  0  0
   37.8528   27.0815   44.0521 H   0  0  0  0  0  0  0  0  0  0  0  0
   35.7653   27.0415   42.6095 H   0  0  0  0  0  0  0  0  0  0  0  0
   34.4179   30.2547   38.2087 H   0  0  0  0  0  0  0  0  0  0  0  0
   33.6489   28.1217   37.2970 H   0  0  0  0  0  0  0  0  0  0  0  0
   36.3888   25.4350   36.5805 H   0  0  0  0  0  0  0  0  0  0  0  0
   33.5948   23.1530   37.5444 H   0  0  0  0  0  0  0  0  0  0  0  0
   35.3758   23.2304   37.4760 H   0  0  0  0  0  0  0  0  0  0  0  0
  1  2  1  0
  1 10  1  0
  3  2  1  0
  4  5  1  0
  4  3  1  0
  5  1  1  0
  6  7  2  0
  8  7  1  0
  9  8  2  0
 10  9  1  0
 10 11  2  0
 11  6  1  0
 12  5  1  0
 13 12  2  0
 14 13  1  0
 15 14  2  0
 15 16  1  0
 16 12  1  0
 17 18  1  0
 17 15  1  0
 18 20  1  0
 19 18  2  0
 19 21  1  0
  1 22  1  6
  2 23  1  0
  2 24  1  0
  3 25  1  0
  3 26  1  0
  4 27  1  0
  4 28  1  0
  5 29  1  1
  6 30  1  0
  7 31  1  0
  8 32  1  0
 13 33  1  0
 14 34  1  0
 17 35  1  0
 20 36  1  0
 20 37  1  0
M  ISO  8  22  13  23  13  24  13  25  13  26  13  27  13  28  13  29  13
M  ISO  5  30  14  31  14  32  14  33  14  34  14
M  END
>  <minimizedAffinity>  (1) 
-4.82154417

>  <minimizedRMSD>  (1) 
0.394880444

$$$$
