
     RDKit          3D

 37 40  0  0  1  0  0  0  0  0999 V2000
   36.8970   30.7470   40.5370 C   0  0  1  0  0  0  0  0  0  0  0  0
   37.7100   31.9630   40.6950 C   0  0  0  0  0  0  0  0  0  0  0  0
   37.4510   32.6910   39.3780 C   0  0  0  0  0  0  0  0  0  0  0  0
   37.0300   31.6250   38.3850 C   0  0  0  0  0  0  0  0  0  0  0  0
   37.2050   30.3140   39.1070 C   0  0  2  0  0  0  0  0  0  0  0  0
   38.7220   28.8580   43.1370 C   0  0  0  0  0  0  0  0  0  0  0  0
   37.7740   27.8150   43.4610 C   0  0  0  0  0  0  0  0  0  0  0  0
   36.5370   27.7910   42.7640 C   0  0  0  0  0  0  0  0  0  0  0  0
   36.2710   28.7340   41.8180 N   0  0  0  0  0  0  0  0  0  0  0  0
   37.2090   29.6970   41.5550 C   0  0  0  0  0  0  0  0  0  0  0  0
   38.4080   29.7670   42.1910 N   0  0  0  0  0  0  0  0  0  0  0  0
   36.3260   29.2620   38.6240 C   0  0  0  0  0  0  0  0  0  0  0  0
   35.0340   29.1000   38.1800 C   0  0  0  0  0  0  0  0  0  0  0  0
   34.5780   27.8880   37.8150 C   0  0  0  0  0  0  0  0  0  0  0  0
   35.4280   26.7920   37.8870 C   0  0  0  0  0  0  0  0  0  0  0  0
   37.0070   27.5550   38.5320 S   0  0  0  0  0  0  0  0  0  0  0  0
   35.3700   25.4260   37.6210 C   0  0  0  0  0  0  0  0  0  0  0  0
   35.5690   24.4090   38.4900 C   0  0  0  0  0  0  0  0  0  0  0  0
   35.4810   23.1100   38.0900 C   0  0  0  0  0  0  0  0  0  0  0  0
   35.1700   22.8840   36.7110 C   0  0  0  0  0  0  0  0  0  0  0  0
   35.0200   24.6590   36.0700 S   0  0  0  0  0  0  0  0  0  0  0  0
   35.8242   30.9246   40.7032 H   0  0  0  0  0  0  0  0  0  0  0  0
   37.3728   32.5603   41.5549 H   0  0  0  0  0  0  0  0  0  0  0  0
   38.7740   31.7631   40.8896 H   0  0  0  0  0  0  0  0  0  0  0  0
   36.6496   33.4339   39.5035 H   0  0  0  0  0  0  0  0  0  0  0  0
   38.3458   33.2304   39.0339 H   0  0  0  0  0  0  0  0  0  0  0  0
   37.6682   31.6595   37.4897 H   0  0  0  0  0  0  0  0  0  0  0  0
   35.9940   31.7694   38.0445 H   0  0  0  0  0  0  0  0  0  0  0  0
   38.1945   29.8528   38.9720 H   0  0  0  0  0  0  0  0  0  0  0  0
   39.6899   28.9096   43.6570 H   0  0  0  0  0  0  0  0  0  0  0  0
   38.0050   27.0602   44.2271 H   0  0  0  0  0  0  0  0  0  0  0  0
   35.7941   27.0113   42.9880 H   0  0  0  0  0  0  0  0  0  0  0  0
   34.3658   29.9719   38.1227 H   0  0  0  0  0  0  0  0  0  0  0  0
   33.5429   27.7664   37.4633 H   0  0  0  0  0  0  0  0  0  0  0  0
   35.8065   24.6352   39.5400 H   0  0  0  0  0  0  0  0  0  0  0  0
   35.6407   22.2772   38.7907 H   0  0  0  0  0  0  0  0  0  0  0  0
   35.0503   21.9341   36.1693 H   0  0  0  0  0  0  0  0  0  0  0  0
  1  2  1  0
  1 10  1  0
  3  2  1  0
  4  5  1  0
  4  3  1  0
  5  1  1  0
  6  7  2  0
  8  7  1  0
  9  8  2  0
 10  9  1  0
 10 11  2  0
 11  6  1  0
 12  5  1  0
 13 12  2  0
 14 15  2  0
 14 13  1  0
 15 16  1  0
 16 12  1  0
 17 15  1  0
 17 18  2  0
 19 18  1  0
 20 19  2  0
 21 20  1  0
 21 17  1  0
  1 22  1  6
  2 23  1  0
  2 24  1  0
  3 25  1  0
  3 26  1  0
  4 27  1  0
  4 28  1  0
  5 29  1  1
  6 30  1  0
  7 31  1  0
  8 32  1  0
 13 33  1  0
 14 34  1  0
 18 35  1  0
 19 36  1  0
 20 37  1  0
M  ISO  8  22  13  23  13  24  13  25  13  26  13  27  13  28  13  29  13
M  ISO  8  30  14  31  14  32  14  33  14  34  14  35  14  36  14  37  14
M  END
>  <minimizedAffinity>  (1) 
-4.81197023

>  <minimizedRMSD>  (1) 
0.860252321

$$$$
