
     RDKit          3D

 37 40  0  0  1  0  0  0  0  0999 V2000
   36.9060   31.0940   40.2960 C   0  0  1  0  0  0  0  0  0  0  0  0
   37.5280   32.3740   40.6680 C   0  0  0  0  0  0  0  0  0  0  0  0
   37.4250   33.1740   39.3730 C   0  0  0  0  0  0  0  0  0  0  0  0
   37.2520   32.1620   38.2610 C   0  0  0  0  0  0  0  0  0  0  0  0
   37.4880   30.8240   38.9130 C   0  0  2  0  0  0  0  0  0  0  0  0
   38.5760   29.1540   42.9600 C   0  0  0  0  0  0  0  0  0  0  0  0
   37.6710   28.0380   43.1210 C   0  0  0  0  0  0  0  0  0  0  0  0
   36.5170   27.9830   42.2970 C   0  0  0  0  0  0  0  0  0  0  0  0
   36.2880   28.9690   41.3860 N   0  0  0  0  0  0  0  0  0  0  0  0
   37.1800   30.0010   41.2800 C   0  0  0  0  0  0  0  0  0  0  0  0
   38.3000   30.1020   42.0420 N   0  0  0  0  0  0  0  0  0  0  0  0
   36.8300   29.7230   38.2200 C   0  0  0  0  0  0  0  0  0  0  0  0
   35.5650   29.3670   37.7900 C   0  0  0  0  0  0  0  0  0  0  0  0
   35.3720   28.1910   37.1610 C   0  0  0  0  0  0  0  0  0  0  0  0
   36.4500   27.3460   36.9490 C   0  0  0  0  0  0  0  0  0  0  0  0
   37.8740   28.2940   37.7080 S   0  0  0  0  0  0  0  0  0  0  0  0
   36.6410   26.0700   36.3440 C   0  0  0  0  0  0  0  0  0  0  0  0
   36.2560   24.8510   36.8510 C   0  0  0  0  0  0  0  0  0  0  0  0
   36.6200   23.8990   35.9780 N   0  0  0  0  0  0  0  0  0  0  0  0
   37.2170   24.5630   34.9580 C   0  0  0  0  0  0  0  0  0  0  0  0
   37.2400   25.9010   35.1670 N   0  0  0  0  0  0  0  0  0  0  0  0
   35.8068   31.1358   40.2921 H   0  0  0  0  0  0  0  0  0  0  0  0
   36.9753   32.8633   41.4836 H   0  0  0  0  0  0  0  0  0  0  0  0
   38.5575   32.2713   41.0416 H   0  0  0  0  0  0  0  0  0  0  0  0
   36.5581   33.8501   39.4109 H   0  0  0  0  0  0  0  0  0  0  0  0
   38.3197   33.7938   39.2138 H   0  0  0  0  0  0  0  0  0  0  0  0
   37.9861   32.3373   37.4608 H   0  0  0  0  0  0  0  0  0  0  0  0
   36.2577   32.2255   37.7948 H   0  0  0  0  0  0  0  0  0  0  0  0
   38.5378   30.4954   38.9139 H   0  0  0  0  0  0  0  0  0  0  0  0
   39.4811   29.2289   43.5806 H   0  0  0  0  0  0  0  0  0  0  0  0
   37.8719   27.2515   43.8634 H   0  0  0  0  0  0  0  0  0  0  0  0
   35.8095   27.1463   42.3938 H   0  0  0  0  0  0  0  0  0  0  0  0
   34.7154   30.0444   37.9615 H   0  0  0  0  0  0  0  0  0  0  0  0
   34.3669   27.9039   36.8185 H   0  0  0  0  0  0  0  0  0  0  0  0
   35.7387   24.6849   37.8075 H   0  0  0  0  0  0  0  0  0  0  0  0
   37.6337   24.0729   34.0657 H   0  0  0  0  0  0  0  0  0  0  0  0
   37.6337   26.6271   34.5516 H   0  0  0  0  0  0  0  0  0  0  0  0
  1  2  1  0
  1 10  1  0
  3  2  1  0
  4  5  1  0
  4  3  1  0
  5  1  1  0
  6  7  2  0
  8  7  1  0
  9  8  2  0
 10  9  1  0
 10 11  2  0
 11  6  1  0
 12  5  1  0
 13 12  2  0
 14 13  1  0
 15 14  2  0
 15 16  1  0
 16 12  1  0
 17 18  2  0
 17 15  1  0
 19 18  1  0
 20 21  1  0
 20 19  2  0
 21 17  1  0
  1 22  1  6
  2 23  1  0
  2 24  1  0
  3 25  1  0
  3 26  1  0
  4 27  1  0
  4 28  1  0
  5 29  1  1
  6 30  1  0
  7 31  1  0
  8 32  1  0
 13 33  1  0
 14 34  1  0
 18 35  1  0
 20 36  1  0
 21 37  1  0
M  ISO  8  22  13  23  13  24  13  25  13  26  13  27  13  28  13  29  13
M  ISO  8  30  14  31  14  32  14  33  14  34  14  35  14  36  14  37   9
M  END
>  <minimizedAffinity>  (1) 
-4.76874924

>  <minimizedRMSD>  (1) 
0.510026336

$$$$
