
     RDKit          3D

 36 39  0  0  1  0  0  0  0  0999 V2000
   36.8750   30.8770   40.4060 C   0  0  1  0  0  0  0  0  0  0  0  0
   37.6940   32.0900   40.5560 C   0  0  0  0  0  0  0  0  0  0  0  0
   37.4240   32.8000   39.2380 C   0  0  0  0  0  0  0  0  0  0  0  0
   37.0550   31.7110   38.2420 C   0  0  0  0  0  0  0  0  0  0  0  0
   37.2120   30.4110   38.9930 C   0  0  2  0  0  0  0  0  0  0  0  0
   38.5760   29.1000   43.1620 C   0  0  0  0  0  0  0  0  0  0  0  0
   37.6690   28.0040   43.4130 C   0  0  0  0  0  0  0  0  0  0  0  0
   36.5020   27.9060   42.6120 C   0  0  0  0  0  0  0  0  0  0  0  0
   36.2650   28.8310   41.6440 N   0  0  0  0  0  0  0  0  0  0  0  0
   37.1570   29.8460   41.4540 C   0  0  0  0  0  0  0  0  0  0  0  0
   38.2920   29.9890   42.1900 N   0  0  0  0  0  0  0  0  0  0  0  0
   36.3450   29.3500   38.5140 C   0  0  0  0  0  0  0  0  0  0  0  0
   35.0120   29.1730   38.1560 C   0  0  0  0  0  0  0  0  0  0  0  0
   34.5940   27.9530   37.7550 C   0  0  0  0  0  0  0  0  0  0  0  0
   35.4880   26.8890   37.7000 C   0  0  0  0  0  0  0  0  0  0  0  0
   37.0910   27.6870   38.2760 S   0  0  0  0  0  0  0  0  0  0  0  0
   35.3300   25.5950   37.3400 N   0  0  0  0  0  0  0  0  0  0  0  0
   35.5820   24.5310   38.1510 C   0  0  0  0  0  0  0  0  0  0  0  0
   35.3230   23.3880   37.4870 N   0  0  0  0  0  0  0  0  0  0  0  0
   34.9090   23.7400   36.2560 C   0  0  0  0  0  0  0  0  0  0  0  0
   34.9210   25.0860   36.1900 N   0  0  0  0  0  0  0  0  0  0  0  0
   35.8002   31.0659   40.5442 H   0  0  0  0  0  0  0  0  0  0  0  0
   37.3640   32.6947   41.4136 H   0  0  0  0  0  0  0  0  0  0  0  0
   38.7585   31.8924   40.7503 H   0  0  0  0  0  0  0  0  0  0  0  0
   36.5932   33.5120   39.3508 H   0  0  0  0  0  0  0  0  0  0  0  0
   38.3012   33.3724   38.9020 H   0  0  0  0  0  0  0  0  0  0  0  0
   37.7305   31.7382   37.3742 H   0  0  0  0  0  0  0  0  0  0  0  0
   36.0332   31.8393   37.8555 H   0  0  0  0  0  0  0  0  0  0  0  0
   38.2020   29.9433   38.8870 H   0  0  0  0  0  0  0  0  0  0  0  0
   39.4926   29.2081   43.7605 H   0  0  0  0  0  0  0  0  0  0  0  0
   37.8771   27.2667   44.2024 H   0  0  0  0  0  0  0  0  0  0  0  0
   35.7902   27.0831   42.7738 H   0  0  0  0  0  0  0  0  0  0  0  0
   34.3073   30.0165   38.1991 H   0  0  0  0  0  0  0  0  0  0  0  0
   33.5424   27.8002   37.4708 H   0  0  0  0  0  0  0  0  0  0  0  0
   35.9417   24.5948   39.1886 H   0  0  0  0  0  0  0  0  0  0  0  0
   34.6140   23.0530   35.4491 H   0  0  0  0  0  0  0  0  0  0  0  0
  1  2  1  0
  1 10  1  0
  3  2  1  0
  4  5  1  0
  4  3  1  0
  5  1  1  0
  6  7  2  0
  8  7  1  0
  9  8  2  0
 10  9  1  0
 10 11  2  0
 11  6  1  0
 12  5  1  0
 13 12  2  0
 14 13  1  0
 15 14  2  0
 15 16  1  0
 16 12  1  0
 17 15  1  0
 17 18  1  0
 19 18  2  0
 20 19  1  0
 21 20  2  0
 21 17  1  0
  1 22  1  6
  2 23  1  0
  2 24  1  0
  3 25  1  0
  3 26  1  0
  4 27  1  0
  4 28  1  0
  5 29  1  1
  6 30  1  0
  7 31  1  0
  8 32  1  0
 13 33  1  0
 14 34  1  0
 18 35  1  0
 20 36  1  0
M  ISO  8  22  13  23  13  24  13  25  13  26  13  27  13  28  13  29  13
M  ISO  7  30  14  31  14  32  14  33  14  34  14  35  14  36  14
M  END
>  <minimizedAffinity>  (1) 
-4.71326733

>  <minimizedRMSD>  (1) 
0.61751169

$$$$
