
     RDKit          3D

 31 33  0  0  1  0  0  0  0  0999 V2000
   36.9150   31.0260   40.3920 C   0  0  1  0  0  0  0  0  0  0  0  0
   37.6790   32.2590   40.6510 C   0  0  0  0  0  0  0  0  0  0  0  0
   37.4350   33.0410   39.3750 C   0  0  0  0  0  0  0  0  0  0  0  0
   37.1800   31.9990   38.2970 C   0  0  0  0  0  0  0  0  0  0  0  0
   37.3670   30.6620   38.9830 C   0  0  2  0  0  0  0  0  0  0  0  0
   38.5680   29.1320   43.0980 C   0  0  0  0  0  0  0  0  0  0  0  0
   37.6570   28.0270   43.2880 C   0  0  0  0  0  0  0  0  0  0  0  0
   36.5040   27.9680   42.4630 C   0  0  0  0  0  0  0  0  0  0  0  0
   36.2760   28.9320   41.5260 N   0  0  0  0  0  0  0  0  0  0  0  0
   37.1830   29.9540   41.4000 C   0  0  0  0  0  0  0  0  0  0  0  0
   38.3060   30.0650   42.1590 N   0  0  0  0  0  0  0  0  0  0  0  0
   36.5940   29.5920   38.3870 C   0  0  0  0  0  0  0  0  0  0  0  0
   35.3100   29.3420   37.9460 C   0  0  0  0  0  0  0  0  0  0  0  0
   34.9750   28.1430   37.4310 C   0  0  0  0  0  0  0  0  0  0  0  0
   35.9560   27.1570   37.3510 C   0  0  0  0  0  0  0  0  0  0  0  0
   37.4650   28.0020   38.0630 S   0  0  0  0  0  0  0  0  0  0  0  0
   35.8650   25.8820   36.8750 O   0  0  0  0  0  0  0  0  0  0  0  0
   35.8258   31.1561   40.4741 H   0  0  0  0  0  0  0  0  0  0  0  0
   37.2915   32.7943   41.5304 H   0  0  0  0  0  0  0  0  0  0  0  0
   38.7422   32.0884   40.8755 H   0  0  0  0  0  0  0  0  0  0  0  0
   36.5597   33.6975   39.4888 H   0  0  0  0  0  0  0  0  0  0  0  0
   38.2905   33.6850   39.1233 H   0  0  0  0  0  0  0  0  0  0  0  0
   37.8993   32.1132   37.4726 H   0  0  0  0  0  0  0  0  0  0  0  0
   36.1760   32.0988   37.8589 H   0  0  0  0  0  0  0  0  0  0  0  0
   38.3860   30.2528   38.9188 H   0  0  0  0  0  0  0  0  0  0  0  0
   39.4734   29.2126   43.7175 H   0  0  0  0  0  0  0  0  0  0  0  0
   37.8510   27.2559   44.0481 H   0  0  0  0  0  0  0  0  0  0  0  0
   35.7898   27.1396   42.5801 H   0  0  0  0  0  0  0  0  0  0  0  0
   34.5492   30.1334   38.0161 H   0  0  0  0  0  0  0  0  0  0  0  0
   33.9505   27.9470   37.0817 H   0  0  0  0  0  0  0  0  0  0  0  0
   36.6601   25.2922   36.8842 H   0  0  0  0  0  0  0  0  0  0  0  0
  1  2  1  0
  1 10  1  0
  3  2  1  0
  4  5  1  0
  4  3  1  0
  5  1  1  0
  6  7  2  0
  8  7  1  0
  9  8  2  0
 10  9  1  0
 10 11  2  0
 11  6  1  0
 12  5  1  0
 13 12  2  0
 14 13  1  0
 15 14  2  0
 15 16  1  0
 16 12  1  0
 17 15  1  0
  1 18  1  6
  2 19  1  0
  2 20  1  0
  3 21  1  0
  3 22  1  0
  4 23  1  0
  4 24  1  0
  5 25  1  1
  6 26  1  0
  7 27  1  0
  8 28  1  0
 13 29  1  0
 14 30  1  0
 17 31  1  0
M  ISO  8  18  13  19  13  20  13  21  13  22  13  23  13  24  13  25  13
M  ISO  6  26  14  27  14  28  14  29  14  30  14  31   3
M  END
>  <minimizedAffinity>  (1) 
-4.56430435

>  <minimizedRMSD>  (1) 
0.0598865673

$$$$
