
     RDKit          3D

 40 43  0  0  1  0  0  0  0  0999 V2000
   36.9950   31.0720   40.4640 C   0  0  1  0  0  0  0  0  0  0  0  0
   37.7450   32.2920   40.7370 C   0  0  0  0  0  0  0  0  0  0  0  0
   37.5680   33.0710   39.4400 C   0  0  0  0  0  0  0  0  0  0  0  0
   37.2110   32.0470   38.3820 C   0  0  0  0  0  0  0  0  0  0  0  0
   37.4480   30.7020   39.0360 C   0  0  2  0  0  0  0  0  0  0  0  0
   38.6970   29.1120   43.1000 C   0  0  0  0  0  0  0  0  0  0  0  0
   37.7430   28.0330   43.3110 C   0  0  0  0  0  0  0  0  0  0  0  0
   36.5450   28.0090   42.5290 C   0  0  0  0  0  0  0  0  0  0  0  0
   36.3200   28.9890   41.6070 N   0  0  0  0  0  0  0  0  0  0  0  0
   37.2560   29.9730   41.4580 C   0  0  0  0  0  0  0  0  0  0  0  0
   38.4200   30.0510   42.1750 N   0  0  0  0  0  0  0  0  0  0  0  0
   36.6400   29.6420   38.4430 C   0  0  0  0  0  0  0  0  0  0  0  0
   35.3620   29.4550   37.9570 C   0  0  0  0  0  0  0  0  0  0  0  0
   34.9750   28.2560   37.4900 C   0  0  0  0  0  0  0  0  0  0  0  0
   35.8690   27.2200   37.4970 C   0  0  0  0  0  0  0  0  0  0  0  0
   37.3940   28.0000   38.2340 S   0  0  0  0  0  0  0  0  0  0  0  0
   33.5720   28.2430   37.0020 C   0  0  0  0  0  0  0  0  0  0  0  0
   32.6200   29.2390   36.9470 C   0  0  0  0  0  0  0  0  0  0  0  0
   31.4140   28.8480   36.4270 C   0  0  0  0  0  0  0  0  0  0  0  0
   31.6300   27.5570   36.1520 N   0  0  0  0  0  0  0  0  0  0  0  0
   32.8330   27.2720   36.4870 N   0  0  0  0  0  0  0  0  0  0  0  0
   35.7650   25.8710   37.0570 C   0  0  0  0  0  0  0  0  0  0  0  0
   35.4360   25.6850   35.7160 F   0  0  0  0  0  0  0  0  0  0  0  0
   36.9900   25.2900   37.2490 F   0  0  0  0  0  0  0  0  0  0  0  0
   34.8490   25.2010   37.8400 F   0  0  0  0  0  0  0  0  0  0  0  0
   35.9083   31.2196   40.5498 H   0  0  0  0  0  0  0  0  0  0  0  0
   37.3211   32.8386   41.5923 H   0  0  0  0  0  0  0  0  0  0  0  0
   38.7964   32.1146   41.0073 H   0  0  0  0  0  0  0  0  0  0  0  0
   36.7595   33.8094   39.5452 H   0  0  0  0  0  0  0  0  0  0  0  0
   38.4817   33.6228   39.1740 H   0  0  0  0  0  0  0  0  0  0  0  0
   37.8549   32.1650   37.4980 H   0  0  0  0  0  0  0  0  0  0  0  0
   36.1731   32.1586   38.0352 H   0  0  0  0  0  0  0  0  0  0  0  0
   38.4661   30.2950   38.9478 H   0  0  0  0  0  0  0  0  0  0  0  0
   39.6271   29.1596   43.6853 H   0  0  0  0  0  0  0  0  0  0  0  0
   37.9396   27.2501   44.0583 H   0  0  0  0  0  0  0  0  0  0  0  0
   35.8088   27.2040   42.6706 H   0  0  0  0  0  0  0  0  0  0  0  0
   34.6530   30.2960   37.9519 H   0  0  0  0  0  0  0  0  0  0  0  0
   32.8132   30.2652   37.2928 H   0  0  0  0  0  0  0  0  0  0  0  0
   30.5017   29.4435   36.2747 H   0  0  0  0  0  0  0  0  0  0  0  0
   30.9468   26.9045   35.7416 H   0  0  0  0  0  0  0  0  0  0  0  0
  1  2  1  0
  1 10  1  0
  3  2  1  0
  4  5  1  0
  4  3  1  0
  5  1  1  0
  6  7  2  0
  8  7  1  0
  9  8  2  0
 10  9  1  0
 10 11  2  0
 11  6  1  0
 12  5  1  0
 13 12  2  0
 14 15  2  0
 14 13  1  0
 15 16  1  0
 16 12  1  0
 17 14  1  0
 18 17  1  0
 19 18  2  0
 20 19  1  0
 20 21  1  0
 21 17  2  0
 22 24  1  0
 22 15  1  0
 22 25  1  0
 23 22  1  0
  1 26  1  6
  2 27  1  0
  2 28  1  0
  3 29  1  0
  3 30  1  0
  4 31  1  0
  4 32  1  0
  5 33  1  1
  6 34  1  0
  7 35  1  0
  8 36  1  0
 13 37  1  0
 18 38  1  0
 19 39  1  0
 20 40  1  0
M  ISO  8  26  13  27  13  28  13  29  13  30  13  31  13  32  13  33  13
M  ISO  7  34  14  35  14  36  14  37  14  38  14  39  14  40   9
M  END
>  <minimizedAffinity>  (1) 
-5.25764894

>  <minimizedRMSD>  (1) 
0.747257411

$$$$
