
     RDKit          3D

 40 42  0  0  1  0  0  0  0  0999 V2000
   37.1080   30.9810   40.6570 C   0  0  1  0  0  0  0  0  0  0  0  0
   38.0100   32.1090   40.8500 C   0  0  0  0  0  0  0  0  0  0  0  0
   37.7340   32.9540   39.6110 C   0  0  0  0  0  0  0  0  0  0  0  0
   37.1360   31.9980   38.5890 C   0  0  0  0  0  0  0  0  0  0  0  0
   37.3360   30.6160   39.1760 C   0  0  2  0  0  0  0  0  0  0  0  0
   38.8900   28.8270   43.0800 C   0  0  0  0  0  0  0  0  0  0  0  0
   37.8930   27.7960   43.3300 C   0  0  0  0  0  0  0  0  0  0  0  0
   36.6400   27.8720   42.6440 C   0  0  0  0  0  0  0  0  0  0  0  0
   36.4010   28.8980   41.7770 N   0  0  0  0  0  0  0  0  0  0  0  0
   37.3750   29.8300   41.5880 C   0  0  0  0  0  0  0  0  0  0  0  0
   38.5950   29.8150   42.2120 N   0  0  0  0  0  0  0  0  0  0  0  0
   36.3610   29.6540   38.6700 C   0  0  0  0  0  0  0  0  0  0  0  0
   35.0140   29.5760   38.4080 C   0  0  0  0  0  0  0  0  0  0  0  0
   34.4600   28.4490   37.9320 C   0  0  0  0  0  0  0  0  0  0  0  0
   35.2800   27.3650   37.7130 C   0  0  0  0  0  0  0  0  0  0  0  0
   36.9510   27.9920   38.2170 S   0  0  0  0  0  0  0  0  0  0  0  0
   33.0530   28.4970   37.7090 N   0  0  0  0  0  0  0  0  0  0  0  0
   32.3210   29.2050   36.7210 C   0  0  0  0  0  0  0  0  0  0  0  0
   32.9470   29.2710   35.5700 N   0  0  0  0  0  0  0  0  0  0  0  0
   31.0190   29.8060   36.9110 N   0  0  0  0  0  0  0  0  0  0  0  0
   32.5560   29.7520   34.7370 H   0  0  0  0  0  0  0  0  0  0  0  0
   34.9980   26.0470   37.2120 C   0  0  0  0  0  0  0  0  0  0  0  0
   35.3280   25.8330   35.8790 F   0  0  0  0  0  0  0  0  0  0  0  0
   35.7120   25.1740   37.9680 F   0  0  0  0  0  0  0  0  0  0  0  0
   33.6500   25.7780   37.3940 F   0  0  0  0  0  0  0  0  0  0  0  0
   36.0626   31.2331   40.8883 H   0  0  0  0  0  0  0  0  0  0  0  0
   37.7689   32.6600   41.7710 H   0  0  0  0  0  0  0  0  0  0  0  0
   39.0650   31.8182   40.9615 H   0  0  0  0  0  0  0  0  0  0  0  0
   37.0224   33.7592   39.8460 H   0  0  0  0  0  0  0  0  0  0  0  0
   38.6490   33.4337   39.2332 H   0  0  0  0  0  0  0  0  0  0  0  0
   37.6583   32.0873   37.6250 H   0  0  0  0  0  0  0  0  0  0  0  0
   36.0749   32.2135   38.3951 H   0  0  0  0  0  0  0  0  0  0  0  0
   38.2918   30.1216   38.9478 H   0  0  0  0  0  0  0  0  0  0  0  0
   39.8646   28.8002   43.5893 H   0  0  0  0  0  0  0  0  0  0  0  0
   38.0991   26.9749   44.0324 H   0  0  0  0  0  0  0  0  0  0  0  0
   35.8706   27.1047   42.8152 H   0  0  0  0  0  0  0  0  0  0  0  0
   34.3772   30.4539   38.5918 H   0  0  0  0  0  0  0  0  0  0  0  0
   32.4849   27.9361   38.3598 H   0  0  0  0  0  0  0  0  0  0  0  0
   30.5624   30.3024   36.1326 H   0  0  0  0  0  0  0  0  0  0  0  0
   30.5485   29.7375   37.8247 H   0  0  0  0  0  0  0  0  0  0  0  0
  1  2  1  0
  1 10  1  0
  3  2  1  0
  4  5  1  0
  4  3  1  0
  5  1  1  0
  6  7  2  0
  8  7  1  0
  9  8  2  0
 10  9  1  0
 10 11  2  0
 11  6  1  0
 12  5  1  0
 13 12  2  0
 14 13  1  0
 15 14  2  0
 15 16  1  0
 16 12  1  0
 17 14  1  0
 18 20  1  0
 18 17  1  0
 19 18  2  0
 21 19  1  0
 22 25  1  0
 22 15  1  0
 22 24  1  0
 23 22  1  0
  1 26  1  6
  2 27  1  0
  2 28  1  0
  3 29  1  0
  3 30  1  0
  4 31  1  0
  4 32  1  0
  5 33  1  1
  6 34  1  0
  7 35  1  0
  8 36  1  0
 13 37  1  0
 17 38  1  0
 20 39  1  0
 20 40  1  0
M  ISO  8  26  13  27  13  28  13  29  13  30  13  31  13  32  13  33  13
M  ISO  4  34  14  35  14  36  14  37  14
M  END
>  <minimizedAffinity>  (1) 
-5.14678383

>  <minimizedRMSD>  (1) 
0.345328361

$$$$
