
     RDKit          3D

 45 47  0  0  1  0  0  0  0  0999 V2000
   36.9910   31.2470   40.2910 C   0  0  1  0  0  0  0  0  0  0  0  0
   37.5550   32.5030   40.7590 C   0  0  0  0  0  0  0  0  0  0  0  0
   37.5010   33.3730   39.5120 C   0  0  0  0  0  0  0  0  0  0  0  0
   37.3740   32.4130   38.3410 C   0  0  0  0  0  0  0  0  0  0  0  0
   37.6630   31.0470   38.9160 C   0  0  2  0  0  0  0  0  0  0  0  0
   38.6150   29.1580   42.8760 C   0  0  0  0  0  0  0  0  0  0  0  0
   37.6740   28.0580   42.9850 C   0  0  0  0  0  0  0  0  0  0  0  0
   36.5100   28.0620   42.1550 C   0  0  0  0  0  0  0  0  0  0  0  0
   36.3080   29.0890   41.2840 N   0  0  0  0  0  0  0  0  0  0  0  0
   37.2320   30.0950   41.2290 C   0  0  0  0  0  0  0  0  0  0  0  0
   38.3630   30.1470   41.9960 N   0  0  0  0  0  0  0  0  0  0  0  0
   37.0500   29.9710   38.1430 C   0  0  0  0  0  0  0  0  0  0  0  0
   35.7770   29.5740   37.7330 C   0  0  0  0  0  0  0  0  0  0  0  0
   35.6230   28.4470   37.0300 C   0  0  0  0  0  0  0  0  0  0  0  0
   36.7210   27.6930   36.7120 C   0  0  0  0  0  0  0  0  0  0  0  0
   38.1120   28.6580   37.4820 S   0  0  0  0  0  0  0  0  0  0  0  0
   36.8900   26.4950   35.9530 C   0  0  0  0  0  0  0  0  0  0  0  0
   36.2390   26.4730   34.7120 F   0  0  0  0  0  0  0  0  0  0  0  0
   38.2160   26.3480   35.7230 F   0  0  0  0  0  0  0  0  0  0  0  0
   36.4390   25.4280   36.6730 F   0  0  0  0  0  0  0  0  0  0  0  0
   34.2060   28.1020   36.6070 C   0  0  0  0  0  0  0  0  0  0  0  0
   33.9990   28.4240   35.1580 C   0  0  0  0  0  0  0  0  0  0  0  0
   33.1730   28.9690   37.3150 C   0  0  0  0  0  0  0  0  0  0  0  0
   33.8340   26.7100   37.0290 C   0  0  0  0  0  0  0  0  0  0  0  0
   35.8932   31.2820   40.2305 H   0  0  0  0  0  0  0  0  0  0  0  0
   36.9492   32.9330   41.5703 H   0  0  0  0  0  0  0  0  0  0  0  0
   38.5666   32.4002   41.1785 H   0  0  0  0  0  0  0  0  0  0  0  0
   36.6314   34.0455   39.5518 H   0  0  0  0  0  0  0  0  0  0  0  0
   38.3965   34.0054   39.4211 H   0  0  0  0  0  0  0  0  0  0  0  0
   38.1030   32.6633   37.5562 H   0  0  0  0  0  0  0  0  0  0  0  0
   36.3783   32.4611   37.8760 H   0  0  0  0  0  0  0  0  0  0  0  0
   38.7210   30.7466   38.9357 H   0  0  0  0  0  0  0  0  0  0  0  0
   39.5193   29.1838   43.5017 H   0  0  0  0  0  0  0  0  0  0  0  0
   37.8534   27.2360   43.6936 H   0  0  0  0  0  0  0  0  0  0  0  0
   35.7817   27.2401   42.2196 H   0  0  0  0  0  0  0  0  0  0  0  0
   34.9004   30.1877   37.9879 H   0  0  0  0  0  0  0  0  0  0  0  0
   33.4061   29.3462   35.0684 H   0  0  0  0  0  0  0  0  0  0  0  0
   34.9750   28.5667   34.6710 H   0  0  0  0  0  0  0  0  0  0  0  0
   33.4640   27.5954   34.6710 H   0  0  0  0  0  0  0  0  0  0  0  0
   33.2936   28.8678   38.4037 H   0  0  0  0  0  0  0  0  0  0  0  0
   33.3171   30.0206   37.0263 H   0  0  0  0  0  0  0  0  0  0  0  0
   32.1623   28.6447   37.0263 H   0  0  0  0  0  0  0  0  0  0  0  0
   33.8184   26.6517   38.1273 H   0  0  0  0  0  0  0  0  0  0  0  0
   32.8378   26.4611   36.6344 H   0  0  0  0  0  0  0  0  0  0  0  0
   34.5732   25.9974   36.6344 H   0  0  0  0  0  0  0  0  0  0  0  0
  1  2  1  0
  1 10  1  0
  3  2  1  0
  4  5  1  0
  4  3  1  0
  5  1  1  0
  6  7  2  0
  8  7  1  0
  9  8  2  0
 10  9  1  0
 10 11  2  0
 11  6  1  0
 12  5  1  0
 13 12  2  0
 14 13  1  0
 15 14  2  0
 15 16  1  0
 16 12  1  0
 17 20  1  0
 17 15  1  0
 18 17  1  0
 19 17  1  0
 21 24  1  0
 21 14  1  0
 21 23  1  0
 22 21  1  0
  1 25  1  6
  2 26  1  0
  2 27  1  0
  3 28  1  0
  3 29  1  0
  4 30  1  0
  4 31  1  0
  5 32  1  1
  6 33  1  0
  7 34  1  0
  8 35  1  0
 13 36  1  0
 22 37  1  0
 22 38  1  0
 22 39  1  0
 23 40  1  0
 23 41  1  0
 23 42  1  0
 24 43  1  0
 24 44  1  0
 24 45  1  0
M  ISO  8  25  13  26  13  27  13  28  13  29  13  30  13  31  13  32  13
M  ISO  8  33  14  34  14  35  14  36  14  37   8  38   8  39   8  40   8
M  ISO  5  41   8  42   8  43   8  44   8  45   8
M  END
>  <minimizedAffinity>  (1) 
-5.10317039

>  <minimizedRMSD>  (1) 
1.67919374

$$$$
