
     RDKit          3D

 48 51  0  0  1  0  0  0  0  0999 V2000
   36.9830   31.0440   40.4570 C   0  0  1  0  0  0  0  0  0  0  0  0
   37.7620   32.2400   40.7610 C   0  0  0  0  0  0  0  0  0  0  0  0
   37.6540   33.0420   39.4640 C   0  0  0  0  0  0  0  0  0  0  0  0
   37.2990   32.0350   38.3880 C   0  0  0  0  0  0  0  0  0  0  0  0
   37.4760   30.6800   39.0380 C   0  0  2  0  0  0  0  0  0  0  0  0
   38.5770   29.0160   43.1120 C   0  0  0  0  0  0  0  0  0  0  0  0
   37.5920   27.9610   43.2880 C   0  0  0  0  0  0  0  0  0  0  0  0
   36.4140   27.9750   42.4790 C   0  0  0  0  0  0  0  0  0  0  0  0
   36.2330   28.9680   41.5620 N   0  0  0  0  0  0  0  0  0  0  0  0
   37.1900   29.9290   41.4450 C   0  0  0  0  0  0  0  0  0  0  0  0
   38.3400   29.9690   42.1900 N   0  0  0  0  0  0  0  0  0  0  0  0
   36.6770   29.6420   38.4120 C   0  0  0  0  0  0  0  0  0  0  0  0
   35.4650   29.5080   37.7720 C   0  0  0  0  0  0  0  0  0  0  0  0
   35.0370   28.3120   37.3070 C   0  0  0  0  0  0  0  0  0  0  0  0
   35.8660   27.2280   37.5010 C   0  0  0  0  0  0  0  0  0  0  0  0
   37.3280   27.9390   38.3890 S   0  0  0  0  0  0  0  0  0  0  0  0
   33.7460   28.3270   36.6840 N   0  0  0  0  0  0  0  0  0  0  0  0
   33.2140   27.6530   35.5410 C   0  0  0  0  0  0  0  0  0  0  0  0
   32.3540   28.4800   34.6450 C   0  0  0  0  0  0  0  0  0  0  0  0
   31.5600   29.5370   35.3380 C   0  0  0  0  0  0  0  0  0  0  0  0
   31.4440   29.1310   36.7970 C   0  0  0  0  0  0  0  0  0  0  0  0
   32.8180   29.2190   37.3790 C   0  0  0  0  0  0  0  0  0  0  0  0
   35.7090   25.8500   37.1260 C   0  0  0  0  0  0  0  0  0  0  0  0
   35.7430   25.5900   35.7560 F   0  0  0  0  0  0  0  0  0  0  0  0
   36.7250   25.1590   37.7040 F   0  0  0  0  0  0  0  0  0  0  0  0
   34.5080   25.3760   37.6370 F   0  0  0  0  0  0  0  0  0  0  0  0
   35.8981   31.2163   40.5149 H   0  0  0  0  0  0  0  0  0  0  0  0
   37.3284   32.7925   41.6076 H   0  0  0  0  0  0  0  0  0  0  0  0
   38.7987   32.0247   41.0591 H   0  0  0  0  0  0  0  0  0  0  0  0
   36.8668   33.8056   39.5495 H   0  0  0  0  0  0  0  0  0  0  0  0
   38.5913   33.5695   39.2333 H   0  0  0  0  0  0  0  0  0  0  0  0
   37.9726   32.1395   37.5247 H   0  0  0  0  0  0  0  0  0  0  0  0
   36.2756   32.1796   38.0115 H   0  0  0  0  0  0  0  0  0  0  0  0
   38.4881   30.2532   38.9792 H   0  0  0  0  0  0  0  0  0  0  0  0
   39.4948   29.0354   43.7180 H   0  0  0  0  0  0  0  0  0  0  0  0
   37.7508   27.1657   44.0311 H   0  0  0  0  0  0  0  0  0  0  0  0
   35.6554   27.1870   42.5957 H   0  0  0  0  0  0  0  0  0  0  0  0
   34.8293   30.3953   37.6356 H   0  0  0  0  0  0  0  0  0  0  0  0
   34.0596   27.2777   34.9459 H   0  0  0  0  0  0  0  0  0  0  0  0
   32.5610   26.8611   35.9366 H   0  0  0  0  0  0  0  0  0  0  0  0
   31.6522   27.8082   34.1291 H   0  0  0  0  0  0  0  0  0  0  0  0
   33.0362   29.0051   33.9602 H   0  0  0  0  0  0  0  0  0  0  0  0
   32.0726   30.5069   35.2568 H   0  0  0  0  0  0  0  0  0  0  0  0
   30.5643   29.6383   34.8816 H   0  0  0  0  0  0  0  0  0  0  0  0
   30.7635   29.8134   37.3273 H   0  0  0  0  0  0  0  0  0  0  0  0
   31.0386   28.1129   36.8929 H   0  0  0  0  0  0  0  0  0  0  0  0
   32.7763   28.9362   38.4412 H   0  0  0  0  0  0  0  0  0  0  0  0
   33.1781   30.2522   37.2661 H   0  0  0  0  0  0  0  0  0  0  0  0
  1  2  1  0
  1 10  1  0
  3  2  1  0
  4  5  1  0
  4  3  1  0
  5  1  1  0
  6  7  2  0
  8  7  1  0
  9  8  2  0
 10  9  1  0
 10 11  2  0
 11  6  1  0
 12  5  1  0
 13 12  2  0
 14 15  2  0
 14 13  1  0
 15 16  1  0
 16 12  1  0
 17 14  1  0
 17 22  1  0
 18 17  1  0
 19 20  1  0
 19 18  1  0
 20 21  1  0
 21 22  1  0
 23 15  1  0
 23 26  1  0
 23 25  1  0
 24 23  1  0
  1 27  1  6
  2 28  1  0
  2 29  1  0
  3 30  1  0
  3 31  1  0
  4 32  1  0
  4 33  1  0
  5 34  1  1
  6 35  1  0
  7 36  1  0
  8 37  1  0
 13 38  1  0
 18 39  1  0
 18 40  1  0
 19 41  1  0
 19 42  1  0
 20 43  1  0
 20 44  1  0
 21 45  1  0
 21 46  1  0
 22 47  1  0
 22 48  1  0
M  ISO  8  27  13  28  13  29  13  30  13  31  13  32  13  33  13  34  13
M  ISO  8  35  14  36  14  37  14  38  14  39  13  40  13  41  13  42  13
M  ISO  6  43  13  44  13  45  13  46  13  47  13  48  13
M  END
>  <minimizedAffinity>  (1) 
-5.07844734

>  <minimizedRMSD>  (1) 
0.898155868

$$$$
