
     RDKit          3D

 40 43  0  0  1  0  0  0  0  0999 V2000
   36.9430   31.0130   40.4120 C   0  0  1  0  0  0  0  0  0  0  0  0
   37.6940   32.2380   40.6740 C   0  0  0  0  0  0  0  0  0  0  0  0
   37.5130   33.0090   39.3640 C   0  0  0  0  0  0  0  0  0  0  0  0
   37.1780   31.9620   38.3260 C   0  0  0  0  0  0  0  0  0  0  0  0
   37.4420   30.6310   39.0000 C   0  0  2  0  0  0  0  0  0  0  0  0
   38.6230   29.1050   43.1000 C   0  0  0  0  0  0  0  0  0  0  0  0
   37.6710   28.0330   43.3300 C   0  0  0  0  0  0  0  0  0  0  0  0
   36.4800   27.9980   42.5380 C   0  0  0  0  0  0  0  0  0  0  0  0
   36.2590   28.9580   41.5920 N   0  0  0  0  0  0  0  0  0  0  0  0
   37.1930   29.9360   41.4290 C   0  0  0  0  0  0  0  0  0  0  0  0
   38.3520   30.0250   42.1520 N   0  0  0  0  0  0  0  0  0  0  0  0
   36.6870   29.5420   38.4050 C   0  0  0  0  0  0  0  0  0  0  0  0
   35.4580   29.3410   37.7920 C   0  0  0  0  0  0  0  0  0  0  0  0
   35.0910   28.1140   37.3620 C   0  0  0  0  0  0  0  0  0  0  0  0
   35.9790   27.0750   37.5540 C   0  0  0  0  0  0  0  0  0  0  0  0
   37.4210   27.8790   38.3930 S   0  0  0  0  0  0  0  0  0  0  0  0
   35.8910   25.6910   37.1970 C   0  0  0  0  0  0  0  0  0  0  0  0
   35.7440   25.4190   35.8340 F   0  0  0  0  0  0  0  0  0  0  0  0
   37.0490   25.0970   37.6040 F   0  0  0  0  0  0  0  0  0  0  0  0
   34.8290   25.1130   37.8740 F   0  0  0  0  0  0  0  0  0  0  0  0
   33.7030   28.0660   36.7750 C   0  0  0  0  0  0  0  0  0  0  0  0
   33.2680   29.2100   35.9390 C   0  0  0  0  0  0  0  0  0  0  0  0
   32.7450   29.0750   37.3290 C   0  0  0  0  0  0  0  0  0  0  0  0
   35.8532   31.1492   40.4742 H   0  0  0  0  0  0  0  0  0  0  0  0
   37.2711   32.7917   41.5253 H   0  0  0  0  0  0  0  0  0  0  0  0
   38.7460   32.0639   40.9443 H   0  0  0  0  0  0  0  0  0  0  0  0
   36.6931   33.7365   39.4556 H   0  0  0  0  0  0  0  0  0  0  0  0
   38.4155   33.5777   39.0955 H   0  0  0  0  0  0  0  0  0  0  0  0
   37.8193   32.0790   37.4400 H   0  0  0  0  0  0  0  0  0  0  0  0
   36.1374   32.0467   37.9795 H   0  0  0  0  0  0  0  0  0  0  0  0
   38.4722   30.2501   38.9401 H   0  0  0  0  0  0  0  0  0  0  0  0
   39.5499   29.1657   43.6893 H   0  0  0  0  0  0  0  0  0  0  0  0
   37.8610   27.2659   44.0951 H   0  0  0  0  0  0  0  0  0  0  0  0
   35.7416   27.1972   42.6911 H   0  0  0  0  0  0  0  0  0  0  0  0
   34.7742   30.1916   37.6546 H   0  0  0  0  0  0  0  0  0  0  0  0
   33.7123   26.9755   36.6309 H   0  0  0  0  0  0  0  0  0  0  0  0
   33.9789   30.0135   35.6959 H   0  0  0  0  0  0  0  0  0  0  0  0
   32.8087   29.3129   34.9448 H   0  0  0  0  0  0  0  0  0  0  0  0
   31.6930   28.8018   37.4983 H   0  0  0  0  0  0  0  0  0  0  0  0
   32.7186   29.7201   38.2196 H   0  0  0  0  0  0  0  0  0  0  0  0
  1  2  1  0
  1 10  1  0
  3  2  1  0
  4  5  1  0
  4  3  1  0
  5  1  1  0
  6  7  2  0
  8  7  1  0
  9  8  2  0
 10  9  1  0
 10 11  2  0
 11  6  1  0
 12  5  1  0
 13 12  2  0
 14 15  2  0
 14 13  1  0
 15 16  1  0
 16 12  1  0
 17 15  1  0
 17 19  1  0
 17 20  1  0
 18 17  1  0
 21 23  1  0
 21 14  1  0
 22 21  1  0
 22 23  1  0
  1 24  1  6
  2 25  1  0
  2 26  1  0
  3 27  1  0
  3 28  1  0
  4 29  1  0
  4 30  1  0
  5 31  1  1
  6 32  1  0
  7 33  1  0
  8 34  1  0
 13 35  1  0
 21 36  1  0
 22 37  1  0
 22 38  1  0
 23 39  1  0
 23 40  1  0
M  ISO  8  24  13  25  13  26  13  27  13  28  13  29  13  30  13  31  13
M  ISO  8  32  14  33  14  34  14  35  14  36  13  37  13  38  13  39  13
M  ISO  1  40  13
M  END
>  <minimizedAffinity>  (1) 
-5.02112341

>  <minimizedRMSD>  (1) 
0.780453324

$$$$
