
     RDKit          3D

 45 48  0  0  1  0  0  0  0  0999 V2000
   36.9760   31.2000   40.2300 C   0  0  1  0  0  0  0  0  0  0  0  0
   37.5160   32.4720   40.6960 C   0  0  0  0  0  0  0  0  0  0  0  0
   37.4430   33.3330   39.4360 C   0  0  0  0  0  0  0  0  0  0  0  0
   37.4150   32.3530   38.2730 C   0  0  0  0  0  0  0  0  0  0  0  0
   37.7060   31.0010   38.8840 C   0  0  2  0  0  0  0  0  0  0  0  0
   38.5730   29.1630   42.8750 C   0  0  0  0  0  0  0  0  0  0  0  0
   37.6420   28.0580   42.9850 C   0  0  0  0  0  0  0  0  0  0  0  0
   36.4940   28.0420   42.1330 C   0  0  0  0  0  0  0  0  0  0  0  0
   36.2890   29.0560   41.2370 N   0  0  0  0  0  0  0  0  0  0  0  0
   37.2060   30.0650   41.1880 C   0  0  0  0  0  0  0  0  0  0  0  0
   38.3250   30.1360   41.9760 N   0  0  0  0  0  0  0  0  0  0  0  0
   37.1670   29.8990   38.1060 C   0  0  0  0  0  0  0  0  0  0  0  0
   35.9810   29.5140   37.5400 C   0  0  0  0  0  0  0  0  0  0  0  0
   35.8570   28.3570   36.8490 C   0  0  0  0  0  0  0  0  0  0  0  0
   36.9860   27.5720   36.7370 C   0  0  0  0  0  0  0  0  0  0  0  0
   38.2790   28.5260   37.6570 S   0  0  0  0  0  0  0  0  0  0  0  0
   34.5570   28.0660   36.2780 N   0  0  0  0  0  0  0  0  0  0  0  0
   33.4890   27.1380   36.6250 C   0  0  0  0  0  0  0  0  0  0  0  0
   32.2620   27.8430   36.1330 C   0  0  0  0  0  0  0  0  0  0  0  0
   32.7420   28.4910   34.8470 C   0  0  0  0  0  0  0  0  0  0  0  0
   34.1730   28.8430   35.0930 C   0  0  0  0  0  0  0  0  0  0  0  0
   37.1830   26.3070   36.0790 C   0  0  0  0  0  0  0  0  0  0  0  0
   36.5700   26.1740   34.8390 F   0  0  0  0  0  0  0  0  0  0  0  0
   38.5290   26.1640   35.8900 F   0  0  0  0  0  0  0  0  0  0  0  0
   36.7650   25.2890   36.9290 F   0  0  0  0  0  0  0  0  0  0  0  0
   35.8801   31.2130   40.1362 H   0  0  0  0  0  0  0  0  0  0  0  0
   36.9010   32.8945   41.5042 H   0  0  0  0  0  0  0  0  0  0  0  0
   38.5280   32.3939   41.1201 H   0  0  0  0  0  0  0  0  0  0  0  0
   36.5305   33.9472   39.4428 H   0  0  0  0  0  0  0  0  0  0  0  0
   38.2953   34.0248   39.3654 H   0  0  0  0  0  0  0  0  0  0  0  0
   38.1836   32.6139   37.5306 H   0  0  0  0  0  0  0  0  0  0  0  0
   36.4483   32.3666   37.7482 H   0  0  0  0  0  0  0  0  0  0  0  0
   38.7697   30.7295   38.9538 H   0  0  0  0  0  0  0  0  0  0  0  0
   39.4670   29.2069   43.5144 H   0  0  0  0  0  0  0  0  0  0  0  0
   37.8150   27.2482   43.7091 H   0  0  0  0  0  0  0  0  0  0  0  0
   35.7740   27.2129   42.1978 H   0  0  0  0  0  0  0  0  0  0  0  0
   35.1016   30.1655   37.6504 H   0  0  0  0  0  0  0  0  0  0  0  0
   33.6222   26.1724   36.1151 H   0  0  0  0  0  0  0  0  0  0  0  0
   33.4523   26.8986   37.6980 H   0  0  0  0  0  0  0  0  0  0  0  0
   31.4467   27.1307   35.9379 H   0  0  0  0  0  0  0  0  0  0  0  0
   31.8520   28.5622   36.8574 H   0  0  0  0  0  0  0  0  0  0  0  0
   32.1549   29.3952   34.6287 H   0  0  0  0  0  0  0  0  0  0  0  0
   32.6274   27.8206   33.9824 H   0  0  0  0  0  0  0  0  0  0  0  0
   34.7940   28.5632   34.2293 H   0  0  0  0  0  0  0  0  0  0  0  0
   34.3126   29.9236   35.2443 H   0  0  0  0  0  0  0  0  0  0  0  0
  1  2  1  0
  1 10  1  0
  3  2  1  0
  4  5  1  0
  4  3  1  0
  5  1  1  0
  6  7  2  0
  8  7  1  0
  9  8  2  0
 10  9  1  0
 10 11  2  0
 11  6  1  0
 12  5  1  0
 13 12  2  0
 14 13  1  0
 15 14  2  0
 15 16  1  0
 16 12  1  0
 17 18  1  0
 17 14  1  0
 19 18  1  0
 20 21  1  0
 20 19  1  0
 21 17  1  0
 22 15  1  0
 22 25  1  0
 23 22  1  0
 24 22  1  0
  1 26  1  6
  2 27  1  0
  2 28  1  0
  3 29  1  0
  3 30  1  0
  4 31  1  0
  4 32  1  0
  5 33  1  1
  6 34  1  0
  7 35  1  0
  8 36  1  0
 13 37  1  0
 18 38  1  0
 18 39  1  0
 19 40  1  0
 19 41  1  0
 20 42  1  0
 20 43  1  0
 21 44  1  0
 21 45  1  0
M  ISO  8  26  13  27  13  28  13  29  13  30  13  31  13  32  13  33  13
M  ISO  8  34  14  35  14  36  14  37  14  38  13  39  13  40  13  41  13
M  ISO  4  42  13  43  13  44  13  45  13
M  END
>  <minimizedAffinity>  (1) 
-4.89990187

>  <minimizedRMSD>  (1) 
1.83488786

$$$$
