
     RDKit          3D

 34 36  0  0  1  0  0  0  0  0999 V2000
   36.8450   30.7320   40.5510 C   0  0  1  0  0  0  0  0  0  0  0  0
   37.6390   31.9400   40.7460 C   0  0  0  0  0  0  0  0  0  0  0  0
   37.3920   32.6970   39.4440 C   0  0  0  0  0  0  0  0  0  0  0  0
   36.9840   31.6540   38.4290 C   0  0  0  0  0  0  0  0  0  0  0  0
   37.2140   30.3260   39.1100 C   0  0  2  0  0  0  0  0  0  0  0  0
   38.6330   28.8390   43.1810 C   0  0  0  0  0  0  0  0  0  0  0  0
   37.7020   27.7500   43.4270 C   0  0  0  0  0  0  0  0  0  0  0  0
   36.4930   27.6970   42.6710 C   0  0  0  0  0  0  0  0  0  0  0  0
   36.2290   28.6580   41.7380 N   0  0  0  0  0  0  0  0  0  0  0  0
   37.1410   29.6520   41.5540 C   0  0  0  0  0  0  0  0  0  0  0  0
   38.3180   29.7580   42.2470 N   0  0  0  0  0  0  0  0  0  0  0  0
   36.3730   29.2600   38.5890 C   0  0  0  0  0  0  0  0  0  0  0  0
   35.0620   29.0420   38.2510 C   0  0  0  0  0  0  0  0  0  0  0  0
   34.6420   27.8550   37.7770 C   0  0  0  0  0  0  0  0  0  0  0  0
   35.5760   26.8500   37.6410 C   0  0  0  0  0  0  0  0  0  0  0  0
   37.1430   27.6470   38.2220 S   0  0  0  0  0  0  0  0  0  0  0  0
   35.4480   25.4930   37.1700 C   0  0  0  0  0  0  0  0  0  0  0  0
   34.9380   25.3550   35.8830 F   0  0  0  0  0  0  0  0  0  0  0  0
   36.6860   24.9450   37.2040 F   0  0  0  0  0  0  0  0  0  0  0  0
   34.6190   24.8060   38.0760 F   0  0  0  0  0  0  0  0  0  0  0  0
   33.3230   27.6080   37.4260 O   0  0  0  0  0  0  0  0  0  0  0  0
   35.7680   30.9007   40.6978 H   0  0  0  0  0  0  0  0  0  0  0  0
   37.2858   32.5143   41.6152 H   0  0  0  0  0  0  0  0  0  0  0  0
   38.7020   31.7435   40.9495 H   0  0  0  0  0  0  0  0  0  0  0  0
   36.5881   33.4358   39.5776 H   0  0  0  0  0  0  0  0  0  0  0  0
   38.2882   33.2465   39.1202 H   0  0  0  0  0  0  0  0  0  0  0  0
   37.6026   31.7350   37.5230 H   0  0  0  0  0  0  0  0  0  0  0  0
   35.9380   31.7770   38.1115 H   0  0  0  0  0  0  0  0  0  0  0  0
   38.2202   29.9009   38.9800 H   0  0  0  0  0  0  0  0  0  0  0  0
   39.5745   28.9114   43.7452 H   0  0  0  0  0  0  0  0  0  0  0  0
   37.9253   26.9814   44.1816 H   0  0  0  0  0  0  0  0  0  0  0  0
   35.7738   26.8820   42.8399 H   0  0  0  0  0  0  0  0  0  0  0  0
   34.3350   29.8588   38.3705 H   0  0  0  0  0  0  0  0  0  0  0  0
   33.0609   26.7177   37.0813 H   0  0  0  0  0  0  0  0  0  0  0  0
  1  2  1  0
  1 10  1  0
  3  2  1  0
  4  5  1  0
  4  3  1  0
  5  1  1  0
  6  7  2  0
  8  7  1  0
  9  8  2  0
 10  9  1  0
 10 11  2  0
 11  6  1  0
 12  5  1  0
 13 12  2  0
 14 13  1  0
 15 14  2  0
 15 16  1  0
 16 12  1  0
 17 19  1  0
 17 15  1  0
 17 20  1  0
 18 17  1  0
 21 14  1  0
  1 22  1  6
  2 23  1  0
  2 24  1  0
  3 25  1  0
  3 26  1  0
  4 27  1  0
  4 28  1  0
  5 29  1  1
  6 30  1  0
  7 31  1  0
  8 32  1  0
 13 33  1  0
 21 34  1  0
M  ISO  8  22  13  23  13  24  13  25  13  26  13  27  13  28  13  29  13
M  ISO  5  30  14  31  14  32  14  33  14  34   3
M  END
>  <minimizedAffinity>  (1) 
-4.884902

>  <minimizedRMSD>  (1) 
0.577851415

$$$$
