
     RDKit          3D

 35 37  0  0  1  0  0  0  0  0999 V2000
   36.9800   30.8940   40.5720 C   0  0  1  0  0  0  0  0  0  0  0  0
   37.7680   32.1040   40.7790 C   0  0  0  0  0  0  0  0  0  0  0  0
   37.4820   32.8940   39.5100 C   0  0  0  0  0  0  0  0  0  0  0  0
   37.0670   31.8650   38.4680 C   0  0  0  0  0  0  0  0  0  0  0  0
   37.3170   30.5250   39.1150 C   0  0  2  0  0  0  0  0  0  0  0  0
   38.8810   28.9100   43.0510 C   0  0  0  0  0  0  0  0  0  0  0  0
   37.9380   27.8450   43.3490 C   0  0  0  0  0  0  0  0  0  0  0  0
   36.6760   27.8410   42.6740 C   0  0  0  0  0  0  0  0  0  0  0  0
   36.3850   28.8220   41.7750 N   0  0  0  0  0  0  0  0  0  0  0  0
   37.3080   29.7900   41.5390 C   0  0  0  0  0  0  0  0  0  0  0  0
   38.5310   29.8510   42.1510 N   0  0  0  0  0  0  0  0  0  0  0  0
   36.4840   29.4640   38.5850 C   0  0  0  0  0  0  0  0  0  0  0  0
   35.1530   29.2510   38.2540 C   0  0  0  0  0  0  0  0  0  0  0  0
   34.7540   28.0630   37.7740 C   0  0  0  0  0  0  0  0  0  0  0  0
   35.6840   27.0570   37.6150 C   0  0  0  0  0  0  0  0  0  0  0  0
   37.2560   27.8570   38.1930 S   0  0  0  0  0  0  0  0  0  0  0  0
   35.5560   25.7100   37.1270 C   0  0  0  0  0  0  0  0  0  0  0  0
   34.9740   25.5920   35.8670 F   0  0  0  0  0  0  0  0  0  0  0  0
   36.8040   25.1910   37.0810 F   0  0  0  0  0  0  0  0  0  0  0  0
   34.7940   24.9920   38.0620 F   0  0  0  0  0  0  0  0  0  0  0  0
   33.3930   27.8060   37.4230 N   0  0  0  0  0  0  0  0  0  0  0  0
   35.9060   31.0525   40.7489 H   0  0  0  0  0  0  0  0  0  0  0  0
   37.4329   32.6502   41.6731 H   0  0  0  0  0  0  0  0  0  0  0  0
   38.8377   31.9112   40.9478 H   0  0  0  0  0  0  0  0  0  0  0  0
   36.6690   33.6147   39.6821 H   0  0  0  0  0  0  0  0  0  0  0  0
   38.3607   33.4699   39.1839 H   0  0  0  0  0  0  0  0  0  0  0  0
   37.6734   31.9726   37.5566 H   0  0  0  0  0  0  0  0  0  0  0  0
   36.0164   31.9863   38.1656 H   0  0  0  0  0  0  0  0  0  0  0  0
   38.3233   30.1100   38.9562 H   0  0  0  0  0  0  0  0  0  0  0  0
   39.8607   28.9476   43.5497 H   0  0  0  0  0  0  0  0  0  0  0  0
   38.1887   27.0595   44.0771 H   0  0  0  0  0  0  0  0  0  0  0  0
   35.9428   27.0475   42.8807 H   0  0  0  0  0  0  0  0  0  0  0  0
   34.4206   30.0611   38.3859 H   0  0  0  0  0  0  0  0  0  0  0  0
   33.1211   26.8823   37.0572 H   0  0  0  0  0  0  0  0  0  0  0  0
   32.6838   28.5444   37.5357 H   0  0  0  0  0  0  0  0  0  0  0  0
  1  2  1  0
  1 10  1  0
  3  2  1  0
  4  5  1  0
  4  3  1  0
  5  1  1  0
  6  7  2  0
  8  7  1  0
  9  8  2  0
 10  9  1  0
 10 11  2  0
 11  6  1  0
 12  5  1  0
 13 12  2  0
 14 13  1  0
 15 14  2  0
 15 16  1  0
 16 12  1  0
 17 15  1  0
 17 20  1  0
 18 17  1  0
 19 17  1  0
 21 14  1  0
  1 22  1  6
  2 23  1  0
  2 24  1  0
  3 25  1  0
  3 26  1  0
  4 27  1  0
  4 28  1  0
  5 29  1  1
  6 30  1  0
  7 31  1  0
  8 32  1  0
 13 33  1  0
 21 34  1  0
 21 35  1  0
M  ISO  8  22  13  23  13  24  13  25  13  26  13  27  13  28  13  29  13
M  ISO  4  30  14  31  14  32  14  33  14
M  END
>  <minimizedAffinity>  (1) 
-4.86184978

>  <minimizedRMSD>  (1) 
0.590838552

$$$$
