
     RDKit          3D

 40 43  0  0  1  0  0  0  0  0999 V2000
   36.9440   31.1490   40.2010 C   0  0  1  0  0  0  0  0  0  0  0  0
   37.4460   32.4420   40.6520 C   0  0  0  0  0  0  0  0  0  0  0  0
   37.3750   33.2760   39.3750 C   0  0  0  0  0  0  0  0  0  0  0  0
   37.3950   32.2790   38.2300 C   0  0  0  0  0  0  0  0  0  0  0  0
   37.6900   30.9450   38.8690 C   0  0  2  0  0  0  0  0  0  0  0  0
   38.5700   29.1920   42.8860 C   0  0  0  0  0  0  0  0  0  0  0  0
   37.6480   28.0720   43.0130 C   0  0  0  0  0  0  0  0  0  0  0  0
   36.4970   28.0190   42.1620 C   0  0  0  0  0  0  0  0  0  0  0  0
   36.2880   29.0120   41.2520 N   0  0  0  0  0  0  0  0  0  0  0  0
   37.1840   30.0320   41.1790 C   0  0  0  0  0  0  0  0  0  0  0  0
   38.3020   30.1380   41.9650 N   0  0  0  0  0  0  0  0  0  0  0  0
   37.1950   29.8170   38.0980 C   0  0  0  0  0  0  0  0  0  0  0  0
   35.9890   29.3640   37.5760 C   0  0  0  0  0  0  0  0  0  0  0  0
   35.9490   28.2020   36.9070 C   0  0  0  0  0  0  0  0  0  0  0  0
   37.1020   27.4680   36.7390 C   0  0  0  0  0  0  0  0  0  0  0  0
   38.3680   28.5100   37.6090 S   0  0  0  0  0  0  0  0  0  0  0  0
   34.7290   27.6980   36.3550 N   0  0  0  0  0  0  0  0  0  0  0  0
   34.1650   27.9340   35.1870 N   0  0  0  0  0  0  0  0  0  0  0  0
   33.0080   27.2530   35.0600 C   0  0  0  0  0  0  0  0  0  0  0  0
   32.8500   26.5520   36.2290 C   0  0  0  0  0  0  0  0  0  0  0  0
   33.9390   26.8300   37.0540 C   0  0  0  0  0  0  0  0  0  0  0  0
   37.3500   26.2210   36.0710 C   0  0  0  0  0  0  0  0  0  0  0  0
   36.7480   26.0960   34.8200 F   0  0  0  0  0  0  0  0  0  0  0  0
   38.6910   26.1120   35.9290 F   0  0  0  0  0  0  0  0  0  0  0  0
   36.8870   25.1890   36.9010 F   0  0  0  0  0  0  0  0  0  0  0  0
   35.8491   31.1364   40.0960 H   0  0  0  0  0  0  0  0  0  0  0  0
   36.8071   32.8651   41.4412 H   0  0  0  0  0  0  0  0  0  0  0  0
   38.4517   32.3961   41.0952 H   0  0  0  0  0  0  0  0  0  0  0  0
   36.4468   33.8658   39.3535 H   0  0  0  0  0  0  0  0  0  0  0  0
   38.2115   33.9871   39.3081 H   0  0  0  0  0  0  0  0  0  0  0  0
   38.1796   32.5408   37.5048 H   0  0  0  0  0  0  0  0  0  0  0  0
   36.4431   32.2682   37.6789 H   0  0  0  0  0  0  0  0  0  0  0  0
   38.7568   30.6934   38.9625 H   0  0  0  0  0  0  0  0  0  0  0  0
   39.4621   29.2637   43.5255 H   0  0  0  0  0  0  0  0  0  0  0  0
   37.8328   27.2782   43.7517 H   0  0  0  0  0  0  0  0  0  0  0  0
   35.7868   27.1828   42.2423 H   0  0  0  0  0  0  0  0  0  0  0  0
   35.0716   29.9557   37.7109 H   0  0  0  0  0  0  0  0  0  0  0  0
   32.3287   27.2584   34.1948 H   0  0  0  0  0  0  0  0  0  0  0  0
   32.0094   25.8858   36.4730 H   0  0  0  0  0  0  0  0  0  0  0  0
   34.1243   26.4315   38.0624 H   0  0  0  0  0  0  0  0  0  0  0  0
  1  2  1  0
  1 10  1  0
  3  2  1  0
  4  5  1  0
  4  3  1  0
  5  1  1  0
  6  7  2  0
  8  7  1  0
  9  8  2  0
 10  9  1  0
 10 11  2  0
 11  6  1  0
 12  5  1  0
 13 12  2  0
 14 13  1  0
 15 14  2  0
 15 16  1  0
 16 12  1  0
 17 14  1  0
 17 21  1  0
 18 17  1  0
 19 18  2  0
 19 20  1  0
 20 21  2  0
 22 15  1  0
 22 25  1  0
 23 22  1  0
 24 22  1  0
  1 26  1  6
  2 27  1  0
  2 28  1  0
  3 29  1  0
  3 30  1  0
  4 31  1  0
  4 32  1  0
  5 33  1  1
  6 34  1  0
  7 35  1  0
  8 36  1  0
 13 37  1  0
 19 38  1  0
 20 39  1  0
 21 40  1  0
M  ISO  8  26  13  27  13  28  13  29  13  30  13  31  13  32  13  33  13
M  ISO  7  34  14  35  14  36  14  37  14  38  14  39  14  40  14
M  END
>  <minimizedAffinity>  (1) 
-4.83280945

>  <minimizedRMSD>  (1) 
1.9036026

$$$$
