
     RDKit          3D

 35 37  0  0  1  0  0  0  0  0999 V2000
   37.0190   30.9720   40.5530 C   0  0  1  0  0  0  0  0  0  0  0  0
   37.8250   32.1580   40.8170 C   0  0  0  0  0  0  0  0  0  0  0  0
   37.6310   32.9730   39.5460 C   0  0  0  0  0  0  0  0  0  0  0  0
   37.1910   31.9900   38.4810 C   0  0  0  0  0  0  0  0  0  0  0  0
   37.3870   30.6250   39.1020 C   0  0  2  0  0  0  0  0  0  0  0  0
   38.7690   28.9010   43.0700 C   0  0  0  0  0  0  0  0  0  0  0  0
   37.7940   27.8440   43.2940 C   0  0  0  0  0  0  0  0  0  0  0  0
   36.5680   27.8750   42.5580 C   0  0  0  0  0  0  0  0  0  0  0  0
   36.3300   28.8800   41.6700 N   0  0  0  0  0  0  0  0  0  0  0  0
   37.2860   29.8430   41.5070 C   0  0  0  0  0  0  0  0  0  0  0  0
   38.4800   29.8690   42.1790 N   0  0  0  0  0  0  0  0  0  0  0  0
   36.5390   29.5930   38.5150 C   0  0  0  0  0  0  0  0  0  0  0  0
   35.2580   29.4440   38.0840 C   0  0  0  0  0  0  0  0  0  0  0  0
   34.8470   28.2650   37.5720 C   0  0  0  0  0  0  0  0  0  0  0  0
   35.7300   27.2250   37.4930 C   0  0  0  0  0  0  0  0  0  0  0  0
   37.2740   27.9580   38.1970 S   0  0  0  0  0  0  0  0  0  0  0  0
   35.5760   25.8910   37.0080 C   0  0  0  0  0  0  0  0  0  0  0  0
   35.1930   25.7740   35.6800 F   0  0  0  0  0  0  0  0  0  0  0  0
   36.7960   25.2760   37.1430 F   0  0  0  0  0  0  0  0  0  0  0  0
   34.6760   25.2120   37.8220 F   0  0  0  0  0  0  0  0  0  0  0  0
   33.4710   28.2870   37.1600 C   0  0  0  0  0  0  0  0  0  0  0  0
   32.5030   29.0140   37.1120 O   0  0  0  0  0  0  0  0  0  0  0  0
   35.9435   31.1539   40.6950 H   0  0  0  0  0  0  0  0  0  0  0  0
   37.4560   32.7020   41.6990 H   0  0  0  0  0  0  0  0  0  0  0  0
   38.8787   31.9334   41.0392 H   0  0  0  0  0  0  0  0  0  0  0  0
   36.8588   33.7413   39.6991 H   0  0  0  0  0  0  0  0  0  0  0  0
   38.5562   33.4927   39.2562 H   0  0  0  0  0  0  0  0  0  0  0  0
   37.8098   32.0961   37.5778 H   0  0  0  0  0  0  0  0  0  0  0  0
   36.1489   32.1566   38.1707 H   0  0  0  0  0  0  0  0  0  0  0  0
   38.3848   30.1829   38.9641 H   0  0  0  0  0  0  0  0  0  0  0  0
   39.7230   28.9093   43.6175 H   0  0  0  0  0  0  0  0  0  0  0  0
   37.9958   27.0378   44.0146 H   0  0  0  0  0  0  0  0  0  0  0  0
   35.8164   27.0862   42.7093 H   0  0  0  0  0  0  0  0  0  0  0  0
   34.5547   30.2870   38.1529 H   0  0  0  0  0  0  0  0  0  0  0  0
   33.2039   27.3041   36.7445 H   0  0  0  0  0  0  0  0  0  0  0  0
  1  2  1  0
  1 10  1  0
  3  2  1  0
  4  5  1  0
  4  3  1  0
  5  1  1  0
  6  7  2  0
  8  7  1  0
  9  8  2  0
 10  9  1  0
 10 11  2  0
 11  6  1  0
 12  5  1  0
 13 12  2  0
 14 13  1  0
 15 14  2  0
 15 16  1  0
 16 12  1  0
 17 19  1  0
 17 15  1  0
 17 20  1  0
 18 17  1  0
 21 14  1  0
 22 21  2  0
  1 23  1  6
  2 24  1  0
  2 25  1  0
  3 26  1  0
  3 27  1  0
  4 28  1  0
  4 29  1  0
  5 30  1  1
  6 31  1  0
  7 32  1  0
  8 33  1  0
 13 34  1  0
 21 35  1  0
M  ISO  8  23  13  24  13  25  13  26  13  27  13  28  13  29  13  30  13
M  ISO  5  31  14  32  14  33  14  34  14  35   6
M  END
>  <minimizedAffinity>  (1) 
-4.67281961

>  <minimizedRMSD>  (1) 
0.61463058

$$$$
