
     RDKit          3D

 36 38  0  0  1  0  0  0  0  0999 V2000
   37.4360   31.2690   40.6350 C   0  0  1  0  0  0  0  0  0  0  0  0
   38.1620   32.5190   40.8310 C   0  0  0  0  0  0  0  0  0  0  0  0
   37.7630   33.3250   39.6020 C   0  0  0  0  0  0  0  0  0  0  0  0
   37.2960   32.3070   38.5740 C   0  0  0  0  0  0  0  0  0  0  0  0
   37.6970   30.9670   39.1450 C   0  0  2  0  0  0  0  0  0  0  0  0
   39.7280   29.0260   42.4800 C   0  0  0  0  0  0  0  0  0  0  0  0
   38.7830   28.2020   43.2200 C   0  0  0  0  0  0  0  0  0  0  0  0
   37.3830   28.4400   43.0500 C   0  0  0  0  0  0  0  0  0  0  0  0
   36.9620   29.4240   42.2060 N   0  0  0  0  0  0  0  0  0  0  0  0
   37.8920   30.1600   41.5430 C   0  0  0  0  0  0  0  0  0  0  0  0
   39.2450   29.9810   41.6630 N   0  0  0  0  0  0  0  0  0  0  0  0
   36.8880   29.8700   38.6380 C   0  0  0  0  0  0  0  0  0  0  0  0
   35.5700   29.6250   38.2810 C   0  0  0  0  0  0  0  0  0  0  0  0
   35.2010   28.4090   37.8460 C   0  0  0  0  0  0  0  0  0  0  0  0
   36.1480   27.4110   37.7570 C   0  0  0  0  0  0  0  0  0  0  0  0
   37.6880   28.2600   38.3400 S   0  0  0  0  0  0  0  0  0  0  0  0
   36.0560   26.0420   37.3270 C   0  0  0  0  0  0  0  0  0  0  0  0
   35.5420   25.8590   36.0480 F   0  0  0  0  0  0  0  0  0  0  0  0
   37.3060   25.5260   37.3820 F   0  0  0  0  0  0  0  0  0  0  0  0
   35.2400   25.3610   38.2500 F   0  0  0  0  0  0  0  0  0  0  0  0
   33.7990   28.0950   37.4510 C   0  0  0  0  0  0  0  0  0  0  0  0
   36.3683   31.3529   40.8858 H   0  0  0  0  0  0  0  0  0  0  0  0
   37.8457   33.0220   41.7567 H   0  0  0  0  0  0  0  0  0  0  0  0
   39.2488   32.3845   40.9346 H   0  0  0  0  0  0  0  0  0  0  0  0
   36.9485   34.0219   39.8486 H   0  0  0  0  0  0  0  0  0  0  0  0
   38.6013   33.9282   39.2232 H   0  0  0  0  0  0  0  0  0  0  0  0
   37.7903   32.4791   37.6065 H   0  0  0  0  0  0  0  0  0  0  0  0
   36.2136   32.3715   38.3891 H   0  0  0  0  0  0  0  0  0  0  0  0
   38.7147   30.6297   38.8992 H   0  0  0  0  0  0  0  0  0  0  0  0
   40.8120   28.8719   42.5860 H   0  0  0  0  0  0  0  0  0  0  0  0
   39.1390   27.4114   43.8970 H   0  0  0  0  0  0  0  0  0  0  0  0
   36.6489   27.8313   43.5982 H   0  0  0  0  0  0  0  0  0  0  0  0
   34.8240   30.4300   38.3545 H   0  0  0  0  0  0  0  0  0  0  0  0
   33.1857   27.9576   38.3538 H   0  0  0  0  0  0  0  0  0  0  0  0
   33.3918   28.9242   36.8538 H   0  0  0  0  0  0  0  0  0  0  0  0
   33.7844   27.1713   36.8538 H   0  0  0  0  0  0  0  0  0  0  0  0
  1  2  1  0
  1 10  1  0
  3  2  1  0
  4  5  1  0
  4  3  1  0
  5  1  1  0
  6  7  2  0
  8  7  1  0
  9  8  2  0
 10 11  2  0
 10  9  1  0
 11  6  1  0
 12  5  1  0
 13 12  2  0
 14 13  1  0
 15 14  2  0
 15 16  1  0
 16 12  1  0
 17 19  1  0
 17 15  1  0
 17 20  1  0
 18 17  1  0
 21 14  1  0
  1 22  1  6
  2 23  1  0
  2 24  1  0
  3 25  1  0
  3 26  1  0
  4 27  1  0
  4 28  1  0
  5 29  1  1
  6 30  1  0
  7 31  1  0
  8 32  1  0
 13 33  1  0
 21 34  1  0
 21 35  1  0
 21 36  1  0
M  ISO  8  22  13  23  13  24  13  25  13  26  13  27  13  28  13  29  13
M  ISO  7  30  14  31  14  32  14  33  14  34   8  35   8  36   8
M  END
>  <minimizedAffinity>  (1) 
-4.62282181

>  <minimizedRMSD>  (1) 
0.99318397

$$$$
