
     RDKit          3D

 46 49  0  0  1  0  0  0  0  0999 V2000
   36.6390   30.3200   40.4110 C   0  0  1  0  0  0  0  0  0  0  0  0
   37.1860   31.6550   40.5340 C   0  0  0  0  0  0  0  0  0  0  0  0
   37.0130   32.2070   39.1140 C   0  0  0  0  0  0  0  0  0  0  0  0
   36.9630   30.9930   38.2050 C   0  0  0  0  0  0  0  0  0  0  0  0
   37.2940   29.8170   39.0870 C   0  0  2  0  0  0  0  0  0  0  0  0
   38.4360   29.0010   43.3770 C   0  0  0  0  0  0  0  0  0  0  0  0
   37.5930   27.8730   43.7330 C   0  0  0  0  0  0  0  0  0  0  0  0
   36.4330   27.5950   42.9310 C   0  0  0  0  0  0  0  0  0  0  0  0
   36.1310   28.3830   41.8480 N   0  0  0  0  0  0  0  0  0  0  0  0
   36.9620   29.4190   41.5760 C   0  0  0  0  0  0  0  0  0  0  0  0
   38.0910   29.7430   42.3030 N   0  0  0  0  0  0  0  0  0  0  0  0
   36.7380   28.5660   38.6210 C   0  0  0  0  0  0  0  0  0  0  0  0
   37.0930   27.2360   38.5670 C   0  0  0  0  0  0  0  0  0  0  0  0
   36.2890   26.2990   38.0230 C   0  0  0  0  0  0  0  0  0  0  0  0
   35.0890   26.7210   37.5190 C   0  0  0  0  0  0  0  0  0  0  0  0
   35.1030   28.5500   37.8340 S   0  0  0  0  0  0  0  0  0  0  0  0
   33.9900   26.0140   36.8920 C   0  0  0  0  0  0  0  0  0  0  0  0
   33.4950   24.9370   37.6320 F   0  0  0  0  0  0  0  0  0  0  0  0
   32.9890   26.8900   36.7050 F   0  0  0  0  0  0  0  0  0  0  0  0
   34.4450   25.5530   35.6640 F   0  0  0  0  0  0  0  0  0  0  0  0
   36.6950   24.5760   37.9620 S   0  0  0  0  0  0  0  0  0  0  0  0
   38.5690   24.1840   39.8090 N   0  0  0  0  0  0  0  0  0  0  0  0
   38.5470   24.8250   41.1000 C   0  0  0  0  0  0  0  0  0  0  0  0
   37.3630   24.1690   41.7700 C   0  0  0  0  0  0  0  0  0  0  0  0
   36.3600   24.1290   40.6640 C   0  0  0  0  0  0  0  0  0  0  0  0
   37.2360   23.8310   39.4700 C   0  0  1  0  0  0  0  0  0  0  0  0
   35.5390   30.3177   40.4011 H   0  0  0  0  0  0  0  0  0  0  0  0
   36.6214   32.2517   41.2656 H   0  0  0  0  0  0  0  0  0  0  0  0
   38.2258   31.6752   40.8924 H   0  0  0  0  0  0  0  0  0  0  0  0
   36.0786   32.7823   39.0373 H   0  0  0  0  0  0  0  0  0  0  0  0
   37.8336   32.8862   38.8396 H   0  0  0  0  0  0  0  0  0  0  0  0
   37.7026   31.0874   37.3962 H   0  0  0  0  0  0  0  0  0  0  0  0
   35.9786   30.8809   37.7270 H   0  0  0  0  0  0  0  0  0  0  0  0
   38.3638   29.5686   39.1488 H   0  0  0  0  0  0  0  0  0  0  0  0
   39.3320   29.2444   43.9669 H   0  0  0  0  0  0  0  0  0  0  0  0
   37.8379   27.2429   44.6007 H   0  0  0  0  0  0  0  0  0  0  0  0
   35.7829   26.7453   43.1866 H   0  0  0  0  0  0  0  0  0  0  0  0
   38.0643   26.9277   38.9812 H   0  0  0  0  0  0  0  0  0  0  0  0
   38.9489   24.8316   39.1039 H   0  0  0  0  0  0  0  0  0  0  0  0
   39.4762   24.6313   41.6560 H   0  0  0  0  0  0  0  0  0  0  0  0
   38.4681   25.9208   41.0444 H   0  0  0  0  0  0  0  0  0  0  0  0
   37.6126   23.1563   42.1195 H   0  0  0  0  0  0  0  0  0  0  0  0
   37.0118   24.7002   42.6669 H   0  0  0  0  0  0  0  0  0  0  0  0
   35.6167   23.3342   40.8248 H   0  0  0  0  0  0  0  0  0  0  0  0
   35.7664   25.0498   40.5648 H   0  0  0  0  0  0  0  0  0  0  0  0
   37.1707   22.7548   39.2521 H   0  0  0  0  0  0  0  0  0  0  0  0
  1  2  1  0
  1 10  1  0
  3  2  1  0
  4  5  1  0
  4  3  1  0
  5  1  1  0
  6  7  2  0
  8  7  1  0
  9  8  2  0
 10  9  1  0
 10 11  2  0
 11  6  1  0
 12  5  1  0
 13 12  2  0
 14 13  1  0
 15 16  1  0
 15 14  2  0
 16 12  1  0
 17 15  1  0
 17 18  1  0
 19 17  1  0
 20 17  1  0
 21 14  1  0
 22 23  1  0
 23 24  1  0
 25 24  1  0
 26 21  1  0
 26 22  1  0
 26 25  1  0
  1 27  1  6
  2 28  1  0
  2 29  1  0
  3 30  1  0
  3 31  1  0
  4 32  1  0
  4 33  1  0
  5 34  1  1
  6 35  1  0
  7 36  1  0
  8 37  1  0
 13 38  1  0
 22 39  1  0
 23 40  1  0
 23 41  1  0
 24 42  1  0
 24 43  1  0
 25 44  1  0
 25 45  1  0
 26 46  1  6
M  ISO  8  27  13  28  13  29  13  30  13  31  13  32  13  33  13  34  13
M  ISO  8  35  14  36  14  37  14  38  14  39   5  40  13  41  13  42  13
M  ISO  4  43  13  44  13  45  13  46  13
M  END
>  <minimizedAffinity>  (1) 
-5.3458209

>  <minimizedRMSD>  (1) 
3.65121746

$$$$
