
     RDKit          3D

 46 48  0  0  1  0  0  0  0  0999 V2000
   36.8580   30.8990   40.3660 C   0  0  1  0  0  0  0  0  0  0  0  0
   37.5010   32.1750   40.5710 C   0  0  0  0  0  0  0  0  0  0  0  0
   37.3120   32.8670   39.2190 C   0  0  0  0  0  0  0  0  0  0  0  0
   37.1190   31.7390   38.2140 C   0  0  0  0  0  0  0  0  0  0  0  0
   37.3980   30.4670   38.9730 C   0  0  2  0  0  0  0  0  0  0  0  0
   38.6900   29.1980   43.1060 C   0  0  0  0  0  0  0  0  0  0  0  0
   37.7730   28.1030   43.4190 C   0  0  0  0  0  0  0  0  0  0  0  0
   36.5590   27.9880   42.6630 C   0  0  0  0  0  0  0  0  0  0  0  0
   36.2700   28.8860   41.6710 N   0  0  0  0  0  0  0  0  0  0  0  0
   37.1710   29.8780   41.4360 C   0  0  0  0  0  0  0  0  0  0  0  0
   38.3600   30.0570   42.1180 N   0  0  0  0  0  0  0  0  0  0  0  0
   36.7280   29.3030   38.4370 C   0  0  0  0  0  0  0  0  0  0  0  0
   35.5150   28.9880   37.8520 C   0  0  0  0  0  0  0  0  0  0  0  0
   35.2230   27.7320   37.4670 C   0  0  0  0  0  0  0  0  0  0  0  0
   36.1700   26.7680   37.6740 C   0  0  0  0  0  0  0  0  0  0  0  0
   37.5500   27.6960   38.4580 S   0  0  0  0  0  0  0  0  0  0  0  0
   36.1660   25.3480   37.3760 C   0  0  0  0  0  0  0  0  0  0  0  0
   35.9070   25.0220   36.0460 F   0  0  0  0  0  0  0  0  0  0  0  0
   37.4090   24.8870   37.6820 F   0  0  0  0  0  0  0  0  0  0  0  0
   35.2230   24.7450   38.2120 F   0  0  0  0  0  0  0  0  0  0  0  0
   33.6520   27.2880   36.7130 S   0  0  0  0  0  0  0  0  0  0  0  0
   33.5090   27.8590   35.0220 C   0  0  0  0  0  0  0  0  0  0  0  0
   34.8540   27.8020   34.3470 C   0  0  0  0  0  0  0  0  0  0  0  0
   32.4090   27.1700   34.2480 C   0  0  0  0  0  0  0  0  0  0  0  0
   33.1180   29.3490   35.0090 C   0  0  0  0  0  0  0  0  0  0  0  0
   35.7618   30.9749   40.4163 H   0  0  0  0  0  0  0  0  0  0  0  0
   37.0122   32.7405   41.3780 H   0  0  0  0  0  0  0  0  0  0  0  0
   38.5549   32.0894   40.8744 H   0  0  0  0  0  0  0  0  0  0  0  0
   36.4267   33.5196   39.2405 H   0  0  0  0  0  0  0  0  0  0  0  0
   38.1707   33.5041   38.9607 H   0  0  0  0  0  0  0  0  0  0  0  0
   37.8223   31.8477   37.3752 H   0  0  0  0  0  0  0  0  0  0  0  0
   36.1054   31.7438   37.7868 H   0  0  0  0  0  0  0  0  0  0  0  0
   38.4460   30.1336   38.9504 H   0  0  0  0  0  0  0  0  0  0  0  0
   39.6300   29.3195   43.6643 H   0  0  0  0  0  0  0  0  0  0  0  0
   38.0087   27.3831   44.2166 H   0  0  0  0  0  0  0  0  0  0  0  0
   35.8549   27.1718   42.8822 H   0  0  0  0  0  0  0  0  0  0  0  0
   34.7709   29.7833   37.6977 H   0  0  0  0  0  0  0  0  0  0  0  0
   35.6459   27.7684   35.1097 H   0  0  0  0  0  0  0  0  0  0  0  0
   34.9112   26.9006   33.7191 H   0  0  0  0  0  0  0  0  0  0  0  0
   34.9873   28.6953   33.7191 H   0  0  0  0  0  0  0  0  0  0  0  0
   31.6920   26.7209   34.9509 H   0  0  0  0  0  0  0  0  0  0  0  0
   31.8904   27.9050   33.6148 H   0  0  0  0  0  0  0  0  0  0  0  0
   32.8439   26.3826   33.6148 H   0  0  0  0  0  0  0  0  0  0  0  0
   33.0227   29.7121   36.0430 H   0  0  0  0  0  0  0  0  0  0  0  0
   33.8948   29.9274   34.4874 H   0  0  0  0  0  0  0  0  0  0  0  0
   32.1573   29.4714   34.4874 H   0  0  0  0  0  0  0  0  0  0  0  0
  1  2  1  0
  1 10  1  0
  3  2  1  0
  4  5  1  0
  4  3  1  0
  5  1  1  0
  6  7  2  0
  8  7  1  0
  9  8  2  0
 10  9  1  0
 10 11  2  0
 11  6  1  0
 12 16  1  0
 12  5  1  0
 13 12  2  0
 14 15  2  0
 14 13  1  0
 15 16  1  0
 17 15  1  0
 17 19  1  0
 17 20  1  0
 18 17  1  0
 21 14  1  0
 22 21  1  0
 23 22  1  0
 24 22  1  0
 25 22  1  0
  1 26  1  6
  2 27  1  0
  2 28  1  0
  3 29  1  0
  3 30  1  0
  4 31  1  0
  4 32  1  0
  5 33  1  1
  6 34  1  0
  7 35  1  0
  8 36  1  0
 13 37  1  0
 23 38  1  0
 23 39  1  0
 23 40  1  0
 24 41  1  0
 24 42  1  0
 24 43  1  0
 25 44  1  0
 25 45  1  0
 25 46  1  0
M  ISO  8  26  13  27  13  28  13  29  13  30  13  31  13  32  13  33  13
M  ISO  8  34  14  35  14  36  14  37  14  38   8  39   8  40   8  41   8
M  ISO  5  42   8  43   8  44   8  45   8  46   8
M  END
>  <minimizedAffinity>  (1) 
-4.73865461

>  <minimizedRMSD>  (1) 
0.433329821

$$$$
