
     RDKit          3D

 40 42  0  0  1  0  0  0  0  0999 V2000
   36.9780   31.2340   40.3460 C   0  0  1  0  0  0  0  0  0  0  0  0
   37.6340   32.4670   40.7640 C   0  0  0  0  0  0  0  0  0  0  0  0
   37.4930   33.3430   39.5250 C   0  0  0  0  0  0  0  0  0  0  0  0
   37.3030   32.3850   38.3650 C   0  0  0  0  0  0  0  0  0  0  0  0
   37.5660   31.0110   38.9420 C   0  0  2  0  0  0  0  0  0  0  0  0
   38.6370   29.1270   42.8920 C   0  0  0  0  0  0  0  0  0  0  0  0
   37.6820   28.0440   43.0270 C   0  0  0  0  0  0  0  0  0  0  0  0
   36.5140   28.0550   42.2160 C   0  0  0  0  0  0  0  0  0  0  0  0
   36.2940   29.0850   41.3420 N   0  0  0  0  0  0  0  0  0  0  0  0
   37.2210   30.0800   41.2740 C   0  0  0  0  0  0  0  0  0  0  0  0
   38.3710   30.1210   42.0180 N   0  0  0  0  0  0  0  0  0  0  0  0
   36.9370   29.9390   38.2050 C   0  0  0  0  0  0  0  0  0  0  0  0
   35.6600   29.5180   37.9060 C   0  0  0  0  0  0  0  0  0  0  0  0
   35.4410   28.4160   37.1630 C   0  0  0  0  0  0  0  0  0  0  0  0
   36.5420   27.7170   36.7160 C   0  0  0  0  0  0  0  0  0  0  0  0
   37.9640   28.6790   37.3930 S   0  0  0  0  0  0  0  0  0  0  0  0
   36.6520   26.5190   35.9140 C   0  0  0  0  0  0  0  0  0  0  0  0
   36.0130   26.5720   34.6800 F   0  0  0  0  0  0  0  0  0  0  0  0
   37.9720   26.3020   35.7060 F   0  0  0  0  0  0  0  0  0  0  0  0
   36.1310   25.4580   36.6670 F   0  0  0  0  0  0  0  0  0  0  0  0
   33.8070   27.8340   36.7300 S   0  0  0  0  0  0  0  0  0  0  0  0
   32.7410   29.1650   36.1410 C   0  0  0  0  0  0  0  0  0  0  0  0
   31.7280   29.5990   37.1620 C   0  0  0  0  0  0  0  0  0  0  0  0
   35.8806   31.3093   40.3543 H   0  0  0  0  0  0  0  0  0  0  0  0
   37.1250   32.9158   41.6297 H   0  0  0  0  0  0  0  0  0  0  0  0
   38.6756   32.3250   41.0880 H   0  0  0  0  0  0  0  0  0  0  0  0
   36.6208   34.0064   39.6215 H   0  0  0  0  0  0  0  0  0  0  0  0
   38.3733   33.9865   39.3803 H   0  0  0  0  0  0  0  0  0  0  0  0
   38.0170   32.6084   37.5586 H   0  0  0  0  0  0  0  0  0  0  0  0
   36.2971   32.4625   37.9267 H   0  0  0  0  0  0  0  0  0  0  0  0
   38.6153   30.6817   38.9195 H   0  0  0  0  0  0  0  0  0  0  0  0
   39.5601   29.1384   43.4901 H   0  0  0  0  0  0  0  0  0  0  0  0
   37.8580   27.2286   43.7440 H   0  0  0  0  0  0  0  0  0  0  0  0
   35.7858   27.2340   42.2912 H   0  0  0  0  0  0  0  0  0  0  0  0
   34.8013   30.0937   38.2818 H   0  0  0  0  0  0  0  0  0  0  0  0
   33.3699   30.0293   35.8813 H   0  0  0  0  0  0  0  0  0  0  0  0
   32.1884   28.7838   35.2696 H   0  0  0  0  0  0  0  0  0  0  0  0
   32.1286   29.4274   38.1720 H   0  0  0  0  0  0  0  0  0  0  0  0
   31.5105   30.6693   37.0308 H   0  0  0  0  0  0  0  0  0  0  0  0
   30.8031   29.0181   37.0308 H   0  0  0  0  0  0  0  0  0  0  0  0
  1  2  1  0
  1 10  1  0
  3  2  1  0
  4  5  1  0
  4  3  1  0
  5  1  1  0
  6  7  2  0
  8  7  1  0
  9  8  2  0
 10  9  1  0
 10 11  2  0
 11  6  1  0
 12  5  1  0
 13 12  2  0
 14 13  1  0
 15 14  2  0
 15 16  1  0
 16 12  1  0
 17 20  1  0
 17 15  1  0
 18 17  1  0
 19 17  1  0
 21 14  1  0
 22 21  1  0
 22 23  1  0
  1 24  1  6
  2 25  1  0
  2 26  1  0
  3 27  1  0
  3 28  1  0
  4 29  1  0
  4 30  1  0
  5 31  1  1
  6 32  1  0
  7 33  1  0
  8 34  1  0
 13 35  1  0
 22 36  1  0
 22 37  1  0
 23 38  1  0
 23 39  1  0
 23 40  1  0
M  ISO  8  24  13  25  13  26  13  27  13  28  13  29  13  30  13  31  13
M  ISO  8  32  14  33  14  34  14  35  14  36   8  37   8  38   8  39   8
M  ISO  1  40   8
M  END
>  <minimizedAffinity>  (1) 
-4.67087126

>  <minimizedRMSD>  (1) 
0.963504791

$$$$
