
     RDKit          3D

 41 44  0  0  1  0  0  0  0  0999 V2000
   36.7490   30.6140   40.3250 C   0  0  1  0  0  0  0  0  0  0  0  0
   37.3000   31.9370   40.5110 C   0  0  0  0  0  0  0  0  0  0  0  0
   37.1820   32.5370   39.1210 C   0  0  0  0  0  0  0  0  0  0  0  0
   37.1360   31.3590   38.1590 C   0  0  0  0  0  0  0  0  0  0  0  0
   37.4390   30.1490   39.0060 C   0  0  2  0  0  0  0  0  0  0  0  0
   38.4530   29.1560   43.2780 C   0  0  0  0  0  0  0  0  0  0  0  0
   37.5690   28.0400   43.5920 C   0  0  0  0  0  0  0  0  0  0  0  0
   36.4160   27.8240   42.7620 C   0  0  0  0  0  0  0  0  0  0  0  0
   36.1500   28.6520   41.6930 N   0  0  0  0  0  0  0  0  0  0  0  0
   37.0210   29.6680   41.4680 C   0  0  0  0  0  0  0  0  0  0  0  0
   38.1470   29.9360   42.2210 N   0  0  0  0  0  0  0  0  0  0  0  0
   36.8860   28.9170   38.4830 C   0  0  0  0  0  0  0  0  0  0  0  0
   35.7580   28.5010   37.8020 C   0  0  0  0  0  0  0  0  0  0  0  0
   35.5720   27.2180   37.4680 C   0  0  0  0  0  0  0  0  0  0  0  0
   36.5400   26.3220   37.8250 C   0  0  0  0  0  0  0  0  0  0  0  0
   37.7840   27.3660   38.6830 S   0  0  0  0  0  0  0  0  0  0  0  0
   36.6450   24.8880   37.6200 C   0  0  0  0  0  0  0  0  0  0  0  0
   36.6170   24.4650   36.3050 F   0  0  0  0  0  0  0  0  0  0  0  0
   37.8280   24.4980   38.1640 F   0  0  0  0  0  0  0  0  0  0  0  0
   35.5910   24.2810   38.3230 F   0  0  0  0  0  0  0  0  0  0  0  0
   34.1190   26.6360   36.5810 S   0  0  0  0  0  0  0  0  0  0  0  0
   34.5580   26.5770   34.8500 C   0  0  0  0  0  0  0  0  0  0  0  0
   33.4320   26.3010   34.0600 C   0  0  0  0  0  0  0  0  0  0  0  0
   33.8150   26.2640   32.7490 N   0  0  0  0  0  0  0  0  0  0  0  0
   35.1560   26.5150   32.7410 C   0  0  0  0  0  0  0  0  0  0  0  0
   35.5930   26.7010   33.9990 N   0  0  0  0  0  0  0  0  0  0  0  0
   35.6500   30.6248   40.2805 H   0  0  0  0  0  0  0  0  0  0  0  0
   36.7153   32.5123   41.2439 H   0  0  0  0  0  0  0  0  0  0  0  0
   38.3278   31.9342   40.9030 H   0  0  0  0  0  0  0  0  0  0  0  0
   36.2616   33.1337   39.0390 H   0  0  0  0  0  0  0  0  0  0  0  0
   38.0255   33.2069   38.8981 H   0  0  0  0  0  0  0  0  0  0  0  0
   37.8918   31.4762   37.3684 H   0  0  0  0  0  0  0  0  0  0  0  0
   36.1619   31.2761   37.6548 H   0  0  0  0  0  0  0  0  0  0  0  0
   38.5049   29.8892   39.0862 H   0  0  0  0  0  0  0  0  0  0  0  0
   39.3465   29.3567   43.8874 H   0  0  0  0  0  0  0  0  0  0  0  0
   37.7799   27.3783   44.4450 H   0  0  0  0  0  0  0  0  0  0  0  0
   35.7371   26.9871   42.9827 H   0  0  0  0  0  0  0  0  0  0  0  0
   34.9935   29.2427   37.5274 H   0  0  0  0  0  0  0  0  0  0  0  0
   32.4100   26.1409   34.4341 H   0  0  0  0  0  0  0  0  0  0  0  0
   35.7856   26.5587   31.8401 H   0  0  0  0  0  0  0  0  0  0  0  0
   36.5658   26.9059   34.2685 H   0  0  0  0  0  0  0  0  0  0  0  0
  1  2  1  0
  1 10  1  0
  3  2  1  0
  4  5  1  0
  4  3  1  0
  5  1  1  0
  6  7  2  0
  8  7  1  0
  9  8  2  0
 10  9  1  0
 10 11  2  0
 11  6  1  0
 12 16  1  0
 12  5  1  0
 13 12  2  0
 14 13  1  0
 14 15  2  0
 15 16  1  0
 17 15  1  0
 17 19  1  0
 17 20  1  0
 18 17  1  0
 21 14  1  0
 22 21  1  0
 23 22  2  0
 24 23  1  0
 25 24  2  0
 25 26  1  0
 26 22  1  0
  1 27  1  6
  2 28  1  0
  2 29  1  0
  3 30  1  0
  3 31  1  0
  4 32  1  0
  4 33  1  0
  5 34  1  1
  6 35  1  0
  7 36  1  0
  8 37  1  0
 13 38  1  0
 23 39  1  0
 25 40  1  0
 26 41  1  0
M  ISO  8  27  13  28  13  29  13  30  13  31  13  32  13  33  13  34  13
M  ISO  7  35  14  36  14  37  14  38  14  39  14  40  14  41   9
M  END
>  <minimizedAffinity>  (1) 
-4.65108871

>  <minimizedRMSD>  (1) 
1.32787275

$$$$
