
     RDKit          3D

 37 39  0  0  1  0  0  0  0  0999 V2000
   36.9140   31.0760   40.3840 C   0  0  1  0  0  0  0  0  0  0  0  0
   37.6310   32.2990   40.6670 C   0  0  0  0  0  0  0  0  0  0  0  0
   37.4760   33.0760   39.3660 C   0  0  0  0  0  0  0  0  0  0  0  0
   37.2100   32.0420   38.2890 C   0  0  0  0  0  0  0  0  0  0  0  0
   37.4320   30.7110   38.9600 C   0  0  2  0  0  0  0  0  0  0  0  0
   38.6310   29.1420   43.0420 C   0  0  0  0  0  0  0  0  0  0  0  0
   37.7000   28.0410   43.2390 C   0  0  0  0  0  0  0  0  0  0  0  0
   36.5130   28.0000   42.4370 C   0  0  0  0  0  0  0  0  0  0  0  0
   36.2530   28.9780   41.4990 N   0  0  0  0  0  0  0  0  0  0  0  0
   37.1740   29.9700   41.3790 C   0  0  0  0  0  0  0  0  0  0  0  0
   38.3390   30.0780   42.1130 N   0  0  0  0  0  0  0  0  0  0  0  0
   36.7000   29.6180   38.3530 C   0  0  0  0  0  0  0  0  0  0  0  0
   35.4350   29.3830   37.8510 C   0  0  0  0  0  0  0  0  0  0  0  0
   35.0910   28.1870   37.3460 C   0  0  0  0  0  0  0  0  0  0  0  0
   36.0350   27.1990   37.3410 C   0  0  0  0  0  0  0  0  0  0  0  0
   37.5010   28.0210   38.1010 S   0  0  0  0  0  0  0  0  0  0  0  0
   35.9890   25.8260   36.8780 C   0  0  0  0  0  0  0  0  0  0  0  0
   35.6010   25.6680   35.5440 F   0  0  0  0  0  0  0  0  0  0  0  0
   37.2430   25.3280   37.0110 F   0  0  0  0  0  0  0  0  0  0  0  0
   35.1140   25.1270   37.7070 F   0  0  0  0  0  0  0  0  0  0  0  0
   33.4640   27.8280   36.6810 S   0  0  0  0  0  0  0  0  0  0  0  0
   32.3910   29.2840   36.7740 C   0  0  0  0  0  0  0  0  0  0  0  0
   35.8238   31.2073   40.4483 H   0  0  0  0  0  0  0  0  0  0  0  0
   37.1776   32.8403   41.5105 H   0  0  0  0  0  0  0  0  0  0  0  0
   38.6786   32.1370   40.9606 H   0  0  0  0  0  0  0  0  0  0  0  0
   36.6321   33.7778   39.4385 H   0  0  0  0  0  0  0  0  0  0  0  0
   38.3753   33.6684   39.1416 H   0  0  0  0  0  0  0  0  0  0  0  0
   37.9073   32.1718   37.4482 H   0  0  0  0  0  0  0  0  0  0  0  0
   36.1951   32.1305   37.8741 H   0  0  0  0  0  0  0  0  0  0  0  0
   38.4630   30.3311   38.9083 H   0  0  0  0  0  0  0  0  0  0  0  0
   39.5534   29.2105   43.6373 H   0  0  0  0  0  0  0  0  0  0  0  0
   37.9025   27.2590   43.9856 H   0  0  0  0  0  0  0  0  0  0  0  0
   35.7975   27.1754   42.5714 H   0  0  0  0  0  0  0  0  0  0  0  0
   34.6921   30.1941   37.8651 H   0  0  0  0  0  0  0  0  0  0  0  0
   32.2054   29.5359   37.8286 H   0  0  0  0  0  0  0  0  0  0  0  0
   32.8810   30.1330   36.2750 H   0  0  0  0  0  0  0  0  0  0  0  0
   31.4349   29.0674   36.2750 H   0  0  0  0  0  0  0  0  0  0  0  0
  1  2  1  0
  1 10  1  0
  3  2  1  0
  4  5  1  0
  4  3  1  0
  5  1  1  0
  6  7  2  0
  8  7  1  0
  9  8  2  0
 10  9  1  0
 10 11  2  0
 11  6  1  0
 12  5  1  0
 13 12  2  0
 14 13  1  0
 15 14  2  0
 15 16  1  0
 16 12  1  0
 17 19  1  0
 17 15  1  0
 17 20  1  0
 18 17  1  0
 21 22  1  0
 21 14  1  0
  1 23  1  6
  2 24  1  0
  2 25  1  0
  3 26  1  0
  3 27  1  0
  4 28  1  0
  4 29  1  0
  5 30  1  1
  6 31  1  0
  7 32  1  0
  8 33  1  0
 13 34  1  0
 22 35  1  0
 22 36  1  0
 22 37  1  0
M  ISO  8  23  13  24  13  25  13  26  13  27  13  28  13  29  13  30  13
M  ISO  7  31  14  32  14  33  14  34  14  35   8  36   8  37   8
M  END
>  <minimizedAffinity>  (1) 
-4.62265778

>  <minimizedRMSD>  (1) 
0.0918700993

$$$$
