
     RDKit          3D

 27 29  0  0  0  0  0  0  0  0999 V2000
   37.1780   29.2640   39.7790 C   0  0  0  0  0  0  0  0  0  0  0  0
   36.1400   29.3860   38.8630 C   0  0  0  0  0  0  0  0  0  0  0  0
   36.2850   30.1350   37.7080 C   0  0  0  0  0  0  0  0  0  0  0  0
   37.4830   30.7380   37.5170 N   0  0  0  0  0  0  0  0  0  0  0  0
   38.4910   30.6290   38.3870 C   0  0  0  0  0  0  0  0  0  0  0  0
   38.3110   29.9040   39.4800 N   0  0  0  0  0  0  0  0  0  0  0  0
   37.2070   28.4690   40.9790 C   0  0  0  0  0  0  0  0  0  0  0  0
   37.3670   29.1610   42.1900 C   0  0  0  0  0  0  0  0  0  0  0  0
   37.4060   28.5800   43.4360 C   0  0  0  0  0  0  0  0  0  0  0  0
   37.2820   27.2140   43.5430 C   0  0  0  0  0  0  0  0  0  0  0  0
   37.1210   26.4840   42.3990 C   0  0  0  0  0  0  0  0  0  0  0  0
   36.9570   25.1190   42.4770 C   0  0  0  0  0  0  0  0  0  0  0  0
   36.7480   24.3170   41.3530 C   0  0  0  0  0  0  0  0  0  0  0  0
   36.7140   24.9900   40.1370 C   0  0  0  0  0  0  0  0  0  0  0  0
   36.8820   26.3520   40.0940 C   0  0  0  0  0  0  0  0  0  0  0  0
   37.0890   27.1310   41.1930 C   0  0  0  0  0  0  0  0  0  0  0  0
   40.0690   31.4470   38.0930 S   0  0  0  0  0  0  0  0  0  0  0  0
   35.1846   28.8775   39.0596 H   0  0  0  0  0  0  0  0  0  0  0  0
   35.4666   30.2358   36.9800 H   0  0  0  0  0  0  0  0  0  0  0  0
   37.4693   30.2550   42.1382 H   0  0  0  0  0  0  0  0  0  0  0  0
   37.5347   29.1997   44.3357 H   0  0  0  0  0  0  0  0  0  0  0  0
   37.3117   26.7212   44.5260 H   0  0  0  0  0  0  0  0  0  0  0  0
   36.9921   24.6400   43.4666 H   0  0  0  0  0  0  0  0  0  0  0  0
   36.6191   23.2270   41.4249 H   0  0  0  0  0  0  0  0  0  0  0  0
   36.5518   24.4287   39.2050 H   0  0  0  0  0  0  0  0  0  0  0  0
   36.8474   26.8452   39.1114 H   0  0  0  0  0  0  0  0  0  0  0  0
   40.6561   31.7514   39.2928 H   0  0  0  0  0  0  0  0  0  0  0  0
  1  7  1  0
  2  1  2  0
  3  2  1  0
  4  3  2  0
  4  5  1  0
  5  6  2  0
  6  1  1  0
  7 16  1  0
  7  8  2  0
  8  9  1  0
  9 10  2  0
 11 12  2  0
 11 10  1  0
 13 12  1  0
 14 13  2  0
 15 14  1  0
 15 16  2  0
 16 11  1  0
 17  5  1  0
  2 18  1  0
  3 19  1  0
  8 20  1  0
  9 21  1  0
 10 22  1  0
 12 23  1  0
 13 24  1  0
 14 25  1  0
 15 26  1  0
 17 27  1  0
M  ISO  8  18  14  19  14  20  14  21  14  22  14  23  14  24  14  25  14
M  ISO  2  26  14  27  11
M  END
>  <minimizedAffinity>  (1) 
-5.25314808

>  <minimizedRMSD>  (1) 
5.49480391

$$$$
