
     RDKit          3D

 21 22  0  0  0  0  0  0  0  0999 V2000
   38.7280   31.1500   41.3320 C   0  0  0  0  0  0  0  0  0  0  0  0
   39.1970   30.5270   42.4890 C   0  0  0  0  0  0  0  0  0  0  0  0
   38.4780   29.4640   43.0180 C   0  0  0  0  0  0  0  0  0  0  0  0
   37.3400   29.0750   42.3770 N   0  0  0  0  0  0  0  0  0  0  0  0
   36.9090   29.6900   41.2640 C   0  0  0  0  0  0  0  0  0  0  0  0
   37.6010   30.7170   40.7500 N   0  0  0  0  0  0  0  0  0  0  0  0
   39.3480   32.2490   40.6680 N   0  0  0  0  0  0  0  0  0  0  0  0
   40.6970   32.0920   40.5950 C   0  0  0  0  0  0  0  0  0  0  0  0
   41.5110   33.0420   39.9890 C   0  0  0  0  0  0  0  0  0  0  0  0
   40.8630   34.1610   39.4620 C   0  0  0  0  0  0  0  0  0  0  0  0
   41.5430   35.0400   38.9080 O   0  0  0  0  0  0  0  0  0  0  0  0
   39.5270   34.2760   39.5550 N   0  0  0  0  0  0  0  0  0  0  0  0
   38.7670   33.3370   40.1490 C   0  0  0  0  0  0  0  0  0  0  0  0
   37.5170   33.3630   40.2810 O   0  0  0  0  0  0  0  0  0  0  0  0
   35.4020   29.1180   40.4810 S   0  0  0  0  0  0  0  0  0  0  0  0
   40.1217   30.8727   42.9742 H   0  0  0  0  0  0  0  0  0  0  0  0
   38.8174   28.9499   43.9293 H   0  0  0  0  0  0  0  0  0  0  0  0
   41.1557   31.1901   41.0266 H   0  0  0  0  0  0  0  0  0  0  0  0
   42.6024   32.9193   39.9281 H   0  0  0  0  0  0  0  0  0  0  0  0
   39.0699   35.1097   39.1589 H   0  0  0  0  0  0  0  0  0  0  0  0
   34.4903   28.7720   41.4433 H   0  0  0  0  0  0  0  0  0  0  0  0
  1  2  2  0
  2  3  1  0
  4  3  2  0
  5  4  1  0
  6  5  2  0
  6  1  1  0
  7  1  1  0
  8  7  1  0
  9  8  2  0
 10 12  1  0
 10  9  1  0
 11 10  2  0
 12 13  1  0
 13 14  2  0
 13  7  1  0
 15  5  1  0
  2 16  1  0
  3 17  1  0
  8 18  1  0
  9 19  1  0
 12 20  1  0
 15 21  1  0
M  ISO  6  16  14  17  14  18  14  19  14  20   9  21  11
M  END
>  <minimizedAffinity>  (1) 
-4.42889929

>  <minimizedRMSD>  (1) 
4.52684546

$$$$
