
     RDKit          3D

 24 26  0  0  0  0  0  0  0  0999 V2000
   39.9720   28.2320   41.7080 N   0  0  0  0  0  0  0  0  0  0  0  0
   41.2430   28.6500   41.8560 C   0  0  0  0  0  0  0  0  0  0  0  0
   41.9870   27.6430   42.3460 N   0  0  0  0  0  0  0  0  0  0  0  0
   41.1770   26.5820   42.5090 C   0  0  0  0  0  0  0  0  0  0  0  0
   41.2840   25.2820   42.9510 C   0  0  0  0  0  0  0  0  0  0  0  0
   40.2460   24.4280   42.9950 N   0  0  0  0  0  0  0  0  0  0  0  0
   39.0210   24.8200   42.5970 C   0  0  0  0  0  0  0  0  0  0  0  0
   38.8920   26.0760   42.1620 N   0  0  0  0  0  0  0  0  0  0  0  0
   39.9160   26.9490   42.1100 C   0  0  0  0  0  0  0  0  0  0  0  0
   38.8760   28.9970   41.2170 C   0  0  0  0  0  0  0  0  0  0  0  0
   37.9120   29.4440   42.1230 C   0  0  0  0  0  0  0  0  0  0  0  0
   36.8370   30.1960   41.6280 C   0  0  0  0  0  0  0  0  0  0  0  0
   36.7910   30.4510   40.2860 N   0  0  0  0  0  0  0  0  0  0  0  0
   37.7410   30.0020   39.4490 C   0  0  0  0  0  0  0  0  0  0  0  0
   38.7800   29.2780   39.9120 N   0  0  0  0  0  0  0  0  0  0  0  0
   37.6320   30.3650   37.7010 S   0  0  0  0  0  0  0  0  0  0  0  0
   42.5710   24.8250   43.3850 N   0  0  0  0  0  0  0  0  0  0  0  0
   41.6144   29.6568   41.6142 H   0  0  0  0  0  0  0  0  0  0  0  0
   38.1618   24.1339   42.6288 H   0  0  0  0  0  0  0  0  0  0  0  0
   37.9937   29.2126   43.1953 H   0  0  0  0  0  0  0  0  0  0  0  0
   36.0520   30.5705   42.3014 H   0  0  0  0  0  0  0  0  0  0  0  0
   37.2411   31.6667   37.5284 H   0  0  0  0  0  0  0  0  0  0  0  0
   42.6877   23.8587   43.7218 H   0  0  0  0  0  0  0  0  0  0  0  0
   43.3793   25.4629   43.3601 H   0  0  0  0  0  0  0  0  0  0  0  0
  1  2  1  0
  1  9  1  0
  2  3  2  0
  3  4  1  0
  4  5  2  0
  5  6  1  0
  5 17  1  0
  7  6  2  0
  8  7  1  0
  9  8  2  0
  9  4  1  0
 10  1  1  0
 10 11  2  0
 12 11  1  0
 13 12  2  0
 14 15  2  0
 14 13  1  0
 15 10  1  0
 16 14  1  0
  2 18  1  0
  7 19  1  0
 11 20  1  0
 12 21  1  0
 16 22  1  0
 17 23  1  0
 17 24  1  0
M  ISO  5  18  14  19  14  20  14  21  14  22  11
M  END
>  <minimizedAffinity>  (1) 
-4.19041252

>  <minimizedRMSD>  (1) 
3.62621808

$$$$
