
     RDKit          3D

 14 14  0  0  0  0  0  0  0  0999 V2000
   38.0170   27.7410   43.2080 C   0  0  0  0  0  0  0  0  0  0  0  0
   39.0700   26.9010   43.5820 C   0  0  0  0  0  0  0  0  0  0  0  0
   40.3770   27.3670   43.4910 C   0  0  0  0  0  0  0  0  0  0  0  0
   40.5780   28.6460   43.0310 N   0  0  0  0  0  0  0  0  0  0  0  0
   39.5330   29.4370   42.6750 C   0  0  0  0  0  0  0  0  0  0  0  0
   38.2780   28.9960   42.7610 N   0  0  0  0  0  0  0  0  0  0  0  0
   36.6040   27.3070   43.2810 C   0  0  0  0  0  0  0  0  0  0  0  0
   36.0670   27.5310   44.5160 F   0  0  0  0  0  0  0  0  0  0  0  0
   36.4630   25.9710   42.9580 F   0  0  0  0  0  0  0  0  0  0  0  0
   35.8820   28.0200   42.3380 F   0  0  0  0  0  0  0  0  0  0  0  0
   39.8600   31.0960   42.0840 S   0  0  0  0  0  0  0  0  0  0  0  0
   38.8669   25.8824   43.9443 H   0  0  0  0  0  0  0  0  0  0  0  0
   41.2260   26.7297   43.7791 H   0  0  0  0  0  0  0  0  0  0  0  0
   40.0258   31.9371   43.1526 H   0  0  0  0  0  0  0  0  0  0  0  0
  1  7  1  0
  1  2  2  0
  3  2  1  0
  4  3  2  0
  5  6  2  0
  5  4  1  0
  6  1  1  0
  7  8  1  0
  9  7  1  0
 10  7  1  0
 11  5  1  0
  2 12  1  0
  3 13  1  0
 11 14  1  0
M  ISO  3  12  14  13  14  14  11
M  END
>  <minimizedAffinity>  (1) 
-4.04950714

>  <minimizedRMSD>  (1) 
3.76384068

$$$$
