
     RDKit          3D

 19 20  0  0  0  0  0  0  0  0999 V2000
   38.6800   28.3360   42.5570 C   0  0  0  0  0  0  0  0  0  0  0  0
   38.4250   27.2120   43.3450 C   0  0  0  0  0  0  0  0  0  0  0  0
   39.4860   26.6110   44.0160 C   0  0  0  0  0  0  0  0  0  0  0  0
   40.7340   27.1620   43.8640 N   0  0  0  0  0  0  0  0  0  0  0  0
   40.9430   28.2450   43.0970 C   0  0  0  0  0  0  0  0  0  0  0  0
   39.9240   28.8200   42.4550 N   0  0  0  0  0  0  0  0  0  0  0  0
   37.5750   28.9710   41.8510 C   0  0  0  0  0  0  0  0  0  0  0  0
   36.5090   28.2130   41.4320 C   0  0  0  0  0  0  0  0  0  0  0  0
   35.4880   28.8590   40.7680 C   0  0  0  0  0  0  0  0  0  0  0  0
   35.5660   30.1860   40.5560 N   0  0  0  0  0  0  0  0  0  0  0  0
   36.6060   30.9220   40.9670 C   0  0  0  0  0  0  0  0  0  0  0  0
   37.6280   30.3090   41.6240 N   0  0  0  0  0  0  0  0  0  0  0  0
   42.6020   28.9050   42.9490 S   0  0  0  0  0  0  0  0  0  0  0  0
   37.4053   26.8092   43.4338 H   0  0  0  0  0  0  0  0  0  0  0  0
   39.3296   25.7238   44.6472 H   0  0  0  0  0  0  0  0  0  0  0  0
   36.4713   27.1297   41.6194 H   0  0  0  0  0  0  0  0  0  0  0  0
   34.6141   28.2929   40.4133 H   0  0  0  0  0  0  0  0  0  0  0  0
   36.6340   32.0050   40.7767 H   0  0  0  0  0  0  0  0  0  0  0  0
   43.1240   29.1127   44.1985 H   0  0  0  0  0  0  0  0  0  0  0  0
  1  2  2  0
  2  3  1  0
  4  3  2  0
  5  4  1  0
  6  1  1  0
  6  5  2  0
  7  1  1  0
  8  7  2  0
  9  8  1  0
 10  9  2  0
 10 11  1  0
 11 12  2  0
 12  7  1  0
 13  5  1  0
  2 14  1  0
  3 15  1  0
  8 16  1  0
  9 17  1  0
 11 18  1  0
 13 19  1  0
M  ISO  6  14  14  15  14  16  14  17  14  18  14  19  11
M  END
>  <minimizedAffinity>  (1) 
-3.85563254

>  <minimizedRMSD>  (1) 
4.87534046

$$$$
