
     RDKit          3D

 23 24  0  0  0  0  0  0  0  0999 V2000
   38.0990   29.7920   40.9490 C   0  0  0  0  0  0  0  0  0  0  0  0
   38.5860   29.2490   39.7510 C   0  0  0  0  0  0  0  0  0  0  0  0
   39.1690   30.0940   38.8180 C   0  0  0  0  0  0  0  0  0  0  0  0
   39.2460   31.4310   39.1070 N   0  0  0  0  0  0  0  0  0  0  0  0
   38.7700   31.9240   40.2650 C   0  0  0  0  0  0  0  0  0  0  0  0
   38.2040   31.1190   41.1770 N   0  0  0  0  0  0  0  0  0  0  0  0
   37.4920   29.0360   41.9600 N   0  0  0  0  0  0  0  0  0  0  0  0
   36.3550   28.1190   41.9050 C   0  0  0  0  0  0  0  0  0  0  0  0
   36.8680   27.0540   42.8820 C   0  0  0  0  0  0  0  0  0  0  0  0
   37.1670   27.9760   44.0680 C   0  0  0  0  0  0  0  0  0  0  0  0
   37.9600   29.0580   43.3540 C   0  0  0  0  0  0  0  0  0  0  0  0
   38.8960   33.6910   40.6000 S   0  0  0  0  0  0  0  0  0  0  0  0
   38.5069   28.1696   39.5543 H   0  0  0  0  0  0  0  0  0  0  0  0
   39.5603   29.6998   37.8685 H   0  0  0  0  0  0  0  0  0  0  0  0
   35.4258   28.5905   42.2576 H   0  0  0  0  0  0  0  0  0  0  0  0
   36.0854   27.7548   40.9026 H   0  0  0  0  0  0  0  0  0  0  0  0
   36.0998   26.3039   43.1212 H   0  0  0  0  0  0  0  0  0  0  0  0
   37.7074   26.4383   42.5266 H   0  0  0  0  0  0  0  0  0  0  0  0
   36.2465   28.3735   44.5205 H   0  0  0  0  0  0  0  0  0  0  0  0
   37.6845   27.4979   44.9127 H   0  0  0  0  0  0  0  0  0  0  0  0
   39.0370   28.8391   43.4010 H   0  0  0  0  0  0  0  0  0  0  0  0
   37.8119   30.0444   43.8177 H   0  0  0  0  0  0  0  0  0  0  0  0
   38.9108   33.8992   41.9540 H   0  0  0  0  0  0  0  0  0  0  0  0
  1  6  1  0
  1  7  1  0
  2  1  2  0
  3  4  2  0
  3  2  1  0
  4  5  1  0
  5 12  1  0
  5  6  2  0
  7 11  1  0
  8  7  1  0
  8  9  1  0
  9 10  1  0
 11 10  1  0
  2 13  1  0
  3 14  1  0
  8 15  1  0
  8 16  1  0
  9 17  1  0
  9 18  1  0
 10 19  1  0
 10 20  1  0
 11 21  1  0
 11 22  1  0
 12 23  1  0
M  ISO  8  13  14  14  14  15  13  16  13  17  13  18  13  19  13  20  13
M  ISO  3  21  13  22  13  23  11
M  END
>  <minimizedAffinity>  (1) 
-3.71724796

>  <minimizedRMSD>  (1) 
4.29028559

$$$$
