
     RDKit          3D

 24 25  0  0  0  0  0  0  0  0999 V2000
   37.3800   26.1990   41.7970 C   0  0  0  0  0  0  0  0  0  0  0  0
   37.1450   24.8570   42.0820 C   0  0  0  0  0  0  0  0  0  0  0  0
   36.5710   24.0570   41.0790 C   0  0  0  0  0  0  0  0  0  0  0  0
   36.2740   24.6340   39.8770 N   0  0  0  0  0  0  0  0  0  0  0  0
   36.5220   25.9410   39.6480 C   0  0  0  0  0  0  0  0  0  0  0  0
   37.0650   26.7020   40.5980 N   0  0  0  0  0  0  0  0  0  0  0  0
   37.9560   27.0600   42.7650 N   0  0  0  0  0  0  0  0  0  0  0  0
   39.1080   26.8540   43.5760 C   0  0  0  0  0  0  0  0  0  0  0  0
   40.1450   27.8690   43.2270 C   0  0  0  0  0  0  0  0  0  0  0  0
   39.7080   29.0970   42.8820 O   0  0  0  0  0  0  0  0  0  0  0  0
   38.4160   29.4380   43.0620 C   0  0  0  0  0  0  0  0  0  0  0  0
   37.3840   28.3590   43.0550 C   0  0  0  0  0  0  0  0  0  0  0  0
   36.1150   26.6540   38.0570 S   0  0  0  0  0  0  0  0  0  0  0  0
   37.4013   24.4344   43.0647 H   0  0  0  0  0  0  0  0  0  0  0  0
   36.3657   22.9912   41.2578 H   0  0  0  0  0  0  0  0  0  0  0  0
   38.8343   26.9580   44.6363 H   0  0  0  0  0  0  0  0  0  0  0  0
   39.5069   25.8441   43.3997 H   0  0  0  0  0  0  0  0  0  0  0  0
   40.8035   27.9844   44.1005 H   0  0  0  0  0  0  0  0  0  0  0  0
   40.6363   27.4767   42.3244 H   0  0  0  0  0  0  0  0  0  0  0  0
   38.3474   29.9459   44.0353 H   0  0  0  0  0  0  0  0  0  0  0  0
   38.1737   30.0463   42.1781 H   0  0  0  0  0  0  0  0  0  0  0  0
   36.6304   28.5938   42.2888 H   0  0  0  0  0  0  0  0  0  0  0  0
   36.9334   28.3146   44.0575 H   0  0  0  0  0  0  0  0  0  0  0  0
   35.4422   27.8327   38.2435 H   0  0  0  0  0  0  0  0  0  0  0  0
  1  2  2  0
  1  7  1  0
  3  2  1  0
  4  3  2  0
  5  4  1  0
  5  6  2  0
  6  1  1  0
  7 12  1  0
  7  8  1  0
  9  8  1  0
 10 11  1  0
 10  9  1  0
 12 11  1  0
 13  5  1  0
  2 14  1  0
  3 15  1  0
  8 16  1  0
  8 17  1  0
  9 18  1  0
  9 19  1  0
 11 20  1  0
 11 21  1  0
 12 22  1  0
 12 23  1  0
 13 24  1  0
M  ISO  8  14  14  15  14  16  13  17  13  18  13  19  13  20  13  21  13
M  ISO  3  22  13  23  13  24  11
M  END
>  <minimizedAffinity>  (1) 
-3.66445923

>  <minimizedRMSD>  (1) 
3.47411537

$$$$
