
     RDKit          3D

 18 19  0  0  0  0  0  0  0  0999 V2000
   37.7180   29.6660   41.0040 C   0  0  0  0  0  0  0  0  0  0  0  0
   37.7010   29.1650   39.7030 C   0  0  0  0  0  0  0  0  0  0  0  0
   38.0080   30.0220   38.6500 C   0  0  0  0  0  0  0  0  0  0  0  0
   38.3150   31.3210   38.9510 N   0  0  0  0  0  0  0  0  0  0  0  0
   38.3250   31.7830   40.2220 C   0  0  0  0  0  0  0  0  0  0  0  0
   38.0250   30.9480   41.2390 N   0  0  0  0  0  0  0  0  0  0  0  0
   37.4290   28.9290   42.1870 N   0  0  0  0  0  0  0  0  0  0  0  0
   37.8670   29.0240   43.4240 N   0  0  0  0  0  0  0  0  0  0  0  0
   37.3190   28.1120   44.2240 C   0  0  0  0  0  0  0  0  0  0  0  0
   36.4480   27.3590   43.4300 C   0  0  0  0  0  0  0  0  0  0  0  0
   36.5500   27.9120   42.1500 C   0  0  0  0  0  0  0  0  0  0  0  0
   38.7370   33.4970   40.5300 S   0  0  0  0  0  0  0  0  0  0  0  0
   37.4495   28.1113   39.5121 H   0  0  0  0  0  0  0  0  0  0  0  0
   38.0039   29.6663   37.6091 H   0  0  0  0  0  0  0  0  0  0  0  0
   37.5131   27.9771   45.2983 H   0  0  0  0  0  0  0  0  0  0  0  0
   35.8183   26.5138   43.7448 H   0  0  0  0  0  0  0  0  0  0  0  0
   36.0016   27.5713   41.2594 H   0  0  0  0  0  0  0  0  0  0  0  0
   38.7902   33.7182   41.8810 H   0  0  0  0  0  0  0  0  0  0  0  0
  1  6  1  0
  1  7  1  0
  2  1  2  0
  3  4  2  0
  3  2  1  0
  4  5  1  0
  5 12  1  0
  5  6  2  0
  7  8  1  0
  8  9  2  0
 10  9  1  0
 11  7  1  0
 11 10  2  0
  2 13  1  0
  3 14  1  0
  9 15  1  0
 10 16  1  0
 11 17  1  0
 12 18  1  0
M  ISO  6  13  14  14  14  15  14  16  14  17  14  18  11
M  END
>  <minimizedAffinity>  (1) 
-3.60267448

>  <minimizedRMSD>  (1) 
4.06615591

$$$$
