
     RDKit          3D

 18 19  0  0  0  0  0  0  0  0999 V2000
   37.3840   29.5510   40.1570 C   0  0  0  0  0  0  0  0  0  0  0  0
   36.2630   29.4510   39.3350 C   0  0  0  0  0  0  0  0  0  0  0  0
   36.3380   30.0450   38.0680 C   0  0  0  0  0  0  0  0  0  0  0  0
   37.4860   30.6770   37.7150 N   0  0  0  0  0  0  0  0  0  0  0  0
   38.5460   30.7530   38.5340 C   0  0  0  0  0  0  0  0  0  0  0  0
   38.4910   30.1870   39.7600 N   0  0  0  0  0  0  0  0  0  0  0  0
   37.2810   28.9160   41.4930 C   0  0  0  0  0  0  0  0  0  0  0  0
   36.4610   27.9200   41.8970 C   0  0  0  0  0  0  0  0  0  0  0  0
   36.5330   27.4860   43.1750 C   0  0  0  0  0  0  0  0  0  0  0  0
   37.4830   28.1140   44.0350 C   0  0  0  0  0  0  0  0  0  0  0  0
   38.2470   29.3710   42.8290 S   0  0  0  0  0  0  0  0  0  0  0  0
   40.0310   31.6000   38.0100 S   0  0  0  0  0  0  0  0  0  0  0  0
   35.3551   28.9265   39.6676 H   0  0  0  0  0  0  0  0  0  0  0  0
   35.4851   30.0000   37.3748 H   0  0  0  0  0  0  0  0  0  0  0  0
   35.7446   27.4687   41.1948 H   0  0  0  0  0  0  0  0  0  0  0  0
   35.8823   26.6773   43.5393 H   0  0  0  0  0  0  0  0  0  0  0  0
   37.7093   27.9248   45.0947 H   0  0  0  0  0  0  0  0  0  0  0  0
   40.7391   32.0039   39.1111 H   0  0  0  0  0  0  0  0  0  0  0  0
  1  7  1  0
  2  1  2  0
  3  2  1  0
  4  3  2  0
  4  5  1  0
  5  6  2  0
  6  1  1  0
  7  8  2  0
  7 11  1  0
  8  9  1  0
  9 10  2  0
 11 10  1  0
 12  5  1  0
  2 13  1  0
  3 14  1  0
  8 15  1  0
  9 16  1  0
 10 17  1  0
 12 18  1  0
M  ISO  6  13  14  14  14  15  14  16  14  17  14  18  11
M  END
>  <minimizedAffinity>  (1) 
-3.57735515

>  <minimizedRMSD>  (1) 
4.47639561

$$$$
