
     RDKit          3D

 26 27  0  0  0  0  0  0  0  0999 V2000
   38.6140   28.3110   40.1210 C   0  0  0  0  0  0  0  0  0  0  0  0
   39.3450   29.4910   40.2700 C   0  0  0  0  0  0  0  0  0  0  0  0
   39.6940   30.2110   39.1380 C   0  0  0  0  0  0  0  0  0  0  0  0
   39.3070   29.7360   37.9220 N   0  0  0  0  0  0  0  0  0  0  0  0
   38.5960   28.5840   37.8140 C   0  0  0  0  0  0  0  0  0  0  0  0
   38.2600   27.8910   38.9000 N   0  0  0  0  0  0  0  0  0  0  0  0
   38.1980   27.4880   41.1870 N   0  0  0  0  0  0  0  0  0  0  0  0
   36.8110   27.2780   41.5860 C   0  0  0  0  0  0  0  0  0  0  0  0
   36.5710   27.4930   43.0430 C   0  0  0  0  0  0  0  0  0  0  0  0
   37.7520   27.9860   43.8130 C   0  0  0  0  0  0  0  0  0  0  0  0
   39.0600   27.4110   43.4050 C   0  0  0  0  0  0  0  0  0  0  0  0
   39.0410   26.7090   42.0750 C   0  0  0  0  0  0  0  0  0  0  0  0
   38.1180   28.0150   36.1820 S   0  0  0  0  0  0  0  0  0  0  0  0
   39.6393   29.8437   41.2695 H   0  0  0  0  0  0  0  0  0  0  0  0
   40.2702   31.1444   39.2202 H   0  0  0  0  0  0  0  0  0  0  0  0
   36.1768   27.9777   41.0218 H   0  0  0  0  0  0  0  0  0  0  0  0
   36.5681   26.2271   41.3700 H   0  0  0  0  0  0  0  0  0  0  0  0
   35.7621   28.2308   43.1500 H   0  0  0  0  0  0  0  0  0  0  0  0
   36.3220   26.5067   43.4616 H   0  0  0  0  0  0  0  0  0  0  0  0
   37.8070   29.0776   43.6892 H   0  0  0  0  0  0  0  0  0  0  0  0
   37.5911   27.6685   44.8538 H   0  0  0  0  0  0  0  0  0  0  0  0
   39.7941   28.2285   43.3523 H   0  0  0  0  0  0  0  0  0  0  0  0
   39.3182   26.6516   44.1577 H   0  0  0  0  0  0  0  0  0  0  0  0
   38.6302   25.6951   42.1905 H   0  0  0  0  0  0  0  0  0  0  0  0
   40.0588   26.6205   41.6671 H   0  0  0  0  0  0  0  0  0  0  0  0
   37.2402   26.9700   36.3017 H   0  0  0  0  0  0  0  0  0  0  0  0
  1  2  2  0
  1  7  1  0
  3  2  1  0
  4  3  2  0
  5  4  1  0
  5  6  2  0
  6  1  1  0
  7  8  1  0
  7 12  1  0
  8  9  1  0
  9 10  1  0
 11 10  1  0
 12 11  1  0
 13  5  1  0
  2 14  1  0
  3 15  1  0
  8 16  1  0
  8 17  1  0
  9 18  1  0
  9 19  1  0
 10 20  1  0
 10 21  1  0
 11 22  1  0
 11 23  1  0
 12 24  1  0
 12 25  1  0
 13 26  1  0
M  ISO  8  14  14  15  14  16  13  17  13  18  13  19  13  20  13  21  13
M  ISO  5  22  13  23  13  24  13  25  13  26  11
M  END
>  <minimizedAffinity>  (1) 
-3.40403533

>  <minimizedRMSD>  (1) 
4.6165185

$$$$
