
     RDKit          3D

 17 17  0  0  0  0  0  0  0  0999 V2000
   37.6200   26.8220   42.3720 C   0  0  0  0  0  0  0  0  0  0  0  0
   38.2560   27.6110   43.3470 C   0  0  0  0  0  0  0  0  0  0  0  0
   37.9970   28.9750   43.3510 C   0  0  0  0  0  0  0  0  0  0  0  0
   37.1450   29.4800   42.4170 N   0  0  0  0  0  0  0  0  0  0  0  0
   36.5510   28.6830   41.4920 C   0  0  0  0  0  0  0  0  0  0  0  0
   36.7890   27.3740   41.4760 N   0  0  0  0  0  0  0  0  0  0  0  0
   35.4450   29.4300   40.3020 S   0  0  0  0  0  0  0  0  0  0  0  0
   37.9160   25.3660   42.3930 C   0  0  0  0  0  0  0  0  0  0  0  0
   36.8130   24.5190   41.8270 C   0  0  0  0  0  0  0  0  0  0  0  0
   38.9378   27.1613   44.0839 H   0  0  0  0  0  0  0  0  0  0  0  0
   38.4705   29.6341   44.0936 H   0  0  0  0  0  0  0  0  0  0  0  0
   34.4502   30.1019   40.9622 H   0  0  0  0  0  0  0  0  0  0  0  0
   38.8279   25.1882   41.8040 H   0  0  0  0  0  0  0  0  0  0  0  0
   38.0354   25.0768   43.4476 H   0  0  0  0  0  0  0  0  0  0  0  0
   36.2336   24.0741   42.6494 H   0  0  0  0  0  0  0  0  0  0  0  0
   36.1517   25.1436   41.2085 H   0  0  0  0  0  0  0  0  0  0  0  0
   37.2457   23.7189   41.2085 H   0  0  0  0  0  0  0  0  0  0  0  0
  1  8  1  0
  1  2  2  0
  2  3  1  0
  4  3  2  0
  5  4  1  0
  6  5  2  0
  6  1  1  0
  7  5  1  0
  9  8  1  0
  2 10  1  0
  3 11  1  0
  7 12  1  0
  8 13  1  0
  8 14  1  0
  9 15  1  0
  9 16  1  0
  9 17  1  0
M  ISO  8  10  14  11  14  12  11  13   8  14   8  15   8  16   8  17   8
M  END
>  <minimizedAffinity>  (1) 
-3.21433043

>  <minimizedRMSD>  (1) 
3.01021957

$$$$
