
     RDKit          3D

 19 20  0  0  0  0  0  0  0  0999 V2000
   39.4090   32.1150   38.3240 C   0  0  0  0  0  0  0  0  0  0  0  0
   38.7960   32.7590   39.4040 C   0  0  0  0  0  0  0  0  0  0  0  0
   37.4650   32.4300   39.7220 C   0  0  0  0  0  0  0  0  0  0  0  0
   36.8530   31.4950   38.9490 N   0  0  0  0  0  0  0  0  0  0  0  0
   37.4680   30.8950   37.9210 C   0  0  0  0  0  0  0  0  0  0  0  0
   38.7380   31.2020   37.6090 N   0  0  0  0  0  0  0  0  0  0  0  0
   40.7890   32.4570   37.9950 C   0  0  0  0  0  0  0  0  0  0  0  0
   41.3040   33.6600   38.4220 C   0  0  0  0  0  0  0  0  0  0  0  0
   42.6170   33.8840   38.0570 C   0  0  0  0  0  0  0  0  0  0  0  0
   43.3840   33.0390   37.3410 N   0  0  0  0  0  0  0  0  0  0  0  0
   42.8250   31.8780   36.9500 C   0  0  0  0  0  0  0  0  0  0  0  0
   41.5310   31.5910   37.2770 N   0  0  0  0  0  0  0  0  0  0  0  0
   36.5810   29.6740   36.9580 S   0  0  0  0  0  0  0  0  0  0  0  0
   39.3440   33.5086   39.9937 H   0  0  0  0  0  0  0  0  0  0  0  0
   36.9416   32.9102   40.5619 H   0  0  0  0  0  0  0  0  0  0  0  0
   40.7174   34.3841   39.0065 H   0  0  0  0  0  0  0  0  0  0  0  0
   43.0747   34.8314   38.3777 H   0  0  0  0  0  0  0  0  0  0  0  0
   43.4141   31.1571   36.3641 H   0  0  0  0  0  0  0  0  0  0  0  0
   35.9464   28.8004   37.8012 H   0  0  0  0  0  0  0  0  0  0  0  0
  1  2  2  0
  2  3  1  0
  4  3  2  0
  5  4  1  0
  6  5  2  0
  6  1  1  0
  7  1  1  0
  7  8  2  0
  9  8  1  0
 10  9  2  0
 11 12  2  0
 11 10  1  0
 12  7  1  0
 13  5  1  0
  2 14  1  0
  3 15  1  0
  8 16  1  0
  9 17  1  0
 11 18  1  0
 13 19  1  0
M  ISO  6  14  14  15  14  16  14  17  14  18  14  19  11
M  END
>  <minimizedAffinity>  (1) 
-3.14758515

>  <minimizedRMSD>  (1) 
6.54005527

$$$$
