
     RDKit          3D

 13 13  0  0  0  0  0  0  0  0999 V2000
   36.8790   30.7730   40.8380 C   0  0  0  0  0  0  0  0  0  0  0  0
   35.8050   30.1900   40.1640 C   0  0  0  0  0  0  0  0  0  0  0  0
   35.3990   28.9110   40.5630 C   0  0  0  0  0  0  0  0  0  0  0  0
   36.0700   28.2980   41.5860 N   0  0  0  0  0  0  0  0  0  0  0  0
   37.1000   28.9040   42.2030 C   0  0  0  0  0  0  0  0  0  0  0  0
   37.5120   30.1210   41.8490 N   0  0  0  0  0  0  0  0  0  0  0  0
   37.3200   32.1050   40.4410 C   0  0  0  0  0  0  0  0  0  0  0  0
   38.4050   32.5940   40.8940 O   0  0  0  0  0  0  0  0  0  0  0  0
   37.9420   28.0590   43.5340 S   0  0  0  0  0  0  0  0  0  0  0  0
   35.2940   30.7184   39.3457 H   0  0  0  0  0  0  0  0  0  0  0  0
   34.5572   28.4087   40.0640 H   0  0  0  0  0  0  0  0  0  0  0  0
   36.7083   32.6943   39.7420 H   0  0  0  0  0  0  0  0  0  0  0  0
   37.4782   28.5245   44.7361 H   0  0  0  0  0  0  0  0  0  0  0  0
  1  6  2  0
  2  3  2  0
  2  1  1  0
  3  4  1  0
  4  5  2  0
  5  9  1  0
  6  5  1  0
  7  1  1  0
  7  8  2  0
  2 10  1  0
  3 11  1  0
  7 12  1  0
  9 13  1  0
M  ISO  4  10  14  11  14  12   6  13  11
M  END
>  <minimizedAffinity>  (1) 
-2.95458531

>  <minimizedRMSD>  (1) 
3.48999262

$$$$
