
     RDKit          3D

 12 12  0  0  0  0  0  0  0  0999 V2000
   38.3440   29.6350   42.6380 C   0  0  0  0  0  0  0  0  0  0  0  0
   38.2940   28.4670   43.4260 C   0  0  0  0  0  0  0  0  0  0  0  0
   37.2760   27.5530   43.1990 C   0  0  0  0  0  0  0  0  0  0  0  0
   36.3580   27.8200   42.2160 N   0  0  0  0  0  0  0  0  0  0  0  0
   36.4300   28.9410   41.4780 C   0  0  0  0  0  0  0  0  0  0  0  0
   37.4020   29.8300   41.6840 N   0  0  0  0  0  0  0  0  0  0  0  0
   35.2070   29.2400   40.2090 S   0  0  0  0  0  0  0  0  0  0  0  0
   39.3650   30.5450   42.8720 O   0  0  0  0  0  0  0  0  0  0  0  0
   39.0479   28.2842   44.2059 H   0  0  0  0  0  0  0  0  0  0  0  0
   37.2063   26.6317   43.7959 H   0  0  0  0  0  0  0  0  0  0  0  0
   34.0039   29.5341   40.7945 H   0  0  0  0  0  0  0  0  0  0  0  0
   39.4231   31.3732   42.3328 H   0  0  0  0  0  0  0  0  0  0  0  0
  1  8  1  0
  1  2  2  0
  3  2  1  0
  4  3  2  0
  5  6  2  0
  5  4  1  0
  6  1  1  0
  7  5  1  0
  2  9  1  0
  3 10  1  0
  7 11  1  0
  8 12  1  0
M  ISO  4   9  14  10  14  11  11  12   3
M  END
>  <minimizedAffinity>  (1) 
-2.80502582

>  <minimizedRMSD>  (1) 
0.955442846

$$$$
