
     RDKit          3D

 18 19  0  0  0  0  0  0  0  0999 V2000
   39.6790   29.4430   39.5130 C   0  0  0  0  0  0  0  0  0  0  0  0
   40.0920   28.3290   38.7790 C   0  0  0  0  0  0  0  0  0  0  0  0
   40.8630   28.5460   37.6250 C   0  0  0  0  0  0  0  0  0  0  0  0
   41.1620   29.8310   37.2890 N   0  0  0  0  0  0  0  0  0  0  0  0
   40.7480   30.8790   38.0170 C   0  0  0  0  0  0  0  0  0  0  0  0
   40.0100   30.6820   39.1240 N   0  0  0  0  0  0  0  0  0  0  0  0
   38.8780   29.2360   40.7150 C   0  0  0  0  0  0  0  0  0  0  0  0
   37.9720   30.1000   41.2610 C   0  0  0  0  0  0  0  0  0  0  0  0
   37.4510   29.4840   42.3980 C   0  0  0  0  0  0  0  0  0  0  0  0
   38.0540   28.2660   42.5120 N   0  0  0  0  0  0  0  0  0  0  0  0
   38.8980   28.1430   41.4990 N   0  0  0  0  0  0  0  0  0  0  0  0
   41.1770   32.5410   37.5170 S   0  0  0  0  0  0  0  0  0  0  0  0
   39.8213   27.3109   39.0954 H   0  0  0  0  0  0  0  0  0  0  0  0
   41.2145   27.7033   37.0115 H   0  0  0  0  0  0  0  0  0  0  0  0
   37.7038   31.0949   40.8760 H   0  0  0  0  0  0  0  0  0  0  0  0
   36.6939   29.9027   43.0773 H   0  0  0  0  0  0  0  0  0  0  0  0
   37.8840   27.5691   43.2511 H   0  0  0  0  0  0  0  0  0  0  0  0
   41.3769   33.3153   38.6294 H   0  0  0  0  0  0  0  0  0  0  0  0
  1  7  1  0
  2  1  2  0
  3  2  1  0
  4  3  2  0
  4  5  1  0
  5  6  2  0
  6  1  1  0
  7  8  1  0
  7 11  2  0
  8  9  2  0
  9 10  1  0
 11 10  1  0
 12  5  1  0
  2 13  1  0
  3 14  1  0
  8 15  1  0
  9 16  1  0
 10 17  1  0
 12 18  1  0
M  ISO  6  13  14  14  14  15  14  16  14  17   9  18  11
M  END
>  <minimizedAffinity>  (1) 
-2.40657496

>  <minimizedRMSD>  (1) 
5.05304861

$$$$
