
     RDKit          3D

 18 19  0  0  0  0  0  0  0  0999 V2000
   38.6680   29.3560   39.5720 C   0  0  0  0  0  0  0  0  0  0  0  0
   39.9530   29.8950   39.5150 C   0  0  0  0  0  0  0  0  0  0  0  0
   40.8040   29.7110   40.6190 C   0  0  0  0  0  0  0  0  0  0  0  0
   40.3120   29.0110   41.6840 N   0  0  0  0  0  0  0  0  0  0  0  0
   39.0700   28.5090   41.7000 C   0  0  0  0  0  0  0  0  0  0  0  0
   38.2470   28.6770   40.6530 N   0  0  0  0  0  0  0  0  0  0  0  0
   37.7830   29.5470   38.4260 C   0  0  0  0  0  0  0  0  0  0  0  0
   36.4150   29.3600   38.4280 C   0  0  0  0  0  0  0  0  0  0  0  0
   35.9130   29.6240   37.2070 N   0  0  0  0  0  0  0  0  0  0  0  0
   36.9720   29.9740   36.4550 C   0  0  0  0  0  0  0  0  0  0  0  0
   38.1200   29.9320   37.1820 N   0  0  0  0  0  0  0  0  0  0  0  0
   38.4950   27.6030   43.1300 S   0  0  0  0  0  0  0  0  0  0  0  0
   40.2924   30.4504   38.6282 H   0  0  0  0  0  0  0  0  0  0  0  0
   41.8270   30.1153   40.6250 H   0  0  0  0  0  0  0  0  0  0  0  0
   35.8227   29.0422   39.2987 H   0  0  0  0  0  0  0  0  0  0  0  0
   36.9165   30.2565   35.3934 H   0  0  0  0  0  0  0  0  0  0  0  0
   39.0677   30.1530   36.8444 H   0  0  0  0  0  0  0  0  0  0  0  0
   38.9017   28.2439   44.2705 H   0  0  0  0  0  0  0  0  0  0  0  0
  1  6  1  0
  2  1  2  0
  2  3  1  0
  3  4  2  0
  4  5  1  0
  5 12  1  0
  6  5  2  0
  7  8  2  0
  7  1  1  0
  9  8  1  0
 10 11  1  0
 10  9  2  0
 11  7  1  0
  2 13  1  0
  3 14  1  0
  8 15  1  0
 10 16  1  0
 11 17  1  0
 12 18  1  0
M  ISO  6  13  14  14  14  15  14  16  14  17   9  18  11
M  END
>  <minimizedAffinity>  (1) 
-2.40620875

>  <minimizedRMSD>  (1) 
6.09819031

$$$$
