
     RDKit          3D

 21 22  0  0  0  0  0  0  0  0999 V2000
   36.9890   30.8340   40.7500 C   0  0  0  0  0  0  0  0  0  0  0  0
   35.8330   30.2830   40.2000 C   0  0  0  0  0  0  0  0  0  0  0  0
   35.3920   29.0370   40.6440 C   0  0  0  0  0  0  0  0  0  0  0  0
   36.1240   28.4120   41.6060 N   0  0  0  0  0  0  0  0  0  0  0  0
   37.2460   28.9640   42.1280 C   0  0  0  0  0  0  0  0  0  0  0  0
   37.6620   30.1700   41.6920 N   0  0  0  0  0  0  0  0  0  0  0  0
   38.1640   28.0980   43.3820 S   0  0  0  0  0  0  0  0  0  0  0  0
   37.4460   32.1360   40.2820 C   0  0  0  0  0  0  0  0  0  0  0  0
   36.9440   32.6770   39.2880 O   0  0  0  0  0  0  0  0  0  0  0  0
   38.4650   32.7860   40.9620 O   0  0  0  0  0  0  0  0  0  0  0  0
   39.2100   33.8150   40.4260 C   0  0  0  0  0  0  0  0  0  0  0  0
   39.0420   35.1650   40.6980 C   0  0  0  0  0  0  0  0  0  0  0  0
   39.9800   35.8650   39.9660 C   0  0  0  0  0  0  0  0  0  0  0  0
   40.6980   34.9620   39.2670 N   0  0  0  0  0  0  0  0  0  0  0  0
   40.2350   33.7470   39.5440 N   0  0  0  0  0  0  0  0  0  0  0  0
   35.2741   30.8257   39.4234 H   0  0  0  0  0  0  0  0  0  0  0  0
   34.4833   28.5749   40.2307 H   0  0  0  0  0  0  0  0  0  0  0  0
   37.7374   28.5004   44.6201 H   0  0  0  0  0  0  0  0  0  0  0  0
   38.2939   35.6005   41.3767 H   0  0  0  0  0  0  0  0  0  0  0  0
   40.1166   36.9564   39.9548 H   0  0  0  0  0  0  0  0  0  0  0  0
   41.4749   35.1777   38.6260 H   0  0  0  0  0  0  0  0  0  0  0  0
  1  6  2  0
  2  3  2  0
  2  1  1  0
  3  4  1  0
  4  5  2  0
  5  7  1  0
  6  5  1  0
  8  1  1  0
  8 10  1  0
  9  8  2  0
 11 12  1  0
 11 10  1  0
 13 12  2  0
 14 15  1  0
 14 13  1  0
 15 11  2  0
  2 16  1  0
  3 17  1  0
  7 18  1  0
 12 19  1  0
 13 20  1  0
 14 21  1  0
M  ISO  6  16  14  17  14  18  11  19  14  20  14  21   9
M  END
>  <minimizedAffinity>  (1) 
-4.6395793

>  <minimizedRMSD>  (1) 
6.60076857

$$$$
