
     RDKit          3D

 21 22  0  0  0  0  0  0  0  0999 V2000
   38.4080   31.6030   41.0330 C   0  0  0  0  0  0  0  0  0  0  0  0
   37.3710   31.4160   40.1220 C   0  0  0  0  0  0  0  0  0  0  0  0
   36.9820   32.4970   39.3310 C   0  0  0  0  0  0  0  0  0  0  0  0
   37.6380   33.6850   39.4910 N   0  0  0  0  0  0  0  0  0  0  0  0
   38.6280   33.8250   40.3750 C   0  0  0  0  0  0  0  0  0  0  0  0
   39.0140   32.7970   41.1450 N   0  0  0  0  0  0  0  0  0  0  0  0
   39.4670   35.4060   40.5530 S   0  0  0  0  0  0  0  0  0  0  0  0
   38.8180   30.4840   41.8590 C   0  0  0  0  0  0  0  0  0  0  0  0
   39.5990   30.6440   42.8330 O   0  0  0  0  0  0  0  0  0  0  0  0
   38.3780   29.2130   41.6170 O   0  0  0  0  0  0  0  0  0  0  0  0
   37.6020   28.5570   42.5920 C   0  0  0  0  0  0  0  0  0  0  0  0
   36.8910   27.3860   42.4650 C   0  0  0  0  0  0  0  0  0  0  0  0
   36.3300   27.1950   43.6750 N   0  0  0  0  0  0  0  0  0  0  0  0
   36.6900   28.2140   44.5010 C   0  0  0  0  0  0  0  0  0  0  0  0
   37.4810   29.0710   43.8450 N   0  0  0  0  0  0  0  0  0  0  0  0
   36.8715   30.4404   40.0287 H   0  0  0  0  0  0  0  0  0  0  0  0
   36.1684   32.3958   38.5976 H   0  0  0  0  0  0  0  0  0  0  0  0
   39.6201   35.6945   41.8835 H   0  0  0  0  0  0  0  0  0  0  0  0
   36.8006   26.7476   41.5737 H   0  0  0  0  0  0  0  0  0  0  0  0
   36.3778   28.3179   45.5506 H   0  0  0  0  0  0  0  0  0  0  0  0
   37.9068   29.9346   44.2107 H   0  0  0  0  0  0  0  0  0  0  0  0
  1  6  1  0
  1  8  1  0
  2  1  2  0
  3  4  2  0
  3  2  1  0
  4  5  1  0
  5  7  1  0
  5  6  2  0
  8  9  2  0
 10  8  1  0
 10 11  1  0
 11 15  1  0
 12 11  2  0
 12 13  1  0
 13 14  2  0
 15 14  1  0
  2 16  1  0
  3 17  1  0
  7 18  1  0
 12 19  1  0
 14 20  1  0
 15 21  1  0
M  ISO  6  16  14  17  14  18  11  19  14  20  14  21   9
M  END
>  <minimizedAffinity>  (1) 
-4.48689079

>  <minimizedRMSD>  (1) 
3.48160243

$$$$
