
     RDKit          3D

 21 22  0  0  0  0  0  0  0  0999 V2000
   38.0880   31.1750   40.9870 C   0  0  0  0  0  0  0  0  0  0  0  0
   37.2670   30.8530   39.8960 C   0  0  0  0  0  0  0  0  0  0  0  0
   36.9950   31.8560   38.9570 C   0  0  0  0  0  0  0  0  0  0  0  0
   37.5390   33.0890   39.1520 N   0  0  0  0  0  0  0  0  0  0  0  0
   38.3260   33.3610   40.2170 C   0  0  0  0  0  0  0  0  0  0  0  0
   38.6010   32.4010   41.1360 N   0  0  0  0  0  0  0  0  0  0  0  0
   39.0220   34.9920   40.4360 S   0  0  0  0  0  0  0  0  0  0  0  0
   38.3740   30.1280   41.9680 C   0  0  0  0  0  0  0  0  0  0  0  0
   39.5540   29.7520   42.1730 O   0  0  0  0  0  0  0  0  0  0  0  0
   37.3590   29.5420   42.6750 O   0  0  0  0  0  0  0  0  0  0  0  0
   37.6260   28.3770   43.4480 C   0  0  0  0  0  0  0  0  0  0  0  0
   36.7910   28.0980   44.6510 C   0  0  0  0  0  0  0  0  0  0  0  0
   36.5870   27.2910   43.3690 C   0  0  0  0  0  0  0  0  0  0  0  0
   36.8490   29.8420   39.7813 H   0  0  0  0  0  0  0  0  0  0  0  0
   36.3578   31.6528   38.0837 H   0  0  0  0  0  0  0  0  0  0  0  0
   39.1377   35.2632   41.7739 H   0  0  0  0  0  0  0  0  0  0  0  0
   38.7122   28.4452   43.2883 H   0  0  0  0  0  0  0  0  0  0  0  0
   37.2407   27.6226   45.5352 H   0  0  0  0  0  0  0  0  0  0  0  0
   36.1418   28.6986   45.3051 H   0  0  0  0  0  0  0  0  0  0  0  0
   35.6807   27.4357   42.7627 H   0  0  0  0  0  0  0  0  0  0  0  0
   36.5871   26.2229   43.1060 H   0  0  0  0  0  0  0  0  0  0  0  0
  1  6  1  0
  1  8  1  0
  2  1  2  0
  3  4  2  0
  3  2  1  0
  4  5  1  0
  5  7  1  0
  5  6  2  0
  8  9  2  0
  8 10  1  0
 10 11  1  0
 11 12  1  0
 13 11  1  0
 13 12  1  0
  2 14  1  0
  3 15  1  0
  7 16  1  0
 11 17  1  0
 12 18  1  0
 12 19  1  0
 13 20  1  0
 13 21  1  0
M  ISO  8  14  14  15  14  16  11  17  13  18  13  19  13  20  13  21  13
M  END
>  <minimizedAffinity>  (1) 
-4.17074919

>  <minimizedRMSD>  (1) 
2.69430661

$$$$
