
     RDKit          3D

 27 28  0  0  0  0  0  0  0  0999 V2000
   36.8430   28.9960   41.2650 C   0  0  0  0  0  0  0  0  0  0  0  0
   35.5260   28.8750   40.7920 C   0  0  0  0  0  0  0  0  0  0  0  0
   35.2210   29.4180   39.5450 C   0  0  0  0  0  0  0  0  0  0  0  0
   36.2130   30.0350   38.8520 N   0  0  0  0  0  0  0  0  0  0  0  0
   37.4700   30.1350   39.3360 C   0  0  0  0  0  0  0  0  0  0  0  0
   37.7960   29.6190   40.5420 N   0  0  0  0  0  0  0  0  0  0  0  0
   38.7450   30.9610   38.3820 S   0  0  0  0  0  0  0  0  0  0  0  0
   37.1670   28.4280   42.5750 C   0  0  0  0  0  0  0  0  0  0  0  0
   37.7020   29.1120   43.4610 O   0  0  0  0  0  0  0  0  0  0  0  0
   36.8740   27.1000   42.8380 O   0  0  0  0  0  0  0  0  0  0  0  0
   37.5420   26.1020   42.1100 C   0  0  0  0  0  0  0  0  0  0  0  0
   36.8200   24.7850   42.1160 C   0  0  0  0  0  0  0  0  0  0  0  0
   37.8840   23.8320   41.6180 C   0  0  0  0  0  0  0  0  0  0  0  0
   39.2230   24.5390   41.8350 C   0  0  0  0  0  0  0  0  0  0  0  0
   38.8680   25.7110   42.7620 C   0  0  0  0  0  0  0  0  0  0  0  0
   34.7559   28.3654   41.3897 H   0  0  0  0  0  0  0  0  0  0  0  0
   34.2035   29.3487   39.1329 H   0  0  0  0  0  0  0  0  0  0  0  0
   39.6461   31.5448   39.2330 H   0  0  0  0  0  0  0  0  0  0  0  0
   37.6358   26.5474   41.1086 H   0  0  0  0  0  0  0  0  0  0  0  0
   36.4883   24.5171   43.1300 H   0  0  0  0  0  0  0  0  0  0  0  0
   35.9049   24.7815   41.5056 H   0  0  0  0  0  0  0  0  0  0  0  0
   37.7344   23.6176   40.5495 H   0  0  0  0  0  0  0  0  0  0  0  0
   37.8455   22.8718   42.1534 H   0  0  0  0  0  0  0  0  0  0  0  0
   39.9493   23.8658   42.3139 H   0  0  0  0  0  0  0  0  0  0  0  0
   39.6909   24.8652   40.8944 H   0  0  0  0  0  0  0  0  0  0  0  0
   39.6111   26.5206   42.7136 H   0  0  0  0  0  0  0  0  0  0  0  0
   38.8288   25.4820   43.8372 H   0  0  0  0  0  0  0  0  0  0  0  0
  1  8  1  0
  2  1  2  0
  3  2  1  0
  4  5  1  0
  4  3  2  0
  5  6  2  0
  6  1  1  0
  7  5  1  0
  8 10  1  0
  8  9  2  0
 11 12  1  0
 11 15  1  0
 11 10  1  0
 13 14  1  0
 13 12  1  0
 14 15  1  0
  2 16  1  0
  3 17  1  0
  7 18  1  0
 11 19  1  0
 12 20  1  0
 12 21  1  0
 13 22  1  0
 13 23  1  0
 14 24  1  0
 14 25  1  0
 15 26  1  0
 15 27  1  0
M  ISO  8  16  14  17  14  18  11  19  13  20  13  21  13  22  13  23  13
M  ISO  4  24  13  25  13  26  13  27  13
M  END
>  <minimizedAffinity>  (1) 
-4.0777483

>  <minimizedRMSD>  (1) 
3.58461237

$$$$
