
     RDKit          3D

 17 17  0  0  0  0  0  0  0  0999 V2000
   38.0840   31.0860   41.0830 C   0  0  0  0  0  0  0  0  0  0  0  0
   37.2130   30.7320   40.0490 C   0  0  0  0  0  0  0  0  0  0  0  0
   36.8870   31.6920   39.0980 C   0  0  0  0  0  0  0  0  0  0  0  0
   37.4360   32.9420   39.2160 N   0  0  0  0  0  0  0  0  0  0  0  0
   38.2670   33.2490   40.2180 C   0  0  0  0  0  0  0  0  0  0  0  0
   38.5850   32.3260   41.1420 N   0  0  0  0  0  0  0  0  0  0  0  0
   38.9560   34.8950   40.3300 S   0  0  0  0  0  0  0  0  0  0  0  0
   38.4380   30.0940   42.0910 C   0  0  0  0  0  0  0  0  0  0  0  0
   39.4850   30.1960   42.7600 O   0  0  0  0  0  0  0  0  0  0  0  0
   37.6130   29.0250   42.3170 O   0  0  0  0  0  0  0  0  0  0  0  0
   37.5450   28.4070   43.5730 C   0  0  0  0  0  0  0  0  0  0  0  0
   38.2090   27.3510   43.8140 O   0  0  0  0  0  0  0  0  0  0  0  0
   36.7360   28.9570   44.5800 O   0  0  0  0  0  0  0  0  0  0  0  0
   36.7948   29.7164   39.9890 H   0  0  0  0  0  0  0  0  0  0  0  0
   36.2038   31.4537   38.2695 H   0  0  0  0  0  0  0  0  0  0  0  0
   39.1007   35.2408   41.6477 H   0  0  0  0  0  0  0  0  0  0  0  0
   36.6865   28.5220   45.4679 H   0  0  0  0  0  0  0  0  0  0  0  0
  1  6  2  0
  1  8  1  0
  2  1  1  0
  3  4  1  0
  3  2  2  0
  4  5  2  0
  5  7  1  0
  5  6  1  0
  8 10  1  0
  8  9  2  0
 10 11  1  0
 11 12  2  0
 11 13  1  0
  2 14  1  0
  3 15  1  0
  7 16  1  0
 13 17  1  0
M  ISO  4  14  14  15  14  16  11  17   3
M  END
>  <minimizedAffinity>  (1) 
-4.06997681

>  <minimizedRMSD>  (1) 
2.55977774

$$$$
