
     RDKit          3D

 18 18  0  0  0  0  0  0  0  0999 V2000
   37.8370   30.9430   40.9640 C   0  0  0  0  0  0  0  0  0  0  0  0
   37.1330   30.5790   39.8170 C   0  0  0  0  0  0  0  0  0  0  0  0
   36.9740   31.5280   38.8150 C   0  0  0  0  0  0  0  0  0  0  0  0
   37.5100   32.7650   38.9980 N   0  0  0  0  0  0  0  0  0  0  0  0
   38.1890   33.0890   40.1240 C   0  0  0  0  0  0  0  0  0  0  0  0
   38.3540   32.1750   41.1100 N   0  0  0  0  0  0  0  0  0  0  0  0
   38.8770   34.7250   40.3260 S   0  0  0  0  0  0  0  0  0  0  0  0
   38.0140   29.9580   42.0230 C   0  0  0  0  0  0  0  0  0  0  0  0
   38.9610   30.0220   42.8300 O   0  0  0  0  0  0  0  0  0  0  0  0
   37.1240   28.9140   42.1630 O   0  0  0  0  0  0  0  0  0  0  0  0
   37.1730   28.0890   43.2930 C   0  0  0  0  0  0  0  0  0  0  0  0
   36.7790   28.6640   44.5360 N   0  0  0  0  0  0  0  0  0  0  0  0
   37.5540   26.9060   43.1470 O   0  0  0  0  0  0  0  0  0  0  0  0
   36.7147   29.5675   39.7083 H   0  0  0  0  0  0  0  0  0  0  0  0
   36.4261   31.2844   37.8928 H   0  0  0  0  0  0  0  0  0  0  0  0
   38.9963   35.0086   41.6610 H   0  0  0  0  0  0  0  0  0  0  0  0
   36.7983   28.0963   45.3952 H   0  0  0  0  0  0  0  0  0  0  0  0
   36.4750   29.6473   44.5752 H   0  0  0  0  0  0  0  0  0  0  0  0
  1  6  2  0
  1  8  1  0
  2  1  1  0
  3  4  1  0
  3  2  2  0
  4  5  2  0
  5  7  1  0
  5  6  1  0
  8 10  1  0
  8  9  2  0
 10 11  1  0
 11 12  1  0
 13 11  2  0
  2 14  1  0
  3 15  1  0
  7 16  1  0
 12 17  1  0
 12 18  1  0
M  ISO  3  14  14  15  14  16  11
M  END
>  <minimizedAffinity>  (1) 
-4.04839182

>  <minimizedRMSD>  (1) 
2.53675079

$$$$
