
     RDKit          3D

 23 24  0  0  0  0  0  0  0  0999 V2000
   36.3400   29.3780   38.8190 C   0  0  0  0  0  0  0  0  0  0  0  0
   35.8630   29.1470   37.5250 C   0  0  0  0  0  0  0  0  0  0  0  0
   36.5040   29.8070   36.4780 C   0  0  0  0  0  0  0  0  0  0  0  0
   37.5470   30.6310   36.7650 N   0  0  0  0  0  0  0  0  0  0  0  0
   37.9740   30.8250   38.0320 C   0  0  0  0  0  0  0  0  0  0  0  0
   37.3680   30.1960   39.0550 N   0  0  0  0  0  0  0  0  0  0  0  0
   39.3500   31.9180   38.3630 S   0  0  0  0  0  0  0  0  0  0  0  0
   35.6800   28.6960   39.9300 C   0  0  0  0  0  0  0  0  0  0  0  0
   34.6580   29.1360   40.4710 O   0  0  0  0  0  0  0  0  0  0  0  0
   36.1960   27.5030   40.4170 O   0  0  0  0  0  0  0  0  0  0  0  0
   37.0880   27.5460   41.4890 C   0  0  0  0  0  0  0  0  0  0  0  0
   36.5680   27.6400   42.7690 C   0  0  0  0  0  0  0  0  0  0  0  0
   37.4760   27.6810   43.7950 C   0  0  0  0  0  0  0  0  0  0  0  0
   38.8260   27.6260   43.5010 C   0  0  0  0  0  0  0  0  0  0  0  0
   39.3130   27.5320   42.2160 C   0  0  0  0  0  0  0  0  0  0  0  0
   38.4140   27.4930   41.2040 N   0  0  0  0  0  0  0  0  0  0  0  0
   35.0151   28.4709   37.3406 H   0  0  0  0  0  0  0  0  0  0  0  0
   36.1724   29.6640   35.4390 H   0  0  0  0  0  0  0  0  0  0  0  0
   39.5142   32.0484   39.7169 H   0  0  0  0  0  0  0  0  0  0  0  0
   35.4842   27.6796   42.9526 H   0  0  0  0  0  0  0  0  0  0  0  0
   37.1353   27.7566   44.8382 H   0  0  0  0  0  0  0  0  0  0  0  0
   39.5451   27.6589   44.3327 H   0  0  0  0  0  0  0  0  0  0  0  0
   40.3944   27.4901   42.0187 H   0  0  0  0  0  0  0  0  0  0  0  0
  1  6  1  0
  1  8  1  0
  2  1  2  0
  3  4  2  0
  3  2  1  0
  4  5  1  0
  5  7  1  0
  5  6  2  0
  8 10  1  0
  8  9  2  0
 10 11  1  0
 11 12  2  0
 12 13  1  0
 14 13  2  0
 15 14  1  0
 16 11  1  0
 16 15  2  0
  2 17  1  0
  3 18  1  0
  7 19  1  0
 12 20  1  0
 13 21  1  0
 14 22  1  0
 15 23  1  0
M  ISO  7  17  14  18  14  19  11  20  14  21  14  22  14  23  14
M  END
>  <minimizedAffinity>  (1) 
-4.03924608

>  <minimizedRMSD>  (1) 
3.96328259

$$$$
