
     RDKit          3D

 24 25  0  0  0  0  0  0  0  0999 V2000
   38.0900   29.0900   41.9630 C   0  0  0  0  0  0  0  0  0  0  0  0
   37.2760   29.1990   42.9020 O   0  0  0  0  0  0  0  0  0  0  0  0
   38.4180   30.2350   41.1140 C   0  0  0  0  0  0  0  0  0  0  0  0
   39.1980   31.2660   41.6580 C   0  0  0  0  0  0  0  0  0  0  0  0
   39.5120   32.3580   40.8510 C   0  0  0  0  0  0  0  0  0  0  0  0
   39.0360   32.3620   39.5570 N   0  0  0  0  0  0  0  0  0  0  0  0
   38.2970   31.3580   39.0820 C   0  0  0  0  0  0  0  0  0  0  0  0
   37.9870   30.2970   39.8550 N   0  0  0  0  0  0  0  0  0  0  0  0
   37.7190   31.4280   37.4020 S   0  0  0  0  0  0  0  0  0  0  0  0
   38.6790   27.8680   41.7320 O   0  0  0  0  0  0  0  0  0  0  0  0
   37.9790   26.7230   41.4700 C   0  0  0  0  0  0  0  0  0  0  0  0
   37.8010   25.7280   42.4180 C   0  0  0  0  0  0  0  0  0  0  0  0
   37.0830   24.5990   42.0830 C   0  0  0  0  0  0  0  0  0  0  0  0
   36.5250   24.4180   40.8160 C   0  0  0  0  0  0  0  0  0  0  0  0
   36.7200   25.4290   39.8910 C   0  0  0  0  0  0  0  0  0  0  0  0
   37.4290   26.5520   40.2100 C   0  0  0  0  0  0  0  0  0  0  0  0
   39.5537   31.2139   42.6976 H   0  0  0  0  0  0  0  0  0  0  0  0
   40.1204   33.1904   41.2343 H   0  0  0  0  0  0  0  0  0  0  0  0
   36.3590   31.5927   37.3935 H   0  0  0  0  0  0  0  0  0  0  0  0
   38.2274   25.8373   43.4261 H   0  0  0  0  0  0  0  0  0  0  0  0
   36.9451   23.8136   42.8407 H   0  0  0  0  0  0  0  0  0  0  0  0
   35.9552   23.5114   40.5639 H   0  0  0  0  0  0  0  0  0  0  0  0
   36.2965   25.3262   38.8810 H   0  0  0  0  0  0  0  0  0  0  0  0
   37.5661   27.3365   39.4512 H   0  0  0  0  0  0  0  0  0  0  0  0
  1  2  2  0
  3  4  2  0
  3  1  1  0
  5  4  1  0
  6  5  2  0
  7  6  1  0
  7  8  2  0
  8  3  1  0
  9  7  1  0
 10  1  1  0
 11 10  1  0
 11 12  2  0
 13 12  1  0
 14 13  2  0
 15 16  2  0
 15 14  1  0
 16 11  1  0
  4 17  1  0
  5 18  1  0
  9 19  1  0
 12 20  1  0
 13 21  1  0
 14 22  1  0
 15 23  1  0
 16 24  1  0
M  ISO  8  17  14  18  14  19  11  20  14  21  14  22  14  23  14  24  14
M  END
>  <minimizedAffinity>  (1) 
-4.0211215

>  <minimizedRMSD>  (1) 
4.66508484

$$$$
