
     RDKit          3D

 20 20  0  0  0  0  0  0  0  0999 V2000
   36.9590   30.9020   40.6890 C   0  0  0  0  0  0  0  0  0  0  0  0
   35.8260   30.3540   40.0700 C   0  0  0  0  0  0  0  0  0  0  0  0
   35.3860   29.1080   40.5380 C   0  0  0  0  0  0  0  0  0  0  0  0
   36.0740   28.5040   41.5550 N   0  0  0  0  0  0  0  0  0  0  0  0
   37.1470   29.0740   42.1060 C   0  0  0  0  0  0  0  0  0  0  0  0
   37.5960   30.2680   41.6820 N   0  0  0  0  0  0  0  0  0  0  0  0
   38.0180   28.2540   43.4330 S   0  0  0  0  0  0  0  0  0  0  0  0
   37.4280   32.2020   40.2130 C   0  0  0  0  0  0  0  0  0  0  0  0
   36.9630   32.7070   39.1570 O   0  0  0  0  0  0  0  0  0  0  0  0
   38.3810   32.9040   40.8960 O   0  0  0  0  0  0  0  0  0  0  0  0
   39.3260   33.7430   40.2870 C   0  0  0  0  0  0  0  0  0  0  0  0
   39.0510   35.2110   40.4820 C   0  0  0  0  0  0  0  0  0  0  0  0
   35.3063   30.8781   39.2544 H   0  0  0  0  0  0  0  0  0  0  0  0
   34.5029   28.6241   40.0953 H   0  0  0  0  0  0  0  0  0  0  0  0
   37.5421   28.7020   44.6370 H   0  0  0  0  0  0  0  0  0  0  0  0
   39.3326   33.5318   39.2075 H   0  0  0  0  0  0  0  0  0  0  0  0
   40.2950   33.5327   40.7631 H   0  0  0  0  0  0  0  0  0  0  0  0
   39.0088   35.4364   41.5578 H   0  0  0  0  0  0  0  0  0  0  0  0
   39.8545   35.7997   40.0153 H   0  0  0  0  0  0  0  0  0  0  0  0
   38.0889   35.4690   40.0153 H   0  0  0  0  0  0  0  0  0  0  0  0
  1  6  2  0
  2  3  2  0
  2  1  1  0
  3  4  1  0
  4  5  2  0
  5  7  1  0
  6  5  1  0
  8  1  1  0
  8 10  1  0
  9  8  2  0
 11 12  1  0
 11 10  1  0
  2 13  1  0
  3 14  1  0
  7 15  1  0
 11 16  1  0
 11 17  1  0
 12 18  1  0
 12 19  1  0
 12 20  1  0
M  ISO  8  13  14  14  14  15  11  16   8  17   8  18   8  19   8  20   8
M  END
>  <minimizedAffinity>  (1) 
-3.65198207

>  <minimizedRMSD>  (1) 
5.16393185

$$$$
