
     RDKit          3D

 29 31  0  0  1  0  0  0  0  0999 V2000
   38.1970   30.5770   41.1480 N   0  0  0  0  0  0  0  0  0  0  0  0
   39.3370   31.2950   40.6530 C   0  0  0  0  0  0  0  0  0  0  0  0
   39.0850   32.7520   41.0950 C   0  0  0  0  0  0  0  0  0  0  0  0
   38.0190   33.2600   40.3180 N   0  0  0  0  0  0  0  0  0  0  0  0
   36.8720   32.4360   40.2110 C   0  0  0  0  0  0  0  0  0  0  0  0
   36.9190   31.0900   40.8270 C   0  0  1  0  0  0  0  0  0  0  0  0
   38.2660   29.4010   41.9400 C   0  0  0  0  0  0  0  0  0  0  0  0
   39.1280   28.3530   41.6860 C   0  0  0  0  0  0  0  0  0  0  0  0
   39.1640   27.2230   42.4740 C   0  0  0  0  0  0  0  0  0  0  0  0
   38.2900   27.2140   43.5220 N   0  0  0  0  0  0  0  0  0  0  0  0
   37.4540   28.2220   43.7760 C   0  0  0  0  0  0  0  0  0  0  0  0
   37.4410   29.3100   42.9890 N   0  0  0  0  0  0  0  0  0  0  0  0
   36.1370   30.2010   39.8680 C   0  0  0  0  0  0  0  0  0  0  0  0
   35.1140   29.3500   40.1920 N   0  0  0  0  0  0  0  0  0  0  0  0
   34.7160   28.7780   39.1010 O   0  0  0  0  0  0  0  0  0  0  0  0
   35.4050   29.1920   38.0670 C   0  0  0  0  0  0  0  0  0  0  0  0
   36.2910   30.0780   38.5340 N   0  0  0  0  0  0  0  0  0  0  0  0
   39.3973   31.2243   39.5569 H   0  0  0  0  0  0  0  0  0  0  0  0
   40.2871   30.8955   41.0373 H   0  0  0  0  0  0  0  0  0  0  0  0
   38.8168   32.7786   42.1615 H   0  0  0  0  0  0  0  0  0  0  0  0
   39.9903   33.3599   40.9503 H   0  0  0  0  0  0  0  0  0  0  0  0
   37.7249   34.1545   40.7355 H   0  0  0  0  0  0  0  0  0  0  0  0
   36.0357   32.9787   40.6758 H   0  0  0  0  0  0  0  0  0  0  0  0
   36.7761   32.2399   39.1329 H   0  0  0  0  0  0  0  0  0  0  0  0
   36.4777   31.1360   41.8335 H   0  0  0  0  0  0  0  0  0  0  0  0
   39.8094   28.4223   40.8252 H   0  0  0  0  0  0  0  0  0  0  0  0
   39.8494   26.3866   42.2723 H   0  0  0  0  0  0  0  0  0  0  0  0
   36.7707   28.1616   44.6359 H   0  0  0  0  0  0  0  0  0  0  0  0
   35.2797   28.8739   37.0215 H   0  0  0  0  0  0  0  0  0  0  0  0
  1  7  1  0
  2  3  1  0
  2  1  1  0
  4  3  1  0
  5  4  1  0
  5  6  1  0
  6  1  1  0
  7 12  1  0
  8  7  2  0
  8  9  1  0
  9 10  2  0
 10 11  1  0
 12 11  2  0
 13 14  2  0
 13  6  1  0
 15 14  1  0
 16 17  2  0
 16 15  1  0
 17 13  1  0
  2 18  1  0
  2 19  1  0
  3 20  1  0
  3 21  1  0
  4 22  1  0
  5 23  1  0
  5 24  1  0
  6 25  1  1
  8 26  1  0
  9 27  1  0
 11 28  1  0
 16 29  1  0
M  ISO  8  18  13  19  13  20  13  21  13  22   5  23  13  24  13  25  13
M  ISO  4  26  14  27  14  28  14  29  14
M  END
>  <minimizedAffinity>  (1) 
-4.42798567

>  <minimizedRMSD>  (1) 
5.44213533

$$$$
