
     RDKit          3D

 32 33  0  0  1  0  0  0  0  0999 V2000
   36.3200   29.1230   42.2110 N   0  0  0  0  0  0  0  0  0  0  0  0
   36.4140   29.9670   41.0640 C   0  0  0  0  0  0  0  0  0  0  0  0
   37.7650   29.8390   40.3460 C   0  0  0  0  0  0  0  0  0  0  0  0
   38.7850   30.1520   41.4490 C   0  0  1  0  0  0  0  0  0  0  0  0
   38.7370   28.9710   42.3950 C   0  0  0  0  0  0  0  0  0  0  0  0
   37.4100   29.1150   43.1320 C   0  0  2  0  0  0  0  0  0  0  0  0
   37.2950   27.8660   43.9920 C   0  0  0  0  0  0  0  0  0  0  0  0
   36.4330   26.9900   43.3800 F   0  0  0  0  0  0  0  0  0  0  0  0
   38.5180   27.2350   44.1080 F   0  0  0  0  0  0  0  0  0  0  0  0
   36.7330   28.1630   45.2220 F   0  0  0  0  0  0  0  0  0  0  0  0
   40.0060   30.3690   40.9270 O   0  0  0  0  0  0  0  0  0  0  0  0
   40.3970   31.1930   39.8970 C   0  0  0  0  0  0  0  0  0  0  0  0
   40.6630   30.6920   38.8080 O   0  0  0  0  0  0  0  0  0  0  0  0
   40.4820   32.6450   40.1300 C   0  0  0  0  0  0  0  0  0  0  0  0
   39.3640   33.3710   39.8210 C   0  0  0  0  0  0  0  0  0  0  0  0
   39.3860   34.7520   40.1250 C   0  0  0  0  0  0  0  0  0  0  0  0
   40.5230   35.2660   40.7080 N   0  0  0  0  0  0  0  0  0  0  0  0
   41.5810   34.4830   40.9830 C   0  0  0  0  0  0  0  0  0  0  0  0
   41.5770   33.1380   40.6930 N   0  0  0  0  0  0  0  0  0  0  0  0
   43.0260   35.2140   41.7230 S   0  0  0  0  0  0  0  0  0  0  0  0
   36.1997   28.1581   41.8714 H   0  0  0  0  0  0  0  0  0  0  0  0
   35.6137   29.6951   40.3600 H   0  0  0  0  0  0  0  0  0  0  0  0
   36.3163   31.0075   41.4071 H   0  0  0  0  0  0  0  0  0  0  0  0
   37.9080   28.8208   39.9550 H   0  0  0  0  0  0  0  0  0  0  0  0
   37.8542   30.5069   39.4765 H   0  0  0  0  0  0  0  0  0  0  0  0
   38.5472   31.0788   41.9917 H   0  0  0  0  0  0  0  0  0  0  0  0
   38.7684   28.0247   41.8351 H   0  0  0  0  0  0  0  0  0  0  0  0
   39.5946   28.9559   43.0837 H   0  0  0  0  0  0  0  0  0  0  0  0
   37.3783   30.0500   43.7106 H   0  0  0  0  0  0  0  0  0  0  0  0
   38.4853   32.9004   39.3558 H   0  0  0  0  0  0  0  0  0  0  0  0
   38.5220   35.3955   39.9028 H   0  0  0  0  0  0  0  0  0  0  0  0
   42.9176   35.1592   43.0876 H   0  0  0  0  0  0  0  0  0  0  0  0
  1  6  1  0
  2  1  1  0
  3  2  1  0
  3  4  1  0
  4  5  1  0
  5  6  1  0
  6  7  1  0
  7  9  1  0
  7 10  1  0
  8  7  1  0
 11  4  1  0
 12 14  1  0
 12 11  1  0
 13 12  2  0
 14 19  2  0
 15 16  2  0
 15 14  1  0
 16 17  1  0
 17 18  2  0
 18 20  1  0
 19 18  1  0
  1 21  1  0
  2 22  1  0
  2 23  1  0
  3 24  1  0
  3 25  1  0
  4 26  1  1
  5 27  1  0
  5 28  1  0
  6 29  1  1
 15 30  1  0
 16 31  1  0
 20 32  1  0
M  ISO  8  21   5  22  13  23  13  24  13  25  13  26  13  27  13  28  13
M  ISO  4  29  13  30  14  31  14  32  11
M  END
>  <minimizedAffinity>  (1) 
-5.45532227

>  <minimizedRMSD>  (1) 
5.15789318

$$$$
