
     RDKit          3D

 38 40  0  0  1  0  0  0  0  0999 V2000
   37.2950   29.3070   43.3710 N   0  0  0  0  0  0  0  0  0  0  0  0
   37.1540   28.1010   44.1150 C   0  0  0  0  0  0  0  0  0  0  0  0
   38.2740   27.0960   43.8090 C   0  0  0  0  0  0  0  0  0  0  0  0
   38.1780   26.9130   42.2880 C   0  0  1  0  0  0  0  0  0  0  0  0
   38.6470   28.2210   41.6850 C   0  0  0  0  0  0  0  0  0  0  0  0
   37.5190   29.2030   41.9680 C   0  0  2  0  0  0  0  0  0  0  0  0
   37.7540   30.5210   41.3820 C   0  0  0  0  0  0  0  0  0  0  0  0
   36.7630   31.0930   40.6130 C   0  0  0  0  0  0  0  0  0  0  0  0
   36.9180   32.3330   40.0310 C   0  0  0  0  0  0  0  0  0  0  0  0
   38.1080   33.0310   40.2240 C   0  0  0  0  0  0  0  0  0  0  0  0
   39.0680   32.4450   40.9860 C   0  0  0  0  0  0  0  0  0  0  0  0
   38.8990   31.2230   41.5510 N   0  0  0  0  0  0  0  0  0  0  0  0
   38.8980   25.8480   41.8870 O   0  0  0  0  0  0  0  0  0  0  0  0
   38.5580   24.8150   41.0470 C   0  0  0  0  0  0  0  0  0  0  0  0
   38.8630   23.6670   41.3620 O   0  0  0  0  0  0  0  0  0  0  0  0
   37.8370   25.1090   39.7950 C   0  0  0  0  0  0  0  0  0  0  0  0
   36.5480   24.6590   39.7230 C   0  0  0  0  0  0  0  0  0  0  0  0
   35.7970   25.0080   38.5780 C   0  0  0  0  0  0  0  0  0  0  0  0
   36.4130   25.7770   37.6160 N   0  0  0  0  0  0  0  0  0  0  0  0
   37.6870   26.1830   37.7630 C   0  0  0  0  0  0  0  0  0  0  0  0
   38.4330   25.8520   38.8700 N   0  0  0  0  0  0  0  0  0  0  0  0
   38.4320   27.1730   36.4780 S   0  0  0  0  0  0  0  0  0  0  0  0
   36.4312   29.8521   43.5040 H   0  0  0  0  0  0  0  0  0  0  0  0
   37.1778   28.3420   45.1880 H   0  0  0  0  0  0  0  0  0  0  0  0
   36.1978   27.6381   43.8296 H   0  0  0  0  0  0  0  0  0  0  0  0
   39.2558   27.5006   44.0961 H   0  0  0  0  0  0  0  0  0  0  0  0
   38.1688   26.1520   44.3637 H   0  0  0  0  0  0  0  0  0  0  0  0
   37.1525   26.6960   41.9544 H   0  0  0  0  0  0  0  0  0  0  0  0
   38.8056   28.1140   40.6018 H   0  0  0  0  0  0  0  0  0  0  0  0
   39.6056   28.5548   42.1088 H   0  0  0  0  0  0  0  0  0  0  0  0
   36.6153   28.8029   41.4851 H   0  0  0  0  0  0  0  0  0  0  0  0
   35.8220   30.5444   40.4595 H   0  0  0  0  0  0  0  0  0  0  0  0
   36.1114   32.7662   39.4213 H   0  0  0  0  0  0  0  0  0  0  0  0
   38.2650   34.0227   39.7748 H   0  0  0  0  0  0  0  0  0  0  0  0
   40.0151   32.9797   41.1506 H   0  0  0  0  0  0  0  0  0  0  0  0
   36.1116   24.0478   40.5267 H   0  0  0  0  0  0  0  0  0  0  0  0
   34.7549   24.6764   38.4591 H   0  0  0  0  0  0  0  0  0  0  0  0
   39.1817   28.1692   37.0458 H   0  0  0  0  0  0  0  0  0  0  0  0
  1  2  1  0
  3  2  1  0
  4  3  1  0
  5  6  1  0
  5  4  1  0
  6  1  1  0
  7 12  1  0
  7  6  1  0
  8  7  2  0
  9 10  2  0
  9  8  1  0
 10 11  1  0
 11 12  2  0
 13  4  1  0
 14 15  2  0
 14 13  1  0
 16 14  1  0
 17 16  2  0
 18 17  1  0
 19 20  1  0
 19 18  2  0
 20 21  2  0
 21 16  1  0
 22 20  1  0
  1 23  1  0
  2 24  1  0
  2 25  1  0
  3 26  1  0
  3 27  1  0
  4 28  1  1
  5 29  1  0
  5 30  1  0
  6 31  1  6
  8 32  1  0
  9 33  1  0
 10 34  1  0
 11 35  1  0
 17 36  1  0
 18 37  1  0
 22 38  1  0
M  ISO  8  23   5  24  13  25  13  26  13  27  13  28  13  29  13  30  13
M  ISO  8  31  13  32  14  33  14  34  14  35  14  36  14  37  14  38  11
M  END
>  <minimizedAffinity>  (1) 
-5.09481812

>  <minimizedRMSD>  (1) 
3.30759716

$$$$
