
     RDKit          3D

 31 33  0  0  1  0  0  0  0  0999 V2000
   38.4310   31.0720   40.8100 N   0  0  0  0  0  0  0  0  0  0  0  0
   39.5200   32.0130   40.5490 C   0  0  0  0  0  0  0  0  0  0  0  0
   38.9740   33.3430   41.0900 C   0  0  0  0  0  0  0  0  0  0  0  0
   37.9290   33.7710   40.2250 N   0  0  0  0  0  0  0  0  0  0  0  0
   37.0690   32.7620   39.6970 C   0  0  0  0  0  0  0  0  0  0  0  0
   37.1210   31.4520   40.4320 C   0  0  1  0  0  0  0  0  0  0  0  0
   38.6050   29.8150   41.4300 C   0  0  0  0  0  0  0  0  0  0  0  0
   39.1980   28.7230   40.8190 C   0  0  0  0  0  0  0  0  0  0  0  0
   39.3180   27.5200   41.4780 C   0  0  0  0  0  0  0  0  0  0  0  0
   38.8220   27.4710   42.7630 N   0  0  0  0  0  0  0  0  0  0  0  0
   38.2450   28.5430   43.3530 C   0  0  0  0  0  0  0  0  0  0  0  0
   38.1260   29.7240   42.7050 N   0  0  0  0  0  0  0  0  0  0  0  0
   36.3010   30.4890   39.7650 N   0  0  0  0  0  0  0  0  0  0  0  0
   36.3440   30.0890   38.4560 C   0  0  0  0  0  0  0  0  0  0  0  0
   35.3460   29.1400   38.3780 C   0  0  0  0  0  0  0  0  0  0  0  0
   34.7320   28.9720   39.5630 N   0  0  0  0  0  0  0  0  0  0  0  0
   35.3230   29.8090   40.4340 C   0  0  0  0  0  0  0  0  0  0  0  0
   40.4344   31.7157   41.0834 H   0  0  0  0  0  0  0  0  0  0  0  0
   39.8008   32.0629   39.4866 H   0  0  0  0  0  0  0  0  0  0  0  0
   38.5817   33.1996   42.1076 H   0  0  0  0  0  0  0  0  0  0  0  0
   39.7731   34.0980   41.1282 H   0  0  0  0  0  0  0  0  0  0  0  0
   37.3426   34.4345   40.7512 H   0  0  0  0  0  0  0  0  0  0  0  0
   36.0355   33.1368   39.7354 H   0  0  0  0  0  0  0  0  0  0  0  0
   37.4154   32.5601   38.6727 H   0  0  0  0  0  0  0  0  0  0  0  0
   36.6623   31.5536   41.4266 H   0  0  0  0  0  0  0  0  0  0  0  0
   39.5790   28.8180   39.7915 H   0  0  0  0  0  0  0  0  0  0  0  0
   39.7851   26.6442   41.0039 H   0  0  0  0  0  0  0  0  0  0  0  0
   37.8647   28.4521   44.3812 H   0  0  0  0  0  0  0  0  0  0  0  0
   37.0142   30.4404   37.6576 H   0  0  0  0  0  0  0  0  0  0  0  0
   35.0850   28.5898   37.4619 H   0  0  0  0  0  0  0  0  0  0  0  0
   35.0647   29.9255   41.4969 H   0  0  0  0  0  0  0  0  0  0  0  0
  1  7  1  0
  2  1  1  0
  2  3  1  0
  4  3  1  0
  5  4  1  0
  5  6  1  0
  6  1  1  0
  7 12  1  0
  8  7  2  0
  8  9  1  0
  9 10  2  0
 10 11  1  0
 12 11  2  0
 13  6  1  0
 13 17  1  0
 14 13  1  0
 15 14  2  0
 15 16  1  0
 16 17  2  0
  2 18  1  0
  2 19  1  0
  3 20  1  0
  3 21  1  0
  4 22  1  0
  5 23  1  0
  5 24  1  0
  6 25  1  1
  8 26  1  0
  9 27  1  0
 11 28  1  0
 14 29  1  0
 15 30  1  0
 17 31  1  0
M  ISO  8  18  13  19  13  20  13  21  13  22   5  23  13  24  13  25  13
M  ISO  6  26  14  27  14  28  14  29  14  30  14  31  14
M  END
>  <minimizedAffinity>  (1) 
-4.33986998

>  <minimizedRMSD>  (1) 
5.3712616

$$$$
