
     RDKit          3D

 36 38  0  0  1  0  0  0  0  0999 V2000
   37.2390   29.3220   43.3940 N   0  0  0  0  0  0  0  0  0  0  0  0
   37.1690   28.1330   44.1690 C   0  0  0  0  0  0  0  0  0  0  0  0
   38.1620   27.0610   43.6950 C   0  0  0  0  0  0  0  0  0  0  0  0
   37.7890   26.8650   42.2200 C   0  0  1  0  0  0  0  0  0  0  0  0
   38.2180   28.1330   41.5130 C   0  0  0  0  0  0  0  0  0  0  0  0
   37.2120   29.1850   41.9650 C   0  0  2  0  0  0  0  0  0  0  0  0
   37.4510   30.4430   41.3130 C   0  0  0  0  0  0  0  0  0  0  0  0
   36.6360   31.2710   40.5690 C   0  0  0  0  0  0  0  0  0  0  0  0
   37.1160   32.4380   40.0450 C   0  0  0  0  0  0  0  0  0  0  0  0
   38.5270   32.7110   40.3440 C   0  0  0  0  0  0  0  0  0  0  0  0
   38.9920   31.1950   41.3750 S   0  0  0  0  0  0  0  0  0  0  0  0
   38.3720   25.7550   41.7260 O   0  0  0  0  0  0  0  0  0  0  0  0
   37.8140   24.6640   41.1050 C   0  0  0  0  0  0  0  0  0  0  0  0
   37.7830   23.5890   41.7010 O   0  0  0  0  0  0  0  0  0  0  0  0
   37.2670   24.8110   39.7430 C   0  0  0  0  0  0  0  0  0  0  0  0
   36.0190   24.2920   39.5340 C   0  0  0  0  0  0  0  0  0  0  0  0
   35.4290   24.5050   38.2660 C   0  0  0  0  0  0  0  0  0  0  0  0
   36.1520   25.2190   37.3350 N   0  0  0  0  0  0  0  0  0  0  0  0
   37.3760   25.7000   37.6180 C   0  0  0  0  0  0  0  0  0  0  0  0
   37.9610   25.5000   38.8470 N   0  0  0  0  0  0  0  0  0  0  0  0
   38.2580   26.6090   36.3660 S   0  0  0  0  0  0  0  0  0  0  0  0
   36.4390   29.9126   43.6624 H   0  0  0  0  0  0  0  0  0  0  0  0
   37.3923   28.3816   45.2170 H   0  0  0  0  0  0  0  0  0  0  0  0
   36.1551   27.7213   44.0575 H   0  0  0  0  0  0  0  0  0  0  0  0
   39.1995   27.4122   43.7961 H   0  0  0  0  0  0  0  0  0  0  0  0
   38.1059   26.1319   44.2812 H   0  0  0  0  0  0  0  0  0  0  0  0
   36.7102   26.7056   42.0761 H   0  0  0  0  0  0  0  0  0  0  0  0
   38.1783   28.0014   40.4216 H   0  0  0  0  0  0  0  0  0  0  0  0
   39.2534   28.4152   41.7546 H   0  0  0  0  0  0  0  0  0  0  0  0
   36.2054   28.8507   41.6733 H   0  0  0  0  0  0  0  0  0  0  0  0
   35.5872   30.9883   40.3956 H   0  0  0  0  0  0  0  0  0  0  0  0
   36.4939   33.1194   39.4461 H   0  0  0  0  0  0  0  0  0  0  0  0
   39.1484   33.5688   40.0474 H   0  0  0  0  0  0  0  0  0  0  0  0
   35.4944   23.7308   40.3213 H   0  0  0  0  0  0  0  0  0  0  0  0
   34.4279   24.1143   38.0313 H   0  0  0  0  0  0  0  0  0  0  0  0
   39.1165   27.4938   36.9636 H   0  0  0  0  0  0  0  0  0  0  0  0
  1  2  1  0
  3  2  1  0
  4  3  1  0
  5  6  1  0
  5  4  1  0
  6  1  1  0
  7 11  1  0
  7  6  1  0
  8  7  2  0
  9 10  2  0
  9  8  1  0
 10 11  1  0
 12  4  1  0
 13 14  2  0
 13 12  1  0
 15 13  1  0
 16 15  2  0
 17 16  1  0
 18 19  1  0
 18 17  2  0
 19 20  2  0
 20 15  1  0
 21 19  1  0
  1 22  1  0
  2 23  1  0
  2 24  1  0
  3 25  1  0
  3 26  1  0
  4 27  1  1
  5 28  1  0
  5 29  1  0
  6 30  1  1
  8 31  1  0
  9 32  1  0
 10 33  1  0
 16 34  1  0
 17 35  1  0
 21 36  1  0
M  ISO  8  22   5  23  13  24  13  25  13  26  13  27  13  28  13  29  13
M  ISO  7  30  13  31  14  32  14  33  14  34  14  35  14  36  11
M  END
>  <minimizedAffinity>  (1) 
-4.92678785

>  <minimizedRMSD>  (1) 
3.45477247

$$$$
