
     RDKit          3D

 36 38  0  0  1  0  0  0  0  0999 V2000
   37.3730   29.3870   43.2590 N   0  0  0  0  0  0  0  0  0  0  0  0
   37.1460   28.1620   43.9500 C   0  0  0  0  0  0  0  0  0  0  0  0
   37.8700   26.9720   43.3000 C   0  0  0  0  0  0  0  0  0  0  0  0
   37.3460   26.9850   41.8580 C   0  0  1  0  0  0  0  0  0  0  0  0
   37.9500   28.2150   41.2110 C   0  0  0  0  0  0  0  0  0  0  0  0
   37.1890   29.3800   41.8350 C   0  0  2  0  0  0  0  0  0  0  0  0
   37.5400   30.6700   41.2640 C   0  0  0  0  0  0  0  0  0  0  0  0
   36.6530   31.3100   40.4210 C   0  0  0  0  0  0  0  0  0  0  0  0
   37.2500   32.5130   40.0300 C   0  0  0  0  0  0  0  0  0  0  0  0
   38.4720   32.5200   40.6700 C   0  0  0  0  0  0  0  0  0  0  0  0
   38.6110   31.4280   41.3840 O   0  0  0  0  0  0  0  0  0  0  0  0
   37.6610   25.8370   41.2290 O   0  0  0  0  0  0  0  0  0  0  0  0
   36.8660   24.9740   40.5080 C   0  0  0  0  0  0  0  0  0  0  0  0
   36.3510   24.0160   41.0800 O   0  0  0  0  0  0  0  0  0  0  0  0
   36.6540   25.2260   39.0710 C   0  0  0  0  0  0  0  0  0  0  0  0
   35.5660   24.6190   38.5090 C   0  0  0  0  0  0  0  0  0  0  0  0
   35.2800   24.9160   37.1560 C   0  0  0  0  0  0  0  0  0  0  0  0
   36.1140   25.7950   36.5030 N   0  0  0  0  0  0  0  0  0  0  0  0
   37.1660   26.3540   37.1270 C   0  0  0  0  0  0  0  0  0  0  0  0
   37.4570   26.0740   38.4420 N   0  0  0  0  0  0  0  0  0  0  0  0
   38.2150   27.4760   36.2260 S   0  0  0  0  0  0  0  0  0  0  0  0
   36.7287   30.0883   43.6514 H   0  0  0  0  0  0  0  0  0  0  0  0
   37.5043   28.2697   44.9844 H   0  0  0  0  0  0  0  0  0  0  0  0
   36.0663   27.9547   43.9133 H   0  0  0  0  0  0  0  0  0  0  0  0
   38.9606   27.1133   43.3242 H   0  0  0  0  0  0  0  0  0  0  0  0
   37.6829   26.0195   43.8174 H   0  0  0  0  0  0  0  0  0  0  0  0
   36.2486   27.0407   41.8065 H   0  0  0  0  0  0  0  0  0  0  0  0
   37.8043   28.1934   40.1209 H   0  0  0  0  0  0  0  0  0  0  0  0
   39.0355   28.2860   41.3742 H   0  0  0  0  0  0  0  0  0  0  0  0
   36.1254   29.2229   41.6026 H   0  0  0  0  0  0  0  0  0  0  0  0
   35.6625   30.9426   40.1144 H   0  0  0  0  0  0  0  0  0  0  0  0
   36.8370   33.2823   39.3610 H   0  0  0  0  0  0  0  0  0  0  0  0
   39.2199   33.3230   40.5931 H   0  0  0  0  0  0  0  0  0  0  0  0
   34.9368   23.9260   39.0868 H   0  0  0  0  0  0  0  0  0  0  0  0
   34.4203   24.4600   36.6431 H   0  0  0  0  0  0  0  0  0  0  0  0
   38.9303   28.2411   37.1091 H   0  0  0  0  0  0  0  0  0  0  0  0
  1  2  1  0
  3  2  1  0
  4  3  1  0
  5  6  1  0
  5  4  1  0
  6  1  1  0
  7 11  1  0
  7  6  1  0
  8  7  2  0
  9  8  1  0
  9 10  2  0
 10 11  1  0
 12  4  1  0
 13 14  2  0
 13 12  1  0
 15 13  1  0
 16 15  2  0
 17 16  1  0
 18 19  1  0
 18 17  2  0
 19 20  2  0
 20 15  1  0
 21 19  1  0
  1 22  1  0
  2 23  1  0
  2 24  1  0
  3 25  1  0
  3 26  1  0
  4 27  1  1
  5 28  1  0
  5 29  1  0
  6 30  1  1
  8 31  1  0
  9 32  1  0
 10 33  1  0
 16 34  1  0
 17 35  1  0
 21 36  1  0
M  ISO  8  22   5  23  13  24  13  25  13  26  13  27  13  28  13  29  13
M  ISO  7  30  13  31  14  32  14  33  14  34  14  35  14  36  11
M  END
>  <minimizedAffinity>  (1) 
-4.84171867

>  <minimizedRMSD>  (1) 
3.16658068

$$$$
