
     RDKit          3D

 36 38  0  0  1  0  0  0  0  0999 V2000
   36.9610   28.6670   43.9300 N   0  0  0  0  0  0  0  0  0  0  0  0
   36.3230   27.4600   43.5560 C   0  0  0  0  0  0  0  0  0  0  0  0
   37.3280   26.3510   43.2140 C   0  0  0  0  0  0  0  0  0  0  0  0
   38.1910   26.9780   42.1120 C   0  0  1  0  0  0  0  0  0  0  0  0
   39.0140   28.0540   42.7870 C   0  0  0  0  0  0  0  0  0  0  0  0
   38.0480   29.1530   43.1410 C   0  0  1  0  0  0  0  0  0  0  0  0
   37.6870   30.0650   42.0480 C   0  0  0  0  0  0  0  0  0  0  0  0
   38.4680   30.8390   41.2150 C   0  0  0  0  0  0  0  0  0  0  0  0
   37.6730   31.5260   40.3500 N   0  0  0  0  0  0  0  0  0  0  0  0
   36.3850   31.2130   40.6070 C   0  0  0  0  0  0  0  0  0  0  0  0
   36.4190   30.3400   41.6210 N   0  0  0  0  0  0  0  0  0  0  0  0
   38.9310   26.0410   41.4930 O   0  0  0  0  0  0  0  0  0  0  0  0
   38.5690   24.8120   40.9930 C   0  0  0  0  0  0  0  0  0  0  0  0
   39.0010   23.8020   41.5410 O   0  0  0  0  0  0  0  0  0  0  0  0
   37.6760   24.7450   39.8240 C   0  0  0  0  0  0  0  0  0  0  0  0
   36.4980   24.0810   40.0080 C   0  0  0  0  0  0  0  0  0  0  0  0
   35.5740   24.0820   38.9360 C   0  0  0  0  0  0  0  0  0  0  0  0
   35.9280   24.7530   37.7860 N   0  0  0  0  0  0  0  0  0  0  0  0
   37.1100   25.3850   37.6840 C   0  0  0  0  0  0  0  0  0  0  0  0
   38.0150   25.3920   38.7170 N   0  0  0  0  0  0  0  0  0  0  0  0
   37.5130   26.2270   36.1630 S   0  0  0  0  0  0  0  0  0  0  0  0
   36.2387   29.4013   43.9323 H   0  0  0  0  0  0  0  0  0  0  0  0
   35.6918   27.1203   44.3904 H   0  0  0  0  0  0  0  0  0  0  0  0
   35.7245   27.6610   42.6552 H   0  0  0  0  0  0  0  0  0  0  0  0
   37.9386   26.0896   44.0908 H   0  0  0  0  0  0  0  0  0  0  0  0
   36.8430   25.4154   42.8985 H   0  0  0  0  0  0  0  0  0  0  0  0
   37.5862   27.4271   41.3104 H   0  0  0  0  0  0  0  0  0  0  0  0
   39.4912   27.6571   43.6952 H   0  0  0  0  0  0  0  0  0  0  0  0
   39.8172   28.4191   42.1300 H   0  0  0  0  0  0  0  0  0  0  0  0
   38.6063   29.8400   43.7940 H   0  0  0  0  0  0  0  0  0  0  0  0
   39.5663   30.8928   41.2453 H   0  0  0  0  0  0  0  0  0  0  0  0
   35.4927   31.5960   40.0902 H   0  0  0  0  0  0  0  0  0  0  0  0
   35.5758   29.9189   42.0365 H   0  0  0  0  0  0  0  0  0  0  0  0
   36.2752   23.5647   40.9534 H   0  0  0  0  0  0  0  0  0  0  0  0
   34.6066   23.5649   39.0182 H   0  0  0  0  0  0  0  0  0  0  0  0
   38.0914   27.4354   36.4494 H   0  0  0  0  0  0  0  0  0  0  0  0
  2  1  1  0
  3  2  1  0
  4  5  1  0
  4  3  1  0
  5  6  1  0
  6  1  1  0
  7  6  1  0
  8  7  2  0
  9 10  2  0
  9  8  1  0
 10 11  1  0
 11  7  1  0
 12  4  1  0
 13 12  1  0
 13 14  2  0
 15 16  2  0
 15 13  1  0
 17 16  1  0
 18 17  2  0
 19 18  1  0
 19 20  2  0
 20 15  1  0
 21 19  1  0
  1 22  1  0
  2 23  1  0
  2 24  1  0
  3 25  1  0
  3 26  1  0
  4 27  1  6
  5 28  1  0
  5 29  1  0
  6 30  1  1
  8 31  1  0
 10 32  1  0
 11 33  1  0
 16 34  1  0
 17 35  1  0
 21 36  1  0
M  ISO  8  22   5  23  13  24  13  25  13  26  13  27  13  28  13  29  13
M  ISO  7  30  13  31  14  32  14  33   9  34  14  35  14  36  11
M  END
>  <minimizedAffinity>  (1) 
-4.76462936

>  <minimizedRMSD>  (1) 
2.68328238

$$$$
