
     RDKit          3D

 35 37  0  0  1  0  0  0  0  0999 V2000
   37.2810   29.4090   43.3290 N   0  0  0  0  0  0  0  0  0  0  0  0
   37.1650   28.2230   44.1010 C   0  0  0  0  0  0  0  0  0  0  0  0
   38.2760   27.2120   43.7720 C   0  0  0  0  0  0  0  0  0  0  0  0
   38.1170   26.9900   42.2620 C   0  0  1  0  0  0  0  0  0  0  0  0
   38.5590   28.2850   41.6090 C   0  0  0  0  0  0  0  0  0  0  0  0
   37.4520   29.2760   41.9170 C   0  0  2  0  0  0  0  0  0  0  0  0
   37.6420   30.5600   41.2640 C   0  0  0  0  0  0  0  0  0  0  0  0
   36.6230   31.1670   40.4500 C   0  0  0  0  0  0  0  0  0  0  0  0
   37.4380   32.7770   39.8990 S   0  0  0  0  0  0  0  0  0  0  0  0
   38.9900   32.2980   40.8830 C   0  0  0  0  0  0  0  0  0  0  0  0
   38.7240   31.3010   41.3350 N   0  0  0  0  0  0  0  0  0  0  0  0
   38.8200   25.9130   41.8610 O   0  0  0  0  0  0  0  0  0  0  0  0
   38.4240   24.8250   41.1170 C   0  0  0  0  0  0  0  0  0  0  0  0
   38.6440   23.6960   41.5480 O   0  0  0  0  0  0  0  0  0  0  0  0
   37.7470   25.0470   39.8270 C   0  0  0  0  0  0  0  0  0  0  0  0
   36.4620   24.5910   39.7380 C   0  0  0  0  0  0  0  0  0  0  0  0
   35.7520   24.8710   38.5470 C   0  0  0  0  0  0  0  0  0  0  0  0
   36.4050   25.5850   37.5640 N   0  0  0  0  0  0  0  0  0  0  0  0
   37.6740   26.0020   37.7320 C   0  0  0  0  0  0  0  0  0  0  0  0
   38.3770   25.7350   38.8830 N   0  0  0  0  0  0  0  0  0  0  0  0
   38.4560   26.9200   36.4190 S   0  0  0  0  0  0  0  0  0  0  0  0
   36.4245   29.9599   43.4833 H   0  0  0  0  0  0  0  0  0  0  0  0
   37.2278   28.4855   45.1674 H   0  0  0  0  0  0  0  0  0  0  0  0
   36.1981   27.7554   43.8633 H   0  0  0  0  0  0  0  0  0  0  0  0
   39.2676   27.6262   44.0069 H   0  0  0  0  0  0  0  0  0  0  0  0
   38.1972   26.2819   44.3540 H   0  0  0  0  0  0  0  0  0  0  0  0
   37.0799   26.7645   41.9728 H   0  0  0  0  0  0  0  0  0  0  0  0
   38.6686   28.1527   40.5225 H   0  0  0  0  0  0  0  0  0  0  0  0
   39.5354   28.6254   41.9842 H   0  0  0  0  0  0  0  0  0  0  0  0
   36.5213   28.8692   41.4947 H   0  0  0  0  0  0  0  0  0  0  0  0
   35.6192   30.7873   40.2090 H   0  0  0  0  0  0  0  0  0  0  0  0
   39.9287   32.8619   40.9872 H   0  0  0  0  0  0  0  0  0  0  0  0
   35.9975   24.0278   40.5609 H   0  0  0  0  0  0  0  0  0  0  0  0
   34.7149   24.5311   38.4095 H   0  0  0  0  0  0  0  0  0  0  0  0
   39.2732   27.8793   36.9564 H   0  0  0  0  0  0  0  0  0  0  0  0
  1  2  1  0
  3  2  1  0
  4  3  1  0
  5  6  1  0
  5  4  1  0
  6  1  1  0
  7 11  1  0
  7  6  1  0
  8  7  2  0
  9  8  1  0
  9 10  1  0
 10 11  2  0
 12  4  1  0
 13 14  2  0
 13 12  1  0
 15 13  1  0
 16 15  2  0
 17 16  1  0
 18 19  1  0
 18 17  2  0
 19 20  2  0
 20 15  1  0
 21 19  1  0
  1 22  1  0
  2 23  1  0
  2 24  1  0
  3 25  1  0
  3 26  1  0
  4 27  1  1
  5 28  1  0
  5 29  1  0
  6 30  1  6
  8 31  1  0
 10 32  1  0
 16 33  1  0
 17 34  1  0
 21 35  1  0
M  ISO  8  22   5  23  13  24  13  25  13  26  13  27  13  28  13  29  13
M  ISO  6  30  13  31  14  32  14  33  14  34  14  35  11
M  END
>  <minimizedAffinity>  (1) 
-4.73898172

>  <minimizedRMSD>  (1) 
3.26169801

$$$$
