
     RDKit          3D

 30 32  0  0  1  0  0  0  0  0999 V2000
   38.3870   31.3580   40.5070 N   0  0  0  0  0  0  0  0  0  0  0  0
   39.5130   32.2530   40.4820 C   0  0  0  0  0  0  0  0  0  0  0  0
   38.8970   33.6090   40.8750 C   0  0  0  0  0  0  0  0  0  0  0  0
   38.1270   34.0520   39.7640 N   0  0  0  0  0  0  0  0  0  0  0  0
   37.2230   33.1110   39.2420 C   0  0  0  0  0  0  0  0  0  0  0  0
   37.2080   31.7580   39.8270 C   0  0  1  0  0  0  0  0  0  0  0  0
   38.3670   30.1110   41.1720 C   0  0  0  0  0  0  0  0  0  0  0  0
   39.2380   29.0730   40.9020 C   0  0  0  0  0  0  0  0  0  0  0  0
   39.1660   27.8800   41.5990 C   0  0  0  0  0  0  0  0  0  0  0  0
   38.1920   27.7940   42.5610 N   0  0  0  0  0  0  0  0  0  0  0  0
   37.3570   28.8040   42.8130 C   0  0  0  0  0  0  0  0  0  0  0  0
   37.4430   29.9500   42.1270 N   0  0  0  0  0  0  0  0  0  0  0  0
   36.8800   30.8030   38.6810 C   0  0  0  0  0  0  0  0  0  0  0  0
   37.6440   30.6350   37.4380 C   0  0  0  0  0  0  0  0  0  0  0  0
   36.6750   29.3160   36.6470 S   0  0  0  0  0  0  0  0  0  0  0  0
   35.4370   29.2080   38.0750 C   0  0  0  0  0  0  0  0  0  0  0  0
   35.7840   30.0900   38.9910 N   0  0  0  0  0  0  0  0  0  0  0  0
   40.2789   31.9430   41.2081 H   0  0  0  0  0  0  0  0  0  0  0  0
   40.0215   32.2778   39.5069 H   0  0  0  0  0  0  0  0  0  0  0  0
   38.2523   33.4896   41.7582 H   0  0  0  0  0  0  0  0  0  0  0  0
   39.6807   34.3388   41.1263 H   0  0  0  0  0  0  0  0  0  0  0  0
   37.5890   34.8789   40.0601 H   0  0  0  0  0  0  0  0  0  0  0  0
   36.2125   33.5289   39.3616 H   0  0  0  0  0  0  0  0  0  0  0  0
   37.5602   32.9556   38.2065 H   0  0  0  0  0  0  0  0  0  0  0  0
   36.4554   31.7453   40.6292 H   0  0  0  0  0  0  0  0  0  0  0  0
   40.0014   29.1972   40.1198 H   0  0  0  0  0  0  0  0  0  0  0  0
   39.8526   27.0457   41.3929 H   0  0  0  0  0  0  0  0  0  0  0  0
   36.5895   28.6934   43.5932 H   0  0  0  0  0  0  0  0  0  0  0  0
   38.5454   31.1581   37.0861 H   0  0  0  0  0  0  0  0  0  0  0  0
   34.5757   28.5261   38.1308 H   0  0  0  0  0  0  0  0  0  0  0  0
  1  7  1  0
  2  1  1  0
  2  3  1  0
  4  3  1  0
  5  4  1  0
  5  6  1  0
  6  1  1  0
  7 12  1  0
  8  7  2  0
  8  9  1  0
  9 10  2  0
 10 11  1  0
 12 11  2  0
 13 17  1  0
 13  6  1  0
 14 13  2  0
 15 14  1  0
 15 16  1  0
 16 17  2  0
  2 18  1  0
  2 19  1  0
  3 20  1  0
  3 21  1  0
  4 22  1  0
  5 23  1  0
  5 24  1  0
  6 25  1  1
  8 26  1  0
  9 27  1  0
 11 28  1  0
 14 29  1  0
 16 30  1  0
M  ISO  8  18  13  19  13  20  13  21  13  22   5  23  13  24  13  25  13
M  ISO  5  26  14  27  14  28  14  29  14  30  14
M  END
>  <minimizedAffinity>  (1) 
-4.29420471

>  <minimizedRMSD>  (1) 
5.71616554

$$$$
