
     RDKit          3D

 35 36  0  0  1  0  0  0  0  0999 V2000
   37.4270   28.9050   43.9760 N   0  0  0  0  0  0  0  0  0  0  0  0
   36.4480   27.8820   44.0470 C   0  0  0  0  0  0  0  0  0  0  0  0
   36.7510   26.6840   43.1310 C   0  0  0  0  0  0  0  0  0  0  0  0
   36.9010   27.3270   41.7480 C   0  0  1  0  0  0  0  0  0  0  0  0
   38.1920   28.1210   41.8000 C   0  0  0  0  0  0  0  0  0  0  0  0
   37.8750   29.3180   42.6870 C   0  0  2  0  0  0  0  0  0  0  0  0
   36.8790   26.3900   40.7830 O   0  0  0  0  0  0  0  0  0  0  0  0
   37.2560   26.4640   39.4630 C   0  0  0  0  0  0  0  0  0  0  0  0
   38.0820   25.6630   39.0340 O   0  0  0  0  0  0  0  0  0  0  0  0
   36.6560   27.4990   38.6010 C   0  0  0  0  0  0  0  0  0  0  0  0
   35.3780   27.2600   38.1770 C   0  0  0  0  0  0  0  0  0  0  0  0
   34.7390   28.2760   37.4290 C   0  0  0  0  0  0  0  0  0  0  0  0
   35.4470   29.4320   37.1820 N   0  0  0  0  0  0  0  0  0  0  0  0
   36.7040   29.5910   37.6370 C   0  0  0  0  0  0  0  0  0  0  0  0
   37.3370   28.6120   38.3660 N   0  0  0  0  0  0  0  0  0  0  0  0
   37.5610   31.1090   37.2730 S   0  0  0  0  0  0  0  0  0  0  0  0
   39.0290   30.2650   42.7800 C   0  0  0  0  0  0  0  0  0  0  0  0
   40.3620   29.5940   42.5290 C   0  0  0  0  0  0  0  0  0  0  0  0
   37.0364   29.7350   44.4444 H   0  0  0  0  0  0  0  0  0  0  0  0
   36.3936   27.5225   45.0852 H   0  0  0  0  0  0  0  0  0  0  0  0
   35.4966   28.3180   43.7084 H   0  0  0  0  0  0  0  0  0  0  0  0
   37.6809   26.1810   43.4347 H   0  0  0  0  0  0  0  0  0  0  0  0
   35.9708   25.9092   43.1632 H   0  0  0  0  0  0  0  0  0  0  0  0
   36.0659   27.9984   41.4994 H   0  0  0  0  0  0  0  0  0  0  0  0
   39.0010   27.5176   42.2375 H   0  0  0  0  0  0  0  0  0  0  0  0
   38.5347   28.4238   40.7996 H   0  0  0  0  0  0  0  0  0  0  0  0
   37.0493   29.8669   42.2106 H   0  0  0  0  0  0  0  0  0  0  0  0
   34.8668   26.3140   38.4088 H   0  0  0  0  0  0  0  0  0  0  0  0
   33.7118   28.1478   37.0571 H   0  0  0  0  0  0  0  0  0  0  0  0
   37.9106   31.7282   38.4440 H   0  0  0  0  0  0  0  0  0  0  0  0
   38.8907   31.0614   42.0339 H   0  0  0  0  0  0  0  0  0  0  0  0
   39.0475   30.6637   43.8050 H   0  0  0  0  0  0  0  0  0  0  0  0
   40.8386   29.3541   43.4909 H   0  0  0  0  0  0  0  0  0  0  0  0
   40.2043   28.6679   41.9568 H   0  0  0  0  0  0  0  0  0  0  0  0
   41.0120   30.2723   41.9568 H   0  0  0  0  0  0  0  0  0  0  0  0
  1  2  1  0
  3  2  1  0
  4  5  1  0
  4  3  1  0
  5  6  1  0
  6 17  1  0
  6  1  1  0
  7  4  1  0
  8  7  1  0
  9  8  2  0
 10  8  1  0
 11 10  2  0
 12 11  1  0
 13 12  2  0
 13 14  1  0
 14 15  2  0
 15 10  1  0
 16 14  1  0
 18 17  1  0
  1 19  1  0
  2 20  1  0
  2 21  1  0
  3 22  1  0
  3 23  1  0
  4 24  1  6
  5 25  1  0
  5 26  1  0
  6 27  1  6
 11 28  1  0
 12 29  1  0
 16 30  1  0
 17 31  1  0
 17 32  1  0
 18 33  1  0
 18 34  1  0
 18 35  1  0
M  ISO  8  19   5  20  13  21  13  22  13  23  13  24  13  25  13  26  13
M  ISO  8  27  13  28  14  29  14  30  11  31   8  32   8  33   8  34   8
M  ISO  1  35   8
M  END
>  <minimizedAffinity>  (1) 
-4.02485609

>  <minimizedRMSD>  (1) 
0.90090245

$$$$
