
     RDKit          3D

 32 33  0  0  1  0  0  0  0  0999 V2000
   37.1550   28.8360   43.6710 N   0  0  0  0  0  0  0  0  0  0  0  0
   36.4640   27.5950   43.5280 C   0  0  0  0  0  0  0  0  0  0  0  0
   37.3030   26.5700   42.7510 C   0  0  0  0  0  0  0  0  0  0  0  0
   37.5950   27.2790   41.4250 C   0  0  1  0  0  0  0  0  0  0  0  0
   38.5610   28.3970   41.7520 C   0  0  0  0  0  0  0  0  0  0  0  0
   37.7390   29.4230   42.5160 C   0  0  1  0  0  0  0  0  0  0  0  0
   36.7230   30.1350   41.6950 C   0  0  0  0  0  0  0  0  0  0  0  0
   38.0660   26.4080   40.5110 O   0  0  0  0  0  0  0  0  0  0  0  0
   37.8750   26.3620   39.1500 C   0  0  0  0  0  0  0  0  0  0  0  0
   38.3600   25.4310   38.5110 O   0  0  0  0  0  0  0  0  0  0  0  0
   37.0920   27.4260   38.4970 C   0  0  0  0  0  0  0  0  0  0  0  0
   35.7680   27.1580   38.2980 C   0  0  0  0  0  0  0  0  0  0  0  0
   34.9630   28.1910   37.7640 C   0  0  0  0  0  0  0  0  0  0  0  0
   35.5710   29.3950   37.4830 N   0  0  0  0  0  0  0  0  0  0  0  0
   36.8840   29.5820   37.7100 C   0  0  0  0  0  0  0  0  0  0  0  0
   37.6780   28.5850   38.2290 N   0  0  0  0  0  0  0  0  0  0  0  0
   37.6200   31.1620   37.3240 S   0  0  0  0  0  0  0  0  0  0  0  0
   36.4821   29.5169   44.0511 H   0  0  0  0  0  0  0  0  0  0  0  0
   36.2427   27.1919   44.5273 H   0  0  0  0  0  0  0  0  0  0  0  0
   35.5366   27.7791   42.9658 H   0  0  0  0  0  0  0  0  0  0  0  0
   38.2354   26.3381   43.2866 H   0  0  0  0  0  0  0  0  0  0  0  0
   36.7879   25.6072   42.6178 H   0  0  0  0  0  0  0  0  0  0  0  0
   36.6884   27.7003   40.9661 H   0  0  0  0  0  0  0  0  0  0  0  0
   39.3871   28.0233   42.3749 H   0  0  0  0  0  0  0  0  0  0  0  0
   39.0155   28.8258   40.8467 H   0  0  0  0  0  0  0  0  0  0  0  0
   38.4486   30.2043   42.8258 H   0  0  0  0  0  0  0  0  0  0  0  0
   36.0039   30.6389   42.3575 H   0  0  0  0  0  0  0  0  0  0  0  0
   37.2224   30.8818   41.0602 H   0  0  0  0  0  0  0  0  0  0  0  0
   36.1915   29.4107   41.0602 H   0  0  0  0  0  0  0  0  0  0  0  0
   35.3427   26.1739   38.5442 H   0  0  0  0  0  0  0  0  0  0  0  0
   33.8893   28.0385   37.5795 H   0  0  0  0  0  0  0  0  0  0  0  0
   37.9262   31.8193   38.4864 H   0  0  0  0  0  0  0  0  0  0  0  0
  2  1  1  0
  3  2  1  0
  4  5  1  0
  4  3  1  0
  5  6  1  0
  6  1  1  0
  7  6  1  0
  8  4  1  0
  9  8  1  0
 10  9  2  0
 11  9  1  0
 12 11  2  0
 13 12  1  0
 14 15  1  0
 14 13  2  0
 15 16  2  0
 16 11  1  0
 17 15  1  0
  1 18  1  0
  2 19  1  0
  2 20  1  0
  3 21  1  0
  3 22  1  0
  4 23  1  6
  5 24  1  0
  5 25  1  0
  6 26  1  1
  7 27  1  0
  7 28  1  0
  7 29  1  0
 12 30  1  0
 13 31  1  0
 17 32  1  0
M  ISO  8  18   5  19  13  20  13  21  13  22  13  23  13  24  13  25  13
M  ISO  7  26  13  27   8  28   8  29   8  30  14  31  14  32  11
M  END
>  <minimizedAffinity>  (1) 
-4.0134449

>  <minimizedRMSD>  (1) 
0.540838003

$$$$
