
     RDKit          3D

 33 35  0  0  0  0  0  0  0  0999 V2000
   38.5590   31.4830   41.0960 C   0  0  0  0  0  0  0  0  0  0  0  0
   38.7060   30.2940   41.8160 C   0  0  0  0  0  0  0  0  0  0  0  0
   37.6710   29.4010   42.0940 C   0  0  0  0  0  0  0  0  0  0  0  0
   36.4710   29.7850   41.5950 N   0  0  0  0  0  0  0  0  0  0  0  0
   36.3020   30.9230   40.9000 C   0  0  0  0  0  0  0  0  0  0  0  0
   37.3210   31.7420   40.6610 N   0  0  0  0  0  0  0  0  0  0  0  0
   39.8400   32.1980   40.9800 C   0  0  0  0  0  0  0  0  0  0  0  0
   41.0450   31.6390   41.1870 N   0  0  0  0  0  0  0  0  0  0  0  0
   42.1890   32.2940   41.0790 C   0  0  0  0  0  0  0  0  0  0  0  0
   42.2670   33.5930   40.7510 N   0  0  0  0  0  0  0  0  0  0  0  0
   41.1030   34.2240   40.5280 C   0  0  0  0  0  0  0  0  0  0  0  0
   41.1740   35.5580   40.1910 C   0  0  0  0  0  0  0  0  0  0  0  0
   40.0210   36.2750   39.9460 C   0  0  0  0  0  0  0  0  0  0  0  0
   38.8020   35.5950   40.0550 C   0  0  0  0  0  0  0  0  0  0  0  0
   38.8110   34.2640   40.3970 C   0  0  0  0  0  0  0  0  0  0  0  0
   39.9230   33.5280   40.6430 C   0  0  0  0  0  0  0  0  0  0  0  0
   37.9100   28.1640   42.8540 C   0  0  0  0  0  0  0  0  0  0  0  0
   37.1310   28.1010   44.1400 C   0  0  0  0  0  0  0  0  0  0  0  0
   39.4300   28.1100   43.1500 C   0  0  0  0  0  0  0  0  0  0  0  0
   39.7098   30.0446   42.1903 H   0  0  0  0  0  0  0  0  0  0  0  0
   35.3018   31.1812   40.5220 H   0  0  0  0  0  0  0  0  0  0  0  0
   43.1240   31.7462   41.2676 H   0  0  0  0  0  0  0  0  0  0  0  0
   42.1534   36.0532   40.1170 H   0  0  0  0  0  0  0  0  0  0  0  0
   40.0581   37.3405   39.6753 H   0  0  0  0  0  0  0  0  0  0  0  0
   37.8521   36.1179   39.8698 H   0  0  0  0  0  0  0  0  0  0  0  0
   37.8390   33.7553   40.4776 H   0  0  0  0  0  0  0  0  0  0  0  0
   37.5712   27.3036   42.2582 H   0  0  0  0  0  0  0  0  0  0  0  0
   37.8246   28.1571   44.9919 H   0  0  0  0  0  0  0  0  0  0  0  0
   36.4271   28.9452   44.1840 H   0  0  0  0  0  0  0  0  0  0  0  0
   36.5719   27.1547   44.1840 H   0  0  0  0  0  0  0  0  0  0  0  0
   39.5917   28.1043   44.2380 H   0  0  0  0  0  0  0  0  0  0  0  0
   39.8568   27.1961   42.7110 H   0  0  0  0  0  0  0  0  0  0  0  0
   39.9206   28.9913   42.7110 H   0  0  0  0  0  0  0  0  0  0  0  0
  1  2  2  0
  2  3  1  0
  3 17  1  0
  4  3  2  0
  5  4  1  0
  6  5  2  0
  6  1  1  0
  7  1  1  0
  7  8  2  0
  9  8  1  0
 10  9  2  0
 11 16  2  0
 11 10  1  0
 12 11  1  0
 13 14  1  0
 13 12  2  0
 14 15  2  0
 15 16  1  0
 16  7  1  0
 17 19  1  0
 17 18  1  0
  2 20  1  0
  5 21  1  0
  9 22  1  0
 12 23  1  0
 13 24  1  0
 14 25  1  0
 15 26  1  0
 17 27  1  0
 18 28  1  0
 18 29  1  0
 18 30  1  0
 19 31  1  0
 19 32  1  0
 19 33  1  0
M  ISO  8  20  14  21  14  22  14  23  14  24  14  25  14  26  14  27   8
M  ISO  6  28   8  29   8  30   8  31   8  32   8  33   8
M  END
>  <minimizedAffinity>  (1) 
-6.01378536

>  <minimizedRMSD>  (1) 
3.34319234

$$$$
