
     RDKit          3D

 32 33  0  0  0  0  0  0  0  0999 V2000
   38.4030   29.9300   40.7170 C   0  0  0  0  0  0  0  0  0  0  0  0
   38.1910   29.3600   41.9860 C   0  0  0  0  0  0  0  0  0  0  0  0
   38.1220   27.9370   42.0470 C   0  0  0  0  0  0  0  0  0  0  0  0
   38.2630   27.2130   40.8890 N   0  0  0  0  0  0  0  0  0  0  0  0
   38.4650   27.8310   39.7000 C   0  0  0  0  0  0  0  0  0  0  0  0
   38.5340   29.1820   39.6130 N   0  0  0  0  0  0  0  0  0  0  0  0
   38.4830   31.3360   40.5780 N   0  0  0  0  0  0  0  0  0  0  0  0
   39.6610   31.9930   40.5820 C   0  0  0  0  0  0  0  0  0  0  0  0
   39.6780   33.3770   40.4410 C   0  0  0  0  0  0  0  0  0  0  0  0
   40.9310   34.1840   40.4350 C   0  0  0  0  0  0  0  0  0  0  0  0
   38.5170   34.1100   40.2960 C   0  0  0  0  0  0  0  0  0  0  0  0
   38.4790   35.3610   40.1660 O   0  0  0  0  0  0  0  0  0  0  0  0
   37.3440   33.4190   40.2950 N   0  0  0  0  0  0  0  0  0  0  0  0
   37.3700   32.0720   40.4350 C   0  0  0  0  0  0  0  0  0  0  0  0
   36.2380   31.5260   40.4220 O   0  0  0  0  0  0  0  0  0  0  0  0
   37.8980   27.2700   43.3590 C   0  0  0  0  0  0  0  0  0  0  0  0
   37.1160   28.1340   44.3160 C   0  0  0  0  0  0  0  0  0  0  0  0
   39.2980   26.9300   43.9220 C   0  0  0  0  0  0  0  0  0  0  0  0
   38.0837   29.9818   42.8870 H   0  0  0  0  0  0  0  0  0  0  0  0
   38.5750   27.2251   38.7885 H   0  0  0  0  0  0  0  0  0  0  0  0
   40.6035   31.4374   40.6962 H   0  0  0  0  0  0  0  0  0  0  0  0
   41.2428   34.3848   41.4706 H   0  0  0  0  0  0  0  0  0  0  0  0
   41.7238   33.6263   39.9150 H   0  0  0  0  0  0  0  0  0  0  0  0
   40.7512   35.1365   39.9150 H   0  0  0  0  0  0  0  0  0  0  0  0
   36.4473   33.9147   40.1890 H   0  0  0  0  0  0  0  0  0  0  0  0
   37.2901   26.3629   43.2261 H   0  0  0  0  0  0  0  0  0  0  0  0
   37.3675   27.8561   45.3502 H   0  0  0  0  0  0  0  0  0  0  0  0
   37.3709   29.1908   44.1480 H   0  0  0  0  0  0  0  0  0  0  0  0
   36.0391   27.9854   44.1480 H   0  0  0  0  0  0  0  0  0  0  0  0
   39.2630   26.9385   45.0214 H   0  0  0  0  0  0  0  0  0  0  0  0
   39.6013   25.9321   43.5725 H   0  0  0  0  0  0  0  0  0  0  0  0
   40.0252   27.6776   43.5725 H   0  0  0  0  0  0  0  0  0  0  0  0
  1  2  2  0
  2  3  1  0
  3 16  1  0
  4  3  2  0
  5  4  1  0
  6  5  2  0
  6  1  1  0
  7  8  1  0
  7  1  1  0
  9  8  2  0
 10  9  1  0
 11  9  1  0
 12 11  2  0
 13 11  1  0
 13 14  1  0
 14  7  1  0
 15 14  2  0
 16 18  1  0
 16 17  1  0
  2 19  1  0
  5 20  1  0
  8 21  1  0
 10 22  1  0
 10 23  1  0
 10 24  1  0
 13 25  1  0
 16 26  1  0
 17 27  1  0
 17 28  1  0
 17 29  1  0
 18 30  1  0
 18 31  1  0
 18 32  1  0
M  ISO  8  19  14  20  14  21  14  22   8  23   8  24   8  25   9  26   8
M  ISO  6  27   8  28   8  29   8  30   8  31   8  32   8
M  END
>  <minimizedAffinity>  (1) 
-5.61873198

>  <minimizedRMSD>  (1) 
4.11639929

$$$$
