
     RDKit          3D

 26 27  0  0  0  0  0  0  0  0999 V2000
   36.9870   30.8270   40.8830 C   0  0  0  0  0  0  0  0  0  0  0  0
   37.5810   30.0290   41.8800 C   0  0  0  0  0  0  0  0  0  0  0  0
   36.9520   28.7730   42.1160 C   0  0  0  0  0  0  0  0  0  0  0  0
   35.8380   28.4370   41.3780 N   0  0  0  0  0  0  0  0  0  0  0  0
   35.3270   29.2560   40.4430 C   0  0  0  0  0  0  0  0  0  0  0  0
   35.8990   30.4410   40.1990 N   0  0  0  0  0  0  0  0  0  0  0  0
   37.6330   32.1160   40.6390 C   0  0  0  0  0  0  0  0  0  0  0  0
   38.9680   32.4060   40.9370 C   0  0  0  0  0  0  0  0  0  0  0  0
   39.2250   33.6750   40.5840 N   0  0  0  0  0  0  0  0  0  0  0  0
   38.0970   34.2060   40.0700 C   0  0  0  0  0  0  0  0  0  0  0  0
   37.1460   33.2530   40.1100 N   0  0  0  0  0  0  0  0  0  0  0  0
   37.5070   27.8340   43.1400 C   0  0  0  0  0  0  0  0  0  0  0  0
   36.8740   28.0540   44.4910 C   0  0  0  0  0  0  0  0  0  0  0  0
   39.0240   28.1420   43.2210 C   0  0  0  0  0  0  0  0  0  0  0  0
   38.4710   30.3539   42.4389 H   0  0  0  0  0  0  0  0  0  0  0  0
   34.4351   28.9511   39.8760 H   0  0  0  0  0  0  0  0  0  0  0  0
   39.6895   31.7082   41.3871 H   0  0  0  0  0  0  0  0  0  0  0  0
   37.9757   35.2303   39.6879 H   0  0  0  0  0  0  0  0  0  0  0  0
   36.1781   33.3777   39.7806 H   0  0  0  0  0  0  0  0  0  0  0  0
   37.3052   26.7904   42.8570 H   0  0  0  0  0  0  0  0  0  0  0  0
   37.5977   27.8025   45.2803 H   0  0  0  0  0  0  0  0  0  0  0  0
   36.5762   29.1084   44.5891 H   0  0  0  0  0  0  0  0  0  0  0  0
   35.9865   27.4116   44.5891 H   0  0  0  0  0  0  0  0  0  0  0  0
   39.3297   28.2041   44.2758 H   0  0  0  0  0  0  0  0  0  0  0  0
   39.5881   27.3401   42.7223 H   0  0  0  0  0  0  0  0  0  0  0  0
   39.2307   29.1004   42.7223 H   0  0  0  0  0  0  0  0  0  0  0  0
  1  2  2  0
  2  3  1  0
  3 12  1  0
  4  3  2  0
  5  4  1  0
  6  5  2  0
  6  1  1  0
  7  1  1  0
  7  8  2  0
  9  8  1  0
 10 11  1  0
 10  9  2  0
 11  7  1  0
 12 14  1  0
 12 13  1  0
  2 15  1  0
  5 16  1  0
  8 17  1  0
 10 18  1  0
 11 19  1  0
 12 20  1  0
 13 21  1  0
 13 22  1  0
 13 23  1  0
 14 24  1  0
 14 25  1  0
 14 26  1  0
M  ISO  8  15  14  16  14  17  14  18  14  19   9  20   8  21   8  22   8
M  ISO  4  23   8  24   8  25   8  26   8
M  END
>  <minimizedAffinity>  (1) 
-5.11249924

>  <minimizedRMSD>  (1) 
3.45414877

$$$$
