
     RDKit          3D

 35 36  0  0  0  0  0  0  0  0999 V2000
   37.3490   30.7270   41.2360 C   0  0  0  0  0  0  0  0  0  0  0  0
   37.6740   29.7890   42.2380 C   0  0  0  0  0  0  0  0  0  0  0  0
   36.8690   28.6130   42.2760 C   0  0  0  0  0  0  0  0  0  0  0  0
   35.8630   28.4910   41.3510 N   0  0  0  0  0  0  0  0  0  0  0  0
   35.6050   29.4200   40.4220 C   0  0  0  0  0  0  0  0  0  0  0  0
   36.3500   30.5440   40.3620 N   0  0  0  0  0  0  0  0  0  0  0  0
   38.1410   31.9770   41.1320 C   0  0  0  0  0  0  0  0  0  0  0  0
   39.6160   31.6900   40.9330 C   0  0  0  0  0  0  0  0  0  0  0  0
   39.9920   32.1750   39.5460 C   0  0  0  0  0  0  0  0  0  0  0  0
   39.8940   33.6950   39.5730 C   0  0  0  0  0  0  0  0  0  0  0  0
   38.4970   34.0890   39.9970 C   0  0  0  0  0  0  0  0  0  0  0  0
   37.5890   32.8760   40.0240 C   0  0  0  0  0  0  0  0  0  0  0  0
   37.1320   27.5590   43.2900 C   0  0  0  0  0  0  0  0  0  0  0  0
   36.6610   27.9490   44.6660 C   0  0  0  0  0  0  0  0  0  0  0  0
   38.6630   27.3460   43.2980 C   0  0  0  0  0  0  0  0  0  0  0  0
   38.4985   29.9548   42.9470 H   0  0  0  0  0  0  0  0  0  0  0  0
   34.7841   29.2669   39.7060 H   0  0  0  0  0  0  0  0  0  0  0  0
   38.0458   32.5166   42.0858 H   0  0  0  0  0  0  0  0  0  0  0  0
   40.2080   32.2240   41.6909 H   0  0  0  0  0  0  0  0  0  0  0  0
   39.8183   30.6136   41.0350 H   0  0  0  0  0  0  0  0  0  0  0  0
   39.2973   31.7634   38.7991 H   0  0  0  0  0  0  0  0  0  0  0  0
   41.0065   31.8484   39.2739 H   0  0  0  0  0  0  0  0  0  0  0  0
   40.6248   34.0994   40.2888 H   0  0  0  0  0  0  0  0  0  0  0  0
   40.1077   34.0998   38.5727 H   0  0  0  0  0  0  0  0  0  0  0  0
   38.5358   34.5347   41.0019 H   0  0  0  0  0  0  0  0  0  0  0  0
   38.0977   34.8165   39.2749 H   0  0  0  0  0  0  0  0  0  0  0  0
   36.5549   33.1748   40.2508 H   0  0  0  0  0  0  0  0  0  0  0  0
   37.5678   32.3603   39.0526 H   0  0  0  0  0  0  0  0  0  0  0  0
   36.5803   26.6438   43.0292 H   0  0  0  0  0  0  0  0  0  0  0  0
   37.2763   27.4395   45.4222 H   0  0  0  0  0  0  0  0  0  0  0  0
   36.7541   29.0380   44.7905 H   0  0  0  0  0  0  0  0  0  0  0  0
   35.6085   27.6544   44.7905 H   0  0  0  0  0  0  0  0  0  0  0  0
   39.0208   27.2962   44.3370 H   0  0  0  0  0  0  0  0  0  0  0  0
   38.9051   26.4055   42.7814 H   0  0  0  0  0  0  0  0  0  0  0  0
   39.1526   28.1847   42.7814 H   0  0  0  0  0  0  0  0  0  0  0  0
  1  2  2  0
  2  3  1  0
  3 13  1  0
  4  3  2  0
  5  4  1  0
  6  5  2  0
  6  1  1  0
  7  1  1  0
  8  7  1  0
  9 10  1  0
  9  8  1  0
 10 11  1  0
 11 12  1  0
 12  7  1  0
 13 15  1  0
 13 14  1  0
  2 16  1  0
  5 17  1  0
  7 18  1  0
  8 19  1  0
  8 20  1  0
  9 21  1  0
  9 22  1  0
 10 23  1  0
 10 24  1  0
 11 25  1  0
 11 26  1  0
 12 27  1  0
 12 28  1  0
 13 29  1  0
 14 30  1  0
 14 31  1  0
 14 32  1  0
 15 33  1  0
 15 34  1  0
 15 35  1  0
M  ISO  8  16  14  17  14  18  13  19  13  20  13  21  13  22  13  23  13
M  ISO  8  24  13  25  13  26  13  27  13  28  13  29   8  30   8  31   8
M  ISO  4  32   8  33   8  34   8  35   8
M  END
>  <minimizedAffinity>  (1) 
-4.83113766

>  <minimizedRMSD>  (1) 
3.579633

$$$$
