
     RDKit          3D

 26 27  0  0  0  0  0  0  0  0999 V2000
   37.1470   30.6650   40.9530 C   0  0  0  0  0  0  0  0  0  0  0  0
   37.5870   29.8020   41.9770 C   0  0  0  0  0  0  0  0  0  0  0  0
   36.8760   28.6120   42.2160 C   0  0  0  0  0  0  0  0  0  0  0  0
   35.7920   28.3820   41.4200 N   0  0  0  0  0  0  0  0  0  0  0  0
   35.3920   29.2180   40.4520 C   0  0  0  0  0  0  0  0  0  0  0  0
   36.0710   30.3620   40.2180 N   0  0  0  0  0  0  0  0  0  0  0  0
   37.8920   31.9220   40.6940 C   0  0  0  0  0  0  0  0  0  0  0  0
   37.4920   33.0390   40.0950 C   0  0  0  0  0  0  0  0  0  0  0  0
   38.3690   34.0660   39.9760 C   0  0  0  0  0  0  0  0  0  0  0  0
   39.6300   33.9040   40.4830 C   0  0  0  0  0  0  0  0  0  0  0  0
   39.5500   32.1690   41.1700 S   0  0  0  0  0  0  0  0  0  0  0  0
   37.3130   27.6890   43.2790 C   0  0  0  0  0  0  0  0  0  0  0  0
   36.7500   28.0530   44.6300 C   0  0  0  0  0  0  0  0  0  0  0  0
   38.8620   27.7150   43.3020 C   0  0  0  0  0  0  0  0  0  0  0  0
   38.4719   30.0550   42.5794 H   0  0  0  0  0  0  0  0  0  0  0  0
   34.5077   28.9717   39.8459 H   0  0  0  0  0  0  0  0  0  0  0  0
   36.4681   33.1285   39.7030 H   0  0  0  0  0  0  0  0  0  0  0  0
   38.0748   35.0052   39.4847 H   0  0  0  0  0  0  0  0  0  0  0  0
   40.4720   34.6119   40.4853 H   0  0  0  0  0  0  0  0  0  0  0  0
   36.9359   26.6786   43.0625 H   0  0  0  0  0  0  0  0  0  0  0  0
   37.3933   27.6371   45.4195 H   0  0  0  0  0  0  0  0  0  0  0  0
   36.7107   29.1479   44.7279 H   0  0  0  0  0  0  0  0  0  0  0  0
   35.7354   27.6395   44.7279 H   0  0  0  0  0  0  0  0  0  0  0  0
   39.2132   27.7209   44.3444 H   0  0  0  0  0  0  0  0  0  0  0  0
   39.2513   26.8233   42.7890 H   0  0  0  0  0  0  0  0  0  0  0  0
   39.2212   28.6193   42.7890 H   0  0  0  0  0  0  0  0  0  0  0  0
  1  2  2  0
  2  3  1  0
  3 12  1  0
  4  3  2  0
  5  4  1  0
  6  5  2  0
  6  1  1  0
  7  1  1  0
  7 11  1  0
  8  7  2  0
  9  8  1  0
  9 10  2  0
 10 11  1  0
 12 14  1  0
 12 13  1  0
  2 15  1  0
  5 16  1  0
  8 17  1  0
  9 18  1  0
 10 19  1  0
 12 20  1  0
 13 21  1  0
 13 22  1  0
 13 23  1  0
 14 24  1  0
 14 25  1  0
 14 26  1  0
M  ISO  8  15  14  16  14  17  14  18  14  19  14  20   8  21   8  22   8
M  ISO  4  23   8  24   8  25   8  26   8
M  END
>  <minimizedAffinity>  (1) 
-4.81096745

>  <minimizedRMSD>  (1) 
3.29849815

$$$$
