
     RDKit          3D

 27 28  0  0  0  0  0  0  0  0999 V2000
   37.2220   30.1660   40.9700 C   0  0  0  0  0  0  0  0  0  0  0  0
   37.5080   29.5060   42.1730 C   0  0  0  0  0  0  0  0  0  0  0  0
   37.0390   28.1750   42.3340 C   0  0  0  0  0  0  0  0  0  0  0  0
   36.3350   27.6140   41.3040 N   0  0  0  0  0  0  0  0  0  0  0  0
   36.0800   28.2680   40.1700 C   0  0  0  0  0  0  0  0  0  0  0  0
   36.5080   29.5160   39.9990 N   0  0  0  0  0  0  0  0  0  0  0  0
   37.7070   31.5410   40.6990 C   0  0  0  0  0  0  0  0  0  0  0  0
   37.0110   32.4640   39.9850 C   0  0  0  0  0  0  0  0  0  0  0  0
   37.6130   33.6710   39.7450 C   0  0  0  0  0  0  0  0  0  0  0  0
   38.8760   33.9480   40.2030 N   0  0  0  0  0  0  0  0  0  0  0  0
   39.5500   32.9900   40.9250 C   0  0  0  0  0  0  0  0  0  0  0  0
   38.8750   31.7890   41.1320 N   0  0  0  0  0  0  0  0  0  0  0  0
   37.3140   27.4290   43.6040 C   0  0  0  0  0  0  0  0  0  0  0  0
   36.7380   28.1400   44.8120 C   0  0  0  0  0  0  0  0  0  0  0  0
   38.8370   27.2750   43.7110 C   0  0  0  0  0  0  0  0  0  0  0  0
   38.0794   30.0046   42.9698 H   0  0  0  0  0  0  0  0  0  0  0  0
   35.5114   27.7717   39.3698 H   0  0  0  0  0  0  0  0  0  0  0  0
   35.9986   32.2494   39.6123 H   0  0  0  0  0  0  0  0  0  0  0  0
   37.0704   34.4366   39.1711 H   0  0  0  0  0  0  0  0  0  0  0  0
   40.5635   33.1625   41.3162 H   0  0  0  0  0  0  0  0  0  0  0  0
   36.8262   26.4433   43.5821 H   0  0  0  0  0  0  0  0  0  0  0  0
   37.1190   27.6697   45.7305 H   0  0  0  0  0  0  0  0  0  0  0  0
   37.0363   29.1986   44.7912 H   0  0  0  0  0  0  0  0  0  0  0  0
   35.6406   28.0678   44.7912 H   0  0  0  0  0  0  0  0  0  0  0  0
   39.1290   27.2455   44.7711 H   0  0  0  0  0  0  0  0  0  0  0  0
   39.1465   26.3410   43.2193 H   0  0  0  0  0  0  0  0  0  0  0  0
   39.3273   28.1282   43.2193 H   0  0  0  0  0  0  0  0  0  0  0  0
  1  2  2  0
  2  3  1  0
  3 13  1  0
  4  3  2  0
  5  4  1  0
  6  5  2  0
  6  1  1  0
  7  1  1  0
  7 12  1  0
  8  7  2  0
  9  8  1  0
  9 10  2  0
 10 11  1  0
 11 12  2  0
 13 15  1  0
 13 14  1  0
  2 16  1  0
  5 17  1  0
  8 18  1  0
  9 19  1  0
 11 20  1  0
 13 21  1  0
 14 22  1  0
 14 23  1  0
 14 24  1  0
 15 25  1  0
 15 26  1  0
 15 27  1  0
M  ISO  8  16  14  17  14  18  14  19  14  20  14  21   8  22   8  23   8
M  ISO  4  24   8  25   8  26   8  27   8
M  END
>  <minimizedAffinity>  (1) 
-4.75393057

>  <minimizedRMSD>  (1) 
3.58482695

$$$$
