
     RDKit          3D

 35 37  0  0  1  0  0  0  0  0999 V2000
   39.9160   29.7040   42.1550 N   0  0  0  0  0  0  0  0  0  0  0  0
   41.3290   29.7180   42.5370 C   0  0  0  0  0  0  0  0  0  0  0  0
   41.5260   31.1540   43.0480 C   0  0  0  0  0  0  0  0  0  0  0  0
   41.5160   32.0020   41.9100 N   0  0  0  0  0  0  0  0  0  0  0  0
   40.4240   31.8190   41.0200 C   0  0  0  0  0  0  0  0  0  0  0  0
   39.4380   30.7890   41.3890 C   0  0  1  0  0  0  0  0  0  0  0  0
   39.0100   28.6910   42.5280 C   0  0  0  0  0  0  0  0  0  0  0  0
   39.0110   27.4170   42.0090 C   0  0  0  0  0  0  0  0  0  0  0  0
   38.0790   26.4900   42.4280 C   0  0  0  0  0  0  0  0  0  0  0  0
   37.1680   26.9070   43.3780 N   0  0  0  0  0  0  0  0  0  0  0  0
   37.1770   28.1620   43.8810 C   0  0  0  0  0  0  0  0  0  0  0  0
   38.0980   29.0350   43.4470 N   0  0  0  0  0  0  0  0  0  0  0  0
   38.4820   30.5330   40.3430 N   0  0  0  0  0  0  0  0  0  0  0  0
   37.2670   31.2480   40.6490 C   0  0  0  0  0  0  0  0  0  0  0  0
   37.0520   32.5630   40.0350 C   0  0  0  0  0  0  0  0  0  0  0  0
   37.9580   32.9970   39.1000 O   0  0  0  0  0  0  0  0  0  0  0  0
   38.2590   31.9250   38.3010 C   0  0  0  0  0  0  0  0  0  0  0  0
   38.9740   30.8090   39.0220 C   0  0  0  0  0  0  0  0  0  0  0  0
   41.5330   28.9833   43.3298 H   0  0  0  0  0  0  0  0  0  0  0  0
   42.0069   29.4508   41.7129 H   0  0  0  0  0  0  0  0  0  0  0  0
   40.7083   31.4279   43.7309 H   0  0  0  0  0  0  0  0  0  0  0  0
   42.4722   31.2486   43.6010 H   0  0  0  0  0  0  0  0  0  0  0  0
   41.4954   32.9771   42.2411 H   0  0  0  0  0  0  0  0  0  0  0  0
   40.8365   31.5490   40.0367 H   0  0  0  0  0  0  0  0  0  0  0  0
   39.8713   32.7699   41.0397 H   0  0  0  0  0  0  0  0  0  0  0  0
   38.8140   31.2370   42.1763 H   0  0  0  0  0  0  0  0  0  0  0  0
   39.7603   27.1353   41.2545 H   0  0  0  0  0  0  0  0  0  0  0  0
   38.0625   25.4669   42.0242 H   0  0  0  0  0  0  0  0  0  0  0  0
   36.4375   28.4635   44.6374 H   0  0  0  0  0  0  0  0  0  0  0  0
   36.5174   30.8163   41.3285 H   0  0  0  0  0  0  0  0  0  0  0  0
   36.1886   33.1838   40.3163 H   0  0  0  0  0  0  0  0  0  0  0  0
   38.9015   32.2746   37.4794 H   0  0  0  0  0  0  0  0  0  0  0  0
   37.3034   31.5143   37.9431 H   0  0  0  0  0  0  0  0  0  0  0  0
   38.8730   29.8933   38.4209 H   0  0  0  0  0  0  0  0  0  0  0  0
   40.0173   31.1363   39.1422 H   0  0  0  0  0  0  0  0  0  0  0  0
  1  7  1  0
  1  2  1  0
  2  3  1  0
  4  3  1  0
  5  6  1  0
  5  4  1  0
  6  1  1  0
  7 12  2  0
  8  9  2  0
  8  7  1  0
  9 10  1  0
 10 11  2  0
 12 11  1  0
 13 14  1  0
 13  6  1  0
 15 14  2  0
 16 15  1  0
 17 18  1  0
 17 16  1  0
 18 13  1  0
  2 19  1  0
  2 20  1  0
  3 21  1  0
  3 22  1  0
  4 23  1  0
  5 24  1  0
  5 25  1  0
  6 26  1  1
  8 27  1  0
  9 28  1  0
 11 29  1  0
 14 30  1  0
 15 31  1  0
 17 32  1  0
 17 33  1  0
 18 34  1  0
 18 35  1  0
M  ISO  8  19  13  20  13  21  13  22  13  23   5  24  13  25  13  26  13
M  ISO  8  27  14  28  14  29  14  30  13  31  13  32  13  33  13  34  13
M  ISO  1  35  13
M  END
>  <minimizedAffinity>  (1) 
-4.17506886

>  <minimizedRMSD>  (1) 
4.89134932

$$$$
