
     RDKit          3D

 34 35  0  0  0  0  0  0  0  0999 V2000
   37.8660   31.3090   40.8940 C   0  0  0  0  0  0  0  0  0  0  0  0
   38.3230   30.2780   41.7390 C   0  0  0  0  0  0  0  0  0  0  0  0
   37.4410   29.1830   41.9660 C   0  0  0  0  0  0  0  0  0  0  0  0
   36.2060   29.2050   41.3490 N   0  0  0  0  0  0  0  0  0  0  0  0
   35.8240   30.2130   40.5550 C   0  0  0  0  0  0  0  0  0  0  0  0
   36.6320   31.2530   40.3250 N   0  0  0  0  0  0  0  0  0  0  0  0
   38.7400   32.4070   40.6610 N   0  0  0  0  0  0  0  0  0  0  0  0
   38.1240   33.6590   40.3680 C   0  0  0  0  0  0  0  0  0  0  0  0
   39.0410   34.8250   40.2360 C   0  0  0  0  0  0  0  0  0  0  0  0
   40.3870   34.4540   39.7070 C   0  0  0  0  0  0  0  0  0  0  0  0
   40.9720   33.4220   40.6410 C   0  0  0  0  0  0  0  0  0  0  0  0
   40.1630   32.1820   40.7370 C   0  0  0  0  0  0  0  0  0  0  0  0
   37.8490   28.0480   42.8460 C   0  0  0  0  0  0  0  0  0  0  0  0
   37.0940   28.0560   44.1510 C   0  0  0  0  0  0  0  0  0  0  0  0
   39.3660   28.2320   43.0940 C   0  0  0  0  0  0  0  0  0  0  0  0
   39.3192   30.3173   42.2038 H   0  0  0  0  0  0  0  0  0  0  0  0
   34.8300   30.1851   40.0846 H   0  0  0  0  0  0  0  0  0  0  0  0
   37.5784   33.5513   39.4189 H   0  0  0  0  0  0  0  0  0  0  0  0
   37.4835   33.8831   41.2338 H   0  0  0  0  0  0  0  0  0  0  0  0
   38.5841   35.5540   39.5506 H   0  0  0  0  0  0  0  0  0  0  0  0
   39.1878   35.2427   41.2429 H   0  0  0  0  0  0  0  0  0  0  0  0
   40.2902   34.0332   38.6953 H   0  0  0  0  0  0  0  0  0  0  0  0
   41.0384   35.3385   39.6495 H   0  0  0  0  0  0  0  0  0  0  0  0
   41.9761   33.1551   40.2796 H   0  0  0  0  0  0  0  0  0  0  0  0
   40.9947   33.8711   41.6449 H   0  0  0  0  0  0  0  0  0  0  0  0
   40.3863   31.6960   41.6982 H   0  0  0  0  0  0  0  0  0  0  0  0
   40.4344   31.5552   39.8747 H   0  0  0  0  0  0  0  0  0  0  0  0
   37.6242   27.0824   42.3695 H   0  0  0  0  0  0  0  0  0  0  0  0
   37.8080   28.0484   44.9877 H   0  0  0  0  0  0  0  0  0  0  0  0
   36.4711   28.9608   44.2087 H   0  0  0  0  0  0  0  0  0  0  0  0
   36.4521   27.1646   44.2087 H   0  0  0  0  0  0  0  0  0  0  0  0
   39.5604   28.2556   44.1764 H   0  0  0  0  0  0  0  0  0  0  0  0
   39.9159   27.3940   42.6409 H   0  0  0  0  0  0  0  0  0  0  0  0
   39.6996   29.1772   42.6409 H   0  0  0  0  0  0  0  0  0  0  0  0
  1  2  2  0
  2  3  1  0
  3 13  1  0
  4  3  2  0
  5  4  1  0
  6  5  2  0
  6  1  1  0
  7 12  1  0
  7  1  1  0
  8  7  1  0
  9  8  1  0
 10  9  1  0
 10 11  1  0
 11 12  1  0
 13 15  1  0
 13 14  1  0
  2 16  1  0
  5 17  1  0
  8 18  1  0
  8 19  1  0
  9 20  1  0
  9 21  1  0
 10 22  1  0
 10 23  1  0
 11 24  1  0
 11 25  1  0
 12 26  1  0
 12 27  1  0
 13 28  1  0
 14 29  1  0
 14 30  1  0
 14 31  1  0
 15 32  1  0
 15 33  1  0
 15 34  1  0
M  ISO  8  16  14  17  14  18  13  19  13  20  13  21  13  22  13  23  13
M  ISO  8  24  13  25  13  26  13  27  13  28   8  29   8  30   8  31   8
M  ISO  3  32   8  33   8  34   8
M  END
>  <minimizedAffinity>  (1) 
-4.72166586

>  <minimizedRMSD>  (1) 
3.22540498

$$$$
