
     RDKit          3D

 26 27  0  0  0  0  0  0  0  0999 V2000
   38.0160   29.0600   42.8080 C   0  0  0  0  0  0  0  0  0  0  0  0
   37.1080   29.5210   41.8320 C   0  0  0  0  0  0  0  0  0  0  0  0
   37.4740   30.6730   41.0830 C   0  0  0  0  0  0  0  0  0  0  0  0
   38.6890   31.2490   41.3730 N   0  0  0  0  0  0  0  0  0  0  0  0
   39.5240   30.7830   42.3070 C   0  0  0  0  0  0  0  0  0  0  0  0
   39.1960   29.7010   43.0190 N   0  0  0  0  0  0  0  0  0  0  0  0
   37.6940   27.8690   43.6180 C   0  0  0  0  0  0  0  0  0  0  0  0
   36.3300   27.2990   43.6340 C   0  0  0  0  0  0  0  0  0  0  0  0
   36.7540   28.1460   44.8020 C   0  0  0  0  0  0  0  0  0  0  0  0
   36.5800   31.2130   40.0400 C   0  0  0  0  0  0  0  0  0  0  0  0
   36.4680   30.2870   38.8560 C   0  0  0  0  0  0  0  0  0  0  0  0
   37.2070   32.5540   39.5860 C   0  0  0  0  0  0  0  0  0  0  0  0
   36.1510   29.0077   41.6565 H   0  0  0  0  0  0  0  0  0  0  0  0
   40.4824   31.2910   42.4897 H   0  0  0  0  0  0  0  0  0  0  0  0
   38.6818   27.4174   43.4436 H   0  0  0  0  0  0  0  0  0  0  0  0
   35.5730   27.6792   42.9323 H   0  0  0  0  0  0  0  0  0  0  0  0
   35.9241   26.2816   43.5334 H   0  0  0  0  0  0  0  0  0  0  0  0
   36.9449   27.6844   45.7820 H   0  0  0  0  0  0  0  0  0  0  0  0
   36.3661   29.0425   45.3077 H   0  0  0  0  0  0  0  0  0  0  0  0
   35.5643   31.3368   40.4437 H   0  0  0  0  0  0  0  0  0  0  0  0
   36.3429   29.2530   39.2098 H   0  0  0  0  0  0  0  0  0  0  0  0
   35.5980   30.5740   38.2471 H   0  0  0  0  0  0  0  0  0  0  0  0
   37.3813   30.3583   38.2471 H   0  0  0  0  0  0  0  0  0  0  0  0
   37.4843   33.1470   40.4700 H   0  0  0  0  0  0  0  0  0  0  0  0
   38.1047   32.3534   38.9827 H   0  0  0  0  0  0  0  0  0  0  0  0
   36.4775   33.1142   38.9827 H   0  0  0  0  0  0  0  0  0  0  0  0
  1  6  1  0
  1  7  1  0
  2  1  2  0
  3  4  2  0
  3  2  1  0
  4  5  1  0
  5  6  2  0
  7  8  1  0
  7  9  1  0
  8  9  1  0
 10  3  1  0
 11 10  1  0
 12 10  1  0
  2 13  1  0
  5 14  1  0
  7 15  1  0
  8 16  1  0
  8 17  1  0
  9 18  1  0
  9 19  1  0
 10 20  1  0
 11 21  1  0
 11 22  1  0
 11 23  1  0
 12 24  1  0
 12 25  1  0
 12 26  1  0
M  ISO  8  13  14  14  14  15  13  16  13  17  13  18  13  19  13  20   8
M  ISO  6  21   8  22   8  23   8  24   8  25   8  26   8
M  END
>  <minimizedAffinity>  (1) 
-4.43861723

>  <minimizedRMSD>  (1) 
4.23481131

$$$$
