
     RDKit          3D

 26 27  0  0  0  0  0  0  0  0999 V2000
   39.1640   30.6810   41.9470 C   0  0  0  0  0  0  0  0  0  0  0  0
   38.9480   29.5540   42.7720 C   0  0  0  0  0  0  0  0  0  0  0  0
   37.6540   28.9590   42.7260 C   0  0  0  0  0  0  0  0  0  0  0  0
   36.7140   29.5210   41.8890 N   0  0  0  0  0  0  0  0  0  0  0  0
   36.9720   30.5890   41.1300 C   0  0  0  0  0  0  0  0  0  0  0  0
   38.1930   31.1690   41.1570 N   0  0  0  0  0  0  0  0  0  0  0  0
   40.4680   31.3340   41.9510 C   0  0  0  0  0  0  0  0  0  0  0  0
   41.5020   31.0570   42.8440 C   0  0  0  0  0  0  0  0  0  0  0  0
   42.5380   31.8960   42.4860 C   0  0  0  0  0  0  0  0  0  0  0  0
   42.1100   32.6470   41.4010 C   0  0  0  0  0  0  0  0  0  0  0  0
   40.8890   32.2650   41.1440 O   0  0  0  0  0  0  0  0  0  0  0  0
   37.3610   27.7730   43.5550 C   0  0  0  0  0  0  0  0  0  0  0  0
   36.7160   28.1200   44.8680 C   0  0  0  0  0  0  0  0  0  0  0  0
   38.7100   27.0540   43.7820 C   0  0  0  0  0  0  0  0  0  0  0  0
   39.7422   29.1545   43.4198 H   0  0  0  0  0  0  0  0  0  0  0  0
   36.1862   30.9994   40.4788 H   0  0  0  0  0  0  0  0  0  0  0  0
   41.4940   30.3229   43.6632 H   0  0  0  0  0  0  0  0  0  0  0  0
   43.5228   31.9578   42.9721 H   0  0  0  0  0  0  0  0  0  0  0  0
   42.6866   33.4139   40.8630 H   0  0  0  0  0  0  0  0  0  0  0  0
   36.6348   27.1298   43.0364 H   0  0  0  0  0  0  0  0  0  0  0  0
   37.3563   27.7755   45.6934 H   0  0  0  0  0  0  0  0  0  0  0  0
   36.5854   29.2101   44.9356 H   0  0  0  0  0  0  0  0  0  0  0  0
   35.7344   27.6282   44.9356 H   0  0  0  0  0  0  0  0  0  0  0  0
   38.8956   26.9551   44.8617 H   0  0  0  0  0  0  0  0  0  0  0  0
   38.6748   26.0550   43.3229 H   0  0  0  0  0  0  0  0  0  0  0  0
   39.5197   27.6402   43.3229 H   0  0  0  0  0  0  0  0  0  0  0  0
  1  7  1  0
  1  2  2  0
  3  2  1  0
  3 12  1  0
  4  3  2  0
  5  6  2  0
  5  4  1  0
  6  1  1  0
  7  8  2  0
  9  8  1  0
 10  9  2  0
 11 10  1  0
 11  7  1  0
 12 14  1  0
 12 13  1  0
  2 15  1  0
  5 16  1  0
  8 17  1  0
  9 18  1  0
 10 19  1  0
 12 20  1  0
 13 21  1  0
 13 22  1  0
 13 23  1  0
 14 24  1  0
 14 25  1  0
 14 26  1  0
M  ISO  8  15  14  16  14  17  14  18  14  19  14  20   8  21   8  22   8
M  ISO  4  23   8  24   8  25   8  26   8
M  END
>  <minimizedAffinity>  (1) 
-4.39302588

>  <minimizedRMSD>  (1) 
1.05054474

$$$$
