
     RDKit          3D

 25 26  0  0  0  0  0  0  0  0999 V2000
   39.1730   30.6790   41.9690 C   0  0  0  0  0  0  0  0  0  0  0  0
   38.9090   29.5650   42.7690 C   0  0  0  0  0  0  0  0  0  0  0  0
   37.6420   28.9620   42.7330 C   0  0  0  0  0  0  0  0  0  0  0  0
   36.7580   29.5490   41.8860 N   0  0  0  0  0  0  0  0  0  0  0  0
   37.0060   30.6120   41.1200 C   0  0  0  0  0  0  0  0  0  0  0  0
   38.2170   31.1710   41.1690 N   0  0  0  0  0  0  0  0  0  0  0  0
   40.4640   31.3450   41.9610 C   0  0  0  0  0  0  0  0  0  0  0  0
   40.7300   32.3490   40.9380 C   0  0  0  0  0  0  0  0  0  0  0  0
   42.4780   32.9480   41.2860 S   0  0  0  0  0  0  0  0  0  0  0  0
   42.5270   31.7380   42.7420 C   0  0  0  0  0  0  0  0  0  0  0  0
   41.5240   31.2420   42.7220 N   0  0  0  0  0  0  0  0  0  0  0  0
   37.3580   27.7770   43.5630 C   0  0  0  0  0  0  0  0  0  0  0  0
   36.7170   28.1220   44.8810 C   0  0  0  0  0  0  0  0  0  0  0  0
   38.7130   27.0600   43.7790 C   0  0  0  0  0  0  0  0  0  0  0  0
   39.6929   29.1608   43.4264 H   0  0  0  0  0  0  0  0  0  0  0  0
   36.2268   31.0207   40.4598 H   0  0  0  0  0  0  0  0  0  0  0  0
   40.0548   32.6835   40.1366 H   0  0  0  0  0  0  0  0  0  0  0  0
   43.3531   31.5626   43.4468 H   0  0  0  0  0  0  0  0  0  0  0  0
   36.6299   27.1310   43.0506 H   0  0  0  0  0  0  0  0  0  0  0  0
   37.3603   27.7758   45.7034 H   0  0  0  0  0  0  0  0  0  0  0  0
   36.5869   29.2120   44.9513 H   0  0  0  0  0  0  0  0  0  0  0  0
   35.7355   27.6303   44.9513 H   0  0  0  0  0  0  0  0  0  0  0  0
   38.9060   26.9579   44.8571 H   0  0  0  0  0  0  0  0  0  0  0  0
   38.6778   26.0625   43.3167 H   0  0  0  0  0  0  0  0  0  0  0  0
   39.5179   27.6502   43.3167 H   0  0  0  0  0  0  0  0  0  0  0  0
  1  2  2  0
  3  2  1  0
  3 12  1  0
  4  3  2  0
  5  6  2  0
  5  4  1  0
  6  1  1  0
  7  1  1  0
  7 11  1  0
  8  9  1  0
  8  7  2  0
  9 10  1  0
 11 10  2  0
 12 14  1  0
 12 13  1  0
  2 15  1  0
  5 16  1  0
  8 17  1  0
 10 18  1  0
 12 19  1  0
 13 20  1  0
 13 21  1  0
 13 22  1  0
 14 23  1  0
 14 24  1  0
 14 25  1  0
M  ISO  8  15  14  16  14  17  14  18  14  19   8  20   8  21   8  22   8
M  ISO  3  23   8  24   8  25   8
M  END
>  <minimizedAffinity>  (1) 
-4.33381033

>  <minimizedRMSD>  (1) 
1.05861449

$$$$
