
     RDKit          3D

 31 31  0  0  0  0  0  0  0  0999 V2000
   36.8420   28.4440   41.9170 C   0  0  0  0  0  0  0  0  0  0  0  0
   36.2490   27.9920   40.7170 C   0  0  0  0  0  0  0  0  0  0  0  0
   35.8450   28.9740   39.7700 C   0  0  0  0  0  0  0  0  0  0  0  0
   36.0640   30.2980   40.0990 N   0  0  0  0  0  0  0  0  0  0  0  0
   36.6280   30.6760   41.2470 C   0  0  0  0  0  0  0  0  0  0  0  0
   37.0150   29.7720   42.1470 N   0  0  0  0  0  0  0  0  0  0  0  0
   37.2550   27.4010   42.8880 C   0  0  0  0  0  0  0  0  0  0  0  0
   38.6920   27.7120   43.2990 C   0  0  0  0  0  0  0  0  0  0  0  0
   37.1570   26.0080   42.3620 C   0  0  0  0  0  0  0  0  0  0  0  0
   36.3430   27.5470   44.1130 C   0  0  0  0  0  0  0  0  0  0  0  0
   35.2210   28.5830   38.4850 C   0  0  0  0  0  0  0  0  0  0  0  0
   35.4800   27.1400   38.1470 C   0  0  0  0  0  0  0  0  0  0  0  0
   35.8260   29.5080   37.4080 C   0  0  0  0  0  0  0  0  0  0  0  0
   36.1048   26.9191   40.5218 H   0  0  0  0  0  0  0  0  0  0  0  0
   36.7755   31.7463   41.4536 H   0  0  0  0  0  0  0  0  0  0  0  0
   38.7642   27.7276   44.3965 H   0  0  0  0  0  0  0  0  0  0  0  0
   39.3636   26.9384   42.8983 H   0  0  0  0  0  0  0  0  0  0  0  0
   38.9836   28.6940   42.8983 H   0  0  0  0  0  0  0  0  0  0  0  0
   37.1073   25.3011   43.2033 H   0  0  0  0  0  0  0  0  0  0  0  0
   36.2498   25.9111   41.7475 H   0  0  0  0  0  0  0  0  0  0  0  0
   38.0417   25.7850   41.7475 H   0  0  0  0  0  0  0  0  0  0  0  0
   36.9427   27.4510   45.0301 H   0  0  0  0  0  0  0  0  0  0  0  0
   35.8582   28.5342   44.0936 H   0  0  0  0  0  0  0  0  0  0  0  0
   35.5742   26.7605   44.0936 H   0  0  0  0  0  0  0  0  0  0  0  0
   34.1278   28.6892   38.5459 H   0  0  0  0  0  0  0  0  0  0  0  0
   35.5843   26.5590   39.0752 H   0  0  0  0  0  0  0  0  0  0  0  0
   34.6385   26.7443   37.5593 H   0  0  0  0  0  0  0  0  0  0  0  0
   36.4066   27.0617   37.5593 H   0  0  0  0  0  0  0  0  0  0  0  0
   36.3659   30.3335   37.8949 H   0  0  0  0  0  0  0  0  0  0  0  0
   36.5233   28.9333   36.7807 H   0  0  0  0  0  0  0  0  0  0  0  0
   35.0200   29.9165   36.7807 H   0  0  0  0  0  0  0  0  0  0  0  0
  1  6  2  0
  1  7  1  0
  2  1  1  0
  3  4  1  0
  3  2  2  0
  4  5  2  0
  5  6  1  0
  7  8  1  0
  7 10  1  0
  9  7  1  0
 11  3  1  0
 12 11  1  0
 13 11  1  0
  2 14  1  0
  5 15  1  0
  8 16  1  0
  8 17  1  0
  8 18  1  0
  9 19  1  0
  9 20  1  0
  9 21  1  0
 10 22  1  0
 10 23  1  0
 10 24  1  0
 11 25  1  0
 12 26  1  0
 12 27  1  0
 12 28  1  0
 13 29  1  0
 13 30  1  0
 13 31  1  0
M  ISO  8  14  14  15  14  16   8  17   8  18   8  19   8  20   8  21   8
M  ISO  8  22   8  23   8  24   8  25   8  26   8  27   8  28   8  29   8
M  ISO  2  30   8  31   8
M  END
>  <minimizedAffinity>  (1) 
-4.29406261

>  <minimizedRMSD>  (1) 
4.56898689

$$$$
