
     RDKit          3D

 31 33  0  0  1  0  0  0  0  0999 V2000
   39.3560   29.7570   41.9850 N   0  0  0  0  0  0  0  0  0  0  0  0
   40.8040   29.6790   42.0160 C   0  0  0  0  0  0  0  0  0  0  0  0
   41.2010   30.9640   42.7720 C   0  0  0  0  0  0  0  0  0  0  0  0
   40.9780   32.0400   41.8720 N   0  0  0  0  0  0  0  0  0  0  0  0
   39.6960   32.0800   41.2820 C   0  0  0  0  0  0  0  0  0  0  0  0
   38.7450   30.9680   41.5580 C   0  0  1  0  0  0  0  0  0  0  0  0
   38.5000   28.6970   42.3730 C   0  0  0  0  0  0  0  0  0  0  0  0
   38.3540   27.5170   41.6580 C   0  0  0  0  0  0  0  0  0  0  0  0
   37.4880   26.5420   42.0920 C   0  0  0  0  0  0  0  0  0  0  0  0
   36.7960   26.7940   43.2400 N   0  0  0  0  0  0  0  0  0  0  0  0
   36.9360   27.9370   43.9350 C   0  0  0  0  0  0  0  0  0  0  0  0
   37.7820   28.8950   43.5140 N   0  0  0  0  0  0  0  0  0  0  0  0
   37.8470   30.8710   40.3470 C   0  0  0  0  0  0  0  0  0  0  0  0
   37.1140   32.1680   40.0010 C   0  0  0  0  0  0  0  0  0  0  0  0
   36.3370   31.0290   40.5500 C   0  0  0  0  0  0  0  0  0  0  0  0
   41.1407   28.7818   42.5561 H   0  0  0  0  0  0  0  0  0  0  0  0
   41.2570   29.6050   41.0164 H   0  0  0  0  0  0  0  0  0  0  0  0
   40.5793   31.0844   43.6714 H   0  0  0  0  0  0  0  0  0  0  0  0
   42.2504   30.9274   43.0998 H   0  0  0  0  0  0  0  0  0  0  0  0
   41.1179   32.9203   42.3882 H   0  0  0  0  0  0  0  0  0  0  0  0
   39.8424   32.1174   40.1924 H   0  0  0  0  0  0  0  0  0  0  0  0
   39.2189   32.9585   41.7410 H   0  0  0  0  0  0  0  0  0  0  0  0
   38.1326   31.1864   42.4453 H   0  0  0  0  0  0  0  0  0  0  0  0
   38.9354   27.3607   40.7374 H   0  0  0  0  0  0  0  0  0  0  0  0
   37.3588   25.6004   41.5382 H   0  0  0  0  0  0  0  0  0  0  0  0
   36.3538   28.0900   44.8557 H   0  0  0  0  0  0  0  0  0  0  0  0
   38.4799   30.1329   39.8324 H   0  0  0  0  0  0  0  0  0  0  0  0
   37.2741   33.0671   40.6142 H   0  0  0  0  0  0  0  0  0  0  0  0
   37.0348   32.7922   39.0987 H   0  0  0  0  0  0  0  0  0  0  0  0
   35.6372   30.4808   39.9021 H   0  0  0  0  0  0  0  0  0  0  0  0
   35.6546   30.8993   41.4030 H   0  0  0  0  0  0  0  0  0  0  0  0
  1  2  1  0
  1  7  1  0
  2  3  1  0
  4  3  1  0
  5  6  1  0
  5  4  1  0
  6  1  1  0
  7 12  2  0
  8  9  2  0
  8  7  1  0
  9 10  1  0
 10 11  2  0
 12 11  1  0
 13 15  1  0
 13  6  1  0
 14 13  1  0
 14 15  1  0
  2 16  1  0
  2 17  1  0
  3 18  1  0
  3 19  1  0
  4 20  1  0
  5 21  1  0
  5 22  1  0
  6 23  1  1
  8 24  1  0
  9 25  1  0
 11 26  1  0
 13 27  1  0
 14 28  1  0
 14 29  1  0
 15 30  1  0
 15 31  1  0
M  ISO  8  16  13  17  13  18  13  19  13  20   5  21  13  22  13  23  13
M  ISO  8  24  14  25  14  26  14  27  13  28  13  29  13  30  13  31  13
M  END
>  <minimizedAffinity>  (1) 
-4.101089

>  <minimizedRMSD>  (1) 
3.71838188

$$$$
