
     RDKit          3D

 34 36  0  0  1  0  0  0  0  0999 V2000
   39.4740   29.5190   41.8740 N   0  0  0  0  0  0  0  0  0  0  0  0
   39.2810   30.5200   40.8570 C   0  0  0  0  0  0  0  0  0  0  0  0
   40.4090   30.3170   39.8780 C   0  0  0  0  0  0  0  0  0  0  0  0
   41.6210   30.6840   40.4960 N   0  0  0  0  0  0  0  0  0  0  0  0
   41.8360   30.2250   41.8160 C   0  0  0  0  0  0  0  0  0  0  0  0
   40.7900   29.3860   42.4450 C   0  0  2  0  0  0  0  0  0  0  0  0
   38.4570   28.6550   42.3520 C   0  0  0  0  0  0  0  0  0  0  0  0
   37.9050   28.7920   43.6350 C   0  0  0  0  0  0  0  0  0  0  0  0
   36.9030   27.8800   44.0020 C   0  0  0  0  0  0  0  0  0  0  0  0
   36.5260   26.9220   43.1010 N   0  0  0  0  0  0  0  0  0  0  0  0
   37.0880   26.8330   41.8820 C   0  0  0  0  0  0  0  0  0  0  0  0
   38.0480   27.6940   41.5070 N   0  0  0  0  0  0  0  0  0  0  0  0
   41.2160   27.9610   42.6220 C   0  0  0  0  0  0  0  0  0  0  0  0
   41.2900   27.4070   43.8710 C   0  0  0  0  0  0  0  0  0  0  0  0
   41.6840   26.0900   44.0260 C   0  0  0  0  0  0  0  0  0  0  0  0
   42.0130   25.2900   42.9600 C   0  0  0  0  0  0  0  0  0  0  0  0
   41.9430   25.8320   41.7010 C   0  0  0  0  0  0  0  0  0  0  0  0
   41.5500   27.1450   41.5580 C   0  0  0  0  0  0  0  0  0  0  0  0
   38.3098   30.3813   40.3596 H   0  0  0  0  0  0  0  0  0  0  0  0
   39.2816   31.5365   41.2775 H   0  0  0  0  0  0  0  0  0  0  0  0
   40.2434   30.9431   38.9888 H   0  0  0  0  0  0  0  0  0  0  0  0
   40.4514   29.2613   39.5718 H   0  0  0  0  0  0  0  0  0  0  0  0
   42.3888   30.3218   39.9127 H   0  0  0  0  0  0  0  0  0  0  0  0
   42.7655   29.6367   41.8093 H   0  0  0  0  0  0  0  0  0  0  0  0
   41.8517   31.1417   42.4238 H   0  0  0  0  0  0  0  0  0  0  0  0
   40.6790   29.8066   43.4553 H   0  0  0  0  0  0  0  0  0  0  0  0
   38.2431   29.5804   44.3236 H   0  0  0  0  0  0  0  0  0  0  0  0
   36.4305   27.9345   44.9939 H   0  0  0  0  0  0  0  0  0  0  0  0
   36.7582   26.0477   41.1859 H   0  0  0  0  0  0  0  0  0  0  0  0
   41.0354   28.0107   44.7546 H   0  0  0  0  0  0  0  0  0  0  0  0
   41.7356   25.6683   45.0407 H   0  0  0  0  0  0  0  0  0  0  0  0
   42.3235   24.2455   43.1104 H   0  0  0  0  0  0  0  0  0  0  0  0
   42.1971   25.2267   40.8184 H   0  0  0  0  0  0  0  0  0  0  0  0
   41.4995   27.5659   40.5430 H   0  0  0  0  0  0  0  0  0  0  0  0
  1  7  1  0
  1  6  1  0
  2  1  1  0
  3  4  1  0
  3  2  1  0
  4  5  1  0
  5  6  1  0
  6 13  1  0
  7  8  2  0
  8  9  1  0
 10  9  2  0
 11 10  1  0
 12 11  2  0
 12  7  1  0
 13 14  2  0
 14 15  1  0
 16 15  2  0
 17 16  1  0
 18 17  2  0
 18 13  1  0
  2 19  1  0
  2 20  1  0
  3 21  1  0
  3 22  1  0
  4 23  1  0
  5 24  1  0
  5 25  1  0
  6 26  1  1
  8 27  1  0
  9 28  1  0
 11 29  1  0
 14 30  1  0
 15 31  1  0
 16 32  1  0
 17 33  1  0
 18 34  1  0
M  ISO  8  19  13  20  13  21  13  22  13  23   5  24  13  25  13  26  13
M  ISO  8  27  14  28  14  29  14  30  14  31  14  32  14  33  14  34  14
M  END
>  <minimizedAffinity>  (1) 
-3.98362803

>  <minimizedRMSD>  (1) 
1.77047491

$$$$
