
     RDKit          3D

 48 52  0  0  1  0  0  0  0  0999 V2000
   39.3710   30.9540   41.8660 C   0  0  0  0  0  0  0  0  0  0  0  0
   39.0590   29.7690   42.5180 C   0  0  0  0  0  0  0  0  0  0  0  0
   37.8180   29.1390   42.5150 C   0  0  0  0  0  0  0  0  0  0  0  0
   36.9000   29.8080   41.7910 N   0  0  0  0  0  0  0  0  0  0  0  0
   37.1360   30.9400   41.1480 C   0  0  0  0  0  0  0  0  0  0  0  0
   38.3400   31.4820   41.1960 N   0  0  0  0  0  0  0  0  0  0  0  0
   40.6150   31.6460   41.8350 C   0  0  0  0  0  0  0  0  0  0  0  0
   41.6220   31.2460   42.7120 C   0  0  0  0  0  0  0  0  0  0  0  0
   42.8630   31.8430   42.8070 C   0  0  0  0  0  0  0  0  0  0  0  0
   43.1500   32.9050   41.9920 C   0  0  0  0  0  0  0  0  0  0  0  0
   42.1920   33.3560   41.0910 C   0  0  0  0  0  0  0  0  0  0  0  0
   42.4860   34.4120   40.2730 C   0  0  0  0  0  0  0  0  0  0  0  0
   41.5580   34.8900   39.3470 C   0  0  0  0  0  0  0  0  0  0  0  0
   40.3450   34.2250   39.3240 C   0  0  0  0  0  0  0  0  0  0  0  0
   40.1150   33.1770   40.1680 C   0  0  0  0  0  0  0  0  0  0  0  0
   41.0080   32.7040   41.0750 C   0  0  0  0  0  0  0  0  0  0  0  0
   37.6010   27.8880   43.2730 C   0  0  2  0  0  0  0  0  0  0  0  0
   36.8000   28.1220   44.5390 C   0  0  0  0  0  0  0  0  0  0  0  0
   38.9360   27.2630   43.5870 C   0  0  0  0  0  0  0  0  0  0  0  0
   39.1130   25.9150   43.1820 N   0  0  0  0  0  0  0  0  0  0  0  0
   39.8280   24.8160   43.4630 C   0  0  0  0  0  0  0  0  0  0  0  0
   39.5220   23.7670   42.7140 N   0  0  0  0  0  0  0  0  0  0  0  0
   38.5440   24.1340   41.8630 C   0  0  0  0  0  0  0  0  0  0  0  0
   37.9320   23.3520   40.9120 C   0  0  0  0  0  0  0  0  0  0  0  0
   36.9700   24.0000   40.1910 N   0  0  0  0  0  0  0  0  0  0  0  0
   36.6940   25.2950   40.4440 C   0  0  0  0  0  0  0  0  0  0  0  0
   37.3330   26.0010   41.3910 N   0  0  0  0  0  0  0  0  0  0  0  0
   38.3040   25.4600   42.1640 C   0  0  0  0  0  0  0  0  0  0  0  0
   38.2960   21.9900   40.7240 N   0  0  0  0  0  0  0  0  0  0  0  0
   39.8651   29.2843   43.0883 H   0  0  0  0  0  0  0  0  0  0  0  0
   36.3331   31.4279   40.5758 H   0  0  0  0  0  0  0  0  0  0  0  0
   41.4128   30.3940   43.3756 H   0  0  0  0  0  0  0  0  0  0  0  0
   43.6087   31.4717   43.5254 H   0  0  0  0  0  0  0  0  0  0  0  0
   44.1317   33.3980   42.0496 H   0  0  0  0  0  0  0  0  0  0  0  0
   43.4723   34.8934   40.3465 H   0  0  0  0  0  0  0  0  0  0  0  0
   41.7760   35.7377   38.6808 H   0  0  0  0  0  0  0  0  0  0  0  0
   39.5608   34.5428   38.6211 H   0  0  0  0  0  0  0  0  0  0  0  0
   39.1355   32.6798   40.1091 H   0  0  0  0  0  0  0  0  0  0  0  0
   37.0093   27.2009   42.6503 H   0  0  0  0  0  0  0  0  0  0  0  0
   37.4375   27.9358   45.4159 H   0  0  0  0  0  0  0  0  0  0  0  0
   36.4426   29.1621   44.5598 H   0  0  0  0  0  0  0  0  0  0  0  0
   35.9389   27.4379   44.5598 H   0  0  0  0  0  0  0  0  0  0  0  0
   39.7121   27.8656   43.0924 H   0  0  0  0  0  0  0  0  0  0  0  0
   39.0006   27.2488   44.6850 H   0  0  0  0  0  0  0  0  0  0  0  0
   40.6001   24.7879   44.2460 H   0  0  0  0  0  0  0  0  0  0  0  0
   35.9136   25.7938   39.8506 H   0  0  0  0  0  0  0  0  0  0  0  0
   37.8225   21.4249   40.0047 H   0  0  0  0  0  0  0  0  0  0  0  0
   39.0331   21.5687   41.3072 H   0  0  0  0  0  0  0  0  0  0  0  0
  1  2  2  0
  3  2  1  0
  3 17  1  0
  4  3  2  0
  5  6  2  0
  5  4  1  0
  6  1  1  0
  7  1  1  0
  7  8  2  0
  8  9  1  0
 10  9  2  0
 11 10  1  0
 12 11  2  0
 13 12  1  0
 14 13  2  0
 14 15  1  0
 15 16  2  0
 16 11  1  0
 16  7  1  0
 17 19  1  0
 17 18  1  0
 20 21  1  0
 20 19  1  0
 22 21  2  0
 23 28  2  0
 23 22  1  0
 24 23  1  0
 25 26  1  0
 25 24  2  0
 26 27  2  0
 27 28  1  0
 28 20  1  0
 29 24  1  0
  2 30  1  0
  5 31  1  0
  8 32  1  0
  9 33  1  0
 10 34  1  0
 12 35  1  0
 13 36  1  0
 14 37  1  0
 15 38  1  0
 17 39  1  6
 18 40  1  0
 18 41  1  0
 18 42  1  0
 19 43  1  0
 19 44  1  0
 21 45  1  0
 26 46  1  0
 29 47  1  0
 29 48  1  0
M  ISO  8  30  14  31  14  32  14  33  14  34  14  35  14  36  14  37  14
M  ISO  8  38  14  39   8  40   8  41   8  42   8  43   8  44   8  45  14
M  ISO  1  46  14
M  END
>  <minimizedAffinity>  (1) 
-6.91036367

>  <minimizedRMSD>  (1) 
2.03993058

$$$$
