
     RDKit          3D

 45 48  0  0  1  0  0  0  0  0999 V2000
   39.1430   30.7970   41.8690 C   0  0  0  0  0  0  0  0  0  0  0  0
   38.7670   29.6440   42.5470 C   0  0  0  0  0  0  0  0  0  0  0  0
   37.5140   29.0450   42.5120 C   0  0  0  0  0  0  0  0  0  0  0  0
   36.6420   29.7080   41.7230 N   0  0  0  0  0  0  0  0  0  0  0  0
   36.9410   30.8080   41.0580 C   0  0  0  0  0  0  0  0  0  0  0  0
   38.1580   31.3180   41.1420 N   0  0  0  0  0  0  0  0  0  0  0  0
   40.4010   31.4640   41.8730 C   0  0  0  0  0  0  0  0  0  0  0  0
   41.3790   31.0140   42.7640 C   0  0  0  0  0  0  0  0  0  0  0  0
   42.6310   31.5720   42.9090 C   0  0  0  0  0  0  0  0  0  0  0  0
   42.9640   32.6570   42.1240 C   0  0  0  0  0  0  0  0  0  0  0  0
   42.0350   33.1520   41.2170 C   0  0  0  0  0  0  0  0  0  0  0  0
   42.3560   34.2260   40.4310 C   0  0  0  0  0  0  0  0  0  0  0  0
   41.4530   34.7510   39.5040 C   0  0  0  0  0  0  0  0  0  0  0  0
   40.2270   34.1120   39.4380 C   0  0  0  0  0  0  0  0  0  0  0  0
   39.9720   33.0480   40.2500 C   0  0  0  0  0  0  0  0  0  0  0  0
   40.8380   32.5290   41.1560 C   0  0  0  0  0  0  0  0  0  0  0  0
   37.2400   27.8500   43.3250 C   0  0  2  0  0  0  0  0  0  0  0  0
   36.7620   28.1900   44.7130 C   0  0  0  0  0  0  0  0  0  0  0  0
   38.4360   26.9420   43.3360 C   0  0  0  0  0  0  0  0  0  0  0  0
   38.3480   25.7290   42.5440 C   0  0  0  0  0  0  0  0  0  0  0  0
   39.2100   24.8160   41.9890 C   0  0  0  0  0  0  0  0  0  0  0  0
   38.9010   23.7380   41.2310 C   0  0  0  0  0  0  0  0  0  0  0  0
   37.5910   23.4580   40.9450 C   0  0  0  0  0  0  0  0  0  0  0  0
   36.6260   24.2970   41.4440 C   0  0  0  0  0  0  0  0  0  0  0  0
   37.0230   25.3760   42.2070 C   0  0  0  0  0  0  0  0  0  0  0  0
   39.5335   29.1599   43.1701 H   0  0  0  0  0  0  0  0  0  0  0  0
   36.1793   31.2996   40.4351 H   0  0  0  0  0  0  0  0  0  0  0  0
   41.1310   30.1494   43.3973 H   0  0  0  0  0  0  0  0  0  0  0  0
   43.3488   31.1615   43.6344 H   0  0  0  0  0  0  0  0  0  0  0  0
   43.9551   33.1254   42.2154 H   0  0  0  0  0  0  0  0  0  0  0  0
   43.3497   34.6868   40.5321 H   0  0  0  0  0  0  0  0  0  0  0  0
   41.6996   35.6146   38.8688 H   0  0  0  0  0  0  0  0  0  0  0  0
   39.4601   34.4624   38.7315 H   0  0  0  0  0  0  0  0  0  0  0  0
   38.9843   32.5715   40.1639 H   0  0  0  0  0  0  0  0  0  0  0  0
   36.4068   27.3075   42.8545 H   0  0  0  0  0  0  0  0  0  0  0  0
   37.4241   27.7190   45.4545 H   0  0  0  0  0  0  0  0  0  0  0  0
   36.7771   29.2815   44.8489 H   0  0  0  0  0  0  0  0  0  0  0  0
   35.7359   27.8177   44.8489 H   0  0  0  0  0  0  0  0  0  0  0  0
   39.2951   27.5198   42.9642 H   0  0  0  0  0  0  0  0  0  0  0  0
   38.5250   26.5983   44.3771 H   0  0  0  0  0  0  0  0  0  0  0  0
   40.2801   24.9802   42.1836 H   0  0  0  0  0  0  0  0  0  0  0  0
   39.7003   23.0881   40.8454 H   0  0  0  0  0  0  0  0  0  0  0  0
   37.3200   22.5853   40.3327 H   0  0  0  0  0  0  0  0  0  0  0  0
   35.5607   24.1134   41.2403 H   0  0  0  0  0  0  0  0  0  0  0  0
   36.2253   26.0281   42.5923 H   0  0  0  0  0  0  0  0  0  0  0  0
  1  7  1  0
  1  2  2  0
  3  2  1  0
  3 17  1  0
  4  3  2  0
  5  6  2  0
  5  4  1  0
  6  1  1  0
  7  8  2  0
  8  9  1  0
 10  9  2  0
 11 10  1  0
 12 11  2  0
 13 12  1  0
 14 13  2  0
 14 15  1  0
 15 16  2  0
 16 11  1  0
 16  7  1  0
 17 19  1  0
 17 18  1  0
 20 19  1  0
 21 20  2  0
 22 21  1  0
 23 22  2  0
 23 24  1  0
 24 25  2  0
 25 20  1  0
  2 26  1  0
  5 27  1  0
  8 28  1  0
  9 29  1  0
 10 30  1  0
 12 31  1  0
 13 32  1  0
 14 33  1  0
 15 34  1  0
 17 35  1  6
 18 36  1  0
 18 37  1  0
 18 38  1  0
 19 39  1  0
 19 40  1  0
 21 41  1  0
 22 42  1  0
 23 43  1  0
 24 44  1  0
 25 45  1  0
M  ISO  8  26  14  27  14  28  14  29  14  30  14  31  14  32  14  33  14
M  ISO  8  34  14  35   8  36   8  37   8  38   8  39   8  40   8  41  14
M  ISO  4  42  14  43  14  44  14  45  14
M  END
>  <minimizedAffinity>  (1) 
-6.81731272

>  <minimizedRMSD>  (1) 
1.21208918

$$$$
