
     RDKit          3D

 46 49  0  0  1  0  0  0  0  0999 V2000
   39.1650   30.7590   41.9020 C   0  0  0  0  0  0  0  0  0  0  0  0
   38.7930   29.6170   42.5930 C   0  0  0  0  0  0  0  0  0  0  0  0
   37.5500   29.0020   42.5650 C   0  0  0  0  0  0  0  0  0  0  0  0
   36.6790   29.6410   41.7640 N   0  0  0  0  0  0  0  0  0  0  0  0
   36.9710   30.7350   41.0800 C   0  0  0  0  0  0  0  0  0  0  0  0
   38.1840   31.2620   41.1610 N   0  0  0  0  0  0  0  0  0  0  0  0
   40.4220   31.4280   41.9040 C   0  0  0  0  0  0  0  0  0  0  0  0
   41.4030   31.0020   42.7950 C   0  0  0  0  0  0  0  0  0  0  0  0
   42.6500   31.5770   42.9300 C   0  0  0  0  0  0  0  0  0  0  0  0
   42.9660   32.6500   42.1370 C   0  0  0  0  0  0  0  0  0  0  0  0
   42.0340   33.1280   41.2240 C   0  0  0  0  0  0  0  0  0  0  0  0
   42.3470   34.1910   40.4220 C   0  0  0  0  0  0  0  0  0  0  0  0
   41.4650   34.6980   39.4910 C   0  0  0  0  0  0  0  0  0  0  0  0
   40.2430   34.0480   39.4300 C   0  0  0  0  0  0  0  0  0  0  0  0
   39.9790   32.9940   40.2500 C   0  0  0  0  0  0  0  0  0  0  0  0
   40.8450   32.4950   41.1690 C   0  0  0  0  0  0  0  0  0  0  0  0
   37.2860   27.8110   43.3990 C   0  0  2  0  0  0  0  0  0  0  0  0
   36.7470   28.1450   44.7510 C   0  0  0  0  0  0  0  0  0  0  0  0
   38.5210   26.9540   43.4560 C   0  0  0  0  0  0  0  0  0  0  0  0
   38.5290   25.7460   42.7220 N   0  0  0  0  0  0  0  0  0  0  0  0
   37.2470   25.5230   42.2430 C   0  0  0  0  0  0  0  0  0  0  0  0
   36.8000   24.4770   41.4230 C   0  0  0  0  0  0  0  0  0  0  0  0
   37.7260   23.5400   41.0260 C   0  0  0  0  0  0  0  0  0  0  0  0
   37.3940   22.4410   40.1970 N   0  0  0  0  0  0  0  0  0  0  0  0
   38.9630   23.7360   41.4760 N   0  0  0  0  0  0  0  0  0  0  0  0
   39.2820   24.7530   42.2470 C   0  0  0  0  0  0  0  0  0  0  0  0
   40.4790   24.7900   42.5900 O   0  0  0  0  0  0  0  0  0  0  0  0
   39.5610   29.1511   43.2279 H   0  0  0  0  0  0  0  0  0  0  0  0
   36.2073   31.2069   40.4444 H   0  0  0  0  0  0  0  0  0  0  0  0
   41.1664   30.1427   43.4397 H   0  0  0  0  0  0  0  0  0  0  0  0
   43.3747   31.1832   43.6578 H   0  0  0  0  0  0  0  0  0  0  0  0
   43.9521   33.1298   42.2231 H   0  0  0  0  0  0  0  0  0  0  0  0
   43.3377   34.6581   40.5233 H   0  0  0  0  0  0  0  0  0  0  0  0
   41.7129   35.5537   38.8457 H   0  0  0  0  0  0  0  0  0  0  0  0
   39.4801   34.3863   38.7133 H   0  0  0  0  0  0  0  0  0  0  0  0
   38.9940   32.5123   40.1618 H   0  0  0  0  0  0  0  0  0  0  0  0
   36.4817   27.2318   42.9219 H   0  0  0  0  0  0  0  0  0  0  0  0
   37.4128   27.7324   45.5233 H   0  0  0  0  0  0  0  0  0  0  0  0
   36.6887   29.2377   44.8628 H   0  0  0  0  0  0  0  0  0  0  0  0
   35.7425   27.7108   44.8628 H   0  0  0  0  0  0  0  0  0  0  0  0
   39.3591   27.5645   43.0889 H   0  0  0  0  0  0  0  0  0  0  0  0
   38.5840   26.6354   44.5070 H   0  0  0  0  0  0  0  0  0  0  0  0
   36.4859   26.2581   42.5437 H   0  0  0  0  0  0  0  0  0  0  0  0
   35.7481   24.4081   41.1088 H   0  0  0  0  0  0  0  0  0  0  0  0
   38.1204   21.7635   39.9245 H   0  0  0  0  0  0  0  0  0  0  0  0
   36.4261   22.3191   39.8665 H   0  0  0  0  0  0  0  0  0  0  0  0
  1  7  1  0
  1  2  2  0
  3  2  1  0
  3 17  1  0
  4  3  2  0
  5  6  2  0
  5  4  1  0
  6  1  1  0
  7  8  2  0
  8  9  1  0
 10  9  2  0
 11 10  1  0
 12 11  2  0
 13 12  1  0
 14 13  2  0
 14 15  1  0
 15 16  2  0
 16 11  1  0
 16  7  1  0
 17 19  1  0
 17 18  1  0
 20 19  1  0
 21 20  1  0
 22 21  2  0
 23 22  1  0
 23 25  2  0
 24 23  1  0
 25 26  1  0
 26 27  2  0
 26 20  1  0
  2 28  1  0
  5 29  1  0
  8 30  1  0
  9 31  1  0
 10 32  1  0
 12 33  1  0
 13 34  1  0
 14 35  1  0
 15 36  1  0
 17 37  1  6
 18 38  1  0
 18 39  1  0
 18 40  1  0
 19 41  1  0
 19 42  1  0
 21 43  1  0
 22 44  1  0
 24 45  1  0
 24 46  1  0
M  ISO  8  28  14  29  14  30  14  31  14  32  14  33  14  34  14  35  14
M  ISO  8  36  14  37   8  38   8  39   8  40   8  41   8  42   8  43  14
M  ISO  1  44  14
M  END
>  <minimizedAffinity>  (1) 
-6.79516745

>  <minimizedRMSD>  (1) 
1.61375844

$$$$
