
     RDKit          3D

 42 45  0  0  1  0  0  0  0  0999 V2000
   39.1130   30.7830   41.7930 C   0  0  0  0  0  0  0  0  0  0  0  0
   38.7380   29.6080   42.4320 C   0  0  0  0  0  0  0  0  0  0  0  0
   37.4650   29.0440   42.4020 C   0  0  0  0  0  0  0  0  0  0  0  0
   36.5950   29.7650   41.6670 N   0  0  0  0  0  0  0  0  0  0  0  0
   36.8930   30.8900   41.0360 C   0  0  0  0  0  0  0  0  0  0  0  0
   38.1280   31.3670   41.1110 N   0  0  0  0  0  0  0  0  0  0  0  0
   40.3770   31.4420   41.8160 C   0  0  0  0  0  0  0  0  0  0  0  0
   41.3370   30.9850   42.7300 C   0  0  0  0  0  0  0  0  0  0  0  0
   42.5830   31.5500   42.9070 C   0  0  0  0  0  0  0  0  0  0  0  0
   42.9240   32.6420   42.1400 C   0  0  0  0  0  0  0  0  0  0  0  0
   42.0130   33.1400   41.2140 C   0  0  0  0  0  0  0  0  0  0  0  0
   42.3470   34.2220   40.4410 C   0  0  0  0  0  0  0  0  0  0  0  0
   41.4840   34.7490   39.5030 C   0  0  0  0  0  0  0  0  0  0  0  0
   40.2580   34.1050   39.4000 C   0  0  0  0  0  0  0  0  0  0  0  0
   39.9770   33.0330   40.1930 C   0  0  0  0  0  0  0  0  0  0  0  0
   40.8240   32.5140   41.1180 C   0  0  0  0  0  0  0  0  0  0  0  0
   37.1500   27.8090   43.1530 C   0  0  2  0  0  0  0  0  0  0  0  0
   36.7850   28.1120   44.6060 C   0  0  0  0  0  0  0  0  0  0  0  0
   38.3690   26.9090   43.1400 C   0  0  0  0  0  0  0  0  0  0  0  0
   38.0990   25.6300   42.4730 C   0  0  0  0  0  0  0  0  0  0  0  0
   37.0840   25.2600   41.6260 C   0  0  0  0  0  0  0  0  0  0  0  0
   37.2710   23.9390   41.2610 C   0  0  0  0  0  0  0  0  0  0  0  0
   38.3960   23.5420   41.8980 N   0  0  0  0  0  0  0  0  0  0  0  0
   38.8920   24.5570   42.6240 N   0  0  0  0  0  0  0  0  0  0  0  0
   39.5105   29.0792   43.0096 H   0  0  0  0  0  0  0  0  0  0  0  0
   36.1250   31.4229   40.4562 H   0  0  0  0  0  0  0  0  0  0  0  0
   41.0782   30.1140   43.3500 H   0  0  0  0  0  0  0  0  0  0  0  0
   43.2881   31.1378   43.6439 H   0  0  0  0  0  0  0  0  0  0  0  0
   43.9092   33.1167   42.2587 H   0  0  0  0  0  0  0  0  0  0  0  0
   43.3360   34.6851   40.5733 H   0  0  0  0  0  0  0  0  0  0  0  0
   41.7479   35.6171   38.8811 H   0  0  0  0  0  0  0  0  0  0  0  0
   39.5109   34.4615   38.6756 H   0  0  0  0  0  0  0  0  0  0  0  0
   38.9937   32.5542   40.0751 H   0  0  0  0  0  0  0  0  0  0  0  0
   36.2882   27.3230   42.6722 H   0  0  0  0  0  0  0  0  0  0  0  0
   37.4560   27.5550   45.2764 H   0  0  0  0  0  0  0  0  0  0  0  0
   36.8918   29.1906   44.7936 H   0  0  0  0  0  0  0  0  0  0  0  0
   35.7445   27.8085   44.7936 H   0  0  0  0  0  0  0  0  0  0  0  0
   39.1840   27.4220   42.6084 H   0  0  0  0  0  0  0  0  0  0  0  0
   38.6469   26.6971   44.1830 H   0  0  0  0  0  0  0  0  0  0  0  0
   36.2589   25.9067   41.2929 H   0  0  0  0  0  0  0  0  0  0  0  0
   36.6374   23.3374   40.5927 H   0  0  0  0  0  0  0  0  0  0  0  0
   38.8106   22.6012   41.8356 H   0  0  0  0  0  0  0  0  0  0  0  0
  1  7  1  0
  1  2  2  0
  3  2  1  0
  3 17  1  0
  4  3  2  0
  5  6  2  0
  5  4  1  0
  6  1  1  0
  7  8  2  0
  8  9  1  0
 10  9  2  0
 11 10  1  0
 12 11  2  0
 13 12  1  0
 14 13  2  0
 14 15  1  0
 15 16  2  0
 16 11  1  0
 16  7  1  0
 17 18  1  0
 19 17  1  0
 20 24  2  0
 20 19  1  0
 21 20  1  0
 22 21  2  0
 22 23  1  0
 23 24  1  0
  2 25  1  0
  5 26  1  0
  8 27  1  0
  9 28  1  0
 10 29  1  0
 12 30  1  0
 13 31  1  0
 14 32  1  0
 15 33  1  0
 17 34  1  6
 18 35  1  0
 18 36  1  0
 18 37  1  0
 19 38  1  0
 19 39  1  0
 21 40  1  0
 22 41  1  0
 23 42  1  0
M  ISO  8  25  14  26  14  27  14  28  14  29  14  30  14  31  14  32  14
M  ISO  8  33  14  34   8  35   8  36   8  37   8  38   8  39   8  40  14
M  ISO  2  41  14  42   9
M  END
>  <minimizedAffinity>  (1) 
-6.45322466

>  <minimizedRMSD>  (1) 
1.35610628

$$$$
