
     RDKit          3D

 43 46  0  0  1  0  0  0  0  0999 V2000
   39.0970   30.7620   41.8390 C   0  0  0  0  0  0  0  0  0  0  0  0
   38.7050   29.6140   42.5130 C   0  0  0  0  0  0  0  0  0  0  0  0
   37.4300   29.0540   42.4760 C   0  0  0  0  0  0  0  0  0  0  0  0
   36.5780   29.7490   41.6960 N   0  0  0  0  0  0  0  0  0  0  0  0
   36.8920   30.8470   41.0290 C   0  0  0  0  0  0  0  0  0  0  0  0
   38.1250   31.3190   41.1170 N   0  0  0  0  0  0  0  0  0  0  0  0
   40.3660   31.4100   41.8600 C   0  0  0  0  0  0  0  0  0  0  0  0
   41.3370   30.9540   42.7660 C   0  0  0  0  0  0  0  0  0  0  0  0
   42.5810   31.5100   42.9310 C   0  0  0  0  0  0  0  0  0  0  0  0
   42.9230   32.5890   42.1690 C   0  0  0  0  0  0  0  0  0  0  0  0
   42.0130   33.0970   41.2500 C   0  0  0  0  0  0  0  0  0  0  0  0
   42.3560   34.1770   40.4770 C   0  0  0  0  0  0  0  0  0  0  0  0
   41.4850   34.7110   39.5390 C   0  0  0  0  0  0  0  0  0  0  0  0
   40.2560   34.0820   39.4410 C   0  0  0  0  0  0  0  0  0  0  0  0
   39.9740   33.0130   40.2360 C   0  0  0  0  0  0  0  0  0  0  0  0
   40.8160   32.4810   41.1580 C   0  0  0  0  0  0  0  0  0  0  0  0
   37.0890   27.8440   43.2620 C   0  0  2  0  0  0  0  0  0  0  0  0
   36.8030   28.1920   44.7240 C   0  0  0  0  0  0  0  0  0  0  0  0
   38.2810   26.9120   43.2440 C   0  0  0  0  0  0  0  0  0  0  0  0
   38.1070   25.7270   42.3910 C   0  0  0  0  0  0  0  0  0  0  0  0
   37.0230   24.9520   42.1180 C   0  0  0  0  0  0  0  0  0  0  0  0
   37.1200   23.8690   41.2680 C   0  0  0  0  0  0  0  0  0  0  0  0
   38.2900   23.5580   40.6920 N   0  0  0  0  0  0  0  0  0  0  0  0
   39.3700   24.3280   40.9600 C   0  0  0  0  0  0  0  0  0  0  0  0
   39.2920   25.4000   41.7990 N   0  0  0  0  0  0  0  0  0  0  0  0
   39.4628   29.1047   43.1265 H   0  0  0  0  0  0  0  0  0  0  0  0
   36.1402   31.3597   40.4110 H   0  0  0  0  0  0  0  0  0  0  0  0
   41.0814   30.0855   43.3908 H   0  0  0  0  0  0  0  0  0  0  0  0
   43.2885   31.0938   43.6633 H   0  0  0  0  0  0  0  0  0  0  0  0
   43.9135   33.0540   42.2816 H   0  0  0  0  0  0  0  0  0  0  0  0
   43.3493   34.6321   40.6046 H   0  0  0  0  0  0  0  0  0  0  0  0
   41.7529   35.5763   38.9149 H   0  0  0  0  0  0  0  0  0  0  0  0
   39.5076   34.4454   38.7214 H   0  0  0  0  0  0  0  0  0  0  0  0
   38.9858   32.5436   40.1219 H   0  0  0  0  0  0  0  0  0  0  0  0
   36.1947   27.3836   42.8167 H   0  0  0  0  0  0  0  0  0  0  0  0
   37.3637   27.5097   45.3798 H   0  0  0  0  0  0  0  0  0  0  0  0
   37.1137   29.2285   44.9217 H   0  0  0  0  0  0  0  0  0  0  0  0
   35.7259   28.0880   44.9217 H   0  0  0  0  0  0  0  0  0  0  0  0
   39.1531   27.4745   42.8793 H   0  0  0  0  0  0  0  0  0  0  0  0
   38.4104   26.5446   44.2727 H   0  0  0  0  0  0  0  0  0  0  0  0
   36.0547   25.1920   42.5816 H   0  0  0  0  0  0  0  0  0  0  0  0
   36.2302   23.2561   41.0615 H   0  0  0  0  0  0  0  0  0  0  0  0
   40.3338   24.0833   40.4898 H   0  0  0  0  0  0  0  0  0  0  0  0
  1  7  1  0
  1  2  2  0
  3  2  1  0
  3 17  1  0
  4  3  2  0
  5  6  2  0
  5  4  1  0
  6  1  1  0
  7  8  2  0
  8  9  1  0
 10  9  2  0
 11 10  1  0
 12 11  2  0
 13 12  1  0
 14 13  2  0
 14 15  1  0
 15 16  2  0
 16 11  1  0
 16  7  1  0
 17 18  1  0
 19 17  1  0
 20 19  1  0
 21 20  2  0
 22 21  1  0
 23 24  1  0
 23 22  2  0
 24 25  2  0
 25 20  1  0
  2 26  1  0
  5 27  1  0
  8 28  1  0
  9 29  1  0
 10 30  1  0
 12 31  1  0
 13 32  1  0
 14 33  1  0
 15 34  1  0
 17 35  1  6
 18 36  1  0
 18 37  1  0
 18 38  1  0
 19 39  1  0
 19 40  1  0
 21 41  1  0
 22 42  1  0
 24 43  1  0
M  ISO  8  26  14  27  14  28  14  29  14  30  14  31  14  32  14  33  14
M  ISO  8  34  14  35   8  36   8  37   8  38   8  39   8  40   8  41  14
M  ISO  2  42  14  43  14
M  END
>  <minimizedAffinity>  (1) 
-6.39133835

>  <minimizedRMSD>  (1) 
1.43624067

$$$$
