
     RDKit          3D

 42 45  0  0  1  0  0  0  0  0999 V2000
   39.1260   30.7880   41.8190 C   0  0  0  0  0  0  0  0  0  0  0  0
   38.7570   29.6180   42.4720 C   0  0  0  0  0  0  0  0  0  0  0  0
   37.4900   29.0440   42.4390 C   0  0  0  0  0  0  0  0  0  0  0  0
   36.6180   29.7490   41.6870 N   0  0  0  0  0  0  0  0  0  0  0  0
   36.9090   30.8660   41.0440 C   0  0  0  0  0  0  0  0  0  0  0  0
   38.1380   31.3520   41.1250 N   0  0  0  0  0  0  0  0  0  0  0  0
   40.3870   31.4520   41.8360 C   0  0  0  0  0  0  0  0  0  0  0  0
   41.3570   31.0010   42.7410 C   0  0  0  0  0  0  0  0  0  0  0  0
   42.6040   31.5680   42.9040 C   0  0  0  0  0  0  0  0  0  0  0  0
   42.9340   32.6510   42.1330 C   0  0  0  0  0  0  0  0  0  0  0  0
   42.0190   33.1490   41.2140 C   0  0  0  0  0  0  0  0  0  0  0  0
   42.3490   34.2290   40.4350 C   0  0  0  0  0  0  0  0  0  0  0  0
   41.4750   34.7540   39.5020 C   0  0  0  0  0  0  0  0  0  0  0  0
   40.2430   34.1100   39.4100 C   0  0  0  0  0  0  0  0  0  0  0  0
   39.9710   33.0420   40.2100 C   0  0  0  0  0  0  0  0  0  0  0  0
   40.8240   32.5240   41.1280 C   0  0  0  0  0  0  0  0  0  0  0  0
   37.1770   27.8160   43.2030 C   0  0  2  0  0  0  0  0  0  0  0  0
   36.7540   28.1460   44.6360 C   0  0  0  0  0  0  0  0  0  0  0  0
   38.4130   26.9490   43.2590 C   0  0  0  0  0  0  0  0  0  0  0  0
   38.2750   25.7090   42.4920 C   0  0  0  0  0  0  0  0  0  0  0  0
   37.0150   25.2690   42.1620 C   0  0  0  0  0  0  0  0  0  0  0  0
   37.1400   24.0940   41.4470 C   0  0  0  0  0  0  0  0  0  0  0  0
   38.5210   23.8700   41.3750 C   0  0  0  0  0  0  0  0  0  0  0  0
   39.1120   24.8560   42.0090 O   0  0  0  0  0  0  0  0  0  0  0  0
   39.5294   29.1040   43.0630 H   0  0  0  0  0  0  0  0  0  0  0  0
   36.1417   31.3844   40.4503 H   0  0  0  0  0  0  0  0  0  0  0  0
   41.1060   30.1319   43.3668 H   0  0  0  0  0  0  0  0  0  0  0  0
   43.3166   31.1600   43.6359 H   0  0  0  0  0  0  0  0  0  0  0  0
   43.9207   33.1250   42.2412 H   0  0  0  0  0  0  0  0  0  0  0  0
   43.3397   34.6913   40.5567 H   0  0  0  0  0  0  0  0  0  0  0  0
   41.7341   35.6202   38.8755 H   0  0  0  0  0  0  0  0  0  0  0  0
   39.4897   34.4643   38.6909 H   0  0  0  0  0  0  0  0  0  0  0  0
   38.9860   32.5640   40.1036 H   0  0  0  0  0  0  0  0  0  0  0  0
   36.3480   27.2969   42.6997 H   0  0  0  0  0  0  0  0  0  0  0  0
   37.4184   27.6277   45.3430 H   0  0  0  0  0  0  0  0  0  0  0  0
   36.8222   29.2319   44.7976 H   0  0  0  0  0  0  0  0  0  0  0  0
   35.7173   27.8156   44.7976 H   0  0  0  0  0  0  0  0  0  0  0  0
   39.2610   27.5202   42.8531 H   0  0  0  0  0  0  0  0  0  0  0  0
   38.5731   26.6702   44.3110 H   0  0  0  0  0  0  0  0  0  0  0  0
   36.0696   25.7673   42.4227 H   0  0  0  0  0  0  0  0  0  0  0  0
   36.3349   23.4727   41.0277 H   0  0  0  0  0  0  0  0  0  0  0  0
   39.0185   23.0238   40.8786 H   0  0  0  0  0  0  0  0  0  0  0  0
  1  7  1  0
  1  2  2  0
  3  2  1  0
  3 17  1  0
  4  3  2  0
  5  6  2  0
  5  4  1  0
  6  1  1  0
  7  8  2  0
  8  9  1  0
 10  9  2  0
 11 10  1  0
 12 11  2  0
 13 12  1  0
 14 13  2  0
 14 15  1  0
 15 16  2  0
 16 11  1  0
 16  7  1  0
 17 19  1  0
 17 18  1  0
 20 19  1  0
 21 20  2  0
 22 21  1  0
 23 22  2  0
 23 24  1  0
 24 20  1  0
  2 25  1  0
  5 26  1  0
  8 27  1  0
  9 28  1  0
 10 29  1  0
 12 30  1  0
 13 31  1  0
 14 32  1  0
 15 33  1  0
 17 34  1  6
 18 35  1  0
 18 36  1  0
 18 37  1  0
 19 38  1  0
 19 39  1  0
 21 40  1  0
 22 41  1  0
 23 42  1  0
M  ISO  8  25  14  26  14  27  14  28  14  29  14  30  14  31  14  32  14
M  ISO  8  33  14  34   8  35   8  36   8  37   8  38   8  39   8  40  14
M  ISO  2  41  14  42  14
M  END
>  <minimizedAffinity>  (1) 
-6.35923529

>  <minimizedRMSD>  (1) 
1.27314639

$$$$
