
     RDKit          3D

 36 38  0  0  1  0  0  0  0  0999 V2000
   39.2450   30.6990   41.9230 C   0  0  0  0  0  0  0  0  0  0  0  0
   38.9150   29.5610   42.6500 C   0  0  0  0  0  0  0  0  0  0  0  0
   37.6590   28.9520   42.6450 C   0  0  0  0  0  0  0  0  0  0  0  0
   36.7680   29.5760   41.8520 N   0  0  0  0  0  0  0  0  0  0  0  0
   37.0330   30.6650   41.1380 C   0  0  0  0  0  0  0  0  0  0  0  0
   38.2460   31.2010   41.1830 N   0  0  0  0  0  0  0  0  0  0  0  0
   40.4860   31.4020   41.9040 C   0  0  0  0  0  0  0  0  0  0  0  0
   41.4730   31.0210   42.8270 C   0  0  0  0  0  0  0  0  0  0  0  0
   42.7000   31.6360   42.9620 C   0  0  0  0  0  0  0  0  0  0  0  0
   42.9940   32.7050   42.1380 C   0  0  0  0  0  0  0  0  0  0  0  0
   42.0570   33.1290   41.2020 C   0  0  0  0  0  0  0  0  0  0  0  0
   42.3510   34.1820   40.3760 C   0  0  0  0  0  0  0  0  0  0  0  0
   41.4620   34.6330   39.4220 C   0  0  0  0  0  0  0  0  0  0  0  0
   40.2630   33.9450   39.3650 C   0  0  0  0  0  0  0  0  0  0  0  0
   40.0180   32.9010   40.2110 C   0  0  0  0  0  0  0  0  0  0  0  0
   40.8880   32.4580   41.1510 C   0  0  0  0  0  0  0  0  0  0  0  0
   37.3840   27.7540   43.4760 C   0  0  2  0  0  0  0  0  0  0  0  0
   36.7330   28.1190   44.8020 C   0  0  0  0  0  0  0  0  0  0  0  0
   38.6980   27.0500   43.7440 C   0  0  0  0  0  0  0  0  0  0  0  0
   38.8970   25.9660   42.9290 O   0  0  0  0  0  0  0  0  0  0  0  0
   39.6997   29.1081   43.2738 H   0  0  0  0  0  0  0  0  0  0  0  0
   36.2506   31.1199   40.5127 H   0  0  0  0  0  0  0  0  0  0  0  0
   41.2518   30.1714   43.4897 H   0  0  0  0  0  0  0  0  0  0  0  0
   43.4273   31.2836   43.7082 H   0  0  0  0  0  0  0  0  0  0  0  0
   43.9635   33.2178   42.2217 H   0  0  0  0  0  0  0  0  0  0  0  0
   43.3252   34.6829   40.4765 H   0  0  0  0  0  0  0  0  0  0  0  0
   41.6899   35.4778   38.7554 H   0  0  0  0  0  0  0  0  0  0  0  0
   39.4993   34.2417   38.6310 H   0  0  0  0  0  0  0  0  0  0  0  0
   39.0502   32.3855   40.1235 H   0  0  0  0  0  0  0  0  0  0  0  0
   36.6853   27.1029   42.9302 H   0  0  0  0  0  0  0  0  0  0  0  0
   37.3644   27.7650   45.6302 H   0  0  0  0  0  0  0  0  0  0  0  0
   36.6212   29.2114   44.8672 H   0  0  0  0  0  0  0  0  0  0  0  0
   35.7427   27.6445   44.8672 H   0  0  0  0  0  0  0  0  0  0  0  0
   39.5185   27.7650   43.5841 H   0  0  0  0  0  0  0  0  0  0  0  0
   38.6714   26.6837   44.7809 H   0  0  0  0  0  0  0  0  0  0  0  0
   39.0451   25.1592   43.4833 H   0  0  0  0  0  0  0  0  0  0  0  0
  1  2  2  0
  3  2  1  0
  3 17  1  0
  4  3  2  0
  5  6  2  0
  5  4  1  0
  6  1  1  0
  7  1  1  0
  7  8  2  0
  8  9  1  0
 10  9  2  0
 11 10  1  0
 12 11  2  0
 13 12  1  0
 14 13  2  0
 14 15  1  0
 15 16  2  0
 16 11  1  0
 16  7  1  0
 17 19  1  0
 17 18  1  0
 20 19  1  0
  2 21  1  0
  5 22  1  0
  8 23  1  0
  9 24  1  0
 10 25  1  0
 12 26  1  0
 13 27  1  0
 14 28  1  0
 15 29  1  0
 17 30  1  6
 18 31  1  0
 18 32  1  0
 18 33  1  0
 19 34  1  0
 19 35  1  0
 20 36  1  0
M  ISO  8  21  14  22  14  23  14  24  14  25  14  26  14  27  14  28  14
M  ISO  8  29  14  30   8  31   8  32   8  33   8  34   8  35   8  36   3
M  END
>  <minimizedAffinity>  (1) 
-5.42363453

>  <minimizedRMSD>  (1) 
0.245000318

$$$$
