
     RDKit          3D

 20 21  0  0  0  0  0  0  0  0999 V2000
   38.0200   28.5120   43.4030 C   0  0  0  0  0  0  0  0  0  0  0  0
   37.0030   27.6590   42.9380 C   0  0  0  0  0  0  0  0  0  0  0  0
   36.2690   28.0570   41.7960 C   0  0  0  0  0  0  0  0  0  0  0  0
   36.5940   29.2420   41.2190 N   0  0  0  0  0  0  0  0  0  0  0  0
   37.5790   30.0350   41.6950 C   0  0  0  0  0  0  0  0  0  0  0  0
   38.2810   29.6640   42.7790 N   0  0  0  0  0  0  0  0  0  0  0  0
   37.9040   31.3180   41.0390 C   0  0  0  0  0  0  0  0  0  0  0  0
   36.9740   31.8540   40.1520 C   0  0  0  0  0  0  0  0  0  0  0  0
   37.2620   33.0530   39.5300 C   0  0  0  0  0  0  0  0  0  0  0  0
   38.4710   33.6890   39.8070 C   0  0  0  0  0  0  0  0  0  0  0  0
   39.3930   33.1430   40.6950 C   0  0  0  0  0  0  0  0  0  0  0  0
   39.1150   31.9520   41.3180 C   0  0  0  0  0  0  0  0  0  0  0  0
   38.6063   28.2277   44.2893 H   0  0  0  0  0  0  0  0  0  0  0  0
   36.7845   26.7091   43.4479 H   0  0  0  0  0  0  0  0  0  0  0  0
   35.4630   27.4282   41.3898 H   0  0  0  0  0  0  0  0  0  0  0  0
   36.0270   31.3319   39.9503 H   0  0  0  0  0  0  0  0  0  0  0  0
   36.5462   33.5005   38.8248 H   0  0  0  0  0  0  0  0  0  0  0  0
   38.7016   34.6441   39.3125 H   0  0  0  0  0  0  0  0  0  0  0  0
   40.3407   33.6638   40.8968 H   0  0  0  0  0  0  0  0  0  0  0  0
   39.8324   31.5065   42.0229 H   0  0  0  0  0  0  0  0  0  0  0  0
  2  1  2  0
  3  2  1  0
  4  5  1  0
  4  3  2  0
  5  6  2  0
  6  1  1  0
  7 12  1  0
  7  5  1  0
  8  7  2  0
  9 10  2  0
  9  8  1  0
 10 11  1  0
 11 12  2  0
  1 13  1  0
  2 14  1  0
  3 15  1  0
  8 16  1  0
  9 17  1  0
 10 18  1  0
 11 19  1  0
 12 20  1  0
M  ISO  8  13  14  14  14  15  14  16  14  17  14  18  14  19  14  20  14
M  END
>  <minimizedAffinity>  (1) 
-4.06580019

>  <minimizedRMSD>  (1) 
2.37412977

$$$$
