
     RDKit          3D

 36 39  0  0  0  0  0  0  0  0999 V2000
   38.7130   31.6970   40.7600 C   0  0  0  0  0  0  0  0  0  0  0  0
   39.5880   32.7400   41.0150 C   0  0  0  0  0  0  0  0  0  0  0  0
   39.2630   34.0110   40.5770 C   0  0  0  0  0  0  0  0  0  0  0  0
   38.0560   34.1900   39.8910 C   0  0  0  0  0  0  0  0  0  0  0  0
   37.1800   33.1390   39.6370 C   0  0  0  0  0  0  0  0  0  0  0  0
   37.5280   31.8980   40.0800 C   0  0  0  0  0  0  0  0  0  0  0  0
   36.5650   30.8540   39.7630 C   0  0  0  0  0  0  0  0  0  0  0  0
   35.6840   30.2300   40.6560 C   0  0  0  0  0  0  0  0  0  0  0  0
   34.8010   29.2540   40.2910 C   0  0  0  0  0  0  0  0  0  0  0  0
   34.7620   28.8500   38.9740 C   0  0  0  0  0  0  0  0  0  0  0  0
   35.6010   29.4260   38.0580 C   0  0  0  0  0  0  0  0  0  0  0  0
   35.4840   28.9500   36.7620 C   0  0  0  0  0  0  0  0  0  0  0  0
   36.3540   29.5560   35.8400 C   0  0  0  0  0  0  0  0  0  0  0  0
   37.2570   30.5410   36.1620 C   0  0  0  0  0  0  0  0  0  0  0  0
   37.3300   30.9760   37.4750 C   0  0  0  0  0  0  0  0  0  0  0  0
   36.4920   30.4140   38.4410 C   0  0  0  0  0  0  0  0  0  0  0  0
   40.0450   28.2930   40.8460 C   0  0  0  0  0  0  0  0  0  0  0  0
   39.7480   27.8340   42.1320 C   0  0  0  0  0  0  0  0  0  0  0  0
   39.0720   28.7250   42.9820 C   0  0  0  0  0  0  0  0  0  0  0  0
   38.7690   29.9450   42.4910 N   0  0  0  0  0  0  0  0  0  0  0  0
   39.0710   30.3580   41.2420 C   0  0  0  0  0  0  0  0  0  0  0  0
   39.7120   29.5070   40.4390 N   0  0  0  0  0  0  0  0  0  0  0  0
   40.5276   32.5601   41.5579 H   0  0  0  0  0  0  0  0  0  0  0  0
   39.9366   34.8605   40.7632 H   0  0  0  0  0  0  0  0  0  0  0  0
   37.7903   35.1981   39.5400 H   0  0  0  0  0  0  0  0  0  0  0  0
   36.2367   33.3046   39.0959 H   0  0  0  0  0  0  0  0  0  0  0  0
   35.7046   30.5437   41.7101 H   0  0  0  0  0  0  0  0  0  0  0  0
   34.1322   28.7980   41.0358 H   0  0  0  0  0  0  0  0  0  0  0  0
   34.0578   28.0658   38.6591 H   0  0  0  0  0  0  0  0  0  0  0  0
   34.7695   28.1632   36.4785 H   0  0  0  0  0  0  0  0  0  0  0  0
   36.3096   29.2206   34.7933 H   0  0  0  0  0  0  0  0  0  0  0  0
   37.9099   30.9759   35.3909 H   0  0  0  0  0  0  0  0  0  0  0  0
   38.0461   31.7621   37.7564 H   0  0  0  0  0  0  0  0  0  0  0  0
   40.5723   27.6239   40.1501 H   0  0  0  0  0  0  0  0  0  0  0  0
   40.0300   26.8235   42.4628 H   0  0  0  0  0  0  0  0  0  0  0  0
   38.8000   28.4392   44.0088 H   0  0  0  0  0  0  0  0  0  0  0  0
  1  2  2  0
  1 21  1  0
  3  2  1  0
  4  3  2  0
  5  4  1  0
  5  6  2  0
  6  1  1  0
  7  6  1  0
  7  8  2  0
  9  8  1  0
 10  9  2  0
 11 16  2  0
 11 10  1  0
 12 11  1  0
 13 14  1  0
 13 12  2  0
 14 15  2  0
 15 16  1  0
 16  7  1  0
 17 18  2  0
 18 19  1  0
 20 19  2  0
 21 20  1  0
 22 17  1  0
 22 21  2  0
  2 23  1  0
  3 24  1  0
  4 25  1  0
  5 26  1  0
  8 27  1  0
  9 28  1  0
 10 29  1  0
 12 30  1  0
 13 31  1  0
 14 32  1  0
 15 33  1  0
 17 34  1  0
 18 35  1  0
 19 36  1  0
M  ISO  8  23  14  24  14  25  14  26  14  27  14  28  14  29  14  30  14
M  ISO  6  31  14  32  14  33  14  34  14  35  14  36  14
M  END
>  <minimizedAffinity>  (1) 
-6.08912706

>  <minimizedRMSD>  (1) 
5.87660599

$$$$
