
     RDKit          3D

 33 36  0  0  0  0  0  0  0  0999 V2000
   37.4720   30.2610   39.4020 C   0  0  0  0  0  0  0  0  0  0  0  0
   37.0970   31.2090   38.4650 C   0  0  0  0  0  0  0  0  0  0  0  0
   37.1880   32.5440   38.7970 C   0  0  0  0  0  0  0  0  0  0  0  0
   37.6620   32.8850   40.0750 C   0  0  0  0  0  0  0  0  0  0  0  0
   38.0380   31.9230   41.0130 C   0  0  0  0  0  0  0  0  0  0  0  0
   37.9410   30.6080   40.6670 C   0  0  0  0  0  0  0  0  0  0  0  0
   36.0970   26.8920   38.9890 C   0  0  0  0  0  0  0  0  0  0  0  0
   37.1250   26.2000   38.3280 C   0  0  0  0  0  0  0  0  0  0  0  0
   38.3100   26.8980   38.0180 C   0  0  0  0  0  0  0  0  0  0  0  0
   38.3540   28.1940   38.3900 N   0  0  0  0  0  0  0  0  0  0  0  0
   37.3630   28.8370   39.0200 C   0  0  0  0  0  0  0  0  0  0  0  0
   36.2220   28.1780   39.3230 N   0  0  0  0  0  0  0  0  0  0  0  0
   38.3230   29.6230   41.6190 N   0  0  0  0  0  0  0  0  0  0  0  0
   37.4440   29.2840   42.5850 C   0  0  0  0  0  0  0  0  0  0  0  0
   37.9710   28.3520   43.3810 N   0  0  0  0  0  0  0  0  0  0  0  0
   39.2090   28.0620   42.9490 C   0  0  0  0  0  0  0  0  0  0  0  0
   40.2810   27.2300   43.2800 C   0  0  0  0  0  0  0  0  0  0  0  0
   41.4130   27.2270   42.5680 N   0  0  0  0  0  0  0  0  0  0  0  0
   41.5340   28.0510   41.4960 C   0  0  0  0  0  0  0  0  0  0  0  0
   40.5430   28.9000   41.0940 N   0  0  0  0  0  0  0  0  0  0  0  0
   39.4180   28.8690   41.8410 C   0  0  0  0  0  0  0  0  0  0  0  0
   40.0770   26.3940   44.4220 N   0  0  0  0  0  0  0  0  0  0  0  0
   36.7329   30.9024   37.4733 H   0  0  0  0  0  0  0  0  0  0  0  0
   36.8964   33.3239   38.0782 H   0  0  0  0  0  0  0  0  0  0  0  0
   37.7394   33.9484   40.3457 H   0  0  0  0  0  0  0  0  0  0  0  0
   38.4038   32.2184   42.0074 H   0  0  0  0  0  0  0  0  0  0  0  0
   35.1662   26.3611   39.2374 H   0  0  0  0  0  0  0  0  0  0  0  0
   37.0084   25.1398   38.0589 H   0  0  0  0  0  0  0  0  0  0  0  0
   39.1516   26.4130   37.5017 H   0  0  0  0  0  0  0  0  0  0  0  0
   36.4381   29.7140   42.6997 H   0  0  0  0  0  0  0  0  0  0  0  0
   42.4739   28.0340   40.9248 H   0  0  0  0  0  0  0  0  0  0  0  0
   40.8213   25.7520   44.7298 H   0  0  0  0  0  0  0  0  0  0  0  0
   39.1858   26.4338   44.9368 H   0  0  0  0  0  0  0  0  0  0  0  0
  1  6  2  0
  2  3  2  0
  2  1  1  0
  3  4  1  0
  4  5  2  0
  6  5  1  0
  6 13  1  0
  7 12  2  0
  8  7  1  0
  9  8  2  0
  9 10  1  0
 10 11  2  0
 11 12  1  0
 11  1  1  0
 13 21  1  0
 13 14  1  0
 14 15  2  0
 16 17  2  0
 16 15  1  0
 17 22  1  0
 18 17  1  0
 19 18  2  0
 20 19  1  0
 20 21  2  0
 21 16  1  0
  2 23  1  0
  3 24  1  0
  4 25  1  0
  5 26  1  0
  7 27  1  0
  8 28  1  0
  9 29  1  0
 14 30  1  0
 19 31  1  0
 22 32  1  0
 22 33  1  0
M  ISO  8  23  14  24  14  25  14  26  14  27  14  28  14  29  14  30  14
M  ISO  1  31  14
M  END
>  <minimizedAffinity>  (1) 
-5.04425669

>  <minimizedRMSD>  (1) 
3.16387558

$$$$
