
     RDKit          3D

 28 30  0  0  0  0  0  0  0  0999 V2000
   38.4200   31.2420   41.0080 C   0  0  0  0  0  0  0  0  0  0  0  0
   39.3440   32.2250   41.3050 C   0  0  0  0  0  0  0  0  0  0  0  0
   39.2040   33.4720   40.7520 C   0  0  0  0  0  0  0  0  0  0  0  0
   38.1160   33.6980   39.9020 C   0  0  0  0  0  0  0  0  0  0  0  0
   37.1900   32.7150   39.6050 C   0  0  0  0  0  0  0  0  0  0  0  0
   37.3520   31.4860   40.1640 C   0  0  0  0  0  0  0  0  0  0  0  0
   38.1720   28.4350   43.3400 C   0  0  0  0  0  0  0  0  0  0  0  0
   38.8890   27.4100   42.7170 C   0  0  0  0  0  0  0  0  0  0  0  0
   39.4710   27.7000   41.4670 C   0  0  0  0  0  0  0  0  0  0  0  0
   39.2870   28.9420   40.9770 N   0  0  0  0  0  0  0  0  0  0  0  0
   38.5880   29.9090   41.6050 C   0  0  0  0  0  0  0  0  0  0  0  0
   38.0410   29.6320   42.7840 N   0  0  0  0  0  0  0  0  0  0  0  0
   36.3220   30.5300   39.7830 C   0  0  0  0  0  0  0  0  0  0  0  0
   36.4330   30.2350   38.4160 C   0  0  0  0  0  0  0  0  0  0  0  0
   35.5940   29.3360   37.7450 C   0  0  0  0  0  0  0  0  0  0  0  0
   34.6530   28.7410   38.4590 N   0  0  0  0  0  0  0  0  0  0  0  0
   34.5530   29.0310   39.7800 C   0  0  0  0  0  0  0  0  0  0  0  0
   35.3430   29.8830   40.4240 N   0  0  0  0  0  0  0  0  0  0  0  0
   40.1855   32.0091   41.9798 H   0  0  0  0  0  0  0  0  0  0  0  0
   39.9267   34.2720   40.9705 H   0  0  0  0  0  0  0  0  0  0  0  0
   37.9926   34.6947   39.4533 H   0  0  0  0  0  0  0  0  0  0  0  0
   36.3437   32.9219   38.9335 H   0  0  0  0  0  0  0  0  0  0  0  0
   37.7040   28.2441   44.3170 H   0  0  0  0  0  0  0  0  0  0  0  0
   38.9945   26.4190   43.1826 H   0  0  0  0  0  0  0  0  0  0  0  0
   40.0505   26.9454   40.9149 H   0  0  0  0  0  0  0  0  0  0  0  0
   37.2230   30.7377   37.8388 H   0  0  0  0  0  0  0  0  0  0  0  0
   35.7127   29.1336   36.6703 H   0  0  0  0  0  0  0  0  0  0  0  0
   33.7642   28.5265   40.3574 H   0  0  0  0  0  0  0  0  0  0  0  0
  1  2  2  0
  1 11  1  0
  3  2  1  0
  4  3  2  0
  5  4  1  0
  5  6  2  0
  6  1  1  0
  8  7  2  0
  9  8  1  0
 10  9  2  0
 10 11  1  0
 11 12  2  0
 12  7  1  0
 13  6  1  0
 13 18  1  0
 14 13  2  0
 15 14  1  0
 15 16  2  0
 16 17  1  0
 17 18  2  0
  2 19  1  0
  3 20  1  0
  4 21  1  0
  5 22  1  0
  7 23  1  0
  8 24  1  0
  9 25  1  0
 14 26  1  0
 15 27  1  0
 17 28  1  0
M  ISO  8  19  14  20  14  21  14  22  14  23  14  24  14  25  14  26  14
M  ISO  2  27  14  28  14
M  END
>  <minimizedAffinity>  (1) 
-4.97297049

>  <minimizedRMSD>  (1) 
4.6339469

$$$$
