
     RDKit          3D

 33 35  0  0  0  0  0  0  0  0999 V2000
   39.4560   31.4170   38.9900 C   0  0  0  0  0  0  0  0  0  0  0  0
   40.1520   32.4200   38.3070 C   0  0  0  0  0  0  0  0  0  0  0  0
   40.7380   33.4200   39.0460 C   0  0  0  0  0  0  0  0  0  0  0  0
   40.6280   33.4170   40.4360 C   0  0  0  0  0  0  0  0  0  0  0  0
   39.9320   32.4110   41.0890 C   0  0  0  0  0  0  0  0  0  0  0  0
   39.3330   31.3930   40.3810 C   0  0  0  0  0  0  0  0  0  0  0  0
   38.6140   30.3510   41.0310 N   0  0  0  0  0  0  0  0  0  0  0  0
   39.1180   29.2030   41.4720 C   0  0  0  0  0  0  0  0  0  0  0  0
   38.3440   28.2430   42.0930 C   0  0  0  0  0  0  0  0  0  0  0  0
   38.9660   26.9710   42.5710 C   0  0  0  0  0  0  0  0  0  0  0  0
   36.9810   28.5060   42.2550 C   0  0  0  0  0  0  0  0  0  0  0  0
   36.2460   27.6360   42.8260 O   0  0  0  0  0  0  0  0  0  0  0  0
   36.5060   29.6630   41.8010 N   0  0  0  0  0  0  0  0  0  0  0  0
   37.2820   30.5950   41.1940 C   0  0  0  0  0  0  0  0  0  0  0  0
   36.6370   31.6350   40.8330 O   0  0  0  0  0  0  0  0  0  0  0  0
   36.9880   29.6050   36.9640 C   0  0  0  0  0  0  0  0  0  0  0  0
   37.6410   28.3960   36.6810 C   0  0  0  0  0  0  0  0  0  0  0  0
   38.9470   28.1970   37.1920 C   0  0  0  0  0  0  0  0  0  0  0  0
   39.4980   29.1880   37.9280 N   0  0  0  0  0  0  0  0  0  0  0  0
   38.8300   30.3440   38.1790 C   0  0  0  0  0  0  0  0  0  0  0  0
   37.5850   30.5510   37.7020 N   0  0  0  0  0  0  0  0  0  0  0  0
   40.2282   32.4088   37.2097 H   0  0  0  0  0  0  0  0  0  0  0  0
   41.2941   34.2232   38.5404 H   0  0  0  0  0  0  0  0  0  0  0  0
   41.0983   34.2212   41.0208 H   0  0  0  0  0  0  0  0  0  0  0  0
   39.8574   32.4263   42.1864 H   0  0  0  0  0  0  0  0  0  0  0  0
   40.1926   29.0104   41.3371 H   0  0  0  0  0  0  0  0  0  0  0  0
   38.9729   26.9569   43.6709 H   0  0  0  0  0  0  0  0  0  0  0  0
   38.3846   26.1154   42.1970 H   0  0  0  0  0  0  0  0  0  0  0  0
   39.9983   26.9045   42.1970 H   0  0  0  0  0  0  0  0  0  0  0  0
   35.5016   29.8601   41.9160 H   0  0  0  0  0  0  0  0  0  0  0  0
   35.9737   29.7786   36.5754 H   0  0  0  0  0  0  0  0  0  0  0  0
   37.1497   27.6199   36.0758 H   0  0  0  0  0  0  0  0  0  0  0  0
   39.4962   27.2643   36.9959 H   0  0  0  0  0  0  0  0  0  0  0  0
  1  6  1  0
  2  1  2  0
  2  3  1  0
  3  4  2  0
  4  5  1  0
  6  7  1  0
  6  5  2  0
  7 14  1  0
  7  8  1  0
  8  9  2  0
  9 11  1  0
  9 10  1  0
 11 12  2  0
 13 11  1  0
 14 13  1  0
 15 14  2  0
 16 21  2  0
 17 16  1  0
 17 18  2  0
 18 19  1  0
 19 20  2  0
 20  1  1  0
 21 20  1  0
  2 22  1  0
  3 23  1  0
  4 24  1  0
  5 25  1  0
  8 26  1  0
 10 27  1  0
 10 28  1  0
 10 29  1  0
 13 30  1  0
 16 31  1  0
 17 32  1  0
 18 33  1  0
M  ISO  8  22  14  23  14  24  14  25  14  26  14  27   8  28   8  29   8
M  ISO  4  30   9  31  14  32  14  33  14
M  END
>  <minimizedAffinity>  (1) 
-4.94282818

>  <minimizedRMSD>  (1) 
4.34164667

$$$$
