
     RDKit          3D

 30 32  0  0  1  0  0  0  0  0999 V2000
   39.9470   28.5740   42.9540 N   0  0  0  0  0  0  0  0  0  0  0  0
   40.5820   29.8060   42.5160 C   0  0  0  0  0  0  0  0  0  0  0  0
   41.7980   29.3390   41.7350 C   0  0  0  0  0  0  0  0  0  0  0  0
   42.7340   28.8000   42.6780 N   0  0  0  0  0  0  0  0  0  0  0  0
   42.2120   27.8630   43.5950 C   0  0  0  0  0  0  0  0  0  0  0  0
   40.7590   27.5780   43.5770 C   0  0  2  0  0  0  0  0  0  0  0  0
   38.5660   28.2930   42.8040 C   0  0  0  0  0  0  0  0  0  0  0  0
   37.7500   27.8580   43.8580 C   0  0  0  0  0  0  0  0  0  0  0  0
   36.4100   27.6050   43.6250 C   0  0  0  0  0  0  0  0  0  0  0  0
   35.9530   27.8000   42.3540 N   0  0  0  0  0  0  0  0  0  0  0  0
   36.7530   28.2180   41.3570 C   0  0  0  0  0  0  0  0  0  0  0  0
   38.0560   28.4660   41.5730 N   0  0  0  0  0  0  0  0  0  0  0  0
   40.4570   26.2790   43.0050 N   0  0  0  0  0  0  0  0  0  0  0  0
   40.6070   25.9030   41.7380 C   0  0  0  0  0  0  0  0  0  0  0  0
   40.2280   24.6250   41.5540 N   0  0  0  0  0  0  0  0  0  0  0  0
   39.8290   24.2080   42.7740 C   0  0  0  0  0  0  0  0  0  0  0  0
   39.9660   25.2110   43.6540 N   0  0  0  0  0  0  0  0  0  0  0  0
   39.9046   30.3872   41.8731 H   0  0  0  0  0  0  0  0  0  0  0  0
   40.8473   30.4656   43.3553 H   0  0  0  0  0  0  0  0  0  0  0  0
   41.5050   28.5639   41.0116 H   0  0  0  0  0  0  0  0  0  0  0  0
   42.2462   30.1754   41.1786 H   0  0  0  0  0  0  0  0  0  0  0  0
   43.4861   28.3376   42.1475 H   0  0  0  0  0  0  0  0  0  0  0  0
   42.7303   26.9100   43.4132 H   0  0  0  0  0  0  0  0  0  0  0  0
   42.3782   28.3314   44.5763 H   0  0  0  0  0  0  0  0  0  0  0  0
   40.4923   27.5849   44.6441 H   0  0  0  0  0  0  0  0  0  0  0  0
   38.1727   27.7188   44.8640 H   0  0  0  0  0  0  0  0  0  0  0  0
   35.7422   27.2617   44.4289 H   0  0  0  0  0  0  0  0  0  0  0  0
   36.3345   28.3590   40.3496 H   0  0  0  0  0  0  0  0  0  0  0  0
   40.9926   26.5551   40.9404 H   0  0  0  0  0  0  0  0  0  0  0  0
   39.4505   23.2025   43.0099 H   0  0  0  0  0  0  0  0  0  0  0  0
  1  6  1  0
  2  1  1  0
  3  2  1  0
  3  4  1  0
  4  5  1  0
  6  5  1  0
  7  1  1  0
  7  8  2  0
  9  8  1  0
 10  9  2  0
 11 12  2  0
 11 10  1  0
 12  7  1  0
 13  6  1  0
 13 17  1  0
 14 13  1  0
 15 14  2  0
 15 16  1  0
 16 17  2  0
  2 18  1  0
  2 19  1  0
  3 20  1  0
  3 21  1  0
  4 22  1  0
  5 23  1  0
  5 24  1  0
  6 25  1  1
  8 26  1  0
  9 27  1  0
 11 28  1  0
 14 29  1  0
 16 30  1  0
M  ISO  8  18  13  19  13  20  13  21  13  22   5  23  13  24  13  25  13
M  ISO  5  26  14  27  14  28  14  29  14  30  14
M  END
>  <minimizedAffinity>  (1) 
-3.6265614

>  <minimizedRMSD>  (1) 
1.70763481

$$$$
