
     RDKit          3D

 33 35  0  0  0  0  0  0  0  0999 V2000
   37.4000   31.5790   39.9980 C   0  0  0  0  0  0  0  0  0  0  0  0
   37.2190   32.9120   39.5970 C   0  0  0  0  0  0  0  0  0  0  0  0
   38.0840   33.8840   40.0270 C   0  0  0  0  0  0  0  0  0  0  0  0
   39.1150   33.4890   40.8550 C   0  0  0  0  0  0  0  0  0  0  0  0
   39.2670   32.1700   41.2330 C   0  0  0  0  0  0  0  0  0  0  0  0
   38.4420   31.1570   40.8410 C   0  0  0  0  0  0  0  0  0  0  0  0
   34.6360   29.1450   39.9180 C   0  0  0  0  0  0  0  0  0  0  0  0
   34.6560   28.7050   38.5930 C   0  0  0  0  0  0  0  0  0  0  0  0
   35.6300   29.2490   37.7050 C   0  0  0  0  0  0  0  0  0  0  0  0
   36.4870   30.1720   38.2120 N   0  0  0  0  0  0  0  0  0  0  0  0
   36.4410   30.5750   39.4960 C   0  0  0  0  0  0  0  0  0  0  0  0
   35.5300   30.0490   40.2780 N   0  0  0  0  0  0  0  0  0  0  0  0
   38.6340   29.7930   41.2680 C   0  0  0  0  0  0  0  0  0  0  0  0
   40.0560   29.3580   41.4980 C   0  0  0  0  0  0  0  0  0  0  0  0
   40.0520   28.3970   42.6730 C   0  0  0  0  0  0  0  0  0  0  0  0
   38.5700   28.2480   42.9930 C   0  0  0  0  0  0  0  0  0  0  0  0
   38.1410   29.6960   42.7390 C   0  0  0  0  0  0  0  0  0  0  0  0
   36.3807   33.1770   38.9359 H   0  0  0  0  0  0  0  0  0  0  0  0
   37.9617   34.9346   39.7250 H   0  0  0  0  0  0  0  0  0  0  0  0
   39.8301   34.2404   41.2212 H   0  0  0  0  0  0  0  0  0  0  0  0
   40.1095   31.9193   41.8943 H   0  0  0  0  0  0  0  0  0  0  0  0
   33.9017   28.7528   40.6370 H   0  0  0  0  0  0  0  0  0  0  0  0
   33.9343   27.9532   38.2410 H   0  0  0  0  0  0  0  0  0  0  0  0
   35.6848   28.9339   36.6525 H   0  0  0  0  0  0  0  0  0  0  0  0
   38.1459   29.2066   40.4756 H   0  0  0  0  0  0  0  0  0  0  0  0
   40.4447   28.8536   40.6010 H   0  0  0  0  0  0  0  0  0  0  0  0
   40.6986   30.2257   41.7080 H   0  0  0  0  0  0  0  0  0  0  0  0
   40.4947   27.4296   42.3934 H   0  0  0  0  0  0  0  0  0  0  0  0
   40.6446   28.7563   43.5272 H   0  0  0  0  0  0  0  0  0  0  0  0
   38.0680   27.5414   42.3158 H   0  0  0  0  0  0  0  0  0  0  0  0
   38.3327   27.8454   43.9888 H   0  0  0  0  0  0  0  0  0  0  0  0
   38.6547   30.4082   43.4015 H   0  0  0  0  0  0  0  0  0  0  0  0
   37.0811   29.9307   42.9164 H   0  0  0  0  0  0  0  0  0  0  0  0
  1  6  1  0
  2  1  2  0
  2  3  1  0
  3  4  2  0
  4  5  1  0
  6  5  2  0
  6 13  1  0
  7 12  2  0
  8  7  1  0
  9 10  1  0
  9  8  2  0
 10 11  2  0
 11  1  1  0
 11 12  1  0
 13 14  1  0
 13 17  1  0
 14 15  1  0
 15 16  1  0
 17 16  1  0
  2 18  1  0
  3 19  1  0
  4 20  1  0
  5 21  1  0
  7 22  1  0
  8 23  1  0
  9 24  1  0
 13 25  1  0
 14 26  1  0
 14 27  1  0
 15 28  1  0
 15 29  1  0
 16 30  1  0
 16 31  1  0
 17 32  1  0
 17 33  1  0
M  ISO  8  18  14  19  14  20  14  21  14  22  14  23  14  24  14  25  13
M  ISO  8  26  13  27  13  28  13  29  13  30  13  31  13  32  13  33  13
M  END
>  <minimizedAffinity>  (1) 
-4.87896585

>  <minimizedRMSD>  (1) 
2.95399094

$$$$
