
     RDKit          3D

 27 29  0  0  0  0  0  0  0  0999 V2000
   37.3860   29.2370   41.6030 C   0  0  0  0  0  0  0  0  0  0  0  0
   36.2790   28.3880   41.6050 C   0  0  0  0  0  0  0  0  0  0  0  0
   36.1560   27.4960   42.6560 C   0  0  0  0  0  0  0  0  0  0  0  0
   37.1240   27.4810   43.6520 C   0  0  0  0  0  0  0  0  0  0  0  0
   38.2180   28.3270   43.6410 C   0  0  0  0  0  0  0  0  0  0  0  0
   38.3370   29.2030   42.6060 C   0  0  0  0  0  0  0  0  0  0  0  0
   38.3190   30.6510   38.3580 C   0  0  0  0  0  0  0  0  0  0  0  0
   37.7920   31.9640   38.4140 C   0  0  0  0  0  0  0  0  0  0  0  0
   37.1030   32.3650   39.5970 C   0  0  0  0  0  0  0  0  0  0  0  0
   37.0100   31.4460   40.5780 N   0  0  0  0  0  0  0  0  0  0  0  0
   37.5280   30.1920   40.4910 C   0  0  0  0  0  0  0  0  0  0  0  0
   38.1700   29.8240   39.3840 N   0  0  0  0  0  0  0  0  0  0  0  0
   39.5150   30.0610   42.6490 C   0  0  0  0  0  0  0  0  0  0  0  0
   40.7280   29.3660   42.5480 C   0  0  0  0  0  0  0  0  0  0  0  0
   41.7790   30.2840   42.5930 C   0  0  0  0  0  0  0  0  0  0  0  0
   41.1720   31.4830   42.7190 N   0  0  0  0  0  0  0  0  0  0  0  0
   39.8580   31.3570   42.7520 N   0  0  0  0  0  0  0  0  0  0  0  0
   35.5305   28.4262   40.7998 H   0  0  0  0  0  0  0  0  0  0  0  0
   35.3005   26.8061   42.7021 H   0  0  0  0  0  0  0  0  0  0  0  0
   37.0162   26.7679   44.4826 H   0  0  0  0  0  0  0  0  0  0  0  0
   38.9690   28.2930   44.4441 H   0  0  0  0  0  0  0  0  0  0  0  0
   38.8551   30.3149   37.4582 H   0  0  0  0  0  0  0  0  0  0  0  0
   37.9107   32.6565   37.5677 H   0  0  0  0  0  0  0  0  0  0  0  0
   36.6706   33.3709   39.7027 H   0  0  0  0  0  0  0  0  0  0  0  0
   40.8345   28.2756   42.4494 H   0  0  0  0  0  0  0  0  0  0  0  0
   42.8579   30.0769   42.5382 H   0  0  0  0  0  0  0  0  0  0  0  0
   41.6705   32.3821   42.7815 H   0  0  0  0  0  0  0  0  0  0  0  0
  1  2  2  0
  1  6  1  0
  2  3  1  0
  3  4  2  0
  5  4  1  0
  6 13  1  0
  6  5  2  0
  7  8  2  0
  7 12  1  0
  8  9  1  0
  9 10  2  0
 11 10  1  0
 11  1  1  0
 12 11  2  0
 13 17  2  0
 14 15  2  0
 14 13  1  0
 15 16  1  0
 16 17  1  0
  2 18  1  0
  3 19  1  0
  4 20  1  0
  5 21  1  0
  7 22  1  0
  8 23  1  0
  9 24  1  0
 14 25  1  0
 15 26  1  0
 16 27  1  0
M  ISO  8  18  14  19  14  20  14  21  14  22  14  23  14  24  14  25  14
M  ISO  2  26  14  27   9
M  END
>  <minimizedAffinity>  (1) 
-4.85162973

>  <minimizedRMSD>  (1) 
4.1014924

$$$$
