
     RDKit          3D

 27 29  0  0  0  0  0  0  0  0999 V2000
   38.1540   31.1380   40.9380 C   0  0  0  0  0  0  0  0  0  0  0  0
   39.0940   32.0860   41.3670 C   0  0  0  0  0  0  0  0  0  0  0  0
   39.0170   33.3390   40.8110 C   0  0  0  0  0  0  0  0  0  0  0  0
   38.0450   33.6310   39.8690 C   0  0  0  0  0  0  0  0  0  0  0  0
   37.1310   32.6750   39.4640 C   0  0  0  0  0  0  0  0  0  0  0  0
   37.1640   31.4160   39.9850 C   0  0  0  0  0  0  0  0  0  0  0  0
   39.0550   27.6130   41.3870 C   0  0  0  0  0  0  0  0  0  0  0  0
   38.4410   27.2860   42.6200 C   0  0  0  0  0  0  0  0  0  0  0  0
   37.7160   28.2810   43.2990 C   0  0  0  0  0  0  0  0  0  0  0  0
   37.6550   29.4970   42.7170 N   0  0  0  0  0  0  0  0  0  0  0  0
   38.2450   29.7840   41.5460 C   0  0  0  0  0  0  0  0  0  0  0  0
   38.9460   28.8450   40.8780 N   0  0  0  0  0  0  0  0  0  0  0  0
   36.2450   30.4010   39.6010 N   0  0  0  0  0  0  0  0  0  0  0  0
   36.3570   30.0190   38.3010 C   0  0  0  0  0  0  0  0  0  0  0  0
   35.4150   29.0360   38.0610 C   0  0  0  0  0  0  0  0  0  0  0  0
   34.7510   28.8370   39.2100 N   0  0  0  0  0  0  0  0  0  0  0  0
   35.2580   29.6660   40.1400 C   0  0  0  0  0  0  0  0  0  0  0  0
   39.8597   31.8366   42.1163 H   0  0  0  0  0  0  0  0  0  0  0  0
   39.7327   34.1166   41.1161 H   0  0  0  0  0  0  0  0  0  0  0  0
   37.9989   34.6408   39.4352 H   0  0  0  0  0  0  0  0  0  0  0  0
   36.3695   32.9336   38.7135 H   0  0  0  0  0  0  0  0  0  0  0  0
   39.6268   26.8470   40.8427 H   0  0  0  0  0  0  0  0  0  0  0  0
   38.5295   26.2727   43.0388 H   0  0  0  0  0  0  0  0  0  0  0  0
   37.2213   28.0777   44.2602 H   0  0  0  0  0  0  0  0  0  0  0  0
   37.0720   30.4216   37.5684 H   0  0  0  0  0  0  0  0  0  0  0  0
   35.2423   28.5151   37.1077 H   0  0  0  0  0  0  0  0  0  0  0  0
   34.9164   29.7321   41.1835 H   0  0  0  0  0  0  0  0  0  0  0  0
  1  2  2  0
  1 11  1  0
  3  2  1  0
  4  3  2  0
  5  4  1  0
  5  6  2  0
  6  1  1  0
  7  8  2  0
  8  9  1  0
 10  9  2  0
 11 10  1  0
 12  7  1  0
 12 11  2  0
 13  6  1  0
 13 17  1  0
 14 13  1  0
 15 14  2  0
 15 16  1  0
 16 17  2  0
  2 18  1  0
  3 19  1  0
  4 20  1  0
  5 21  1  0
  7 22  1  0
  8 23  1  0
  9 24  1  0
 14 25  1  0
 15 26  1  0
 17 27  1  0
M  ISO  8  18  14  19  14  20  14  21  14  22  14  23  14  24  14  25  14
M  ISO  2  26  14  27  14
M  END
>  <minimizedAffinity>  (1) 
-4.57018757

>  <minimizedRMSD>  (1) 
4.13050938

$$$$
