
     RDKit          3D

 32 33  0  0  0  0  0  0  0  0999 V2000
   36.6320   28.1440   39.7310 C   0  0  0  0  0  0  0  0  0  0  0  0
   36.1120   27.0180   39.0770 C   0  0  0  0  0  0  0  0  0  0  0  0
   35.6010   27.2130   37.8040 C   0  0  0  0  0  0  0  0  0  0  0  0
   35.6330   28.4840   37.2610 C   0  0  0  0  0  0  0  0  0  0  0  0
   36.1520   29.5630   37.9370 C   0  0  0  0  0  0  0  0  0  0  0  0
   36.6660   29.4410   39.1840 C   0  0  0  0  0  0  0  0  0  0  0  0
   36.8270   27.7550   43.3560 C   0  0  0  0  0  0  0  0  0  0  0  0
   38.1700   27.4660   43.6040 C   0  0  0  0  0  0  0  0  0  0  0  0
   39.0340   27.4050   42.4980 C   0  0  0  0  0  0  0  0  0  0  0  0
   38.4930   27.6300   41.2850 N   0  0  0  0  0  0  0  0  0  0  0  0
   37.2050   27.9060   41.0570 C   0  0  0  0  0  0  0  0  0  0  0  0
   36.4590   27.9500   42.1040 N   0  0  0  0  0  0  0  0  0  0  0  0
   37.0900   30.6980   39.7950 C   0  0  0  0  0  0  0  0  0  0  0  0
   37.0630   31.9110   38.8760 C   0  0  0  0  0  0  0  0  0  0  0  0
   38.5390   30.5760   40.2340 C   0  0  0  0  0  0  0  0  0  0  0  0
   36.3730   31.0070   41.1050 C   0  0  0  0  0  0  0  0  0  0  0  0
   36.1098   26.0261   39.5524 H   0  0  0  0  0  0  0  0  0  0  0  0
   35.1775   26.3718   37.2357 H   0  0  0  0  0  0  0  0  0  0  0  0
   35.2279   28.6379   36.2499 H   0  0  0  0  0  0  0  0  0  0  0  0
   36.1497   30.5506   37.4526 H   0  0  0  0  0  0  0  0  0  0  0  0
   36.0988   27.8181   44.1780 H   0  0  0  0  0  0  0  0  0  0  0  0
   38.5376   27.2927   44.6262 H   0  0  0  0  0  0  0  0  0  0  0  0
   40.1048   27.1833   42.6172 H   0  0  0  0  0  0  0  0  0  0  0  0
   37.0426   32.8292   39.4813 H   0  0  0  0  0  0  0  0  0  0  0  0
   37.9614   31.9102   38.2413 H   0  0  0  0  0  0  0  0  0  0  0  0
   36.1655   31.8702   38.2413 H   0  0  0  0  0  0  0  0  0  0  0  0
   38.5901   30.5717   41.3328 H   0  0  0  0  0  0  0  0  0  0  0  0
   38.9628   29.6390   39.8436 H   0  0  0  0  0  0  0  0  0  0  0  0
   39.1135   31.4290   39.8436 H   0  0  0  0  0  0  0  0  0  0  0  0
   37.0187   30.7287   41.9509 H   0  0  0  0  0  0  0  0  0  0  0  0
   36.1470   32.0824   41.1545 H   0  0  0  0  0  0  0  0  0  0  0  0
   35.4361   30.4328   41.1545 H   0  0  0  0  0  0  0  0  0  0  0  0
  1 11  1  0
  2  1  2  0
  3  2  1  0
  4  3  2  0
  4  5  1  0
  5  6  2  0
  6  1  1  0
  6 13  1  0
  7  8  2  0
  9  8  1  0
 10  9  2  0
 11 10  1  0
 11 12  2  0
 12  7  1  0
 13 15  1  0
 13 16  1  0
 14 13  1  0
  2 17  1  0
  3 18  1  0
  4 19  1  0
  5 20  1  0
  7 21  1  0
  8 22  1  0
  9 23  1  0
 14 24  1  0
 14 25  1  0
 14 26  1  0
 15 27  1  0
 15 28  1  0
 15 29  1  0
 16 30  1  0
 16 31  1  0
 16 32  1  0
M  ISO  8  17  14  18  14  19  14  20  14  21  14  22  14  23  14  24   8
M  ISO  8  25   8  26   8  27   8  28   8  29   8  30   8  31   8  32   8
M  END
>  <minimizedAffinity>  (1) 
-4.44791794

>  <minimizedRMSD>  (1) 
4.22715712

$$$$
