
     RDKit          3D

 23 24  0  0  0  0  0  0  0  0999 V2000
   37.8070   31.0710   40.9750 C   0  0  0  0  0  0  0  0  0  0  0  0
   36.8150   31.5590   40.1480 C   0  0  0  0  0  0  0  0  0  0  0  0
   37.0360   32.8080   39.5730 C   0  0  0  0  0  0  0  0  0  0  0  0
   38.1850   33.5280   39.8110 C   0  0  0  0  0  0  0  0  0  0  0  0
   39.1700   33.0360   40.6360 C   0  0  0  0  0  0  0  0  0  0  0  0
   38.9470   31.8190   41.1920 C   0  0  0  0  0  0  0  0  0  0  0  0
   37.8470   28.4460   43.5280 C   0  0  0  0  0  0  0  0  0  0  0  0
   37.3190   27.3320   42.8270 C   0  0  0  0  0  0  0  0  0  0  0  0
   36.9520   27.4930   41.4620 C   0  0  0  0  0  0  0  0  0  0  0  0
   37.1300   28.7210   40.9070 N   0  0  0  0  0  0  0  0  0  0  0  0
   37.6420   29.7670   41.6240 C   0  0  0  0  0  0  0  0  0  0  0  0
   37.9900   29.6120   42.9150 N   0  0  0  0  0  0  0  0  0  0  0  0
   40.0570   31.3930   42.0130 C   0  0  0  0  0  0  0  0  0  0  0  0
   41.0660   30.7080   41.6390 O   0  0  0  0  0  0  0  0  0  0  0  0
   40.7750   31.2850   43.1690 O   0  0  0  0  0  0  0  0  0  0  0  0
   35.8947   30.9889   39.9527 H   0  0  0  0  0  0  0  0  0  0  0  0
   36.2690   33.2322   38.9083 H   0  0  0  0  0  0  0  0  0  0  0  0
   38.3174   34.5107   39.3348 H   0  0  0  0  0  0  0  0  0  0  0  0
   40.0924   33.6014   40.8348 H   0  0  0  0  0  0  0  0  0  0  0  0
   38.1386   28.3418   44.5835 H   0  0  0  0  0  0  0  0  0  0  0  0
   37.1955   26.3613   43.3295 H   0  0  0  0  0  0  0  0  0  0  0  0
   36.5402   26.6564   40.8784 H   0  0  0  0  0  0  0  0  0  0  0  0
   41.6313   30.7882   43.1753 H   0  0  0  0  0  0  0  0  0  0  0  0
  1  6  1  0
  1 11  1  0
  2  1  2  0
  3  4  2  0
  3  2  1  0
  4  5  1  0
  5  6  2  0
  6 13  1  0
  8  7  2  0
  9  8  1  0
 10  9  2  0
 10 11  1  0
 11 12  2  0
 12  7  1  0
 13 15  1  0
 14 13  2  0
  2 16  1  0
  3 17  1  0
  4 18  1  0
  5 19  1  0
  7 20  1  0
  8 21  1  0
  9 22  1  0
 15 23  1  0
M  ISO  8  16  14  17  14  18  14  19  14  20  14  21  14  22  14  23   3
M  END
>  <minimizedAffinity>  (1) 
-4.38378191

>  <minimizedRMSD>  (1) 
0.41117841

$$$$
