
     RDKit          3D

 27 29  0  0  0  0  0  0  0  0999 V2000
   37.9000   30.7200   41.1190 C   0  0  0  0  0  0  0  0  0  0  0  0
   36.8180   31.3440   40.4890 C   0  0  0  0  0  0  0  0  0  0  0  0
   37.0020   32.5810   39.9330 C   0  0  0  0  0  0  0  0  0  0  0  0
   38.2540   33.1800   40.0120 C   0  0  0  0  0  0  0  0  0  0  0  0
   39.3170   32.5550   40.6380 C   0  0  0  0  0  0  0  0  0  0  0  0
   39.1410   31.3260   41.1920 C   0  0  0  0  0  0  0  0  0  0  0  0
   37.3410   28.1470   43.6630 C   0  0  0  0  0  0  0  0  0  0  0  0
   37.1780   26.9720   42.9120 C   0  0  0  0  0  0  0  0  0  0  0  0
   37.2640   27.0720   41.5220 C   0  0  0  0  0  0  0  0  0  0  0  0
   37.5000   28.2810   40.9590 N   0  0  0  0  0  0  0  0  0  0  0  0
   37.6540   29.3900   41.7080 C   0  0  0  0  0  0  0  0  0  0  0  0
   37.5740   29.3190   43.0570 N   0  0  0  0  0  0  0  0  0  0  0  0
   40.2740   30.6360   41.8580 C   0  0  0  0  0  0  0  0  0  0  0  0
   41.2370   30.9460   42.8130 C   0  0  0  0  0  0  0  0  0  0  0  0
   41.9940   29.8610   42.9820 N   0  0  0  0  0  0  0  0  0  0  0  0
   41.5440   28.8730   42.1700 C   0  0  0  0  0  0  0  0  0  0  0  0
   40.5060   29.3350   41.4880 N   0  0  0  0  0  0  0  0  0  0  0  0
   35.8367   30.8492   40.4413 H   0  0  0  0  0  0  0  0  0  0  0  0
   36.1696   33.0948   39.4299 H   0  0  0  0  0  0  0  0  0  0  0  0
   38.4026   34.1745   39.5661 H   0  0  0  0  0  0  0  0  0  0  0  0
   40.2986   33.0490   40.6874 H   0  0  0  0  0  0  0  0  0  0  0  0
   37.2767   28.1049   44.7603 H   0  0  0  0  0  0  0  0  0  0  0  0
   36.9890   26.0055   43.4020 H   0  0  0  0  0  0  0  0  0  0  0  0
   37.1415   26.1791   40.8914 H   0  0  0  0  0  0  0  0  0  0  0  0
   41.3527   31.9085   43.3328 H   0  0  0  0  0  0  0  0  0  0  0  0
   41.9680   27.8611   42.0908 H   0  0  0  0  0  0  0  0  0  0  0  0
   39.9618   28.8040   40.7932 H   0  0  0  0  0  0  0  0  0  0  0  0
  1  6  1  0
  1 11  1  0
  2  1  2  0
  3  4  2  0
  3  2  1  0
  4  5  1  0
  5  6  2  0
  6 13  1  0
  8  7  2  0
  9  8  1  0
 10  9  2  0
 10 11  1  0
 11 12  2  0
 12  7  1  0
 13 14  2  0
 14 15  1  0
 16 15  2  0
 17 13  1  0
 17 16  1  0
  2 18  1  0
  3 19  1  0
  4 20  1  0
  5 21  1  0
  7 22  1  0
  8 23  1  0
  9 24  1  0
 14 25  1  0
 16 26  1  0
 17 27  1  0
M  ISO  8  18  14  19  14  20  14  21  14  22  14  23  14  24  14  25  14
M  ISO  2  26  14  27   9
M  END
>  <minimizedAffinity>  (1) 
-4.3632226

>  <minimizedRMSD>  (1) 
0.995536983

$$$$
