
     RDKit          3D

 21 22  0  0  0  0  0  0  0  0999 V2000
   38.1290   31.1360   40.9260 C   0  0  0  0  0  0  0  0  0  0  0  0
   37.1610   31.4050   39.9600 C   0  0  0  0  0  0  0  0  0  0  0  0
   37.0920   32.6720   39.4190 C   0  0  0  0  0  0  0  0  0  0  0  0
   38.0080   33.6370   39.8730 C   0  0  0  0  0  0  0  0  0  0  0  0
   38.9660   33.3630   40.8310 C   0  0  0  0  0  0  0  0  0  0  0  0
   39.0280   32.1080   41.3610 C   0  0  0  0  0  0  0  0  0  0  0  0
   38.1370   28.4110   43.3680 C   0  0  0  0  0  0  0  0  0  0  0  0
   38.2610   27.2560   42.5550 C   0  0  0  0  0  0  0  0  0  0  0  0
   38.3410   27.4180   41.1610 C   0  0  0  0  0  0  0  0  0  0  0  0
   38.2950   28.6810   40.6830 N   0  0  0  0  0  0  0  0  0  0  0  0
   38.1760   29.7710   41.4860 C   0  0  0  0  0  0  0  0  0  0  0  0
   38.0970   29.6340   42.8300 N   0  0  0  0  0  0  0  0  0  0  0  0
   39.9580   31.7250   42.3370 O   0  0  0  0  0  0  0  0  0  0  0  0
   36.4632   30.6195   39.6342 H   0  0  0  0  0  0  0  0  0  0  0  0
   36.3415   32.9203   38.6540 H   0  0  0  0  0  0  0  0  0  0  0  0
   37.9604   34.6508   39.4488 H   0  0  0  0  0  0  0  0  0  0  0  0
   39.6668   34.1443   41.1604 H   0  0  0  0  0  0  0  0  0  0  0  0
   38.0726   28.2987   44.4604 H   0  0  0  0  0  0  0  0  0  0  0  0
   38.2939   26.2533   43.0061 H   0  0  0  0  0  0  0  0  0  0  0  0
   38.4370   26.5533   40.4879 H   0  0  0  0  0  0  0  0  0  0  0  0
   40.6169   32.3808   42.6773 H   0  0  0  0  0  0  0  0  0  0  0  0
  1  6  1  0
  1 11  1  0
  2  1  2  0
  3  4  2  0
  3  2  1  0
  4  5  1  0
  5  6  2  0
  6 13  1  0
  8  7  2  0
  9  8  1  0
 10  9  2  0
 10 11  1  0
 11 12  2  0
 12  7  1  0
  2 14  1  0
  3 15  1  0
  4 16  1  0
  5 17  1  0
  7 18  1  0
  8 19  1  0
  9 20  1  0
 13 21  1  0
M  ISO  8  14  14  15  14  16  14  17  14  18  14  19  14  20  14  21   3
M  END
>  <minimizedAffinity>  (1) 
-4.14316463

>  <minimizedRMSD>  (1) 
0.970543981

$$$$
