
     RDKit          3D

 21 22  0  0  0  0  0  0  0  0999 V2000
   37.9910   31.1760   40.8140 C   0  0  0  0  0  0  0  0  0  0  0  0
   36.9980   31.7340   39.9980 C   0  0  0  0  0  0  0  0  0  0  0  0
   37.1450   33.0450   39.6040 C   0  0  0  0  0  0  0  0  0  0  0  0
   38.2700   33.7530   40.0350 C   0  0  0  0  0  0  0  0  0  0  0  0
   39.2440   33.1900   40.8400 C   0  0  0  0  0  0  0  0  0  0  0  0
   39.1160   31.8940   41.2390 C   0  0  0  0  0  0  0  0  0  0  0  0
   37.0420   28.2930   42.8550 C   0  0  0  0  0  0  0  0  0  0  0  0
   37.4190   27.1830   42.0580 C   0  0  0  0  0  0  0  0  0  0  0  0
   38.0140   27.4450   40.7900 C   0  0  0  0  0  0  0  0  0  0  0  0
   38.1830   28.7430   40.4220 N   0  0  0  0  0  0  0  0  0  0  0  0
   37.8040   29.7580   41.2220 C   0  0  0  0  0  0  0  0  0  0  0  0
   37.2360   29.5360   42.4320 N   0  0  0  0  0  0  0  0  0  0  0  0
   40.3160   31.0770   42.2780 S   0  0  0  0  0  0  0  0  0  0  0  0
   36.1266   31.1420   39.6815 H   0  0  0  0  0  0  0  0  0  0  0  0
   36.3917   33.5257   38.9625 H   0  0  0  0  0  0  0  0  0  0  0  0
   38.3858   34.8009   39.7213 H   0  0  0  0  0  0  0  0  0  0  0  0
   40.1145   33.7840   41.1552 H   0  0  0  0  0  0  0  0  0  0  0  0
   36.5816   28.1215   43.8392 H   0  0  0  0  0  0  0  0  0  0  0  0
   37.2574   26.1525   42.4072 H   0  0  0  0  0  0  0  0  0  0  0  0
   38.3268   26.6229   40.1295 H   0  0  0  0  0  0  0  0  0  0  0  0
   40.0016   31.2911   43.5941 H   0  0  0  0  0  0  0  0  0  0  0  0
  1 11  1  0
  1  6  1  0
  2  1  2  0
  3  2  1  0
  3  4  2  0
  4  5  1  0
  5  6  2  0
  6 13  1  0
  8  7  2  0
  9  8  1  0
 10  9  2  0
 10 11  1  0
 11 12  2  0
 12  7  1  0
  2 14  1  0
  3 15  1  0
  4 16  1  0
  5 17  1  0
  7 18  1  0
  8 19  1  0
  9 20  1  0
 13 21  1  0
M  ISO  8  14  14  15  14  16  14  17  14  18  14  19  14  20  14  21  11
M  END
>  <minimizedAffinity>  (1) 
-3.98069334

>  <minimizedRMSD>  (1) 
0.973500669

$$$$
