
     RDKit          3D

 41 44  0  0  1  0  0  0  0  0999 V2000
   39.2360   33.7510   39.8730 C   0  0  0  0  0  0  0  0  0  0  0  0
   38.8790   34.8840   40.5560 C   0  0  0  0  0  0  0  0  0  0  0  0
   39.7810   35.9400   40.5980 C   0  0  0  0  0  0  0  0  0  0  0  0
   41.0010   35.8120   39.9530 C   0  0  0  0  0  0  0  0  0  0  0  0
   41.3350   34.6570   39.2700 C   0  0  0  0  0  0  0  0  0  0  0  0
   40.4650   33.6190   39.2230 C   0  0  0  0  0  0  0  0  0  0  0  0
   40.9840   32.5160   38.5180 N   0  0  0  0  0  0  0  0  0  0  0  0
   41.3140   32.2120   37.1350 C   0  0  0  0  0  0  0  0  0  0  0  0
   42.5280   31.4100   36.9010 C   0  0  0  0  0  0  0  0  0  0  0  0
   42.9000   30.6020   38.0480 N   0  0  0  0  0  0  0  0  0  0  0  0
   41.7130   30.2510   38.7790 C   0  0  0  0  0  0  0  0  0  0  0  0
   41.1920   31.4680   39.4920 C   0  0  1  0  0  0  0  0  0  0  0  0
   41.8730   31.7690   40.6890 N   0  0  0  0  0  0  0  0  0  0  0  0
   42.9790   32.4540   41.1100 C   0  0  0  0  0  0  0  0  0  0  0  0
   43.1220   32.4060   42.4810 C   0  0  0  0  0  0  0  0  0  0  0  0
   42.0830   31.6750   42.9230 N   0  0  0  0  0  0  0  0  0  0  0  0
   41.3310   31.2910   41.8520 C   0  0  0  0  0  0  0  0  0  0  0  0
   37.0050   31.0230   40.8780 C   0  0  0  0  0  0  0  0  0  0  0  0
   36.4590   30.5680   39.6740 C   0  0  0  0  0  0  0  0  0  0  0  0
   36.8690   31.2140   38.5100 C   0  0  0  0  0  0  0  0  0  0  0  0
   37.7500   32.2150   38.6470 N   0  0  0  0  0  0  0  0  0  0  0  0
   38.2700   32.6460   39.8140 C   0  0  0  0  0  0  0  0  0  0  0  0
   37.8740   32.0280   40.8970 N   0  0  0  0  0  0  0  0  0  0  0  0
   37.9030   34.9557   41.0583 H   0  0  0  0  0  0  0  0  0  0  0  0
   39.5300   36.8658   41.1363 H   0  0  0  0  0  0  0  0  0  0  0  0
   41.7178   36.6457   39.9850 H   0  0  0  0  0  0  0  0  0  0  0  0
   42.3087   34.5806   38.7639 H   0  0  0  0  0  0  0  0  0  0  0  0
   40.4643   31.6627   36.7034 H   0  0  0  0  0  0  0  0  0  0  0  0
   41.5191   33.1865   36.6678 H   0  0  0  0  0  0  0  0  0  0  0  0
   42.3486   30.7430   36.0449 H   0  0  0  0  0  0  0  0  0  0  0  0
   43.3543   32.1099   36.7079 H   0  0  0  0  0  0  0  0  0  0  0  0
   43.3741   29.7455   37.7277 H   0  0  0  0  0  0  0  0  0  0  0  0
   40.9485   29.8780   38.0816 H   0  0  0  0  0  0  0  0  0  0  0  0
   41.9499   29.4665   39.5128 H   0  0  0  0  0  0  0  0  0  0  0  0
   40.1982   31.2810   39.9250 H   0  0  0  0  0  0  0  0  0  0  0  0
   43.6714   32.9801   40.4363 H   0  0  0  0  0  0  0  0  0  0  0  0
   43.9171   32.8676   43.0849 H   0  0  0  0  0  0  0  0  0  0  0  0
   40.4168   30.6823   41.9138 H   0  0  0  0  0  0  0  0  0  0  0  0
   36.7111   30.5423   41.8227 H   0  0  0  0  0  0  0  0  0  0  0  0
   35.7383   29.7375   39.6471 H   0  0  0  0  0  0  0  0  0  0  0  0
   36.4869   30.9160   37.5225 H   0  0  0  0  0  0  0  0  0  0  0  0
  1  2  2  0
  2  3  1  0
  4  3  2  0
  5  4  1  0
  6  5  2  0
  6  1  1  0
  7  6  1  0
  7 12  1  0
  8  7  1  0
  9  8  1  0
  9 10  1  0
 10 11  1  0
 11 12  1  0
 12 13  1  0
 13 14  1  0
 13 17  1  0
 14 15  2  0
 15 16  1  0
 17 16  2  0
 18 23  2  0
 19 18  1  0
 20 21  1  0
 20 19  2  0
 21 22  2  0
 22  1  1  0
 22 23  1  0
  2 24  1  0
  3 25  1  0
  4 26  1  0
  5 27  1  0
  8 28  1  0
  8 29  1  0
  9 30  1  0
  9 31  1  0
 10 32  1  0
 11 33  1  0
 11 34  1  0
 12 35  1  1
 14 36  1  0
 15 37  1  0
 17 38  1  0
 18 39  1  0
 19 40  1  0
 20 41  1  0
M  ISO  8  24  14  25  14  26  14  27  14  28  13  29  13  30  13  31  13
M  ISO  8  32   5  33  13  34  13  35  13  36  14  37  14  38  14  39  14
M  ISO  2  40  14  41  14
M  END
>  <minimizedAffinity>  (1) 
-5.33973503

>  <minimizedRMSD>  (1) 
4.13093758

$$$$
