
     RDKit          3D

 40 42  0  0  1  0  0  0  0  0999 V2000
   37.4480   30.5170   40.3830 C   0  0  0  0  0  0  0  0  0  0  0  0
   37.6070   31.8870   40.3720 C   0  0  0  0  0  0  0  0  0  0  0  0
   38.6870   32.4280   41.0630 C   0  0  0  0  0  0  0  0  0  0  0  0
   39.5570   31.5860   41.7280 C   0  0  0  0  0  0  0  0  0  0  0  0
   39.3850   30.2150   41.7300 C   0  0  0  0  0  0  0  0  0  0  0  0
   38.3340   29.6800   41.0620 C   0  0  0  0  0  0  0  0  0  0  0  0
   38.2890   28.2700   41.2110 N   0  0  0  0  0  0  0  0  0  0  0  0
   38.8490   27.1300   40.5010 C   0  0  0  0  0  0  0  0  0  0  0  0
   39.2890   25.9880   41.3350 C   0  0  0  0  0  0  0  0  0  0  0  0
   38.6340   25.9410   42.6340 N   0  0  0  0  0  0  0  0  0  0  0  0
   37.3210   26.5130   42.4990 C   0  0  0  0  0  0  0  0  0  0  0  0
   37.4520   28.0060   42.3510 C   0  0  1  0  0  0  0  0  0  0  0  0
   37.6880   28.7100   43.6170 C   0  0  0  0  0  0  0  0  0  0  0  0
   36.6930   28.0730   44.6350 C   0  0  0  0  0  0  0  0  0  0  0  0
   34.1760   29.0980   39.5820 C   0  0  0  0  0  0  0  0  0  0  0  0
   34.2400   28.8510   38.2150 C   0  0  0  0  0  0  0  0  0  0  0  0
   35.4250   29.1800   37.5620 C   0  0  0  0  0  0  0  0  0  0  0  0
   36.4000   29.7060   38.3140 N   0  0  0  0  0  0  0  0  0  0  0  0
   36.3310   29.9430   39.6410 C   0  0  0  0  0  0  0  0  0  0  0  0
   35.2070   29.6260   40.2340 N   0  0  0  0  0  0  0  0  0  0  0  0
   36.8999   32.5339   39.8321 H   0  0  0  0  0  0  0  0  0  0  0  0
   38.8464   33.5163   41.0795 H   0  0  0  0  0  0  0  0  0  0  0  0
   40.4102   32.0188   42.2709 H   0  0  0  0  0  0  0  0  0  0  0  0
   40.0922   29.5658   42.2670 H   0  0  0  0  0  0  0  0  0  0  0  0
   38.0826   26.7601   39.8040 H   0  0  0  0  0  0  0  0  0  0  0  0
   39.7613   27.5067   40.0155 H   0  0  0  0  0  0  0  0  0  0  0  0
   39.0653   25.0552   40.7966 H   0  0  0  0  0  0  0  0  0  0  0  0
   40.3668   26.1118   41.5166 H   0  0  0  0  0  0  0  0  0  0  0  0
   38.5573   24.9637   42.9502 H   0  0  0  0  0  0  0  0  0  0  0  0
   36.8262   26.0958   41.6096 H   0  0  0  0  0  0  0  0  0  0  0  0
   36.7189   26.2782   43.3892 H   0  0  0  0  0  0  0  0  0  0  0  0
   36.4934   28.4859   42.1046 H   0  0  0  0  0  0  0  0  0  0  0  0
   38.7260   28.5648   43.9507 H   0  0  0  0  0  0  0  0  0  0  0  0
   37.5340   29.7946   43.5175 H   0  0  0  0  0  0  0  0  0  0  0  0
   37.0292   28.2882   45.6600 H   0  0  0  0  0  0  0  0  0  0  0  0
   35.6897   28.4971   44.4815 H   0  0  0  0  0  0  0  0  0  0  0  0
   36.6582   26.9843   44.4815 H   0  0  0  0  0  0  0  0  0  0  0  0
   33.2564   28.8522   40.1332 H   0  0  0  0  0  0  0  0  0  0  0  0
   33.3893   28.4136   37.6718 H   0  0  0  0  0  0  0  0  0  0  0  0
   35.5537   29.0159   36.4820 H   0  0  0  0  0  0  0  0  0  0  0  0
  1  6  1  0
  2  1  2  0
  2  3  1  0
  3  4  2  0
  4  5  1  0
  6  7  1  0
  6  5  2  0
  7 12  1  0
  8  7  1  0
  8  9  1  0
  9 10  1  0
 11 10  1  0
 12 11  1  0
 12 13  1  0
 13 14  1  0
 15 20  2  0
 16 15  1  0
 17 16  2  0
 17 18  1  0
 18 19  2  0
 19 20  1  0
 19  1  1  0
  2 21  1  0
  3 22  1  0
  4 23  1  0
  5 24  1  0
  8 25  1  0
  8 26  1  0
  9 27  1  0
  9 28  1  0
 10 29  1  0
 11 30  1  0
 11 31  1  0
 12 32  1  6
 13 33  1  0
 13 34  1  0
 14 35  1  0
 14 36  1  0
 14 37  1  0
 15 38  1  0
 16 39  1  0
 17 40  1  0
M  ISO  8  21  14  22  14  23  14  24  14  25  13  26  13  27  13  28  13
M  ISO  8  29   5  30  13  31  13  32  13  33   8  34   8  35   8  36   8
M  ISO  4  37   8  38  14  39  14  40  14
M  END
>  <minimizedAffinity>  (1) 
-5.05932236

>  <minimizedRMSD>  (1) 
1.71582413

$$$$
