
     RDKit          3D

 36 38  0  0  1  0  0  0  0  0999 V2000
   37.2950   31.2960   39.8470 C   0  0  0  0  0  0  0  0  0  0  0  0
   37.1740   32.6410   39.5970 C   0  0  0  0  0  0  0  0  0  0  0  0
   38.0800   33.5110   40.1770 C   0  0  0  0  0  0  0  0  0  0  0  0
   39.0770   33.0030   40.9860 C   0  0  0  0  0  0  0  0  0  0  0  0
   39.1940   31.6460   41.2350 C   0  0  0  0  0  0  0  0  0  0  0  0
   38.2890   30.7870   40.6560 C   0  0  0  0  0  0  0  0  0  0  0  0
   38.5560   29.4420   41.0260 N   0  0  0  0  0  0  0  0  0  0  0  0
   39.1700   28.2860   40.4510 C   0  0  0  0  0  0  0  0  0  0  0  0
   39.9600   27.4190   41.3580 C   0  0  0  0  0  0  0  0  0  0  0  0
   39.5520   27.5260   42.7440 N   0  0  0  0  0  0  0  0  0  0  0  0
   38.1340   27.8650   42.7940 C   0  0  0  0  0  0  0  0  0  0  0  0
   38.0230   29.2920   42.3710 C   0  0  2  0  0  0  0  0  0  0  0  0
   36.7880   29.9140   42.6400 N   0  0  0  0  0  0  0  0  0  0  0  0
   34.4720   28.9990   39.4020 C   0  0  0  0  0  0  0  0  0  0  0  0
   34.5320   28.6440   38.0590 C   0  0  0  0  0  0  0  0  0  0  0  0
   35.5610   29.2070   37.3060 C   0  0  0  0  0  0  0  0  0  0  0  0
   36.4030   30.0410   37.9360 N   0  0  0  0  0  0  0  0  0  0  0  0
   36.3430   30.3820   39.2330 C   0  0  0  0  0  0  0  0  0  0  0  0
   35.3630   29.8310   39.9000 N   0  0  0  0  0  0  0  0  0  0  0  0
   36.3712   33.0197   38.9473 H   0  0  0  0  0  0  0  0  0  0  0  0
   38.0070   34.5935   39.9960 H   0  0  0  0  0  0  0  0  0  0  0  0
   39.7980   33.6953   41.4452 H   0  0  0  0  0  0  0  0  0  0  0  0
   39.9954   31.2622   41.8835 H   0  0  0  0  0  0  0  0  0  0  0  0
   38.3708   27.6685   40.0152 H   0  0  0  0  0  0  0  0  0  0  0  0
   39.8992   28.6809   39.7283 H   0  0  0  0  0  0  0  0  0  0  0  0
   39.8388   26.3739   41.0370 H   0  0  0  0  0  0  0  0  0  0  0  0
   41.0075   27.7493   41.2978 H   0  0  0  0  0  0  0  0  0  0  0  0
   39.7097   26.6270   43.2213 H   0  0  0  0  0  0  0  0  0  0  0  0
   37.5649   27.2202   42.1081 H   0  0  0  0  0  0  0  0  0  0  0  0
   37.7256   27.7173   43.8046 H   0  0  0  0  0  0  0  0  0  0  0  0
   38.6625   29.8957   43.0317 H   0  0  0  0  0  0  0  0  0  0  0  0
   36.6526   29.9822   43.6588 H   0  0  0  0  0  0  0  0  0  0  0  0
   36.7825   30.8584   42.2289 H   0  0  0  0  0  0  0  0  0  0  0  0
   33.6823   28.5859   40.0468 H   0  0  0  0  0  0  0  0  0  0  0  0
   33.8026   27.9523   37.6123 H   0  0  0  0  0  0  0  0  0  0  0  0
   35.6784   28.9767   36.2368 H   0  0  0  0  0  0  0  0  0  0  0  0
  1  6  1  0
  2  1  2  0
  2  3  1  0
  3  4  2  0
  4  5  1  0
  6  7  1  0
  6  5  2  0
  7 12  1  0
  8  7  1  0
  8  9  1  0
  9 10  1  0
 10 11  1  0
 12 13  1  0
 12 11  1  0
 14 19  2  0
 15 14  1  0
 16 17  1  0
 16 15  2  0
 17 18  2  0
 18  1  1  0
 18 19  1  0
  2 20  1  0
  3 21  1  0
  4 22  1  0
  5 23  1  0
  8 24  1  0
  8 25  1  0
  9 26  1  0
  9 27  1  0
 10 28  1  0
 11 29  1  0
 11 30  1  0
 12 31  1  1
 13 32  1  0
 13 33  1  0
 14 34  1  0
 15 35  1  0
 16 36  1  0
M  ISO  8  20  14  21  14  22  14  23  14  24  13  25  13  26  13  27  13
M  ISO  8  28   5  29  13  30  13  31  13  32   5  33   5  34  14  35  14
M  ISO  1  36  14
M  END
>  <minimizedAffinity>  (1) 
-5.03382349

>  <minimizedRMSD>  (1) 
0.468528509

$$$$
