
     RDKit          3D

 46 49  0  0  1  0  0  0  0  0999 V2000
   38.0770   27.6980   38.8200 N   0  0  0  0  0  0  0  0  0  0  0  0
   38.7020   26.4890   38.3280 C   0  0  0  0  0  0  0  0  0  0  0  0
   39.9590   26.6330   37.5760 C   0  0  0  0  0  0  0  0  0  0  0  0
   40.6620   27.8570   37.8840 N   0  0  0  0  0  0  0  0  0  0  0  0
   40.3870   28.2510   39.2610 C   0  0  0  0  0  0  0  0  0  0  0  0
   38.9660   28.7210   39.3070 C   0  0  1  0  0  0  0  0  0  0  0  0
   36.0840   28.4680   40.1730 C   0  0  0  0  0  0  0  0  0  0  0  0
   34.8060   28.9920   40.1800 C   0  0  0  0  0  0  0  0  0  0  0  0
   34.2010   29.2540   38.9620 C   0  0  0  0  0  0  0  0  0  0  0  0
   34.8890   28.9840   37.7820 C   0  0  0  0  0  0  0  0  0  0  0  0
   36.1720   28.4570   37.8030 C   0  0  0  0  0  0  0  0  0  0  0  0
   36.7740   28.1980   38.9890 C   0  0  0  0  0  0  0  0  0  0  0  0
   37.6490   28.9090   43.4460 C   0  0  0  0  0  0  0  0  0  0  0  0
   37.9040   27.6040   43.8830 C   0  0  0  0  0  0  0  0  0  0  0  0
   37.5270   26.5690   43.0310 C   0  0  0  0  0  0  0  0  0  0  0  0
   36.9560   26.9140   41.8700 N   0  0  0  0  0  0  0  0  0  0  0  0
   36.7140   28.1770   41.4580 C   0  0  0  0  0  0  0  0  0  0  0  0
   37.0740   29.1370   42.2710 N   0  0  0  0  0  0  0  0  0  0  0  0
   38.7730   30.0540   38.9090 N   0  0  0  0  0  0  0  0  0  0  0  0
   39.4890   30.4630   37.7270 C   0  0  0  0  0  0  0  0  0  0  0  0
   39.4550   31.9870   37.7410 C   0  0  0  0  0  0  0  0  0  0  0  0
   39.5780   32.2550   39.2260 C   0  0  0  0  0  0  0  0  0  0  0  0
   39.1330   31.0010   39.9460 C   0  0  0  0  0  0  0  0  0  0  0  0
   38.9094   25.8477   39.1973 H   0  0  0  0  0  0  0  0  0  0  0  0
   37.9856   26.0781   37.6015 H   0  0  0  0  0  0  0  0  0  0  0  0
   39.7277   26.6223   36.5006 H   0  0  0  0  0  0  0  0  0  0  0  0
   40.6127   25.7961   37.8628 H   0  0  0  0  0  0  0  0  0  0  0  0
   41.6745   27.7088   37.7664 H   0  0  0  0  0  0  0  0  0  0  0  0
   40.5225   27.3915   39.9340 H   0  0  0  0  0  0  0  0  0  0  0  0
   41.0740   29.0462   39.5862 H   0  0  0  0  0  0  0  0  0  0  0  0
   38.6539   28.8417   40.3549 H   0  0  0  0  0  0  0  0  0  0  0  0
   34.2835   29.1955   41.1263 H   0  0  0  0  0  0  0  0  0  0  0  0
   33.1843   29.6724   38.9271 H   0  0  0  0  0  0  0  0  0  0  0  0
   34.4065   29.1923   36.8157 H   0  0  0  0  0  0  0  0  0  0  0  0
   36.6990   28.2500   36.8599 H   0  0  0  0  0  0  0  0  0  0  0  0
   37.9292   29.7588   44.0858 H   0  0  0  0  0  0  0  0  0  0  0  0
   38.3802   27.4051   44.8545 H   0  0  0  0  0  0  0  0  0  0  0  0
   37.6910   25.5150   43.2998 H   0  0  0  0  0  0  0  0  0  0  0  0
   40.5271   30.1008   37.7611 H   0  0  0  0  0  0  0  0  0  0  0  0
   39.0375   30.0519   36.8121 H   0  0  0  0  0  0  0  0  0  0  0  0
   40.2980   32.4167   37.1801 H   0  0  0  0  0  0  0  0  0  0  0  0
   38.5652   32.4289   37.2687 H   0  0  0  0  0  0  0  0  0  0  0  0
   40.6226   32.4858   39.4819 H   0  0  0  0  0  0  0  0  0  0  0  0
   38.9579   33.1146   39.5200 H   0  0  0  0  0  0  0  0  0  0  0  0
   38.2648   31.2153   40.5866 H   0  0  0  0  0  0  0  0  0  0  0  0
   39.9271   30.6053   40.5963 H   0  0  0  0  0  0  0  0  0  0  0  0
  1 12  1  0
  1  6  1  0
  2  1  1  0
  3  4  1  0
  3  2  1  0
  4  5  1  0
  5  6  1  0
  7  8  2  0
  7 17  1  0
  9  8  1  0
 10 11  1  0
 10  9  2  0
 11 12  2  0
 12  7  1  0
 13 14  2  0
 15 14  1  0
 16 15  2  0
 17 16  1  0
 17 18  2  0
 18 13  1  0
 19 20  1  0
 19  6  1  0
 19 23  1  0
 20 21  1  0
 21 22  1  0
 22 23  1  0
  2 24  1  0
  2 25  1  0
  3 26  1  0
  3 27  1  0
  4 28  1  0
  5 29  1  0
  5 30  1  0
  6 31  1  1
  8 32  1  0
  9 33  1  0
 10 34  1  0
 11 35  1  0
 13 36  1  0
 14 37  1  0
 15 38  1  0
 20 39  1  0
 20 40  1  0
 21 41  1  0
 21 42  1  0
 22 43  1  0
 22 44  1  0
 23 45  1  0
 23 46  1  0
M  ISO  8  24  13  25  13  26  13  27  13  28   5  29  13  30  13  31  13
M  ISO  8  32  14  33  14  34  14  35  14  36  14  37  14  38  14  39  13
M  ISO  7  40  13  41  13  42  13  43  13  44  13  45  13  46  13
M  END
>  <minimizedAffinity>  (1) 
-4.65281963

>  <minimizedRMSD>  (1) 
4.92426586

$$$$
