
     RDKit          3D

 36 37  0  0  1  0  0  0  0  0999 V2000
   39.6660   29.5550   42.7090 N   0  0  0  0  0  0  0  0  0  0  0  0
   39.8020   30.9900   42.6500 C   0  0  0  0  0  0  0  0  0  0  0  0
   40.9410   31.2230   41.6880 C   0  0  0  0  0  0  0  0  0  0  0  0
   42.1360   30.8150   42.3170 N   0  0  0  0  0  0  0  0  0  0  0  0
   42.1110   29.5410   42.9540 C   0  0  0  0  0  0  0  0  0  0  0  0
   40.8450   28.7590   42.8920 C   0  0  2  0  0  0  0  0  0  0  0  0
   38.4130   28.8920   42.5980 C   0  0  0  0  0  0  0  0  0  0  0  0
   37.8870   28.1270   43.6310 C   0  0  0  0  0  0  0  0  0  0  0  0
   36.6690   27.4940   43.4630 C   0  0  0  0  0  0  0  0  0  0  0  0
   36.0470   27.6680   42.2610 N   0  0  0  0  0  0  0  0  0  0  0  0
   36.5820   28.4160   41.2800 C   0  0  0  0  0  0  0  0  0  0  0  0
   37.7680   29.0480   41.4090 N   0  0  0  0  0  0  0  0  0  0  0  0
   41.0310   27.5960   41.9860 C   0  0  0  0  0  0  0  0  0  0  0  0
   42.4710   27.2180   41.7510 C   0  0  0  0  0  0  0  0  0  0  0  0
   40.3570   27.6830   40.6450 C   0  0  0  0  0  0  0  0  0  0  0  0
   40.3920   26.3930   42.6750 C   0  0  0  0  0  0  0  0  0  0  0  0
   38.8768   31.4531   42.2764 H   0  0  0  0  0  0  0  0  0  0  0  0
   39.9927   31.4328   43.6387 H   0  0  0  0  0  0  0  0  0  0  0  0
   41.0003   32.2911   41.4319 H   0  0  0  0  0  0  0  0  0  0  0  0
   40.7821   30.6494   40.7629 H   0  0  0  0  0  0  0  0  0  0  0  0
   42.8760   30.7933   41.6008 H   0  0  0  0  0  0  0  0  0  0  0  0
   42.8986   28.9276   42.4921 H   0  0  0  0  0  0  0  0  0  0  0  0
   42.2480   29.7626   44.0227 H   0  0  0  0  0  0  0  0  0  0  0  0
   40.6267   28.3352   43.8833 H   0  0  0  0  0  0  0  0  0  0  0  0
   38.4367   28.0251   44.5784 H   0  0  0  0  0  0  0  0  0  0  0  0
   36.2233   26.8801   44.2596 H   0  0  0  0  0  0  0  0  0  0  0  0
   36.0307   28.5171   40.3335 H   0  0  0  0  0  0  0  0  0  0  0  0
   42.9777   27.0850   42.7182 H   0  0  0  0  0  0  0  0  0  0  0  0
   42.5151   26.2779   41.1816 H   0  0  0  0  0  0  0  0  0  0  0  0
   42.9712   28.0153   41.1816 H   0  0  0  0  0  0  0  0  0  0  0  0
   39.2751   27.8226   40.7868 H   0  0  0  0  0  0  0  0  0  0  0  0
   40.7663   28.5358   40.0835 H   0  0  0  0  0  0  0  0  0  0  0  0
   40.5364   26.7543   40.0835 H   0  0  0  0  0  0  0  0  0  0  0  0
   40.4581   26.5174   43.7659 H   0  0  0  0  0  0  0  0  0  0  0  0
   39.3355   26.3187   42.3778 H   0  0  0  0  0  0  0  0  0  0  0  0
   40.9219   25.4760   42.3778 H   0  0  0  0  0  0  0  0  0  0  0  0
  1  6  1  0
  2  1  1  0
  3  4  1  0
  3  2  1  0
  4  5  1  0
  6  5  1  0
  7  1  1  0
  7  8  2  0
  9  8  1  0
 10  9  2  0
 11 12  2  0
 11 10  1  0
 12  7  1  0
 13 16  1  0
 13  6  1  0
 14 13  1  0
 15 13  1  0
  2 17  1  0
  2 18  1  0
  3 19  1  0
  3 20  1  0
  4 21  1  0
  5 22  1  0
  5 23  1  0
  6 24  1  1
  8 25  1  0
  9 26  1  0
 11 27  1  0
 14 28  1  0
 14 29  1  0
 14 30  1  0
 15 31  1  0
 15 32  1  0
 15 33  1  0
 16 34  1  0
 16 35  1  0
 16 36  1  0
M  ISO  8  17  13  18  13  19  13  20  13  21   5  22  13  23  13  24  13
M  ISO  8  25  14  26  14  27  14  28   8  29   8  30   8  31   8  32   8
M  ISO  4  33   8  34   8  35   8  36   8
M  END
>  <minimizedAffinity>  (1) 
-3.33235073

>  <minimizedRMSD>  (1) 
0.153114796

$$$$
