
     RDKit          3D

 28 31  0  0  0  0  0  0  0  0999 V2000
   37.7020   30.5150   41.4240 C   0  0  0  0  0  0  0  0  0  0  0  0
   36.7170   31.2460   40.8290 N   0  0  0  0  0  0  0  0  0  0  0  0
   37.2360   32.3170   40.2860 O   0  0  0  0  0  0  0  0  0  0  0  0
   38.5340   32.3280   40.4970 C   0  0  0  0  0  0  0  0  0  0  0  0
   38.8420   31.2140   41.2030 N   0  0  0  0  0  0  0  0  0  0  0  0
   39.4780   33.3160   40.0730 N   0  0  0  0  0  0  0  0  0  0  0  0
   39.6520   34.5540   40.6160 C   0  0  0  0  0  0  0  0  0  0  0  0
   40.6510   35.1730   39.9180 N   0  0  0  0  0  0  0  0  0  0  0  0
   41.0700   34.3180   38.9720 C   0  0  0  0  0  0  0  0  0  0  0  0
   42.0120   34.3210   37.9730 C   0  0  0  0  0  0  0  0  0  0  0  0
   42.2360   33.2920   37.1300 N   0  0  0  0  0  0  0  0  0  0  0  0
   41.5000   32.1460   37.2380 C   0  0  0  0  0  0  0  0  0  0  0  0
   40.5800   32.1300   38.2060 N   0  0  0  0  0  0  0  0  0  0  0  0
   40.3520   33.1460   39.0450 C   0  0  0  0  0  0  0  0  0  0  0  0
   37.1680   27.9000   43.9770 C   0  0  0  0  0  0  0  0  0  0  0  0
   36.7940   26.8140   43.1700 C   0  0  0  0  0  0  0  0  0  0  0  0
   36.7340   27.0010   41.7850 C   0  0  0  0  0  0  0  0  0  0  0  0
   37.0490   28.2490   41.2930 N   0  0  0  0  0  0  0  0  0  0  0  0
   37.4030   29.2680   42.1070 C   0  0  0  0  0  0  0  0  0  0  0  0
   37.4650   29.1000   43.4450 N   0  0  0  0  0  0  0  0  0  0  0  0
   42.8320   35.4520   37.7660 N   0  0  0  0  0  0  0  0  0  0  0  0
   39.0907   34.9778   41.4618 H   0  0  0  0  0  0  0  0  0  0  0  0
   41.6559   31.2878   36.5677 H   0  0  0  0  0  0  0  0  0  0  0  0
   37.2194   27.7673   45.0678 H   0  0  0  0  0  0  0  0  0  0  0  0
   36.5535   25.8380   43.6167 H   0  0  0  0  0  0  0  0  0  0  0  0
   36.4454   26.1802   41.1119 H   0  0  0  0  0  0  0  0  0  0  0  0
   43.5364   35.4468   37.0146 H   0  0  0  0  0  0  0  0  0  0  0  0
   42.7256   36.2821   38.3665 H   0  0  0  0  0  0  0  0  0  0  0  0
  1 19  1  0
  2  1  2  0
  3  4  1  0
  3  2  1  0
  4  5  2  0
  5  1  1  0
  6  4  1  0
  6  7  1  0
  8  7  2  0
  9 14  2  0
  9  8  1  0
 10  9  1  0
 11 12  1  0
 11 10  2  0
 12 13  2  0
 13 14  1  0
 14  6  1  0
 16 15  2  0
 17 16  1  0
 18 17  2  0
 18 19  1  0
 19 20  2  0
 20 15  1  0
 21 10  1  0
  7 22  1  0
 12 23  1  0
 15 24  1  0
 16 25  1  0
 17 26  1  0
 21 27  1  0
 21 28  1  0
M  ISO  5  22  14  23  14  24  14  25  14  26  14
M  END
>  <minimizedAffinity>  (1) 
-6.55887556

>  <minimizedRMSD>  (1) 
1.64659357

$$$$
