
     RDKit          3D

 31 34  0  0  0  0  0  0  0  0999 V2000
   37.6470   30.9300   41.1310 C   0  0  0  0  0  0  0  0  0  0  0  0
   36.7100   31.4010   40.2580 N   0  0  0  0  0  0  0  0  0  0  0  0
   37.1020   32.5270   39.7600 O   0  0  0  0  0  0  0  0  0  0  0  0
   38.2680   32.8470   40.2560 C   0  0  0  0  0  0  0  0  0  0  0  0
   38.6250   31.8670   41.1110 N   0  0  0  0  0  0  0  0  0  0  0  0
   39.2190   33.9630   40.1030 C   0  0  0  0  0  0  0  0  0  0  0  0
   39.1420   35.1580   40.7950 C   0  0  0  0  0  0  0  0  0  0  0  0
   40.0310   36.1880   40.6460 C   0  0  0  0  0  0  0  0  0  0  0  0
   41.0830   36.0750   39.7660 C   0  0  0  0  0  0  0  0  0  0  0  0
   41.2160   34.9100   39.0460 C   0  0  0  0  0  0  0  0  0  0  0  0
   42.2710   34.8510   38.1920 C   0  0  0  0  0  0  0  0  0  0  0  0
   42.4710   33.7170   37.4350 C   0  0  0  0  0  0  0  0  0  0  0  0
   41.5750   32.6720   37.5820 C   0  0  0  0  0  0  0  0  0  0  0  0
   40.5290   32.8030   38.4690 C   0  0  0  0  0  0  0  0  0  0  0  0
   40.2870   33.9100   39.2420 C   0  0  0  0  0  0  0  0  0  0  0  0
   37.7290   28.2450   43.6710 C   0  0  0  0  0  0  0  0  0  0  0  0
   37.0070   27.2480   42.9990 C   0  0  0  0  0  0  0  0  0  0  0  0
   36.5130   27.5060   41.7050 C   0  0  0  0  0  0  0  0  0  0  0  0
   36.7740   28.7450   41.1650 N   0  0  0  0  0  0  0  0  0  0  0  0
   37.4770   29.6720   41.8590 C   0  0  0  0  0  0  0  0  0  0  0  0
   37.9380   29.4150   43.0800 N   0  0  0  0  0  0  0  0  0  0  0  0
   38.3155   35.2887   41.5090 H   0  0  0  0  0  0  0  0  0  0  0  0
   39.9040   37.1101   41.2322 H   0  0  0  0  0  0  0  0  0  0  0  0
   41.8019   36.8981   39.6409 H   0  0  0  0  0  0  0  0  0  0  0  0
   42.9612   35.7031   38.1054 H   0  0  0  0  0  0  0  0  0  0  0  0
   43.3167   33.6444   36.7354 H   0  0  0  0  0  0  0  0  0  0  0  0
   41.6968   31.7481   36.9976 H   0  0  0  0  0  0  0  0  0  0  0  0
   39.8349   31.9551   38.5646 H   0  0  0  0  0  0  0  0  0  0  0  0
   38.1199   28.0584   44.6821 H   0  0  0  0  0  0  0  0  0  0  0  0
   36.8281   26.2739   43.4776 H   0  0  0  0  0  0  0  0  0  0  0  0
   35.9419   26.7481   41.1488 H   0  0  0  0  0  0  0  0  0  0  0  0
  1 20  1  0
  2  1  2  0
  3  4  1  0
  3  2  1  0
  4  5  2  0
  5  1  1  0
  6  4  1  0
  6  7  2  0
  8  7  1  0
  9  8  2  0
 10 15  2  0
 10  9  1  0
 11 10  1  0
 12 13  1  0
 12 11  2  0
 13 14  2  0
 14 15  1  0
 15  6  1  0
 17 16  2  0
 18 17  1  0
 19 18  2  0
 19 20  1  0
 20 21  2  0
 21 16  1  0
  7 22  1  0
  8 23  1  0
  9 24  1  0
 11 25  1  0
 12 26  1  0
 13 27  1  0
 14 28  1  0
 16 29  1  0
 17 30  1  0
 18 31  1  0
M  ISO  8  22  14  23  14  24  14  25  14  26  14  27  14  28  14  29  14
M  ISO  2  30  14  31  14
M  END
>  <minimizedAffinity>  (1) 
-6.38014841

>  <minimizedRMSD>  (1) 
2.21578264

$$$$
