
     RDKit          3D

 29 32  0  0  0  0  0  0  0  0999 V2000
   37.7560   30.7100   41.2710 C   0  0  0  0  0  0  0  0  0  0  0  0
   36.8340   31.4840   40.6440 N   0  0  0  0  0  0  0  0  0  0  0  0
   37.3600   32.6090   40.2880 O   0  0  0  0  0  0  0  0  0  0  0  0
   38.6270   32.6310   40.6570 C   0  0  0  0  0  0  0  0  0  0  0  0
   38.8800   31.4620   41.2640 N   0  0  0  0  0  0  0  0  0  0  0  0
   39.3860   33.8290   40.3380 C   0  0  0  0  0  0  0  0  0  0  0  0
   39.1810   35.0260   40.9140 N   0  0  0  0  0  0  0  0  0  0  0  0
   39.8860   36.1110   40.6100 C   0  0  0  0  0  0  0  0  0  0  0  0
   40.8710   36.1310   39.7020 N   0  0  0  0  0  0  0  0  0  0  0  0
   41.1520   34.9710   39.0660 C   0  0  0  0  0  0  0  0  0  0  0  0
   42.1530   34.9910   38.1430 C   0  0  0  0  0  0  0  0  0  0  0  0
   42.4780   33.8360   37.4700 C   0  0  0  0  0  0  0  0  0  0  0  0
   41.7560   32.6740   37.7670 C   0  0  0  0  0  0  0  0  0  0  0  0
   40.7560   32.7340   38.7130 C   0  0  0  0  0  0  0  0  0  0  0  0
   40.4070   33.8550   39.3990 C   0  0  0  0  0  0  0  0  0  0  0  0
   36.7520   27.1700   41.6170 C   0  0  0  0  0  0  0  0  0  0  0  0
   36.9070   26.9950   42.9990 C   0  0  0  0  0  0  0  0  0  0  0  0
   37.3470   28.0850   43.7730 C   0  0  0  0  0  0  0  0  0  0  0  0
   37.6020   29.2730   43.1210 N   0  0  0  0  0  0  0  0  0  0  0  0
   37.4360   29.3930   41.7830 C   0  0  0  0  0  0  0  0  0  0  0  0
   37.0160   28.3450   41.0520 N   0  0  0  0  0  0  0  0  0  0  0  0
   39.6467   37.0477   41.1348 H   0  0  0  0  0  0  0  0  0  0  0  0
   42.6979   35.9241   37.9370 H   0  0  0  0  0  0  0  0  0  0  0  0
   43.2824   33.8258   36.7198 H   0  0  0  0  0  0  0  0  0  0  0  0
   41.9834   31.7282   37.2534 H   0  0  0  0  0  0  0  0  0  0  0  0
   40.2005   31.8094   38.9286 H   0  0  0  0  0  0  0  0  0  0  0  0
   36.4096   26.3297   40.9952 H   0  0  0  0  0  0  0  0  0  0  0  0
   36.6890   26.0248   43.4694 H   0  0  0  0  0  0  0  0  0  0  0  0
   37.4828   27.9924   44.8607 H   0  0  0  0  0  0  0  0  0  0  0  0
  1 20  1  0
  2  1  2  0
  3  2  1  0
  3  4  1  0
  4  5  2  0
  5  1  1  0
  6  4  1  0
  6  7  2  0
  8  7  1  0
  9  8  2  0
 10 15  2  0
 10  9  1  0
 11 10  1  0
 12 13  1  0
 12 11  2  0
 13 14  2  0
 14 15  1  0
 15  6  1  0
 16 17  2  0
 17 18  1  0
 19 18  2  0
 20 19  1  0
 21 16  1  0
 21 20  2  0
  8 22  1  0
 11 23  1  0
 12 24  1  0
 13 25  1  0
 14 26  1  0
 16 27  1  0
 17 28  1  0
 18 29  1  0
M  ISO  8  22  14  23  14  24  14  25  14  26  14  27  14  28  14  29  14
M  END
>  <minimizedAffinity>  (1) 
-6.18384314

>  <minimizedRMSD>  (1) 
2.05386138

$$$$
