
     RDKit          3D

 27 28  0  0  1  0  0  0  0  0999 V2000
   39.7020   29.4970   42.7300 N   0  0  0  0  0  0  0  0  0  0  0  0
   39.9060   30.9200   42.6990 C   0  0  0  0  0  0  0  0  0  0  0  0
   41.0170   31.1250   41.6760 C   0  0  0  0  0  0  0  0  0  0  0  0
   42.2250   30.6130   42.2490 N   0  0  0  0  0  0  0  0  0  0  0  0
   42.1690   29.3430   42.8530 C   0  0  0  0  0  0  0  0  0  0  0  0
   40.8580   28.6530   42.8810 C   0  0  2  0  0  0  0  0  0  0  0  0
   38.4430   28.8480   42.6230 C   0  0  0  0  0  0  0  0  0  0  0  0
   37.8950   28.0660   43.6480 C   0  0  0  0  0  0  0  0  0  0  0  0
   36.6600   27.4720   43.4480 C   0  0  0  0  0  0  0  0  0  0  0  0
   36.0410   27.6850   42.2500 N   0  0  0  0  0  0  0  0  0  0  0  0
   36.5910   28.4440   41.2720 C   0  0  0  0  0  0  0  0  0  0  0  0
   37.7920   29.0310   41.4480 N   0  0  0  0  0  0  0  0  0  0  0  0
   40.8190   27.5300   41.8400 C   0  0  0  0  0  0  0  0  0  0  0  0
   40.3910   27.9620   40.6180 F   0  0  0  0  0  0  0  0  0  0  0  0
   42.1200   27.0550   41.7270 F   0  0  0  0  0  0  0  0  0  0  0  0
   40.0530   26.4950   42.3200 F   0  0  0  0  0  0  0  0  0  0  0  0
   38.9877   31.4375   42.3844 H   0  0  0  0  0  0  0  0  0  0  0  0
   40.1676   31.3263   43.6872 H   0  0  0  0  0  0  0  0  0  0  0  0
   41.1307   32.1963   41.4537 H   0  0  0  0  0  0  0  0  0  0  0  0
   40.7812   30.6042   40.7362 H   0  0  0  0  0  0  0  0  0  0  0  0
   42.9278   30.5667   41.4974 H   0  0  0  0  0  0  0  0  0  0  0  0
   42.8723   28.6912   42.3141 H   0  0  0  0  0  0  0  0  0  0  0  0
   42.4105   29.5261   43.9104 H   0  0  0  0  0  0  0  0  0  0  0  0
   40.7867   28.2480   43.9012 H   0  0  0  0  0  0  0  0  0  0  0  0
   38.4363   27.9262   44.5954 H   0  0  0  0  0  0  0  0  0  0  0  0
   36.1943   26.8505   44.2270 H   0  0  0  0  0  0  0  0  0  0  0  0
   36.0516   28.5830   40.3234 H   0  0  0  0  0  0  0  0  0  0  0  0
  1  6  1  0
  2  1  1  0
  3  4  1  0
  3  2  1  0
  4  5  1  0
  5  6  1  0
  7  1  1  0
  7  8  2  0
  9  8  1  0
 10  9  2  0
 11 12  2  0
 11 10  1  0
 12  7  1  0
 13 16  1  0
 13  6  1  0
 14 13  1  0
 15 13  1  0
  2 17  1  0
  2 18  1  0
  3 19  1  0
  3 20  1  0
  4 21  1  0
  5 22  1  0
  5 23  1  0
  6 24  1  1
  8 25  1  0
  9 26  1  0
 11 27  1  0
M  ISO  8  17  13  18  13  19  13  20  13  21   5  22  13  23  13  24  13
M  ISO  3  25  14  26  14  27  14
M  END
>  <minimizedAffinity>  (1) 
-3.26977348

>  <minimizedRMSD>  (1) 
0.296041399

$$$$
