
     RDKit          3D

 25 27  0  0  0  0  0  0  0  0999 V2000
   37.8070   31.0730   41.2880 C   0  0  0  0  0  0  0  0  0  0  0  0
   36.8790   31.6760   40.5140 N   0  0  0  0  0  0  0  0  0  0  0  0
   37.3450   32.7940   40.0260 O   0  0  0  0  0  0  0  0  0  0  0  0
   38.5770   32.9650   40.4550 C   0  0  0  0  0  0  0  0  0  0  0  0
   38.8990   31.9010   41.2510 N   0  0  0  0  0  0  0  0  0  0  0  0
   37.8750   28.2040   43.6220 C   0  0  0  0  0  0  0  0  0  0  0  0
   36.9140   27.3720   43.0270 C   0  0  0  0  0  0  0  0  0  0  0  0
   36.2810   27.8030   41.8700 C   0  0  0  0  0  0  0  0  0  0  0  0
   36.6320   29.0370   41.3580 N   0  0  0  0  0  0  0  0  0  0  0  0
   37.5630   29.8110   41.9600 C   0  0  0  0  0  0  0  0  0  0  0  0
   38.1640   29.3830   43.0740 N   0  0  0  0  0  0  0  0  0  0  0  0
   39.4150   34.1090   40.1130 C   0  0  0  0  0  0  0  0  0  0  0  0
   38.9090   35.3580   40.3800 C   0  0  0  0  0  0  0  0  0  0  0  0
   39.6390   36.5090   40.0880 C   0  0  0  0  0  0  0  0  0  0  0  0
   40.8750   36.2750   39.5220 C   0  0  0  0  0  0  0  0  0  0  0  0
   41.4420   35.0380   39.2270 C   0  0  0  0  0  0  0  0  0  0  0  0
   40.6570   33.9420   39.5470 C   0  0  0  0  0  0  0  0  0  0  0  0
   38.3890   27.8827   44.5399 H   0  0  0  0  0  0  0  0  0  0  0  0
   36.6671   26.3959   43.4699 H   0  0  0  0  0  0  0  0  0  0  0  0
   35.5216   27.1800   41.3748 H   0  0  0  0  0  0  0  0  0  0  0  0
   37.9105   35.4514   40.8320 H   0  0  0  0  0  0  0  0  0  0  0  0
   39.2603   37.5214   40.2923 H   0  0  0  0  0  0  0  0  0  0  0  0
   41.4781   37.1618   39.2772 H   0  0  0  0  0  0  0  0  0  0  0  0
   42.4392   34.9382   38.7735 H   0  0  0  0  0  0  0  0  0  0  0  0
   41.0314   32.9274   39.3461 H   0  0  0  0  0  0  0  0  0  0  0  0
  1 10  1  0
  2  1  2  0
  3  4  1  0
  3  2  1  0
  4  5  2  0
  5  1  1  0
  7  6  2  0
  8  7  1  0
  9  8  2  0
  9 10  1  0
 10 11  2  0
 11  6  1  0
 12 13  2  0
 12  4  1  0
 14 13  1  0
 15 14  2  0
 16 15  1  0
 16 17  2  0
 17 12  1  0
  6 18  1  0
  7 19  1  0
  8 20  1  0
 13 21  1  0
 14 22  1  0
 15 23  1  0
 16 24  1  0
 17 25  1  0
M  ISO  8  18  14  19  14  20  14  21  14  22  14  23  14  24  14  25  14
M  END
>  <minimizedAffinity>  (1) 
-5.6608181

>  <minimizedRMSD>  (1) 
1.53609467

$$$$
