
     RDKit          3D

 28 30  0  0  0  0  0  0  0  0999 V2000
   38.5660   30.8230   41.6260 C   0  0  0  0  0  0  0  0  0  0  0  0
   37.4590   31.2300   40.9690 N   0  0  0  0  0  0  0  0  0  0  0  0
   37.6650   32.3850   40.4030 O   0  0  0  0  0  0  0  0  0  0  0  0
   38.9040   32.7790   40.6600 C   0  0  0  0  0  0  0  0  0  0  0  0
   39.4910   31.8180   41.4240 N   0  0  0  0  0  0  0  0  0  0  0  0
   39.4620   33.9940   40.1950 N   0  0  0  0  0  0  0  0  0  0  0  0
   40.8010   33.9480   39.6370 C   0  0  0  0  0  0  0  0  0  0  0  0
   41.5230   35.1740   40.1980 C   0  0  0  0  0  0  0  0  0  0  0  0
   40.8060   36.3770   39.6370 C   0  0  0  0  0  0  0  0  0  0  0  0
   39.3760   36.4620   40.0350 C   0  0  0  0  0  0  0  0  0  0  0  0
   38.6790   35.1810   40.3010 C   0  0  0  0  0  0  0  0  0  0  0  0
   39.6470   27.6710   43.2190 C   0  0  0  0  0  0  0  0  0  0  0  0
   38.4210   27.2230   43.7690 C   0  0  0  0  0  0  0  0  0  0  0  0
   37.2920   28.0060   43.5750 C   0  0  0  0  0  0  0  0  0  0  0  0
   37.4290   29.1740   42.8580 N   0  0  0  0  0  0  0  0  0  0  0  0
   38.6180   29.5670   42.3490 C   0  0  0  0  0  0  0  0  0  0  0  0
   39.7160   28.8130   42.5340 N   0  0  0  0  0  0  0  0  0  0  0  0
   41.3142   33.0254   39.9460 H   0  0  0  0  0  0  0  0  0  0  0  0
   40.7839   33.9537   38.5371 H   0  0  0  0  0  0  0  0  0  0  0  0
   41.4716   35.1774   41.2968 H   0  0  0  0  0  0  0  0  0  0  0  0
   42.5871   35.1752   39.9194 H   0  0  0  0  0  0  0  0  0  0  0  0
   40.8585   36.3314   38.5392 H   0  0  0  0  0  0  0  0  0  0  0  0
   41.3060   37.2676   40.0454 H   0  0  0  0  0  0  0  0  0  0  0  0
   38.8600   37.4290   40.1276 H   0  0  0  0  0  0  0  0  0  0  0  0
   37.6121   35.1478   40.5666 H   0  0  0  0  0  0  0  0  0  0  0  0
   40.5560   27.0677   43.3591 H   0  0  0  0  0  0  0  0  0  0  0  0
   38.3655   26.2808   44.3340 H   0  0  0  0  0  0  0  0  0  0  0  0
   36.3161   27.7028   43.9819 H   0  0  0  0  0  0  0  0  0  0  0  0
  1 16  1  0
  2  1  2  0
  3  4  1  0
  3  2  1  0
  4  5  2  0
  5  1  1  0
  6 11  1  0
  6  4  1  0
  7  6  1  0
  7  8  1  0
  9 10  1  0
  9  8  1  0
 10 11  2  0
 12 13  2  0
 14 13  1  0
 15 14  2  0
 16 17  2  0
 16 15  1  0
 17 12  1  0
  7 18  1  0
  7 19  1  0
  8 20  1  0
  8 21  1  0
  9 22  1  0
  9 23  1  0
 10 24  1  0
 11 25  1  0
 12 26  1  0
 13 27  1  0
 14 28  1  0
M  ISO  8  18  13  19  13  20  13  21  13  22  13  23  13  24  13  25  13
M  ISO  3  26  14  27  14  28  14
M  END
>  <minimizedAffinity>  (1) 
-5.60101795

>  <minimizedRMSD>  (1) 
0.664806485

$$$$
