
     RDKit          3D

 24 26  0  0  0  0  0  0  0  0999 V2000
   37.7730   31.0670   41.2500 C   0  0  0  0  0  0  0  0  0  0  0  0
   36.8470   31.6260   40.4430 N   0  0  0  0  0  0  0  0  0  0  0  0
   37.2930   32.7440   39.9480 O   0  0  0  0  0  0  0  0  0  0  0  0
   38.5070   32.9640   40.4010 C   0  0  0  0  0  0  0  0  0  0  0  0
   38.8410   31.9280   41.2230 N   0  0  0  0  0  0  0  0  0  0  0  0
   37.9090   28.2270   43.6130 C   0  0  0  0  0  0  0  0  0  0  0  0
   36.9320   27.3770   43.0440 C   0  0  0  0  0  0  0  0  0  0  0  0
   36.2760   27.8000   41.8960 C   0  0  0  0  0  0  0  0  0  0  0  0
   36.6130   29.0280   41.3730 N   0  0  0  0  0  0  0  0  0  0  0  0
   37.5500   29.8070   41.9440 C   0  0  0  0  0  0  0  0  0  0  0  0
   38.1890   29.4050   43.0520 N   0  0  0  0  0  0  0  0  0  0  0  0
   39.3600   34.1020   40.0930 C   0  0  0  0  0  0  0  0  0  0  0  0
   38.8960   35.3720   40.3640 C   0  0  0  0  0  0  0  0  0  0  0  0
   39.6880   36.4680   40.0810 C   0  0  0  0  0  0  0  0  0  0  0  0
   40.9450   36.2720   39.5250 C   0  0  0  0  0  0  0  0  0  0  0  0
   41.3550   34.9680   39.2760 C   0  0  0  0  0  0  0  0  0  0  0  0
   40.5690   33.9170   39.5590 N   0  0  0  0  0  0  0  0  0  0  0  0
   38.4413   27.9150   44.5237 H   0  0  0  0  0  0  0  0  0  0  0  0
   36.6976   26.4039   43.5003 H   0  0  0  0  0  0  0  0  0  0  0  0
   35.5094   27.1723   41.4182 H   0  0  0  0  0  0  0  0  0  0  0  0
   37.8978   35.5120   40.8044 H   0  0  0  0  0  0  0  0  0  0  0  0
   39.3266   37.4849   40.2939 H   0  0  0  0  0  0  0  0  0  0  0  0
   41.5979   37.1250   39.2883 H   0  0  0  0  0  0  0  0  0  0  0  0
   42.3479   34.7925   38.8362 H   0  0  0  0  0  0  0  0  0  0  0  0
  1 10  1  0
  2  1  2  0
  3  4  1  0
  3  2  1  0
  4  5  2  0
  5  1  1  0
  7  6  2  0
  8  7  1  0
  9  8  2  0
  9 10  1  0
 10 11  2  0
 11  6  1  0
 12 13  2  0
 12  4  1  0
 14 13  1  0
 15 14  2  0
 16 15  1  0
 16 17  2  0
 17 12  1  0
  6 18  1  0
  7 19  1  0
  8 20  1  0
 13 21  1  0
 14 22  1  0
 15 23  1  0
 16 24  1  0
M  ISO  7  18  14  19  14  20  14  21  14  22  14  23  14  24  14
M  END
>  <minimizedAffinity>  (1) 
-5.56143093

>  <minimizedRMSD>  (1) 
1.36362016

$$$$
