
     RDKit          3D

 23 25  0  0  0  0  0  0  0  0999 V2000
   37.8450   31.0800   41.3070 C   0  0  0  0  0  0  0  0  0  0  0  0
   36.9020   31.6860   40.5380 N   0  0  0  0  0  0  0  0  0  0  0  0
   37.3610   32.8040   40.0470 O   0  0  0  0  0  0  0  0  0  0  0  0
   38.5960   32.9710   40.4660 C   0  0  0  0  0  0  0  0  0  0  0  0
   38.9200   31.9130   41.2490 N   0  0  0  0  0  0  0  0  0  0  0  0
   37.8760   28.1980   43.6130 C   0  0  0  0  0  0  0  0  0  0  0  0
   36.9120   27.3640   43.0260 C   0  0  0  0  0  0  0  0  0  0  0  0
   36.2800   27.8170   41.8550 C   0  0  0  0  0  0  0  0  0  0  0  0
   36.6690   29.0480   41.3880 N   0  0  0  0  0  0  0  0  0  0  0  0
   37.5910   29.8150   41.9730 C   0  0  0  0  0  0  0  0  0  0  0  0
   38.1940   29.3890   43.0870 N   0  0  0  0  0  0  0  0  0  0  0  0
   39.4180   34.1140   40.1130 C   0  0  0  0  0  0  0  0  0  0  0  0
   38.9390   35.3750   40.3580 C   0  0  0  0  0  0  0  0  0  0  0  0
   39.6970   36.5020   40.0340 C   0  0  0  0  0  0  0  0  0  0  0  0
   40.9250   36.3150   39.4690 N   0  0  0  0  0  0  0  0  0  0  0  0
   41.3540   35.0760   39.2480 C   0  0  0  0  0  0  0  0  0  0  0  0
   40.6380   33.9600   39.5530 N   0  0  0  0  0  0  0  0  0  0  0  0
   38.3845   27.8651   44.5299 H   0  0  0  0  0  0  0  0  0  0  0  0
   36.6595   26.3886   43.4674 H   0  0  0  0  0  0  0  0  0  0  0  0
   35.5148   27.2173   41.3404 H   0  0  0  0  0  0  0  0  0  0  0  0
   37.9463   35.5003   40.8150 H   0  0  0  0  0  0  0  0  0  0  0  0
   39.3141   37.5146   40.2292 H   0  0  0  0  0  0  0  0  0  0  0  0
   42.3463   34.9456   38.7917 H   0  0  0  0  0  0  0  0  0  0  0  0
  1 10  1  0
  2  1  2  0
  3  4  1  0
  3  2  1  0
  4  5  2  0
  5  1  1  0
  7  6  2  0
  8  7  1  0
  9  8  2  0
  9 10  1  0
 10 11  2  0
 11  6  1  0
 12 13  2  0
 12  4  1  0
 14 13  1  0
 15 14  2  0
 16 15  1  0
 16 17  2  0
 17 12  1  0
  6 18  1  0
  7 19  1  0
  8 20  1  0
 13 21  1  0
 14 22  1  0
 16 23  1  0
M  ISO  6  18  14  19  14  20  14  21  14  22  14  23  14
M  END
>  <minimizedAffinity>  (1) 
-5.45963573

>  <minimizedRMSD>  (1) 
1.37292302

$$$$
