
     RDKit          3D

 22 24  0  0  0  0  0  0  0  0999 V2000
   37.6180   31.9630   40.7320 C   0  0  0  0  0  0  0  0  0  0  0  0
   36.9630   32.7110   39.8060 N   0  0  0  0  0  0  0  0  0  0  0  0
   37.5340   33.8700   39.6440 O   0  0  0  0  0  0  0  0  0  0  0  0
   38.5780   33.9350   40.4440 C   0  0  0  0  0  0  0  0  0  0  0  0
   38.6400   32.7630   41.1220 N   0  0  0  0  0  0  0  0  0  0  0  0
   37.3070   28.6080   42.2210 C   0  0  0  0  0  0  0  0  0  0  0  0
   36.1370   28.1410   41.6010 C   0  0  0  0  0  0  0  0  0  0  0  0
   35.5000   28.9850   40.7020 C   0  0  0  0  0  0  0  0  0  0  0  0
   36.0560   30.2240   40.4750 N   0  0  0  0  0  0  0  0  0  0  0  0
   37.1720   30.6310   41.0850 C   0  0  0  0  0  0  0  0  0  0  0  0
   37.8080   29.8290   41.9640 N   0  0  0  0  0  0  0  0  0  0  0  0
   39.4820   35.0690   40.5630 C   0  0  0  0  0  0  0  0  0  0  0  0
   39.2720   36.3160   39.9960 C   0  0  0  0  0  0  0  0  0  0  0  0
   40.3240   37.1100   40.3220 N   0  0  0  0  0  0  0  0  0  0  0  0
   41.1470   36.3310   41.0750 C   0  0  0  0  0  0  0  0  0  0  0  0
   40.6540   35.0950   41.2310 N   0  0  0  0  0  0  0  0  0  0  0  0
   37.8286   27.9564   42.9374 H   0  0  0  0  0  0  0  0  0  0  0  0
   35.7385   27.1395   41.8205 H   0  0  0  0  0  0  0  0  0  0  0  0
   34.5794   28.6737   40.1867 H   0  0  0  0  0  0  0  0  0  0  0  0
   38.4042   36.6111   39.3878 H   0  0  0  0  0  0  0  0  0  0  0  0
   42.1004   36.6740   41.5033 H   0  0  0  0  0  0  0  0  0  0  0  0
   41.0837   34.3198   41.7558 H   0  0  0  0  0  0  0  0  0  0  0  0
  1 10  1  0
  1  5  1  0
  2  1  2  0
  3  2  1  0
  3  4  1  0
  4 12  1  0
  4  5  2  0
  7  6  2  0
  8  7  1  0
  9  8  2  0
  9 10  1  0
 10 11  2  0
 11  6  1  0
 12 16  1  0
 13 14  1  0
 13 12  2  0
 14 15  2  0
 15 16  1  0
  6 17  1  0
  7 18  1  0
  8 19  1  0
 13 20  1  0
 15 21  1  0
 16 22  1  0
M  ISO  6  17  14  18  14  19  14  20  14  21  14  22   9
M  END
>  <minimizedAffinity>  (1) 
-5.2149663

>  <minimizedRMSD>  (1) 
2.29038978

$$$$
