
     RDKit          3D

 22 24  0  0  0  0  0  0  0  0999 V2000
   38.5960   30.9250   41.6240 C   0  0  0  0  0  0  0  0  0  0  0  0
   37.4950   31.3050   40.9110 N   0  0  0  0  0  0  0  0  0  0  0  0
   37.6890   32.4740   40.3580 O   0  0  0  0  0  0  0  0  0  0  0  0
   38.8930   32.8950   40.6780 C   0  0  0  0  0  0  0  0  0  0  0  0
   39.4820   31.9480   41.4680 N   0  0  0  0  0  0  0  0  0  0  0  0
   39.4980   34.1110   40.2870 N   0  0  0  0  0  0  0  0  0  0  0  0
   40.7260   34.2620   39.7620 C   0  0  0  0  0  0  0  0  0  0  0  0
   40.9180   35.6080   39.5270 C   0  0  0  0  0  0  0  0  0  0  0  0
   39.8070   36.2500   39.9120 N   0  0  0  0  0  0  0  0  0  0  0  0
   38.9490   35.3360   40.3720 C   0  0  0  0  0  0  0  0  0  0  0  0
   39.6380   27.7600   43.1820 C   0  0  0  0  0  0  0  0  0  0  0  0
   38.4200   27.3010   43.7120 C   0  0  0  0  0  0  0  0  0  0  0  0
   37.2840   28.0830   43.5230 C   0  0  0  0  0  0  0  0  0  0  0  0
   37.4420   29.2540   42.8260 N   0  0  0  0  0  0  0  0  0  0  0  0
   38.6250   29.6640   42.3300 C   0  0  0  0  0  0  0  0  0  0  0  0
   39.7330   28.9150   42.5080 N   0  0  0  0  0  0  0  0  0  0  0  0
   41.4477   33.4577   39.5567 H   0  0  0  0  0  0  0  0  0  0  0  0
   41.8204   36.0704   39.1005 H   0  0  0  0  0  0  0  0  0  0  0  0
   37.9436   35.5525   40.7621 H   0  0  0  0  0  0  0  0  0  0  0  0
   40.5432   27.1515   43.3249 H   0  0  0  0  0  0  0  0  0  0  0  0
   38.3658   26.3495   44.2613 H   0  0  0  0  0  0  0  0  0  0  0  0
   36.3033   27.7757   43.9151 H   0  0  0  0  0  0  0  0  0  0  0  0
  1 15  1  0
  2  1  2  0
  3  4  1  0
  3  2  1  0
  4  5  2  0
  5  1  1  0
  6 10  1  0
  6  4  1  0
  7  6  1  0
  8  7  2  0
  8  9  1  0
  9 10  2  0
 11 12  2  0
 13 12  1  0
 14 13  2  0
 15 16  2  0
 15 14  1  0
 16 11  1  0
  7 17  1  0
  8 18  1  0
 10 19  1  0
 11 20  1  0
 12 21  1  0
 13 22  1  0
M  ISO  6  17  14  18  14  19  14  20  14  21  14  22  14
M  END
>  <minimizedAffinity>  (1) 
-5.20749187

>  <minimizedRMSD>  (1) 
0.640265346

$$$$
