
     RDKit          3D

 20 22  0  0  0  0  0  0  0  0999 V2000
   38.3080   31.0280   41.4640 C   0  0  0  0  0  0  0  0  0  0  0  0
   37.1500   31.3680   40.8430 N   0  0  0  0  0  0  0  0  0  0  0  0
   37.2750   32.5320   40.2630 O   0  0  0  0  0  0  0  0  0  0  0  0
   38.4880   32.9970   40.4720 C   0  0  0  0  0  0  0  0  0  0  0  0
   39.1600   32.0770   41.2220 N   0  0  0  0  0  0  0  0  0  0  0  0
   39.6430   28.0030   43.0960 C   0  0  0  0  0  0  0  0  0  0  0  0
   38.4630   27.4330   43.5980 C   0  0  0  0  0  0  0  0  0  0  0  0
   37.2490   28.0980   43.3630 C   0  0  0  0  0  0  0  0  0  0  0  0
   37.2940   29.2720   42.6540 N   0  0  0  0  0  0  0  0  0  0  0  0
   38.4550   29.7850   42.1900 C   0  0  0  0  0  0  0  0  0  0  0  0
   39.6150   29.1490   42.4140 N   0  0  0  0  0  0  0  0  0  0  0  0
   39.3040   34.1540   40.1570 C   0  0  0  0  0  0  0  0  0  0  0  0
   40.5240   34.2230   39.5540 N   0  0  0  0  0  0  0  0  0  0  0  0
   40.8620   35.4830   39.4860 O   0  0  0  0  0  0  0  0  0  0  0  0
   39.9510   36.2600   40.0020 C   0  0  0  0  0  0  0  0  0  0  0  0
   38.9620   35.4270   40.4290 N   0  0  0  0  0  0  0  0  0  0  0  0
   40.6048   27.4975   43.2674 H   0  0  0  0  0  0  0  0  0  0  0  0
   38.4885   26.4887   44.1616 H   0  0  0  0  0  0  0  0  0  0  0  0
   36.2961   27.6925   43.7339 H   0  0  0  0  0  0  0  0  0  0  0  0
   39.9760   37.3572   40.0767 H   0  0  0  0  0  0  0  0  0  0  0  0
  1 10  1  0
  2  1  2  0
  3  4  1  0
  3  2  1  0
  4  5  2  0
  5  1  1  0
  6  7  2  0
  8  7  1  0
  9  8  2  0
 10 11  2  0
 10  9  1  0
 11  6  1  0
 12 16  1  0
 12  4  1  0
 13 12  2  0
 14 13  1  0
 14 15  1  0
 15 16  2  0
  6 17  1  0
  7 18  1  0
  8 19  1  0
 15 20  1  0
M  ISO  4  17  14  18  14  19  14  20  14
M  END
>  <minimizedAffinity>  (1) 
-4.98346615

>  <minimizedRMSD>  (1) 
0.453419298

$$$$
