
     RDKit          3D

 21 22  0  0  0  0  0  0  0  0999 V2000
   40.2840   27.9140   43.0180 C   0  0  0  0  0  0  0  0  0  0  0  0
   39.4380   27.0920   43.7770 C   0  0  0  0  0  0  0  0  0  0  0  0
   38.0740   27.3670   43.7760 C   0  0  0  0  0  0  0  0  0  0  0  0
   37.6490   28.4360   43.0240 N   0  0  0  0  0  0  0  0  0  0  0  0
   38.4980   29.2010   42.3080 C   0  0  0  0  0  0  0  0  0  0  0  0
   39.8230   28.9500   42.2970 N   0  0  0  0  0  0  0  0  0  0  0  0
   37.8590   30.2940   41.5710 C   0  0  0  0  0  0  0  0  0  0  0  0
   36.5180   30.3450   41.4150 N   0  0  0  0  0  0  0  0  0  0  0  0
   36.1770   31.3980   40.7300 O   0  0  0  0  0  0  0  0  0  0  0  0
   37.2780   32.0700   40.4150 C   0  0  0  0  0  0  0  0  0  0  0  0
   38.3570   31.3990   40.9320 N   0  0  0  0  0  0  0  0  0  0  0  0
   37.5450   33.3220   39.6630 C   0  0  0  0  0  0  0  0  0  0  0  0
   38.5930   34.1430   40.4190 C   0  0  0  0  0  0  0  0  0  0  0  0
   41.3636   27.7030   43.0128 H   0  0  0  0  0  0  0  0  0  0  0  0
   39.8429   26.2507   44.3587 H   0  0  0  0  0  0  0  0  0  0  0  0
   37.3655   26.7545   44.3529 H   0  0  0  0  0  0  0  0  0  0  0  0
   37.9226   33.0762   38.6595 H   0  0  0  0  0  0  0  0  0  0  0  0
   36.6160   33.9032   39.5666 H   0  0  0  0  0  0  0  0  0  0  0  0
   38.4409   34.0238   41.5019 H   0  0  0  0  0  0  0  0  0  0  0  0
   39.5994   33.7905   40.1491 H   0  0  0  0  0  0  0  0  0  0  0  0
   38.4917   35.2046   40.1491 H   0  0  0  0  0  0  0  0  0  0  0  0
  1  2  2  0
  3  2  1  0
  4  3  2  0
  5  4  1  0
  6  5  2  0
  6  1  1  0
  7  5  1  0
  8  7  2  0
  9  8  1  0
 10  9  1  0
 10 11  2  0
 11  7  1  0
 12 10  1  0
 12 13  1  0
  1 14  1  0
  2 15  1  0
  3 16  1  0
 12 17  1  0
 12 18  1  0
 13 19  1  0
 13 20  1  0
 13 21  1  0
M  ISO  8  14  14  15  14  16  14  17   8  18   8  19   8  20   8  21   8
M  END
>  <minimizedAffinity>  (1) 
-3.99460936

>  <minimizedRMSD>  (1) 
0.988367915

$$$$
