
     RDKit          3D

 17 18  0  0  0  0  0  0  0  0999 V2000
   39.6520   27.9430   43.0610 C   0  0  0  0  0  0  0  0  0  0  0  0
   38.5400   27.3840   43.7210 C   0  0  0  0  0  0  0  0  0  0  0  0
   37.2890   28.0050   43.5750 C   0  0  0  0  0  0  0  0  0  0  0  0
   37.2510   29.1350   42.7840 N   0  0  0  0  0  0  0  0  0  0  0  0
   38.3440   29.6320   42.1730 C   0  0  0  0  0  0  0  0  0  0  0  0
   39.5430   29.0420   42.3080 N   0  0  0  0  0  0  0  0  0  0  0  0
   38.0960   30.8250   41.3850 C   0  0  0  0  0  0  0  0  0  0  0  0
   36.8580   31.0790   40.8600 N   0  0  0  0  0  0  0  0  0  0  0  0
   36.8780   32.2080   40.1920 O   0  0  0  0  0  0  0  0  0  0  0  0
   38.0940   32.7240   40.2500 C   0  0  0  0  0  0  0  0  0  0  0  0
   38.8770   31.8830   40.9890 N   0  0  0  0  0  0  0  0  0  0  0  0
   38.4850   33.9310   39.6480 N   0  0  0  0  0  0  0  0  0  0  0  0
   40.6357   27.4625   43.1681 H   0  0  0  0  0  0  0  0  0  0  0  0
   38.6494   26.4799   44.3379 H   0  0  0  0  0  0  0  0  0  0  0  0
   36.3866   27.6112   44.0655 H   0  0  0  0  0  0  0  0  0  0  0  0
   39.4556   34.2627   39.7421 H   0  0  0  0  0  0  0  0  0  0  0  0
   37.8012   34.4846   39.1124 H   0  0  0  0  0  0  0  0  0  0  0  0
  1  2  2  0
  3  2  1  0
  4  3  2  0
  5  6  2  0
  5  4  1  0
  6  1  1  0
  7  5  1  0
  8  7  2  0
  9 10  1  0
  9  8  1  0
 10 11  2  0
 11  7  1  0
 12 10  1  0
  1 13  1  0
  2 14  1  0
  3 15  1  0
 12 16  1  0
 12 17  1  0
M  ISO  3  13  14  14  14  15  14
M  END
>  <minimizedAffinity>  (1) 
-3.84882712

>  <minimizedRMSD>  (1) 
0.284106582

$$$$
