
     RDKit          3D

 18 19  0  0  0  0  0  0  0  0999 V2000
   39.8240   27.8090   43.1060 C   0  0  0  0  0  0  0  0  0  0  0  0
   38.7120   27.2330   43.7400 C   0  0  0  0  0  0  0  0  0  0  0  0
   37.4680   27.8730   43.6300 C   0  0  0  0  0  0  0  0  0  0  0  0
   37.4250   29.0390   42.8980 N   0  0  0  0  0  0  0  0  0  0  0  0
   38.5210   29.5580   42.3040 C   0  0  0  0  0  0  0  0  0  0  0  0
   39.7000   28.9400   42.4160 N   0  0  0  0  0  0  0  0  0  0  0  0
   38.2680   30.7930   41.5790 C   0  0  0  0  0  0  0  0  0  0  0  0
   37.0870   31.0560   40.9800 N   0  0  0  0  0  0  0  0  0  0  0  0
   37.1140   32.2190   40.4010 O   0  0  0  0  0  0  0  0  0  0  0  0
   38.2960   32.7630   40.5900 C   0  0  0  0  0  0  0  0  0  0  0  0
   39.0530   31.8920   41.3300 N   0  0  0  0  0  0  0  0  0  0  0  0
   38.8480   34.0690   40.1460 C   0  0  0  0  0  0  0  0  0  0  0  0
   40.8070   27.3209   43.1802 H   0  0  0  0  0  0  0  0  0  0  0  0
   38.8137   26.2987   44.3116 H   0  0  0  0  0  0  0  0  0  0  0  0
   36.5665   27.4615   44.1075 H   0  0  0  0  0  0  0  0  0  0  0  0
   39.1049   34.6768   41.0261 H   0  0  0  0  0  0  0  0  0  0  0  0
   39.7512   33.8989   39.5416 H   0  0  0  0  0  0  0  0  0  0  0  0
   38.0966   34.5982   39.5416 H   0  0  0  0  0  0  0  0  0  0  0  0
  1  2  2  0
  3  2  1  0
  4  3  2  0
  5  6  2  0
  5  4  1  0
  6  1  1  0
  7  5  1  0
  8  7  2  0
  9 10  1  0
  9  8  1  0
 10 11  2  0
 11  7  1  0
 12 10  1  0
  1 13  1  0
  2 14  1  0
  3 15  1  0
 12 16  1  0
 12 17  1  0
 12 18  1  0
M  ISO  6  13  14  14  14  15  14  16   8  17   8  18   8
M  END
>  <minimizedAffinity>  (1) 
-3.78440022

>  <minimizedRMSD>  (1) 
0.0322876461

$$$$
