
     RDKit          3D

 16 17  0  0  0  0  0  0  0  0999 V2000
   39.7970   27.8060   43.1130 C   0  0  0  0  0  0  0  0  0  0  0  0
   38.6930   27.2080   43.7620 C   0  0  0  0  0  0  0  0  0  0  0  0
   37.4410   27.8320   43.6520 C   0  0  0  0  0  0  0  0  0  0  0  0
   37.4020   28.9840   42.9140 N   0  0  0  0  0  0  0  0  0  0  0  0
   38.4650   29.5210   42.3160 C   0  0  0  0  0  0  0  0  0  0  0  0
   39.6820   28.9360   42.4080 N   0  0  0  0  0  0  0  0  0  0  0  0
   38.2190   30.7540   41.5730 C   0  0  0  0  0  0  0  0  0  0  0  0
   36.9940   30.9850   41.0100 N   0  0  0  0  0  0  0  0  0  0  0  0
   37.0150   32.1410   40.4030 O   0  0  0  0  0  0  0  0  0  0  0  0
   38.2010   32.6930   40.5350 C   0  0  0  0  0  0  0  0  0  0  0  0
   38.9710   31.8500   41.2600 N   0  0  0  0  0  0  0  0  0  0  0  0
   38.6950   33.9080   40.0670 O   0  0  0  0  0  0  0  0  0  0  0  0
   40.7836   27.3257   43.1906 H   0  0  0  0  0  0  0  0  0  0  0  0
   38.8121   26.2784   44.3379 H   0  0  0  0  0  0  0  0  0  0  0  0
   36.5416   27.4186   44.1318 H   0  0  0  0  0  0  0  0  0  0  0  0
   39.6293   34.1707   40.2624 H   0  0  0  0  0  0  0  0  0  0  0  0
  1  2  2  0
  3  2  1  0
  4  3  2  0
  5  6  2  0
  5  4  1  0
  6  1  1  0
  7  5  1  0
  8  7  2  0
  9 10  1  0
  9  8  1  0
 10 11  2  0
 11  7  1  0
 12 10  1  0
  1 13  1  0
  2 14  1  0
  3 15  1  0
 12 16  1  0
M  ISO  4  13  14  14  14  15  14  16   3
M  END
>  <minimizedAffinity>  (1) 
-3.69354391

>  <minimizedRMSD>  (1) 
0.0685500726

$$$$
