
     RDKit          3D

 37 40  0  0  0  0  0  0  0  0999 V2000
   39.8980   34.2980   40.2720 C   0  0  0  0  0  0  0  0  0  0  0  0
   40.5160   33.1360   40.6110 C   0  0  0  0  0  0  0  0  0  0  0  0
   39.7870   31.9750   40.8170 C   0  0  0  0  0  0  0  0  0  0  0  0
   38.4280   31.9640   40.6840 C   0  0  0  0  0  0  0  0  0  0  0  0
   37.7920   33.1200   40.3420 C   0  0  0  0  0  0  0  0  0  0  0  0
   38.5240   34.2920   40.1350 C   0  0  0  0  0  0  0  0  0  0  0  0
   37.1360   28.6330   41.1210 C   0  0  0  0  0  0  0  0  0  0  0  0
   36.0870   29.4440   41.3850 N   0  0  0  0  0  0  0  0  0  0  0  0
   36.4310   30.6890   41.2590 O   0  0  0  0  0  0  0  0  0  0  0  0
   37.7150   30.7380   40.9090 C   0  0  0  0  0  0  0  0  0  0  0  0
   38.1590   29.4690   40.8210 N   0  0  0  0  0  0  0  0  0  0  0  0
   37.0460   25.1090   42.2530 C   0  0  0  0  0  0  0  0  0  0  0  0
   36.7710   24.4600   41.0520 C   0  0  0  0  0  0  0  0  0  0  0  0
   36.6240   25.2300   39.9000 C   0  0  0  0  0  0  0  0  0  0  0  0
   36.7570   26.5840   40.0000 N   0  0  0  0  0  0  0  0  0  0  0  0
   37.0260   27.1740   41.1890 C   0  0  0  0  0  0  0  0  0  0  0  0
   37.1700   26.4430   42.3160 N   0  0  0  0  0  0  0  0  0  0  0  0
   40.8390   35.7560   39.9800 S   0  0  0  0  0  0  0  0  0  0  0  0
   41.4760   35.6130   38.6390 O   0  0  0  0  0  0  0  0  0  0  0  0
   39.8950   36.9410   39.9500 O   0  0  0  0  0  0  0  0  0  0  0  0
   41.9460   35.8940   41.3130 C   0  0  0  0  0  0  0  0  0  0  0  0
   41.7920   36.8640   42.3080 C   0  0  0  0  0  0  0  0  0  0  0  0
   42.7050   36.9230   43.3410 C   0  0  0  0  0  0  0  0  0  0  0  0
   43.7370   36.0010   43.3290 C   0  0  0  0  0  0  0  0  0  0  0  0
   43.8940   35.0430   42.3520 C   0  0  0  0  0  0  0  0  0  0  0  0
   42.9770   35.0290   41.3670 N   0  0  0  0  0  0  0  0  0  0  0  0
   41.6101   33.1165   40.7235 H   0  0  0  0  0  0  0  0  0  0  0  0
   40.3115   31.0480   41.0919 H   0  0  0  0  0  0  0  0  0  0  0  0
   36.6979   33.1303   40.2285 H   0  0  0  0  0  0  0  0  0  0  0  0
   38.0003   35.2195   39.8601 H   0  0  0  0  0  0  0  0  0  0  0  0
   37.1642   24.5142   43.1707 H   0  0  0  0  0  0  0  0  0  0  0  0
   36.6721   23.3651   41.0136 H   0  0  0  0  0  0  0  0  0  0  0  0
   36.4056   24.7566   38.9314 H   0  0  0  0  0  0  0  0  0  0  0  0
   40.9518   37.5728   42.2678 H   0  0  0  0  0  0  0  0  0  0  0  0
   42.6161   37.6723   44.1414 H   0  0  0  0  0  0  0  0  0  0  0  0
   44.4732   36.0352   44.1456 H   0  0  0  0  0  0  0  0  0  0  0  0
   44.7272   34.3252   42.3756 H   0  0  0  0  0  0  0  0  0  0  0  0
  1  2  2  0
  2  3  1  0
  4  3  2  0
  4 10  1  0
  5  4  1  0
  6  1  1  0
  6  5  2  0
  7 16  1  0
  7  8  2  0
  9  8  1  0
 10  9  1  0
 11 10  2  0
 11  7  1  0
 12 17  2  0
 13 12  1  0
 14 15  1  0
 14 13  2  0
 15 16  2  0
 16 17  1  0
 18  1  1  0
 18 21  1  0
 19 18  2  0
 20 18  2  0
 21 26  1  0
 21 22  2  0
 22 23  1  0
 24 23  2  0
 25 24  1  0
 26 25  2  0
  2 27  1  0
  3 28  1  0
  5 29  1  0
  6 30  1  0
 12 31  1  0
 13 32  1  0
 14 33  1  0
 22 34  1  0
 23 35  1  0
 24 36  1  0
 25 37  1  0
M  ISO  8  27  14  28  14  29  14  30  14  31  14  32  14  33  14  34  14
M  ISO  3  35  14  36  14  37  14
M  END
>  <minimizedAffinity>  (1) 
-6.97587204

>  <minimizedRMSD>  (1) 
1.3200258

$$$$
