
     RDKit          3D

 36 39  0  0  0  0  0  0  0  0999 V2000
   39.9100   34.2530   40.2370 C   0  0  0  0  0  0  0  0  0  0  0  0
   40.5240   33.0730   40.5120 C   0  0  0  0  0  0  0  0  0  0  0  0
   39.7880   31.9130   40.7060 C   0  0  0  0  0  0  0  0  0  0  0  0
   38.4250   31.9230   40.6230 C   0  0  0  0  0  0  0  0  0  0  0  0
   37.7900   33.0990   40.3470 C   0  0  0  0  0  0  0  0  0  0  0  0
   38.5330   34.2680   40.1530 C   0  0  0  0  0  0  0  0  0  0  0  0
   37.1330   28.5900   41.0450 C   0  0  0  0  0  0  0  0  0  0  0  0
   36.0530   29.4120   41.2320 N   0  0  0  0  0  0  0  0  0  0  0  0
   36.3970   30.6550   41.1030 O   0  0  0  0  0  0  0  0  0  0  0  0
   37.7020   30.7010   40.8290 C   0  0  0  0  0  0  0  0  0  0  0  0
   38.1540   29.4320   40.7940 N   0  0  0  0  0  0  0  0  0  0  0  0
   37.0260   25.0980   42.2540 C   0  0  0  0  0  0  0  0  0  0  0  0
   36.7400   24.4300   41.0630 C   0  0  0  0  0  0  0  0  0  0  0  0
   36.5880   25.1720   39.8730 C   0  0  0  0  0  0  0  0  0  0  0  0
   36.7360   26.5350   39.9690 N   0  0  0  0  0  0  0  0  0  0  0  0
   37.0130   27.1380   41.1370 C   0  0  0  0  0  0  0  0  0  0  0  0
   37.1560   26.4240   42.2740 N   0  0  0  0  0  0  0  0  0  0  0  0
   40.8540   35.7120   39.9620 S   0  0  0  0  0  0  0  0  0  0  0  0
   41.5390   35.5550   38.6450 O   0  0  0  0  0  0  0  0  0  0  0  0
   39.9040   36.8940   39.8740 O   0  0  0  0  0  0  0  0  0  0  0  0
   41.9130   35.8940   41.3290 C   0  0  0  0  0  0  0  0  0  0  0  0
   41.7820   36.8780   42.2910 C   0  0  0  0  0  0  0  0  0  0  0  0
   42.7090   36.8840   43.3150 C   0  0  0  0  0  0  0  0  0  0  0  0
   43.7180   36.0110   43.4390 N   0  0  0  0  0  0  0  0  0  0  0  0
   43.8010   35.0690   42.4700 C   0  0  0  0  0  0  0  0  0  0  0  0
   42.9290   34.9890   41.4230 N   0  0  0  0  0  0  0  0  0  0  0  0
   41.6212   33.0366   40.5819 H   0  0  0  0  0  0  0  0  0  0  0  0
   40.3102   30.9711   40.9300 H   0  0  0  0  0  0  0  0  0  0  0  0
   36.6926   33.1276   40.2770 H   0  0  0  0  0  0  0  0  0  0  0  0
   38.0128   35.2114   39.9306 H   0  0  0  0  0  0  0  0  0  0  0  0
   37.1453   24.5247   43.1852 H   0  0  0  0  0  0  0  0  0  0  0  0
   36.6341   23.3352   41.0521 H   0  0  0  0  0  0  0  0  0  0  0  0
   36.3618   24.6831   38.9140 H   0  0  0  0  0  0  0  0  0  0  0  0
   40.9748   37.6237   42.2431 H   0  0  0  0  0  0  0  0  0  0  0  0
   42.6118   37.6629   44.0856 H   0  0  0  0  0  0  0  0  0  0  0  0
   44.6134   34.3298   42.5296 H   0  0  0  0  0  0  0  0  0  0  0  0
  1  2  2  0
  2  3  1  0
  4  3  2  0
  4 10  1  0
  5  4  1  0
  6  1  1  0
  6  5  2  0
  7 16  1  0
  7  8  2  0
  9  8  1  0
 10  9  1  0
 11 10  2  0
 11  7  1  0
 12 17  2  0
 13 12  1  0
 14 15  1  0
 14 13  2  0
 15 16  2  0
 16 17  1  0
 18  1  1  0
 18 21  1  0
 19 18  2  0
 20 18  2  0
 21 26  1  0
 21 22  2  0
 22 23  1  0
 23 24  2  0
 25 24  1  0
 26 25  2  0
  2 27  1  0
  3 28  1  0
  5 29  1  0
  6 30  1  0
 12 31  1  0
 13 32  1  0
 14 33  1  0
 22 34  1  0
 23 35  1  0
 25 36  1  0
M  ISO  8  27  14  28  14  29  14  30  14  31  14  32  14  33  14  34  14
M  ISO  2  35  14  36  14
M  END
>  <minimizedAffinity>  (1) 
-6.88874817

>  <minimizedRMSD>  (1) 
1.30754614

$$$$
