
     RDKit          3D

 35 38  0  0  0  0  0  0  0  0999 V2000
   39.7700   34.2090   40.2470 C   0  0  0  0  0  0  0  0  0  0  0  0
   40.3890   33.0410   40.5520 C   0  0  0  0  0  0  0  0  0  0  0  0
   39.6640   31.8700   40.7210 C   0  0  0  0  0  0  0  0  0  0  0  0
   38.3060   31.8560   40.5840 C   0  0  0  0  0  0  0  0  0  0  0  0
   37.6630   33.0200   40.2760 C   0  0  0  0  0  0  0  0  0  0  0  0
   38.4000   34.1960   40.1080 C   0  0  0  0  0  0  0  0  0  0  0  0
   37.0620   28.5030   41.0040 C   0  0  0  0  0  0  0  0  0  0  0  0
   35.9580   29.3040   41.1060 N   0  0  0  0  0  0  0  0  0  0  0  0
   36.2810   30.5560   40.9690 O   0  0  0  0  0  0  0  0  0  0  0  0
   37.6040   30.6180   40.7740 C   0  0  0  0  0  0  0  0  0  0  0  0
   38.0840   29.3580   40.7960 N   0  0  0  0  0  0  0  0  0  0  0  0
   37.0170   25.0380   42.2810 C   0  0  0  0  0  0  0  0  0  0  0  0
   36.7130   24.3370   41.1120 C   0  0  0  0  0  0  0  0  0  0  0  0
   36.5340   25.0590   39.9300 C   0  0  0  0  0  0  0  0  0  0  0  0
   36.6650   26.4210   39.9790 N   0  0  0  0  0  0  0  0  0  0  0  0
   36.9590   27.0560   41.1240 C   0  0  0  0  0  0  0  0  0  0  0  0
   37.1330   26.3640   42.2720 N   0  0  0  0  0  0  0  0  0  0  0  0
   40.6990   35.6790   39.9940 S   0  0  0  0  0  0  0  0  0  0  0  0
   41.5240   35.4810   38.7650 O   0  0  0  0  0  0  0  0  0  0  0  0
   39.7350   36.8250   39.7530 O   0  0  0  0  0  0  0  0  0  0  0  0
   43.2940   35.4460   42.7560 N   0  0  0  0  0  0  0  0  0  0  0  0
   42.6270   35.0670   41.6640 N   0  0  0  0  0  0  0  0  0  0  0  0
   41.6750   36.0050   41.3920 C   0  0  0  0  0  0  0  0  0  0  0  0
   41.7680   37.0040   42.3660 C   0  0  0  0  0  0  0  0  0  0  0  0
   42.8010   36.6040   43.1990 C   0  0  0  0  0  0  0  0  0  0  0  0
   41.4828   33.0219   40.6671 H   0  0  0  0  0  0  0  0  0  0  0  0
   40.1923   30.9377   40.9694 H   0  0  0  0  0  0  0  0  0  0  0  0
   36.5692   33.0326   40.1604 H   0  0  0  0  0  0  0  0  0  0  0  0
   37.8748   35.1301   39.8597 H   0  0  0  0  0  0  0  0  0  0  0  0
   37.1625   24.4870   43.2218 H   0  0  0  0  0  0  0  0  0  0  0  0
   36.6167   23.2413   41.1220 H   0  0  0  0  0  0  0  0  0  0  0  0
   36.2944   24.5477   38.9860 H   0  0  0  0  0  0  0  0  0  0  0  0
   44.0695   34.9251   43.1898 H   0  0  0  0  0  0  0  0  0  0  0  0
   41.1534   37.9122   42.4525 H   0  0  0  0  0  0  0  0  0  0  0  0
   43.1571   37.1530   44.0832 H   0  0  0  0  0  0  0  0  0  0  0  0
  1  2  2  0
  2  3  1  0
  4  3  2  0
  4 10  1  0
  5  4  1  0
  6  1  1  0
  6  5  2  0
  7  8  2  0
  7 16  1  0
  9  8  1  0
 10 11  2  0
 10  9  1  0
 11  7  1  0
 13 12  2  0
 14 15  2  0
 14 13  1  0
 15 16  1  0
 16 17  2  0
 17 12  1  0
 18  1  1  0
 18 23  1  0
 19 18  2  0
 20 18  2  0
 21 25  1  0
 22 21  1  0
 23 22  2  0
 23 24  1  0
 24 25  2  0
  2 26  1  0
  3 27  1  0
  5 28  1  0
  6 29  1  0
 12 30  1  0
 13 31  1  0
 14 32  1  0
 21 33  1  0
 24 34  1  0
 25 35  1  0
M  ISO  8  26  14  27  14  28  14  29  14  30  14  31  14  32  14  33   9
M  ISO  2  34  14  35  14
M  END
>  <minimizedAffinity>  (1) 
-6.83010864

>  <minimizedRMSD>  (1) 
1.02074087

$$$$
