
     RDKit          3D

 35 38  0  0  0  0  0  0  0  0999 V2000
   39.8370   34.3730   40.2740 C   0  0  0  0  0  0  0  0  0  0  0  0
   40.4640   33.2130   40.6020 C   0  0  0  0  0  0  0  0  0  0  0  0
   39.7410   32.0460   40.7930 C   0  0  0  0  0  0  0  0  0  0  0  0
   38.3810   32.0220   40.6570 C   0  0  0  0  0  0  0  0  0  0  0  0
   37.7320   33.1770   40.3280 C   0  0  0  0  0  0  0  0  0  0  0  0
   38.4660   34.3520   40.1360 C   0  0  0  0  0  0  0  0  0  0  0  0
   37.1540   28.6670   41.0820 C   0  0  0  0  0  0  0  0  0  0  0  0
   36.0730   29.4720   41.3350 N   0  0  0  0  0  0  0  0  0  0  0  0
   36.3890   30.7240   41.2120 O   0  0  0  0  0  0  0  0  0  0  0  0
   37.6890   30.7860   40.8750 C   0  0  0  0  0  0  0  0  0  0  0  0
   38.1540   29.5220   40.7960 N   0  0  0  0  0  0  0  0  0  0  0  0
   37.0820   25.1750   42.2820 C   0  0  0  0  0  0  0  0  0  0  0  0
   36.7900   24.5040   41.0720 C   0  0  0  0  0  0  0  0  0  0  0  0
   36.6280   25.2620   39.8920 C   0  0  0  0  0  0  0  0  0  0  0  0
   36.7650   26.6210   39.9890 N   0  0  0  0  0  0  0  0  0  0  0  0
   37.0430   27.2170   41.1600 C   0  0  0  0  0  0  0  0  0  0  0  0
   37.1980   26.4930   42.2900 N   0  0  0  0  0  0  0  0  0  0  0  0
   40.7580   35.8440   40.0080 S   0  0  0  0  0  0  0  0  0  0  0  0
   41.4430   35.7050   38.6940 O   0  0  0  0  0  0  0  0  0  0  0  0
   39.7960   37.0120   39.9460 O   0  0  0  0  0  0  0  0  0  0  0  0
   41.8250   36.0130   41.3740 C   0  0  0  0  0  0  0  0  0  0  0  0
   42.9470   35.2400   41.6850 C   0  0  0  0  0  0  0  0  0  0  0  0
   43.4580   35.7710   42.8690 C   0  0  0  0  0  0  0  0  0  0  0  0
   42.6220   36.8240   43.2010 C   0  0  0  0  0  0  0  0  0  0  0  0
   41.6680   36.9280   42.2820 O   0  0  0  0  0  0  0  0  0  0  0  0
   41.5579   33.1999   40.7173 H   0  0  0  0  0  0  0  0  0  0  0  0
   40.2723   31.1204   41.0594 H   0  0  0  0  0  0  0  0  0  0  0  0
   36.6379   33.1836   40.2145 H   0  0  0  0  0  0  0  0  0  0  0  0
   37.9376   35.2792   39.8691 H   0  0  0  0  0  0  0  0  0  0  0  0
   37.2122   24.6035   43.2128 H   0  0  0  0  0  0  0  0  0  0  0  0
   36.6906   23.4087   41.0505 H   0  0  0  0  0  0  0  0  0  0  0  0
   36.4002   24.7788   38.9304 H   0  0  0  0  0  0  0  0  0  0  0  0
   43.3450   34.3884   41.1137 H   0  0  0  0  0  0  0  0  0  0  0  0
   44.3422   35.4250   43.4243 H   0  0  0  0  0  0  0  0  0  0  0  0
   42.7304   37.4708   44.0841 H   0  0  0  0  0  0  0  0  0  0  0  0
  1  2  2  0
  2  3  1  0
  4  3  2  0
  4 10  1  0
  5  4  1  0
  6  1  1  0
  6  5  2  0
  7 16  1  0
  7  8  2  0
  9  8  1  0
 10  9  1  0
 11 10  2  0
 11  7  1  0
 12 17  2  0
 13 12  1  0
 14 15  1  0
 14 13  2  0
 15 16  2  0
 16 17  1  0
 18  1  1  0
 18 21  1  0
 19 18  2  0
 20 18  2  0
 21 22  2  0
 21 25  1  0
 22 23  1  0
 23 24  2  0
 25 24  1  0
  2 26  1  0
  3 27  1  0
  5 28  1  0
  6 29  1  0
 12 30  1  0
 13 31  1  0
 14 32  1  0
 22 33  1  0
 23 34  1  0
 24 35  1  0
M  ISO  8  26  14  27  14  28  14  29  14  30  14  31  14  32  14  33  14
M  ISO  2  34  14  35  14
M  END
>  <minimizedAffinity>  (1) 
-6.73375416

>  <minimizedRMSD>  (1) 
1.26159501

$$$$
