
     RDKit          3D

 34 37  0  0  0  0  0  0  0  0999 V2000
   39.8760   33.9940   40.2810 C   0  0  0  0  0  0  0  0  0  0  0  0
   40.4800   32.8300   40.6300 C   0  0  0  0  0  0  0  0  0  0  0  0
   39.7430   31.6730   40.8210 C   0  0  0  0  0  0  0  0  0  0  0  0
   38.3870   31.6650   40.6640 C   0  0  0  0  0  0  0  0  0  0  0  0
   37.7580   32.8240   40.3130 C   0  0  0  0  0  0  0  0  0  0  0  0
   38.5070   33.9900   40.1210 C   0  0  0  0  0  0  0  0  0  0  0  0
   37.0940   28.3310   41.0810 C   0  0  0  0  0  0  0  0  0  0  0  0
   36.0260   29.1550   41.3260 N   0  0  0  0  0  0  0  0  0  0  0  0
   36.3720   30.3990   41.2050 O   0  0  0  0  0  0  0  0  0  0  0  0
   37.6700   30.4400   40.8780 C   0  0  0  0  0  0  0  0  0  0  0  0
   38.1160   29.1700   40.8010 N   0  0  0  0  0  0  0  0  0  0  0  0
   36.9930   24.8270   42.2380 C   0  0  0  0  0  0  0  0  0  0  0  0
   36.6650   24.1740   41.0320 C   0  0  0  0  0  0  0  0  0  0  0  0
   36.4910   24.9420   39.8820 C   0  0  0  0  0  0  0  0  0  0  0  0
   36.6510   26.2980   39.9860 N   0  0  0  0  0  0  0  0  0  0  0  0
   36.9640   26.8800   41.1550 C   0  0  0  0  0  0  0  0  0  0  0  0
   37.1340   26.1450   42.2760 N   0  0  0  0  0  0  0  0  0  0  0  0
   40.8240   35.4480   40.0070 S   0  0  0  0  0  0  0  0  0  0  0  0
   41.5260   35.2820   38.7020 O   0  0  0  0  0  0  0  0  0  0  0  0
   39.8730   36.6290   39.9000 O   0  0  0  0  0  0  0  0  0  0  0  0
   41.9570   35.7370   41.3220 C   0  0  0  0  0  0  0  0  0  0  0  0
   43.1410   34.9290   41.5150 C   0  0  0  0  0  0  0  0  0  0  0  0
   43.8850   35.6990   42.9970 S   0  0  0  0  0  0  0  0  0  0  0  0
   42.4700   36.9670   43.0870 C   0  0  0  0  0  0  0  0  0  0  0  0
   41.7770   36.7080   42.1950 N   0  0  0  0  0  0  0  0  0  0  0  0
   41.5716   32.8050   40.7632 H   0  0  0  0  0  0  0  0  0  0  0  0
   40.2595   30.7440   41.1042 H   0  0  0  0  0  0  0  0  0  0  0  0
   36.6660   32.8415   40.1815 H   0  0  0  0  0  0  0  0  0  0  0  0
   37.9939   34.9207   39.8371 H   0  0  0  0  0  0  0  0  0  0  0  0
   37.1332   24.2374   43.1560 H   0  0  0  0  0  0  0  0  0  0  0  0
   36.5488   23.0806   40.9995 H   0  0  0  0  0  0  0  0  0  0  0  0
   36.2332   24.4734   38.9208 H   0  0  0  0  0  0  0  0  0  0  0  0
   43.5004   34.0737   40.9239 H   0  0  0  0  0  0  0  0  0  0  0  0
   42.3381   37.7715   43.8255 H   0  0  0  0  0  0  0  0  0  0  0  0
  1  2  2  0
  2  3  1  0
  4  3  2  0
  4 10  1  0
  5  4  1  0
  6  1  1  0
  6  5  2  0
  7 16  1  0
  7  8  2  0
  9  8  1  0
 10  9  1  0
 11 10  2  0
 11  7  1  0
 12 17  2  0
 13 12  1  0
 14 15  1  0
 14 13  2  0
 15 16  2  0
 16 17  1  0
 18  1  1  0
 18 21  1  0
 19 18  2  0
 20 18  2  0
 21 22  2  0
 21 25  1  0
 22 23  1  0
 23 24  1  0
 25 24  2  0
  2 26  1  0
  3 27  1  0
  5 28  1  0
  6 29  1  0
 12 30  1  0
 13 31  1  0
 14 32  1  0
 22 33  1  0
 24 34  1  0
M  ISO  8  26  14  27  14  28  14  29  14  30  14  31  14  32  14  33  14
M  ISO  1  34  14
M  END
>  <minimizedAffinity>  (1) 
-6.63064575

>  <minimizedRMSD>  (1) 
1.23152494

$$$$
