
     RDKit          3D

 44 47  0  0  0  0  0  0  0  0999 V2000
   40.0710   34.1150   40.1330 C   0  0  0  0  0  0  0  0  0  0  0  0
   40.6360   32.8770   40.1270 C   0  0  0  0  0  0  0  0  0  0  0  0
   39.8830   31.7340   40.3270 C   0  0  0  0  0  0  0  0  0  0  0  0
   38.5380   31.8160   40.5380 C   0  0  0  0  0  0  0  0  0  0  0  0
   37.9470   33.0440   40.5480 C   0  0  0  0  0  0  0  0  0  0  0  0
   38.7110   34.1970   40.3460 C   0  0  0  0  0  0  0  0  0  0  0  0
   37.1630   28.5170   40.9840 C   0  0  0  0  0  0  0  0  0  0  0  0
   36.1010   29.3570   41.1330 N   0  0  0  0  0  0  0  0  0  0  0  0
   36.4730   30.5940   40.9930 O   0  0  0  0  0  0  0  0  0  0  0  0
   37.7820   30.6120   40.7470 C   0  0  0  0  0  0  0  0  0  0  0  0
   38.2050   29.3330   40.7410 N   0  0  0  0  0  0  0  0  0  0  0  0
   36.9810   25.0420   42.2290 C   0  0  0  0  0  0  0  0  0  0  0  0
   36.6760   24.3540   41.0370 C   0  0  0  0  0  0  0  0  0  0  0  0
   36.5460   25.0970   39.8680 C   0  0  0  0  0  0  0  0  0  0  0  0
   36.7190   26.4520   39.9300 N   0  0  0  0  0  0  0  0  0  0  0  0
   37.0110   27.0690   41.0960 C   0  0  0  0  0  0  0  0  0  0  0  0
   37.1440   26.3750   42.2480 N   0  0  0  0  0  0  0  0  0  0  0  0
   41.0330   35.5510   39.8270 S   0  0  0  0  0  0  0  0  0  0  0  0
   41.7670   35.3380   38.5480 O   0  0  0  0  0  0  0  0  0  0  0  0
   40.1010   36.7350   39.6690 O   0  0  0  0  0  0  0  0  0  0  0  0
   42.1260   35.7770   41.1710 C   0  0  0  0  0  0  0  0  0  0  0  0
   42.7800   34.5120   41.6140 C   0  0  0  0  0  0  0  0  0  0  0  0
   43.8270   34.8770   42.6520 C   0  0  0  0  0  0  0  0  0  0  0  0
   43.9620   36.3650   42.8510 C   0  0  0  0  0  0  0  0  0  0  0  0
   42.6770   37.0670   43.1460 C   0  0  0  0  0  0  0  0  0  0  0  0
   41.5180   36.4400   42.3620 C   0  0  0  0  0  0  0  0  0  0  0  0
   41.7190   32.7828   39.9588 H   0  0  0  0  0  0  0  0  0  0  0  0
   40.3736   30.7495   40.3158 H   0  0  0  0  0  0  0  0  0  0  0  0
   36.8632   33.1283   40.7159 H   0  0  0  0  0  0  0  0  0  0  0  0
   38.2213   35.1819   40.3571 H   0  0  0  0  0  0  0  0  0  0  0  0
   37.0879   24.4741   43.1650 H   0  0  0  0  0  0  0  0  0  0  0  0
   36.5447   23.2619   41.0313 H   0  0  0  0  0  0  0  0  0  0  0  0
   36.3089   24.6045   38.9134 H   0  0  0  0  0  0  0  0  0  0  0  0
   42.8841   36.4572   40.7556 H   0  0  0  0  0  0  0  0  0  0  0  0
   42.0320   33.8377   42.0564 H   0  0  0  0  0  0  0  0  0  0  0  0
   43.2447   33.9971   40.7602 H   0  0  0  0  0  0  0  0  0  0  0  0
   43.5448   34.4188   43.6114 H   0  0  0  0  0  0  0  0  0  0  0  0
   44.7958   34.5033   42.2891 H   0  0  0  0  0  0  0  0  0  0  0  0
   44.6498   36.5387   43.6917 H   0  0  0  0  0  0  0  0  0  0  0  0
   44.3336   36.7764   41.9009 H   0  0  0  0  0  0  0  0  0  0  0  0
   42.4651   36.9927   44.2228 H   0  0  0  0  0  0  0  0  0  0  0  0
   42.7752   38.1205   42.8453 H   0  0  0  0  0  0  0  0  0  0  0  0
   40.8088   37.2183   42.0437 H   0  0  0  0  0  0  0  0  0  0  0  0
   40.9621   35.7193   42.9796 H   0  0  0  0  0  0  0  0  0  0  0  0
  1  6  1  0
  2  1  2  0
  2  3  1  0
  3  4  2  0
  4  5  1  0
  4 10  1  0
  6  5  2  0
  7 16  1  0
  7  8  2  0
  9  8  1  0
 10  9  1  0
 11 10  2  0
 11  7  1  0
 12 17  2  0
 13 12  1  0
 14 15  1  0
 14 13  2  0
 15 16  2  0
 16 17  1  0
 18  1  1  0
 18 21  1  0
 19 18  2  0
 20 18  2  0
 21 22  1  0
 21 26  1  0
 22 23  1  0
 23 24  1  0
 24 25  1  0
 26 25  1  0
  2 27  1  0
  3 28  1  0
  5 29  1  0
  6 30  1  0
 12 31  1  0
 13 32  1  0
 14 33  1  0
 21 34  1  0
 22 35  1  0
 22 36  1  0
 23 37  1  0
 23 38  1  0
 24 39  1  0
 24 40  1  0
 25 41  1  0
 25 42  1  0
 26 43  1  0
 26 44  1  0
M  ISO  8  27  14  28  14  29  14  30  14  31  14  32  14  33  14  34  13
M  ISO  8  35  13  36  13  37  13  38  13  39  13  40  13  41  13  42  13
M  ISO  2  43  13  44  13
M  END
>  <minimizedAffinity>  (1) 
-6.34707403

>  <minimizedRMSD>  (1) 
1.371472

$$$$
