
     RDKit          3D

 25 26  0  0  1  0  0  0  0  0999 V2000
   40.3050   28.4850   42.0730 N   0  0  0  0  0  0  0  0  0  0  0  0
   41.2510   27.5760   41.4300 C   0  0  0  0  0  0  0  0  0  0  0  0
   42.4470   27.5800   42.3740 C   0  0  0  0  0  0  0  0  0  0  0  0
   43.0820   28.8580   42.1720 N   0  0  0  0  0  0  0  0  0  0  0  0
   42.2420   29.9770   42.2980 C   0  0  0  0  0  0  0  0  0  0  0  0
   40.7900   29.7330   42.5450 C   0  0  1  0  0  0  0  0  0  0  0  0
   38.9280   28.1960   42.2640 C   0  0  0  0  0  0  0  0  0  0  0  0
   38.0270   28.0030   41.2220 C   0  0  0  0  0  0  0  0  0  0  0  0
   36.7030   27.7290   41.5690 C   0  0  0  0  0  0  0  0  0  0  0  0
   36.3570   27.6650   42.8950 N   0  0  0  0  0  0  0  0  0  0  0  0
   37.2650   27.8600   43.8720 C   0  0  0  0  0  0  0  0  0  0  0  0
   38.5450   28.1240   43.5690 N   0  0  0  0  0  0  0  0  0  0  0  0
   39.8650   31.1790   42.0260 S   0  0  0  0  0  0  0  0  0  0  0  0
   40.8255   26.5657   41.3390 H   0  0  0  0  0  0  0  0  0  0  0  0
   41.5122   27.8836   40.4067 H   0  0  0  0  0  0  0  0  0  0  0  0
   42.1154   27.4744   43.4175 H   0  0  0  0  0  0  0  0  0  0  0  0
   43.1325   26.7434   42.1734 H   0  0  0  0  0  0  0  0  0  0  0  0
   43.4825   28.8670   41.2231 H   0  0  0  0  0  0  0  0  0  0  0  0
   42.6209   30.5789   43.1371 H   0  0  0  0  0  0  0  0  0  0  0  0
   42.2775   30.4625   41.3116 H   0  0  0  0  0  0  0  0  0  0  0  0
   40.6318   29.6084   43.6264 H   0  0  0  0  0  0  0  0  0  0  0  0
   38.3440   28.0636   40.1704 H   0  0  0  0  0  0  0  0  0  0  0  0
   35.9456   27.5662   40.7881 H   0  0  0  0  0  0  0  0  0  0  0  0
   36.9542   27.8022   44.9256 H   0  0  0  0  0  0  0  0  0  0  0  0
   39.4280   31.8621   43.1302 H   0  0  0  0  0  0  0  0  0  0  0  0
  1  7  1  0
  1  6  1  0
  2  1  1  0
  2  3  1  0
  4  5  1  0
  4  3  1  0
  5  6  1  0
  7 12  2  0
  8  9  2  0
  8  7  1  0
  9 10  1  0
 10 11  2  0
 12 11  1  0
 13  6  1  0
  2 14  1  0
  2 15  1  0
  3 16  1  0
  3 17  1  0
  4 18  1  0
  5 19  1  0
  5 20  1  0
  6 21  1  1
  8 22  1  0
  9 23  1  0
 11 24  1  0
 13 25  1  0
M  ISO  8  14  13  15  13  16  13  17  13  18   5  19  13  20  13  21  13
M  ISO  4  22  14  23  14  24  14  25  11
M  END
>  <minimizedAffinity>  (1) 
-2.78841519

>  <minimizedRMSD>  (1) 
2.52402401

$$$$
