
     RDKit          3D

 31 33  0  0  0  0  0  0  0  0999 V2000
   39.5780   34.7610   40.3030 C   0  0  0  0  0  0  0  0  0  0  0  0
   40.1920   33.6530   40.7940 C   0  0  0  0  0  0  0  0  0  0  0  0
   39.5160   32.4530   40.9320 C   0  0  0  0  0  0  0  0  0  0  0  0
   38.2030   32.3480   40.5740 C   0  0  0  0  0  0  0  0  0  0  0  0
   37.5630   33.4460   40.0780 C   0  0  0  0  0  0  0  0  0  0  0  0
   38.2530   34.6550   39.9420 C   0  0  0  0  0  0  0  0  0  0  0  0
   37.0470   28.9600   40.9520 C   0  0  0  0  0  0  0  0  0  0  0  0
   35.9230   29.7100   40.9700 N   0  0  0  0  0  0  0  0  0  0  0  0
   36.2020   30.9740   40.8410 O   0  0  0  0  0  0  0  0  0  0  0  0
   37.5300   31.0890   40.7330 C   0  0  0  0  0  0  0  0  0  0  0  0
   38.0550   29.8480   40.8010 N   0  0  0  0  0  0  0  0  0  0  0  0
   37.1540   25.4880   42.2340 C   0  0  0  0  0  0  0  0  0  0  0  0
   36.8750   24.7780   41.0660 C   0  0  0  0  0  0  0  0  0  0  0  0
   36.6590   25.4890   39.8760 C   0  0  0  0  0  0  0  0  0  0  0  0
   36.7340   26.8550   39.9300 N   0  0  0  0  0  0  0  0  0  0  0  0
   37.0050   27.5000   41.0820 C   0  0  0  0  0  0  0  0  0  0  0  0
   37.2160   26.8220   42.2310 N   0  0  0  0  0  0  0  0  0  0  0  0
   40.4650   36.2680   40.0970 S   0  0  0  0  0  0  0  0  0  0  0  0
   41.2610   36.1410   38.8380 O   0  0  0  0  0  0  0  0  0  0  0  0
   39.4600   37.3940   39.9170 O   0  0  0  0  0  0  0  0  0  0  0  0
   41.4050   36.5090   41.5620 C   0  0  0  0  0  0  0  0  0  0  0  0
   41.2503   33.7108   41.0885 H   0  0  0  0  0  0  0  0  0  0  0  0
   40.0424   31.5749   41.3343 H   0  0  0  0  0  0  0  0  0  0  0  0
   36.5047   33.3805   39.7852 H   0  0  0  0  0  0  0  0  0  0  0  0
   37.7293   35.5350   39.5404 H   0  0  0  0  0  0  0  0  0  0  0  0
   37.3257   24.9403   43.1724 H   0  0  0  0  0  0  0  0  0  0  0  0
   36.8252   23.6792   41.0779 H   0  0  0  0  0  0  0  0  0  0  0  0
   36.4373   24.9676   38.9332 H   0  0  0  0  0  0  0  0  0  0  0  0
   40.7636   36.3446   42.4404 H   0  0  0  0  0  0  0  0  0  0  0  0
   42.2430   35.7966   41.5813 H   0  0  0  0  0  0  0  0  0  0  0  0
   41.7968   37.5367   41.5813 H   0  0  0  0  0  0  0  0  0  0  0  0
  1  2  2  0
  2  3  1  0
  4 10  1  0
  4  3  2  0
  5  4  1  0
  6  5  2  0
  6  1  1  0
  7  8  2  0
  7 16  1  0
  9  8  1  0
 10 11  2  0
 10  9  1  0
 11  7  1  0
 13 12  2  0
 14 15  2  0
 14 13  1  0
 15 16  1  0
 16 17  2  0
 17 12  1  0
 18  1  1  0
 18 21  1  0
 19 18  2  0
 20 18  2  0
  2 22  1  0
  3 23  1  0
  5 24  1  0
  6 25  1  0
 12 26  1  0
 13 27  1  0
 14 28  1  0
 21 29  1  0
 21 30  1  0
 21 31  1  0
M  ISO  8  22  14  23  14  24  14  25  14  26  14  27  14  28  14  29   8
M  ISO  2  30   8  31   8
M  END
>  <minimizedAffinity>  (1) 
-5.65764809

>  <minimizedRMSD>  (1) 
0.927636445

$$$$
