
     RDKit          3D

 34 36  0  0  0  0  0  0  0  0999 V2000
   39.8930   34.0200   40.3840 C   0  0  0  0  0  0  0  0  0  0  0  0
   40.4820   32.8570   40.7790 C   0  0  0  0  0  0  0  0  0  0  0  0
   39.7490   31.6930   40.9310 C   0  0  0  0  0  0  0  0  0  0  0  0
   38.4050   31.6780   40.6880 C   0  0  0  0  0  0  0  0  0  0  0  0
   37.7930   32.8310   40.2920 C   0  0  0  0  0  0  0  0  0  0  0  0
   38.5350   34.0070   40.1390 C   0  0  0  0  0  0  0  0  0  0  0  0
   37.0730   28.3550   41.0640 C   0  0  0  0  0  0  0  0  0  0  0  0
   36.0040   29.1710   41.2070 N   0  0  0  0  0  0  0  0  0  0  0  0
   36.3560   30.4130   41.0900 O   0  0  0  0  0  0  0  0  0  0  0  0
   37.6780   30.4510   40.8660 C   0  0  0  0  0  0  0  0  0  0  0  0
   38.1340   29.1820   40.8470 N   0  0  0  0  0  0  0  0  0  0  0  0
   36.9850   24.8480   42.2370 C   0  0  0  0  0  0  0  0  0  0  0  0
   36.6670   24.1900   41.0500 C   0  0  0  0  0  0  0  0  0  0  0  0
   36.4910   24.9380   39.8890 C   0  0  0  0  0  0  0  0  0  0  0  0
   36.6440   26.2970   39.9930 N   0  0  0  0  0  0  0  0  0  0  0  0
   36.9520   26.9010   41.1520 C   0  0  0  0  0  0  0  0  0  0  0  0
   37.1230   26.1780   42.2810 N   0  0  0  0  0  0  0  0  0  0  0  0
   40.8460   35.4790   40.1480 S   0  0  0  0  0  0  0  0  0  0  0  0
   41.4080   35.4260   38.7660 O   0  0  0  0  0  0  0  0  0  0  0  0
   39.9210   36.6820   40.2450 O   0  0  0  0  0  0  0  0  0  0  0  0
   42.0560   35.5530   41.4360 C   0  0  0  0  0  0  0  0  0  0  0  0
   41.9300   36.7910   42.2680 C   0  0  0  0  0  0  0  0  0  0  0  0
   41.5631   32.8427   40.9814 H   0  0  0  0  0  0  0  0  0  0  0  0
   40.2543   30.7698   41.2510 H   0  0  0  0  0  0  0  0  0  0  0  0
   36.7113   32.8361   40.0921 H   0  0  0  0  0  0  0  0  0  0  0  0
   38.0307   34.9311   39.8200 H   0  0  0  0  0  0  0  0  0  0  0  0
   37.1254   24.2614   43.1569 H   0  0  0  0  0  0  0  0  0  0  0  0
   36.5567   23.0957   41.0309 H   0  0  0  0  0  0  0  0  0  0  0  0
   36.2403   24.4601   38.9305 H   0  0  0  0  0  0  0  0  0  0  0  0
   41.9322   34.6755   42.0877 H   0  0  0  0  0  0  0  0  0  0  0  0
   43.0488   35.5671   40.9626 H   0  0  0  0  0  0  0  0  0  0  0  0
   41.9575   36.5208   43.3339 H   0  0  0  0  0  0  0  0  0  0  0  0
   42.7635   37.4719   42.0407 H   0  0  0  0  0  0  0  0  0  0  0  0
   40.9764   37.2900   42.0407 H   0  0  0  0  0  0  0  0  0  0  0  0
  1  2  2  0
  2  3  1  0
  4 10  1  0
  4  3  2  0
  5  4  1  0
  6  5  2  0
  6  1  1  0
  7 16  1  0
  7  8  2  0
  9  8  1  0
 10  9  1  0
 11 10  2  0
 11  7  1  0
 12 17  2  0
 13 12  1  0
 14 15  1  0
 14 13  2  0
 15 16  2  0
 16 17  1  0
 18 20  2  0
 18  1  1  0
 18 21  1  0
 19 18  2  0
 21 22  1  0
  2 23  1  0
  3 24  1  0
  5 25  1  0
  6 26  1  0
 12 27  1  0
 13 28  1  0
 14 29  1  0
 21 30  1  0
 21 31  1  0
 22 32  1  0
 22 33  1  0
 22 34  1  0
M  ISO  8  23  14  24  14  25  14  26  14  27  14  28  14  29  14  30   8
M  ISO  4  31   8  32   8  33   8  34   8
M  END
>  <minimizedAffinity>  (1) 
-5.62493563

>  <minimizedRMSD>  (1) 
0.869400203

$$$$
