
     RDKit          3D

 41 44  0  0  0  0  0  0  0  0999 V2000
   39.9250   33.7910   40.1800 C   0  0  0  0  0  0  0  0  0  0  0  0
   40.1830   32.4620   40.0430 C   0  0  0  0  0  0  0  0  0  0  0  0
   39.1680   31.5400   39.8550 C   0  0  0  0  0  0  0  0  0  0  0  0
   37.8660   31.9430   39.8010 C   0  0  0  0  0  0  0  0  0  0  0  0
   37.5850   33.2700   39.9350 C   0  0  0  0  0  0  0  0  0  0  0  0
   38.6070   34.2020   40.1260 C   0  0  0  0  0  0  0  0  0  0  0  0
   35.4500   29.4860   38.7660 C   0  0  0  0  0  0  0  0  0  0  0  0
   35.1990   29.6770   40.0810 N   0  0  0  0  0  0  0  0  0  0  0  0
   36.0140   30.5530   40.5800 O   0  0  0  0  0  0  0  0  0  0  0  0
   36.8290   30.9690   39.6100 C   0  0  0  0  0  0  0  0  0  0  0  0
   36.4840   30.3120   38.4850 N   0  0  0  0  0  0  0  0  0  0  0  0
   34.1570   26.4740   37.0460 C   0  0  0  0  0  0  0  0  0  0  0  0
   33.0590   27.0030   36.3740 C   0  0  0  0  0  0  0  0  0  0  0  0
   32.7930   28.3610   36.5270 C   0  0  0  0  0  0  0  0  0  0  0  0
   33.6170   29.1050   37.3230 N   0  0  0  0  0  0  0  0  0  0  0  0
   34.6710   28.5450   37.9530 C   0  0  0  0  0  0  0  0  0  0  0  0
   34.9520   27.2280   37.8230 N   0  0  0  0  0  0  0  0  0  0  0  0
   41.2410   34.9450   40.3660 S   0  0  0  0  0  0  0  0  0  0  0  0
   41.5860   35.4470   39.0020 O   0  0  0  0  0  0  0  0  0  0  0  0
   40.7340   36.1130   41.1960 O   0  0  0  0  0  0  0  0  0  0  0  0
   42.5470   34.1160   41.1850 C   0  0  0  0  0  0  0  0  0  0  0  0
   43.1670   35.0890   42.1620 C   0  0  0  0  0  0  0  0  0  0  0  0
   44.6070   35.2640   41.7850 C   0  0  0  0  0  0  0  0  0  0  0  0
   44.8580   34.4790   40.5280 C   0  0  0  0  0  0  0  0  0  0  0  0
   43.6410   33.6300   40.2700 C   0  0  0  0  0  0  0  0  0  0  0  0
   41.2249   32.1114   40.0827 H   0  0  0  0  0  0  0  0  0  0  0  0
   39.4134   30.4731   39.7482 H   0  0  0  0  0  0  0  0  0  0  0  0
   36.5400   33.6109   39.8921 H   0  0  0  0  0  0  0  0  0  0  0  0
   38.3616   35.2688   40.2340 H   0  0  0  0  0  0  0  0  0  0  0  0
   34.3813   25.4026   36.9372 H   0  0  0  0  0  0  0  0  0  0  0  0
   32.4212   26.3679   35.7417 H   0  0  0  0  0  0  0  0  0  0  0  0
   31.9363   28.8257   36.0170 H   0  0  0  0  0  0  0  0  0  0  0  0
   42.1109   33.2274   41.6647 H   0  0  0  0  0  0  0  0  0  0  0  0
   42.6461   36.0563   42.1079 H   0  0  0  0  0  0  0  0  0  0  0  0
   43.0833   34.7063   43.1899 H   0  0  0  0  0  0  0  0  0  0  0  0
   44.8198   36.3287   41.6087 H   0  0  0  0  0  0  0  0  0  0  0  0
   45.2597   34.9064   42.5950 H   0  0  0  0  0  0  0  0  0  0  0  0
   45.0224   35.1650   39.6840 H   0  0  0  0  0  0  0  0  0  0  0  0
   45.7524   33.8482   40.6388 H   0  0  0  0  0  0  0  0  0  0  0  0
   43.3266   33.7333   39.2209 H   0  0  0  0  0  0  0  0  0  0  0  0
   43.8616   32.5691   40.4595 H   0  0  0  0  0  0  0  0  0  0  0  0
  1 18  1  0
  2  1  2  0
  3  2  1  0
  4  3  2  0
  4  5  1  0
  5  6  2  0
  6  1  1  0
  7  8  2  0
  8  9  1  0
 10  4  1  0
 10  9  1  0
 11  7  1  0
 11 10  2  0
 12 17  2  0
 13 14  2  0
 13 12  1  0
 14 15  1  0
 15 16  2  0
 16  7  1  0
 17 16  1  0
 18 21  1  0
 18 20  2  0
 19 18  2  0
 21 22  1  0
 23 22  1  0
 24 23  1  0
 25 24  1  0
 25 21  1  0
  2 26  1  0
  3 27  1  0
  5 28  1  0
  6 29  1  0
 12 30  1  0
 13 31  1  0
 14 32  1  0
 21 33  1  0
 22 34  1  0
 22 35  1  0
 23 36  1  0
 23 37  1  0
 24 38  1  0
 24 39  1  0
 25 40  1  0
 25 41  1  0
M  ISO  8  26  14  27  14  28  14  29  14  30  14  31  14  32  14  33  13
M  ISO  8  34  13  35  13  36  13  37  13  38  13  39  13  40  13  41  13
M  END
>  <minimizedAffinity>  (1) 
-5.5179863

>  <minimizedRMSD>  (1) 
3.29512358

$$$$
