
     RDKit          3D

 35 38  0  0  0  0  0  0  0  0999 V2000
   39.0800   34.1240   40.3730 C   0  0  0  0  0  0  0  0  0  0  0  0
   39.6840   33.0740   40.9960 C   0  0  0  0  0  0  0  0  0  0  0  0
   39.0640   31.8430   41.0990 C   0  0  0  0  0  0  0  0  0  0  0  0
   37.8190   31.6400   40.5760 C   0  0  0  0  0  0  0  0  0  0  0  0
   37.1970   32.6780   39.9470 C   0  0  0  0  0  0  0  0  0  0  0  0
   37.8230   33.9220   39.8440 C   0  0  0  0  0  0  0  0  0  0  0  0
   36.8060   28.2010   40.8810 C   0  0  0  0  0  0  0  0  0  0  0  0
   35.6510   28.9020   40.9280 N   0  0  0  0  0  0  0  0  0  0  0  0
   35.8800   30.1760   40.8250 O   0  0  0  0  0  0  0  0  0  0  0  0
   37.2010   30.3510   40.7080 C   0  0  0  0  0  0  0  0  0  0  0  0
   37.7810   29.1330   40.7410 N   0  0  0  0  0  0  0  0  0  0  0  0
   37.0800   24.7130   42.0920 C   0  0  0  0  0  0  0  0  0  0  0  0
   36.7960   24.0070   40.9030 C   0  0  0  0  0  0  0  0  0  0  0  0
   36.5260   24.7420   39.7500 C   0  0  0  0  0  0  0  0  0  0  0  0
   36.5480   26.1000   39.8300 N   0  0  0  0  0  0  0  0  0  0  0  0
   36.8220   26.7440   40.9770 C   0  0  0  0  0  0  0  0  0  0  0  0
   37.0870   26.0520   42.1070 N   0  0  0  0  0  0  0  0  0  0  0  0
   39.9090   35.6650   40.2120 S   0  0  0  0  0  0  0  0  0  0  0  0
   40.9200   35.5120   39.1190 O   0  0  0  0  0  0  0  0  0  0  0  0
   38.8920   36.7100   39.7760 O   0  0  0  0  0  0  0  0  0  0  0  0
   40.6860   36.1750   41.7120 C   0  0  0  0  0  0  0  0  0  0  0  0
   42.1650   35.8850   41.8730 C   0  0  0  0  0  0  0  0  0  0  0  0
   41.6950   37.2760   41.6920 C   0  0  0  0  0  0  0  0  0  0  0  0
   40.6872   33.2087   41.4266 H   0  0  0  0  0  0  0  0  0  0  0  0
   39.5801   31.0162   41.6088 H   0  0  0  0  0  0  0  0  0  0  0  0
   36.1946   32.5342   39.5175 H   0  0  0  0  0  0  0  0  0  0  0  0
   37.3075   34.7499   39.3352 H   0  0  0  0  0  0  0  0  0  0  0  0
   37.2979   24.1573   43.0160 H   0  0  0  0  0  0  0  0  0  0  0  0
   36.7880   22.9071   40.8869 H   0  0  0  0  0  0  0  0  0  0  0  0
   36.3008   24.2368   38.7992 H   0  0  0  0  0  0  0  0  0  0  0  0
   39.7680   35.9803   42.2860 H   0  0  0  0  0  0  0  0  0  0  0  0
   42.5594   35.5595   42.8469 H   0  0  0  0  0  0  0  0  0  0  0  0
   42.8915   35.2356   41.3626 H   0  0  0  0  0  0  0  0  0  0  0  0
   41.9066   37.8062   40.7517 H   0  0  0  0  0  0  0  0  0  0  0  0
   41.8246   38.2120   42.2550 H   0  0  0  0  0  0  0  0  0  0  0  0
  1  2  2  0
  2  3  1  0
  4 10  1  0
  4  3  2  0
  5  4  1  0
  6  5  2  0
  6  1  1  0
  7  8  2  0
  7 16  1  0
  9  8  1  0
 10 11  2  0
 10  9  1  0
 11  7  1  0
 12 17  2  0
 13 12  1  0
 14 15  1  0
 14 13  2  0
 15 16  2  0
 16 17  1  0
 18  1  1  0
 18 21  1  0
 19 18  2  0
 20 18  2  0
 21 22  1  0
 23 21  1  0
 23 22  1  0
  2 24  1  0
  3 25  1  0
  5 26  1  0
  6 27  1  0
 12 28  1  0
 13 29  1  0
 14 30  1  0
 21 31  1  0
 22 32  1  0
 22 33  1  0
 23 34  1  0
 23 35  1  0
M  ISO  8  24  14  25  14  26  14  27  14  28  14  29  14  30  14  31  13
M  ISO  4  32  13  33  13  34  13  35  13
M  END
>  <minimizedAffinity>  (1) 
-5.50071526

>  <minimizedRMSD>  (1) 
0.474378616

$$$$
