
     RDKit          3D

 24 25  0  0  0  0  0  0  0  0999 V2000
   37.8120   29.1210   43.0700 C   0  0  0  0  0  0  0  0  0  0  0  0
   37.9280   27.7040   42.8280 N   0  0  0  0  0  0  0  0  0  0  0  0
   36.9420   26.9070   42.3960 C   0  0  0  0  0  0  0  0  0  0  0  0
   37.1270   25.5430   42.1840 C   0  0  0  0  0  0  0  0  0  0  0  0
   38.3800   24.9750   42.4270 C   0  0  0  0  0  0  0  0  0  0  0  0
   38.6010   23.5760   42.2190 N   0  0  0  0  0  0  0  0  0  0  0  0
   39.3660   25.7940   42.8640 N   0  0  0  0  0  0  0  0  0  0  0  0
   39.1170   27.1140   43.0490 C   0  0  0  0  0  0  0  0  0  0  0  0
   40.1620   27.7190   43.4610 O   0  0  0  0  0  0  0  0  0  0  0  0
   38.8570   30.2230   41.0180 C   0  0  0  0  0  0  0  0  0  0  0  0
   37.7630   29.9180   41.8270 C   0  0  0  0  0  0  0  0  0  0  0  0
   36.5080   30.4140   41.4220 C   0  0  0  0  0  0  0  0  0  0  0  0
   36.4390   31.1450   40.2890 N   0  0  0  0  0  0  0  0  0  0  0  0
   37.5210   31.4140   39.5390 C   0  0  0  0  0  0  0  0  0  0  0  0
   38.7280   30.9480   39.9120 N   0  0  0  0  0  0  0  0  0  0  0  0
   36.8896   29.3046   43.6404 H   0  0  0  0  0  0  0  0  0  0  0  0
   38.7083   29.4338   43.6257 H   0  0  0  0  0  0  0  0  0  0  0  0
   35.9518   27.3450   42.2019 H   0  0  0  0  0  0  0  0  0  0  0  0
   36.2941   24.9186   41.8285 H   0  0  0  0  0  0  0  0  0  0  0  0
   39.5292   23.1685   42.4016 H   0  0  0  0  0  0  0  0  0  0  0  0
   37.8318   22.9769   41.8868 H   0  0  0  0  0  0  0  0  0  0  0  0
   39.8532   29.8536   41.3030 H   0  0  0  0  0  0  0  0  0  0  0  0
   35.6046   30.2102   42.0156 H   0  0  0  0  0  0  0  0  0  0  0  0
   37.4209   32.0136   38.6223 H   0  0  0  0  0  0  0  0  0  0  0  0
  2  8  1  0
  2  1  1  0
  3  2  1  0
  4  3  2  0
  4  5  1  0
  5  7  2  0
  6  5  1  0
  7  8  1  0
  8  9  2  0
 10 11  2  0
 11  1  1  0
 12 11  1  0
 13 12  2  0
 14 15  2  0
 14 13  1  0
 15 10  1  0
  1 16  1  0
  1 17  1  0
  3 18  1  0
  4 19  1  0
  6 20  1  0
  6 21  1  0
 10 22  1  0
 12 23  1  0
 14 24  1  0
M  ISO  7  16   8  17   8  18  14  19  14  22  14  23  14  24  14
M  END
>  <minimizedAffinity>  (1) 
-4.2619338

>  <minimizedRMSD>  (1) 
2.63186145

$$$$
