
     RDKit          3D

 23 24  0  0  0  0  0  0  0  0999 V2000
   35.8520   29.7850   40.9180 C   0  0  0  0  0  0  0  0  0  0  0  0
   37.8980   29.6100   42.4420 C   0  0  0  0  0  0  0  0  0  0  0  0
   36.8390   29.0370   41.7270 C   0  0  0  0  0  0  0  0  0  0  0  0
   36.7050   27.6300   41.7870 C   0  0  0  0  0  0  0  0  0  0  0  0
   37.6020   26.9280   42.5260 N   0  0  0  0  0  0  0  0  0  0  0  0
   38.6010   27.5190   43.1920 C   0  0  0  0  0  0  0  0  0  0  0  0
   38.7480   28.8530   43.1510 N   0  0  0  0  0  0  0  0  0  0  0  0
   36.4920   30.4840   39.7720 C   0  0  0  0  0  0  0  0  0  0  0  0
   36.7490   29.8550   38.5710 C   0  0  0  0  0  0  0  0  0  0  0  0
   37.3400   30.4670   37.4860 C   0  0  0  0  0  0  0  0  0  0  0  0
   37.6900   31.7930   37.6250 C   0  0  0  0  0  0  0  0  0  0  0  0
   37.4330   32.4300   38.8290 C   0  0  0  0  0  0  0  0  0  0  0  0
   36.8390   31.8140   39.9200 C   0  0  0  0  0  0  0  0  0  0  0  0
   35.1017   29.0799   40.5308 H   0  0  0  0  0  0  0  0  0  0  0  0
   35.3860   30.5438   41.5637 H   0  0  0  0  0  0  0  0  0  0  0  0
   38.0351   30.7012   42.4217 H   0  0  0  0  0  0  0  0  0  0  0  0
   35.8943   27.1175   41.2484 H   0  0  0  0  0  0  0  0  0  0  0  0
   39.3055   26.9087   43.7761 H   0  0  0  0  0  0  0  0  0  0  0  0
   36.4640   28.7971   38.4729 H   0  0  0  0  0  0  0  0  0  0  0  0
   37.5243   29.9204   36.5494 H   0  0  0  0  0  0  0  0  0  0  0  0
   38.1650   32.3363   36.7948 H   0  0  0  0  0  0  0  0  0  0  0  0
   37.7175   33.4882   38.9247 H   0  0  0  0  0  0  0  0  0  0  0  0
   36.6528   32.3574   40.8581 H   0  0  0  0  0  0  0  0  0  0  0  0
  1  3  1  0
  2  7  2  0
  3  4  2  0
  3  2  1  0
  4  5  1  0
  5  6  2  0
  7  6  1  0
  8 13  1  0
  8  1  1  0
  9  8  2  0
 10 11  2  0
 10  9  1  0
 11 12  1  0
 12 13  2  0
  1 14  1  0
  1 15  1  0
  2 16  1  0
  4 17  1  0
  6 18  1  0
  9 19  1  0
 10 20  1  0
 11 21  1  0
 12 22  1  0
 13 23  1  0
M  ISO  8  14   8  15   8  16  14  17  14  18  14  19  14  20  14  21  14
M  ISO  2  22  14  23  14
M  END
>  <minimizedAffinity>  (1) 
-4.17103243

>  <minimizedRMSD>  (1) 
6.36165905

$$$$
