
     RDKit          3D

 23 24  0  0  0  0  0  0  0  0999 V2000
   37.7610   27.5560   43.8700 C   0  0  0  0  0  0  0  0  0  0  0  0
   38.1160   29.6560   42.4630 C   0  0  0  0  0  0  0  0  0  0  0  0
   37.4190   28.4920   42.7810 C   0  0  0  0  0  0  0  0  0  0  0  0
   36.2770   28.1680   41.9950 C   0  0  0  0  0  0  0  0  0  0  0  0
   35.9590   29.0250   40.9930 N   0  0  0  0  0  0  0  0  0  0  0  0
   36.6570   30.1320   40.7240 C   0  0  0  0  0  0  0  0  0  0  0  0
   37.7450   30.4490   41.4660 N   0  0  0  0  0  0  0  0  0  0  0  0
   38.8730   26.6520   43.4770 C   0  0  0  0  0  0  0  0  0  0  0  0
   40.1180   26.8430   44.0300 C   0  0  0  0  0  0  0  0  0  0  0  0
   41.1620   26.0170   43.6770 C   0  0  0  0  0  0  0  0  0  0  0  0
   41.0090   24.9830   42.7760 C   0  0  0  0  0  0  0  0  0  0  0  0
   39.7530   24.7760   42.2060 C   0  0  0  0  0  0  0  0  0  0  0  0
   38.7110   25.6260   42.5770 C   0  0  0  0  0  0  0  0  0  0  0  0
   38.0646   28.1329   44.7560 H   0  0  0  0  0  0  0  0  0  0  0  0
   36.8756   26.9414   44.0898 H   0  0  0  0  0  0  0  0  0  0  0  0
   39.0015   29.9259   43.0571 H   0  0  0  0  0  0  0  0  0  0  0  0
   35.6805   27.2649   42.1912 H   0  0  0  0  0  0  0  0  0  0  0  0
   36.3471   30.7881   39.8973 H   0  0  0  0  0  0  0  0  0  0  0  0
   40.2797   27.6552   44.7540 H   0  0  0  0  0  0  0  0  0  0  0  0
   42.1506   26.1871   44.1283 H   0  0  0  0  0  0  0  0  0  0  0  0
   41.8590   24.3362   42.5131 H   0  0  0  0  0  0  0  0  0  0  0  0
   39.5884   23.9637   41.4828 H   0  0  0  0  0  0  0  0  0  0  0  0
   37.7181   25.4685   42.1305 H   0  0  0  0  0  0  0  0  0  0  0  0
  2  3  2  0
  3  1  1  0
  4  3  1  0
  5  4  2  0
  6  5  1  0
  6  7  2  0
  7  2  1  0
  8  1  1  0
  8  9  2  0
 10  9  1  0
 11 10  2  0
 12 13  2  0
 12 11  1  0
 13  8  1  0
  1 14  1  0
  1 15  1  0
  2 16  1  0
  4 17  1  0
  6 18  1  0
  9 19  1  0
 10 20  1  0
 11 21  1  0
 12 22  1  0
 13 23  1  0
M  ISO  8  14   8  15   8  16  14  17  14  18  14  19  14  20  14  21  14
M  ISO  2  22  14  23  14
M  END
>  <minimizedAffinity>  (1) 
-4.1167593

>  <minimizedRMSD>  (1) 
1.01399815

$$$$
