
     RDKit          3D

 23 24  0  0  0  0  0  0  0  0999 V2000
   36.3500   30.7170   41.0480 C   0  0  0  0  0  0  0  0  0  0  0  0
   37.4030   32.0220   39.1170 C   0  0  0  0  0  0  0  0  0  0  0  0
   36.7300   30.9160   39.6320 C   0  0  0  0  0  0  0  0  0  0  0  0
   36.3820   29.9000   38.7290 C   0  0  0  0  0  0  0  0  0  0  0  0
   36.7110   30.0400   37.4210 N   0  0  0  0  0  0  0  0  0  0  0  0
   37.3670   31.1350   36.9740 C   0  0  0  0  0  0  0  0  0  0  0  0
   37.7100   32.1260   37.8300 N   0  0  0  0  0  0  0  0  0  0  0  0
   37.2740   29.8480   41.7510 N   0  0  0  0  0  0  0  0  0  0  0  0
   38.5210   30.2380   42.1250 C   0  0  0  0  0  0  0  0  0  0  0  0
   39.3730   29.3780   42.7950 C   0  0  0  0  0  0  0  0  0  0  0  0
   38.9910   28.0860   43.1100 C   0  0  0  0  0  0  0  0  0  0  0  0
   39.7260   27.2760   43.7130 O   0  0  0  0  0  0  0  0  0  0  0  0
   37.7360   27.7110   42.7260 N   0  0  0  0  0  0  0  0  0  0  0  0
   36.9370   28.5810   42.0760 C   0  0  0  0  0  0  0  0  0  0  0  0
   35.8050   28.1830   41.7510 O   0  0  0  0  0  0  0  0  0  0  0  0
   35.3460   30.2690   41.0848 H   0  0  0  0  0  0  0  0  0  0  0  0
   36.3711   31.6994   41.5424 H   0  0  0  0  0  0  0  0  0  0  0  0
   37.6893   32.8357   39.7996 H   0  0  0  0  0  0  0  0  0  0  0  0
   35.8498   29.0025   39.0773 H   0  0  0  0  0  0  0  0  0  0  0  0
   37.6235   31.2209   35.9078 H   0  0  0  0  0  0  0  0  0  0  0  0
   38.8598   31.2579   41.8903 H   0  0  0  0  0  0  0  0  0  0  0  0
   40.3749   29.7288   43.0832 H   0  0  0  0  0  0  0  0  0  0  0  0
   37.3983   26.7603   42.9335 H   0  0  0  0  0  0  0  0  0  0  0  0
  1  8  1  0
  2  3  2  0
  3  1  1  0
  4  3  1  0
  5  4  2  0
  6  5  1  0
  6  7  2  0
  7  2  1  0
  8 14  1  0
  8  9  1  0
  9 10  2  0
 10 11  1  0
 11 12  2  0
 13 11  1  0
 14 13  1  0
 15 14  2  0
  1 16  1  0
  1 17  1  0
  2 18  1  0
  4 19  1  0
  6 20  1  0
  9 21  1  0
 10 22  1  0
 13 23  1  0
M  ISO  8  16   8  17   8  18  14  19  14  20  14  21  14  22  14  23   9
M  END
>  <minimizedAffinity>  (1) 
-4.08007765

>  <minimizedRMSD>  (1) 
4.25518608

$$$$
