
     RDKit          3D

 21 22  0  0  0  0  0  0  0  0999 V2000
   37.8270   27.5690   43.8130 C   0  0  0  0  0  0  0  0  0  0  0  0
   38.0950   29.6950   42.4360 C   0  0  0  0  0  0  0  0  0  0  0  0
   37.4190   28.4960   42.7360 C   0  0  0  0  0  0  0  0  0  0  0  0
   36.2870   28.1600   41.9680 C   0  0  0  0  0  0  0  0  0  0  0  0
   35.9280   29.0180   40.9880 N   0  0  0  0  0  0  0  0  0  0  0  0
   36.5810   30.1560   40.7110 C   0  0  0  0  0  0  0  0  0  0  0  0
   37.6630   30.4870   41.4380 N   0  0  0  0  0  0  0  0  0  0  0  0
   38.9200   26.6590   43.4890 C   0  0  0  0  0  0  0  0  0  0  0  0
   40.2210   26.8160   43.9440 C   0  0  0  0  0  0  0  0  0  0  0  0
   41.2080   25.9140   43.5960 C   0  0  0  0  0  0  0  0  0  0  0  0
   40.9310   24.8420   42.7980 N   0  0  0  0  0  0  0  0  0  0  0  0
   39.6500   24.7110   42.3670 C   0  0  0  0  0  0  0  0  0  0  0  0
   38.6530   25.5850   42.6920 N   0  0  0  0  0  0  0  0  0  0  0  0
   38.1365   28.1731   44.6786 H   0  0  0  0  0  0  0  0  0  0  0  0
   36.9526   26.9291   44.0026 H   0  0  0  0  0  0  0  0  0  0  0  0
   38.9805   29.9851   43.0207 H   0  0  0  0  0  0  0  0  0  0  0  0
   35.7189   27.2374   42.1582 H   0  0  0  0  0  0  0  0  0  0  0  0
   36.2355   30.8116   39.8981 H   0  0  0  0  0  0  0  0  0  0  0  0
   40.4702   27.6702   44.5907 H   0  0  0  0  0  0  0  0  0  0  0  0
   42.2326   26.0621   43.9677 H   0  0  0  0  0  0  0  0  0  0  0  0
   39.4025   23.8552   41.7217 H   0  0  0  0  0  0  0  0  0  0  0  0
  2  3  2  0
  3  1  1  0
  4  3  1  0
  5  4  2  0
  6  5  1  0
  6  7  2  0
  7  2  1  0
  8  1  1  0
  8  9  2  0
 10  9  1  0
 11 10  2  0
 12 13  2  0
 12 11  1  0
 13  8  1  0
  1 14  1  0
  1 15  1  0
  2 16  1  0
  4 17  1  0
  6 18  1  0
  9 19  1  0
 10 20  1  0
 12 21  1  0
M  ISO  8  14   8  15   8  16  14  17  14  18  14  19  14  20  14  21  14
M  END
>  <minimizedAffinity>  (1) 
-3.848104

>  <minimizedRMSD>  (1) 
0.970862269

$$$$
