
     RDKit          3D

 27 28  0  0  0  0  0  0  0  0999 V2000
   38.1280   27.5630   43.8600 C   0  0  0  0  0  0  0  0  0  0  0  0
   38.0580   29.7000   42.4300 C   0  0  0  0  0  0  0  0  0  0  0  0
   37.5490   28.4390   42.7970 C   0  0  0  0  0  0  0  0  0  0  0  0
   36.4060   27.9560   42.1180 C   0  0  0  0  0  0  0  0  0  0  0  0
   35.8850   28.7500   41.1590 N   0  0  0  0  0  0  0  0  0  0  0  0
   36.3900   29.9530   40.8240 C   0  0  0  0  0  0  0  0  0  0  0  0
   37.4870   30.4190   41.4740 N   0  0  0  0  0  0  0  0  0  0  0  0
   39.2260   26.8080   43.4460 N   0  0  0  0  0  0  0  0  0  0  0  0
   38.9870   25.5180   42.9270 C   0  0  0  0  0  0  0  0  0  0  0  0
   40.1450   24.6020   42.8930 C   0  0  0  0  0  0  0  0  0  0  0  0
   41.4300   25.2270   42.7970 N   0  0  0  0  0  0  0  0  0  0  0  0
   41.5290   26.1240   43.9600 C   0  0  0  0  0  0  0  0  0  0  0  0
   40.5310   27.2350   43.6890 C   0  0  0  0  0  0  0  0  0  0  0  0
   38.4449   28.2014   44.6979 H   0  0  0  0  0  0  0  0  0  0  0  0
   37.3416   26.8474   44.1419 H   0  0  0  0  0  0  0  0  0  0  0  0
   38.9454   30.0953   42.9461 H   0  0  0  0  0  0  0  0  0  0  0  0
   35.9625   26.9790   42.3602 H   0  0  0  0  0  0  0  0  0  0  0  0
   35.9180   30.5521   40.0313 H   0  0  0  0  0  0  0  0  0  0  0  0
   38.2060   25.0483   43.5429 H   0  0  0  0  0  0  0  0  0  0  0  0
   38.7040   25.6725   41.8753 H   0  0  0  0  0  0  0  0  0  0  0  0
   40.1289   24.0029   43.8154 H   0  0  0  0  0  0  0  0  0  0  0  0
   40.0310   24.0094   41.9733 H   0  0  0  0  0  0  0  0  0  0  0  0
   42.1766   24.5180   42.8266 H   0  0  0  0  0  0  0  0  0  0  0  0
   41.2683   25.5878   44.8844 H   0  0  0  0  0  0  0  0  0  0  0  0
   42.5496   26.5111   44.0960 H   0  0  0  0  0  0  0  0  0  0  0  0
   40.8760   27.7964   42.8082 H   0  0  0  0  0  0  0  0  0  0  0  0
   40.4904   27.8423   44.6053 H   0  0  0  0  0  0  0  0  0  0  0  0
  2  3  2  0
  3  1  1  0
  4  3  1  0
  5  4  2  0
  6  5  1  0
  6  7  2  0
  7  2  1  0
  8 13  1  0
  8  1  1  0
  9  8  1  0
 10  9  1  0
 11 10  1  0
 11 12  1  0
 13 12  1  0
  1 14  1  0
  1 15  1  0
  2 16  1  0
  4 17  1  0
  6 18  1  0
  9 19  1  0
  9 20  1  0
 10 21  1  0
 10 22  1  0
 11 23  1  0
 12 24  1  0
 12 25  1  0
 13 26  1  0
 13 27  1  0
M  ISO  8  14   8  15   8  16  14  17  14  18  14  19  13  20  13  21  13
M  ISO  6  22  13  23   5  24  13  25  13  26  13  27  13
M  END
>  <minimizedAffinity>  (1) 
-3.61481953

>  <minimizedRMSD>  (1) 
0.917049825

$$$$
