
     RDKit          3D

 25 26  0  0  0  0  0  0  0  0999 V2000
   37.7570   29.8140   42.0110 C   0  0  0  0  0  0  0  0  0  0  0  0
   37.1460   28.5620   42.0720 C   0  0  0  0  0  0  0  0  0  0  0  0
   35.9560   28.3800   41.3270 C   0  0  0  0  0  0  0  0  0  0  0  0
   35.5100   29.4410   40.6160 N   0  0  0  0  0  0  0  0  0  0  0  0
   36.1210   30.6300   40.5800 C   0  0  0  0  0  0  0  0  0  0  0  0
   37.2650   30.8150   41.2920 N   0  0  0  0  0  0  0  0  0  0  0  0
   37.6410   27.4110   42.8510 C   0  0  0  0  0  0  0  0  0  0  0  0
   38.6940   26.6690   42.2490 N   0  0  0  0  0  0  0  0  0  0  0  0
   40.0050   26.8700   42.7450 C   0  0  0  0  0  0  0  0  0  0  0  0
   40.1220   25.7800   43.8170 C   0  0  0  0  0  0  0  0  0  0  0  0
   39.6440   24.6050   42.9520 C   0  0  0  0  0  0  0  0  0  0  0  0
   38.3670   25.2590   42.4150 C   0  0  0  0  0  0  0  0  0  0  0  0
   38.6832   29.9783   42.5813 H   0  0  0  0  0  0  0  0  0  0  0  0
   35.4188   27.4201   41.3263 H   0  0  0  0  0  0  0  0  0  0  0  0
   35.7021   31.4512   39.9798 H   0  0  0  0  0  0  0  0  0  0  0  0
   38.0030   27.7880   43.8189 H   0  0  0  0  0  0  0  0  0  0  0  0
   36.7923   26.7162   42.9336 H   0  0  0  0  0  0  0  0  0  0  0  0
   40.7557   26.7315   41.9530 H   0  0  0  0  0  0  0  0  0  0  0  0
   40.1784   27.8857   43.1301 H   0  0  0  0  0  0  0  0  0  0  0  0
   41.1553   25.6480   44.1703 H   0  0  0  0  0  0  0  0  0  0  0  0
   39.5727   25.9536   44.7541 H   0  0  0  0  0  0  0  0  0  0  0  0
   40.3564   24.3575   42.1512 H   0  0  0  0  0  0  0  0  0  0  0  0
   39.5190   23.6404   43.4658 H   0  0  0  0  0  0  0  0  0  0  0  0
   37.5416   25.1373   43.1319 H   0  0  0  0  0  0  0  0  0  0  0  0
   38.0396   24.8013   41.4699 H   0  0  0  0  0  0  0  0  0  0  0  0
  1  2  2  0
  2  7  1  0
  3  2  1  0
  4  3  2  0
  5  4  1  0
  5  6  2  0
  6  1  1  0
  8 12  1  0
  8  9  1  0
  8  7  1  0
  9 10  1  0
 11 10  1  0
 12 11  1  0
  1 13  1  0
  3 14  1  0
  5 15  1  0
  7 16  1  0
  7 17  1  0
  9 18  1  0
  9 19  1  0
 10 20  1  0
 10 21  1  0
 11 22  1  0
 11 23  1  0
 12 24  1  0
 12 25  1  0
M  ISO  8  13  14  14  14  15  14  16   8  17   8  18  13  19  13  20  13
M  ISO  5  21  13  22  13  23  13  24  13  25  13
M  END
>  <minimizedAffinity>  (1) 
-3.49316287

>  <minimizedRMSD>  (1) 
1.04449916

$$$$
