
     RDKit          3D

 36 38  0  0  0  0  0  0  0  0999 V2000
   37.3760   27.9670   43.2060 C   0  0  0  0  0  0  0  0  0  0  0  0
   38.3340   26.8640   43.1410 C   0  0  0  0  0  0  0  0  0  0  0  0
   39.4840   26.8250   43.9380 C   0  0  0  0  0  0  0  0  0  0  0  0
   40.3650   25.7700   43.8500 C   0  0  0  0  0  0  0  0  0  0  0  0
   40.1030   24.7430   42.9620 C   0  0  0  0  0  0  0  0  0  0  0  0
   38.9710   24.7740   42.1720 C   0  0  0  0  0  0  0  0  0  0  0  0
   38.7000   23.7440   41.2800 C   0  0  0  0  0  0  0  0  0  0  0  0
   37.5890   23.7690   40.5050 C   0  0  0  0  0  0  0  0  0  0  0  0
   36.6750   24.8150   40.5640 C   0  0  0  0  0  0  0  0  0  0  0  0
   36.9770   25.8330   41.4690 C   0  0  0  0  0  0  0  0  0  0  0  0
   38.0880   25.8410   42.2670 C   0  0  0  0  0  0  0  0  0  0  0  0
   39.0560   29.8230   42.8550 C   0  0  0  0  0  0  0  0  0  0  0  0
   37.8260   29.2350   42.5800 C   0  0  0  0  0  0  0  0  0  0  0  0
   37.0100   29.9090   41.6670 C   0  0  0  0  0  0  0  0  0  0  0  0
   37.4540   31.0530   41.1260 N   0  0  0  0  0  0  0  0  0  0  0  0
   38.6380   31.5830   41.4150 C   0  0  0  0  0  0  0  0  0  0  0  0
   39.4530   30.9640   42.2910 N   0  0  0  0  0  0  0  0  0  0  0  0
   39.0550   32.7930   40.8150 N   0  0  0  0  0  0  0  0  0  0  0  0
   38.1770   33.6850   40.1260 C   0  0  0  0  0  0  0  0  0  0  0  0
   36.9340   33.3420   40.0520 N   0  0  0  0  0  0  0  0  0  0  0  0
   38.6950   34.8960   39.5570 N   0  0  0  0  0  0  0  0  0  0  0  0
   36.3020   34.0160   39.5390 H   0  0  0  0  0  0  0  0  0  0  0  0
   36.4537   27.6464   42.6995 H   0  0  0  0  0  0  0  0  0  0  0  0
   37.2378   28.1875   44.2748 H   0  0  0  0  0  0  0  0  0  0  0  0
   39.6863   27.6456   44.6421 H   0  0  0  0  0  0  0  0  0  0  0  0
   41.2670   25.7447   44.4791 H   0  0  0  0  0  0  0  0  0  0  0  0
   40.8007   23.8961   42.8845 H   0  0  0  0  0  0  0  0  0  0  0  0
   39.3970   22.8966   41.2019 H   0  0  0  0  0  0  0  0  0  0  0  0
   37.4047   22.9375   39.8088 H   0  0  0  0  0  0  0  0  0  0  0  0
   35.7714   24.8385   39.9371 H   0  0  0  0  0  0  0  0  0  0  0  0
   36.2797   26.6803   41.5454 H   0  0  0  0  0  0  0  0  0  0  0  0
   39.7299   29.3256   43.5681 H   0  0  0  0  0  0  0  0  0  0  0  0
   36.0217   29.5084   41.3972 H   0  0  0  0  0  0  0  0  0  0  0  0
   40.0512   33.0468   40.8783 H   0  0  0  0  0  0  0  0  0  0  0  0
   38.0654   35.5417   39.0595 H   0  0  0  0  0  0  0  0  0  0  0  0
   39.6965   35.1196   39.6460 H   0  0  0  0  0  0  0  0  0  0  0  0
  2  1  1  0
  2  3  2  0
  4  3  1  0
  5  4  2  0
  6 11  2  0
  6  5  1  0
  7  6  1  0
  8  9  1  0
  8  7  2  0
  9 10  2  0
 10 11  1  0
 11  2  1  0
 13 12  2  0
 13  1  1  0
 14 13  1  0
 15 16  1  0
 15 14  2  0
 16 17  2  0
 17 12  1  0
 18 16  1  0
 19 18  1  0
 20 19  2  0
 21 19  1  0
 22 20  1  0
  1 23  1  0
  1 24  1  0
  3 25  1  0
  4 26  1  0
  5 27  1  0
  7 28  1  0
  8 29  1  0
  9 30  1  0
 10 31  1  0
 12 32  1  0
 14 33  1  0
 18 34  1  0
 21 35  1  0
 21 36  1  0
M  ISO  8  23   8  24   8  25  14  26  14  27  14  28  14  29  14  30  14
M  ISO  3  31  14  32  14  33  14
M  END
>  <minimizedAffinity>  (1) 
-7.26117754

>  <minimizedRMSD>  (1) 
0.814335585

$$$$
