
     RDKit          3D

 39 42  0  0  0  0  0  0  0  0999 V2000
   37.4770   28.1920   43.1010 C   0  0  0  0  0  0  0  0  0  0  0  0
   38.3770   27.0370   43.0980 C   0  0  0  0  0  0  0  0  0  0  0  0
   39.5030   26.9570   43.9270 C   0  0  0  0  0  0  0  0  0  0  0  0
   40.3240   25.8600   43.8970 C   0  0  0  0  0  0  0  0  0  0  0  0
   40.0320   24.8190   43.0340 C   0  0  0  0  0  0  0  0  0  0  0  0
   38.9300   24.8790   42.2110 C   0  0  0  0  0  0  0  0  0  0  0  0
   38.6240   23.8400   41.3410 C   0  0  0  0  0  0  0  0  0  0  0  0
   37.5270   23.9080   40.5290 C   0  0  0  0  0  0  0  0  0  0  0  0
   36.6830   24.9960   40.5370 C   0  0  0  0  0  0  0  0  0  0  0  0
   37.0090   26.0290   41.4190 C   0  0  0  0  0  0  0  0  0  0  0  0
   38.0990   26.0010   42.2480 C   0  0  0  0  0  0  0  0  0  0  0  0
   39.2350   30.0090   42.9430 C   0  0  0  0  0  0  0  0  0  0  0  0
   38.0410   29.4280   42.5080 C   0  0  0  0  0  0  0  0  0  0  0  0
   37.3750   30.0840   41.4560 C   0  0  0  0  0  0  0  0  0  0  0  0
   37.9210   31.2030   40.9540 N   0  0  0  0  0  0  0  0  0  0  0  0
   39.0610   31.7220   41.3980 C   0  0  0  0  0  0  0  0  0  0  0  0
   39.7320   31.1190   42.4090 N   0  0  0  0  0  0  0  0  0  0  0  0
   39.5810   32.9420   40.7910 C   0  0  0  0  0  0  0  0  0  0  0  0
   40.8510   33.0020   40.2450 C   0  0  0  0  0  0  0  0  0  0  0  0
   41.3030   34.1590   39.6870 C   0  0  0  0  0  0  0  0  0  0  0  0
   40.5030   35.2650   39.6640 C   0  0  0  0  0  0  0  0  0  0  0  0
   39.2130   35.2660   40.1970 C   0  0  0  0  0  0  0  0  0  0  0  0
   38.7840   34.0610   40.7620 C   0  0  0  0  0  0  0  0  0  0  0  0
   36.5742   27.9225   42.5333 H   0  0  0  0  0  0  0  0  0  0  0  0
   37.2763   28.4222   44.1577 H   0  0  0  0  0  0  0  0  0  0  0  0
   39.7317   27.7866   44.6121 H   0  0  0  0  0  0  0  0  0  0  0  0
   41.2059   25.8078   44.5523 H   0  0  0  0  0  0  0  0  0  0  0  0
   40.6863   23.9352   43.0051 H   0  0  0  0  0  0  0  0  0  0  0  0
   39.2724   22.9521   41.3054 H   0  0  0  0  0  0  0  0  0  0  0  0
   37.3121   23.0699   39.8498 H   0  0  0  0  0  0  0  0  0  0  0  0
   35.7995   25.0488   39.8839 H   0  0  0  0  0  0  0  0  0  0  0  0
   36.3549   26.9129   41.4494 H   0  0  0  0  0  0  0  0  0  0  0  0
   39.7871   29.5264   43.7629 H   0  0  0  0  0  0  0  0  0  0  0  0
   36.4299   29.6894   41.0547 H   0  0  0  0  0  0  0  0  0  0  0  0
   41.4976   32.1122   40.2617 H   0  0  0  0  0  0  0  0  0  0  0  0
   42.3135   34.2025   39.2545 H   0  0  0  0  0  0  0  0  0  0  0  0
   40.8891   36.1890   39.2088 H   0  0  0  0  0  0  0  0  0  0  0  0
   38.5728   36.1602   40.1740 H   0  0  0  0  0  0  0  0  0  0  0  0
   37.7754   34.0071   41.1976 H   0  0  0  0  0  0  0  0  0  0  0  0
  2  1  1  0
  2  3  2  0
  4  3  1  0
  5  4  2  0
  6 11  2  0
  6  5  1  0
  7  6  1  0
  8  9  1  0
  8  7  2  0
  9 10  2  0
 10 11  1  0
 11  2  1  0
 13 12  2  0
 13  1  1  0
 14 13  1  0
 15 16  1  0
 15 14  2  0
 16 17  2  0
 17 12  1  0
 18 16  1  0
 19 18  2  0
 20 19  1  0
 21 20  2  0
 21 22  1  0
 22 23  2  0
 23 18  1  0
  1 24  1  0
  1 25  1  0
  3 26  1  0
  4 27  1  0
  5 28  1  0
  7 29  1  0
  8 30  1  0
  9 31  1  0
 10 32  1  0
 12 33  1  0
 14 34  1  0
 19 35  1  0
 20 36  1  0
 21 37  1  0
 22 38  1  0
 23 39  1  0
M  ISO  8  24   8  25   8  26  14  27  14  28  14  29  14  30  14  31  14
M  ISO  8  32  14  33  14  34  14  35  14  36  14  37  14  38  14  39  14
M  END
>  <minimizedAffinity>  (1) 
-6.9357748

>  <minimizedRMSD>  (1) 
1.21848333

$$$$
