
     RDKit          3D

 37 40  0  0  0  0  0  0  0  0999 V2000
   37.4360   28.0770   43.1850 C   0  0  0  0  0  0  0  0  0  0  0  0
   38.3650   26.9470   43.1410 C   0  0  0  0  0  0  0  0  0  0  0  0
   39.5080   26.8820   43.9460 C   0  0  0  0  0  0  0  0  0  0  0  0
   40.3600   25.8040   43.8790 C   0  0  0  0  0  0  0  0  0  0  0  0
   40.0680   24.7730   42.9960 C   0  0  0  0  0  0  0  0  0  0  0  0
   38.9550   24.8190   42.2000 C   0  0  0  0  0  0  0  0  0  0  0  0
   38.6590   23.7920   41.3200 C   0  0  0  0  0  0  0  0  0  0  0  0
   37.5480   23.8450   40.5350 C   0  0  0  0  0  0  0  0  0  0  0  0
   36.6730   24.9100   40.5770 C   0  0  0  0  0  0  0  0  0  0  0  0
   36.9900   25.9350   41.4710 C   0  0  0  0  0  0  0  0  0  0  0  0
   38.0990   25.9210   42.2800 C   0  0  0  0  0  0  0  0  0  0  0  0
   39.1540   29.9250   42.9240 C   0  0  0  0  0  0  0  0  0  0  0  0
   37.9400   29.3280   42.5680 C   0  0  0  0  0  0  0  0  0  0  0  0
   37.1830   29.9730   41.5690 C   0  0  0  0  0  0  0  0  0  0  0  0
   37.6750   31.1060   41.0350 N   0  0  0  0  0  0  0  0  0  0  0  0
   38.8340   31.6410   41.4030 C   0  0  0  0  0  0  0  0  0  0  0  0
   39.5880   31.0500   42.3580 N   0  0  0  0  0  0  0  0  0  0  0  0
   39.3300   32.8730   40.7950 C   0  0  0  0  0  0  0  0  0  0  0  0
   40.5420   32.8920   40.1350 C   0  0  0  0  0  0  0  0  0  0  0  0
   41.0740   34.0280   39.5340 C   0  0  0  0  0  0  0  0  0  0  0  0
   40.3690   35.1800   39.5970 N   0  0  0  0  0  0  0  0  0  0  0  0
   39.1780   35.1630   40.2440 C   0  0  0  0  0  0  0  0  0  0  0  0
   38.6670   34.0440   40.8300 N   0  0  0  0  0  0  0  0  0  0  0  0
   36.5163   27.7832   42.6579 H   0  0  0  0  0  0  0  0  0  0  0  0
   37.2766   28.3023   44.2498 H   0  0  0  0  0  0  0  0  0  0  0  0
   39.7283   27.7046   44.6422 H   0  0  0  0  0  0  0  0  0  0  0  0
   41.2571   25.7596   44.5140 H   0  0  0  0  0  0  0  0  0  0  0  0
   40.7416   23.9055   42.9350 H   0  0  0  0  0  0  0  0  0  0  0  0
   39.3297   22.9226   41.2543 H   0  0  0  0  0  0  0  0  0  0  0  0
   37.3419   23.0127   39.8460 H   0  0  0  0  0  0  0  0  0  0  0  0
   35.7757   24.9499   39.9420 H   0  0  0  0  0  0  0  0  0  0  0  0
   36.3141   26.8009   41.5302 H   0  0  0  0  0  0  0  0  0  0  0  0
   39.7723   29.4484   43.6990 H   0  0  0  0  0  0  0  0  0  0  0  0
   36.2185   29.5623   41.2357 H   0  0  0  0  0  0  0  0  0  0  0  0
   41.1191   31.9571   40.0813 H   0  0  0  0  0  0  0  0  0  0  0  0
   42.0455   33.9900   39.0195 H   0  0  0  0  0  0  0  0  0  0  0  0
   38.5972   36.0956   40.2985 H   0  0  0  0  0  0  0  0  0  0  0  0
  2  1  1  0
  2  3  2  0
  4  3  1  0
  5  4  2  0
  6 11  2  0
  6  5  1  0
  7  6  1  0
  8  9  1  0
  8  7  2  0
  9 10  2  0
 10 11  1  0
 11  2  1  0
 13 12  2  0
 13  1  1  0
 14 13  1  0
 15 16  1  0
 15 14  2  0
 16 17  2  0
 17 12  1  0
 18 23  1  0
 18 16  1  0
 19 18  2  0
 20 21  2  0
 20 19  1  0
 21 22  1  0
 22 23  2  0
  1 24  1  0
  1 25  1  0
  3 26  1  0
  4 27  1  0
  5 28  1  0
  7 29  1  0
  8 30  1  0
  9 31  1  0
 10 32  1  0
 12 33  1  0
 14 34  1  0
 19 35  1  0
 20 36  1  0
 22 37  1  0
M  ISO  8  24   8  25   8  26  14  27  14  28  14  29  14  30  14  31  14
M  ISO  6  32  14  33  14  34  14  35  14  36  14  37  14
M  END
>  <minimizedAffinity>  (1) 
-6.85340261

>  <minimizedRMSD>  (1) 
1.04191375

$$$$
