
     RDKit          3D

 37 40  0  0  0  0  0  0  0  0999 V2000
   37.4550   28.0870   43.1990 C   0  0  0  0  0  0  0  0  0  0  0  0
   38.3740   26.9500   43.1490 C   0  0  0  0  0  0  0  0  0  0  0  0
   39.5160   26.8740   43.9550 C   0  0  0  0  0  0  0  0  0  0  0  0
   40.3580   25.7880   43.8830 C   0  0  0  0  0  0  0  0  0  0  0  0
   40.0660   24.7710   43.0060 C   0  0  0  0  0  0  0  0  0  0  0  0
   38.9530   24.8250   42.2080 C   0  0  0  0  0  0  0  0  0  0  0  0
   38.6410   23.8020   41.3170 C   0  0  0  0  0  0  0  0  0  0  0  0
   37.5340   23.8650   40.5330 C   0  0  0  0  0  0  0  0  0  0  0  0
   36.6620   24.9420   40.5780 C   0  0  0  0  0  0  0  0  0  0  0  0
   36.9940   25.9570   41.4770 C   0  0  0  0  0  0  0  0  0  0  0  0
   38.1070   25.9270   42.2870 C   0  0  0  0  0  0  0  0  0  0  0  0
   39.1620   29.9310   42.9260 C   0  0  0  0  0  0  0  0  0  0  0  0
   37.9540   29.3320   42.5700 C   0  0  0  0  0  0  0  0  0  0  0  0
   37.2300   29.9780   41.5780 C   0  0  0  0  0  0  0  0  0  0  0  0
   37.7140   31.1060   41.0360 N   0  0  0  0  0  0  0  0  0  0  0  0
   38.8720   31.6460   41.4030 C   0  0  0  0  0  0  0  0  0  0  0  0
   39.6100   31.0510   42.3660 N   0  0  0  0  0  0  0  0  0  0  0  0
   39.3620   32.8740   40.7860 C   0  0  0  0  0  0  0  0  0  0  0  0
   40.5740   32.8930   40.1280 C   0  0  0  0  0  0  0  0  0  0  0  0
   41.0340   34.0770   39.5400 C   0  0  0  0  0  0  0  0  0  0  0  0
   40.2450   35.1580   39.6520 N   0  0  0  0  0  0  0  0  0  0  0  0
   39.0620   35.1430   40.2930 C   0  0  0  0  0  0  0  0  0  0  0  0
   38.6280   34.0000   40.8560 N   0  0  0  0  0  0  0  0  0  0  0  0
   36.5261   27.7960   42.6867 H   0  0  0  0  0  0  0  0  0  0  0  0
   37.3159   28.3193   44.2652 H   0  0  0  0  0  0  0  0  0  0  0  0
   39.7430   27.6922   44.6543 H   0  0  0  0  0  0  0  0  0  0  0  0
   41.2536   25.7346   44.5194 H   0  0  0  0  0  0  0  0  0  0  0  0
   40.7356   23.9005   42.9436 H   0  0  0  0  0  0  0  0  0  0  0  0
   39.3033   22.9265   41.2467 H   0  0  0  0  0  0  0  0  0  0  0  0
   37.3227   23.0363   39.8412 H   0  0  0  0  0  0  0  0  0  0  0  0
   35.7642   24.9935   39.9445 H   0  0  0  0  0  0  0  0  0  0  0  0
   36.3286   26.8305   41.5420 H   0  0  0  0  0  0  0  0  0  0  0  0
   39.7731   29.4547   43.7068 H   0  0  0  0  0  0  0  0  0  0  0  0
   36.2670   29.5686   41.2387 H   0  0  0  0  0  0  0  0  0  0  0  0
   41.1796   31.9769   40.0653 H   0  0  0  0  0  0  0  0  0  0  0  0
   41.9973   34.1201   39.0106 H   0  0  0  0  0  0  0  0  0  0  0  0
   38.4543   36.0577   40.3564 H   0  0  0  0  0  0  0  0  0  0  0  0
  2  1  1  0
  2  3  2  0
  4  3  1  0
  5  4  2  0
  6 11  2  0
  6  5  1  0
  7  6  1  0
  8  9  1  0
  8  7  2  0
  9 10  2  0
 10 11  1  0
 11  2  1  0
 13 12  2  0
 13  1  1  0
 14 13  1  0
 15 16  1  0
 15 14  2  0
 16 17  2  0
 17 12  1  0
 18 23  1  0
 18 16  1  0
 19 18  2  0
 20 21  2  0
 20 19  1  0
 21 22  1  0
 22 23  2  0
  1 24  1  0
  1 25  1  0
  3 26  1  0
  4 27  1  0
  5 28  1  0
  7 29  1  0
  8 30  1  0
  9 31  1  0
 10 32  1  0
 12 33  1  0
 14 34  1  0
 19 35  1  0
 20 36  1  0
 22 37  1  0
M  ISO  8  24   8  25   8  26  14  27  14  28  14  29  14  30  14  31  14
M  ISO  6  32  14  33  14  34  14  35  14  36  14  37  14
M  END
>  <minimizedAffinity>  (1) 
-6.8496151

>  <minimizedRMSD>  (1) 
1.16494882

$$$$
