
     RDKit          3D

 45 48  0  0  0  0  0  0  0  0999 V2000
   37.9200   28.2680   43.5710 C   0  0  0  0  0  0  0  0  0  0  0  0
   38.8440   27.1420   43.4200 C   0  0  0  0  0  0  0  0  0  0  0  0
   40.1450   27.1630   43.9380 C   0  0  0  0  0  0  0  0  0  0  0  0
   40.9810   26.0830   43.7730 C   0  0  0  0  0  0  0  0  0  0  0  0
   40.5270   24.9770   43.0940 C   0  0  0  0  0  0  0  0  0  0  0  0
   39.2530   24.9380   42.5790 C   0  0  0  0  0  0  0  0  0  0  0  0
   38.7780   23.8280   41.8910 C   0  0  0  0  0  0  0  0  0  0  0  0
   37.5220   23.7940   41.3890 C   0  0  0  0  0  0  0  0  0  0  0  0
   36.6470   24.8630   41.5320 C   0  0  0  0  0  0  0  0  0  0  0  0
   37.1450   25.9660   42.2240 C   0  0  0  0  0  0  0  0  0  0  0  0
   38.4070   26.0380   42.7470 C   0  0  0  0  0  0  0  0  0  0  0  0
   39.2000   30.1840   42.5150 C   0  0  0  0  0  0  0  0  0  0  0  0
   38.0810   29.3520   42.5690 C   0  0  0  0  0  0  0  0  0  0  0  0
   37.0970   29.5960   41.6180 C   0  0  0  0  0  0  0  0  0  0  0  0
   37.2730   30.5860   40.7290 N   0  0  0  0  0  0  0  0  0  0  0  0
   38.3550   31.3580   40.7100 C   0  0  0  0  0  0  0  0  0  0  0  0
   39.3460   31.1570   41.6220 N   0  0  0  0  0  0  0  0  0  0  0  0
   38.5370   32.4530   39.7180 C   0  0  0  0  0  0  0  0  0  0  0  0
   39.9610   32.8640   39.5960 C   0  0  0  0  0  0  0  0  0  0  0  0
   40.3860   34.0760   40.3420 C   0  0  0  0  0  0  0  0  0  0  0  0
   39.2770   35.0070   40.7350 C   0  0  0  0  0  0  0  0  0  0  0  0
   38.0860   34.9140   39.8110 C   0  0  0  0  0  0  0  0  0  0  0  0
   37.5500   33.5160   40.0020 C   0  0  0  0  0  0  0  0  0  0  0  0
   36.8938   27.8800   43.4917 H   0  0  0  0  0  0  0  0  0  0  0  0
   38.1428   28.7188   44.5493 H   0  0  0  0  0  0  0  0  0  0  0  0
   40.5014   28.0505   44.4814 H   0  0  0  0  0  0  0  0  0  0  0  0
   42.0026   26.1041   44.1803 H   0  0  0  0  0  0  0  0  0  0  0  0
   41.1925   24.1113   42.9610 H   0  0  0  0  0  0  0  0  0  0  0  0
   39.4371   22.9585   41.7515 H   0  0  0  0  0  0  0  0  0  0  0  0
   37.1846   22.8948   40.8528 H   0  0  0  0  0  0  0  0  0  0  0  0
   35.6254   24.8408   41.1249 H   0  0  0  0  0  0  0  0  0  0  0  0
   36.4814   26.8330   42.3579 H   0  0  0  0  0  0  0  0  0  0  0  0
   40.0030   30.0261   43.2500 H   0  0  0  0  0  0  0  0  0  0  0  0
   36.1833   28.9839   41.5943 H   0  0  0  0  0  0  0  0  0  0  0  0
   38.3165   32.1108   38.6961 H   0  0  0  0  0  0  0  0  0  0  0  0
   40.5786   32.0250   39.9492 H   0  0  0  0  0  0  0  0  0  0  0  0
   40.0898   33.1254   38.5353 H   0  0  0  0  0  0  0  0  0  0  0  0
   40.8967   33.7489   41.2597 H   0  0  0  0  0  0  0  0  0  0  0  0
   41.0328   34.6442   39.6573 H   0  0  0  0  0  0  0  0  0  0  0  0
   38.9516   34.7565   41.7555 H   0  0  0  0  0  0  0  0  0  0  0  0
   39.6666   36.0339   40.6741 H   0  0  0  0  0  0  0  0  0  0  0  0
   38.3940   35.0704   38.7667 H   0  0  0  0  0  0  0  0  0  0  0  0
   37.3292   35.6803   40.0348 H   0  0  0  0  0  0  0  0  0  0  0  0
   36.6905   33.3795   39.3292 H   0  0  0  0  0  0  0  0  0  0  0  0
   37.2746   33.4214   41.0628 H   0  0  0  0  0  0  0  0  0  0  0  0
  2  1  1  0
  2  3  2  0
  4  3  1  0
  5  4  2  0
  6 11  2  0
  6  5  1  0
  7  6  1  0
  8  9  1  0
  8  7  2  0
  9 10  2  0
 10 11  1  0
 11  2  1  0
 12 13  2  0
 13  1  1  0
 14 13  1  0
 15 14  2  0
 16 15  1  0
 16 17  2  0
 17 12  1  0
 18 23  1  0
 18 16  1  0
 19 18  1  0
 19 20  1  0
 20 21  1  0
 22 23  1  0
 22 21  1  0
  1 24  1  0
  1 25  1  0
  3 26  1  0
  4 27  1  0
  5 28  1  0
  7 29  1  0
  8 30  1  0
  9 31  1  0
 10 32  1  0
 12 33  1  0
 14 34  1  0
 18 35  1  0
 19 36  1  0
 19 37  1  0
 20 38  1  0
 20 39  1  0
 21 40  1  0
 21 41  1  0
 22 42  1  0
 22 43  1  0
 23 44  1  0
 23 45  1  0
M  ISO  8  24   8  25   8  26  14  27  14  28  14  29  14  30  14  31  14
M  ISO  8  32  14  33  14  34  14  35  13  36  13  37  13  38  13  39  13
M  ISO  6  40  13  41  13  42  13  43  13  44  13  45  13
M  END
>  <minimizedAffinity>  (1) 
-6.82419729

>  <minimizedRMSD>  (1) 
1.11222517

$$$$
