
     RDKit          3D

 20 21  0  0  0  0  0  0  0  0999 V2000
   37.9280   27.6510   43.6470 C   0  0  0  0  0  0  0  0  0  0  0  0
   37.5900   26.6260   42.7460 C   0  0  0  0  0  0  0  0  0  0  0  0
   37.2940   27.0100   41.4270 C   0  0  0  0  0  0  0  0  0  0  0  0
   37.3550   28.3330   41.1130 N   0  0  0  0  0  0  0  0  0  0  0  0
   37.6830   29.2840   42.0070 C   0  0  0  0  0  0  0  0  0  0  0  0
   37.9730   28.9360   43.2880 N   0  0  0  0  0  0  0  0  0  0  0  0
   37.6710   30.5820   41.4200 N   0  0  0  0  0  0  0  0  0  0  0  0
   38.8900   31.1810   41.5330 C   0  0  0  0  0  0  0  0  0  0  0  0
   39.0960   32.4520   41.0280 C   0  0  0  0  0  0  0  0  0  0  0  0
   38.0470   33.0970   40.4100 C   0  0  0  0  0  0  0  0  0  0  0  0
   38.1820   34.2600   39.9300 O   0  0  0  0  0  0  0  0  0  0  0  0
   36.8800   32.4580   40.3300 N   0  0  0  0  0  0  0  0  0  0  0  0
   36.6580   31.2260   40.8140 C   0  0  0  0  0  0  0  0  0  0  0  0
   35.5940   30.5750   40.7720 O   0  0  0  0  0  0  0  0  0  0  0  0
   38.1644   27.3839   44.6876 H   0  0  0  0  0  0  0  0  0  0  0  0
   37.5587   25.5720   43.0591 H   0  0  0  0  0  0  0  0  0  0  0  0
   37.0204   26.2616   40.6687 H   0  0  0  0  0  0  0  0  0  0  0  0
   39.7157   30.6499   42.0292 H   0  0  0  0  0  0  0  0  0  0  0  0
   40.0784   32.9386   41.1180 H   0  0  0  0  0  0  0  0  0  0  0  0
   36.0974   32.9413   39.8664 H   0  0  0  0  0  0  0  0  0  0  0  0
  2  1  2  0
  3  2  1  0
  4  3  2  0
  4  5  1  0
  5  6  2  0
  6  1  1  0
  7  8  1  0
  7  5  1  0
  9  8  2  0
 10  9  1  0
 11 10  2  0
 12 10  1  0
 12 13  1  0
 13  7  1  0
 14 13  2  0
  1 15  1  0
  2 16  1  0
  3 17  1  0
  8 18  1  0
  9 19  1  0
 12 20  1  0
M  ISO  6  15  14  16  14  17  14  18  14  19  14  20   9
M  END
>  <minimizedAffinity>  (1) 
-5.02675819

>  <minimizedRMSD>  (1) 
2.72513199

$$$$
