
     RDKit          3D

 24 26  0  0  0  0  0  0  0  0999 V2000
   37.9100   28.4820   43.6380 C   0  0  0  0  0  0  0  0  0  0  0  0
   37.4420   27.1890   43.2360 C   0  0  0  0  0  0  0  0  0  0  0  0
   36.9200   27.0510   41.9470 C   0  0  0  0  0  0  0  0  0  0  0  0
   36.8840   28.1540   41.1480 N   0  0  0  0  0  0  0  0  0  0  0  0
   37.3250   29.3520   41.5410 C   0  0  0  0  0  0  0  0  0  0  0  0
   37.8350   29.5070   42.7850 N   0  0  0  0  0  0  0  0  0  0  0  0
   37.3020   30.5130   40.7320 N   0  0  0  0  0  0  0  0  0  0  0  0
   38.0540   31.5380   41.1610 N   0  0  0  0  0  0  0  0  0  0  0  0
   37.9170   32.5530   40.2790 C   0  0  0  0  0  0  0  0  0  0  0  0
   37.0570   32.1080   39.3020 C   0  0  0  0  0  0  0  0  0  0  0  0
   36.6590   30.7990   39.5880 C   0  0  0  0  0  0  0  0  0  0  0  0
   35.7760   29.9050   38.8790 C   0  0  0  0  0  0  0  0  0  0  0  0
   36.0770   29.4960   37.5900 C   0  0  0  0  0  0  0  0  0  0  0  0
   35.1030   28.6500   37.1110 C   0  0  0  0  0  0  0  0  0  0  0  0
   34.2210   28.5730   38.1500 C   0  0  0  0  0  0  0  0  0  0  0  0
   34.6430   29.3090   39.1480 O   0  0  0  0  0  0  0  0  0  0  0  0
   38.3290   28.6299   44.6442 H   0  0  0  0  0  0  0  0  0  0  0  0
   37.4921   26.3303   43.9216 H   0  0  0  0  0  0  0  0  0  0  0  0
   36.5489   26.0798   41.5878 H   0  0  0  0  0  0  0  0  0  0  0  0
   38.3985   33.5406   40.3321 H   0  0  0  0  0  0  0  0  0  0  0  0
   36.7321   32.6930   38.4289 H   0  0  0  0  0  0  0  0  0  0  0  0
   36.9705   29.8046   37.0275 H   0  0  0  0  0  0  0  0  0  0  0  0
   35.0485   28.1560   36.1297 H   0  0  0  0  0  0  0  0  0  0  0  0
   33.2939   27.9810   38.1493 H   0  0  0  0  0  0  0  0  0  0  0  0
  2  1  2  0
  3  2  1  0
  4  5  1  0
  4  3  2  0
  5  6  2  0
  6  1  1  0
  7  8  1  0
  7  5  1  0
  9  8  2  0
 10 11  2  0
 10  9  1  0
 11  7  1  0
 12 16  1  0
 12 11  1  0
 13 12  2  0
 14 13  1  0
 14 15  2  0
 15 16  1  0
  1 17  1  0
  2 18  1  0
  3 19  1  0
  9 20  1  0
 10 21  1  0
 13 22  1  0
 14 23  1  0
 15 24  1  0
M  ISO  8  17  14  18  14  19  14  20  14  21  14  22  14  23  14  24  14
M  END
>  <minimizedAffinity>  (1) 
-4.4604063

>  <minimizedRMSD>  (1) 
1.51781011

$$$$
