
     RDKit          3D

 35 37  0  0  0  0  0  0  0  0999 V2000
   38.8120   27.0260   43.4360 C   0  0  0  0  0  0  0  0  0  0  0  0
   40.1190   27.0620   43.9360 C   0  0  0  0  0  0  0  0  0  0  0  0
   40.9880   26.0250   43.7110 C   0  0  0  0  0  0  0  0  0  0  0  0
   40.5550   24.9300   42.9770 C   0  0  0  0  0  0  0  0  0  0  0  0
   39.2700   24.8770   42.4780 C   0  0  0  0  0  0  0  0  0  0  0  0
   38.8420   23.7840   41.7510 C   0  0  0  0  0  0  0  0  0  0  0  0
   37.5820   23.7290   41.2610 C   0  0  0  0  0  0  0  0  0  0  0  0
   36.6720   24.7600   41.4670 C   0  0  0  0  0  0  0  0  0  0  0  0
   37.1370   25.8450   42.2030 C   0  0  0  0  0  0  0  0  0  0  0  0
   38.4040   25.9390   42.7170 C   0  0  0  0  0  0  0  0  0  0  0  0
   37.8510   28.1080   43.6520 C   0  0  0  0  0  0  0  0  0  0  0  0
   39.1530   30.0780   42.7280 C   0  0  0  0  0  0  0  0  0  0  0  0
   38.0000   29.2690   42.7520 C   0  0  0  0  0  0  0  0  0  0  0  0
   36.9640   29.6130   41.8620 C   0  0  0  0  0  0  0  0  0  0  0  0
   37.1430   30.6820   41.0530 N   0  0  0  0  0  0  0  0  0  0  0  0
   38.2520   31.4130   41.0680 C   0  0  0  0  0  0  0  0  0  0  0  0
   39.2730   31.1180   41.9080 N   0  0  0  0  0  0  0  0  0  0  0  0
   38.3560   32.5700   40.1390 C   0  0  0  0  0  0  0  0  0  0  0  0
   37.1650   32.5970   39.1750 C   0  0  0  0  0  0  0  0  0  0  0  0
   40.4537   27.9339   44.5173 H   0  0  0  0  0  0  0  0  0  0  0  0
   42.0137   26.0609   44.1068 H   0  0  0  0  0  0  0  0  0  0  0  0
   41.2450   24.0938   42.7907 H   0  0  0  0  0  0  0  0  0  0  0  0
   39.5334   22.9482   41.5680 H   0  0  0  0  0  0  0  0  0  0  0  0
   37.2694   22.8457   40.6847 H   0  0  0  0  0  0  0  0  0  0  0  0
   35.6462   24.7201   41.0718 H   0  0  0  0  0  0  0  0  0  0  0  0
   36.4442   26.6801   42.3838 H   0  0  0  0  0  0  0  0  0  0  0  0
   36.8397   27.6978   43.5140 H   0  0  0  0  0  0  0  0  0  0  0  0
   38.0372   28.4837   44.6689 H   0  0  0  0  0  0  0  0  0  0  0  0
   39.9823   29.8414   43.4108 H   0  0  0  0  0  0  0  0  0  0  0  0
   36.0335   29.0275   41.8258 H   0  0  0  0  0  0  0  0  0  0  0  0
   38.3697   33.5022   40.7228 H   0  0  0  0  0  0  0  0  0  0  0  0
   39.2829   32.4731   39.5546 H   0  0  0  0  0  0  0  0  0  0  0  0
   36.2278   32.6182   39.7506 H   0  0  0  0  0  0  0  0  0  0  0  0
   37.2265   33.4940   38.5412 H   0  0  0  0  0  0  0  0  0  0  0  0
   37.1858   31.6982   38.5412 H   0  0  0  0  0  0  0  0  0  0  0  0
  1 11  1  0
  1  2  2  0
  3  2  1  0
  4  3  2  0
  5 10  2  0
  5  4  1  0
  6  5  1  0
  7  8  1  0
  7  6  2  0
  8  9  2  0
  9 10  1  0
 10  1  1  0
 12 13  2  0
 13 11  1  0
 14 13  1  0
 15 16  1  0
 15 14  2  0
 16 17  2  0
 17 12  1  0
 18 16  1  0
 19 18  1  0
  2 20  1  0
  3 21  1  0
  4 22  1  0
  6 23  1  0
  7 24  1  0
  8 25  1  0
  9 26  1  0
 11 27  1  0
 11 28  1  0
 12 29  1  0
 14 30  1  0
 18 31  1  0
 18 32  1  0
 19 33  1  0
 19 34  1  0
 19 35  1  0
M  ISO  8  20  14  21  14  22  14  23  14  24  14  25  14  26  14  27   8
M  ISO  8  28   8  29  14  30  14  31   8  32   8  33   8  34   8  35   8
M  END
>  <minimizedAffinity>  (1) 
-5.93950033

>  <minimizedRMSD>  (1) 
0.371570855

$$$$
