
     RDKit          3D

 26 27  0  0  1  0  0  0  0  0999 V2000
   39.6700   29.5720   42.7130 N   0  0  0  0  0  0  0  0  0  0  0  0
   39.8300   31.0020   42.7250 C   0  0  0  0  0  0  0  0  0  0  0  0
   40.9240   31.2600   41.6900 C   0  0  0  0  0  0  0  0  0  0  0  0
   42.1470   30.7960   42.2730 N   0  0  0  0  0  0  0  0  0  0  0  0
   42.1310   29.4840   42.7900 C   0  0  0  0  0  0  0  0  0  0  0  0
   40.8380   28.7460   42.8130 C   0  0  2  0  0  0  0  0  0  0  0  0
   38.4150   28.9040   42.6070 C   0  0  0  0  0  0  0  0  0  0  0  0
   37.9150   28.0560   43.6150 C   0  0  0  0  0  0  0  0  0  0  0  0
   36.6830   27.4530   43.4150 C   0  0  0  0  0  0  0  0  0  0  0  0
   36.0240   27.7160   42.2470 N   0  0  0  0  0  0  0  0  0  0  0  0
   36.5290   28.5350   41.2930 C   0  0  0  0  0  0  0  0  0  0  0  0
   37.7140   29.1180   41.4830 N   0  0  0  0  0  0  0  0  0  0  0  0
   40.7990   27.6570   41.7770 C   0  0  0  0  0  0  0  0  0  0  0  0
   40.8750   26.4740   42.1420 O   0  0  0  0  0  0  0  0  0  0  0  0
   38.8937   31.5027   42.4374 H   0  0  0  0  0  0  0  0  0  0  0  0
   40.0890   31.3908   43.7209 H   0  0  0  0  0  0  0  0  0  0  0  0
   40.9920   32.3352   41.4677 H   0  0  0  0  0  0  0  0  0  0  0  0
   40.7099   30.7406   40.7443 H   0  0  0  0  0  0  0  0  0  0  0  0
   42.8772   30.8393   41.5479 H   0  0  0  0  0  0  0  0  0  0  0  0
   42.8340   28.8891   42.1884 H   0  0  0  0  0  0  0  0  0  0  0  0
   42.3888   29.6095   43.8520 H   0  0  0  0  0  0  0  0  0  0  0  0
   40.8018   28.2960   43.8161 H   0  0  0  0  0  0  0  0  0  0  0  0
   38.4876   27.8771   44.5370 H   0  0  0  0  0  0  0  0  0  0  0  0
   36.2493   26.7838   44.1727 H   0  0  0  0  0  0  0  0  0  0  0  0
   35.9649   28.7183   40.3666 H   0  0  0  0  0  0  0  0  0  0  0  0
   40.7043   27.9061   40.7098 H   0  0  0  0  0  0  0  0  0  0  0  0
  1  2  1  0
  1  6  1  0
  3  4  1  0
  3  2  1  0
  4  5  1  0
  5  6  1  0
  7  1  1  0
  7  8  2  0
  9  8  1  0
 10  9  2  0
 11 12  2  0
 11 10  1  0
 12  7  1  0
 13 14  2  0
 13  6  1  0
  2 15  1  0
  2 16  1  0
  3 17  1  0
  3 18  1  0
  4 19  1  0
  5 20  1  0
  5 21  1  0
  6 22  1  1
  8 23  1  0
  9 24  1  0
 11 25  1  0
 13 26  1  0
M  ISO  8  15  13  16  13  17  13  18  13  19   5  20  13  21  13  22  13
M  ISO  4  23  14  24  14  25  14  26   6
M  END
>  <minimizedAffinity>  (1) 
-3.04963565

>  <minimizedRMSD>  (1) 
0.212210029

$$$$
