
     RDKit          3D

 37 40  0  0  0  0  0  0  0  0999 V2000
   37.5410   28.1250   42.9240 C   0  0  0  0  0  0  0  0  0  0  0  0
   38.3250   26.9120   42.9320 C   0  0  0  0  0  0  0  0  0  0  0  0
   39.3990   26.7840   43.8230 C   0  0  0  0  0  0  0  0  0  0  0  0
   40.1670   25.6470   43.8670 C   0  0  0  0  0  0  0  0  0  0  0  0
   39.8530   24.6040   42.9940 C   0  0  0  0  0  0  0  0  0  0  0  0
   38.8070   24.7200   42.1230 C   0  0  0  0  0  0  0  0  0  0  0  0
   38.4710   23.6760   41.2590 C   0  0  0  0  0  0  0  0  0  0  0  0
   37.4260   23.7820   40.4080 C   0  0  0  0  0  0  0  0  0  0  0  0
   36.6360   24.9320   40.3490 C   0  0  0  0  0  0  0  0  0  0  0  0
   36.9890   25.9710   41.2240 C   0  0  0  0  0  0  0  0  0  0  0  0
   38.0340   25.8760   42.0840 C   0  0  0  0  0  0  0  0  0  0  0  0
   39.1980   29.9690   43.0460 C   0  0  0  0  0  0  0  0  0  0  0  0
   38.1800   29.3350   42.3690 C   0  0  0  0  0  0  0  0  0  0  0  0
   37.8140   29.9190   41.1580 C   0  0  0  0  0  0  0  0  0  0  0  0
   38.4510   31.0240   40.7440 N   0  0  0  0  0  0  0  0  0  0  0  0
   39.4230   31.6000   41.4250 C   0  0  0  0  0  0  0  0  0  0  0  0
   39.8210   31.0680   42.6160 N   0  0  0  0  0  0  0  0  0  0  0  0
   39.9780   32.7660   40.8270 N   0  0  0  0  0  0  0  0  0  0  0  0
   41.1810   33.1690   40.5100 N   0  0  0  0  0  0  0  0  0  0  0  0
   41.1250   34.3930   39.9460 C   0  0  0  0  0  0  0  0  0  0  0  0
   39.8050   34.7740   39.9110 C   0  0  0  0  0  0  0  0  0  0  0  0
   39.1110   33.7260   40.4720 C   0  0  0  0  0  0  0  0  0  0  0  0
   37.7090   33.8290   40.5740 O   0  0  0  0  0  0  0  0  0  0  0  0
   36.6335   27.9292   42.3340 H   0  0  0  0  0  0  0  0  0  0  0  0
   37.3649   28.3571   43.9847 H   0  0  0  0  0  0  0  0  0  0  0  0
   39.6325   27.6155   44.5043 H   0  0  0  0  0  0  0  0  0  0  0  0
   41.0074   25.5601   44.5714 H   0  0  0  0  0  0  0  0  0  0  0  0
   40.4524   23.6817   43.0075 H   0  0  0  0  0  0  0  0  0  0  0  0
   39.0668   22.7514   41.2710 H   0  0  0  0  0  0  0  0  0  0  0  0
   37.1912   22.9380   39.7428 H   0  0  0  0  0  0  0  0  0  0  0  0
   35.7858   25.0186   39.6564 H   0  0  0  0  0  0  0  0  0  0  0  0
   36.3960   26.8974   41.2121 H   0  0  0  0  0  0  0  0  0  0  0  0
   39.5195   29.5403   44.0067 H   0  0  0  0  0  0  0  0  0  0  0  0
   37.0114   29.4785   40.5483 H   0  0  0  0  0  0  0  0  0  0  0  0
   41.9806   34.9798   39.5804 H   0  0  0  0  0  0  0  0  0  0  0  0
   39.3917   35.7149   39.5187 H   0  0  0  0  0  0  0  0  0  0  0  0
   37.1861   33.0894   40.9735 H   0  0  0  0  0  0  0  0  0  0  0  0
  1  2  1  0
  2  3  2  0
  3  4  1  0
  5  4  2  0
  6  5  1  0
  7  6  2  0
  8  7  1  0
  9  8  2  0
  9 10  1  0
 10 11  2  0
 11  6  1  0
 11  2  1  0
 13  1  1  0
 13 12  2  0
 14 13  1  0
 15 14  2  0
 15 16  1  0
 16 17  2  0
 17 12  1  0
 18 16  1  0
 19 18  1  0
 20 19  2  0
 21 20  1  0
 21 22  2  0
 22 23  1  0
 22 18  1  0
  1 24  1  0
  1 25  1  0
  3 26  1  0
  4 27  1  0
  5 28  1  0
  7 29  1  0
  8 30  1  0
  9 31  1  0
 10 32  1  0
 12 33  1  0
 14 34  1  0
 20 35  1  0
 21 36  1  0
 23 37  1  0
M  ISO  8  24   8  25   8  26  14  27  14  28  14  29  14  30  14  31  14
M  ISO  6  32  14  33  14  34  14  35  14  36  14  37   3
M  END
>  <minimizedAffinity>  (1) 
-7.1235218

>  <minimizedRMSD>  (1) 
0.392433524

$$$$
