
     RDKit          3D

 44 48  0  0  0  0  0  0  0  0999 V2000
   39.1810   30.5650   40.6490 C   0  0  0  0  0  0  0  0  0  0  0  0
   37.9190   31.0920   40.6220 C   0  0  0  0  0  0  0  0  0  0  0  0
   37.7650   32.2630   39.8690 C   0  0  0  0  0  0  0  0  0  0  0  0
   38.8320   32.7780   39.2400 N   0  0  0  0  0  0  0  0  0  0  0  0
   40.0260   32.2430   39.2890 C   0  0  0  0  0  0  0  0  0  0  0  0
   40.2340   31.0930   40.0140 N   0  0  0  0  0  0  0  0  0  0  0  0
   41.0310   32.9440   38.5650 N   0  0  0  0  0  0  0  0  0  0  0  0
   41.8980   32.6070   37.6300 N   0  0  0  0  0  0  0  0  0  0  0  0
   42.6280   33.6800   37.2890 C   0  0  0  0  0  0  0  0  0  0  0  0
   42.1970   34.7250   38.0420 C   0  0  0  0  0  0  0  0  0  0  0  0
   41.1760   34.2590   38.8600 C   0  0  0  0  0  0  0  0  0  0  0  0
   36.8360   30.4210   41.3710 C   0  0  0  0  0  0  0  0  0  0  0  0
   37.0770   29.0890   41.8430 C   0  0  0  0  0  0  0  0  0  0  0  0
   37.5300   28.9160   43.1660 C   0  0  0  0  0  0  0  0  0  0  0  0
   37.7770   27.6790   43.6940 C   0  0  0  0  0  0  0  0  0  0  0  0
   37.5670   26.5630   42.8820 C   0  0  0  0  0  0  0  0  0  0  0  0
   37.1310   26.7190   41.6080 C   0  0  0  0  0  0  0  0  0  0  0  0
   36.9080   25.6060   40.7850 C   0  0  0  0  0  0  0  0  0  0  0  0
   36.4690   25.7470   39.5220 C   0  0  0  0  0  0  0  0  0  0  0  0
   36.2130   27.0100   38.9660 C   0  0  0  0  0  0  0  0  0  0  0  0
   36.4410   28.1150   39.8050 C   0  0  0  0  0  0  0  0  0  0  0  0
   36.8800   27.9790   41.0710 C   0  0  0  0  0  0  0  0  0  0  0  0
   40.5220   35.0900   39.7540 O   0  0  0  0  0  0  0  0  0  0  0  0
   42.1060   37.1770   42.1680 N   0  0  0  0  0  0  0  0  0  0  0  0
   41.1830   37.0140   41.2370 N   0  0  0  0  0  0  0  0  0  0  0  0
   41.2030   35.7930   40.7040 C   0  0  0  0  0  0  0  0  0  0  0  0
   42.2370   35.1400   41.3710 C   0  0  0  0  0  0  0  0  0  0  0  0
   42.7830   36.0240   42.2780 C   0  0  0  0  0  0  0  0  0  0  0  0
   39.3410   29.6458   41.2316 H   0  0  0  0  0  0  0  0  0  0  0  0
   36.7831   32.7533   39.7945 H   0  0  0  0  0  0  0  0  0  0  0  0
   43.4298   33.7082   36.5364 H   0  0  0  0  0  0  0  0  0  0  0  0
   42.5859   35.7534   38.0098 H   0  0  0  0  0  0  0  0  0  0  0  0
   36.6088   31.0442   42.2485 H   0  0  0  0  0  0  0  0  0  0  0  0
   36.0195   30.3135   40.6417 H   0  0  0  0  0  0  0  0  0  0  0  0
   37.6901   29.8046   43.7943 H   0  0  0  0  0  0  0  0  0  0  0  0
   38.1312   27.5665   44.7293 H   0  0  0  0  0  0  0  0  0  0  0  0
   37.7559   25.5540   43.2772 H   0  0  0  0  0  0  0  0  0  0  0  0
   37.0960   24.5970   41.1806 H   0  0  0  0  0  0  0  0  0  0  0  0
   36.3062   24.8488   38.9083 H   0  0  0  0  0  0  0  0  0  0  0  0
   35.8545   27.1286   37.9329 H   0  0  0  0  0  0  0  0  0  0  0  0
   36.2543   29.1260   39.4137 H   0  0  0  0  0  0  0  0  0  0  0  0
   42.2754   38.0352   42.7118 H   0  0  0  0  0  0  0  0  0  0  0  0
   42.5610   34.1022   41.2038 H   0  0  0  0  0  0  0  0  0  0  0  0
   43.6185   35.8213   42.9642 H   0  0  0  0  0  0  0  0  0  0  0  0
  2  1  2  0
  2 12  1  0
  3  2  1  0
  4  5  1  0
  4  3  2  0
  5  6  2  0
  6  1  1  0
  7 11  1  0
  7  5  1  0
  8  7  1  0
  9  8  2  0
  9 10  1  0
 10 11  2  0
 11 23  1  0
 12 13  1  0
 13 14  2  0
 14 15  1  0
 16 15  2  0
 17 16  1  0
 18 17  2  0
 19 18  1  0
 20 19  2  0
 20 21  1  0
 21 22  2  0
 22 17  1  0
 22 13  1  0
 23 26  1  0
 24 28  1  0
 25 24  1  0
 26 25  2  0
 26 27  1  0
 27 28  2  0
  1 29  1  0
  3 30  1  0
  9 31  1  0
 10 32  1  0
 12 33  1  0
 12 34  1  0
 14 35  1  0
 15 36  1  0
 16 37  1  0
 18 38  1  0
 19 39  1  0
 20 40  1  0
 21 41  1  0
 24 42  1  0
 27 43  1  0
 28 44  1  0
M  ISO  8  29  14  30  14  31  14  32  14  33   8  34   8  35  14  36  14
M  ISO  8  37  14  38  14  39  14  40  14  41  14  42   9  43  14  44  14
M  END
>  <minimizedAffinity>  (1) 
-7.40231705

>  <minimizedRMSD>  (1) 
3.48844481

$$$$
