
     RDKit          3D

 46 49  0  0  0  0  0  0  0  0999 V2000
   37.4930   28.0930   43.2170 C   0  0  0  0  0  0  0  0  0  0  0  0
   38.3460   26.9490   43.1030 C   0  0  0  0  0  0  0  0  0  0  0  0
   39.5000   26.8920   43.9140 C   0  0  0  0  0  0  0  0  0  0  0  0
   40.3660   25.8410   43.8820 C   0  0  0  0  0  0  0  0  0  0  0  0
   40.0740   24.7880   43.0010 C   0  0  0  0  0  0  0  0  0  0  0  0
   38.9660   24.8320   42.2160 C   0  0  0  0  0  0  0  0  0  0  0  0
   38.6650   23.7750   41.3400 C   0  0  0  0  0  0  0  0  0  0  0  0
   37.5640   23.8080   40.5670 C   0  0  0  0  0  0  0  0  0  0  0  0
   36.6730   24.8880   40.5970 C   0  0  0  0  0  0  0  0  0  0  0  0
   36.9840   25.9480   41.4820 C   0  0  0  0  0  0  0  0  0  0  0  0
   38.0890   25.9090   42.2540 C   0  0  0  0  0  0  0  0  0  0  0  0
   37.1250   29.9900   41.6980 C   0  0  0  0  0  0  0  0  0  0  0  0
   37.9440   29.3560   42.5900 C   0  0  0  0  0  0  0  0  0  0  0  0
   39.1730   29.9850   42.8260 C   0  0  0  0  0  0  0  0  0  0  0  0
   39.4490   31.1250   42.1830 N   0  0  0  0  0  0  0  0  0  0  0  0
   38.6400   31.7050   41.3340 C   0  0  0  0  0  0  0  0  0  0  0  0
   37.4220   31.1320   41.0650 N   0  0  0  0  0  0  0  0  0  0  0  0
   39.1120   32.9110   40.7490 N   0  0  0  0  0  0  0  0  0  0  0  0
   38.6720   34.1330   40.6370 N   0  0  0  0  0  0  0  0  0  0  0  0
   39.5620   34.8800   39.9670 C   0  0  0  0  0  0  0  0  0  0  0  0
   40.6220   34.0860   39.6380 C   0  0  0  0  0  0  0  0  0  0  0  0
   40.3190   32.8310   40.1450 C   0  0  0  0  0  0  0  0  0  0  0  0
   41.2260   31.7840   39.9650 O   0  0  0  0  0  0  0  0  0  0  0  0
   42.4780   31.6680   40.5510 C   0  0  0  0  0  0  0  0  0  0  0  0
   43.6030   32.0450   39.5780 C   0  0  0  0  0  0  0  0  0  0  0  0
   42.5630   32.6890   41.6800 C   0  0  0  0  0  0  0  0  0  0  0  0
   36.5267   27.8282   42.7630 H   0  0  0  0  0  0  0  0  0  0  0  0
   37.4671   28.3127   44.2945 H   0  0  0  0  0  0  0  0  0  0  0  0
   39.7079   27.7281   44.5979 H   0  0  0  0  0  0  0  0  0  0  0  0
   41.2602   25.8184   44.5223 H   0  0  0  0  0  0  0  0  0  0  0  0
   40.7477   23.9202   42.9457 H   0  0  0  0  0  0  0  0  0  0  0  0
   39.3395   22.9078   41.2854 H   0  0  0  0  0  0  0  0  0  0  0  0
   37.3582   22.9634   39.8930 H   0  0  0  0  0  0  0  0  0  0  0  0
   35.7743   24.9114   39.9631 H   0  0  0  0  0  0  0  0  0  0  0  0
   36.3133   26.8179   41.5410 H   0  0  0  0  0  0  0  0  0  0  0  0
   36.1499   29.5279   41.4844 H   0  0  0  0  0  0  0  0  0  0  0  0
   39.8988   29.5489   43.5281 H   0  0  0  0  0  0  0  0  0  0  0  0
   39.4559   35.9477   39.7247 H   0  0  0  0  0  0  0  0  0  0  0  0
   41.5272   34.3797   39.0863 H   0  0  0  0  0  0  0  0  0  0  0  0
   42.5966   30.6253   40.8808 H   0  0  0  0  0  0  0  0  0  0  0  0
   44.4954   32.3440   40.1474 H   0  0  0  0  0  0  0  0  0  0  0  0
   43.8454   31.1790   38.9445 H   0  0  0  0  0  0  0  0  0  0  0  0
   43.2747   32.8822   38.9445 H   0  0  0  0  0  0  0  0  0  0  0  0
   42.5197   32.1692   42.6485 H   0  0  0  0  0  0  0  0  0  0  0  0
   43.5104   33.2427   41.6031 H   0  0  0  0  0  0  0  0  0  0  0  0
   41.7203   33.3918   41.6031 H   0  0  0  0  0  0  0  0  0  0  0  0
  2  1  1  0
  2  3  2  0
  4  3  1  0
  5  4  2  0
  6 11  2  0
  6  5  1  0
  7  6  1  0
  8  9  1  0
  8  7  2  0
  9 10  2  0
 10 11  1  0
 11  2  1  0
 12 13  2  0
 13 14  1  0
 13  1  1  0
 15 14  2  0
 16 15  1  0
 17 16  2  0
 17 12  1  0
 18 16  1  0
 19 18  1  0
 20 19  2  0
 21 20  1  0
 21 22  2  0
 22 18  1  0
 23 22  1  0
 23 24  1  0
 24 26  1  0
 25 24  1  0
  1 27  1  0
  1 28  1  0
  3 29  1  0
  4 30  1  0
  5 31  1  0
  7 32  1  0
  8 33  1  0
  9 34  1  0
 10 35  1  0
 12 36  1  0
 14 37  1  0
 20 38  1  0
 21 39  1  0
 24 40  1  0
 25 41  1  0
 25 42  1  0
 25 43  1  0
 26 44  1  0
 26 45  1  0
 26 46  1  0
M  ISO  8  27   8  28   8  29  14  30  14  31  14  32  14  33  14  34  14
M  ISO  8  35  14  36  14  37  14  38  14  39  14  40   8  41   8  42   8
M  ISO  4  43   8  44   8  45   8  46   8
M  END
>  <minimizedAffinity>  (1) 
-6.73239946

>  <minimizedRMSD>  (1) 
2.76529169

$$$$
