
     RDKit          3D

 45 49  0  0  0  0  0  0  0  0999 V2000
   41.1050   29.6040   41.6980 C   0  0  0  0  0  0  0  0  0  0  0  0
   39.7400   29.5560   41.7010 C   0  0  0  0  0  0  0  0  0  0  0  0
   39.1070   30.2020   40.6310 C   0  0  0  0  0  0  0  0  0  0  0  0
   39.8570   30.8070   39.7020 N   0  0  0  0  0  0  0  0  0  0  0  0
   41.1660   30.8330   39.7310 C   0  0  0  0  0  0  0  0  0  0  0  0
   41.8430   30.2140   40.7590 N   0  0  0  0  0  0  0  0  0  0  0  0
   41.7860   31.5330   38.6580 N   0  0  0  0  0  0  0  0  0  0  0  0
   42.7040   31.2460   37.7700 N   0  0  0  0  0  0  0  0  0  0  0  0
   42.9190   32.3000   36.9680 C   0  0  0  0  0  0  0  0  0  0  0  0
   42.0850   33.2960   37.3830 C   0  0  0  0  0  0  0  0  0  0  0  0
   41.3680   32.8040   38.4580 C   0  0  0  0  0  0  0  0  0  0  0  0
   39.0460   28.8510   42.8010 C   0  0  0  0  0  0  0  0  0  0  0  0
   39.2730   27.4440   42.9440 C   0  0  0  0  0  0  0  0  0  0  0  0
   40.3260   27.0130   43.7760 C   0  0  0  0  0  0  0  0  0  0  0  0
   40.6090   25.6910   43.9730 C   0  0  0  0  0  0  0  0  0  0  0  0
   39.8110   24.7470   43.3130 C   0  0  0  0  0  0  0  0  0  0  0  0
   38.7950   25.1500   42.5090 C   0  0  0  0  0  0  0  0  0  0  0  0
   37.9900   24.2110   41.8520 C   0  0  0  0  0  0  0  0  0  0  0  0
   36.9730   24.6020   41.0550 C   0  0  0  0  0  0  0  0  0  0  0  0
   36.6780   25.9570   40.8480 C   0  0  0  0  0  0  0  0  0  0  0  0
   37.4990   26.8830   41.5160 C   0  0  0  0  0  0  0  0  0  0  0  0
   38.5180   26.4970   42.3170 C   0  0  0  0  0  0  0  0  0  0  0  0
   40.4260   33.5950   39.1050 O   0  0  0  0  0  0  0  0  0  0  0  0
   40.6580   34.7290   39.8300 C   0  0  0  0  0  0  0  0  0  0  0  0
   41.7120   34.6350   40.7120 C   0  0  0  0  0  0  0  0  0  0  0  0
   42.0650   35.7030   41.5130 C   0  0  0  0  0  0  0  0  0  0  0  0
   41.3760   36.8510   41.4340 N   0  0  0  0  0  0  0  0  0  0  0  0
   40.3470   36.9480   40.5740 C   0  0  0  0  0  0  0  0  0  0  0  0
   40.0130   35.9010   39.7990 N   0  0  0  0  0  0  0  0  0  0  0  0
   41.6361   29.1076   42.5235 H   0  0  0  0  0  0  0  0  0  0  0  0
   38.0096   30.2119   40.5555 H   0  0  0  0  0  0  0  0  0  0  0  0
   43.6334   32.3511   36.1331 H   0  0  0  0  0  0  0  0  0  0  0  0
   41.9989   34.3014   36.9450 H   0  0  0  0  0  0  0  0  0  0  0  0
   39.3535   29.3297   43.7424 H   0  0  0  0  0  0  0  0  0  0  0  0
   37.9779   28.9340   42.5513 H   0  0  0  0  0  0  0  0  0  0  0  0
   40.9423   27.7685   44.2852 H   0  0  0  0  0  0  0  0  0  0  0  0
   41.4356   25.3781   44.6278 H   0  0  0  0  0  0  0  0  0  0  0  0
   40.0093   23.6734   43.4474 H   0  0  0  0  0  0  0  0  0  0  0  0
   38.1896   23.1378   41.9876 H   0  0  0  0  0  0  0  0  0  0  0  0
   36.3599   23.8378   40.5550 H   0  0  0  0  0  0  0  0  0  0  0  0
   35.8500   26.2781   40.1989 H   0  0  0  0  0  0  0  0  0  0  0  0
   37.3058   27.9576   41.3825 H   0  0  0  0  0  0  0  0  0  0  0  0
   42.2806   33.6957   40.7792 H   0  0  0  0  0  0  0  0  0  0  0  0
   42.9083   35.6125   42.2134 H   0  0  0  0  0  0  0  0  0  0  0  0
   39.7769   37.8862   40.5042 H   0  0  0  0  0  0  0  0  0  0  0  0
  1  2  2  0
  2 12  1  0
  3  2  1  0
  4  5  1  0
  4  3  2  0
  5  6  2  0
  6  1  1  0
  7  5  1  0
  8  7  1  0
  9 10  1  0
  9  8  2  0
 10 11  2  0
 11  7  1  0
 11 23  1  0
 12 13  1  0
 13 14  2  0
 14 15  1  0
 16 15  2  0
 17 16  1  0
 18 17  2  0
 19 18  1  0
 20 19  2  0
 20 21  1  0
 21 22  2  0
 22 17  1  0
 22 13  1  0
 23 24  1  0
 24 25  2  0
 25 26  1  0
 27 26  2  0
 28 27  1  0
 29 24  1  0
 29 28  2  0
  1 30  1  0
  3 31  1  0
  9 32  1  0
 10 33  1  0
 12 34  1  0
 12 35  1  0
 14 36  1  0
 15 37  1  0
 16 38  1  0
 18 39  1  0
 19 40  1  0
 20 41  1  0
 21 42  1  0
 25 43  1  0
 26 44  1  0
 28 45  1  0
M  ISO  8  30  14  31  14  32  14  33  14  34   8  35   8  36  14  37  14
M  ISO  8  38  14  39  14  40  14  41  14  42  14  43  14  44  14  45  14
M  END
>  <minimizedAffinity>  (1) 
-6.6883955

>  <minimizedRMSD>  (1) 
3.04130888

$$$$
