
     RDKit          3D

 36 39  0  0  1  0  0  0  0  0999 V2000
   38.6230   27.6480   42.1910 N   0  0  0  0  0  0  0  0  0  0  0  0
   38.5390   26.4990   43.0330 C   0  0  0  0  0  0  0  0  0  0  0  0
   39.7670   26.6110   43.9320 C   0  0  0  0  0  0  0  0  0  0  0  0
   40.5760   27.7620   43.3860 C   0  0  0  0  0  0  0  0  0  0  0  0
   40.0380   27.8690   41.9880 C   0  0  2  0  0  0  0  0  0  0  0  0
   40.3840   29.1350   41.4360 N   0  0  0  0  0  0  0  0  0  0  0  0
   39.9120   29.6120   40.2450 C   0  0  0  0  0  0  0  0  0  0  0  0
   40.4140   30.8500   39.9720 N   0  0  0  0  0  0  0  0  0  0  0  0
   41.2320   31.1930   41.0030 C   0  0  0  0  0  0  0  0  0  0  0  0
   41.9920   32.2930   41.2740 C   0  0  0  0  0  0  0  0  0  0  0  0
   42.0490   33.2700   40.5050 O   0  0  0  0  0  0  0  0  0  0  0  0
   42.7260   32.3540   42.4170 N   0  0  0  0  0  0  0  0  0  0  0  0
   42.6770   31.3040   43.2640 C   0  0  0  0  0  0  0  0  0  0  0  0
   43.3960   31.2450   44.4890 N   0  0  0  0  0  0  0  0  0  0  0  0
   41.9140   30.2140   42.9800 N   0  0  0  0  0  0  0  0  0  0  0  0
   41.1840   30.1260   41.8670 C   0  0  0  0  0  0  0  0  0  0  0  0
   37.4110   29.8020   41.8640 C   0  0  0  0  0  0  0  0  0  0  0  0
   37.5850   28.4260   41.6530 C   0  0  0  0  0  0  0  0  0  0  0  0
   36.6360   27.7890   40.8330 C   0  0  0  0  0  0  0  0  0  0  0  0
   35.6230   28.5100   40.2950 N   0  0  0  0  0  0  0  0  0  0  0  0
   35.5010   29.8460   40.5320 C   0  0  0  0  0  0  0  0  0  0  0  0
   36.3990   30.4740   41.3150 N   0  0  0  0  0  0  0  0  0  0  0  0
   37.6147   26.5176   43.6291 H   0  0  0  0  0  0  0  0  0  0  0  0
   38.5145   25.5577   42.4643 H   0  0  0  0  0  0  0  0  0  0  0  0
   39.4642   26.8145   44.9697 H   0  0  0  0  0  0  0  0  0  0  0  0
   40.3481   25.6770   43.9400 H   0  0  0  0  0  0  0  0  0  0  0  0
   40.3977   28.6851   43.9570 H   0  0  0  0  0  0  0  0  0  0  0  0
   41.6642   27.6098   43.4375 H   0  0  0  0  0  0  0  0  0  0  0  0
   40.4423   27.1556   41.2548 H   0  0  0  0  0  0  0  0  0  0  0  0
   39.2161   29.0667   39.5905 H   0  0  0  0  0  0  0  0  0  0  0  0
   43.3039   33.1793   42.6308 H   0  0  0  0  0  0  0  0  0  0  0  0
   43.3169   30.4145   45.0931 H   0  0  0  0  0  0  0  0  0  0  0  0
   43.9960   32.0327   44.7724 H   0  0  0  0  0  0  0  0  0  0  0  0
   38.1290   30.3409   42.4996 H   0  0  0  0  0  0  0  0  0  0  0  0
   36.7160   26.7109   40.6296 H   0  0  0  0  0  0  0  0  0  0  0  0
   34.6701   30.4111   40.0844 H   0  0  0  0  0  0  0  0  0  0  0  0
  1  2  1  0
  2  3  1  0
  4  3  1  0
  5  1  1  0
  5  4  1  0
  6 16  1  0
  6  5  1  0
  7  6  1  0
  8  7  2  0
  8  9  1  0
  9 10  1  0
  9 16  2  0
 10 12  1  0
 11 10  2  0
 12 13  1  0
 13 14  1  0
 15 13  2  0
 16 15  1  0
 18 17  2  0
 18  1  1  0
 19 18  1  0
 20 21  1  0
 20 19  2  0
 21 22  2  0
 22 17  1  0
  2 23  1  0
  2 24  1  0
  3 25  1  0
  3 26  1  0
  4 27  1  0
  4 28  1  0
  5 29  1  6
  7 30  1  0
 12 31  1  0
 14 32  1  0
 14 33  1  0
 17 34  1  0
 19 35  1  0
 21 36  1  0
M  ISO  8  23  13  24  13  25  13  26  13  27  13  28  13  29  13  30  14
M  ISO  4  31   9  34  14  35  14  36  14
M  END
>  <minimizedAffinity>  (1) 
-5.11111546

>  <minimizedRMSD>  (1) 
0.132415876

$$$$
