
     RDKit          3D

 38 41  0  0  1  0  0  0  0  0999 V2000
   36.9760   28.0430   41.5720 N   0  0  0  0  0  0  0  0  0  0  0  0
   36.5960   27.5270   42.8770 C   0  0  0  0  0  0  0  0  0  0  0  0
   37.3470   28.3860   43.8720 C   0  0  0  0  0  0  0  0  0  0  0  0
   38.2260   29.2910   43.0430 C   0  0  0  0  0  0  0  0  0  0  0  0
   38.3130   28.4300   41.7730 C   0  0  2  0  0  0  0  0  0  0  0  0
   39.0760   29.0630   40.7200 C   0  0  0  0  0  0  0  0  0  0  0  0
   40.0560   28.4650   39.9590 C   0  0  0  0  0  0  0  0  0  0  0  0
   40.7740   29.0130   38.9180 C   0  0  0  0  0  0  0  0  0  0  0  0
   40.4980   30.3180   38.5770 C   0  0  0  0  0  0  0  0  0  0  0  0
   39.5310   31.0030   39.2810 C   0  0  0  0  0  0  0  0  0  0  0  0
   39.3150   32.3050   38.8880 C   0  0  0  0  0  0  0  0  0  0  0  0
   38.3750   33.0570   39.5430 C   0  0  0  0  0  0  0  0  0  0  0  0
   37.6640   32.4780   40.5920 C   0  0  0  0  0  0  0  0  0  0  0  0
   37.9310   31.1790   40.9310 C   0  0  0  0  0  0  0  0  0  0  0  0
   38.8610   30.3760   40.3100 C   0  0  0  0  0  0  0  0  0  0  0  0
   36.3340   27.2610   39.3200 C   0  0  0  0  0  0  0  0  0  0  0  0
   36.1850   28.1000   40.4270 C   0  0  0  0  0  0  0  0  0  0  0  0
   35.1390   29.0520   40.3620 C   0  0  0  0  0  0  0  0  0  0  0  0
   34.3560   29.1010   39.2610 N   0  0  0  0  0  0  0  0  0  0  0  0
   34.5480   28.2570   38.2110 C   0  0  0  0  0  0  0  0  0  0  0  0
   35.5480   27.3310   38.2480 N   0  0  0  0  0  0  0  0  0  0  0  0
   35.5104   27.6196   43.0282 H   0  0  0  0  0  0  0  0  0  0  0  0
   36.8393   26.4598   42.9861 H   0  0  0  0  0  0  0  0  0  0  0  0
   36.6439   28.9799   44.4745 H   0  0  0  0  0  0  0  0  0  0  0  0
   37.9359   27.7768   44.5735 H   0  0  0  0  0  0  0  0  0  0  0  0
   37.7525   30.2651   42.8509 H   0  0  0  0  0  0  0  0  0  0  0  0
   39.1887   29.5671   43.4980 H   0  0  0  0  0  0  0  0  0  0  0  0
   38.9205   27.5147   41.8295 H   0  0  0  0  0  0  0  0  0  0  0  0
   40.2950   27.4218   40.2134 H   0  0  0  0  0  0  0  0  0  0  0  0
   41.5373   28.4308   38.3809 H   0  0  0  0  0  0  0  0  0  0  0  0
   41.0412   30.8068   37.7548 H   0  0  0  0  0  0  0  0  0  0  0  0
   39.8912   32.7371   38.0566 H   0  0  0  0  0  0  0  0  0  0  0  0
   38.1853   34.0990   39.2459 H   0  0  0  0  0  0  0  0  0  0  0  0
   36.9022   33.0541   41.1377 H   0  0  0  0  0  0  0  0  0  0  0  0
   37.3587   30.7434   41.7633 H   0  0  0  0  0  0  0  0  0  0  0  0
   37.1366   26.5090   39.3349 H   0  0  0  0  0  0  0  0  0  0  0  0
   34.9652   29.7446   41.1987 H   0  0  0  0  0  0  0  0  0  0  0  0
   33.8939   28.3221   37.3290 H   0  0  0  0  0  0  0  0  0  0  0  0
  1  5  1  0
  1  2  1  0
  2  3  1  0
  4  3  1  0
  5  4  1  0
  6  5  1  0
  7  6  2  0
  8  7  1  0
  9  8  2  0
  9 10  1  0
 10 15  2  0
 11 10  1  0
 11 12  2  0
 12 13  1  0
 13 14  2  0
 15  6  1  0
 15 14  1  0
 16 17  2  0
 17  1  1  0
 18 17  1  0
 19 18  2  0
 20 21  2  0
 20 19  1  0
 21 16  1  0
  2 22  1  0
  2 23  1  0
  3 24  1  0
  3 25  1  0
  4 26  1  0
  4 27  1  0
  5 28  1  1
  7 29  1  0
  8 30  1  0
  9 31  1  0
 11 32  1  0
 12 33  1  0
 13 34  1  0
 14 35  1  0
 16 36  1  0
 18 37  1  0
 20 38  1  0
M  ISO  8  22  13  23  13  24  13  25  13  26  13  27  13  28  13  29  14
M  ISO  8  30  14  31  14  32  14  33  14  34  14  35  14  36  14  37  14
M  ISO  1  38  14
M  END
>  <minimizedAffinity>  (1) 
-5.03964329

>  <minimizedRMSD>  (1) 
2.36396003

$$$$
