
     RDKit          3D

 32 34  0  0  1  0  0  0  0  0999 V2000
   38.2990   27.7940   42.3900 N   0  0  0  0  0  0  0  0  0  0  0  0
   38.2510   27.3530   43.7450 C   0  0  0  0  0  0  0  0  0  0  0  0
   39.6300   26.7650   44.0080 C   0  0  0  0  0  0  0  0  0  0  0  0
   40.3330   26.8050   42.6930 C   0  0  0  0  0  0  0  0  0  0  0  0
   39.1840   26.8720   41.7280 C   0  0  1  0  0  0  0  0  0  0  0  0
   38.2320   30.1440   41.5750 C   0  0  0  0  0  0  0  0  0  0  0  0
   37.6420   28.8870   41.7900 C   0  0  0  0  0  0  0  0  0  0  0  0
   36.2990   28.7080   41.3730 C   0  0  0  0  0  0  0  0  0  0  0  0
   35.6710   29.7680   40.7910 N   0  0  0  0  0  0  0  0  0  0  0  0
   36.2790   30.9610   40.6050 C   0  0  0  0  0  0  0  0  0  0  0  0
   37.5500   31.1380   40.9960 N   0  0  0  0  0  0  0  0  0  0  0  0
   38.5890   25.5870   41.3670 C   0  0  0  0  0  0  0  0  0  0  0  0
   39.2720   24.4970   40.8410 C   0  0  0  0  0  0  0  0  0  0  0  0
   38.6660   23.2980   40.5130 C   0  0  0  0  0  0  0  0  0  0  0  0
   37.3170   23.1450   40.7070 C   0  0  0  0  0  0  0  0  0  0  0  0
   36.6190   24.2130   41.2280 C   0  0  0  0  0  0  0  0  0  0  0  0
   37.2370   25.4090   41.5530 C   0  0  0  0  0  0  0  0  0  0  0  0
   38.0539   28.1978   44.4213 H   0  0  0  0  0  0  0  0  0  0  0  0
   37.4469   26.6224   43.9171 H   0  0  0  0  0  0  0  0  0  0  0  0
   40.1705   27.3684   44.7522 H   0  0  0  0  0  0  0  0  0  0  0  0
   39.5698   25.7427   44.4096 H   0  0  0  0  0  0  0  0  0  0  0  0
   40.9768   27.6931   42.6106 H   0  0  0  0  0  0  0  0  0  0  0  0
   41.0062   25.9518   42.5233 H   0  0  0  0  0  0  0  0  0  0  0  0
   39.4857   27.2046   40.7238 H   0  0  0  0  0  0  0  0  0  0  0  0
   39.2727   30.3133   41.8883 H   0  0  0  0  0  0  0  0  0  0  0  0
   35.7821   27.7473   41.5143 H   0  0  0  0  0  0  0  0  0  0  0  0
   35.7302   31.7886   40.1319 H   0  0  0  0  0  0  0  0  0  0  0  0
   40.3553   24.5933   40.6763 H   0  0  0  0  0  0  0  0  0  0  0  0
   39.2625   22.4718   40.0989 H   0  0  0  0  0  0  0  0  0  0  0  0
   36.8095   22.2021   40.4554 H   0  0  0  0  0  0  0  0  0  0  0  0
   35.5358   24.1122   41.3910 H   0  0  0  0  0  0  0  0  0  0  0  0
   36.6362   26.2319   41.9675 H   0  0  0  0  0  0  0  0  0  0  0  0
  1  2  1  0
  2  3  1  0
  4  3  1  0
  5  1  1  0
  5  4  1  0
  6  7  2  0
  7  1  1  0
  8  7  1  0
  9  8  2  0
 10  9  1  0
 10 11  2  0
 11  6  1  0
 12 17  1  0
 12  5  1  0
 13 12  2  0
 14 15  2  0
 14 13  1  0
 15 16  1  0
 16 17  2  0
  2 18  1  0
  2 19  1  0
  3 20  1  0
  3 21  1  0
  4 22  1  0
  4 23  1  0
  5 24  1  6
  6 25  1  0
  8 26  1  0
 10 27  1  0
 13 28  1  0
 14 29  1  0
 15 30  1  0
 16 31  1  0
 17 32  1  0
M  ISO  8  18  13  19  13  20  13  21  13  22  13  23  13  24  13  25  14
M  ISO  7  26  14  27  14  28  14  29  14  30  14  31  14  32  14
M  END
>  <minimizedAffinity>  (1) 
-4.82920694

>  <minimizedRMSD>  (1) 
2.5851438

$$$$
