
     RDKit          3D

 31 33  0  0  1  0  0  0  0  0999 V2000
   38.3150   28.0960   42.3460 N   0  0  0  0  0  0  0  0  0  0  0  0
   38.1050   27.6320   43.6780 C   0  0  0  0  0  0  0  0  0  0  0  0
   39.3670   26.8380   43.9970 C   0  0  0  0  0  0  0  0  0  0  0  0
   40.1000   26.7150   42.7130 C   0  0  0  0  0  0  0  0  0  0  0  0
   39.0540   27.0600   41.6920 C   0  0  1  0  0  0  0  0  0  0  0  0
   38.7710   30.3640   41.4140 C   0  0  0  0  0  0  0  0  0  0  0  0
   37.9030   29.3060   41.7530 C   0  0  0  0  0  0  0  0  0  0  0  0
   36.5430   29.4920   41.4700 C   0  0  0  0  0  0  0  0  0  0  0  0
   36.1140   30.6370   40.9020 N   0  0  0  0  0  0  0  0  0  0  0  0
   36.9920   31.6310   40.5920 C   0  0  0  0  0  0  0  0  0  0  0  0
   38.3010   31.4830   40.8510 N   0  0  0  0  0  0  0  0  0  0  0  0
   38.2780   25.9220   41.2170 C   0  0  0  0  0  0  0  0  0  0  0  0
   38.6650   24.6380   41.5440 C   0  0  0  0  0  0  0  0  0  0  0  0
   37.9700   23.5080   41.1220 C   0  0  0  0  0  0  0  0  0  0  0  0
   36.8380   23.7170   40.3370 C   0  0  0  0  0  0  0  0  0  0  0  0
   36.4800   25.0140   40.0290 C   0  0  0  0  0  0  0  0  0  0  0  0
   37.1860   26.1000   40.4600 N   0  0  0  0  0  0  0  0  0  0  0  0
   37.9891   28.4772   44.3725 H   0  0  0  0  0  0  0  0  0  0  0  0
   37.1901   27.0292   43.7764 H   0  0  0  0  0  0  0  0  0  0  0  0
   39.9792   27.3725   44.7383 H   0  0  0  0  0  0  0  0  0  0  0  0
   39.1293   25.8527   44.4245 H   0  0  0  0  0  0  0  0  0  0  0  0
   40.9426   27.4208   42.6697 H   0  0  0  0  0  0  0  0  0  0  0  0
   40.5428   25.7197   42.5604 H   0  0  0  0  0  0  0  0  0  0  0  0
   39.4713   27.3993   40.7324 H   0  0  0  0  0  0  0  0  0  0  0  0
   39.8482   30.2683   41.6149 H   0  0  0  0  0  0  0  0  0  0  0  0
   35.8209   28.6986   41.7129 H   0  0  0  0  0  0  0  0  0  0  0  0
   36.6271   32.5589   40.1275 H   0  0  0  0  0  0  0  0  0  0  0  0
   39.5623   24.5016   42.1655 H   0  0  0  0  0  0  0  0  0  0  0  0
   38.2999   22.4951   41.3961 H   0  0  0  0  0  0  0  0  0  0  0  0
   36.2429   22.8674   39.9709 H   0  0  0  0  0  0  0  0  0  0  0  0
   35.5866   25.1798   39.4090 H   0  0  0  0  0  0  0  0  0  0  0  0
  1  2  1  0
  2  3  1  0
  4  3  1  0
  5  1  1  0
  5  4  1  0
  6  7  2  0
  7  1  1  0
  8  7  1  0
  9  8  2  0
 10 11  2  0
 10  9  1  0
 11  6  1  0
 12 13  2  0
 12  5  1  0
 14 13  1  0
 15 14  2  0
 16 15  1  0
 16 17  2  0
 17 12  1  0
  2 18  1  0
  2 19  1  0
  3 20  1  0
  3 21  1  0
  4 22  1  0
  4 23  1  0
  5 24  1  6
  6 25  1  0
  8 26  1  0
 10 27  1  0
 13 28  1  0
 14 29  1  0
 15 30  1  0
 16 31  1  0
M  ISO  8  18  13  19  13  20  13  21  13  22  13  23  13  24  13  25  14
M  ISO  6  26  14  27  14  28  14  29  14  30  14  31  14
M  END
>  <minimizedAffinity>  (1) 
-4.52784395

>  <minimizedRMSD>  (1) 
2.87555933

$$$$
