
     RDKit          3D

 29 31  0  0  1  0  0  0  0  0999 V2000
   38.2870   27.8370   42.4040 N   0  0  0  0  0  0  0  0  0  0  0  0
   38.2380   27.4730   43.7870 C   0  0  0  0  0  0  0  0  0  0  0  0
   39.5600   26.7450   44.0160 C   0  0  0  0  0  0  0  0  0  0  0  0
   40.1860   26.5910   42.6580 C   0  0  0  0  0  0  0  0  0  0  0  0
   39.0300   26.7960   41.7270 C   0  0  1  0  0  0  0  0  0  0  0  0
   38.4590   30.1650   41.5100 C   0  0  0  0  0  0  0  0  0  0  0  0
   37.7330   28.9760   41.7840 C   0  0  0  0  0  0  0  0  0  0  0  0
   36.3840   28.9510   41.4090 C   0  0  0  0  0  0  0  0  0  0  0  0
   35.8480   30.0510   40.8090 N   0  0  0  0  0  0  0  0  0  0  0  0
   36.5750   31.1650   40.5650 C   0  0  0  0  0  0  0  0  0  0  0  0
   37.8870   31.2120   40.9220 N   0  0  0  0  0  0  0  0  0  0  0  0
   38.2390   25.5720   41.5100 C   0  0  0  0  0  0  0  0  0  0  0  0
   36.9470   25.3670   41.0310 C   0  0  0  0  0  0  0  0  0  0  0  0
   36.7770   23.9990   41.0620 C   0  0  0  0  0  0  0  0  0  0  0  0
   37.8960   23.4150   41.5270 N   0  0  0  0  0  0  0  0  0  0  0  0
   38.7780   24.3540   41.7980 N   0  0  0  0  0  0  0  0  0  0  0  0
   38.1661   28.3659   44.4254 H   0  0  0  0  0  0  0  0  0  0  0  0
   37.3623   26.8550   44.0346 H   0  0  0  0  0  0  0  0  0  0  0  0
   40.2137   27.3366   44.6738 H   0  0  0  0  0  0  0  0  0  0  0  0
   39.4055   25.7706   44.5024 H   0  0  0  0  0  0  0  0  0  0  0  0
   40.9650   27.3500   42.4937 H   0  0  0  0  0  0  0  0  0  0  0  0
   40.6866   25.6213   42.5196 H   0  0  0  0  0  0  0  0  0  0  0  0
   39.3327   27.0654   40.7044 H   0  0  0  0  0  0  0  0  0  0  0  0
   39.5210   30.2217   41.7910 H   0  0  0  0  0  0  0  0  0  0  0  0
   35.7678   28.0591   41.5955 H   0  0  0  0  0  0  0  0  0  0  0  0
   36.1058   32.0326   40.0781 H   0  0  0  0  0  0  0  0  0  0  0  0
   36.2235   26.1272   40.7014 H   0  0  0  0  0  0  0  0  0  0  0  0
   35.8653   23.4664   40.7535 H   0  0  0  0  0  0  0  0  0  0  0  0
   38.0389   22.4024   41.6504 H   0  0  0  0  0  0  0  0  0  0  0  0
  1  2  1  0
  2  3  1  0
  4  3  1  0
  5  1  1  0
  5  4  1  0
  6  7  2  0
  7  1  1  0
  8  7  1  0
  9  8  2  0
 10  9  1  0
 10 11  2  0
 11  6  1  0
 12  5  1  0
 12 16  2  0
 13 14  2  0
 13 12  1  0
 14 15  1  0
 15 16  1  0
  2 17  1  0
  2 18  1  0
  3 19  1  0
  3 20  1  0
  4 21  1  0
  4 22  1  0
  5 23  1  6
  6 24  1  0
  8 25  1  0
 10 26  1  0
 13 27  1  0
 14 28  1  0
 15 29  1  0
M  ISO  8  17  13  18  13  19  13  20  13  21  13  22  13  23  13  24  14
M  ISO  5  25  14  26  14  27  14  28  14  29   9
M  END
>  <minimizedAffinity>  (1) 
-4.52225447

>  <minimizedRMSD>  (1) 
2.58674288

$$$$
