
     RDKit          3D

 25 26  0  0  1  0  0  0  0  0999 V2000
   37.9770   27.4950   42.4080 N   0  0  0  0  0  0  0  0  0  0  0  0
   38.4120   27.3470   43.7770 C   0  0  0  0  0  0  0  0  0  0  0  0
   39.5860   26.3790   43.6840 C   0  0  0  0  0  0  0  0  0  0  0  0
   39.6710   25.9750   42.2600 C   0  0  0  0  0  0  0  0  0  0  0  0
   38.2710   26.2510   41.7660 C   0  0  1  0  0  0  0  0  0  0  0  0
   38.0160   29.8950   41.7750 C   0  0  0  0  0  0  0  0  0  0  0  0
   37.3880   28.6210   41.8200 C   0  0  0  0  0  0  0  0  0  0  0  0
   36.1210   28.5320   41.2380 C   0  0  0  0  0  0  0  0  0  0  0  0
   35.5640   29.6310   40.6730 N   0  0  0  0  0  0  0  0  0  0  0  0
   36.2040   30.8280   40.6540 C   0  0  0  0  0  0  0  0  0  0  0  0
   37.4270   30.9550   41.2060 N   0  0  0  0  0  0  0  0  0  0  0  0
   37.2880   25.1610   42.1280 C   0  0  0  0  0  0  0  0  0  0  0  0
   37.9000   24.0740   42.6830 F   0  0  0  0  0  0  0  0  0  0  0  0
   36.3840   25.7420   43.0120 F   0  0  0  0  0  0  0  0  0  0  0  0
   36.5290   24.7840   41.0370 F   0  0  0  0  0  0  0  0  0  0  0  0
   38.7332   28.3135   44.1926 H   0  0  0  0  0  0  0  0  0  0  0  0
   37.6130   26.9835   44.4399 H   0  0  0  0  0  0  0  0  0  0  0  0
   40.5164   26.8756   43.9966 H   0  0  0  0  0  0  0  0  0  0  0  0
   39.4437   25.5089   44.3418 H   0  0  0  0  0  0  0  0  0  0  0  0
   40.4120   26.5803   41.7173 H   0  0  0  0  0  0  0  0  0  0  0  0
   39.9930   24.9332   42.1150 H   0  0  0  0  0  0  0  0  0  0  0  0
   38.1939   26.2879   40.6693 H   0  0  0  0  0  0  0  0  0  0  0  0
   39.0147   30.0141   42.2203 H   0  0  0  0  0  0  0  0  0  0  0  0
   35.5784   27.5752   41.2383 H   0  0  0  0  0  0  0  0  0  0  0  0
   35.7220   31.6988   40.1857 H   0  0  0  0  0  0  0  0  0  0  0  0
  1  2  1  0
  3  2  1  0
  4  3  1  0
  5 12  1  0
  5  4  1  0
  5  1  1  0
  6  7  2  0
  7  1  1  0
  8  7  1  0
  9  8  2  0
 10  9  1  0
 10 11  2  0
 11  6  1  0
 12 13  1  0
 12 14  1  0
 15 12  1  0
  2 16  1  0
  2 17  1  0
  3 18  1  0
  3 19  1  0
  4 20  1  0
  4 21  1  0
  5 22  1  6
  6 23  1  0
  8 24  1  0
 10 25  1  0
M  ISO  8  16  13  17  13  18  13  19  13  20  13  21  13  22  13  23  14
M  ISO  2  24  14  25  14
M  END
>  <minimizedAffinity>  (1) 
-4.45300436

>  <minimizedRMSD>  (1) 
2.62129307

$$$$
