
     RDKit          3D

 27 29  0  0  1  0  0  0  0  0999 V2000
   37.4430   28.9370   41.3680 N   0  0  0  0  0  0  0  0  0  0  0  0
   36.4430   27.9830   41.7190 C   0  0  0  0  0  0  0  0  0  0  0  0
   36.6670   27.7220   43.2040 C   0  0  0  0  0  0  0  0  0  0  0  0
   37.9290   28.4690   43.5610 C   0  0  0  0  0  0  0  0  0  0  0  0
   38.5770   28.6060   42.2100 C   0  0  2  0  0  0  0  0  0  0  0  0
   36.8990   31.2700   40.6840 C   0  0  0  0  0  0  0  0  0  0  0  0
   37.3950   29.9830   40.4240 C   0  0  0  0  0  0  0  0  0  0  0  0
   37.8870   29.7060   39.1240 C   0  0  0  0  0  0  0  0  0  0  0  0
   37.8390   30.7220   38.2180 N   0  0  0  0  0  0  0  0  0  0  0  0
   37.3590   31.9410   38.4990 C   0  0  0  0  0  0  0  0  0  0  0  0
   36.8930   32.2090   39.7290 N   0  0  0  0  0  0  0  0  0  0  0  0
   39.6610   29.5980   42.1700 C   0  0  0  0  0  0  0  0  0  0  0  0
   39.7790   30.7690   42.8230 N   0  0  0  0  0  0  0  0  0  0  0  0
   40.8990   31.3510   42.5070 O   0  0  0  0  0  0  0  0  0  0  0  0
   41.5390   30.5910   41.6500 C   0  0  0  0  0  0  0  0  0  0  0  0
   40.7750   29.4830   41.4260 N   0  0  0  0  0  0  0  0  0  0  0  0
   35.4371   28.3922   41.5438 H   0  0  0  0  0  0  0  0  0  0  0  0
   36.5130   27.0642   41.1182 H   0  0  0  0  0  0  0  0  0  0  0  0
   35.8178   28.0993   43.7926 H   0  0  0  0  0  0  0  0  0  0  0  0
   36.7552   26.6470   43.4198 H   0  0  0  0  0  0  0  0  0  0  0  0
   37.7052   29.4513   44.0026 H   0  0  0  0  0  0  0  0  0  0  0  0
   38.5543   27.9667   44.3137 H   0  0  0  0  0  0  0  0  0  0  0  0
   39.1077   27.6987   41.8857 H   0  0  0  0  0  0  0  0  0  0  0  0
   36.5104   31.5104   41.6846 H   0  0  0  0  0  0  0  0  0  0  0  0
   38.2888   28.7169   38.8591 H   0  0  0  0  0  0  0  0  0  0  0  0
   37.3468   32.7207   37.7232 H   0  0  0  0  0  0  0  0  0  0  0  0
   42.5162   30.8082   41.1940 H   0  0  0  0  0  0  0  0  0  0  0  0
  1  2  1  0
  1  5  1  0
  2  3  1  0
  3  4  1  0
  5  4  1  0
  7  6  2  0
  7  1  1  0
  8  7  1  0
  9 10  1  0
  9  8  2  0
 10 11  2  0
 11  6  1  0
 12  5  1  0
 12 13  2  0
 14 13  1  0
 15 14  1  0
 16 15  2  0
 16 12  1  0
  2 17  1  0
  2 18  1  0
  3 19  1  0
  3 20  1  0
  4 21  1  0
  4 22  1  0
  5 23  1  6
  6 24  1  0
  8 25  1  0
 10 26  1  0
 15 27  1  0
M  ISO  8  17  13  18  13  19  13  20  13  21  13  22  13  23  13  24  14
M  ISO  3  25  14  26  14  27  14
M  END
>  <minimizedAffinity>  (1) 
-3.99060822

>  <minimizedRMSD>  (1) 
2.52876425

$$$$
