
     RDKit          3D

 35 37  0  0  1  0  0  0  0  0999 V2000
   38.5480   27.7090   42.2400 N   0  0  0  0  0  0  0  0  0  0  0  0
   38.3210   26.7620   43.2840 C   0  0  0  0  0  0  0  0  0  0  0  0
   39.6910   26.6230   43.9550 C   0  0  0  0  0  0  0  0  0  0  0  0
   40.6390   27.3440   43.0670 C   0  0  0  0  0  0  0  0  0  0  0  0
   39.8980   27.4550   41.7870 C   0  0  1  0  0  0  0  0  0  0  0  0
   38.0040   30.0660   41.6320 C   0  0  0  0  0  0  0  0  0  0  0  0
   37.6720   28.6900   41.7360 C   0  0  0  0  0  0  0  0  0  0  0  0
   36.3960   28.2960   41.3080 C   0  0  0  0  0  0  0  0  0  0  0  0
   35.5580   29.2410   40.8240 N   0  0  0  0  0  0  0  0  0  0  0  0
   35.9110   30.5530   40.7390 C   0  0  0  0  0  0  0  0  0  0  0  0
   37.1450   30.9580   41.1500 N   0  0  0  0  0  0  0  0  0  0  0  0
   40.4480   24.2110   39.0530 C   0  0  0  0  0  0  0  0  0  0  0  0
   41.5180   24.8740   39.6230 C   0  0  0  0  0  0  0  0  0  0  0  0
   41.3110   25.9270   40.5100 C   0  0  0  0  0  0  0  0  0  0  0  0
   40.0460   26.3460   40.8520 C   0  0  0  0  0  0  0  0  0  0  0  0
   39.0030   25.6690   40.2710 C   0  0  0  0  0  0  0  0  0  0  0  0
   39.1800   24.6240   39.3890 C   0  0  0  0  0  0  0  0  0  0  0  0
   40.7190   22.8840   37.9340 S   0  0  0  0  0  0  0  0  0  0  0  0
   42.1880   22.4810   37.9440 O   0  0  0  0  0  0  0  0  0  0  0  0
   40.4210   23.3120   36.5160 O   0  0  0  0  0  0  0  0  0  0  0  0
   37.5717   27.1366   43.9968 H   0  0  0  0  0  0  0  0  0  0  0  0
   37.9304   25.8035   42.9116 H   0  0  0  0  0  0  0  0  0  0  0  0
   39.6777   27.0795   44.9557 H   0  0  0  0  0  0  0  0  0  0  0  0
   39.9763   25.5691   44.0890 H   0  0  0  0  0  0  0  0  0  0  0  0
   40.8770   28.3390   43.4711 H   0  0  0  0  0  0  0  0  0  0  0  0
   41.6038   26.8266   42.9601 H   0  0  0  0  0  0  0  0  0  0  0  0
   40.2987   28.2508   41.1418 H   0  0  0  0  0  0  0  0  0  0  0  0
   38.9987   30.4030   41.9591 H   0  0  0  0  0  0  0  0  0  0  0  0
   36.0838   27.2427   41.3646 H   0  0  0  0  0  0  0  0  0  0  0  0
   35.1979   31.2880   40.3374 H   0  0  0  0  0  0  0  0  0  0  0  0
   42.5442   24.5666   39.3733 H   0  0  0  0  0  0  0  0  0  0  0  0
   42.1813   26.4371   40.9486 H   0  0  0  0  0  0  0  0  0  0  0  0
   37.9764   25.9748   40.5210 H   0  0  0  0  0  0  0  0  0  0  0  0
   38.3050   24.1196   38.9532 H   0  0  0  0  0  0  0  0  0  0  0  0
   39.9042   21.8549   38.3263 H   0  0  0  0  0  0  0  0  0  0  0  0
  1  2  1  0
  2  3  1  0
  4  3  1  0
  5  1  1  0
  5  4  1  0
  6  7  2  0
  7  1  1  0
  8  7  1  0
  9  8  2  0
 10  9  1  0
 10 11  2  0
 11  6  1  0
 12 17  2  0
 12 13  1  0
 13 14  2  0
 14 15  1  0
 15  5  1  0
 16 15  2  0
 17 16  1  0
 18 19  2  0
 18 12  1  0
 20 18  2  0
  2 21  1  0
  2 22  1  0
  3 23  1  0
  3 24  1  0
  4 25  1  0
  4 26  1  0
  5 27  1  6
  6 28  1  0
  8 29  1  0
 10 30  1  0
 13 31  1  0
 14 32  1  0
 16 33  1  0
 17 34  1  0
 18 35  1  0
M  ISO  8  21  13  22  13  23  13  24  13  25  13  26  13  27  13  28  14
M  ISO  7  29  14  30  14  31  14  32  14  33  14  34  14  35  11
M  END
>  <minimizedAffinity>  (1) 
-3.93861866

>  <minimizedRMSD>  (1) 
1.44747543

$$$$
