
     RDKit          3D

 32 34  0  0  1  0  0  0  0  0999 V2000
   38.6170   27.6940   42.2570 N   0  0  0  0  0  0  0  0  0  0  0  0
   38.4290   26.6440   43.2050 C   0  0  0  0  0  0  0  0  0  0  0  0
   39.7340   26.6200   43.9950 C   0  0  0  0  0  0  0  0  0  0  0  0
   40.6500   27.5680   43.2820 C   0  0  0  0  0  0  0  0  0  0  0  0
   40.0250   27.6660   41.9330 C   0  0  1  0  0  0  0  0  0  0  0  0
   37.8160   29.9880   41.6830 C   0  0  0  0  0  0  0  0  0  0  0  0
   37.6600   28.5910   41.7250 C   0  0  0  0  0  0  0  0  0  0  0  0
   36.4690   28.0350   41.1950 C   0  0  0  0  0  0  0  0  0  0  0  0
   35.5560   28.9060   40.6810 N   0  0  0  0  0  0  0  0  0  0  0  0
   35.7380   30.2340   40.6560 C   0  0  0  0  0  0  0  0  0  0  0  0
   36.8650   30.7620   41.1590 N   0  0  0  0  0  0  0  0  0  0  0  0
   40.4180   26.6410   40.9750 C   0  0  0  0  0  0  0  0  0  0  0  0
   39.5990   26.1420   39.9820 C   0  0  0  0  0  0  0  0  0  0  0  0
   39.9880   25.1700   39.0790 C   0  0  0  0  0  0  0  0  0  0  0  0
   41.2590   24.6510   39.1510 C   0  0  0  0  0  0  0  0  0  0  0  0
   42.1060   25.1410   40.1450 C   0  0  0  0  0  0  0  0  0  0  0  0
   41.6870   26.1090   41.0280 C   0  0  0  0  0  0  0  0  0  0  0  0
   37.5765   26.8616   43.8652 H   0  0  0  0  0  0  0  0  0  0  0  0
   38.2059   25.6784   42.7277 H   0  0  0  0  0  0  0  0  0  0  0  0
   39.5638   26.9542   45.0291 H   0  0  0  0  0  0  0  0  0  0  0  0
   40.1585   25.6068   44.0519 H   0  0  0  0  0  0  0  0  0  0  0  0
   40.6747   28.5480   43.7809 H   0  0  0  0  0  0  0  0  0  0  0  0
   41.6969   27.2314   43.2571 H   0  0  0  0  0  0  0  0  0  0  0  0
   40.3620   28.5522   41.3751 H   0  0  0  0  0  0  0  0  0  0  0  0
   38.7310   30.4465   42.0862 H   0  0  0  0  0  0  0  0  0  0  0  0
   36.2898   26.9497   41.1984 H   0  0  0  0  0  0  0  0  0  0  0  0
   34.9664   30.8887   40.2248 H   0  0  0  0  0  0  0  0  0  0  0  0
   38.5769   26.5412   39.9047 H   0  0  0  0  0  0  0  0  0  0  0  0
   39.2866   24.8150   38.3096 H   0  0  0  0  0  0  0  0  0  0  0  0
   41.5967   23.8752   38.4481 H   0  0  0  0  0  0  0  0  0  0  0  0
   43.1294   24.7455   40.2244 H   0  0  0  0  0  0  0  0  0  0  0  0
   42.3854   26.4682   41.7982 H   0  0  0  0  0  0  0  0  0  0  0  0
  1  2  1  0
  2  3  1  0
  4  3  1  0
  5  1  1  0
  5  4  1  0
  6  7  2  0
  7  1  1  0
  8  7  1  0
  9  8  2  0
 10  9  1  0
 10 11  2  0
 11  6  1  0
 12 17  1  0
 12  5  1  0
 13 12  2  0
 14 15  2  0
 14 13  1  0
 15 16  1  0
 16 17  2  0
  2 18  1  0
  2 19  1  0
  3 20  1  0
  3 21  1  0
  4 22  1  0
  4 23  1  0
  5 24  1  6
  6 25  1  0
  8 26  1  0
 10 27  1  0
 13 28  1  0
 14 29  1  0
 15 30  1  0
 16 31  1  0
 17 32  1  0
M  ISO  8  18  13  19  13  20  13  21  13  22  13  23  13  24  13  25  14
M  ISO  7  26  14  27  14  28  14  29  14  30  14  31  14  32  14
M  END
>  <minimizedAffinity>  (1) 
-3.90827084

>  <minimizedRMSD>  (1) 
0.849178016

$$$$
