
     RDKit          3D

 29 30  0  0  1  0  0  0  0  0999 V2000
   39.2670   26.2040   41.8290 N   0  0  0  0  0  0  0  0  0  0  0  0
   38.6320   25.2150   41.0200 C   0  0  0  0  0  0  0  0  0  0  0  0
   38.7000   23.9460   41.8620 C   0  0  0  0  0  0  0  0  0  0  0  0
   39.5780   24.2710   43.0220 C   0  0  0  0  0  0  0  0  0  0  0  0
   40.3010   25.5050   42.5440 C   0  0  1  0  0  0  0  0  0  0  0  0
   38.6520   28.2330   43.1490 C   0  0  0  0  0  0  0  0  0  0  0  0
   38.9790   27.5810   41.9360 C   0  0  0  0  0  0  0  0  0  0  0  0
   39.0190   28.3620   40.7580 C   0  0  0  0  0  0  0  0  0  0  0  0
   38.7430   29.6850   40.8630 N   0  0  0  0  0  0  0  0  0  0  0  0
   38.4330   30.2770   42.0450 C   0  0  0  0  0  0  0  0  0  0  0  0
   38.3910   29.5440   43.1690 N   0  0  0  0  0  0  0  0  0  0  0  0
   41.4570   25.1920   41.7360 N   0  0  0  0  0  0  0  0  0  0  0  0
   42.7740   25.1770   42.2780 C   0  0  0  0  0  0  0  0  0  0  0  0
   42.9170   24.9420   43.5420 N   0  0  0  0  0  0  0  0  0  0  0  0
   43.9470   25.4040   41.5080 N   0  0  0  0  0  0  0  0  0  0  0  0
   42.1120   24.7650   44.1810 H   0  0  0  0  0  0  0  0  0  0  0  0
   37.5874   25.4912   40.8136 H   0  0  0  0  0  0  0  0  0  0  0  0
   39.1161   25.0973   40.0393 H   0  0  0  0  0  0  0  0  0  0  0  0
   37.6954   23.6636   42.2100 H   0  0  0  0  0  0  0  0  0  0  0  0
   39.0941   23.0980   41.2827 H   0  0  0  0  0  0  0  0  0  0  0  0
   38.9844   24.4816   43.9238 H   0  0  0  0  0  0  0  0  0  0  0  0
   40.2515   23.4495   43.3076 H   0  0  0  0  0  0  0  0  0  0  0  0
   40.7375   26.1069   43.3546 H   0  0  0  0  0  0  0  0  0  0  0  0
   38.6122   27.6554   44.0843 H   0  0  0  0  0  0  0  0  0  0  0  0
   39.2665   27.9099   39.7862 H   0  0  0  0  0  0  0  0  0  0  0  0
   38.2167   31.3549   42.0815 H   0  0  0  0  0  0  0  0  0  0  0  0
   41.3248   24.9732   40.7382 H   0  0  0  0  0  0  0  0  0  0  0  0
   44.8723   25.3798   41.9598 H   0  0  0  0  0  0  0  0  0  0  0  0
   43.8717   25.5927   40.4982 H   0  0  0  0  0  0  0  0  0  0  0  0
  1  7  1  0
  1  5  1  0
  2  1  1  0
  2  3  1  0
  3  4  1  0
  5  4  1  0
  6 11  2  0
  7  6  1  0
  8  9  1  0
  8  7  2  0
  9 10  2  0
 10 11  1  0
 12 13  1  0
 12  5  1  0
 13 14  2  0
 14 16  1  0
 15 13  1  0
  2 17  1  0
  2 18  1  0
  3 19  1  0
  3 20  1  0
  4 21  1  0
  4 22  1  0
  5 23  1  1
  6 24  1  0
  8 25  1  0
 10 26  1  0
 12 27  1  0
 15 28  1  0
 15 29  1  0
M  ISO  8  17  13  18  13  19  13  20  13  21  13  22  13  23  13  24  14
M  ISO  2  25  14  26  14
M  END
>  <minimizedAffinity>  (1) 
-3.86929297

>  <minimizedRMSD>  (1) 
2.69624066

$$$$
