
     RDKit          3D

 29 31  0  0  1  0  0  0  0  0999 V2000
   36.9790   27.9250   41.7060 N   0  0  0  0  0  0  0  0  0  0  0  0
   36.7050   27.1540   42.8750 C   0  0  0  0  0  0  0  0  0  0  0  0
   37.2710   27.9950   44.0110 C   0  0  0  0  0  0  0  0  0  0  0  0
   38.0460   29.1110   43.3500 C   0  0  0  0  0  0  0  0  0  0  0  0
   38.2480   28.5620   41.9690 C   0  0  2  0  0  0  0  0  0  0  0  0
   36.3890   27.3070   39.3630 C   0  0  0  0  0  0  0  0  0  0  0  0
   36.2130   28.0650   40.5300 C   0  0  0  0  0  0  0  0  0  0  0  0
   35.1820   29.0380   40.5310 C   0  0  0  0  0  0  0  0  0  0  0  0
   34.4340   29.1720   39.3990 N   0  0  0  0  0  0  0  0  0  0  0  0
   34.6450   28.4140   38.2980 C   0  0  0  0  0  0  0  0  0  0  0  0
   35.6180   27.4900   38.2860 N   0  0  0  0  0  0  0  0  0  0  0  0
   38.7310   29.5200   40.9530 C   0  0  0  0  0  0  0  0  0  0  0  0
   39.9200   29.1380   40.0570 C   0  0  0  0  0  0  0  0  0  0  0  0
   40.1020   30.1730   41.1360 C   0  0  0  0  0  0  0  0  0  0  0  0
   35.6224   27.0051   43.0004 H   0  0  0  0  0  0  0  0  0  0  0  0
   37.1470   26.1476   42.8320 H   0  0  0  0  0  0  0  0  0  0  0  0
   36.4567   28.4060   44.6259 H   0  0  0  0  0  0  0  0  0  0  0  0
   37.9103   27.3975   44.6776 H   0  0  0  0  0  0  0  0  0  0  0  0
   37.4656   30.0452   43.3295 H   0  0  0  0  0  0  0  0  0  0  0  0
   38.9802   29.3744   43.8676 H   0  0  0  0  0  0  0  0  0  0  0  0
   39.0910   27.8581   41.9063 H   0  0  0  0  0  0  0  0  0  0  0  0
   37.1804   26.5436   39.3331 H   0  0  0  0  0  0  0  0  0  0  0  0
   34.9919   29.6639   41.4154 H   0  0  0  0  0  0  0  0  0  0  0  0
   34.0151   28.5562   37.4075 H   0  0  0  0  0  0  0  0  0  0  0  0
   37.7054   29.8789   40.7817 H   0  0  0  0  0  0  0  0  0  0  0  0
   40.3898   28.1487   40.1602 H   0  0  0  0  0  0  0  0  0  0  0  0
   40.0958   29.1097   38.9715 H   0  0  0  0  0  0  0  0  0  0  0  0
   40.2465   31.2288   40.8634 H   0  0  0  0  0  0  0  0  0  0  0  0
   40.7939   30.2935   41.9826 H   0  0  0  0  0  0  0  0  0  0  0  0
  1  5  1  0
  1  2  1  0
  2  3  1  0
  4  3  1  0
  5  4  1  0
  6  7  2  0
  7  8  1  0
  7  1  1  0
  9  8  2  0
 10  9  1  0
 11 10  2  0
 11  6  1  0
 12 14  1  0
 12  5  1  0
 13 12  1  0
 13 14  1  0
  2 15  1  0
  2 16  1  0
  3 17  1  0
  3 18  1  0
  4 19  1  0
  4 20  1  0
  5 21  1  1
  6 22  1  0
  8 23  1  0
 10 24  1  0
 12 25  1  0
 13 26  1  0
 13 27  1  0
 14 28  1  0
 14 29  1  0
M  ISO  8  15  13  16  13  17  13  18  13  19  13  20  13  21  13  22  14
M  ISO  7  23  14  24  14  25  13  26  13  27  13  28  13  29  13
M  END
>  <minimizedAffinity>  (1) 
-3.70283365

>  <minimizedRMSD>  (1) 
2.48981833

$$$$
