
     RDKit          3D

 29 31  0  0  1  0  0  0  0  0999 V2000
   38.4570   27.6220   41.9820 N   0  0  0  0  0  0  0  0  0  0  0  0
   38.3800   26.5670   42.9610 C   0  0  0  0  0  0  0  0  0  0  0  0
   39.5880   26.7880   43.8620 C   0  0  0  0  0  0  0  0  0  0  0  0
   40.3840   27.8910   43.2060 C   0  0  0  0  0  0  0  0  0  0  0  0
   39.8570   27.8040   41.7830 C   0  0  2  0  0  0  0  0  0  0  0  0
   36.9830   29.6230   41.7330 C   0  0  0  0  0  0  0  0  0  0  0  0
   37.4050   28.3200   41.3590 C   0  0  0  0  0  0  0  0  0  0  0  0
   36.7340   27.6750   40.2900 C   0  0  0  0  0  0  0  0  0  0  0  0
   35.7170   28.3460   39.6800 N   0  0  0  0  0  0  0  0  0  0  0  0
   35.3390   29.5880   40.0630 C   0  0  0  0  0  0  0  0  0  0  0  0
   35.9730   30.2000   41.0740 N   0  0  0  0  0  0  0  0  0  0  0  0
   40.2370   28.9140   41.0010 C   0  0  0  0  0  0  0  0  0  0  0  0
   40.4050   29.1490   39.6730 C   0  0  0  0  0  0  0  0  0  0  0  0
   40.7920   30.3640   39.1790 C   0  0  0  0  0  0  0  0  0  0  0  0
   41.0170   31.4000   40.1320 C   0  0  0  0  0  0  0  0  0  0  0  0
   40.6390   30.5130   41.7640 S   0  0  0  0  0  0  0  0  0  0  0  0
   37.4466   26.6407   43.5383 H   0  0  0  0  0  0  0  0  0  0  0  0
   38.3821   25.5688   42.4988 H   0  0  0  0  0  0  0  0  0  0  0  0
   39.2661   27.0927   44.8688 H   0  0  0  0  0  0  0  0  0  0  0  0
   40.1827   25.8701   43.9798 H   0  0  0  0  0  0  0  0  0  0  0  0
   40.1706   28.8704   43.6589 H   0  0  0  0  0  0  0  0  0  0  0  0
   41.4751   27.7860   43.2980 H   0  0  0  0  0  0  0  0  0  0  0  0
   40.2766   26.9816   41.1850 H   0  0  0  0  0  0  0  0  0  0  0  0
   37.4825   30.1529   42.5574 H   0  0  0  0  0  0  0  0  0  0  0  0
   37.0248   26.6656   39.9635 H   0  0  0  0  0  0  0  0  0  0  0  0
   34.5118   30.0954   39.5450 H   0  0  0  0  0  0  0  0  0  0  0  0
   40.2219   28.3269   38.9654 H   0  0  0  0  0  0  0  0  0  0  0  0
   40.9231   30.5335   38.1001 H   0  0  0  0  0  0  0  0  0  0  0  0
   41.3285   32.4416   39.9642 H   0  0  0  0  0  0  0  0  0  0  0  0
  1  2  1  0
  2  3  1  0
  4  3  1  0
  5  1  1  0
  5  4  1  0
  7  6  2  0
  7  1  1  0
  8  7  1  0
  9 10  1  0
  9  8  2  0
 10 11  2  0
 11  6  1  0
 12 16  1  0
 12  5  1  0
 13 12  2  0
 14 13  1  0
 14 15  2  0
 15 16  1  0
  2 17  1  0
  2 18  1  0
  3 19  1  0
  3 20  1  0
  4 21  1  0
  4 22  1  0
  5 23  1  6
  6 24  1  0
  8 25  1  0
 10 26  1  0
 13 27  1  0
 14 28  1  0
 15 29  1  0
M  ISO  8  17  13  18  13  19  13  20  13  21  13  22  13  23  13  24  14
M  ISO  5  25  14  26  14  27  14  28  14  29  14
M  END
>  <minimizedAffinity>  (1) 
-3.64896584

>  <minimizedRMSD>  (1) 
0.477510005

$$$$
