
     RDKit          3D

 29 31  0  0  1  0  0  0  0  0999 V2000
   38.4670   27.6990   42.0370 N   0  0  0  0  0  0  0  0  0  0  0  0
   38.3670   26.6620   43.0320 C   0  0  0  0  0  0  0  0  0  0  0  0
   39.6430   26.8340   43.8550 C   0  0  0  0  0  0  0  0  0  0  0  0
   40.4270   27.9330   43.1870 C   0  0  0  0  0  0  0  0  0  0  0  0
   39.8740   27.8620   41.7890 C   0  0  2  0  0  0  0  0  0  0  0  0
   37.0510   29.7180   41.7610 C   0  0  0  0  0  0  0  0  0  0  0  0
   37.4190   28.4030   41.4340 C   0  0  0  0  0  0  0  0  0  0  0  0
   36.6640   27.7690   40.4280 C   0  0  0  0  0  0  0  0  0  0  0  0
   35.6500   28.4450   39.8420 N   0  0  0  0  0  0  0  0  0  0  0  0
   35.3310   29.7050   40.1860 C   0  0  0  0  0  0  0  0  0  0  0  0
   36.0430   30.3440   41.1570 N   0  0  0  0  0  0  0  0  0  0  0  0
   40.2530   28.9530   40.9090 C   0  0  0  0  0  0  0  0  0  0  0  0
   40.3570   29.0440   39.5390 C   0  0  0  0  0  0  0  0  0  0  0  0
   40.7550   30.2930   39.1850 N   0  0  0  0  0  0  0  0  0  0  0  0
   40.8880   30.9540   40.3490 C   0  0  0  0  0  0  0  0  0  0  0  0
   40.5910   30.1660   41.4220 N   0  0  0  0  0  0  0  0  0  0  0  0
   37.4734   26.8024   43.6579 H   0  0  0  0  0  0  0  0  0  0  0  0
   38.2706   25.6569   42.5955 H   0  0  0  0  0  0  0  0  0  0  0  0
   39.3951   27.1162   44.8889 H   0  0  0  0  0  0  0  0  0  0  0  0
   40.2207   25.8990   43.9001 H   0  0  0  0  0  0  0  0  0  0  0  0
   40.2304   28.9107   43.6513 H   0  0  0  0  0  0  0  0  0  0  0  0
   41.5191   27.8184   43.2518 H   0  0  0  0  0  0  0  0  0  0  0  0
   40.2948   27.0383   41.1936 H   0  0  0  0  0  0  0  0  0  0  0  0
   37.6144   30.2489   42.5425 H   0  0  0  0  0  0  0  0  0  0  0  0
   36.8961   26.7379   40.1232 H   0  0  0  0  0  0  0  0  0  0  0  0
   34.4974   30.2190   39.6851 H   0  0  0  0  0  0  0  0  0  0  0  0
   40.1483   28.2251   38.8348 H   0  0  0  0  0  0  0  0  0  0  0  0
   41.1996   32.0061   40.4264 H   0  0  0  0  0  0  0  0  0  0  0  0
   40.6173   30.4345   42.4160 H   0  0  0  0  0  0  0  0  0  0  0  0
  1  2  1  0
  2  3  1  0
  4  3  1  0
  5  1  1  0
  5  4  1  0
  7  6  2  0
  7  1  1  0
  8  7  1  0
  9 10  1  0
  9  8  2  0
 10 11  2  0
 11  6  1  0
 12 16  1  0
 12  5  1  0
 13 12  2  0
 14 13  1  0
 14 15  2  0
 15 16  1  0
  2 17  1  0
  2 18  1  0
  3 19  1  0
  3 20  1  0
  4 21  1  0
  4 22  1  0
  5 23  1  6
  6 24  1  0
  8 25  1  0
 10 26  1  0
 13 27  1  0
 15 28  1  0
 16 29  1  0
M  ISO  8  17  13  18  13  19  13  20  13  21  13  22  13  23  13  24  14
M  ISO  5  25  14  26  14  27  14  28  14  29   9
M  END
>  <minimizedAffinity>  (1) 
-3.64382291

>  <minimizedRMSD>  (1) 
0.412613422

$$$$
