
     RDKit          3D

 24 25  0  0  1  0  0  0  0  0999 V2000
   38.4540   27.5710   42.1880 N   0  0  0  0  0  0  0  0  0  0  0  0
   38.3550   26.8180   43.4080 C   0  0  0  0  0  0  0  0  0  0  0  0
   39.7600   26.8360   43.9920 C   0  0  0  0  0  0  0  0  0  0  0  0
   40.6170   27.4630   42.9310 C   0  0  0  0  0  0  0  0  0  0  0  0
   39.7570   27.2910   41.6870 C   0  0  2  0  0  0  0  0  0  0  0  0
   37.3410   29.7840   41.9080 C   0  0  0  0  0  0  0  0  0  0  0  0
   37.4830   28.4000   41.6170 C   0  0  0  0  0  0  0  0  0  0  0  0
   36.5730   27.8510   40.6900 C   0  0  0  0  0  0  0  0  0  0  0  0
   35.6340   28.6690   40.1420 N   0  0  0  0  0  0  0  0  0  0  0  0
   35.5330   29.9720   40.4420 C   0  0  0  0  0  0  0  0  0  0  0  0
   36.3890   30.5180   41.3220 N   0  0  0  0  0  0  0  0  0  0  0  0
   40.2410   28.2480   40.7280 N   0  0  0  0  0  0  0  0  0  0  0  0
   37.6422   27.2919   44.0989 H   0  0  0  0  0  0  0  0  0  0  0  0
   37.9905   25.7946   43.2355 H   0  0  0  0  0  0  0  0  0  0  0  0
   39.7872   27.4350   44.9142 H   0  0  0  0  0  0  0  0  0  0  0  0
   40.1078   25.8274   44.2597 H   0  0  0  0  0  0  0  0  0  0  0  0
   40.8034   28.5259   43.1442 H   0  0  0  0  0  0  0  0  0  0  0  0
   41.6168   27.0124   42.8448 H   0  0  0  0  0  0  0  0  0  0  0  0
   39.7708   26.3134   41.1830 H   0  0  0  0  0  0  0  0  0  0  0  0
   38.0251   30.2589   42.6267 H   0  0  0  0  0  0  0  0  0  0  0  0
   36.6212   26.7866   40.4165 H   0  0  0  0  0  0  0  0  0  0  0  0
   34.7544   30.5899   39.9707 H   0  0  0  0  0  0  0  0  0  0  0  0
   40.6486   29.0540   41.2230 H   0  0  0  0  0  0  0  0  0  0  0  0
   40.9609   27.8080   40.1372 H   0  0  0  0  0  0  0  0  0  0  0  0
  1  2  1  0
  2  3  1  0
  4  3  1  0
  5  1  1  0
  5  4  1  0
  7  6  2  0
  7  1  1  0
  8  7  1  0
  9 10  1  0
  9  8  2  0
 10 11  2  0
 11  6  1  0
 12  5  1  0
  2 13  1  0
  2 14  1  0
  3 15  1  0
  3 16  1  0
  4 17  1  0
  4 18  1  0
  5 19  1  6
  6 20  1  0
  8 21  1  0
 10 22  1  0
 12 23  1  0
 12 24  1  0
M  ISO  8  13  13  14  13  15  13  16  13  17  13  18  13  19  13  20  14
M  ISO  4  21  14  22  14  23   5  24   5
M  END
>  <minimizedAffinity>  (1) 
-3.2633419

>  <minimizedRMSD>  (1) 
0.468360752

$$$$
