
     RDKit          3D

 33 35  0  0  1  0  0  0  0  0999 V2000
   38.4950   31.1610   41.1040 N   0  0  0  0  0  0  0  0  0  0  0  0
   37.8000   32.3230   40.6460 C   0  0  0  0  0  0  0  0  0  0  0  0
   38.4000   32.5940   39.2800 C   0  0  0  0  0  0  0  0  0  0  0  0
   39.7260   33.0590   39.4820 N   0  0  0  0  0  0  0  0  0  0  0  0
   40.5280   32.2910   40.3280 C   0  0  0  0  0  0  0  0  0  0  0  0
   39.9430   31.1070   41.0420 C   0  0  2  0  0  0  0  0  0  0  0  0
   37.8500   30.0050   41.6450 C   0  0  0  0  0  0  0  0  0  0  0  0
   38.1390   29.5180   42.9430 C   0  0  0  0  0  0  0  0  0  0  0  0
   37.4560   28.3890   43.3770 C   0  0  0  0  0  0  0  0  0  0  0  0
   36.5580   27.8220   42.5340 N   0  0  0  0  0  0  0  0  0  0  0  0
   36.3010   28.3060   41.3000 C   0  0  0  0  0  0  0  0  0  0  0  0
   36.9450   29.3910   40.8630 N   0  0  0  0  0  0  0  0  0  0  0  0
   40.4090   29.8310   40.4460 C   0  0  0  0  0  0  0  0  0  0  0  0
   40.8700   28.9920   41.2700 O   0  0  0  0  0  0  0  0  0  0  0  0
   40.4510   29.3390   39.0750 C   0  0  0  0  0  0  0  0  0  0  0  0
   39.4010   28.6010   38.5760 C   0  0  0  0  0  0  0  0  0  0  0  0
   39.7150   28.2690   37.2500 C   0  0  0  0  0  0  0  0  0  0  0  0
   40.9470   28.8270   37.0090 C   0  0  0  0  0  0  0  0  0  0  0  0
   41.2940   29.4150   38.0940 O   0  0  0  0  0  0  0  0  0  0  0  0
   36.7204   32.1273   40.5671 H   0  0  0  0  0  0  0  0  0  0  0  0
   37.9046   33.1768   41.3316 H   0  0  0  0  0  0  0  0  0  0  0  0
   37.8093   33.3593   38.7553 H   0  0  0  0  0  0  0  0  0  0  0  0
   38.3985   31.6803   38.6676 H   0  0  0  0  0  0  0  0  0  0  0  0
   40.1881   33.0991   38.5624 H   0  0  0  0  0  0  0  0  0  0  0  0
   41.3633   31.9146   39.7193 H   0  0  0  0  0  0  0  0  0  0  0  0
   40.7728   32.9852   41.1454 H   0  0  0  0  0  0  0  0  0  0  0  0
   40.3088   31.1496   42.0785 H   0  0  0  0  0  0  0  0  0  0  0  0
   38.8793   30.0169   43.5858 H   0  0  0  0  0  0  0  0  0  0  0  0
   37.6385   27.9669   44.3763 H   0  0  0  0  0  0  0  0  0  0  0  0
   35.5621   27.8072   40.6556 H   0  0  0  0  0  0  0  0  0  0  0  0
   38.4848   28.3231   39.1176 H   0  0  0  0  0  0  0  0  0  0  0  0
   39.1022   27.6835   36.5488 H   0  0  0  0  0  0  0  0  0  0  0  0
   41.5212   28.7789   36.0720 H   0  0  0  0  0  0  0  0  0  0  0  0
  1  7  1  0
  2  1  1  0
  3  4  1  0
  3  2  1  0
  4  5  1  0
  5  6  1  0
  6  1  1  0
  7  8  2  0
  8  9  1  0
 10  9  2  0
 11 10  1  0
 12 11  2  0
 12  7  1  0
 13  6  1  0
 13 14  2  0
 15 13  1  0
 16 15  2  0
 17 16  1  0
 18 17  2  0
 18 19  1  0
 19 15  1  0
  2 20  1  0
  2 21  1  0
  3 22  1  0
  3 23  1  0
  4 24  1  0
  5 25  1  0
  5 26  1  0
  6 27  1  1
  8 28  1  0
  9 29  1  0
 11 30  1  0
 16 31  1  0
 17 32  1  0
 18 33  1  0
M  ISO  8  20  13  21  13  22  13  23  13  24   5  25  13  26  13  27  13
M  ISO  6  28  14  29  14  30  14  31  14  32  14  33  14
M  END
>  <minimizedAffinity>  (1) 
-3.84600139

>  <minimizedRMSD>  (1) 
2.49939203

$$$$
