
     RDKit          3D

 35 37  0  0  1  0  0  0  0  0999 V2000
   36.9150   28.0470   41.6560 N   0  0  0  0  0  0  0  0  0  0  0  0
   36.7320   27.1660   42.7800 C   0  0  0  0  0  0  0  0  0  0  0  0
   37.2760   27.9520   43.9680 C   0  0  0  0  0  0  0  0  0  0  0  0
   37.8940   29.1960   43.3880 C   0  0  0  0  0  0  0  0  0  0  0  0
   38.1130   28.7640   41.9560 C   0  0  2  0  0  0  0  0  0  0  0  0
   38.4550   29.8240   41.0670 N   0  0  0  0  0  0  0  0  0  0  0  0
   37.9650   31.0740   40.9690 C   0  0  0  0  0  0  0  0  0  0  0  0
   38.4430   31.9510   40.0240 C   0  0  0  0  0  0  0  0  0  0  0  0
   37.8570   33.3170   39.9710 C   0  0  0  0  0  0  0  0  0  0  0  0
   39.4320   31.5980   39.1440 C   0  0  0  0  0  0  0  0  0  0  0  0
   39.8540   32.4100   38.2930 O   0  0  0  0  0  0  0  0  0  0  0  0
   39.9060   30.3400   39.2640 N   0  0  0  0  0  0  0  0  0  0  0  0
   39.4410   29.4620   40.1960 C   0  0  0  0  0  0  0  0  0  0  0  0
   40.0110   28.3190   40.1550 O   0  0  0  0  0  0  0  0  0  0  0  0
   35.0230   29.0650   40.4080 C   0  0  0  0  0  0  0  0  0  0  0  0
   36.1140   28.1890   40.5160 C   0  0  0  0  0  0  0  0  0  0  0  0
   36.4230   27.3960   39.3830 C   0  0  0  0  0  0  0  0  0  0  0  0
   35.6470   27.5320   38.2730 N   0  0  0  0  0  0  0  0  0  0  0  0
   34.6070   28.3880   38.2180 C   0  0  0  0  0  0  0  0  0  0  0  0
   34.3060   29.1450   39.2850 N   0  0  0  0  0  0  0  0  0  0  0  0
   35.6666   26.9324   42.9224 H   0  0  0  0  0  0  0  0  0  0  0  0
   37.2430   26.2013   42.6451 H   0  0  0  0  0  0  0  0  0  0  0  0
   36.4613   28.2152   44.6586 H   0  0  0  0  0  0  0  0  0  0  0  0
   38.0090   27.3648   44.5406 H   0  0  0  0  0  0  0  0  0  0  0  0
   37.2098   30.0550   43.4513 H   0  0  0  0  0  0  0  0  0  0  0  0
   38.8037   29.5355   43.9049 H   0  0  0  0  0  0  0  0  0  0  0  0
   39.0034   28.1325   41.8203 H   0  0  0  0  0  0  0  0  0  0  0  0
   37.1696   31.3990   41.6558 H   0  0  0  0  0  0  0  0  0  0  0  0
   37.6980   33.6877   40.9944 H   0  0  0  0  0  0  0  0  0  0  0  0
   38.5452   33.9909   39.4397 H   0  0  0  0  0  0  0  0  0  0  0  0
   36.8944   33.2827   39.4397 H   0  0  0  0  0  0  0  0  0  0  0  0
   40.6511   30.0306   38.6236 H   0  0  0  0  0  0  0  0  0  0  0  0
   34.7533   29.6984   41.2660 H   0  0  0  0  0  0  0  0  0  0  0  0
   37.2665   26.6902   39.4000 H   0  0  0  0  0  0  0  0  0  0  0  0
   34.0059   28.4661   37.3001 H   0  0  0  0  0  0  0  0  0  0  0  0
  1  5  1  0
  1  2  1  0
  2  3  1  0
  4  3  1  0
  5  4  1  0
  6  5  1  0
  7  6  1  0
  8  7  2  0
  9  8  1  0
 10 12  1  0
 10  8  1  0
 11 10  2  0
 12 13  1  0
 13  6  1  0
 14 13  2  0
 15 16  2  0
 16  1  1  0
 17 16  1  0
 18 17  2  0
 19 18  1  0
 19 20  2  0
 20 15  1  0
  2 21  1  0
  2 22  1  0
  3 23  1  0
  3 24  1  0
  4 25  1  0
  4 26  1  0
  5 27  1  1
  7 28  1  0
  9 29  1  0
  9 30  1  0
  9 31  1  0
 12 32  1  0
 15 33  1  0
 17 34  1  0
 19 35  1  0
M  ISO  8  21  13  22  13  23  13  24  13  25  13  26  13  27  13  28  14
M  ISO  7  29   8  30   8  31   8  32   9  33  14  34  14  35  14
M  END
>  <minimizedAffinity>  (1) 
-5.00372744

>  <minimizedRMSD>  (1) 
2.45435143

$$$$
