
     RDKit          3D

 51 55  0  0  1  0  0  0  0  0999 V2000
   36.8220   28.0230   41.6890 N   0  0  0  0  0  0  0  0  0  0  0  0
   36.5920   27.1150   42.7780 C   0  0  0  0  0  0  0  0  0  0  0  0
   37.1870   27.8250   43.9920 C   0  0  0  0  0  0  0  0  0  0  0  0
   37.8580   29.0690   43.4590 C   0  0  0  0  0  0  0  0  0  0  0  0
   38.0690   28.6670   42.0110 C   0  0  2  0  0  0  0  0  0  0  0  0
   38.4790   29.7170   41.1600 N   0  0  0  0  0  0  0  0  0  0  0  0
   38.1030   31.0030   41.1470 C   0  0  0  0  0  0  0  0  0  0  0  0
   38.6170   31.9000   40.2250 C   0  0  0  0  0  0  0  0  0  0  0  0
   39.5420   31.5050   39.2820 C   0  0  0  0  0  0  0  0  0  0  0  0
   40.0010   32.3220   38.4550 O   0  0  0  0  0  0  0  0  0  0  0  0
   39.9080   30.1960   39.3150 N   0  0  0  0  0  0  0  0  0  0  0  0
   39.3930   29.3330   40.2270 C   0  0  0  0  0  0  0  0  0  0  0  0
   39.8550   28.1340   40.1110 O   0  0  0  0  0  0  0  0  0  0  0  0
   38.1450   33.3000   40.2640 C   0  0  0  0  0  0  0  0  0  0  0  0
   35.0910   29.2710   40.4480 C   0  0  0  0  0  0  0  0  0  0  0  0
   36.0330   28.2540   40.5590 C   0  0  0  0  0  0  0  0  0  0  0  0
   36.1940   27.4200   39.4390 C   0  0  0  0  0  0  0  0  0  0  0  0
   35.4370   27.6540   38.3460 N   0  0  0  0  0  0  0  0  0  0  0  0
   34.5430   28.6330   38.2600 C   0  0  0  0  0  0  0  0  0  0  0  0
   34.3840   29.4260   39.3160 N   0  0  0  0  0  0  0  0  0  0  0  0
   33.6590   29.0150   37.1630 C   0  0  0  0  0  0  0  0  0  0  0  0
   34.0320   28.9740   35.8140 C   0  0  0  0  0  0  0  0  0  0  0  0
   33.2270   29.3250   34.7630 C   0  0  0  0  0  0  0  0  0  0  0  0
   31.9470   29.7560   35.0150 C   0  0  0  0  0  0  0  0  0  0  0  0
   31.5210   29.8210   36.3000 C   0  0  0  0  0  0  0  0  0  0  0  0
   30.2300   30.2620   36.4820 C   0  0  0  0  0  0  0  0  0  0  0  0
   29.7090   30.3610   37.7520 C   0  0  0  0  0  0  0  0  0  0  0  0
   30.5360   30.0000   38.8170 C   0  0  0  0  0  0  0  0  0  0  0  0
   31.8170   29.5680   38.5540 C   0  0  0  0  0  0  0  0  0  0  0  0
   32.3690   29.4570   37.3200 C   0  0  0  0  0  0  0  0  0  0  0  0
   35.5152   26.9392   42.9182 H   0  0  0  0  0  0  0  0  0  0  0  0
   37.0442   26.1273   42.6049 H   0  0  0  0  0  0  0  0  0  0  0  0
   36.3933   28.0942   44.7044 H   0  0  0  0  0  0  0  0  0  0  0  0
   37.9000   27.1801   44.5266 H   0  0  0  0  0  0  0  0  0  0  0  0
   37.2065   29.9511   43.5453 H   0  0  0  0  0  0  0  0  0  0  0  0
   38.7742   29.3615   43.9929 H   0  0  0  0  0  0  0  0  0  0  0  0
   38.9258   27.9944   41.8575 H   0  0  0  0  0  0  0  0  0  0  0  0
   37.3684   31.3549   41.8863 H   0  0  0  0  0  0  0  0  0  0  0  0
   40.5945   29.8501   38.6295 H   0  0  0  0  0  0  0  0  0  0  0  0
   38.0366   33.6214   41.3104 H   0  0  0  0  0  0  0  0  0  0  0  0
   38.8746   33.9472   39.7553 H   0  0  0  0  0  0  0  0  0  0  0  0
   37.1725   33.3734   39.7553 H   0  0  0  0  0  0  0  0  0  0  0  0
   34.9234   29.9540   41.2938 H   0  0  0  0  0  0  0  0  0  0  0  0
   36.9210   26.5946   39.4528 H   0  0  0  0  0  0  0  0  0  0  0  0
   35.0514   28.6332   35.5800 H   0  0  0  0  0  0  0  0  0  0  0  0
   33.6005   29.2626   33.7302 H   0  0  0  0  0  0  0  0  0  0  0  0
   31.2800   30.0431   34.1888 H   0  0  0  0  0  0  0  0  0  0  0  0
   29.6145   30.5354   35.6123 H   0  0  0  0  0  0  0  0  0  0  0  0
   28.6801   30.7113   37.9213 H   0  0  0  0  0  0  0  0  0  0  0  0
   30.1695   30.0598   39.8524 H   0  0  0  0  0  0  0  0  0  0  0  0
   32.4434   29.2904   39.4146 H   0  0  0  0  0  0  0  0  0  0  0  0
  1  5  1  0
  1  2  1  0
  2  3  1  0
  4  3  1  0
  5  4  1  0
  6  5  1  0
  7  6  1  0
  8 14  1  0
  8  7  2  0
  9 11  1  0
  9  8  1  0
 10  9  2  0
 11 12  1  0
 12  6  1  0
 13 12  2  0
 15 16  2  0
 16  1  1  0
 17 16  1  0
 18 17  2  0
 19 18  1  0
 19 20  2  0
 20 15  1  0
 21 30  1  0
 21 19  1  0
 22 21  2  0
 23 24  2  0
 23 22  1  0
 24 25  1  0
 25 26  1  0
 25 30  2  0
 26 27  2  0
 27 28  1  0
 29 28  2  0
 30 29  1  0
  2 31  1  0
  2 32  1  0
  3 33  1  0
  3 34  1  0
  4 35  1  0
  4 36  1  0
  5 37  1  1
  7 38  1  0
 11 39  1  0
 14 40  1  0
 14 41  1  0
 14 42  1  0
 15 43  1  0
 17 44  1  0
 22 45  1  0
 23 46  1  0
 24 47  1  0
 26 48  1  0
 27 49  1  0
 28 50  1  0
 29 51  1  0
M  ISO  8  31  13  32  13  33  13  34  13  35  13  36  13  37  13  38  14
M  ISO  8  39   9  40   8  41   8  42   8  43  14  44  14  45  14  46  14
M  ISO  5  47  14  48  14  49  14  50  14  51  14
M  END
>  <minimizedAffinity>  (1) 
-6.65322304

>  <minimizedRMSD>  (1) 
0.855497181

$$$$
