
     RDKit          3D

 50 53  0  0  1  0  0  0  0  0999 V2000
   36.9370   28.0090   41.7320 N   0  0  0  0  0  0  0  0  0  0  0  0
   36.7810   27.1420   42.8720 C   0  0  0  0  0  0  0  0  0  0  0  0
   37.3510   27.9450   44.0360 C   0  0  0  0  0  0  0  0  0  0  0  0
   37.9330   29.2030   43.4360 C   0  0  0  0  0  0  0  0  0  0  0  0
   38.1450   28.7390   42.0060 C   0  0  2  0  0  0  0  0  0  0  0  0
   35.0850   29.0770   40.4740 C   0  0  0  0  0  0  0  0  0  0  0  0
   36.1160   28.1320   40.6030 C   0  0  0  0  0  0  0  0  0  0  0  0
   36.3390   27.2540   39.5250 C   0  0  0  0  0  0  0  0  0  0  0  0
   35.5400   27.3770   38.4310 N   0  0  0  0  0  0  0  0  0  0  0  0
   34.5550   28.3000   38.3440 C   0  0  0  0  0  0  0  0  0  0  0  0
   34.3450   29.1370   39.3720 N   0  0  0  0  0  0  0  0  0  0  0  0
   33.7360   28.3960   37.1710 N   0  0  0  0  0  0  0  0  0  0  0  0
   32.5000   29.1500   37.2150 C   0  0  0  0  0  0  0  0  0  0  0  0
   32.0390   29.6810   35.9050 C   0  0  0  0  0  0  0  0  0  0  0  0
   33.1860   29.6730   34.9240 C   0  0  0  0  0  0  0  0  0  0  0  0
   33.5370   28.2120   34.7190 C   0  0  0  0  0  0  0  0  0  0  0  0
   34.1910   27.7170   35.9570 C   0  0  0  0  0  0  0  0  0  0  0  0
   38.4780   29.7640   41.0930 N   0  0  0  0  0  0  0  0  0  0  0  0
   38.0140   31.0120   41.0200 C   0  0  0  0  0  0  0  0  0  0  0  0
   38.4580   31.8890   40.0490 C   0  0  0  0  0  0  0  0  0  0  0  0
   39.3860   31.5230   39.1230 C   0  0  0  0  0  0  0  0  0  0  0  0
   39.7850   32.3270   38.2420 O   0  0  0  0  0  0  0  0  0  0  0  0
   39.8390   30.2630   39.2150 N   0  0  0  0  0  0  0  0  0  0  0  0
   39.4060   29.4020   40.1660 C   0  0  0  0  0  0  0  0  0  0  0  0
   39.9390   28.2290   40.1190 O   0  0  0  0  0  0  0  0  0  0  0  0
   37.8930   33.2730   40.0290 C   0  0  0  0  0  0  0  0  0  0  0  0
   35.7195   26.9089   43.0421 H   0  0  0  0  0  0  0  0  0  0  0  0
   37.2899   26.1760   42.7384 H   0  0  0  0  0  0  0  0  0  0  0  0
   36.5544   28.1971   44.7515 H   0  0  0  0  0  0  0  0  0  0  0  0
   38.1143   27.3716   44.5825 H   0  0  0  0  0  0  0  0  0  0  0  0
   37.2282   30.0457   43.4916 H   0  0  0  0  0  0  0  0  0  0  0  0
   38.8350   29.5819   43.9388 H   0  0  0  0  0  0  0  0  0  0  0  0
   39.0387   28.1101   41.8800 H   0  0  0  0  0  0  0  0  0  0  0  0
   34.8871   29.7783   41.2980 H   0  0  0  0  0  0  0  0  0  0  0  0
   37.1330   26.4938   39.5662 H   0  0  0  0  0  0  0  0  0  0  0  0
   31.7131   28.4918   37.6120 H   0  0  0  0  0  0  0  0  0  0  0  0
   32.6981   30.0270   37.8488 H   0  0  0  0  0  0  0  0  0  0  0  0
   31.2240   29.0502   35.5205 H   0  0  0  0  0  0  0  0  0  0  0  0
   31.6767   30.7114   36.0353 H   0  0  0  0  0  0  0  0  0  0  0  0
   32.8803   30.1317   33.9721 H   0  0  0  0  0  0  0  0  0  0  0  0
   34.0451   30.2495   35.2975 H   0  0  0  0  0  0  0  0  0  0  0  0
   32.6226   27.6327   34.5231 H   0  0  0  0  0  0  0  0  0  0  0  0
   34.2137   28.0995   33.8591 H   0  0  0  0  0  0  0  0  0  0  0  0
   33.9766   26.6428   36.0581 H   0  0  0  0  0  0  0  0  0  0  0  0
   35.2673   27.9209   35.8572 H   0  0  0  0  0  0  0  0  0  0  0  0
   37.2620   31.3504   41.7480 H   0  0  0  0  0  0  0  0  0  0  0  0
   40.5427   29.9387   38.5364 H   0  0  0  0  0  0  0  0  0  0  0  0
   37.7492   33.6253   41.0611 H   0  0  0  0  0  0  0  0  0  0  0  0
   38.5886   33.9455   39.5056 H   0  0  0  0  0  0  0  0  0  0  0  0
   36.9255   33.2666   39.5056 H   0  0  0  0  0  0  0  0  0  0  0  0
  1  5  1  0
  1  2  1  0
  2  3  1  0
  4  3  1  0
  5  4  1  0
  6  7  2  0
  7  1  1  0
  8  7  1  0
  9  8  2  0
 10  9  1  0
 10 11  2  0
 11  6  1  0
 12 13  1  0
 12 10  1  0
 14 13  1  0
 15 14  1  0
 16 15  1  0
 16 17  1  0
 17 12  1  0
 18  5  1  0
 19 18  1  0
 20 19  2  0
 21 23  1  0
 21 20  1  0
 22 21  2  0
 23 24  1  0
 24 18  1  0
 25 24  2  0
 26 20  1  0
  2 27  1  0
  2 28  1  0
  3 29  1  0
  3 30  1  0
  4 31  1  0
  4 32  1  0
  5 33  1  1
  6 34  1  0
  8 35  1  0
 13 36  1  0
 13 37  1  0
 14 38  1  0
 14 39  1  0
 15 40  1  0
 15 41  1  0
 16 42  1  0
 16 43  1  0
 17 44  1  0
 17 45  1  0
 19 46  1  0
 23 47  1  0
 26 48  1  0
 26 49  1  0
 26 50  1  0
M  ISO  8  27  13  28  13  29  13  30  13  31  13  32  13  33  13  34  14
M  ISO  8  35  14  36  13  37  13  38  13  39  13  40  13  41  13  42  13
M  ISO  8  43  13  44  13  45  13  46  14  47   9  48   8  49   8  50   8
M  END
>  <minimizedAffinity>  (1) 
-5.97542858

>  <minimizedRMSD>  (1) 
0.15240556

$$$$
