
     RDKit          3D

 49 52  0  0  1  0  0  0  0  0999 V2000
   36.9120   28.0300   41.7030 N   0  0  0  0  0  0  0  0  0  0  0  0
   36.7360   27.1570   42.8430 C   0  0  0  0  0  0  0  0  0  0  0  0
   37.2720   27.9580   44.0180 C   0  0  0  0  0  0  0  0  0  0  0  0
   37.8740   29.2150   43.4330 C   0  0  0  0  0  0  0  0  0  0  0  0
   38.1150   28.7520   42.0130 C   0  0  2  0  0  0  0  0  0  0  0  0
   35.0660   29.0700   40.4220 C   0  0  0  0  0  0  0  0  0  0  0  0
   36.1180   28.1590   40.5630 C   0  0  0  0  0  0  0  0  0  0  0  0
   36.3850   27.3160   39.4650 C   0  0  0  0  0  0  0  0  0  0  0  0
   35.6110   27.4420   38.3520 N   0  0  0  0  0  0  0  0  0  0  0  0
   34.6100   28.3330   38.2650 C   0  0  0  0  0  0  0  0  0  0  0  0
   34.3460   29.1450   39.3090 N   0  0  0  0  0  0  0  0  0  0  0  0
   33.8140   28.4430   37.0840 N   0  0  0  0  0  0  0  0  0  0  0  0
   32.4260   28.8640   37.1340 C   0  0  0  0  0  0  0  0  0  0  0  0
   32.1300   29.8750   36.0790 C   0  0  0  0  0  0  0  0  0  0  0  0
   32.7670   29.6770   34.8210 N   0  0  0  0  0  0  0  0  0  0  0  0
   34.1710   29.3500   34.9170 C   0  0  0  0  0  0  0  0  0  0  0  0
   34.3960   28.1290   35.7920 C   0  0  0  0  0  0  0  0  0  0  0  0
   38.4740   29.7800   41.1070 N   0  0  0  0  0  0  0  0  0  0  0  0
   38.0180   31.0290   41.0210 C   0  0  0  0  0  0  0  0  0  0  0  0
   38.4800   31.9180   40.0630 C   0  0  0  0  0  0  0  0  0  0  0  0
   39.4300   31.5410   39.1630 C   0  0  0  0  0  0  0  0  0  0  0  0
   39.8550   32.3440   38.2900 O   0  0  0  0  0  0  0  0  0  0  0  0
   39.8820   30.2790   39.2600 N   0  0  0  0  0  0  0  0  0  0  0  0
   39.4250   29.4170   40.1990 C   0  0  0  0  0  0  0  0  0  0  0  0
   39.9570   28.2430   40.1630 O   0  0  0  0  0  0  0  0  0  0  0  0
   37.9230   33.2920   40.0310 C   0  0  0  0  0  0  0  0  0  0  0  0
   35.6726   26.9163   42.9886 H   0  0  0  0  0  0  0  0  0  0  0  0
   37.2554   26.1953   42.7191 H   0  0  0  0  0  0  0  0  0  0  0  0
   36.4556   28.2126   44.7098 H   0  0  0  0  0  0  0  0  0  0  0  0
   38.0181   27.3839   44.5870 H   0  0  0  0  0  0  0  0  0  0  0  0
   37.1723   30.0611   43.4733 H   0  0  0  0  0  0  0  0  0  0  0  0
   38.7658   29.5897   43.9567 H   0  0  0  0  0  0  0  0  0  0  0  0
   39.0073   28.1165   41.9130 H   0  0  0  0  0  0  0  0  0  0  0  0
   34.8282   29.7442   41.2580 H   0  0  0  0  0  0  0  0  0  0  0  0
   37.1975   26.5757   39.5064 H   0  0  0  0  0  0  0  0  0  0  0  0
   31.7795   27.9871   36.9819 H   0  0  0  0  0  0  0  0  0  0  0  0
   32.2361   29.3206   38.1166 H   0  0  0  0  0  0  0  0  0  0  0  0
   31.0433   29.8737   35.9086 H   0  0  0  0  0  0  0  0  0  0  0  0
   32.5274   30.8260   36.4633 H   0  0  0  0  0  0  0  0  0  0  0  0
   32.6732   30.5427   34.2709 H   0  0  0  0  0  0  0  0  0  0  0  0
   34.5606   29.1449   33.9090 H   0  0  0  0  0  0  0  0  0  0  0  0
   34.6954   30.2035   35.3714 H   0  0  0  0  0  0  0  0  0  0  0  0
   33.9006   27.2498   35.3543 H   0  0  0  0  0  0  0  0  0  0  0  0
   35.4665   27.8924   35.8818 H   0  0  0  0  0  0  0  0  0  0  0  0
   37.2502   31.3655   41.7332 H   0  0  0  0  0  0  0  0  0  0  0  0
   40.6011   29.9563   38.5970 H   0  0  0  0  0  0  0  0  0  0  0  0
   37.7769   33.6525   41.0599 H   0  0  0  0  0  0  0  0  0  0  0  0
   38.6218   33.9588   39.5047 H   0  0  0  0  0  0  0  0  0  0  0  0
   36.9571   33.2839   39.5047 H   0  0  0  0  0  0  0  0  0  0  0  0
  1  5  1  0
  1  2  1  0
  2  3  1  0
  4  3  1  0
  5  4  1  0
  6  7  2  0
  7  1  1  0
  8  7  1  0
  9  8  2  0
 10  9  1  0
 10 11  2  0
 11  6  1  0
 12 13  1  0
 12 10  1  0
 14 13  1  0
 15 16  1  0
 15 14  1  0
 16 17  1  0
 17 12  1  0
 18  5  1  0
 19 18  1  0
 20 19  2  0
 21 23  1  0
 21 20  1  0
 22 21  2  0
 23 24  1  0
 24 18  1  0
 25 24  2  0
 26 20  1  0
  2 27  1  0
  2 28  1  0
  3 29  1  0
  3 30  1  0
  4 31  1  0
  4 32  1  0
  5 33  1  1
  6 34  1  0
  8 35  1  0
 13 36  1  0
 13 37  1  0
 14 38  1  0
 14 39  1  0
 15 40  1  0
 16 41  1  0
 16 42  1  0
 17 43  1  0
 17 44  1  0
 19 45  1  0
 23 46  1  0
 26 47  1  0
 26 48  1  0
 26 49  1  0
M  ISO  8  27  13  28  13  29  13  30  13  31  13  32  13  33  13  34  14
M  ISO  8  35  14  36  13  37  13  38  13  39  13  40   5  41  13  42  13
M  ISO  7  43  13  44  13  45  14  46   9  47   8  48   8  49   8
M  END
>  <minimizedAffinity>  (1) 
-5.8171792

>  <minimizedRMSD>  (1) 
0.0801365077

$$$$
