
     RDKit          3D

 44 47  0  0  1  0  0  0  0  0999 V2000
   36.9360   28.0350   41.6710 N   0  0  0  0  0  0  0  0  0  0  0  0
   36.7740   27.1380   42.7940 C   0  0  0  0  0  0  0  0  0  0  0  0
   37.3290   27.9060   43.9780 C   0  0  0  0  0  0  0  0  0  0  0  0
   37.9390   29.1660   43.4160 C   0  0  0  0  0  0  0  0  0  0  0  0
   38.1520   28.7400   41.9780 C   0  0  2  0  0  0  0  0  0  0  0  0
   38.5070   29.7870   41.0900 N   0  0  0  0  0  0  0  0  0  0  0  0
   38.0310   31.0290   41.0210 C   0  0  0  0  0  0  0  0  0  0  0  0
   38.4900   31.9390   40.0830 C   0  0  0  0  0  0  0  0  0  0  0  0
   39.4600   31.5940   39.1840 C   0  0  0  0  0  0  0  0  0  0  0  0
   39.8710   32.4190   38.3410 O   0  0  0  0  0  0  0  0  0  0  0  0
   39.9300   30.3280   39.2740 N   0  0  0  0  0  0  0  0  0  0  0  0
   39.4710   29.4530   40.1930 C   0  0  0  0  0  0  0  0  0  0  0  0
   40.0220   28.2880   40.1450 O   0  0  0  0  0  0  0  0  0  0  0  0
   37.9120   33.3050   40.0650 C   0  0  0  0  0  0  0  0  0  0  0  0
   35.0410   29.0780   40.4700 C   0  0  0  0  0  0  0  0  0  0  0  0
   36.1270   28.1990   40.5490 C   0  0  0  0  0  0  0  0  0  0  0  0
   36.4180   27.4260   39.4040 C   0  0  0  0  0  0  0  0  0  0  0  0
   35.6280   27.5840   38.3050 N   0  0  0  0  0  0  0  0  0  0  0  0
   34.5940   28.4420   38.2750 C   0  0  0  0  0  0  0  0  0  0  0  0
   34.3070   29.1830   39.3570 N   0  0  0  0  0  0  0  0  0  0  0  0
   33.7650   28.5830   37.0700 C   0  0  0  0  0  0  0  0  0  0  0  0
   32.5500   29.2570   37.1790 C   0  0  0  0  0  0  0  0  0  0  0  0
   31.7950   29.3730   36.0280 C   0  0  0  0  0  0  0  0  0  0  0  0
   32.2270   28.8470   34.8280 C   0  0  0  0  0  0  0  0  0  0  0  0
   33.4510   28.1770   34.7520 C   0  0  0  0  0  0  0  0  0  0  0  0
   34.1710   28.0750   35.8820 N   0  0  0  0  0  0  0  0  0  0  0  0
   35.7118   26.8982   42.9497 H   0  0  0  0  0  0  0  0  0  0  0  0
   37.2891   26.1783   42.6399 H   0  0  0  0  0  0  0  0  0  0  0  0
   36.5220   28.1549   44.6828 H   0  0  0  0  0  0  0  0  0  0  0  0
   38.0738   27.3113   44.5271 H   0  0  0  0  0  0  0  0  0  0  0  0
   37.2505   30.0206   43.4904 H   0  0  0  0  0  0  0  0  0  0  0  0
   38.8453   29.5119   43.9346 H   0  0  0  0  0  0  0  0  0  0  0  0
   39.0382   28.1019   41.8458 H   0  0  0  0  0  0  0  0  0  0  0  0
   37.2501   31.3414   41.7300 H   0  0  0  0  0  0  0  0  0  0  0  0
   40.6632   30.0219   38.6185 H   0  0  0  0  0  0  0  0  0  0  0  0
   37.7642   33.6542   41.0976 H   0  0  0  0  0  0  0  0  0  0  0  0
   38.5987   33.9869   39.5420 H   0  0  0  0  0  0  0  0  0  0  0  0
   36.9444   33.2869   39.5420 H   0  0  0  0  0  0  0  0  0  0  0  0
   34.7853   29.6965   41.3430 H   0  0  0  0  0  0  0  0  0  0  0  0
   37.2585   26.7164   39.3992 H   0  0  0  0  0  0  0  0  0  0  0  0
   32.2083   29.6769   38.1366 H   0  0  0  0  0  0  0  0  0  0  0  0
   30.8283   29.8962   36.0692 H   0  0  0  0  0  0  0  0  0  0  0  0
   31.6053   28.9555   33.9271 H   0  0  0  0  0  0  0  0  0  0  0  0
   33.8110   27.7499   33.8044 H   0  0  0  0  0  0  0  0  0  0  0  0
  1  5  1  0
  1  2  1  0
  2  3  1  0
  4  3  1  0
  5  4  1  0
  6  5  1  0
  7  6  1  0
  8  7  2  0
  9 11  1  0
  9  8  1  0
 10  9  2  0
 11 12  1  0
 12  6  1  0
 13 12  2  0
 14  8  1  0
 15 16  2  0
 16  1  1  0
 17 16  1  0
 18 17  2  0
 19 18  1  0
 19 20  2  0
 20 15  1  0
 21 22  2  0
 21 19  1  0
 23 22  1  0
 24 23  2  0
 25 24  1  0
 25 26  2  0
 26 21  1  0
  2 27  1  0
  2 28  1  0
  3 29  1  0
  3 30  1  0
  4 31  1  0
  4 32  1  0
  5 33  1  1
  7 34  1  0
 11 35  1  0
 14 36  1  0
 14 37  1  0
 14 38  1  0
 15 39  1  0
 17 40  1  0
 22 41  1  0
 23 42  1  0
 24 43  1  0
 25 44  1  0
M  ISO  8  27  13  28  13  29  13  30  13  31  13  32  13  33  13  34  14
M  ISO  8  35   9  36   8  37   8  38   8  39  14  40  14  41  14  42  14
M  ISO  2  43  14  44  14
M  END
>  <minimizedAffinity>  (1) 
-5.76032352

>  <minimizedRMSD>  (1) 
0.364354521

$$$$
