
     RDKit          3D

 47 49  0  0  1  0  0  0  0  0999 V2000
   36.9100   28.0240   41.7030 N   0  0  0  0  0  0  0  0  0  0  0  0
   36.7440   27.1530   42.8470 C   0  0  0  0  0  0  0  0  0  0  0  0
   37.2750   27.9620   44.0220 C   0  0  0  0  0  0  0  0  0  0  0  0
   37.8720   29.2120   43.4310 C   0  0  0  0  0  0  0  0  0  0  0  0
   38.1130   28.7500   42.0090 C   0  0  2  0  0  0  0  0  0  0  0  0
   38.4700   29.7750   41.1020 N   0  0  0  0  0  0  0  0  0  0  0  0
   38.0120   31.0250   41.0200 C   0  0  0  0  0  0  0  0  0  0  0  0
   38.4720   31.9110   40.0620 C   0  0  0  0  0  0  0  0  0  0  0  0
   39.4310   31.5400   39.1460 C   0  0  0  0  0  0  0  0  0  0  0  0
   39.8410   32.3400   38.2860 O   0  0  0  0  0  0  0  0  0  0  0  0
   39.8740   30.2750   39.2540 N   0  0  0  0  0  0  0  0  0  0  0  0
   39.4170   29.4150   40.1950 C   0  0  0  0  0  0  0  0  0  0  0  0
   39.9480   28.2410   40.1570 O   0  0  0  0  0  0  0  0  0  0  0  0
   37.9120   33.2880   40.0320 C   0  0  0  0  0  0  0  0  0  0  0  0
   35.0560   29.0590   40.4340 C   0  0  0  0  0  0  0  0  0  0  0  0
   36.1130   28.1550   40.5620 C   0  0  0  0  0  0  0  0  0  0  0  0
   36.3930   27.3120   39.4580 C   0  0  0  0  0  0  0  0  0  0  0  0
   35.6200   27.4360   38.3470 N   0  0  0  0  0  0  0  0  0  0  0  0
   34.6070   28.3310   38.2720 C   0  0  0  0  0  0  0  0  0  0  0  0
   34.3340   29.1370   39.3190 N   0  0  0  0  0  0  0  0  0  0  0  0
   33.8500   28.3580   37.0060 C   0  0  0  0  0  0  0  0  0  0  0  0
   32.6150   29.2050   37.1640 C   0  0  0  0  0  0  0  0  0  0  0  0
   33.5140   26.9370   36.6080 C   0  0  0  0  0  0  0  0  0  0  0  0
   34.7600   28.9910   35.9670 C   0  0  0  0  0  0  0  0  0  0  0  0
   35.6830   26.9032   42.9948 H   0  0  0  0  0  0  0  0  0  0  0  0
   37.2730   26.1963   42.7247 H   0  0  0  0  0  0  0  0  0  0  0  0
   36.4562   28.2183   44.7104 H   0  0  0  0  0  0  0  0  0  0  0  0
   38.0202   27.3936   44.5979 H   0  0  0  0  0  0  0  0  0  0  0  0
   37.1689   30.0571   43.4708 H   0  0  0  0  0  0  0  0  0  0  0  0
   38.7659   29.5861   43.9515 H   0  0  0  0  0  0  0  0  0  0  0  0
   39.0077   28.1183   41.9068 H   0  0  0  0  0  0  0  0  0  0  0  0
   37.2464   31.3612   41.7347 H   0  0  0  0  0  0  0  0  0  0  0  0
   40.5918   29.9460   38.5926 H   0  0  0  0  0  0  0  0  0  0  0  0
   37.7660   33.6470   41.0615 H   0  0  0  0  0  0  0  0  0  0  0  0
   38.6098   33.9562   39.5062 H   0  0  0  0  0  0  0  0  0  0  0  0
   36.9459   33.2795   39.5062 H   0  0  0  0  0  0  0  0  0  0  0  0
   34.8142   29.7235   41.2766 H   0  0  0  0  0  0  0  0  0  0  0  0
   37.2119   26.5788   39.4990 H   0  0  0  0  0  0  0  0  0  0  0  0
   32.4040   29.3497   38.2338 H   0  0  0  0  0  0  0  0  0  0  0  0
   32.7774   30.1827   36.6868 H   0  0  0  0  0  0  0  0  0  0  0  0
   31.7614   28.7013   36.6868 H   0  0  0  0  0  0  0  0  0  0  0  0
   33.3698   26.3273   37.5122 H   0  0  0  0  0  0  0  0  0  0  0  0
   32.5899   26.9321   36.0113 H   0  0  0  0  0  0  0  0  0  0  0  0
   34.3380   26.5188   36.0113 H   0  0  0  0  0  0  0  0  0  0  0  0
   35.5618   29.5488   36.4729 H   0  0  0  0  0  0  0  0  0  0  0  0
   35.2014   28.2040   35.3379 H   0  0  0  0  0  0  0  0  0  0  0  0
   34.1756   29.6786   35.3379 H   0  0  0  0  0  0  0  0  0  0  0  0
  1  5  1  0
  1  2  1  0
  2  3  1  0
  4  3  1  0
  5  4  1  0
  6  5  1  0
  7  6  1  0
  8  7  2  0
  9 11  1  0
  9  8  1  0
 10  9  2  0
 11 12  1  0
 12  6  1  0
 13 12  2  0
 14  8  1  0
 15 16  2  0
 16  1  1  0
 17 16  1  0
 18 17  2  0
 19 18  1  0
 19 20  2  0
 20 15  1  0
 21 22  1  0
 21 19  1  0
 23 21  1  0
 24 21  1  0
  2 25  1  0
  2 26  1  0
  3 27  1  0
  3 28  1  0
  4 29  1  0
  4 30  1  0
  5 31  1  1
  7 32  1  0
 11 33  1  0
 14 34  1  0
 14 35  1  0
 14 36  1  0
 15 37  1  0
 17 38  1  0
 22 39  1  0
 22 40  1  0
 22 41  1  0
 23 42  1  0
 23 43  1  0
 23 44  1  0
 24 45  1  0
 24 46  1  0
 24 47  1  0
M  ISO  8  25  13  26  13  27  13  28  13  29  13  30  13  31  13  32  14
M  ISO  8  33   9  34   8  35   8  36   8  37  14  38  14  39   8  40   8
M  ISO  7  41   8  42   8  43   8  44   8  45   8  46   8  47   8
M  END
>  <minimizedAffinity>  (1) 
-5.67015696

>  <minimizedRMSD>  (1) 
0.209972188

$$$$
