
     RDKit          3D

 42 45  0  0  1  0  0  0  0  0999 V2000
   37.0060   28.0040   41.5850 N   0  0  0  0  0  0  0  0  0  0  0  0
   36.8500   27.0610   42.6590 C   0  0  0  0  0  0  0  0  0  0  0  0
   37.4920   27.7470   43.8630 C   0  0  0  0  0  0  0  0  0  0  0  0
   38.0990   29.0250   43.3360 C   0  0  0  0  0  0  0  0  0  0  0  0
   38.2510   28.6660   41.8640 C   0  0  2  0  0  0  0  0  0  0  0  0
   38.5900   29.7480   41.0260 N   0  0  0  0  0  0  0  0  0  0  0  0
   38.1740   31.0160   41.0650 C   0  0  0  0  0  0  0  0  0  0  0  0
   38.6130   31.9520   40.1550 C   0  0  0  0  0  0  0  0  0  0  0  0
   39.5020   31.6280   39.1630 C   0  0  0  0  0  0  0  0  0  0  0  0
   39.8960   32.4810   38.3420 O   0  0  0  0  0  0  0  0  0  0  0  0
   39.9110   30.3390   39.1440 N   0  0  0  0  0  0  0  0  0  0  0  0
   39.4730   29.4290   40.0410 C   0  0  0  0  0  0  0  0  0  0  0  0
   39.9590   28.2440   39.8840 O   0  0  0  0  0  0  0  0  0  0  0  0
   38.1050   33.3490   40.2570 C   0  0  0  0  0  0  0  0  0  0  0  0
   35.0660   29.1280   40.5280 C   0  0  0  0  0  0  0  0  0  0  0  0
   36.1530   28.2440   40.4980 C   0  0  0  0  0  0  0  0  0  0  0  0
   36.3960   27.5570   39.2860 C   0  0  0  0  0  0  0  0  0  0  0  0
   35.5640   27.7980   38.2410 N   0  0  0  0  0  0  0  0  0  0  0  0
   34.5360   28.6540   38.3190 C   0  0  0  0  0  0  0  0  0  0  0  0
   34.2940   29.3090   39.4530 N   0  0  0  0  0  0  0  0  0  0  0  0
   33.6470   28.8910   37.1470 C   0  0  0  0  0  0  0  0  0  0  0  0
   32.2950   29.3030   37.1930 C   0  0  0  0  0  0  0  0  0  0  0  0
   31.7050   29.4480   35.9760 C   0  0  0  0  0  0  0  0  0  0  0  0
   32.3490   29.2210   34.8170 C   0  0  0  0  0  0  0  0  0  0  0  0
   34.0270   28.7270   35.3700 S   0  0  0  0  0  0  0  0  0  0  0  0
   35.7854   26.8590   42.8481 H   0  0  0  0  0  0  0  0  0  0  0  0
   37.3131   26.0889   42.4341 H   0  0  0  0  0  0  0  0  0  0  0  0
   36.7320   27.9706   44.6262 H   0  0  0  0  0  0  0  0  0  0  0  0
   38.2496   27.1055   44.3369 H   0  0  0  0  0  0  0  0  0  0  0  0
   37.4267   29.8840   43.4783 H   0  0  0  0  0  0  0  0  0  0  0  0
   39.0305   29.3323   43.8339 H   0  0  0  0  0  0  0  0  0  0  0  0
   39.1153   28.0196   41.6517 H   0  0  0  0  0  0  0  0  0  0  0  0
   37.4612   31.3215   41.8452 H   0  0  0  0  0  0  0  0  0  0  0  0
   40.5801   30.0407   38.4200 H   0  0  0  0  0  0  0  0  0  0  0  0
   38.0043   33.6261   41.3168 H   0  0  0  0  0  0  0  0  0  0  0  0
   38.8119   34.0331   39.7648 H   0  0  0  0  0  0  0  0  0  0  0  0
   37.1238   33.4192   39.7648 H   0  0  0  0  0  0  0  0  0  0  0  0
   34.8448   29.6821   41.4522 H   0  0  0  0  0  0  0  0  0  0  0  0
   37.2331   26.8495   39.1931 H   0  0  0  0  0  0  0  0  0  0  0  0
   31.7631   29.4911   38.1373 H   0  0  0  0  0  0  0  0  0  0  0  0
   30.6525   29.7656   35.9378 H   0  0  0  0  0  0  0  0  0  0  0  0
   31.9642   29.3097   33.7903 H   0  0  0  0  0  0  0  0  0  0  0  0
  1  5  1  0
  1  2  1  0
  2  3  1  0
  4  3  1  0
  5  4  1  0
  6  7  1  0
  6  5  1  0
  8 14  1  0
  8  7  2  0
  9  8  1  0
 10  9  2  0
 11  9  1  0
 11 12  1  0
 12  6  1  0
 13 12  2  0
 16 15  2  0
 16  1  1  0
 17 16  1  0
 18 19  1  0
 18 17  2  0
 19 20  2  0
 20 15  1  0
 21 22  2  0
 21 19  1  0
 23 22  1  0
 24 25  1  0
 24 23  2  0
 25 21  1  0
  2 26  1  0
  2 27  1  0
  3 28  1  0
  3 29  1  0
  4 30  1  0
  4 31  1  0
  5 32  1  1
  7 33  1  0
 11 34  1  0
 14 35  1  0
 14 36  1  0
 14 37  1  0
 15 38  1  0
 17 39  1  0
 22 40  1  0
 23 41  1  0
 24 42  1  0
M  ISO  8  26  13  27  13  28  13  29  13  30  13  31  13  32  13  33  14
M  ISO  8  34   9  35   8  36   8  37   8  38  14  39  14  40  14  41  14
M  ISO  1  42  14
M  END
>  <minimizedAffinity>  (1) 
-5.60887384

>  <minimizedRMSD>  (1) 
0.334046274

$$$$
