
     RDKit          3D

 42 45  0  0  1  0  0  0  0  0999 V2000
   37.0060   28.0000   41.6090 N   0  0  0  0  0  0  0  0  0  0  0  0
   36.8630   27.0610   42.6930 C   0  0  0  0  0  0  0  0  0  0  0  0
   37.4940   27.7650   43.8910 C   0  0  0  0  0  0  0  0  0  0  0  0
   38.1060   29.0380   43.3530 C   0  0  0  0  0  0  0  0  0  0  0  0
   38.2470   28.6700   41.8950 C   0  0  2  0  0  0  0  0  0  0  0  0
   38.5820   29.7470   41.0340 N   0  0  0  0  0  0  0  0  0  0  0  0
   38.1530   31.0130   41.0660 C   0  0  0  0  0  0  0  0  0  0  0  0
   38.5760   31.9470   40.1500 C   0  0  0  0  0  0  0  0  0  0  0  0
   39.4630   31.6180   39.1540 C   0  0  0  0  0  0  0  0  0  0  0  0
   39.8550   32.4640   38.3130 O   0  0  0  0  0  0  0  0  0  0  0  0
   39.8820   30.3320   39.1420 N   0  0  0  0  0  0  0  0  0  0  0  0
   39.4590   29.4240   40.0470 C   0  0  0  0  0  0  0  0  0  0  0  0
   39.9520   28.2430   39.9010 O   0  0  0  0  0  0  0  0  0  0  0  0
   38.0660   33.3380   40.2360 C   0  0  0  0  0  0  0  0  0  0  0  0
   35.0730   29.1120   40.5340 C   0  0  0  0  0  0  0  0  0  0  0  0
   36.1530   28.2240   40.5270 C   0  0  0  0  0  0  0  0  0  0  0  0
   36.3920   27.5030   39.3360 C   0  0  0  0  0  0  0  0  0  0  0  0
   35.5620   27.7210   38.2800 N   0  0  0  0  0  0  0  0  0  0  0  0
   34.5290   28.5950   38.3400 C   0  0  0  0  0  0  0  0  0  0  0  0
   34.2990   29.2760   39.4620 N   0  0  0  0  0  0  0  0  0  0  0  0
   33.7920   28.6460   37.0840 C   0  0  0  0  0  0  0  0  0  0  0  0
   32.5320   29.2300   36.9300 C   0  0  0  0  0  0  0  0  0  0  0  0
   32.1250   29.1040   35.6130 C   0  0  0  0  0  0  0  0  0  0  0  0
   33.1780   28.4350   35.0120 C   0  0  0  0  0  0  0  0  0  0  0  0
   34.1150   28.1910   35.8950 O   0  0  0  0  0  0  0  0  0  0  0  0
   35.8013   26.8450   42.8833 H   0  0  0  0  0  0  0  0  0  0  0  0
   37.3404   26.0941   42.4758 H   0  0  0  0  0  0  0  0  0  0  0  0
   36.7272   27.9985   44.6443 H   0  0  0  0  0  0  0  0  0  0  0  0
   38.2487   27.1306   44.3788 H   0  0  0  0  0  0  0  0  0  0  0  0
   37.4392   29.9016   43.4928 H   0  0  0  0  0  0  0  0  0  0  0  0
   39.0411   29.3445   43.8445 H   0  0  0  0  0  0  0  0  0  0  0  0
   39.1149   28.0223   41.7022 H   0  0  0  0  0  0  0  0  0  0  0  0
   37.4410   31.3160   41.8478 H   0  0  0  0  0  0  0  0  0  0  0  0
   40.5486   30.0344   38.4154 H   0  0  0  0  0  0  0  0  0  0  0  0
   37.9607   33.6252   41.2926 H   0  0  0  0  0  0  0  0  0  0  0  0
   38.7729   34.0191   39.7396 H   0  0  0  0  0  0  0  0  0  0  0  0
   37.0864   33.4007   39.7396 H   0  0  0  0  0  0  0  0  0  0  0  0
   34.8574   29.6885   41.4456 H   0  0  0  0  0  0  0  0  0  0  0  0
   37.2240   26.7869   39.2644 H   0  0  0  0  0  0  0  0  0  0  0  0
   31.9537   29.7144   37.7306 H   0  0  0  0  0  0  0  0  0  0  0  0
   31.1883   29.4523   35.1533 H   0  0  0  0  0  0  0  0  0  0  0  0
   33.2215   28.1505   33.9503 H   0  0  0  0  0  0  0  0  0  0  0  0
  1  5  1  0
  1  2  1  0
  2  3  1  0
  4  3  1  0
  5  4  1  0
  6  7  1  0
  6  5  1  0
  8 14  1  0
  8  7  2  0
  9  8  1  0
 10  9  2  0
 11  9  1  0
 11 12  1  0
 12  6  1  0
 13 12  2  0
 16 15  2  0
 16  1  1  0
 17 16  1  0
 18 19  1  0
 18 17  2  0
 19 20  2  0
 20 15  1  0
 21 19  1  0
 22 21  2  0
 23 22  1  0
 24 23  2  0
 24 25  1  0
 25 21  1  0
  2 26  1  0
  2 27  1  0
  3 28  1  0
  3 29  1  0
  4 30  1  0
  4 31  1  0
  5 32  1  1
  7 33  1  0
 11 34  1  0
 14 35  1  0
 14 36  1  0
 14 37  1  0
 15 38  1  0
 17 39  1  0
 22 40  1  0
 23 41  1  0
 24 42  1  0
M  ISO  8  26  13  27  13  28  13  29  13  30  13  31  13  32  13  33  14
M  ISO  8  34   9  35   8  36   8  37   8  38  14  39  14  40  14  41  14
M  ISO  1  42  14
M  END
>  <minimizedAffinity>  (1) 
-5.55818844

>  <minimizedRMSD>  (1) 
0.363343984

$$$$
