
     RDKit          3D

 44 46  0  0  1  0  0  0  0  0999 V2000
   36.9180   28.0330   41.6840 N   0  0  0  0  0  0  0  0  0  0  0  0
   36.7510   27.1520   42.8160 C   0  0  0  0  0  0  0  0  0  0  0  0
   37.3350   27.9110   43.9850 C   0  0  0  0  0  0  0  0  0  0  0  0
   37.9260   29.1840   43.4120 C   0  0  0  0  0  0  0  0  0  0  0  0
   38.1330   28.7440   41.9800 C   0  0  2  0  0  0  0  0  0  0  0  0
   38.4810   29.7820   41.0790 N   0  0  0  0  0  0  0  0  0  0  0  0
   38.0070   31.0250   41.0020 C   0  0  0  0  0  0  0  0  0  0  0  0
   38.4590   31.9260   40.0510 C   0  0  0  0  0  0  0  0  0  0  0  0
   39.4270   31.5690   39.1390 C   0  0  0  0  0  0  0  0  0  0  0  0
   39.8350   32.3800   38.2840 O   0  0  0  0  0  0  0  0  0  0  0  0
   39.8830   30.3120   39.2440 N   0  0  0  0  0  0  0  0  0  0  0  0
   39.4370   29.4380   40.1740 C   0  0  0  0  0  0  0  0  0  0  0  0
   39.9840   28.2710   40.1310 O   0  0  0  0  0  0  0  0  0  0  0  0
   37.8870   33.2930   40.0240 C   0  0  0  0  0  0  0  0  0  0  0  0
   35.0290   29.0780   40.4720 C   0  0  0  0  0  0  0  0  0  0  0  0
   36.1050   28.1810   40.5540 C   0  0  0  0  0  0  0  0  0  0  0  0
   36.3790   27.3860   39.4270 C   0  0  0  0  0  0  0  0  0  0  0  0
   35.5860   27.5330   38.3300 N   0  0  0  0  0  0  0  0  0  0  0  0
   34.5560   28.4160   38.2980 C   0  0  0  0  0  0  0  0  0  0  0  0
   34.2910   29.1750   39.3700 N   0  0  0  0  0  0  0  0  0  0  0  0
   33.8130   28.4230   37.0070 C   0  0  0  0  0  0  0  0  0  0  0  0
   32.5530   29.2340   37.1040 C   0  0  0  0  0  0  0  0  0  0  0  0
   34.7710   29.0030   35.9610 C   0  0  0  0  0  0  0  0  0  0  0  0
   35.6856   26.9377   42.9864 H   0  0  0  0  0  0  0  0  0  0  0  0
   37.2447   26.1810   42.6629 H   0  0  0  0  0  0  0  0  0  0  0  0
   36.5479   28.1512   44.7149 H   0  0  0  0  0  0  0  0  0  0  0  0
   38.0980   27.3155   44.5078 H   0  0  0  0  0  0  0  0  0  0  0  0
   37.2260   30.0295   43.4839 H   0  0  0  0  0  0  0  0  0  0  0  0
   38.8283   29.5513   43.9229 H   0  0  0  0  0  0  0  0  0  0  0  0
   39.0204   28.1065   41.8526 H   0  0  0  0  0  0  0  0  0  0  0  0
   37.2333   31.3457   41.7151 H   0  0  0  0  0  0  0  0  0  0  0  0
   40.6083   29.9973   38.5839 H   0  0  0  0  0  0  0  0  0  0  0  0
   37.7382   33.6486   41.0542 H   0  0  0  0  0  0  0  0  0  0  0  0
   38.5777   33.9692   39.4989 H   0  0  0  0  0  0  0  0  0  0  0  0
   36.9206   33.2758   39.4989 H   0  0  0  0  0  0  0  0  0  0  0  0
   34.7910   29.7142   41.3373 H   0  0  0  0  0  0  0  0  0  0  0  0
   37.2104   26.6658   39.4315 H   0  0  0  0  0  0  0  0  0  0  0  0
   33.4962   27.4066   36.7304 H   0  0  0  0  0  0  0  0  0  0  0  0
   32.3017   29.3958   38.1626 H   0  0  0  0  0  0  0  0  0  0  0  0
   32.7033   30.2054   36.6102 H   0  0  0  0  0  0  0  0  0  0  0  0
   31.7311   28.6949   36.6102 H   0  0  0  0  0  0  0  0  0  0  0  0
   35.6058   29.5084   36.4686 H   0  0  0  0  0  0  0  0  0  0  0  0
   35.1626   28.1902   35.3318 H   0  0  0  0  0  0  0  0  0  0  0  0
   34.2323   29.7268   35.3318 H   0  0  0  0  0  0  0  0  0  0  0  0
  1  5  1  0
  1  2  1  0
  2  3  1  0
  4  3  1  0
  5  4  1  0
  6  5  1  0
  7  6  1  0
  8  7  2  0
  9 11  1  0
  9  8  1  0
 10  9  2  0
 11 12  1  0
 12  6  1  0
 13 12  2  0
 14  8  1  0
 15 16  2  0
 16  1  1  0
 17 16  1  0
 18 17  2  0
 19 18  1  0
 19 20  2  0
 20 15  1  0
 21 22  1  0
 21 19  1  0
 23 21  1  0
  2 24  1  0
  2 25  1  0
  3 26  1  0
  3 27  1  0
  4 28  1  0
  4 29  1  0
  5 30  1  1
  7 31  1  0
 11 32  1  0
 14 33  1  0
 14 34  1  0
 14 35  1  0
 15 36  1  0
 17 37  1  0
 21 38  1  0
 22 39  1  0
 22 40  1  0
 22 41  1  0
 23 42  1  0
 23 43  1  0
 23 44  1  0
M  ISO  8  24  13  25  13  26  13  27  13  28  13  29  13  30  13  31  14
M  ISO  8  32   9  33   8  34   8  35   8  36  14  37  14  38   8  39   8
M  ISO  5  40   8  41   8  42   8  43   8  44   8
M  END
>  <minimizedAffinity>  (1) 
-5.5037756

>  <minimizedRMSD>  (1) 
0.132789224

$$$$
