
     RDKit          3D

 40 43  0  0  1  0  0  0  0  0999 V2000
   36.9860   28.0060   41.6240 N   0  0  0  0  0  0  0  0  0  0  0  0
   36.8320   27.0840   42.7190 C   0  0  0  0  0  0  0  0  0  0  0  0
   37.4320   27.8120   43.9220 C   0  0  0  0  0  0  0  0  0  0  0  0
   38.0220   29.0970   43.3740 C   0  0  0  0  0  0  0  0  0  0  0  0
   38.2070   28.7060   41.9260 C   0  0  2  0  0  0  0  0  0  0  0  0
   38.5580   29.7650   41.0480 N   0  0  0  0  0  0  0  0  0  0  0  0
   38.0810   31.0130   41.0230 C   0  0  0  0  0  0  0  0  0  0  0  0
   38.5270   31.9440   40.0970 C   0  0  0  0  0  0  0  0  0  0  0  0
   39.4820   31.6120   39.1670 C   0  0  0  0  0  0  0  0  0  0  0  0
   39.8840   32.4490   38.3330 O   0  0  0  0  0  0  0  0  0  0  0  0
   39.9440   30.3390   39.2220 N   0  0  0  0  0  0  0  0  0  0  0  0
   39.4990   29.4470   40.1300 C   0  0  0  0  0  0  0  0  0  0  0  0
   40.0410   28.2800   40.0450 O   0  0  0  0  0  0  0  0  0  0  0  0
   37.9610   33.3100   40.1170 C   0  0  0  0  0  0  0  0  0  0  0  0
   35.0720   29.0790   40.4830 C   0  0  0  0  0  0  0  0  0  0  0  0
   36.1590   28.1980   40.5140 C   0  0  0  0  0  0  0  0  0  0  0  0
   36.4300   27.4570   39.3480 C   0  0  0  0  0  0  0  0  0  0  0  0
   35.6140   27.6530   38.2720 N   0  0  0  0  0  0  0  0  0  0  0  0
   34.5810   28.5120   38.2880 C   0  0  0  0  0  0  0  0  0  0  0  0
   34.3190   29.2150   39.3890 N   0  0  0  0  0  0  0  0  0  0  0  0
   33.7660   28.6520   37.0870 C   0  0  0  0  0  0  0  0  0  0  0  0
   34.1010   28.2050   35.8590 N   0  0  0  0  0  0  0  0  0  0  0  0
   33.1380   28.5030   35.0250 O   0  0  0  0  0  0  0  0  0  0  0  0
   32.1600   29.1410   35.6610 C   0  0  0  0  0  0  0  0  0  0  0  0
   32.5550   29.2360   36.9630 N   0  0  0  0  0  0  0  0  0  0  0  0
   35.7690   26.8595   42.8913 H   0  0  0  0  0  0  0  0  0  0  0  0
   37.3253   26.1200   42.5257 H   0  0  0  0  0  0  0  0  0  0  0  0
   36.6509   28.0348   44.6638 H   0  0  0  0  0  0  0  0  0  0  0  0
   38.1933   27.1999   44.4277 H   0  0  0  0  0  0  0  0  0  0  0  0
   37.3279   29.9434   43.4826 H   0  0  0  0  0  0  0  0  0  0  0  0
   38.9360   29.4397   43.8812 H   0  0  0  0  0  0  0  0  0  0  0  0
   39.0918   28.0720   41.7671 H   0  0  0  0  0  0  0  0  0  0  0  0
   37.3154   31.3093   41.7552 H   0  0  0  0  0  0  0  0  0  0  0  0
   40.6615   30.0420   38.5453 H   0  0  0  0  0  0  0  0  0  0  0  0
   37.8260   33.6357   41.1590 H   0  0  0  0  0  0  0  0  0  0  0  0
   38.6477   33.9990   39.6035 H   0  0  0  0  0  0  0  0  0  0  0  0
   36.9882   33.3114   39.6035 H   0  0  0  0  0  0  0  0  0  0  0  0
   34.8332   29.6716   41.3784 H   0  0  0  0  0  0  0  0  0  0  0  0
   37.2685   26.7463   39.3059 H   0  0  0  0  0  0  0  0  0  0  0  0
   31.2222   29.5162   35.2253 H   0  0  0  0  0  0  0  0  0  0  0  0
  1  5  1  0
  1  2  1  0
  2  3  1  0
  4  3  1  0
  5  4  1  0
  6  5  1  0
  7  6  1  0
  8 14  1  0
  8  7  2  0
  9 11  1  0
  9  8  1  0
 10  9  2  0
 11 12  1  0
 12  6  1  0
 13 12  2  0
 15 16  2  0
 16  1  1  0
 17 16  1  0
 18 19  1  0
 18 17  2  0
 19 20  2  0
 20 15  1  0
 21 19  1  0
 22 21  2  0
 23 24  1  0
 23 22  1  0
 24 25  2  0
 25 21  1  0
  2 26  1  0
  2 27  1  0
  3 28  1  0
  3 29  1  0
  4 30  1  0
  4 31  1  0
  5 32  1  1
  7 33  1  0
 11 34  1  0
 14 35  1  0
 14 36  1  0
 14 37  1  0
 15 38  1  0
 17 39  1  0
 24 40  1  0
M  ISO  8  26  13  27  13  28  13  29  13  30  13  31  13  32  13  33  14
M  ISO  7  34   9  35   8  36   8  37   8  38  14  39  14  40  14
M  END
>  <minimizedAffinity>  (1) 
-5.43773746

>  <minimizedRMSD>  (1) 
0.394431889

$$$$
