
     RDKit          3D

 41 44  0  0  1  0  0  0  0  0999 V2000
   36.9260   28.0330   41.6650 N   0  0  0  0  0  0  0  0  0  0  0  0
   36.7500   27.1340   42.7770 C   0  0  0  0  0  0  0  0  0  0  0  0
   37.3120   27.9060   43.9730 C   0  0  0  0  0  0  0  0  0  0  0  0
   37.9120   29.1680   43.4080 C   0  0  0  0  0  0  0  0  0  0  0  0
   38.1380   28.7420   41.9690 C   0  0  2  0  0  0  0  0  0  0  0  0
   38.4970   29.7840   41.0870 N   0  0  0  0  0  0  0  0  0  0  0  0
   38.0200   31.0260   41.0120 C   0  0  0  0  0  0  0  0  0  0  0  0
   38.4880   31.9310   40.0770 C   0  0  0  0  0  0  0  0  0  0  0  0
   39.4640   31.5930   39.1820 C   0  0  0  0  0  0  0  0  0  0  0  0
   39.8870   32.4120   38.3350 O   0  0  0  0  0  0  0  0  0  0  0  0
   39.9310   30.3300   39.2780 N   0  0  0  0  0  0  0  0  0  0  0  0
   39.4680   29.4510   40.1960 C   0  0  0  0  0  0  0  0  0  0  0  0
   40.0200   28.2870   40.1520 O   0  0  0  0  0  0  0  0  0  0  0  0
   37.9060   33.3010   40.0560 C   0  0  0  0  0  0  0  0  0  0  0  0
   35.0300   29.0750   40.4600 C   0  0  0  0  0  0  0  0  0  0  0  0
   36.1170   28.2020   40.5280 C   0  0  0  0  0  0  0  0  0  0  0  0
   36.4220   27.4370   39.3750 C   0  0  0  0  0  0  0  0  0  0  0  0
   35.6380   27.6010   38.2760 N   0  0  0  0  0  0  0  0  0  0  0  0
   34.5930   28.4650   38.2620 C   0  0  0  0  0  0  0  0  0  0  0  0
   34.2970   29.1890   39.3410 N   0  0  0  0  0  0  0  0  0  0  0  0
   33.9370   28.4320   36.9600 C   0  0  0  0  0  0  0  0  0  0  0  0
   32.6830   29.2210   36.9890 C   0  0  0  0  0  0  0  0  0  0  0  0
   31.9940   29.0690   35.2720 S   0  0  0  0  0  0  0  0  0  0  0  0
   33.4890   27.9840   34.8120 C   0  0  0  0  0  0  0  0  0  0  0  0
   34.0960   27.9270   35.7560 N   0  0  0  0  0  0  0  0  0  0  0  0
   35.6852   26.9022   42.9271 H   0  0  0  0  0  0  0  0  0  0  0  0
   37.2537   26.1682   42.6232 H   0  0  0  0  0  0  0  0  0  0  0  0
   36.5077   28.1496   44.6828 H   0  0  0  0  0  0  0  0  0  0  0  0
   38.0606   27.3134   44.5193 H   0  0  0  0  0  0  0  0  0  0  0  0
   37.2147   30.0160   43.4764 H   0  0  0  0  0  0  0  0  0  0  0  0
   38.8133   29.5223   43.9297 H   0  0  0  0  0  0  0  0  0  0  0  0
   39.0275   28.1090   41.8344 H   0  0  0  0  0  0  0  0  0  0  0  0
   37.2325   31.3399   41.7129 H   0  0  0  0  0  0  0  0  0  0  0  0
   40.6683   30.0239   38.6271 H   0  0  0  0  0  0  0  0  0  0  0  0
   37.7569   33.6519   41.0878 H   0  0  0  0  0  0  0  0  0  0  0  0
   38.5922   33.9829   39.5323 H   0  0  0  0  0  0  0  0  0  0  0  0
   36.9389   33.2805   39.5323 H   0  0  0  0  0  0  0  0  0  0  0  0
   34.7690   29.6811   41.3400 H   0  0  0  0  0  0  0  0  0  0  0  0
   37.2667   26.7324   39.3690 H   0  0  0  0  0  0  0  0  0  0  0  0
   32.2556   29.7736   37.8387 H   0  0  0  0  0  0  0  0  0  0  0  0
   33.7092   27.5176   33.8404 H   0  0  0  0  0  0  0  0  0  0  0  0
  1  5  1  0
  1  2  1  0
  2  3  1  0
  4  3  1  0
  5  4  1  0
  6  5  1  0
  7  6  1  0
  8  7  2  0
  9 11  1  0
  9  8  1  0
 10  9  2  0
 11 12  1  0
 12  6  1  0
 13 12  2  0
 14  8  1  0
 15 16  2  0
 16  1  1  0
 17 16  1  0
 18 17  2  0
 19 18  1  0
 19 20  2  0
 20 15  1  0
 21 22  2  0
 21 19  1  0
 23 22  1  0
 24 23  1  0
 24 25  2  0
 25 21  1  0
  2 26  1  0
  2 27  1  0
  3 28  1  0
  3 29  1  0
  4 30  1  0
  4 31  1  0
  5 32  1  1
  7 33  1  0
 11 34  1  0
 14 35  1  0
 14 36  1  0
 14 37  1  0
 15 38  1  0
 17 39  1  0
 22 40  1  0
 24 41  1  0
M  ISO  8  26  13  27  13  28  13  29  13  30  13  31  13  32  13  33  14
M  ISO  8  34   9  35   8  36   8  37   8  38  14  39  14  40  14  41  14
M  END
>  <minimizedAffinity>  (1) 
-5.42052555

>  <minimizedRMSD>  (1) 
0.143277138

$$$$
