
     RDKit          3D

 36 38  0  0  1  0  0  0  0  0999 V2000
   36.9240   28.0350   41.6640 N   0  0  0  0  0  0  0  0  0  0  0  0
   36.7510   27.1400   42.7840 C   0  0  0  0  0  0  0  0  0  0  0  0
   37.3070   27.9140   43.9780 C   0  0  0  0  0  0  0  0  0  0  0  0
   37.9130   29.1760   43.4100 C   0  0  0  0  0  0  0  0  0  0  0  0
   38.1340   28.7470   41.9810 C   0  0  2  0  0  0  0  0  0  0  0  0
   38.4980   29.7880   41.0820 N   0  0  0  0  0  0  0  0  0  0  0  0
   38.0150   31.0320   41.0100 C   0  0  0  0  0  0  0  0  0  0  0  0
   38.4740   31.9360   40.0740 C   0  0  0  0  0  0  0  0  0  0  0  0
   39.4560   31.5900   39.1710 C   0  0  0  0  0  0  0  0  0  0  0  0
   39.8620   32.4120   38.3310 O   0  0  0  0  0  0  0  0  0  0  0  0
   39.9200   30.3320   39.2710 N   0  0  0  0  0  0  0  0  0  0  0  0
   39.4610   29.4540   40.1940 C   0  0  0  0  0  0  0  0  0  0  0  0
   40.0140   28.2900   40.1540 O   0  0  0  0  0  0  0  0  0  0  0  0
   37.8970   33.3030   40.0440 C   0  0  0  0  0  0  0  0  0  0  0  0
   35.0360   29.0740   40.4470 C   0  0  0  0  0  0  0  0  0  0  0  0
   36.1230   28.1920   40.5320 C   0  0  0  0  0  0  0  0  0  0  0  0
   36.4230   27.4130   39.3920 C   0  0  0  0  0  0  0  0  0  0  0  0
   35.6410   27.5670   38.2890 N   0  0  0  0  0  0  0  0  0  0  0  0
   34.6040   28.4280   38.2490 C   0  0  0  0  0  0  0  0  0  0  0  0
   34.3090   29.1760   39.3310 N   0  0  0  0  0  0  0  0  0  0  0  0
   33.5630   28.6600   36.8380 S   0  0  0  0  0  0  0  0  0  0  0  0
   35.6869   26.9050   42.9338 H   0  0  0  0  0  0  0  0  0  0  0  0
   37.2612   26.1771   42.6340 H   0  0  0  0  0  0  0  0  0  0  0  0
   36.4995   28.1613   44.6828 H   0  0  0  0  0  0  0  0  0  0  0  0
   38.0519   27.3224   44.5304 H   0  0  0  0  0  0  0  0  0  0  0  0
   37.2192   30.0270   43.4771 H   0  0  0  0  0  0  0  0  0  0  0  0
   38.8156   29.5289   43.9304 H   0  0  0  0  0  0  0  0  0  0  0  0
   39.0247   28.1120   41.8649 H   0  0  0  0  0  0  0  0  0  0  0  0
   37.2307   31.3435   41.7156 H   0  0  0  0  0  0  0  0  0  0  0  0
   40.6549   30.0235   38.6186 H   0  0  0  0  0  0  0  0  0  0  0  0
   37.7463   33.6600   41.0735 H   0  0  0  0  0  0  0  0  0  0  0  0
   38.5860   33.9803   39.5181 H   0  0  0  0  0  0  0  0  0  0  0  0
   36.9311   33.2818   39.5181 H   0  0  0  0  0  0  0  0  0  0  0  0
   34.7767   29.6947   41.3174 H   0  0  0  0  0  0  0  0  0  0  0  0
   37.2635   26.7033   39.3960 H   0  0  0  0  0  0  0  0  0  0  0  0
   32.2885   28.9440   37.2526 H   0  0  0  0  0  0  0  0  0  0  0  0
  1  5  1  0
  1  2  1  0
  2  3  1  0
  4  3  1  0
  5  4  1  0
  6  5  1  0
  7  6  1  0
  8  7  2  0
  9 11  1  0
  9  8  1  0
 10  9  2  0
 11 12  1  0
 12  6  1  0
 13 12  2  0
 14  8  1  0
 15 16  2  0
 16  1  1  0
 17 16  1  0
 18 17  2  0
 19 18  1  0
 19 20  2  0
 20 15  1  0
 21 19  1  0
  2 22  1  0
  2 23  1  0
  3 24  1  0
  3 25  1  0
  4 26  1  0
  4 27  1  0
  5 28  1  1
  7 29  1  0
 11 30  1  0
 14 31  1  0
 14 32  1  0
 14 33  1  0
 15 34  1  0
 17 35  1  0
 21 36  1  0
M  ISO  8  22  13  23  13  24  13  25  13  26  13  27  13  28  13  29  14
M  ISO  7  30   9  31   8  32   8  33   8  34  14  35  14  36  11
M  END
>  <minimizedAffinity>  (1) 
-5.17013645

>  <minimizedRMSD>  (1) 
0.0453700647

$$$$
