
     RDKit          3D

 29 31  0  0  0  0  0  0  0  0999 V2000
   37.7750   29.7670   42.0160 C   0  0  0  0  0  0  0  0  0  0  0  0
   38.0980   28.4000   41.8540 C   0  0  0  0  0  0  0  0  0  0  0  0
   37.2000   27.6090   41.1760 C   0  0  0  0  0  0  0  0  0  0  0  0
   36.0530   28.1300   40.6880 N   0  0  0  0  0  0  0  0  0  0  0  0
   35.7750   29.4650   40.8670 C   0  0  0  0  0  0  0  0  0  0  0  0
   36.6340   30.2750   41.5270 N   0  0  0  0  0  0  0  0  0  0  0  0
   39.3420   27.9110   42.4050 C   0  0  0  0  0  0  0  0  0  0  0  0
   39.3540   27.3260   43.7010 C   0  0  0  0  0  0  0  0  0  0  0  0
   41.1240   26.8530   44.0070 S   0  0  0  0  0  0  0  0  0  0  0  0
   41.5560   27.5490   42.2830 C   0  0  0  0  0  0  0  0  0  0  0  0
   40.5590   27.9230   41.8700 N   0  0  0  0  0  0  0  0  0  0  0  0
   37.7340   23.5440   40.4430 C   0  0  0  0  0  0  0  0  0  0  0  0
   37.1160   23.9540   41.6130 C   0  0  0  0  0  0  0  0  0  0  0  0
   36.9280   25.2950   41.8850 C   0  0  0  0  0  0  0  0  0  0  0  0
   37.3960   26.1930   40.9160 C   0  0  0  0  0  0  0  0  0  0  0  0
   38.0270   25.8300   39.7180 C   0  0  0  0  0  0  0  0  0  0  0  0
   38.1820   24.4740   39.5110 C   0  0  0  0  0  0  0  0  0  0  0  0
   38.0050   21.8890   40.0340 S   0  0  0  0  0  0  0  0  0  0  0  0
   36.7910   21.2490   39.3960 O   0  0  0  0  0  0  0  0  0  0  0  0
   39.1310   21.7880   39.0350 O   0  0  0  0  0  0  0  0  0  0  0  0
   38.4726   30.4263   42.5532 H   0  0  0  0  0  0  0  0  0  0  0  0
   34.8386   29.8809   40.4668 H   0  0  0  0  0  0  0  0  0  0  0  0
   38.4983   27.1840   44.3775 H   0  0  0  0  0  0  0  0  0  0  0  0
   42.5423   27.5824   41.7971 H   0  0  0  0  0  0  0  0  0  0  0  0
   36.7700   23.2006   42.3360 H   0  0  0  0  0  0  0  0  0  0  0  0
   36.4392   25.6384   42.8087 H   0  0  0  0  0  0  0  0  0  0  0  0
   38.3760   26.5772   38.9901 H   0  0  0  0  0  0  0  0  0  0  0  0
   38.6698   24.1219   38.5901 H   0  0  0  0  0  0  0  0  0  0  0  0
   38.2992   21.2408   41.2046 H   0  0  0  0  0  0  0  0  0  0  0  0
  2  1  2  0
  2  7  1  0
  3  2  1  0
  4  5  1  0
  4  3  2  0
  5  6  2  0
  6  1  1  0
  7  8  2  0
  8  9  1  0
 10  9  1  0
 11 10  2  0
 11  7  1  0
 12 13  2  0
 13 14  1  0
 15  3  1  0
 15 14  2  0
 16 15  1  0
 17 16  2  0
 17 12  1  0
 18 12  1  0
 19 18  2  0
 20 18  2  0
  1 21  1  0
  5 22  1  0
  8 23  1  0
 10 24  1  0
 13 25  1  0
 14 26  1  0
 16 27  1  0
 17 28  1  0
 18 29  1  0
M  ISO  8  21  14  22  14  23  14  24  14  25  14  26  14  27  14  28  14
M  ISO  1  29  11
M  END
>  <minimizedAffinity>  (1) 
-4.4350853

>  <minimizedRMSD>  (1) 
3.47454739

$$$$
