
     RDKit          3D

 30 32  0  0  0  0  0  0  0  0999 V2000
   37.2280   29.7080   41.8430 C   0  0  0  0  0  0  0  0  0  0  0  0
   37.6660   28.3900   41.5760 C   0  0  0  0  0  0  0  0  0  0  0  0
   36.9460   27.6390   40.6590 C   0  0  0  0  0  0  0  0  0  0  0  0
   35.8620   28.1800   40.0540 N   0  0  0  0  0  0  0  0  0  0  0  0
   35.4700   29.4460   40.3330 C   0  0  0  0  0  0  0  0  0  0  0  0
   36.1460   30.2080   41.2200 N   0  0  0  0  0  0  0  0  0  0  0  0
   37.3070   26.3070   40.3190 N   0  0  0  0  0  0  0  0  0  0  0  0
   36.5230   25.0970   40.1280 C   0  0  0  0  0  0  0  0  0  0  0  0
   36.7980   24.1970   41.3160 C   0  0  0  0  0  0  0  0  0  0  0  0
   38.2180   24.1260   41.5150 N   0  0  0  0  0  0  0  0  0  0  0  0
   38.9390   24.5910   40.3520 C   0  0  0  0  0  0  0  0  0  0  0  0
   38.7410   26.0720   40.1280 C   0  0  0  0  0  0  0  0  0  0  0  0
   38.8280   27.9030   42.2750 C   0  0  0  0  0  0  0  0  0  0  0  0
   38.6490   27.1050   43.4400 C   0  0  0  0  0  0  0  0  0  0  0  0
   40.3710   26.7130   44.0070 S   0  0  0  0  0  0  0  0  0  0  0  0
   41.0460   27.7100   42.5500 C   0  0  0  0  0  0  0  0  0  0  0  0
   40.1040   28.0720   42.0250 N   0  0  0  0  0  0  0  0  0  0  0  0
   37.7768   30.3292   42.5661 H   0  0  0  0  0  0  0  0  0  0  0  0
   34.5852   29.8611   39.8282 H   0  0  0  0  0  0  0  0  0  0  0  0
   35.4522   25.3444   40.0817 H   0  0  0  0  0  0  0  0  0  0  0  0
   36.7958   24.5977   39.1866 H   0  0  0  0  0  0  0  0  0  0  0  0
   36.3177   24.6116   42.2146 H   0  0  0  0  0  0  0  0  0  0  0  0
   36.3931   23.1915   41.1287 H   0  0  0  0  0  0  0  0  0  0  0  0
   38.4725   24.7118   42.3231 H   0  0  0  0  0  0  0  0  0  0  0  0
   40.0115   24.3921   40.4942 H   0  0  0  0  0  0  0  0  0  0  0  0
   38.5525   24.0560   39.4720 H   0  0  0  0  0  0  0  0  0  0  0  0
   39.0440   26.3507   39.1079 H   0  0  0  0  0  0  0  0  0  0  0  0
   39.3495   26.6748   40.8182 H   0  0  0  0  0  0  0  0  0  0  0  0
   37.7010   26.7909   43.9011 H   0  0  0  0  0  0  0  0  0  0  0  0
   42.0951   27.8952   42.2762 H   0  0  0  0  0  0  0  0  0  0  0  0
  2  1  2  0
  2 13  1  0
  3  2  1  0
  4  5  1  0
  4  3  2  0
  5  6  2  0
  6  1  1  0
  7  3  1  0
  8  7  1  0
  8  9  1  0
  9 10  1  0
 11 10  1  0
 12  7  1  0
 12 11  1  0
 13 14  2  0
 14 15  1  0
 16 15  1  0
 17 13  1  0
 17 16  2  0
  1 18  1  0
  5 19  1  0
  8 20  1  0
  8 21  1  0
  9 22  1  0
  9 23  1  0
 10 24  1  0
 11 25  1  0
 11 26  1  0
 12 27  1  0
 12 28  1  0
 14 29  1  0
 16 30  1  0
M  ISO  8  18  14  19  14  20  13  21  13  22  13  23  13  24   5  25  13
M  ISO  5  26  13  27  13  28  13  29  14  30  14
M  END
>  <minimizedAffinity>  (1) 
-4.18221521

>  <minimizedRMSD>  (1) 
2.21587086

$$$$
