
     RDKit          3D

 22 24  0  0  0  0  0  0  0  0999 V2000
   36.5320   29.0560   41.4170 C   0  0  0  0  0  0  0  0  0  0  0  0
   37.9250   29.1000   41.6420 C   0  0  0  0  0  0  0  0  0  0  0  0
   38.5650   30.2830   41.3470 C   0  0  0  0  0  0  0  0  0  0  0  0
   37.8400   31.3370   40.8600 N   0  0  0  0  0  0  0  0  0  0  0  0
   36.4930   31.2360   40.6620 C   0  0  0  0  0  0  0  0  0  0  0  0
   35.8490   30.0950   40.9430 N   0  0  0  0  0  0  0  0  0  0  0  0
   38.5920   27.9320   42.1620 C   0  0  0  0  0  0  0  0  0  0  0  0
   38.9860   26.8920   41.2790 C   0  0  0  0  0  0  0  0  0  0  0  0
   39.7920   25.6260   42.3690 S   0  0  0  0  0  0  0  0  0  0  0  0
   39.4460   26.7550   43.8650 C   0  0  0  0  0  0  0  0  0  0  0  0
   38.9250   27.6510   43.4190 N   0  0  0  0  0  0  0  0  0  0  0  0
   40.0200   30.4470   41.5520 C   0  0  0  0  0  0  0  0  0  0  0  0
   41.0940   29.9780   40.4850 C   0  0  0  0  0  0  0  0  0  0  0  0
   42.5660   30.4710   41.4060 S   0  0  0  0  0  0  0  0  0  0  0  0
   41.6390   31.1600   42.9180 C   0  0  0  0  0  0  0  0  0  0  0  0
   40.2680   31.0220   42.7350 N   0  0  0  0  0  0  0  0  0  0  0  0
   35.9897   28.1259   41.6425 H   0  0  0  0  0  0  0  0  0  0  0  0
   35.9325   32.0971   40.2691 H   0  0  0  0  0  0  0  0  0  0  0  0
   38.8444   26.8471   40.1891 H   0  0  0  0  0  0  0  0  0  0  0  0
   39.6966   26.5746   44.9208 H   0  0  0  0  0  0  0  0  0  0  0  0
   40.9791   29.5039   39.4991 H   0  0  0  0  0  0  0  0  0  0  0  0
   42.1168   31.6017   43.8049 H   0  0  0  0  0  0  0  0  0  0  0  0
  1  2  2  0
  2  7  1  0
  3 12  1  0
  3  2  1  0
  4  3  2  0
  5  4  1  0
  5  6  2  0
  6  1  1  0
  7 11  1  0
  8  7  2  0
  8  9  1  0
  9 10  1  0
 11 10  2  0
 12 16  1  0
 13 14  1  0
 13 12  2  0
 14 15  1  0
 16 15  2  0
  1 17  1  0
  5 18  1  0
  8 19  1  0
 10 20  1  0
 13 21  1  0
 15 22  1  0
M  ISO  6  17  14  18  14  19  14  20  14  21  14  22  14
M  END
>  <minimizedAffinity>  (1) 
-3.63687754

>  <minimizedRMSD>  (1) 
3.20679259

$$$$
