
     RDKit          3D

 28 30  0  0  0  0  0  0  0  0999 V2000
   36.5370   30.0530   41.4600 C   0  0  0  0  0  0  0  0  0  0  0  0
   37.4210   29.1460   40.8350 C   0  0  0  0  0  0  0  0  0  0  0  0
   38.0550   29.5520   39.6860 C   0  0  0  0  0  0  0  0  0  0  0  0
   37.8230   30.7950   39.1840 N   0  0  0  0  0  0  0  0  0  0  0  0
   36.9700   31.6400   39.8070 C   0  0  0  0  0  0  0  0  0  0  0  0
   36.3400   31.2670   40.9310 N   0  0  0  0  0  0  0  0  0  0  0  0
   38.9750   28.7650   38.9440 N   0  0  0  0  0  0  0  0  0  0  0  0
   38.7690   28.7460   37.4870 C   0  0  0  0  0  0  0  0  0  0  0  0
   39.9530   28.0410   36.9100 C   0  0  0  0  0  0  0  0  0  0  0  0
   40.2970   27.0580   38.0110 C   0  0  0  0  0  0  0  0  0  0  0  0
   40.1410   27.9250   39.2390 C   0  0  0  0  0  0  0  0  0  0  0  0
   37.6200   27.8320   41.4160 C   0  0  0  0  0  0  0  0  0  0  0  0
   36.9120   26.7070   40.9040 C   0  0  0  0  0  0  0  0  0  0  0  0
   37.4990   25.2990   41.9740 S   0  0  0  0  0  0  0  0  0  0  0  0
   38.6060   26.4970   42.9300 C   0  0  0  0  0  0  0  0  0  0  0  0
   38.4040   27.4890   42.4220 N   0  0  0  0  0  0  0  0  0  0  0  0
   36.0106   29.7621   42.3810 H   0  0  0  0  0  0  0  0  0  0  0  0
   36.7915   32.6414   39.3884 H   0  0  0  0  0  0  0  0  0  0  0  0
   37.8442   28.2044   37.2393 H   0  0  0  0  0  0  0  0  0  0  0  0
   38.6708   29.7639   37.0819 H   0  0  0  0  0  0  0  0  0  0  0  0
   39.6934   27.5212   35.9760 H   0  0  0  0  0  0  0  0  0  0  0  0
   40.7812   28.7118   36.6377 H   0  0  0  0  0  0  0  0  0  0  0  0
   39.5980   26.2088   38.0259 H   0  0  0  0  0  0  0  0  0  0  0  0
   41.2896   26.5952   37.9086 H   0  0  0  0  0  0  0  0  0  0  0  0
   41.0371   28.5434   39.3958 H   0  0  0  0  0  0  0  0  0  0  0  0
   40.0113   27.3335   40.1573 H   0  0  0  0  0  0  0  0  0  0  0  0
   36.1904   26.6767   40.0743 H   0  0  0  0  0  0  0  0  0  0  0  0
   39.2803   26.2832   43.7723 H   0  0  0  0  0  0  0  0  0  0  0  0
  2 12  1  0
  2  1  2  0
  3  2  1  0
  4  3  2  0
  4  5  1  0
  5  6  2  0
  6  1  1  0
  7 11  1  0
  7  3  1  0
  8  7  1  0
  9  8  1  0
  9 10  1  0
 10 11  1  0
 12 16  1  0
 13 12  2  0
 13 14  1  0
 14 15  1  0
 16 15  2  0
  1 17  1  0
  5 18  1  0
  8 19  1  0
  8 20  1  0
  9 21  1  0
  9 22  1  0
 10 23  1  0
 10 24  1  0
 11 25  1  0
 11 26  1  0
 13 27  1  0
 15 28  1  0
M  ISO  8  17  14  18  14  19  13  20  13  21  13  22  13  23  13  24  13
M  ISO  4  25  13  26  13  27  14  28  14
M  END
>  <minimizedAffinity>  (1) 
-3.5483911

>  <minimizedRMSD>  (1) 
1.1241405

$$$$
