
     RDKit          3D

 22 24  0  0  0  0  0  0  0  0999 V2000
   36.7500   29.9730   41.6640 C   0  0  0  0  0  0  0  0  0  0  0  0
   37.9290   29.3510   41.1930 C   0  0  0  0  0  0  0  0  0  0  0  0
   38.5480   29.9280   40.1060 C   0  0  0  0  0  0  0  0  0  0  0  0
   38.0450   31.0350   39.5200 N   0  0  0  0  0  0  0  0  0  0  0  0
   36.8940   31.6050   40.0150 C   0  0  0  0  0  0  0  0  0  0  0  0
   36.2530   31.0740   41.0810 N   0  0  0  0  0  0  0  0  0  0  0  0
   39.7460   29.4320   39.5270 N   0  0  0  0  0  0  0  0  0  0  0  0
   39.7270   29.3770   38.1610 C   0  0  0  0  0  0  0  0  0  0  0  0
   40.9040   28.8880   37.7120 N   0  0  0  0  0  0  0  0  0  0  0  0
   41.6540   28.6390   38.8210 C   0  0  0  0  0  0  0  0  0  0  0  0
   40.9350   28.9770   39.9300 N   0  0  0  0  0  0  0  0  0  0  0  0
   38.4120   28.1630   41.8540 C   0  0  0  0  0  0  0  0  0  0  0  0
   38.0320   26.8820   41.3620 C   0  0  0  0  0  0  0  0  0  0  0  0
   38.8800   25.6950   42.5240 S   0  0  0  0  0  0  0  0  0  0  0  0
   39.6020   27.1640   43.4740 C   0  0  0  0  0  0  0  0  0  0  0  0
   39.2000   28.0660   42.9170 N   0  0  0  0  0  0  0  0  0  0  0  0
   36.2268   29.5430   42.5308 H   0  0  0  0  0  0  0  0  0  0  0  0
   36.4885   32.5080   39.5353 H   0  0  0  0  0  0  0  0  0  0  0  0
   38.8833   29.6837   37.5252 H   0  0  0  0  0  0  0  0  0  0  0  0
   42.6755   28.2309   38.8224 H   0  0  0  0  0  0  0  0  0  0  0  0
   37.3899   26.6478   40.5001 H   0  0  0  0  0  0  0  0  0  0  0  0
   40.2569   27.1468   44.3577 H   0  0  0  0  0  0  0  0  0  0  0  0
  2  1  2  0
  2 12  1  0
  3  2  1  0
  4  5  1  0
  4  3  2  0
  5  6  2  0
  6  1  1  0
  7 11  1  0
  7  3  1  0
  8  7  1  0
  9  8  2  0
  9 10  1  0
 10 11  2  0
 12 16  1  0
 13 12  2  0
 13 14  1  0
 14 15  1  0
 16 15  2  0
  1 17  1  0
  5 18  1  0
  8 19  1  0
 10 20  1  0
 13 21  1  0
 15 22  1  0
M  ISO  6  17  14  18  14  19  14  20  14  21  14  22  14
M  END
>  <minimizedAffinity>  (1) 
-3.51481533

>  <minimizedRMSD>  (1) 
1.5738771

$$$$
