
     RDKit          3D

 25 26  0  0  0  0  0  0  0  0999 V2000
   36.5900   29.8420   41.4130 C   0  0  0  0  0  0  0  0  0  0  0  0
   37.9660   29.5380   41.5820 C   0  0  0  0  0  0  0  0  0  0  0  0
   38.8930   30.4870   41.2060 C   0  0  0  0  0  0  0  0  0  0  0  0
   38.4740   31.6730   40.6890 N   0  0  0  0  0  0  0  0  0  0  0  0
   37.1520   31.9230   40.5420 C   0  0  0  0  0  0  0  0  0  0  0  0
   36.2040   31.0220   40.8980 N   0  0  0  0  0  0  0  0  0  0  0  0
   38.3200   28.2550   42.1400 C   0  0  0  0  0  0  0  0  0  0  0  0
   38.1610   27.0830   41.3440 C   0  0  0  0  0  0  0  0  0  0  0  0
   38.7150   25.7000   42.4400 S   0  0  0  0  0  0  0  0  0  0  0  0
   39.0740   26.9540   43.8090 C   0  0  0  0  0  0  0  0  0  0  0  0
   38.7910   27.9560   43.3420 N   0  0  0  0  0  0  0  0  0  0  0  0
   40.3600   30.3790   41.2920 C   0  0  0  0  0  0  0  0  0  0  0  0
   41.0860   31.1570   40.2010 C   0  0  0  0  0  0  0  0  0  0  0  0
   40.7990   31.0330   42.6150 C   0  0  0  0  0  0  0  0  0  0  0  0
   35.8302   29.1029   41.7071 H   0  0  0  0  0  0  0  0  0  0  0  0
   36.8367   32.8886   40.1200 H   0  0  0  0  0  0  0  0  0  0  0  0
   37.7917   27.0162   40.3100 H   0  0  0  0  0  0  0  0  0  0  0  0
   39.4644   26.7624   44.8194 H   0  0  0  0  0  0  0  0  0  0  0  0
   40.6079   29.3111   41.2020 H   0  0  0  0  0  0  0  0  0  0  0  0
   41.7672   31.8870   40.6627 H   0  0  0  0  0  0  0  0  0  0  0  0
   41.6641   30.4600   39.5764 H   0  0  0  0  0  0  0  0  0  0  0  0
   40.3508   31.6855   39.5764 H   0  0  0  0  0  0  0  0  0  0  0  0
   40.4069   30.4489   43.4606 H   0  0  0  0  0  0  0  0  0  0  0  0
   41.8976   31.0581   42.6648 H   0  0  0  0  0  0  0  0  0  0  0  0
   40.4061   32.0592   42.6648 H   0  0  0  0  0  0  0  0  0  0  0  0
  1  2  2  0
  2  7  1  0
  3 12  1  0
  3  2  1  0
  4  3  2  0
  5  4  1  0
  5  6  2  0
  6  1  1  0
  7 11  1  0
  8  7  2  0
  8  9  1  0
  9 10  1  0
 11 10  2  0
 12 14  1  0
 13 12  1  0
  1 15  1  0
  5 16  1  0
  8 17  1  0
 10 18  1  0
 12 19  1  0
 13 20  1  0
 13 21  1  0
 13 22  1  0
 14 23  1  0
 14 24  1  0
 14 25  1  0
M  ISO  8  15  14  16  14  17  14  18  14  19   8  20   8  21   8  22   8
M  ISO  3  23   8  24   8  25   8
M  END
>  <minimizedAffinity>  (1) 
-3.51094007

>  <minimizedRMSD>  (1) 
2.64087296

$$$$
