
     RDKit          3D

 23 25  0  0  0  0  0  0  0  0999 V2000
   36.8010   29.9660   41.6630 C   0  0  0  0  0  0  0  0  0  0  0  0
   37.9370   29.3010   41.1380 C   0  0  0  0  0  0  0  0  0  0  0  0
   38.5040   29.7950   39.9850 C   0  0  0  0  0  0  0  0  0  0  0  0
   37.9840   30.8800   39.3810 N   0  0  0  0  0  0  0  0  0  0  0  0
   36.8810   31.5030   39.9130 C   0  0  0  0  0  0  0  0  0  0  0  0
   36.2990   31.0460   41.0450 N   0  0  0  0  0  0  0  0  0  0  0  0
   39.6530   29.2390   39.3620 N   0  0  0  0  0  0  0  0  0  0  0  0
   40.8060   28.7530   39.8530 N   0  0  0  0  0  0  0  0  0  0  0  0
   41.5940   28.3450   38.8440 C   0  0  0  0  0  0  0  0  0  0  0  0
   40.9110   28.5850   37.6630 C   0  0  0  0  0  0  0  0  0  0  0  0
   39.6750   29.1540   37.9970 C   0  0  0  0  0  0  0  0  0  0  0  0
   38.4290   28.1260   41.8330 C   0  0  0  0  0  0  0  0  0  0  0  0
   38.0540   26.8310   41.3730 C   0  0  0  0  0  0  0  0  0  0  0  0
   38.8840   25.6850   42.5660 S   0  0  0  0  0  0  0  0  0  0  0  0
   39.6020   27.1600   43.4880 C   0  0  0  0  0  0  0  0  0  0  0  0
   39.1990   28.0310   42.8960 N   0  0  0  0  0  0  0  0  0  0  0  0
   36.3275   29.5942   42.5836 H   0  0  0  0  0  0  0  0  0  0  0  0
   36.4644   32.3881   39.4099 H   0  0  0  0  0  0  0  0  0  0  0  0
   42.5965   27.9021   38.9384 H   0  0  0  0  0  0  0  0  0  0  0  0
   41.2733   28.3682   36.6473 H   0  0  0  0  0  0  0  0  0  0  0  0
   38.8826   29.4687   37.3020 H   0  0  0  0  0  0  0  0  0  0  0  0
   37.4204   26.5729   40.5116 H   0  0  0  0  0  0  0  0  0  0  0  0
   40.2494   27.1700   44.3772 H   0  0  0  0  0  0  0  0  0  0  0  0
  2  1  2  0
  2 12  1  0
  3  2  1  0
  4  5  1  0
  4  3  2  0
  5  6  2  0
  6  1  1  0
  7  8  1  0
  7  3  1  0
  9  8  2  0
 10 11  2  0
 10  9  1  0
 11  7  1  0
 12 16  1  0
 13 12  2  0
 13 14  1  0
 14 15  1  0
 16 15  2  0
  1 17  1  0
  5 18  1  0
  9 19  1  0
 10 20  1  0
 11 21  1  0
 13 22  1  0
 15 23  1  0
M  ISO  7  17  14  18  14  19  14  20  14  21  14  22  14  23  14
M  END
>  <minimizedAffinity>  (1) 
-3.50602674

>  <minimizedRMSD>  (1) 
1.37297964

$$$$
