
     RDKit          3D

 26 28  0  0  0  0  0  0  0  0999 V2000
   36.6740   30.1030   41.3240 C   0  0  0  0  0  0  0  0  0  0  0  0
   37.5200   29.2550   40.5690 C   0  0  0  0  0  0  0  0  0  0  0  0
   38.0540   29.7440   39.4030 C   0  0  0  0  0  0  0  0  0  0  0  0
   37.7740   31.0010   38.9900 N   0  0  0  0  0  0  0  0  0  0  0  0
   36.9460   31.7930   39.7510 C   0  0  0  0  0  0  0  0  0  0  0  0
   36.4010   31.3490   40.9100 N   0  0  0  0  0  0  0  0  0  0  0  0
   38.9520   29.0100   38.5280 C   0  0  0  0  0  0  0  0  0  0  0  0
   40.3180   29.0490   38.8250 C   0  0  0  0  0  0  0  0  0  0  0  0
   41.1540   28.3540   37.9670 C   0  0  0  0  0  0  0  0  0  0  0  0
   40.6020   27.6750   36.8900 C   0  0  0  0  0  0  0  0  0  0  0  0
   39.2390   27.6480   36.6110 C   0  0  0  0  0  0  0  0  0  0  0  0
   38.3820   28.3290   37.4430 C   0  0  0  0  0  0  0  0  0  0  0  0
   37.7700   27.9090   41.0600 C   0  0  0  0  0  0  0  0  0  0  0  0
   36.8870   26.8560   40.7170 C   0  0  0  0  0  0  0  0  0  0  0  0
   37.5990   25.3900   41.5820 S   0  0  0  0  0  0  0  0  0  0  0  0
   38.9860   26.4600   42.2690 C   0  0  0  0  0  0  0  0  0  0  0  0
   38.7360   27.4620   41.8400 N   0  0  0  0  0  0  0  0  0  0  0  0
   36.2347   29.7348   42.2629 H   0  0  0  0  0  0  0  0  0  0  0  0
   36.7200   32.8141   39.4099 H   0  0  0  0  0  0  0  0  0  0  0  0
   40.7073   29.6016   39.6928 H   0  0  0  0  0  0  0  0  0  0  0  0
   42.2407   28.3404   38.1369 H   0  0  0  0  0  0  0  0  0  0  0  0
   41.2801   27.1273   36.2190 H   0  0  0  0  0  0  0  0  0  0  0  0
   38.8549   27.0930   35.7424 H   0  0  0  0  0  0  0  0  0  0  0  0
   37.2965   28.3391   37.2652 H   0  0  0  0  0  0  0  0  0  0  0  0
   35.9885   26.9015   40.0841 H   0  0  0  0  0  0  0  0  0  0  0  0
   39.8239   26.1745   42.9220 H   0  0  0  0  0  0  0  0  0  0  0  0
  2 13  1  0
  2  1  2  0
  3  2  1  0
  4  3  2  0
  4  5  1  0
  5  6  2  0
  6  1  1  0
  7  8  2  0
  7  3  1  0
  9  8  1  0
 10  9  2  0
 11 10  1  0
 11 12  2  0
 12  7  1  0
 13 17  1  0
 14 13  2  0
 14 15  1  0
 15 16  1  0
 17 16  2  0
  1 18  1  0
  5 19  1  0
  8 20  1  0
  9 21  1  0
 10 22  1  0
 11 23  1  0
 12 24  1  0
 14 25  1  0
 16 26  1  0
M  ISO  8  18  14  19  14  20  14  21  14  22  14  23  14  24  14  25  14
M  ISO  1  26  14
M  END
>  <minimizedAffinity>  (1) 
-3.45570755

>  <minimizedRMSD>  (1) 
1.51960504

$$$$
