
     RDKit          3D

 35 37  0  0  1  0  0  0  0  0999 V2000
   39.6830   29.5700   42.6920 N   0  0  0  0  0  0  0  0  0  0  0  0
   39.8390   30.9880   42.7480 C   0  0  0  0  0  0  0  0  0  0  0  0
   40.9150   31.2840   41.7260 C   0  0  0  0  0  0  0  0  0  0  0  0
   42.1480   30.7860   42.2210 N   0  0  0  0  0  0  0  0  0  0  0  0
   42.1370   29.4770   42.6990 C   0  0  0  0  0  0  0  0  0  0  0  0
   40.8490   28.7060   42.7450 C   0  0  2  0  0  0  0  0  0  0  0  0
   38.4170   28.9100   42.5840 C   0  0  0  0  0  0  0  0  0  0  0  0
   37.9300   28.0460   43.5980 C   0  0  0  0  0  0  0  0  0  0  0  0
   36.6930   27.4500   43.4060 C   0  0  0  0  0  0  0  0  0  0  0  0
   36.0250   27.7320   42.2580 N   0  0  0  0  0  0  0  0  0  0  0  0
   36.5110   28.5580   41.3110 C   0  0  0  0  0  0  0  0  0  0  0  0
   37.7000   29.1400   41.4810 N   0  0  0  0  0  0  0  0  0  0  0  0
   40.8000   27.6650   41.7000 C   0  0  0  0  0  0  0  0  0  0  0  0
   40.8440   26.4770   42.1390 O   0  0  0  0  0  0  0  0  0  0  0  0
   40.7210   27.6420   40.2480 C   0  0  0  0  0  0  0  0  0  0  0  0
   40.9310   28.7460   39.4590 C   0  0  0  0  0  0  0  0  0  0  0  0
   40.8590   28.7410   38.0970 C   0  0  0  0  0  0  0  0  0  0  0  0
   40.5600   27.5730   37.4500 C   0  0  0  0  0  0  0  0  0  0  0  0
   40.3440   26.4490   38.2070 C   0  0  0  0  0  0  0  0  0  0  0  0
   40.4380   26.5640   39.5250 N   0  0  0  0  0  0  0  0  0  0  0  0
   38.8993   31.4946   42.4829 H   0  0  0  0  0  0  0  0  0  0  0  0
   40.1050   31.3431   43.7546 H   0  0  0  0  0  0  0  0  0  0  0  0
   40.9891   32.3700   41.5676 H   0  0  0  0  0  0  0  0  0  0  0  0
   40.6697   30.8040   40.7672 H   0  0  0  0  0  0  0  0  0  0  0  0
   42.8362   30.8352   41.4563 H   0  0  0  0  0  0  0  0  0  0  0  0
   42.8291   28.9019   42.0663 H   0  0  0  0  0  0  0  0  0  0  0  0
   42.4008   29.5929   43.7606 H   0  0  0  0  0  0  0  0  0  0  0  0
   40.8219   28.1988   43.7207 H   0  0  0  0  0  0  0  0  0  0  0  0
   38.5160   27.8546   44.5091 H   0  0  0  0  0  0  0  0  0  0  0  0
   36.2667   26.7709   44.1591 H   0  0  0  0  0  0  0  0  0  0  0  0
   35.9283   28.7525   40.3985 H   0  0  0  0  0  0  0  0  0  0  0  0
   41.1730   29.6961   39.9578 H   0  0  0  0  0  0  0  0  0  0  0  0
   41.0390   29.6639   37.5261 H   0  0  0  0  0  0  0  0  0  0  0  0
   40.4945   27.5360   36.3526 H   0  0  0  0  0  0  0  0  0  0  0  0
   40.1010   25.4849   37.7365 H   0  0  0  0  0  0  0  0  0  0  0  0
  1  6  1  0
  1  2  1  0
  3  4  1  0
  3  2  1  0
  4  5  1  0
  5  6  1  0
  7  1  1  0
  7  8  2  0
  9  8  1  0
 10  9  2  0
 11 12  2  0
 11 10  1  0
 12  7  1  0
 13 14  2  0
 13  6  1  0
 15 13  1  0
 16 15  2  0
 17 16  1  0
 18 17  2  0
 18 19  1  0
 19 20  2  0
 20 15  1  0
  2 21  1  0
  2 22  1  0
  3 23  1  0
  3 24  1  0
  4 25  1  0
  5 26  1  0
  5 27  1  0
  6 28  1  1
  8 29  1  0
  9 30  1  0
 11 31  1  0
 16 32  1  0
 17 33  1  0
 18 34  1  0
 19 35  1  0
M  ISO  8  21  13  22  13  23  13  24  13  25   5  26  13  27  13  28  13
M  ISO  7  29  14  30  14  31  14  32  14  33  14  34  14  35  14
M  END
>  <minimizedAffinity>  (1) 
-3.44883633

>  <minimizedRMSD>  (1) 
0.0510325208

$$$$
