
     RDKit          3D

 23 25  0  0  0  0  0  0  0  0999 V2000
   36.7160   29.8750   41.6800 C   0  0  0  0  0  0  0  0  0  0  0  0
   37.9950   29.4040   41.3020 C   0  0  0  0  0  0  0  0  0  0  0  0
   38.6720   30.1160   40.3390 C   0  0  0  0  0  0  0  0  0  0  0  0
   38.1340   31.2180   39.7830 N   0  0  0  0  0  0  0  0  0  0  0  0
   36.8870   31.6470   40.1740 C   0  0  0  0  0  0  0  0  0  0  0  0
   36.1910   30.9750   41.1170 N   0  0  0  0  0  0  0  0  0  0  0  0
   38.5050   28.2130   41.9320 C   0  0  0  0  0  0  0  0  0  0  0  0
   38.1710   26.9370   41.3970 C   0  0  0  0  0  0  0  0  0  0  0  0
   39.0320   25.7430   42.5360 S   0  0  0  0  0  0  0  0  0  0  0  0
   39.6980   27.1960   43.5450 C   0  0  0  0  0  0  0  0  0  0  0  0
   39.2730   28.0850   42.9990 N   0  0  0  0  0  0  0  0  0  0  0  0
   40.0040   29.7910   39.8470 C   0  0  0  0  0  0  0  0  0  0  0  0
   41.2660   30.1870   40.3400 C   0  0  0  0  0  0  0  0  0  0  0  0
   42.3700   29.7660   39.6920 C   0  0  0  0  0  0  0  0  0  0  0  0
   42.1430   28.9370   38.5370 C   0  0  0  0  0  0  0  0  0  0  0  0
   40.2480   28.8380   38.4930 S   0  0  0  0  0  0  0  0  0  0  0  0
   36.1432   29.3322   42.4463 H   0  0  0  0  0  0  0  0  0  0  0  0
   36.4519   32.5466   39.7141 H   0  0  0  0  0  0  0  0  0  0  0  0
   37.5503   26.7100   40.5177 H   0  0  0  0  0  0  0  0  0  0  0  0
   40.3385   27.1780   44.4391 H   0  0  0  0  0  0  0  0  0  0  0  0
   41.3464   30.8247   41.2327 H   0  0  0  0  0  0  0  0  0  0  0  0
   43.3822   30.0389   40.0250 H   0  0  0  0  0  0  0  0  0  0  0  0
   42.8769   28.4799   37.8569 H   0  0  0  0  0  0  0  0  0  0  0  0
  2  1  2  0
  2  7  1  0
  3  2  1  0
  4  5  1  0
  4  3  2  0
  5  6  2  0
  6  1  1  0
  7 11  1  0
  8  7  2  0
  8  9  1  0
  9 10  1  0
 11 10  2  0
 12  3  1  0
 12 13  2  0
 14 13  1  0
 15 14  2  0
 16 15  1  0
 16 12  1  0
  1 17  1  0
  5 18  1  0
  8 19  1  0
 10 20  1  0
 13 21  1  0
 14 22  1  0
 15 23  1  0
M  ISO  7  17  14  18  14  19  14  20  14  21  14  22  14  23  14
M  END
>  <minimizedAffinity>  (1) 
-3.31745505

>  <minimizedRMSD>  (1) 
2.05863285

$$$$
