
     RDKit          3D

 23 25  0  0  0  0  0  0  0  0999 V2000
   37.4890   28.9290   41.9500 C   0  0  0  0  0  0  0  0  0  0  0  0
   37.0780   27.9970   40.9560 C   0  0  0  0  0  0  0  0  0  0  0  0
   36.2110   28.4370   39.9810 C   0  0  0  0  0  0  0  0  0  0  0  0
   35.7830   29.7160   39.9960 N   0  0  0  0  0  0  0  0  0  0  0  0
   36.1940   30.5740   40.9570 C   0  0  0  0  0  0  0  0  0  0  0  0
   37.0470   30.1840   41.9340 N   0  0  0  0  0  0  0  0  0  0  0  0
   37.5930   26.6440   41.0290 C   0  0  0  0  0  0  0  0  0  0  0  0
   37.1160   25.7760   42.0470 C   0  0  0  0  0  0  0  0  0  0  0  0
   38.0560   24.2140   41.7580 S   0  0  0  0  0  0  0  0  0  0  0  0
   38.9440   25.0000   40.2960 C   0  0  0  0  0  0  0  0  0  0  0  0
   38.5000   26.0330   40.2790 N   0  0  0  0  0  0  0  0  0  0  0  0
   35.6890   27.5760   38.8990 C   0  0  0  0  0  0  0  0  0  0  0  0
   35.0870   28.1820   37.6770 C   0  0  0  0  0  0  0  0  0  0  0  0
   36.4290   27.6050   37.5640 C   0  0  0  0  0  0  0  0  0  0  0  0
   38.1813   28.6076   42.7421 H   0  0  0  0  0  0  0  0  0  0  0  0
   35.8276   31.6111   40.9449 H   0  0  0  0  0  0  0  0  0  0  0  0
   36.3650   25.9849   42.8231 H   0  0  0  0  0  0  0  0  0  0  0  0
   39.7019   24.5618   39.6300 H   0  0  0  0  0  0  0  0  0  0  0  0
   35.3618   26.8163   39.6241 H   0  0  0  0  0  0  0  0  0  0  0  0
   34.2380   27.6848   37.1851 H   0  0  0  0  0  0  0  0  0  0  0  0
   34.6560   29.1670   37.4447 H   0  0  0  0  0  0  0  0  0  0  0  0
   36.5823   26.6738   36.9990 H   0  0  0  0  0  0  0  0  0  0  0  0
   37.4088   27.9715   37.2238 H   0  0  0  0  0  0  0  0  0  0  0  0
  2  7  1  0
  2  1  2  0
  3  4  2  0
  3  2  1  0
  4  5  1  0
  5  6  2  0
  6  1  1  0
  7  8  2  0
  9  8  1  0
 10  9  1  0
 11 10  2  0
 11  7  1  0
 12  3  1  0
 13 12  1  0
 14 13  1  0
 14 12  1  0
  1 15  1  0
  5 16  1  0
  8 17  1  0
 10 18  1  0
 12 19  1  0
 13 20  1  0
 13 21  1  0
 14 22  1  0
 14 23  1  0
M  ISO  8  15  14  16  14  17  14  18  14  19  13  20  13  21  13  22  13
M  ISO  1  23  13
M  END
>  <minimizedAffinity>  (1) 
-3.23204064

>  <minimizedRMSD>  (1) 
2.28120208

$$$$
