
     RDKit          3D

 34 36  0  0  1  0  0  0  0  0999 V2000
   39.7160   29.4950   42.7270 N   0  0  0  0  0  0  0  0  0  0  0  0
   39.8970   30.9090   42.7430 C   0  0  0  0  0  0  0  0  0  0  0  0
   40.9980   31.1660   41.7490 C   0  0  0  0  0  0  0  0  0  0  0  0
   42.2170   30.6370   42.2330 N   0  0  0  0  0  0  0  0  0  0  0  0
   42.1620   29.3650   42.8040 C   0  0  0  0  0  0  0  0  0  0  0  0
   40.8640   28.6120   42.8260 C   0  0  2  0  0  0  0  0  0  0  0  0
   38.4480   28.8500   42.6180 C   0  0  0  0  0  0  0  0  0  0  0  0
   37.8990   28.0480   43.6370 C   0  0  0  0  0  0  0  0  0  0  0  0
   36.6610   27.4660   43.4260 C   0  0  0  0  0  0  0  0  0  0  0  0
   36.0400   27.7000   42.2440 N   0  0  0  0  0  0  0  0  0  0  0  0
   36.5760   28.4710   41.2760 C   0  0  0  0  0  0  0  0  0  0  0  0
   37.7690   29.0380   41.4670 N   0  0  0  0  0  0  0  0  0  0  0  0
   40.8220   27.5480   41.8020 C   0  0  0  0  0  0  0  0  0  0  0  0
   40.6130   26.3820   42.2390 O   0  0  0  0  0  0  0  0  0  0  0  0
   40.9790   27.5240   40.3600 C   0  0  0  0  0  0  0  0  0  0  0  0
   41.5910   26.4890   39.6860 C   0  0  0  0  0  0  0  0  0  0  0  0
   41.7390   26.4650   38.3190 C   0  0  0  0  0  0  0  0  0  0  0  0
   41.2830   27.4740   37.5700 N   0  0  0  0  0  0  0  0  0  0  0  0
   40.6910   28.4820   38.1860 C   0  0  0  0  0  0  0  0  0  0  0  0
   40.5770   28.4530   39.4890 N   0  0  0  0  0  0  0  0  0  0  0  0
   38.9725   31.4216   42.4387 H   0  0  0  0  0  0  0  0  0  0  0  0
   40.1467   31.2847   43.7462 H   0  0  0  0  0  0  0  0  0  0  0  0
   41.1059   32.2500   41.5965 H   0  0  0  0  0  0  0  0  0  0  0  0
   40.7455   30.6795   40.7953 H   0  0  0  0  0  0  0  0  0  0  0  0
   42.8761   30.5967   41.4425 H   0  0  0  0  0  0  0  0  0  0  0  0
   42.8837   28.7395   42.2581 H   0  0  0  0  0  0  0  0  0  0  0  0
   42.3644   29.5547   43.8684 H   0  0  0  0  0  0  0  0  0  0  0  0
   40.8062   28.1190   43.8076 H   0  0  0  0  0  0  0  0  0  0  0  0
   38.4421   27.8876   44.5800 H   0  0  0  0  0  0  0  0  0  0  0  0
   36.1948   26.8323   44.1948 H   0  0  0  0  0  0  0  0  0  0  0  0
   36.0324   28.6318   40.3333 H   0  0  0  0  0  0  0  0  0  0  0  0
   41.9797   25.6415   40.2697 H   0  0  0  0  0  0  0  0  0  0  0  0
   42.2361   25.6095   37.8385 H   0  0  0  0  0  0  0  0  0  0  0  0
   40.2993   29.3340   37.6110 H   0  0  0  0  0  0  0  0  0  0  0  0
  1  2  1  0
  1  6  1  0
  3  4  1  0
  3  2  1  0
  4  5  1  0
  5  6  1  0
  7  1  1  0
  7  8  2  0
  9  8  1  0
 10  9  2  0
 11 12  2  0
 11 10  1  0
 12  7  1  0
 13 14  2  0
 13  6  1  0
 15 13  1  0
 16 15  2  0
 17 16  1  0
 18 19  1  0
 18 17  2  0
 19 20  2  0
 20 15  1  0
  2 21  1  0
  2 22  1  0
  3 23  1  0
  3 24  1  0
  4 25  1  0
  5 26  1  0
  5 27  1  0
  6 28  1  1
  8 29  1  0
  9 30  1  0
 11 31  1  0
 16 32  1  0
 17 33  1  0
 19 34  1  0
M  ISO  8  21  13  22  13  23  13  24  13  25   5  26  13  27  13  28  13
M  ISO  6  29  14  30  14  31  14  32  14  33  14  34  14
M  END
>  <minimizedAffinity>  (1) 
-3.39530277

>  <minimizedRMSD>  (1) 
0.421966434

$$$$
