
     RDKit          3D

 19 20  0  0  0  0  0  0  0  0999 V2000
   36.4920   29.9630   41.4150 C   0  0  0  0  0  0  0  0  0  0  0  0
   37.5640   29.1600   40.9640 C   0  0  0  0  0  0  0  0  0  0  0  0
   38.4420   29.6860   40.0120 C   0  0  0  0  0  0  0  0  0  0  0  0
   38.2100   30.9640   39.5690 N   0  0  0  0  0  0  0  0  0  0  0  0
   37.1710   31.7050   40.0260 C   0  0  0  0  0  0  0  0  0  0  0  0
   36.3320   31.2070   40.9320 N   0  0  0  0  0  0  0  0  0  0  0  0
   37.7220   27.8270   41.4990 C   0  0  0  0  0  0  0  0  0  0  0  0
   36.9960   26.7380   40.9450 C   0  0  0  0  0  0  0  0  0  0  0  0
   37.5150   25.2570   41.9300 S   0  0  0  0  0  0  0  0  0  0  0  0
   38.6550   26.3990   42.9490 C   0  0  0  0  0  0  0  0  0  0  0  0
   38.4940   27.4200   42.4970 N   0  0  0  0  0  0  0  0  0  0  0  0
   39.6070   28.9650   39.4700 C   0  0  0  0  0  0  0  0  0  0  0  0
   35.7875   29.5693   42.1625 H   0  0  0  0  0  0  0  0  0  0  0  0
   37.0198   32.7259   39.6453 H   0  0  0  0  0  0  0  0  0  0  0  0
   36.2798   26.7680   40.1106 H   0  0  0  0  0  0  0  0  0  0  0  0
   39.3163   26.1250   43.7842 H   0  0  0  0  0  0  0  0  0  0  0  0
   40.2213   28.5848   40.2995 H   0  0  0  0  0  0  0  0  0  0  0  0
   39.2621   28.1222   38.8529 H   0  0  0  0  0  0  0  0  0  0  0  0
   40.2074   29.6497   38.8529 H   0  0  0  0  0  0  0  0  0  0  0  0
  2  1  2  0
  2  7  1  0
  3  2  1  0
  4  3  2  0
  4  5  1  0
  5  6  2  0
  6  1  1  0
  7 11  1  0
  8  7  2  0
  8  9  1  0
  9 10  1  0
 11 10  2  0
 12  3  1  0
  1 13  1  0
  5 14  1  0
  8 15  1  0
 10 16  1  0
 12 17  1  0
 12 18  1  0
 12 19  1  0
M  ISO  7  13  14  14  14  15  14  16  14  17   8  18   8  19   8
M  END
>  <minimizedAffinity>  (1) 
-3.03699064

>  <minimizedRMSD>  (1) 
1.19853759

$$$$
