
     RDKit          3D

 17 18  0  0  0  0  0  0  0  0999 V2000
   37.0630   29.8850   41.8620 C   0  0  0  0  0  0  0  0  0  0  0  0
   38.0980   29.1880   41.2140 C   0  0  0  0  0  0  0  0  0  0  0  0
   38.2950   29.4190   39.8710 C   0  0  0  0  0  0  0  0  0  0  0  0
   37.4930   30.3060   39.2170 N   0  0  0  0  0  0  0  0  0  0  0  0
   36.4940   30.9620   39.8950 C   0  0  0  0  0  0  0  0  0  0  0  0
   36.2900   30.7450   41.2120 N   0  0  0  0  0  0  0  0  0  0  0  0
   38.9180   28.2530   41.9890 C   0  0  0  0  0  0  0  0  0  0  0  0
   38.3870   27.7070   43.2020 C   0  0  0  0  0  0  0  0  0  0  0  0
   39.7370   26.6000   43.8250 S   0  0  0  0  0  0  0  0  0  0  0  0
   40.7790   27.0830   42.3180 C   0  0  0  0  0  0  0  0  0  0  0  0
   40.1200   27.8080   41.7400 N   0  0  0  0  0  0  0  0  0  0  0  0
   39.3050   28.7540   39.1910 O   0  0  0  0  0  0  0  0  0  0  0  0
   36.8900   29.7129   42.9346 H   0  0  0  0  0  0  0  0  0  0  0  0
   35.8511   31.6743   39.3571 H   0  0  0  0  0  0  0  0  0  0  0  0
   37.4050   27.9000   43.6584 H   0  0  0  0  0  0  0  0  0  0  0  0
   41.7919   26.7400   42.0604 H   0  0  0  0  0  0  0  0  0  0  0  0
   39.4451   28.9215   38.2254 H   0  0  0  0  0  0  0  0  0  0  0  0
  2  1  2  0
  2  7  1  0
  3  2  1  0
  4  3  2  0
  4  5  1  0
  5  6  2  0
  6  1  1  0
  7  8  2  0
  8  9  1  0
 10  9  1  0
 11  7  1  0
 11 10  2  0
 12  3  1  0
  1 13  1  0
  5 14  1  0
  8 15  1  0
 10 16  1  0
 12 17  1  0
M  ISO  5  13  14  14  14  15  14  16  14  17   3
M  END
>  <minimizedAffinity>  (1) 
-2.99270511

>  <minimizedRMSD>  (1) 
1.26496518

$$$$
