
     RDKit          3D

 18 19  0  0  0  0  0  0  0  0999 V2000
   36.8020   29.5820   41.6430 C   0  0  0  0  0  0  0  0  0  0  0  0
   37.6860   28.8600   40.8220 C   0  0  0  0  0  0  0  0  0  0  0  0
   38.0770   29.4250   39.6280 C   0  0  0  0  0  0  0  0  0  0  0  0
   37.5940   30.6540   39.2910 N   0  0  0  0  0  0  0  0  0  0  0  0
   36.7320   31.3220   40.1230 C   0  0  0  0  0  0  0  0  0  0  0  0
   36.3420   30.7790   41.2950 N   0  0  0  0  0  0  0  0  0  0  0  0
   38.9620   28.7530   38.7640 N   0  0  0  0  0  0  0  0  0  0  0  0
   38.1580   27.5470   41.2640 C   0  0  0  0  0  0  0  0  0  0  0  0
   37.2020   26.5620   41.6650 C   0  0  0  0  0  0  0  0  0  0  0  0
   38.2210   25.0940   42.1270 S   0  0  0  0  0  0  0  0  0  0  0  0
   39.7900   26.0900   41.6870 C   0  0  0  0  0  0  0  0  0  0  0  0
   39.3790   27.0910   41.3570 N   0  0  0  0  0  0  0  0  0  0  0  0
   36.4823   29.1438   42.6000 H   0  0  0  0  0  0  0  0  0  0  0  0
   36.3539   32.3129   39.8311 H   0  0  0  0  0  0  0  0  0  0  0  0
   39.2444   29.1895   37.8748 H   0  0  0  0  0  0  0  0  0  0  0  0
   39.3272   27.8248   39.0209 H   0  0  0  0  0  0  0  0  0  0  0  0
   36.1065   26.6576   41.6920 H   0  0  0  0  0  0  0  0  0  0  0  0
   40.8404   25.7679   41.7414 H   0  0  0  0  0  0  0  0  0  0  0  0
  2  8  1  0
  2  1  2  0
  3  2  1  0
  4  3  2  0
  4  5  1  0
  5  6  2  0
  6  1  1  0
  7  3  1  0
  8 12  1  0
  8  9  2  0
  9 10  1  0
 11 10  1  0
 12 11  2  0
  1 13  1  0
  5 14  1  0
  7 15  1  0
  7 16  1  0
  9 17  1  0
 11 18  1  0
M  ISO  4  13  14  14  14  17  14  18  14
M  END
>  <minimizedAffinity>  (1) 
-2.8445797

>  <minimizedRMSD>  (1) 
1.17855608

$$$$
