
     RDKit          3D

 35 39  0  0  0  0  0  0  0  0999 V2000
   37.2970   29.0730   41.6380 C   0  0  0  0  0  0  0  0  0  0  0  0
   38.5490   29.6650   41.2560 C   0  0  0  0  0  0  0  0  0  0  0  0
   38.5640   30.8460   40.5740 C   0  0  0  0  0  0  0  0  0  0  0  0
   37.3400   31.4170   40.2810 N   0  0  0  0  0  0  0  0  0  0  0  0
   36.1610   30.8390   40.6510 C   0  0  0  0  0  0  0  0  0  0  0  0
   36.1340   29.6710   41.3280 N   0  0  0  0  0  0  0  0  0  0  0  0
   39.7360   28.9100   41.6150 C   0  0  0  0  0  0  0  0  0  0  0  0
   40.2080   27.9000   40.7100 C   0  0  0  0  0  0  0  0  0  0  0  0
   41.7020   27.2040   41.5500 S   0  0  0  0  0  0  0  0  0  0  0  0
   41.4010   28.4430   43.0080 C   0  0  0  0  0  0  0  0  0  0  0  0
   40.4850   29.0070   42.6980 N   0  0  0  0  0  0  0  0  0  0  0  0
   39.7430   31.5780   40.1590 C   0  0  0  0  0  0  0  0  0  0  0  0
   40.7040   31.5900   39.2670 N   0  0  0  0  0  0  0  0  0  0  0  0
   41.5140   32.5670   39.4390 O   0  0  0  0  0  0  0  0  0  0  0  0
   41.1790   33.2910   40.4460 C   0  0  0  0  0  0  0  0  0  0  0  0
   40.0970   32.6680   40.8670 N   0  0  0  0  0  0  0  0  0  0  0  0
   41.7540   34.4930   41.0520 C   0  0  0  0  0  0  0  0  0  0  0  0
   41.3170   35.7970   40.9090 C   0  0  0  0  0  0  0  0  0  0  0  0
   42.1430   36.5700   41.6430 N   0  0  0  0  0  0  0  0  0  0  0  0
   43.0700   35.7880   42.2280 C   0  0  0  0  0  0  0  0  0  0  0  0
   44.1220   36.1600   43.0730 C   0  0  0  0  0  0  0  0  0  0  0  0
   44.9770   35.1940   43.5760 C   0  0  0  0  0  0  0  0  0  0  0  0
   44.7560   33.8680   43.2200 C   0  0  0  0  0  0  0  0  0  0  0  0
   43.7040   33.4940   42.3750 C   0  0  0  0  0  0  0  0  0  0  0  0
   42.8760   34.4610   41.8910 C   0  0  0  0  0  0  0  0  0  0  0  0
   37.2902   28.1212   42.1895 H   0  0  0  0  0  0  0  0  0  0  0  0
   35.2134   31.3343   40.3927 H   0  0  0  0  0  0  0  0  0  0  0  0
   39.7796   27.6074   39.7400 H   0  0  0  0  0  0  0  0  0  0  0  0
   41.9928   28.5643   43.9273 H   0  0  0  0  0  0  0  0  0  0  0  0
   40.4594   36.1386   40.3108 H   0  0  0  0  0  0  0  0  0  0  0  0
   42.0757   37.5932   41.7404 H   0  0  0  0  0  0  0  0  0  0  0  0
   44.2692   37.2177   43.3369 H   0  0  0  0  0  0  0  0  0  0  0  0
   45.8098   35.4684   44.2402 H   0  0  0  0  0  0  0  0  0  0  0  0
   45.4271   33.0904   43.6136 H   0  0  0  0  0  0  0  0  0  0  0  0
   43.5491   32.4385   42.1070 H   0  0  0  0  0  0  0  0  0  0  0  0
  2  7  1  0
  2  1  2  0
  3  2  1  0
  4  3  2  0
  4  5  1  0
  5  6  2  0
  6  1  1  0
  7 11  1  0
  8  9  1  0
  8  7  2  0
  9 10  1  0
 11 10  2  0
 12  3  1  0
 12 16  1  0
 13 14  1  0
 13 12  2  0
 14 15  1  0
 15 16  2  0
 15 17  1  0
 17 25  1  0
 18 17  2  0
 18 19  1  0
 19 20  1  0
 20 21  2  0
 21 22  1  0
 23 22  2  0
 24 23  1  0
 25 20  1  0
 25 24  2  0
  1 26  1  0
  5 27  1  0
  8 28  1  0
 10 29  1  0
 18 30  1  0
 19 31  1  0
 21 32  1  0
 22 33  1  0
 23 34  1  0
 24 35  1  0
M  ISO  8  26  14  27  14  28  14  29  14  30  14  31   9  32  14  33  14
M  ISO  2  34  14  35  14
M  END
>  <minimizedAffinity>  (1) 
-5.62269878

>  <minimizedRMSD>  (1) 
3.4385221

$$$$
