
     RDKit          3D

 32 36  0  0  0  0  0  0  0  0999 V2000
   37.0550   29.6970   41.5140 C   0  0  0  0  0  0  0  0  0  0  0  0
   38.4720   29.8710   41.3560 C   0  0  0  0  0  0  0  0  0  0  0  0
   38.9580   31.0090   40.7860 C   0  0  0  0  0  0  0  0  0  0  0  0
   38.0390   31.9540   40.3800 N   0  0  0  0  0  0  0  0  0  0  0  0
   36.6970   31.7700   40.5370 C   0  0  0  0  0  0  0  0  0  0  0  0
   36.2030   30.6470   41.1020 N   0  0  0  0  0  0  0  0  0  0  0  0
   40.3600   31.3460   40.5970 C   0  0  0  0  0  0  0  0  0  0  0  0
   41.4320   30.9770   39.9340 N   0  0  0  0  0  0  0  0  0  0  0  0
   42.4550   31.7000   40.2220 O   0  0  0  0  0  0  0  0  0  0  0  0
   42.1550   32.5970   41.0900 C   0  0  0  0  0  0  0  0  0  0  0  0
   40.8750   32.3730   41.3090 N   0  0  0  0  0  0  0  0  0  0  0  0
   42.9100   33.6400   41.7400 N   0  0  0  0  0  0  0  0  0  0  0  0
   42.8150   34.9440   41.4230 C   0  0  0  0  0  0  0  0  0  0  0  0
   43.6470   35.6130   42.2170 N   0  0  0  0  0  0  0  0  0  0  0  0
   44.2610   34.7310   43.0290 C   0  0  0  0  0  0  0  0  0  0  0  0
   45.2130   34.8020   44.0520 C   0  0  0  0  0  0  0  0  0  0  0  0
   45.6090   33.6720   44.6660 N   0  0  0  0  0  0  0  0  0  0  0  0
   45.1490   32.4580   44.3640 C   0  0  0  0  0  0  0  0  0  0  0  0
   44.2190   32.3300   43.3750 N   0  0  0  0  0  0  0  0  0  0  0  0
   43.7960   33.4470   42.7350 C   0  0  0  0  0  0  0  0  0  0  0  0
   39.2990   28.7590   41.8090 C   0  0  0  0  0  0  0  0  0  0  0  0
   39.4500   27.6290   40.9380 C   0  0  0  0  0  0  0  0  0  0  0  0
   40.5450   26.4760   41.8820 S   0  0  0  0  0  0  0  0  0  0  0  0
   40.5950   27.7800   43.3150 C   0  0  0  0  0  0  0  0  0  0  0  0
   39.9560   28.6320   42.9500 N   0  0  0  0  0  0  0  0  0  0  0  0
   36.6659   28.7778   41.9763 H   0  0  0  0  0  0  0  0  0  0  0  0
   36.0025   32.5522   40.1965 H   0  0  0  0  0  0  0  0  0  0  0  0
   42.1668   35.3785   40.6477 H   0  0  0  0  0  0  0  0  0  0  0  0
   45.6340   35.7731   44.3517 H   0  0  0  0  0  0  0  0  0  0  0  0
   45.5142   31.5724   44.9046 H   0  0  0  0  0  0  0  0  0  0  0  0
   39.0146   27.4822   39.9386 H   0  0  0  0  0  0  0  0  0  0  0  0
   41.1297   27.7043   44.2733 H   0  0  0  0  0  0  0  0  0  0  0  0
  2  1  2  0
  2 21  1  0
  3  2  1  0
  4  5  1  0
  4  3  2  0
  5  6  2  0
  6  1  1  0
  7  3  1  0
  7 11  1  0
  8  9  1  0
  8  7  2  0
  9 10  1  0
 10 11  2  0
 10 12  1  0
 12 20  1  0
 13 12  1  0
 13 14  2  0
 14 15  1  0
 15 16  2  0
 16 17  1  0
 18 17  2  0
 19 18  1  0
 20 15  1  0
 20 19  2  0
 21 25  1  0
 22 21  2  0
 22 23  1  0
 23 24  1  0
 25 24  2  0
  1 26  1  0
  5 27  1  0
 13 28  1  0
 16 29  1  0
 18 30  1  0
 22 31  1  0
 24 32  1  0
M  ISO  7  26  14  27  14  28  14  29  14  30  14  31  14  32  14
M  END
>  <minimizedAffinity>  (1) 
-5.39400053

>  <minimizedRMSD>  (1) 
3.14201021

$$$$
