
     RDKit          3D

 37 40  0  0  0  0  0  0  0  0999 V2000
   36.9270   29.7110   41.5910 C   0  0  0  0  0  0  0  0  0  0  0  0
   38.3530   29.6950   41.4090 C   0  0  0  0  0  0  0  0  0  0  0  0
   38.9680   30.7380   40.7770 C   0  0  0  0  0  0  0  0  0  0  0  0
   38.1630   31.7700   40.3360 N   0  0  0  0  0  0  0  0  0  0  0  0
   36.8120   31.7650   40.5180 C   0  0  0  0  0  0  0  0  0  0  0  0
   36.1860   30.7340   41.1470 N   0  0  0  0  0  0  0  0  0  0  0  0
   39.0340   28.5190   41.9050 C   0  0  0  0  0  0  0  0  0  0  0  0
   39.0510   27.3360   41.0870 C   0  0  0  0  0  0  0  0  0  0  0  0
   40.0040   26.1110   42.0900 S   0  0  0  0  0  0  0  0  0  0  0  0
   40.2090   27.4600   43.4660 C   0  0  0  0  0  0  0  0  0  0  0  0
   39.6750   28.3440   43.0440 N   0  0  0  0  0  0  0  0  0  0  0  0
   40.3960   30.8820   40.5530 C   0  0  0  0  0  0  0  0  0  0  0  0
   41.4480   30.2210   40.1280 N   0  0  0  0  0  0  0  0  0  0  0  0
   42.5200   30.9260   40.1720 O   0  0  0  0  0  0  0  0  0  0  0  0
   42.2730   32.1080   40.6300 C   0  0  0  0  0  0  0  0  0  0  0  0
   40.9720   32.0650   40.8570 N   0  0  0  0  0  0  0  0  0  0  0  0
   43.2060   33.2320   40.8470 C   0  0  0  0  0  0  0  0  0  0  0  0
   42.7680   34.5350   40.2710 C   0  0  0  0  0  0  0  0  0  0  0  0
   42.1730   35.3800   41.3770 C   0  0  0  0  0  0  0  0  0  0  0  0
   43.2550   35.7570   42.3430 C   0  0  0  0  0  0  0  0  0  0  0  0
   44.1400   34.6030   42.7160 C   0  0  0  0  0  0  0  0  0  0  0  0
   43.4220   33.3210   42.3440 C   0  0  0  0  0  0  0  0  0  0  0  0
   36.4371   28.8697   42.1030 H   0  0  0  0  0  0  0  0  0  0  0  0
   36.2157   32.6123   40.1485 H   0  0  0  0  0  0  0  0  0  0  0  0
   38.6006   27.1934   40.0936 H   0  0  0  0  0  0  0  0  0  0  0  0
   40.7278   27.3746   44.4322 H   0  0  0  0  0  0  0  0  0  0  0  0
   44.1406   33.0269   40.3044 H   0  0  0  0  0  0  0  0  0  0  0  0
   43.6325   35.0549   39.8324 H   0  0  0  0  0  0  0  0  0  0  0  0
   42.0172   34.3637   39.4855 H   0  0  0  0  0  0  0  0  0  0  0  0
   41.7297   36.2903   40.9470 H   0  0  0  0  0  0  0  0  0  0  0  0
   41.3920   34.8087   41.9002 H   0  0  0  0  0  0  0  0  0  0  0  0
   43.8761   36.5406   41.8846 H   0  0  0  0  0  0  0  0  0  0  0  0
   42.7653   36.1058   43.2641 H   0  0  0  0  0  0  0  0  0  0  0  0
   45.0914   34.6702   42.1681 H   0  0  0  0  0  0  0  0  0  0  0  0
   44.3555   34.6205   43.7945 H   0  0  0  0  0  0  0  0  0  0  0  0
   42.4456   33.2961   42.8500 H   0  0  0  0  0  0  0  0  0  0  0  0
   44.0423   32.4689   42.6590 H   0  0  0  0  0  0  0  0  0  0  0  0
  2  1  2  0
  2  7  1  0
  3  2  1  0
  4  5  1  0
  4  3  2  0
  5  6  2  0
  6  1  1  0
  7 11  1  0
  8  7  2  0
  8  9  1  0
  9 10  1  0
 11 10  2  0
 12  3  1  0
 12 16  1  0
 13 14  1  0
 13 12  2  0
 14 15  1  0
 15 17  1  0
 15 16  2  0
 17 22  1  0
 18 17  1  0
 18 19  1  0
 19 20  1  0
 20 21  1  0
 22 21  1  0
  1 23  1  0
  5 24  1  0
  8 25  1  0
 10 26  1  0
 17 27  1  0
 18 28  1  0
 18 29  1  0
 19 30  1  0
 19 31  1  0
 20 32  1  0
 20 33  1  0
 21 34  1  0
 21 35  1  0
 22 36  1  0
 22 37  1  0
M  ISO  8  23  14  24  14  25  14  26  14  27  13  28  13  29  13  30  13
M  ISO  7  31  13  32  13  33  13  34  13  35  13  36  13  37  13
M  END
>  <minimizedAffinity>  (1) 
-4.64378214

>  <minimizedRMSD>  (1) 
2.47692204

$$$$
