
     RDKit          3D

 28 31  0  0  0  0  0  0  0  0999 V2000
   36.7890   29.2710   41.4600 C   0  0  0  0  0  0  0  0  0  0  0  0
   38.2020   29.4780   41.3960 C   0  0  0  0  0  0  0  0  0  0  0  0
   38.7100   30.6320   40.8720 C   0  0  0  0  0  0  0  0  0  0  0  0
   37.8010   31.5640   40.4170 N   0  0  0  0  0  0  0  0  0  0  0  0
   36.4500   31.3470   40.4860 C   0  0  0  0  0  0  0  0  0  0  0  0
   35.9450   30.2100   41.0030 N   0  0  0  0  0  0  0  0  0  0  0  0
   39.0200   28.3800   41.8850 C   0  0  0  0  0  0  0  0  0  0  0  0
   39.3460   27.3070   40.9800 C   0  0  0  0  0  0  0  0  0  0  0  0
   40.3700   26.1520   41.9960 S   0  0  0  0  0  0  0  0  0  0  0  0
   40.1650   27.3610   43.4950 C   0  0  0  0  0  0  0  0  0  0  0  0
   39.5380   28.1890   43.0820 N   0  0  0  0  0  0  0  0  0  0  0  0
   40.1150   30.9940   40.7770 C   0  0  0  0  0  0  0  0  0  0  0  0
   41.2810   30.5230   40.3900 N   0  0  0  0  0  0  0  0  0  0  0  0
   42.2280   31.3690   40.5770 O   0  0  0  0  0  0  0  0  0  0  0  0
   41.7800   32.4580   41.0960 C   0  0  0  0  0  0  0  0  0  0  0  0
   40.4830   32.2190   41.2150 N   0  0  0  0  0  0  0  0  0  0  0  0
   42.4950   33.6740   41.4730 C   0  0  0  0  0  0  0  0  0  0  0  0
   43.6120   33.7510   42.2860 C   0  0  0  0  0  0  0  0  0  0  0  0
   43.9170   35.0970   42.3450 C   0  0  0  0  0  0  0  0  0  0  0  0
   43.0220   35.8100   41.6010 N   0  0  0  0  0  0  0  0  0  0  0  0
   42.1630   34.9220   41.0780 N   0  0  0  0  0  0  0  0  0  0  0  0
   36.3912   28.3380   41.8857 H   0  0  0  0  0  0  0  0  0  0  0  0
   35.7619   32.1188   40.1107 H   0  0  0  0  0  0  0  0  0  0  0  0
   39.0524   27.1999   39.9253 H   0  0  0  0  0  0  0  0  0  0  0  0
   40.5700   27.2573   44.5125 H   0  0  0  0  0  0  0  0  0  0  0  0
   44.1414   32.9217   42.7778 H   0  0  0  0  0  0  0  0  0  0  0  0
   44.7568   35.5301   42.9082 H   0  0  0  0  0  0  0  0  0  0  0  0
   43.0087   36.8312   41.4671 H   0  0  0  0  0  0  0  0  0  0  0  0
  2  1  2  0
  2  7  1  0
  3  2  1  0
  4  5  1  0
  4  3  2  0
  5  6  2  0
  6  1  1  0
  7 11  1  0
  8  7  2  0
  8  9  1  0
  9 10  1  0
 11 10  2  0
 12  3  1  0
 12 16  1  0
 13 14  1  0
 13 12  2  0
 14 15  1  0
 15 16  2  0
 15 17  1  0
 17 18  1  0
 18 19  2  0
 20 19  1  0
 21 17  2  0
 21 20  1  0
  1 22  1  0
  5 23  1  0
  8 24  1  0
 10 25  1  0
 18 26  1  0
 19 27  1  0
 20 28  1  0
M  ISO  7  22  14  23  14  24  14  25  14  26  14  27  14  28   9
M  END
>  <minimizedAffinity>  (1) 
-4.62377548

>  <minimizedRMSD>  (1) 
2.71528554

$$$$
