
     RDKit          3D

 32 34  0  0  1  0  0  0  0  0999 V2000
   39.6960   29.4980   42.7270 N   0  0  0  0  0  0  0  0  0  0  0  0
   39.8870   30.9150   42.7450 C   0  0  0  0  0  0  0  0  0  0  0  0
   40.9720   31.1550   41.7150 C   0  0  0  0  0  0  0  0  0  0  0  0
   42.1910   30.6410   42.2170 N   0  0  0  0  0  0  0  0  0  0  0  0
   42.1470   29.3540   42.7540 C   0  0  0  0  0  0  0  0  0  0  0  0
   40.8420   28.6140   42.8210 C   0  0  2  0  0  0  0  0  0  0  0  0
   38.4170   28.8650   42.6240 C   0  0  0  0  0  0  0  0  0  0  0  0
   37.9190   28.0090   43.6360 C   0  0  0  0  0  0  0  0  0  0  0  0
   36.6700   27.4380   43.4540 C   0  0  0  0  0  0  0  0  0  0  0  0
   35.9990   27.7350   42.3150 N   0  0  0  0  0  0  0  0  0  0  0  0
   36.4930   28.5530   41.3630 C   0  0  0  0  0  0  0  0  0  0  0  0
   37.6960   29.1130   41.5230 N   0  0  0  0  0  0  0  0  0  0  0  0
   40.7800   27.5360   41.8080 C   0  0  0  0  0  0  0  0  0  0  0  0
   40.7600   26.3640   42.2840 O   0  0  0  0  0  0  0  0  0  0  0  0
   40.7460   27.5960   40.3540 C   0  0  0  0  0  0  0  0  0  0  0  0
   39.7640   26.5930   39.8510 C   0  0  0  0  0  0  0  0  0  0  0  0
   39.9250   26.8810   38.0020 S   0  0  0  0  0  0  0  0  0  0  0  0
   41.2180   28.2280   38.2380 C   0  0  0  0  0  0  0  0  0  0  0  0
   41.3420   28.2830   39.4080 N   0  0  0  0  0  0  0  0  0  0  0  0
   38.9604   31.4375   42.4650 H   0  0  0  0  0  0  0  0  0  0  0  0
   40.1605   31.2914   43.7417 H   0  0  0  0  0  0  0  0  0  0  0  0
   41.0736   32.2342   41.5281 H   0  0  0  0  0  0  0  0  0  0  0  0
   40.7124   30.6534   40.7711 H   0  0  0  0  0  0  0  0  0  0  0  0
   42.8708   30.6347   41.4432 H   0  0  0  0  0  0  0  0  0  0  0  0
   42.8323   28.7362   42.1552 H   0  0  0  0  0  0  0  0  0  0  0  0
   42.4035   29.5119   43.8120 H   0  0  0  0  0  0  0  0  0  0  0  0
   40.7957   28.1453   43.8151 H   0  0  0  0  0  0  0  0  0  0  0  0
   38.5078   27.8030   44.5420 H   0  0  0  0  0  0  0  0  0  0  0  0
   36.2372   26.7656   44.2094 H   0  0  0  0  0  0  0  0  0  0  0  0
   35.9062   28.7590   40.4557 H   0  0  0  0  0  0  0  0  0  0  0  0
   39.1276   25.8867   40.4043 H   0  0  0  0  0  0  0  0  0  0  0  0
   41.7338   28.8212   37.4685 H   0  0  0  0  0  0  0  0  0  0  0  0
  1  2  1  0
  1  6  1  0
  3  4  1  0
  3  2  1  0
  4  5  1  0
  5  6  1  0
  7  1  1  0
  7  8  2  0
  9  8  1  0
 10  9  2  0
 11 12  2  0
 11 10  1  0
 12  7  1  0
 13 14  2  0
 13  6  1  0
 15 13  1  0
 16 15  2  0
 17 18  1  0
 17 16  1  0
 18 19  2  0
 19 15  1  0
  2 20  1  0
  2 21  1  0
  3 22  1  0
  3 23  1  0
  4 24  1  0
  5 25  1  0
  5 26  1  0
  6 27  1  1
  8 28  1  0
  9 29  1  0
 11 30  1  0
 16 31  1  0
 18 32  1  0
M  ISO  8  20  13  21  13  22  13  23  13  24   5  25  13  26  13  27  13
M  ISO  5  28  14  29  14  30  14  31  14  32  14
M  END
>  <minimizedAffinity>  (1) 
-3.32291532

>  <minimizedRMSD>  (1) 
0.133912176

$$$$
