
     RDKit          3D

 28 31  0  0  0  0  0  0  0  0999 V2000
   37.0270   29.8420   41.4040 C   0  0  0  0  0  0  0  0  0  0  0  0
   38.4490   29.9870   41.2820 C   0  0  0  0  0  0  0  0  0  0  0  0
   38.9750   31.1260   40.7460 C   0  0  0  0  0  0  0  0  0  0  0  0
   38.0810   32.0960   40.3360 N   0  0  0  0  0  0  0  0  0  0  0  0
   36.7330   31.9420   40.4570 C   0  0  0  0  0  0  0  0  0  0  0  0
   36.2040   30.8220   40.9890 N   0  0  0  0  0  0  0  0  0  0  0  0
   39.2330   28.8560   41.7230 C   0  0  0  0  0  0  0  0  0  0  0  0
   39.4680   27.7730   40.8060 C   0  0  0  0  0  0  0  0  0  0  0  0
   40.4810   26.5680   41.7760 S   0  0  0  0  0  0  0  0  0  0  0  0
   40.4010   27.7760   43.2790 C   0  0  0  0  0  0  0  0  0  0  0  0
   39.7970   28.6280   42.8910 N   0  0  0  0  0  0  0  0  0  0  0  0
   40.3910   31.4350   40.6030 C   0  0  0  0  0  0  0  0  0  0  0  0
   41.4710   31.0490   39.9660 N   0  0  0  0  0  0  0  0  0  0  0  0
   42.4960   31.7540   40.2730 O   0  0  0  0  0  0  0  0  0  0  0  0
   42.1880   32.6480   41.1220 C   0  0  0  0  0  0  0  0  0  0  0  0
   40.8980   32.4540   41.3250 N   0  0  0  0  0  0  0  0  0  0  0  0
   42.9770   33.6700   41.7650 C   0  0  0  0  0  0  0  0  0  0  0  0
   42.9160   35.0740   41.7580 C   0  0  0  0  0  0  0  0  0  0  0  0
   43.8300   35.7670   42.4880 C   0  0  0  0  0  0  0  0  0  0  0  0
   44.8530   35.1160   43.2620 C   0  0  0  0  0  0  0  0  0  0  0  0
   44.4390   33.2750   42.8880 S   0  0  0  0  0  0  0  0  0  0  0  0
   36.6068   28.9235   41.8397 H   0  0  0  0  0  0  0  0  0  0  0  0
   36.0644   32.7456   40.1146 H   0  0  0  0  0  0  0  0  0  0  0  0
   39.1237   27.6823   39.7652 H   0  0  0  0  0  0  0  0  0  0  0  0
   40.8448   27.6530   44.2780 H   0  0  0  0  0  0  0  0  0  0  0  0
   42.1460   35.6005   41.1750 H   0  0  0  0  0  0  0  0  0  0  0  0
   43.7856   36.8661   42.4867 H   0  0  0  0  0  0  0  0  0  0  0  0
   45.6465   35.5481   43.8894 H   0  0  0  0  0  0  0  0  0  0  0  0
  2  1  2  0
  2  7  1  0
  3  2  1  0
  4  5  1  0
  4  3  2  0
  5  6  2  0
  6  1  1  0
  7 11  1  0
  8  7  2  0
  8  9  1  0
  9 10  1  0
 11 10  2  0
 12  3  1  0
 12 16  1  0
 13 14  1  0
 13 12  2  0
 14 15  1  0
 15 16  2  0
 15 17  1  0
 17 21  1  0
 18 17  2  0
 18 19  1  0
 19 20  2  0
 21 20  1  0
  1 22  1  0
  5 23  1  0
  8 24  1  0
 10 25  1  0
 18 26  1  0
 19 27  1  0
 20 28  1  0
M  ISO  7  22  14  23  14  24  14  25  14  26  14  27  14  28  14
M  END
>  <minimizedAffinity>  (1) 
-4.42528629

>  <minimizedRMSD>  (1) 
2.77204752

$$$$
