
     RDKit          3D

 28 31  0  0  0  0  0  0  0  0999 V2000
   37.0280   29.5030   41.5700 C   0  0  0  0  0  0  0  0  0  0  0  0
   38.4340   29.7060   41.4120 C   0  0  0  0  0  0  0  0  0  0  0  0
   38.9060   30.8560   40.8470 C   0  0  0  0  0  0  0  0  0  0  0  0
   37.9650   31.7830   40.4450 N   0  0  0  0  0  0  0  0  0  0  0  0
   36.6240   31.5750   40.6020 C   0  0  0  0  0  0  0  0  0  0  0  0
   36.1610   30.4310   41.1660 N   0  0  0  0  0  0  0  0  0  0  0  0
   39.2820   28.6040   41.8480 C   0  0  0  0  0  0  0  0  0  0  0  0
   39.4230   27.4620   40.9860 C   0  0  0  0  0  0  0  0  0  0  0  0
   40.5600   26.3340   41.9220 S   0  0  0  0  0  0  0  0  0  0  0  0
   40.6280   27.6560   43.3340 C   0  0  0  0  0  0  0  0  0  0  0  0
   39.9710   28.4850   42.9660 N   0  0  0  0  0  0  0  0  0  0  0  0
   40.3020   31.2190   40.6630 C   0  0  0  0  0  0  0  0  0  0  0  0
   41.3840   30.8620   40.0120 N   0  0  0  0  0  0  0  0  0  0  0  0
   42.3860   31.6150   40.2910 O   0  0  0  0  0  0  0  0  0  0  0  0
   42.0610   32.5240   41.1400 C   0  0  0  0  0  0  0  0  0  0  0  0
   40.7800   32.2730   41.3620 N   0  0  0  0  0  0  0  0  0  0  0  0
   42.8730   33.5830   41.7320 C   0  0  0  0  0  0  0  0  0  0  0  0
   42.7590   34.9330   41.4800 C   0  0  0  0  0  0  0  0  0  0  0  0
   43.7310   35.5680   42.2620 C   0  0  0  0  0  0  0  0  0  0  0  0
   44.3730   34.5500   42.9390 C   0  0  0  0  0  0  0  0  0  0  0  0
   43.8430   33.3930   42.6040 O   0  0  0  0  0  0  0  0  0  0  0  0
   36.6588   28.5738   42.0285 H   0  0  0  0  0  0  0  0  0  0  0  0
   35.9116   32.3435   40.2675 H   0  0  0  0  0  0  0  0  0  0  0  0
   38.9635   27.2958   40.0005 H   0  0  0  0  0  0  0  0  0  0  0  0
   41.1847   27.6048   44.2814 H   0  0  0  0  0  0  0  0  0  0  0  0
   42.0443   35.4168   40.7980 H   0  0  0  0  0  0  0  0  0  0  0  0
   43.9388   36.6464   42.3239 H   0  0  0  0  0  0  0  0  0  0  0  0
   45.2013   34.6855   43.6500 H   0  0  0  0  0  0  0  0  0  0  0  0
  2  1  2  0
  2  7  1  0
  3  2  1  0
  4  5  1  0
  4  3  2  0
  5  6  2  0
  6  1  1  0
  7 11  1  0
  8  7  2  0
  8  9  1  0
  9 10  1  0
 11 10  2  0
 12  3  1  0
 12 16  1  0
 13 14  1  0
 13 12  2  0
 14 15  1  0
 15 16  2  0
 15 17  1  0
 17 21  1  0
 18 17  2  0
 18 19  1  0
 19 20  2  0
 21 20  1  0
  1 22  1  0
  5 23  1  0
  8 24  1  0
 10 25  1  0
 18 26  1  0
 19 27  1  0
 20 28  1  0
M  ISO  7  22  14  23  14  24  14  25  14  26  14  27  14  28  14
M  END
>  <minimizedAffinity>  (1) 
-4.39863586

>  <minimizedRMSD>  (1) 
2.68972254

$$$$
