
     RDKit          3D

 29 32  0  0  0  0  0  0  0  0999 V2000
   37.1020   30.0240   41.4300 C   0  0  0  0  0  0  0  0  0  0  0  0
   38.5260   30.0770   41.2370 C   0  0  0  0  0  0  0  0  0  0  0  0
   39.0910   31.1490   40.6060 C   0  0  0  0  0  0  0  0  0  0  0  0
   38.2340   32.1430   40.1740 N   0  0  0  0  0  0  0  0  0  0  0  0
   36.8860   32.0720   40.3660 C   0  0  0  0  0  0  0  0  0  0  0  0
   36.3210   31.0220   40.9890 N   0  0  0  0  0  0  0  0  0  0  0  0
   39.2670   28.9300   41.7230 C   0  0  0  0  0  0  0  0  0  0  0  0
   39.3220   27.7530   40.9040 C   0  0  0  0  0  0  0  0  0  0  0  0
   40.3430   26.5690   41.8940 S   0  0  0  0  0  0  0  0  0  0  0  0
   40.5110   27.9150   43.2630 C   0  0  0  0  0  0  0  0  0  0  0  0
   39.9330   28.7780   42.8520 N   0  0  0  0  0  0  0  0  0  0  0  0
   40.5050   31.3590   40.3770 C   0  0  0  0  0  0  0  0  0  0  0  0
   41.5490   30.8400   39.7720 N   0  0  0  0  0  0  0  0  0  0  0  0
   42.6120   31.5250   39.9460 O   0  0  0  0  0  0  0  0  0  0  0  0
   42.3790   32.5670   40.6820 C   0  0  0  0  0  0  0  0  0  0  0  0
   41.0890   32.4440   40.9310 N   0  0  0  0  0  0  0  0  0  0  0  0
   43.2560   33.6330   41.1500 C   0  0  0  0  0  0  0  0  0  0  0  0
   42.8510   34.6940   41.9360 C   0  0  0  0  0  0  0  0  0  0  0  0
   43.8360   35.6220   42.2880 C   0  0  0  0  0  0  0  0  0  0  0  0
   45.1080   35.4730   41.8730 N   0  0  0  0  0  0  0  0  0  0  0  0
   45.4900   34.4360   41.1090 C   0  0  0  0  0  0  0  0  0  0  0  0
   44.5410   33.5370   40.7660 N   0  0  0  0  0  0  0  0  0  0  0  0
   36.6508   29.1611   41.9417 H   0  0  0  0  0  0  0  0  0  0  0  0
   36.2468   32.8907   40.0038 H   0  0  0  0  0  0  0  0  0  0  0  0
   38.8637   27.5920   39.9170 H   0  0  0  0  0  0  0  0  0  0  0  0
   41.0480   27.8491   44.2207 H   0  0  0  0  0  0  0  0  0  0  0  0
   41.8079   34.8033   42.2678 H   0  0  0  0  0  0  0  0  0  0  0  0
   43.5676   36.4864   42.9131 H   0  0  0  0  0  0  0  0  0  0  0  0
   46.5324   34.3233   40.7763 H   0  0  0  0  0  0  0  0  0  0  0  0
  2  1  2  0
  2  7  1  0
  3  2  1  0
  4  5  1  0
  4  3  2  0
  5  6  2  0
  6  1  1  0
  7 11  1  0
  8  7  2  0
  8  9  1  0
  9 10  1  0
 11 10  2  0
 12  3  1  0
 12 16  1  0
 13 14  1  0
 13 12  2  0
 14 15  1  0
 15 16  2  0
 15 17  1  0
 17 18  2  0
 18 19  1  0
 20 19  2  0
 21 20  1  0
 22 21  2  0
 22 17  1  0
  1 23  1  0
  5 24  1  0
  8 25  1  0
 10 26  1  0
 18 27  1  0
 19 28  1  0
 21 29  1  0
M  ISO  7  23  14  24  14  25  14  26  14  27  14  28  14  29  14
M  END
>  <minimizedAffinity>  (1) 
-4.38493204

>  <minimizedRMSD>  (1) 
2.68032646

$$$$
