
     RDKit          3D

 33 35  0  0  0  0  0  0  0  0999 V2000
   36.9290   29.4280   41.5620 C   0  0  0  0  0  0  0  0  0  0  0  0
   38.3460   29.6360   41.4060 C   0  0  0  0  0  0  0  0  0  0  0  0
   38.8000   30.7910   40.8390 C   0  0  0  0  0  0  0  0  0  0  0  0
   37.8510   31.7120   40.4380 N   0  0  0  0  0  0  0  0  0  0  0  0
   36.5150   31.4960   40.5950 C   0  0  0  0  0  0  0  0  0  0  0  0
   36.0540   30.3600   41.1550 N   0  0  0  0  0  0  0  0  0  0  0  0
   39.1950   28.5590   41.8560 C   0  0  0  0  0  0  0  0  0  0  0  0
   39.4480   27.4720   40.9430 C   0  0  0  0  0  0  0  0  0  0  0  0
   40.5480   26.3270   41.8890 S   0  0  0  0  0  0  0  0  0  0  0  0
   40.4630   27.5620   43.3820 C   0  0  0  0  0  0  0  0  0  0  0  0
   39.8050   28.3860   43.0090 N   0  0  0  0  0  0  0  0  0  0  0  0
   40.1880   31.1630   40.6480 C   0  0  0  0  0  0  0  0  0  0  0  0
   41.4020   30.6700   40.5890 N   0  0  0  0  0  0  0  0  0  0  0  0
   42.2860   31.5760   40.3880 O   0  0  0  0  0  0  0  0  0  0  0  0
   41.7530   32.7410   40.2950 C   0  0  0  0  0  0  0  0  0  0  0  0
   40.4780   32.4670   40.4560 N   0  0  0  0  0  0  0  0  0  0  0  0
   42.3430   34.0870   40.0670 C   0  0  0  0  0  0  0  0  0  0  0  0
   42.8260   34.7330   41.3580 C   0  0  0  0  0  0  0  0  0  0  0  0
   43.5650   33.9840   39.1810 C   0  0  0  0  0  0  0  0  0  0  0  0
   41.3760   35.0490   39.4260 C   0  0  0  0  0  0  0  0  0  0  0  0
   36.5614   28.4972   42.0186 H   0  0  0  0  0  0  0  0  0  0  0  0
   35.8004   32.2618   40.2590 H   0  0  0  0  0  0  0  0  0  0  0  0
   39.0717   27.3516   39.9164 H   0  0  0  0  0  0  0  0  0  0  0  0
   40.9482   27.4730   44.3652 H   0  0  0  0  0  0  0  0  0  0  0  0
   42.4157   34.1842   42.2185 H   0  0  0  0  0  0  0  0  0  0  0  0
   43.9250   34.7030   41.3942 H   0  0  0  0  0  0  0  0  0  0  0  0
   42.4864   35.7786   41.3942 H   0  0  0  0  0  0  0  0  0  0  0  0
   44.4664   33.9080   39.8069 H   0  0  0  0  0  0  0  0  0  0  0  0
   43.4831   33.0896   38.5459 H   0  0  0  0  0  0  0  0  0  0  0  0
   43.6340   34.8795   38.5459 H   0  0  0  0  0  0  0  0  0  0  0  0
   40.8280   35.5941   40.2087 H   0  0  0  0  0  0  0  0  0  0  0  0
   41.9305   35.7642   38.8007 H   0  0  0  0  0  0  0  0  0  0  0  0
   40.6637   34.4908   38.8007 H   0  0  0  0  0  0  0  0  0  0  0  0
  2  1  2  0
  2  7  1  0
  3  2  1  0
  4  5  1  0
  4  3  2  0
  5  6  2  0
  6  1  1  0
  7 11  1  0
  8  7  2  0
  8  9  1  0
  9 10  1  0
 11 10  2  0
 12  3  1  0
 13 12  2  0
 14 13  1  0
 15 14  1  0
 15 16  2  0
 16 12  1  0
 17 15  1  0
 17 18  1  0
 19 17  1  0
 20 17  1  0
  1 21  1  0
  5 22  1  0
  8 23  1  0
 10 24  1  0
 18 25  1  0
 18 26  1  0
 18 27  1  0
 19 28  1  0
 19 29  1  0
 19 30  1  0
 20 31  1  0
 20 32  1  0
 20 33  1  0
M  ISO  8  21  14  22  14  23  14  24  14  25   8  26   8  27   8  28   8
M  ISO  5  29   8  30   8  31   8  32   8  33   8
M  END
>  <minimizedAffinity>  (1) 
-4.15692949

>  <minimizedRMSD>  (1) 
2.49269009

$$$$
