
     RDKit          3D

 33 35  0  0  1  0  0  0  0  0999 V2000
   39.7060   29.4890   42.7300 N   0  0  0  0  0  0  0  0  0  0  0  0
   39.9010   30.9030   42.6680 C   0  0  0  0  0  0  0  0  0  0  0  0
   41.0220   31.0800   41.6640 C   0  0  0  0  0  0  0  0  0  0  0  0
   42.2210   30.5950   42.2460 N   0  0  0  0  0  0  0  0  0  0  0  0
   42.1540   29.3380   42.8460 C   0  0  0  0  0  0  0  0  0  0  0  0
   40.8440   28.6100   42.9170 C   0  0  2  0  0  0  0  0  0  0  0  0
   38.4260   28.8540   42.6210 C   0  0  0  0  0  0  0  0  0  0  0  0
   37.9110   28.0270   43.6500 C   0  0  0  0  0  0  0  0  0  0  0  0
   36.6660   27.4520   43.4630 C   0  0  0  0  0  0  0  0  0  0  0  0
   36.0150   27.7150   42.3020 N   0  0  0  0  0  0  0  0  0  0  0  0
   36.5290   28.5060   41.3380 C   0  0  0  0  0  0  0  0  0  0  0  0
   37.7280   29.0660   41.5080 N   0  0  0  0  0  0  0  0  0  0  0  0
   40.8100   27.4760   41.9680 C   0  0  0  0  0  0  0  0  0  0  0  0
   40.8790   26.3300   42.4950 O   0  0  0  0  0  0  0  0  0  0  0  0
   41.0870   27.7440   38.3560 N   0  0  0  0  0  0  0  0  0  0  0  0
   41.3780   28.0560   39.5840 N   0  0  0  0  0  0  0  0  0  0  0  0
   40.7200   27.3730   40.5190 C   0  0  0  0  0  0  0  0  0  0  0  0
   39.9240   26.5370   39.7720 C   0  0  0  0  0  0  0  0  0  0  0  0
   40.1640   26.7800   38.4430 C   0  0  0  0  0  0  0  0  0  0  0  0
   38.9863   31.4083   42.3245 H   0  0  0  0  0  0  0  0  0  0  0  0
   40.1414   31.3386   43.6491 H   0  0  0  0  0  0  0  0  0  0  0  0
   41.1338   32.1456   41.4151 H   0  0  0  0  0  0  0  0  0  0  0  0
   40.7964   30.5245   40.7418 H   0  0  0  0  0  0  0  0  0  0  0  0
   42.9340   30.5506   41.5040 H   0  0  0  0  0  0  0  0  0  0  0  0
   42.8501   28.6866   42.2972 H   0  0  0  0  0  0  0  0  0  0  0  0
   42.3840   29.5485   43.9009 H   0  0  0  0  0  0  0  0  0  0  0  0
   40.7626   28.2052   43.9366 H   0  0  0  0  0  0  0  0  0  0  0  0
   38.4845   27.8471   44.5713 H   0  0  0  0  0  0  0  0  0  0  0  0
   36.2190   26.8031   44.2305 H   0  0  0  0  0  0  0  0  0  0  0  0
   35.9611   28.6890   40.4139 H   0  0  0  0  0  0  0  0  0  0  0  0
   41.4834   28.1527   37.4977 H   0  0  0  0  0  0  0  0  0  0  0  0
   39.2144   25.7979   40.1723 H   0  0  0  0  0  0  0  0  0  0  0  0
   39.6811   26.2704   37.5962 H   0  0  0  0  0  0  0  0  0  0  0  0
  1  6  1  0
  2  1  1  0
  3  4  1  0
  3  2  1  0
  4  5  1  0
  5  6  1  0
  7  1  1  0
  7  8  2  0
  9  8  1  0
 10  9  2  0
 11 12  2  0
 11 10  1  0
 12  7  1  0
 13 14  2  0
 13  6  1  0
 15 19  1  0
 15 16  1  0
 16 17  2  0
 17 13  1  0
 18 17  1  0
 19 18  2  0
  2 20  1  0
  2 21  1  0
  3 22  1  0
  3 23  1  0
  4 24  1  0
  5 25  1  0
  5 26  1  0
  6 27  1  1
  8 28  1  0
  9 29  1  0
 11 30  1  0
 15 31  1  0
 18 32  1  0
 19 33  1  0
M  ISO  8  20  13  21  13  22  13  23  13  24   5  25  13  26  13  27  13
M  ISO  6  28  14  29  14  30  14  31   9  32  14  33  14
M  END
>  <minimizedAffinity>  (1) 
-3.31671691

>  <minimizedRMSD>  (1) 
0.34700489

$$$$
