
     RDKit          3D

 26 29  0  0  0  0  0  0  0  0999 V2000
   36.9110   30.0370   41.5660 C   0  0  0  0  0  0  0  0  0  0  0  0
   38.2740   29.7720   41.2070 C   0  0  0  0  0  0  0  0  0  0  0  0
   38.9200   30.5760   40.3140 C   0  0  0  0  0  0  0  0  0  0  0  0
   38.2000   31.6310   39.7880 N   0  0  0  0  0  0  0  0  0  0  0  0
   36.8970   31.8660   40.1440 C   0  0  0  0  0  0  0  0  0  0  0  0
   36.2530   31.0710   41.0340 N   0  0  0  0  0  0  0  0  0  0  0  0
   38.8610   28.5870   41.8180 C   0  0  0  0  0  0  0  0  0  0  0  0
   38.5610   27.3000   41.2440 C   0  0  0  0  0  0  0  0  0  0  0  0
   39.4990   26.1160   42.3270 S   0  0  0  0  0  0  0  0  0  0  0  0
   40.1280   27.6240   43.3650 C   0  0  0  0  0  0  0  0  0  0  0  0
   39.6570   28.5030   42.8620 N   0  0  0  0  0  0  0  0  0  0  0  0
   40.2970   30.4520   39.8920 C   0  0  0  0  0  0  0  0  0  0  0  0
   41.2500   29.5710   39.6840 N   0  0  0  0  0  0  0  0  0  0  0  0
   42.3400   30.1190   39.2890 O   0  0  0  0  0  0  0  0  0  0  0  0
   42.2170   31.3940   39.2000 C   0  0  0  0  0  0  0  0  0  0  0  0
   40.9660   31.5800   39.5710 N   0  0  0  0  0  0  0  0  0  0  0  0
   43.1730   32.4100   38.8000 C   0  0  0  0  0  0  0  0  0  0  0  0
   43.4550   33.5560   39.4180 N   0  0  0  0  0  0  0  0  0  0  0  0
   44.3770   34.1850   38.7280 O   0  0  0  0  0  0  0  0  0  0  0  0
   44.7180   33.4890   37.6640 C   0  0  0  0  0  0  0  0  0  0  0  0
   43.9630   32.3820   37.7140 N   0  0  0  0  0  0  0  0  0  0  0  0
   36.4015   29.3815   42.2876 H   0  0  0  0  0  0  0  0  0  0  0  0
   36.3625   32.7177   39.6981 H   0  0  0  0  0  0  0  0  0  0  0  0
   37.9283   27.0726   40.3733 H   0  0  0  0  0  0  0  0  0  0  0  0
   40.7918   27.6169   44.2421 H   0  0  0  0  0  0  0  0  0  0  0  0
   45.4616   33.7575   36.8992 H   0  0  0  0  0  0  0  0  0  0  0  0
  2  1  2  0
  2  7  1  0
  3  2  1  0
  4  5  1  0
  4  3  2  0
  5  6  2  0
  6  1  1  0
  7 11  1  0
  8  7  2  0
  8  9  1  0
  9 10  1  0
 11 10  2  0
 12  3  1  0
 13 12  2  0
 14 13  1  0
 15 14  1  0
 15 16  2  0
 16 12  1  0
 17 15  1  0
 17 18  2  0
 19 18  1  0
 20 21  2  0
 20 19  1  0
 21 17  1  0
  1 22  1  0
  5 23  1  0
  8 24  1  0
 10 25  1  0
 20 26  1  0
M  ISO  5  22  14  23  14  24  14  25  14  26  14
M  END
>  <minimizedAffinity>  (1) 
-4.07060528

>  <minimizedRMSD>  (1) 
1.79760265

$$$$
