
     RDKit          3D

 24 26  0  0  0  0  0  0  0  0999 V2000
   36.8860   29.8780   41.8080 C   0  0  0  0  0  0  0  0  0  0  0  0
   38.1250   29.4020   41.2720 C   0  0  0  0  0  0  0  0  0  0  0  0
   38.6490   29.9560   40.1400 C   0  0  0  0  0  0  0  0  0  0  0  0
   37.9270   30.9770   39.5560 N   0  0  0  0  0  0  0  0  0  0  0  0
   36.7410   31.4190   40.0810 C   0  0  0  0  0  0  0  0  0  0  0  0
   36.2270   30.8700   41.2040 N   0  0  0  0  0  0  0  0  0  0  0  0
   38.7270   28.2790   41.9860 C   0  0  0  0  0  0  0  0  0  0  0  0
   38.2410   26.9570   41.7240 C   0  0  0  0  0  0  0  0  0  0  0  0
   39.2600   25.8770   42.8220 S   0  0  0  0  0  0  0  0  0  0  0  0
   40.1820   27.4630   43.4520 C   0  0  0  0  0  0  0  0  0  0  0  0
   39.6950   28.2920   42.8820 N   0  0  0  0  0  0  0  0  0  0  0  0
   39.9070   29.6040   39.5120 C   0  0  0  0  0  0  0  0  0  0  0  0
   40.6430   28.5720   39.1710 N   0  0  0  0  0  0  0  0  0  0  0  0
   41.7430   28.9250   38.6090 O   0  0  0  0  0  0  0  0  0  0  0  0
   41.8330   30.2050   38.5270 C   0  0  0  0  0  0  0  0  0  0  0  0
   40.7030   30.6080   39.0830 N   0  0  0  0  0  0  0  0  0  0  0  0
   42.8830   31.0330   37.9740 C   0  0  0  0  0  0  0  0  0  0  0  0
   43.8950   31.3420   38.6900 O   0  0  0  0  0  0  0  0  0  0  0  0
   42.8190   31.5020   36.6810 O   0  0  0  0  0  0  0  0  0  0  0  0
   36.4747   29.4244   42.7219 H   0  0  0  0  0  0  0  0  0  0  0  0
   36.1982   32.2342   39.5802 H   0  0  0  0  0  0  0  0  0  0  0  0
   37.4441   26.6547   41.0286 H   0  0  0  0  0  0  0  0  0  0  0  0
   40.9915   27.5305   44.1937 H   0  0  0  0  0  0  0  0  0  0  0  0
   43.5486   32.0672   36.3228 H   0  0  0  0  0  0  0  0  0  0  0  0
  2  1  2  0
  2  7  1  0
  3  2  1  0
  4  5  1  0
  4  3  2  0
  5  6  2  0
  6  1  1  0
  7 11  1  0
  8  7  2  0
  8  9  1  0
  9 10  1  0
 11 10  2  0
 12  3  1  0
 13 12  2  0
 14 13  1  0
 15 14  1  0
 15 16  2  0
 16 12  1  0
 17 15  1  0
 17 18  2  0
 19 17  1  0
  1 20  1  0
  5 21  1  0
  8 22  1  0
 10 23  1  0
 19 24  1  0
M  ISO  5  20  14  21  14  22  14  23  14  24   3
M  END
>  <minimizedAffinity>  (1) 
-3.63826942

>  <minimizedRMSD>  (1) 
1.16019356

$$$$
