
     RDKit          3D

 27 29  0  0  0  0  0  0  0  0999 V2000
   36.7040   29.8270   41.6800 C   0  0  0  0  0  0  0  0  0  0  0  0
   38.0520   29.4500   41.3430 C   0  0  0  0  0  0  0  0  0  0  0  0
   38.7730   30.1970   40.4560 C   0  0  0  0  0  0  0  0  0  0  0  0
   38.1430   31.3010   39.9180 N   0  0  0  0  0  0  0  0  0  0  0  0
   36.8600   31.6440   40.2470 C   0  0  0  0  0  0  0  0  0  0  0  0
   36.1470   30.9130   41.1220 N   0  0  0  0  0  0  0  0  0  0  0  0
   38.5380   28.2340   41.9750 C   0  0  0  0  0  0  0  0  0  0  0  0
   38.1870   26.9740   41.3830 C   0  0  0  0  0  0  0  0  0  0  0  0
   38.9780   25.7210   42.4760 S   0  0  0  0  0  0  0  0  0  0  0  0
   39.6610   27.1700   43.5650 C   0  0  0  0  0  0  0  0  0  0  0  0
   39.2800   28.0940   43.0580 N   0  0  0  0  0  0  0  0  0  0  0  0
   40.1420   29.9640   40.0550 C   0  0  0  0  0  0  0  0  0  0  0  0
   40.9470   29.0250   39.6070 N   0  0  0  0  0  0  0  0  0  0  0  0
   42.1420   29.4570   39.4310 O   0  0  0  0  0  0  0  0  0  0  0  0
   42.2400   30.6990   39.7410 C   0  0  0  0  0  0  0  0  0  0  0  0
   41.0090   30.9940   40.1190 N   0  0  0  0  0  0  0  0  0  0  0  0
   43.4350   31.5620   39.6810 C   0  0  0  0  0  0  0  0  0  0  0  0
   43.0850   32.9340   40.2200 C   0  0  0  0  0  0  0  0  0  0  0  0
   36.1288   29.2230   42.3971 H   0  0  0  0  0  0  0  0  0  0  0  0
   36.4037   32.5333   39.7877 H   0  0  0  0  0  0  0  0  0  0  0  0
   37.5826   26.7973   40.4811 H   0  0  0  0  0  0  0  0  0  0  0  0
   40.2800   27.1017   44.4718 H   0  0  0  0  0  0  0  0  0  0  0  0
   44.2383   31.1213   40.2897 H   0  0  0  0  0  0  0  0  0  0  0  0
   43.7760   31.6498   38.6389 H   0  0  0  0  0  0  0  0  0  0  0  0
   43.0915   32.9085   41.3197 H   0  0  0  0  0  0  0  0  0  0  0  0
   43.8250   33.6668   39.8658 H   0  0  0  0  0  0  0  0  0  0  0  0
   42.0844   33.2228   39.8658 H   0  0  0  0  0  0  0  0  0  0  0  0
  2  1  2  0
  2  7  1  0
  3  2  1  0
  4  5  1  0
  4  3  2  0
  5  6  2  0
  6  1  1  0
  7 11  1  0
  8  7  2  0
  8  9  1  0
  9 10  1  0
 11 10  2  0
 12 16  1  0
 12  3  1  0
 13 12  2  0
 14 13  1  0
 14 15  1  0
 15 16  2  0
 17 15  1  0
 17 18  1  0
  1 19  1  0
  5 20  1  0
  8 21  1  0
 10 22  1  0
 17 23  1  0
 17 24  1  0
 18 25  1  0
 18 26  1  0
 18 27  1  0
M  ISO  8  19  14  20  14  21  14  22  14  23   8  24   8  25   8  26   8
M  ISO  1  27   8
M  END
>  <minimizedAffinity>  (1) 
-3.47096944

>  <minimizedRMSD>  (1) 
0.940516472

$$$$
