
     RDKit          3D

 27 30  0  0  0  0  0  0  0  0999 V2000
   37.0760   29.9580   41.4530 C   0  0  0  0  0  0  0  0  0  0  0  0
   38.4980   30.0270   41.2400 C   0  0  0  0  0  0  0  0  0  0  0  0
   39.0410   31.1060   40.6020 C   0  0  0  0  0  0  0  0  0  0  0  0
   38.1730   32.0860   40.1850 N   0  0  0  0  0  0  0  0  0  0  0  0
   36.8270   32.0040   40.3930 C   0  0  0  0  0  0  0  0  0  0  0  0
   36.2790   30.9490   41.0230 N   0  0  0  0  0  0  0  0  0  0  0  0
   40.4530   31.3310   40.3630 C   0  0  0  0  0  0  0  0  0  0  0  0
   41.4980   30.8200   39.7570 N   0  0  0  0  0  0  0  0  0  0  0  0
   42.5570   31.5240   39.9320 O   0  0  0  0  0  0  0  0  0  0  0  0
   42.3160   32.5540   40.6610 C   0  0  0  0  0  0  0  0  0  0  0  0
   41.0270   32.4240   40.9190 N   0  0  0  0  0  0  0  0  0  0  0  0
   43.1360   33.6220   41.1340 N   0  0  0  0  0  0  0  0  0  0  0  0
   44.4390   33.7770   40.8550 C   0  0  0  0  0  0  0  0  0  0  0  0
   44.8860   34.8870   41.4660 N   0  0  0  0  0  0  0  0  0  0  0  0
   43.8430   35.4290   42.1360 C   0  0  0  0  0  0  0  0  0  0  0  0
   42.7550   34.6320   41.9220 N   0  0  0  0  0  0  0  0  0  0  0  0
   39.2570   28.8780   41.7070 C   0  0  0  0  0  0  0  0  0  0  0  0
   39.3760   27.7400   40.8350 C   0  0  0  0  0  0  0  0  0  0  0  0
   40.3880   26.5350   41.8010 S   0  0  0  0  0  0  0  0  0  0  0  0
   40.4650   27.8280   43.2430 C   0  0  0  0  0  0  0  0  0  0  0  0
   39.8790   28.7020   42.8590 N   0  0  0  0  0  0  0  0  0  0  0  0
   36.6408   29.0901   41.9700 H   0  0  0  0  0  0  0  0  0  0  0  0
   36.1766   32.8171   40.0383 H   0  0  0  0  0  0  0  0  0  0  0  0
   45.0431   33.1047   40.2280 H   0  0  0  0  0  0  0  0  0  0  0  0
   43.8671   36.3459   42.7433 H   0  0  0  0  0  0  0  0  0  0  0  0
   38.9596   27.6161   39.8244 H   0  0  0  0  0  0  0  0  0  0  0  0
   40.9688   27.7267   44.2156 H   0  0  0  0  0  0  0  0  0  0  0  0
  2  1  2  0
  2 17  1  0
  3  2  1  0
  4  5  1  0
  4  3  2  0
  5  6  2  0
  6  1  1  0
  7  3  1  0
  7 11  1  0
  8  9  1  0
  8  7  2  0
  9 10  1  0
 10 11  2  0
 10 12  1  0
 12 16  1  0
 13 12  1  0
 13 14  2  0
 14 15  1  0
 16 15  2  0
 17 21  1  0
 18 17  2  0
 18 19  1  0
 19 20  1  0
 21 20  2  0
  1 22  1  0
  5 23  1  0
 13 24  1  0
 15 25  1  0
 18 26  1  0
 20 27  1  0
M  ISO  6  22  14  23  14  24  14  25  14  26  14  27  14
M  END
>  <minimizedAffinity>  (1) 
-4.34905291

>  <minimizedRMSD>  (1) 
2.50292301

$$$$
