
     RDKit          3D

 40 44  0  0  0  0  0  0  0  0999 V2000
   41.6890   29.2080   36.6240 C   0  0  0  0  0  0  0  0  0  0  0  0
   41.5450   30.0550   37.7680 C   0  0  0  0  0  0  0  0  0  0  0  0
   42.6100   30.7760   38.2200 C   0  0  0  0  0  0  0  0  0  0  0  0
   43.7860   30.6370   37.5290 N   0  0  0  0  0  0  0  0  0  0  0  0
   43.9050   29.8260   36.4440 C   0  0  0  0  0  0  0  0  0  0  0  0
   42.8630   29.1140   35.9900 N   0  0  0  0  0  0  0  0  0  0  0  0
   40.2240   30.0690   38.3750 C   0  0  0  0  0  0  0  0  0  0  0  0
   39.1320   30.6020   37.5900 C   0  0  0  0  0  0  0  0  0  0  0  0
   37.6600   30.4460   38.6870 S   0  0  0  0  0  0  0  0  0  0  0  0
   38.8180   29.6660   40.0480 C   0  0  0  0  0  0  0  0  0  0  0  0
   39.8120   29.6730   39.5510 N   0  0  0  0  0  0  0  0  0  0  0  0
   38.3280   29.2380   41.3390 N   0  0  0  0  0  0  0  0  0  0  0  0
   39.0320   28.2480   41.8610 C   0  0  0  0  0  0  0  0  0  0  0  0
   38.6740   27.7290   43.1110 C   0  0  0  0  0  0  0  0  0  0  0  0
   39.3390   26.6260   43.8500 C   0  0  0  0  0  0  0  0  0  0  0  0
   37.5700   28.3220   43.7120 C   0  0  0  0  0  0  0  0  0  0  0  0
   37.1270   27.9530   44.8510 O   0  0  0  0  0  0  0  0  0  0  0  0
   36.8800   29.3380   43.1320 N   0  0  0  0  0  0  0  0  0  0  0  0
   37.2660   29.7960   41.9370 C   0  0  0  0  0  0  0  0  0  0  0  0
   36.6570   30.7460   41.3470 O   0  0  0  0  0  0  0  0  0  0  0  0
   42.5970   31.6780   39.3660 C   0  0  0  0  0  0  0  0  0  0  0  0
   42.9410   31.7900   40.6160 N   0  0  0  0  0  0  0  0  0  0  0  0
   42.6210   32.9300   41.1090 O   0  0  0  0  0  0  0  0  0  0  0  0
   42.0370   33.6780   40.2300 C   0  0  0  0  0  0  0  0  0  0  0  0
   42.0290   32.9020   39.1720 N   0  0  0  0  0  0  0  0  0  0  0  0
   41.5070   35.0040   40.2920 N   0  0  0  0  0  0  0  0  0  0  0  0
   41.5360   35.8000   41.3620 C   0  0  0  0  0  0  0  0  0  0  0  0
   40.9420   36.9730   41.0510 N   0  0  0  0  0  0  0  0  0  0  0  0
   40.5480   36.8840   39.7710 C   0  0  0  0  0  0  0  0  0  0  0  0
   40.9000   35.6550   39.2950 N   0  0  0  0  0  0  0  0  0  0  0  0
   40.8265   28.6289   36.2626 H   0  0  0  0  0  0  0  0  0  0  0  0
   44.8742   29.7525   35.9289 H   0  0  0  0  0  0  0  0  0  0  0  0
   39.1716   31.0086   36.5687 H   0  0  0  0  0  0  0  0  0  0  0  0
   39.8937   27.8347   41.3164 H   0  0  0  0  0  0  0  0  0  0  0  0
   39.2367   26.7957   44.9320 H   0  0  0  0  0  0  0  0  0  0  0  0
   38.8673   25.6689   43.5827 H   0  0  0  0  0  0  0  0  0  0  0  0
   40.4056   26.5964   43.5827 H   0  0  0  0  0  0  0  0  0  0  0  0
   36.0663   29.7520   43.6089 H   0  0  0  0  0  0  0  0  0  0  0  0
   41.9724   35.5432   42.3385 H   0  0  0  0  0  0  0  0  0  0  0  0
   40.0290   37.6694   39.2020 H   0  0  0  0  0  0  0  0  0  0  0  0
  1  2  2  0
  2  3  1  0
  2  7  1  0
  3 21  1  0
  4  3  2  0
  5  4  1  0
  6  5  2  0
  6  1  1  0
  7 11  1  0
  8  7  2  0
  8  9  1  0
  9 10  1  0
 10 12  1  0
 11 10  2  0
 12 13  1  0
 12 19  1  0
 13 14  2  0
 14 16  1  0
 14 15  1  0
 16 17  2  0
 18 16  1  0
 19 18  1  0
 20 19  2  0
 21 22  2  0
 22 23  1  0
 24 26  1  0
 24 23  1  0
 25 21  1  0
 25 24  2  0
 26 27  1  0
 28 27  2  0
 29 28  1  0
 30 29  2  0
 30 26  1  0
  1 31  1  0
  5 32  1  0
  8 33  1  0
 13 34  1  0
 15 35  1  0
 15 36  1  0
 15 37  1  0
 18 38  1  0
 27 39  1  0
 29 40  1  0
M  ISO  8  31  14  32  14  33  14  34  14  35   8  36   8  37   8  38   9
M  ISO  2  39  14  40  14
M  END
>  <minimizedAffinity>  (1) 
-7.10900068

>  <minimizedRMSD>  (1) 
5.03721285

$$$$
