
     RDKit          3D

 38 42  0  0  0  0  0  0  0  0999 V2000
   38.2030   31.7110   40.2760 C   0  0  0  0  0  0  0  0  0  0  0  0
   39.6230   31.8700   40.3380 C   0  0  0  0  0  0  0  0  0  0  0  0
   40.1710   33.1120   40.2330 C   0  0  0  0  0  0  0  0  0  0  0  0
   39.3080   34.1610   40.0690 N   0  0  0  0  0  0  0  0  0  0  0  0
   37.9570   33.9890   40.0100 C   0  0  0  0  0  0  0  0  0  0  0  0
   37.4050   32.7660   40.1140 N   0  0  0  0  0  0  0  0  0  0  0  0
   40.3820   30.6430   40.5030 C   0  0  0  0  0  0  0  0  0  0  0  0
   40.7100   29.8920   39.3130 C   0  0  0  0  0  0  0  0  0  0  0  0
   41.6540   28.4360   39.9220 S   0  0  0  0  0  0  0  0  0  0  0  0
   41.4300   29.1220   41.7340 C   0  0  0  0  0  0  0  0  0  0  0  0
   40.8470   30.0620   41.5790 N   0  0  0  0  0  0  0  0  0  0  0  0
   41.9260   28.5190   42.9620 N   0  0  0  0  0  0  0  0  0  0  0  0
   43.0800   29.0340   43.4730 C   0  0  0  0  0  0  0  0  0  0  0  0
   43.5570   28.4690   44.6360 C   0  0  0  0  0  0  0  0  0  0  0  0
   42.8620   27.4160   45.2350 C   0  0  0  0  0  0  0  0  0  0  0  0
   43.4350   26.8920   46.4430 N   0  0  0  0  0  0  0  0  0  0  0  0
   41.7200   26.9480   44.6800 N   0  0  0  0  0  0  0  0  0  0  0  0
   41.2480   27.4970   43.5410 C   0  0  0  0  0  0  0  0  0  0  0  0
   40.1900   27.0750   43.0120 O   0  0  0  0  0  0  0  0  0  0  0  0
   41.5990   33.4130   40.2900 C   0  0  0  0  0  0  0  0  0  0  0  0
   42.7520   33.1420   39.7430 N   0  0  0  0  0  0  0  0  0  0  0  0
   43.7180   33.7810   40.2940 O   0  0  0  0  0  0  0  0  0  0  0  0
   43.2940   34.5350   41.2580 C   0  0  0  0  0  0  0  0  0  0  0  0
   42.0000   34.3000   41.2450 N   0  0  0  0  0  0  0  0  0  0  0  0
   43.9640   35.4210   42.1560 N   0  0  0  0  0  0  0  0  0  0  0  0
   45.2810   35.6720   42.1510 C   0  0  0  0  0  0  0  0  0  0  0  0
   45.5550   36.5420   43.1260 N   0  0  0  0  0  0  0  0  0  0  0  0
   44.3820   36.8380   43.7510 C   0  0  0  0  0  0  0  0  0  0  0  0
   43.3900   36.1300   43.1370 N   0  0  0  0  0  0  0  0  0  0  0  0
   37.7643   30.7060   40.3631 H   0  0  0  0  0  0  0  0  0  0  0  0
   37.3063   34.8656   39.8750 H   0  0  0  0  0  0  0  0  0  0  0  0
   40.4519   30.1371   38.2722 H   0  0  0  0  0  0  0  0  0  0  0  0
   43.6071   29.8636   42.9791 H   0  0  0  0  0  0  0  0  0  0  0  0
   44.4840   28.8469   45.0919 H   0  0  0  0  0  0  0  0  0  0  0  0
   42.9738   26.1145   46.9367 H   0  0  0  0  0  0  0  0  0  0  0  0
   44.3072   27.2936   46.8157 H   0  0  0  0  0  0  0  0  0  0  0  0
   46.0144   35.2337   41.4582 H   0  0  0  0  0  0  0  0  0  0  0  0
   44.2563   37.5258   44.6002 H   0  0  0  0  0  0  0  0  0  0  0  0
  1  2  2  0
  2  7  1  0
  3 20  1  0
  3  2  1  0
  4  3  2  0
  5  4  1  0
  5  6  2  0
  6  1  1  0
  7 11  1  0
  8  9  1  0
  8  7  2  0
  9 10  1  0
 10 12  1  0
 11 10  2  0
 12 13  1  0
 12 18  1  0
 13 14  2  0
 14 15  1  0
 15 16  1  0
 17 15  2  0
 18 17  1  0
 19 18  2  0
 20 24  1  0
 21 20  2  0
 21 22  1  0
 22 23  1  0
 23 25  1  0
 24 23  2  0
 25 29  1  0
 26 25  1  0
 26 27  2  0
 27 28  1  0
 29 28  2  0
  1 30  1  0
  5 31  1  0
  8 32  1  0
 13 33  1  0
 14 34  1  0
 16 35  1  0
 16 36  1  0
 26 37  1  0
 28 38  1  0
M  ISO  7  30  14  31  14  32  14  33  14  34  14  37  14  38  14
M  END
>  <minimizedAffinity>  (1) 
-6.5692296

>  <minimizedRMSD>  (1) 
2.27565408

$$$$
