
     RDKit          3D

 37 41  0  0  0  0  0  0  0  0999 V2000
   38.3290   31.9420   40.4370 C   0  0  0  0  0  0  0  0  0  0  0  0
   39.7620   32.0660   40.4690 C   0  0  0  0  0  0  0  0  0  0  0  0
   40.3340   33.2850   40.2620 C   0  0  0  0  0  0  0  0  0  0  0  0
   39.4870   34.3350   40.0300 N   0  0  0  0  0  0  0  0  0  0  0  0
   38.1390   34.2000   40.0040 C   0  0  0  0  0  0  0  0  0  0  0  0
   37.5590   33.0130   40.2050 N   0  0  0  0  0  0  0  0  0  0  0  0
   41.7690   33.5500   40.2750 C   0  0  0  0  0  0  0  0  0  0  0  0
   42.8900   33.2670   39.6790 N   0  0  0  0  0  0  0  0  0  0  0  0
   43.8910   33.8710   40.2120 O   0  0  0  0  0  0  0  0  0  0  0  0
   43.5260   34.6060   41.2010 C   0  0  0  0  0  0  0  0  0  0  0  0
   42.2280   34.4050   41.2340 N   0  0  0  0  0  0  0  0  0  0  0  0
   44.2460   35.4530   42.0970 N   0  0  0  0  0  0  0  0  0  0  0  0
   45.5710   35.6710   42.0650 C   0  0  0  0  0  0  0  0  0  0  0  0
   45.8950   36.5230   43.0600 N   0  0  0  0  0  0  0  0  0  0  0  0
   44.7560   36.8280   43.7030 C   0  0  0  0  0  0  0  0  0  0  0  0
   43.7230   36.1670   43.1110 N   0  0  0  0  0  0  0  0  0  0  0  0
   40.4910   30.8300   40.7240 C   0  0  0  0  0  0  0  0  0  0  0  0
   40.8530   30.0290   39.5830 C   0  0  0  0  0  0  0  0  0  0  0  0
   41.7340   28.5950   40.3130 S   0  0  0  0  0  0  0  0  0  0  0  0
   41.4460   29.3540   42.0600 C   0  0  0  0  0  0  0  0  0  0  0  0
   40.8900   30.2960   41.8500 N   0  0  0  0  0  0  0  0  0  0  0  0
   41.9800   28.5950   43.2600 C   0  0  0  0  0  0  0  0  0  0  0  0
   43.0500   29.1610   43.9200 C   0  0  0  0  0  0  0  0  0  0  0  0
   43.5230   28.4590   45.0080 C   0  0  0  0  0  0  0  0  0  0  0  0
   43.0020   27.2630   45.4550 C   0  0  0  0  0  0  0  0  0  0  0  0
   41.9340   26.7670   44.7370 C   0  0  0  0  0  0  0  0  0  0  0  0
   41.4060   27.4120   43.6380 C   0  0  0  0  0  0  0  0  0  0  0  0
   37.8622   30.9601   40.6044 H   0  0  0  0  0  0  0  0  0  0  0  0
   37.5111   35.0830   39.8141 H   0  0  0  0  0  0  0  0  0  0  0  0
   46.2759   35.2280   41.3461 H   0  0  0  0  0  0  0  0  0  0  0  0
   44.6713   37.5025   44.5678 H   0  0  0  0  0  0  0  0  0  0  0  0
   40.6487   30.2303   38.5210 H   0  0  0  0  0  0  0  0  0  0  0  0
   43.4980   30.1128   43.5986 H   0  0  0  0  0  0  0  0  0  0  0  0
   44.3760   28.8826   45.5583 H   0  0  0  0  0  0  0  0  0  0  0  0
   43.4126   26.7373   46.3297 H   0  0  0  0  0  0  0  0  0  0  0  0
   41.4834   25.8151   45.0548 H   0  0  0  0  0  0  0  0  0  0  0  0
   40.5537   26.9902   43.0851 H   0  0  0  0  0  0  0  0  0  0  0  0
  1  2  2  0
  2 17  1  0
  3  7  1  0
  3  2  1  0
  4  3  2  0
  5  4  1  0
  5  6  2  0
  6  1  1  0
  7 11  1  0
  8  9  1  0
  8  7  2  0
  9 10  1  0
 10 11  2  0
 10 12  1  0
 12 16  1  0
 13 12  1  0
 13 14  2  0
 14 15  1  0
 16 15  2  0
 17 21  1  0
 18 19  1  0
 18 17  2  0
 19 20  1  0
 20 22  1  0
 21 20  2  0
 22 27  1  0
 22 23  2  0
 23 24  1  0
 24 25  2  0
 26 25  1  0
 27 26  2  0
  1 28  1  0
  5 29  1  0
 13 30  1  0
 15 31  1  0
 18 32  1  0
 23 33  1  0
 24 34  1  0
 25 35  1  0
 26 36  1  0
 27 37  1  0
M  ISO  8  28  14  29  14  30  14  31  14  32  14  33  14  34  14  35  14
M  ISO  2  36  14  37  14
M  END
>  <minimizedAffinity>  (1) 
-6.27286434

>  <minimizedRMSD>  (1) 
2.38639712

$$$$
