
     RDKit          3D

 34 38  0  0  0  0  0  0  0  0999 V2000
   36.6470   29.0730   38.6150 C   0  0  0  0  0  0  0  0  0  0  0  0
   37.6640   29.7490   39.3600 C   0  0  0  0  0  0  0  0  0  0  0  0
   38.3380   30.7860   38.7890 C   0  0  0  0  0  0  0  0  0  0  0  0
   37.9910   31.1210   37.5120 N   0  0  0  0  0  0  0  0  0  0  0  0
   37.0210   30.4690   36.8180 C   0  0  0  0  0  0  0  0  0  0  0  0
   36.3510   29.4450   37.3710 N   0  0  0  0  0  0  0  0  0  0  0  0
   39.3890   31.5650   39.4370 C   0  0  0  0  0  0  0  0  0  0  0  0
   40.5410   31.4730   40.0500 N   0  0  0  0  0  0  0  0  0  0  0  0
   40.9950   32.6140   40.4170 O   0  0  0  0  0  0  0  0  0  0  0  0
   40.1980   33.5650   40.0850 C   0  0  0  0  0  0  0  0  0  0  0  0
   39.2140   32.9150   39.4840 N   0  0  0  0  0  0  0  0  0  0  0  0
   40.2470   34.9800   40.2600 N   0  0  0  0  0  0  0  0  0  0  0  0
   41.2460   35.6470   40.8310 C   0  0  0  0  0  0  0  0  0  0  0  0
   40.9580   36.9700   40.8160 N   0  0  0  0  0  0  0  0  0  0  0  0
   39.7460   37.1150   40.2200 C   0  0  0  0  0  0  0  0  0  0  0  0
   39.3250   35.8540   39.8820 N   0  0  0  0  0  0  0  0  0  0  0  0
   37.9010   29.2430   40.7040 C   0  0  0  0  0  0  0  0  0  0  0  0
   37.1000   29.7910   41.7720 C   0  0  0  0  0  0  0  0  0  0  0  0
   37.6860   28.9150   43.2700 S   0  0  0  0  0  0  0  0  0  0  0  0
   38.9420   27.9360   42.1660 C   0  0  0  0  0  0  0  0  0  0  0  0
   38.7440   28.3400   41.1410 N   0  0  0  0  0  0  0  0  0  0  0  0
   39.9500   26.8690   42.6280 C   0  0  0  0  0  0  0  0  0  0  0  0
   40.9660   27.4700   43.5480 C   0  0  0  0  0  0  0  0  0  0  0  0
   39.9300   26.5250   44.0620 C   0  0  0  0  0  0  0  0  0  0  0  0
   36.1026   28.2354   39.0754 H   0  0  0  0  0  0  0  0  0  0  0  0
   36.7821   30.7838   35.7915 H   0  0  0  0  0  0  0  0  0  0  0  0
   42.1588   35.1966   41.2481 H   0  0  0  0  0  0  0  0  0  0  0  0
   39.2080   38.0580   40.0432 H   0  0  0  0  0  0  0  0  0  0  0  0
   36.3162   30.5596   41.7023 H   0  0  0  0  0  0  0  0  0  0  0  0
   39.9427   26.2570   41.7140 H   0  0  0  0  0  0  0  0  0  0  0  0
   42.0188   27.1567   43.4887 H   0  0  0  0  0  0  0  0  0  0  0  0
   41.2877   28.4915   43.7992 H   0  0  0  0  0  0  0  0  0  0  0  0
   39.1182   26.8974   44.7041 H   0  0  0  0  0  0  0  0  0  0  0  0
   39.9540   25.5855   44.6336 H   0  0  0  0  0  0  0  0  0  0  0  0
  1  2  2  0
  2 17  1  0
  3  2  1  0
  3  7  1  0
  4  3  2  0
  5  6  2  0
  5  4  1  0
  6  1  1  0
  7 11  1  0
  7  8  2  0
  8  9  1  0
 10 12  1  0
 10  9  1  0
 11 10  2  0
 12 13  1  0
 14 13  2  0
 15 14  1  0
 16 15  2  0
 16 12  1  0
 17 21  1  0
 17 18  2  0
 18 19  1  0
 20 22  1  0
 20 19  1  0
 21 20  2  0
 22 23  1  0
 22 24  1  0
 23 24  1  0
  1 25  1  0
  5 26  1  0
 13 27  1  0
 15 28  1  0
 18 29  1  0
 22 30  1  0
 23 31  1  0
 23 32  1  0
 24 33  1  0
 24 34  1  0
M  ISO  8  25  14  26  14  27  14  28  14  29  14  30  13  31  13  32  13
M  ISO  2  33  13  34  13
M  END
>  <minimizedAffinity>  (1) 
-5.89831257

>  <minimizedRMSD>  (1) 
2.96363163

$$$$
