
     RDKit          3D

 28 29  0  0  1  0  0  0  0  0999 V2000
   39.7270   29.4520   42.7260 N   0  0  0  0  0  0  0  0  0  0  0  0
   39.9250   30.8810   42.7010 C   0  0  0  0  0  0  0  0  0  0  0  0
   41.0470   31.0790   41.6780 C   0  0  0  0  0  0  0  0  0  0  0  0
   42.2390   30.6040   42.2830 N   0  0  0  0  0  0  0  0  0  0  0  0
   42.1910   29.3050   42.8450 C   0  0  0  0  0  0  0  0  0  0  0  0
   40.8750   28.6090   42.8680 C   0  0  2  0  0  0  0  0  0  0  0  0
   38.4580   28.8060   42.6190 C   0  0  0  0  0  0  0  0  0  0  0  0
   37.8740   28.0970   43.6740 C   0  0  0  0  0  0  0  0  0  0  0  0
   36.6310   27.5060   43.4550 C   0  0  0  0  0  0  0  0  0  0  0  0
   36.0690   27.6570   42.2290 N   0  0  0  0  0  0  0  0  0  0  0  0
   36.6500   28.3490   41.2140 C   0  0  0  0  0  0  0  0  0  0  0  0
   37.8420   28.9140   41.4300 N   0  0  0  0  0  0  0  0  0  0  0  0
   40.8380   27.4810   41.8880 C   0  0  0  0  0  0  0  0  0  0  0  0
   40.7980   26.3050   42.2550 O   0  0  0  0  0  0  0  0  0  0  0  0
   40.8500   27.7810   40.4950 N   0  0  0  0  0  0  0  0  0  0  0  0
   39.0081   31.3977   42.3812 H   0  0  0  0  0  0  0  0  0  0  0  0
   40.1751   31.2922   43.6901 H   0  0  0  0  0  0  0  0  0  0  0  0
   41.1479   32.1454   41.4276 H   0  0  0  0  0  0  0  0  0  0  0  0
   40.8328   30.5357   40.7458 H   0  0  0  0  0  0  0  0  0  0  0  0
   42.9767   30.6064   41.5641 H   0  0  0  0  0  0  0  0  0  0  0  0
   42.8866   28.6736   42.2728 H   0  0  0  0  0  0  0  0  0  0  0  0
   42.4468   29.4510   43.9048 H   0  0  0  0  0  0  0  0  0  0  0  0
   40.7993   28.2087   43.8898 H   0  0  0  0  0  0  0  0  0  0  0  0
   38.3803   28.0087   44.6466 H   0  0  0  0  0  0  0  0  0  0  0  0
   36.1233   26.9372   44.2479 H   0  0  0  0  0  0  0  0  0  0  0  0
   36.1513   28.4420   40.2380 H   0  0  0  0  0  0  0  0  0  0  0  0
   40.8833   28.7609   40.1795 H   0  0  0  0  0  0  0  0  0  0  0  0
   40.8253   27.0179   39.8036 H   0  0  0  0  0  0  0  0  0  0  0  0
  1  6  1  0
  2  1  1  0
  3  4  1  0
  3  2  1  0
  4  5  1  0
  5  6  1  0
  7  1  1  0
  7  8  2  0
  9  8  1  0
 10  9  2  0
 11 12  2  0
 11 10  1  0
 12  7  1  0
 13 14  2  0
 13  6  1  0
 15 13  1  0
  2 16  1  0
  2 17  1  0
  3 18  1  0
  3 19  1  0
  4 20  1  0
  5 21  1  0
  5 22  1  0
  6 23  1  1
  8 24  1  0
  9 25  1  0
 11 26  1  0
 15 27  1  0
 15 28  1  0
M  ISO  8  16  13  17  13  18  13  19  13  20   5  21  13  22  13  23  13
M  ISO  3  24  14  25  14  26  14
M  END
>  <minimizedAffinity>  (1) 
-3.14019918

>  <minimizedRMSD>  (1) 
0.183071628

$$$$
