
     RDKit          3D

 43 47  0  0  0  0  0  0  0  0999 V2000
   38.9800   27.3680   40.9550 C   0  0  0  0  0  0  0  0  0  0  0  0
   38.4650   28.6130   40.4760 C   0  0  0  0  0  0  0  0  0  0  0  0
   38.5850   29.7340   41.2400 C   0  0  0  0  0  0  0  0  0  0  0  0
   39.2080   29.5960   42.4540 N   0  0  0  0  0  0  0  0  0  0  0  0
   39.6920   28.3990   42.8920 C   0  0  0  0  0  0  0  0  0  0  0  0
   39.5800   27.2930   42.1500 N   0  0  0  0  0  0  0  0  0  0  0  0
   38.1140   31.0640   40.8720 C   0  0  0  0  0  0  0  0  0  0  0  0
   37.0490   31.7460   40.5390 N   0  0  0  0  0  0  0  0  0  0  0  0
   37.3240   32.9840   40.3150 O   0  0  0  0  0  0  0  0  0  0  0  0
   38.5730   33.2290   40.4770 C   0  0  0  0  0  0  0  0  0  0  0  0
   39.0490   32.0550   40.8170 N   0  0  0  0  0  0  0  0  0  0  0  0
   39.3400   34.4270   40.3470 N   0  0  0  0  0  0  0  0  0  0  0  0
   38.8610   35.6340   40.0100 C   0  0  0  0  0  0  0  0  0  0  0  0
   39.8680   36.5080   39.9860 N   0  0  0  0  0  0  0  0  0  0  0  0
   41.0040   35.8390   40.3170 C   0  0  0  0  0  0  0  0  0  0  0  0
   40.6680   34.5360   40.5420 N   0  0  0  0  0  0  0  0  0  0  0  0
   37.8290   28.5700   39.1710 C   0  0  0  0  0  0  0  0  0  0  0  0
   38.6630   28.8000   38.0120 C   0  0  0  0  0  0  0  0  0  0  0  0
   37.4950   28.6610   36.5860 S   0  0  0  0  0  0  0  0  0  0  0  0
   36.0690   28.3110   37.8470 C   0  0  0  0  0  0  0  0  0  0  0  0
   36.5860   28.3510   38.8310 N   0  0  0  0  0  0  0  0  0  0  0  0
   34.6630   28.0710   37.3160 C   0  0  0  0  0  0  0  0  0  0  0  0
   34.3850   29.1110   36.2640 C   0  0  0  0  0  0  0  0  0  0  0  0
   33.0280   28.9100   35.6750 C   0  0  0  0  0  0  0  0  0  0  0  0
   32.4300   27.5480   35.9840 C   0  0  0  0  0  0  0  0  0  0  0  0
   33.5370   26.5340   35.6890 C   0  0  0  0  0  0  0  0  0  0  0  0
   34.5180   26.6630   36.8070 C   0  0  0  0  0  0  0  0  0  0  0  0
   38.8825   26.4637   40.3364 H   0  0  0  0  0  0  0  0  0  0  0  0
   40.1838   28.3425   43.8743 H   0  0  0  0  0  0  0  0  0  0  0  0
   37.8085   35.8652   39.7893 H   0  0  0  0  0  0  0  0  0  0  0  0
   42.0131   36.2707   40.3903 H   0  0  0  0  0  0  0  0  0  0  0  0
   39.7426   29.0092   37.9853 H   0  0  0  0  0  0  0  0  0  0  0  0
   33.9155   28.1727   38.1166 H   0  0  0  0  0  0  0  0  0  0  0  0
   34.4369   30.1104   36.7205 H   0  0  0  0  0  0  0  0  0  0  0  0
   35.1362   29.0189   35.4658 H   0  0  0  0  0  0  0  0  0  0  0  0
   33.1028   29.0180   34.5829 H   0  0  0  0  0  0  0  0  0  0  0  0
   32.3650   29.6643   36.1238 H   0  0  0  0  0  0  0  0  0  0  0  0
   32.1297   27.4916   37.0407 H   0  0  0  0  0  0  0  0  0  0  0  0
   31.5300   27.3535   35.3822 H   0  0  0  0  0  0  0  0  0  0  0  0
   33.1241   25.5149   35.6578 H   0  0  0  0  0  0  0  0  0  0  0  0
   34.0089   26.7233   34.7136 H   0  0  0  0  0  0  0  0  0  0  0  0
   34.1849   26.0244   37.6384 H   0  0  0  0  0  0  0  0  0  0  0  0
   35.4991   26.3573   36.4146 H   0  0  0  0  0  0  0  0  0  0  0  0
  1  6  2  0
  2  1  1  0
  2  3  2  0
  3  4  1  0
  4  5  2  0
  6  5  1  0
  7  3  1  0
  8  7  2  0
  9 10  1  0
  9  8  1  0
 10 11  2  0
 11  7  1  0
 12 10  1  0
 12 16  1  0
 13 12  1  0
 14 13  2  0
 14 15  1  0
 15 16  2  0
 17  2  1  0
 18 17  2  0
 19 20  1  0
 19 18  1  0
 20 21  2  0
 21 17  1  0
 22 20  1  0
 23 22  1  0
 24 25  1  0
 24 23  1  0
 26 25  1  0
 26 27  1  0
 27 22  1  0
  1 28  1  0
  5 29  1  0
 13 30  1  0
 15 31  1  0
 18 32  1  0
 22 33  1  0
 23 34  1  0
 23 35  1  0
 24 36  1  0
 24 37  1  0
 25 38  1  0
 25 39  1  0
 26 40  1  0
 26 41  1  0
 27 42  1  0
 27 43  1  0
M  ISO  8  28  14  29  14  30  14  31  14  32  14  33  13  34  13  35  13
M  ISO  8  36  13  37  13  38  13  39  13  40  13  41  13  42  13  43  13
M  END
>  <minimizedAffinity>  (1) 
-5.66725159

>  <minimizedRMSD>  (1) 
7.03032255

$$$$
