
     RDKit          3D

 45 50  0  0  1  0  0  0  0  0999 V2000
   41.7310   26.0380   42.2890 C   0  0  0  0  0  0  0  0  0  0  0  0
   41.4590   27.4460   42.3520 C   0  0  0  0  0  0  0  0  0  0  0  0
   42.4770   28.3310   42.4790 C   0  0  0  0  0  0  0  0  0  0  0  0
   43.7440   27.8050   42.5420 N   0  0  0  0  0  0  0  0  0  0  0  0
   43.9890   26.4740   42.4820 C   0  0  0  0  0  0  0  0  0  0  0  0
   42.9890   25.5920   42.3560 N   0  0  0  0  0  0  0  0  0  0  0  0
   42.3430   29.7840   42.5410 C   0  0  0  0  0  0  0  0  0  0  0  0
   42.3620   30.7930   43.3600 N   0  0  0  0  0  0  0  0  0  0  0  0
   42.1600   31.9100   42.7590 O   0  0  0  0  0  0  0  0  0  0  0  0
   41.9930   31.7510   41.5060 C   0  0  0  0  0  0  0  0  0  0  0  0
   42.1060   30.4370   41.3780 N   0  0  0  0  0  0  0  0  0  0  0  0
   41.7410   32.6440   40.4190 N   0  0  0  0  0  0  0  0  0  0  0  0
   41.6480   33.9840   40.5310 C   0  0  0  0  0  0  0  0  0  0  0  0
   41.3970   34.5000   39.3120 N   0  0  0  0  0  0  0  0  0  0  0  0
   41.3370   33.4730   38.4510 C   0  0  0  0  0  0  0  0  0  0  0  0
   41.5490   32.3180   39.1260 N   0  0  0  0  0  0  0  0  0  0  0  0
   40.0510   27.8110   42.2720 C   0  0  0  0  0  0  0  0  0  0  0  0
   39.2520   27.7080   43.4500 C   0  0  0  0  0  0  0  0  0  0  0  0
   37.5710   28.2470   42.9350 S   0  0  0  0  0  0  0  0  0  0  0  0
   38.2540   28.5280   41.1630 C   0  0  0  0  0  0  0  0  0  0  0  0
   39.3310   28.2390   41.2690 N   0  0  0  0  0  0  0  0  0  0  0  0
   37.6150   28.8020   39.8870 C   0  0  0  0  0  0  0  0  0  0  0  0
   37.0920   29.0260   38.8400 N   0  0  0  0  0  0  0  0  0  0  0  0
   36.5500   29.1240   37.7610 C   0  0  0  0  0  0  0  0  0  0  0  0
   36.5870   30.4640   37.7810 N   0  0  0  0  0  0  0  0  0  0  0  0
   37.1510   31.0810   38.8670 C   0  0  0  0  0  0  0  0  0  0  0  0
   37.1740   32.4990   38.7570 C   0  0  0  0  0  0  0  0  0  0  0  0
   37.7770   33.1420   39.7970 C   0  0  0  0  0  0  0  0  0  0  0  0
   38.3440   32.5680   40.9050 C   0  0  0  0  0  0  0  0  0  0  0  0
   38.2220   31.1920   40.8310 C   0  0  0  0  0  0  0  0  0  0  0  0
   37.6530   30.2550   39.8950 C   0  0  0  0  0  0  0  0  0  0  0  0
   40.9010   25.3236   42.1852 H   0  0  0  0  0  0  0  0  0  0  0  0
   45.0261   26.1117   42.5377 H   0  0  0  0  0  0  0  0  0  0  0  0
   41.7585   34.5598   41.4617 H   0  0  0  0  0  0  0  0  0  0  0  0
   41.1463   33.5556   37.3708 H   0  0  0  0  0  0  0  0  0  0  0  0
   39.5722   27.3778   44.4492 H   0  0  0  0  0  0  0  0  0  0  0  0
   38.5964   28.7791   39.3906 H   0  0  0  0  0  0  0  0  0  0  0  0
   36.3880   29.6322   39.2848 H   0  0  0  0  0  0  0  0  0  0  0  0
   35.5287   28.7157   37.7469 H   0  0  0  0  0  0  0  0  0  0  0  0
   36.9871   28.5963   36.9005 H   0  0  0  0  0  0  0  0  0  0  0  0
   36.2017   31.0152   37.0008 H   0  0  0  0  0  0  0  0  0  0  0  0
   36.7394   33.0347   37.9001 H   0  0  0  0  0  0  0  0  0  0  0  0
   37.8123   34.2400   39.7408 H   0  0  0  0  0  0  0  0  0  0  0  0
   38.8234   33.1180   41.7282 H   0  0  0  0  0  0  0  0  0  0  0  0
   38.6695   30.6889   41.7008 H   0  0  0  0  0  0  0  0  0  0  0  0
  1  2  2  0
  1  6  1  0
  2  3  1  0
  3  7  1  0
  3  4  2  0
  5  4  1  0
  6  5  2  0
  7  8  2  0
  9  8  1  0
 10  9  1  0
 11 10  2  0
 11  7  1  0
 12 13  1  0
 12 10  1  0
 14 13  2  0
 15 16  2  0
 15 14  1  0
 16 12  1  0
 17  2  1  0
 17 18  2  0
 19 18  1  0
 20 21  2  0
 20 19  1  0
 21 17  1  0
 22 31  1  0
 22 20  1  0
 23 22  1  0
 24 25  1  0
 24 23  1  0
 25 26  1  0
 26 31  2  0
 27 26  1  0
 27 28  2  0
 28 29  1  0
 30 29  2  0
 31 30  1  0
  1 32  1  0
  5 33  1  0
 13 34  1  0
 15 35  1  0
 18 36  1  0
 22 37  1  0
 23 38  1  0
 24 39  1  0
 24 40  1  0
 25 41  1  0
 27 42  1  0
 28 43  1  0
 29 44  1  0
 30 45  1  0
M  ISO  8  32  14  33  14  34  14  35  14  36  14  37  13  38   5  39  13
M  ISO  5  40  13  42  14  43  14  44  14  45  14
M  END
>  <minimizedAffinity>  (1) 
-5.6552372

>  <minimizedRMSD>  (1) 
6.39530516

$$$$
