
     RDKit          3D

 30 33  0  0  0  0  0  0  0  0999 V2000
   36.7780   28.2030   41.3900 C   0  0  0  0  0  0  0  0  0  0  0  0
   38.0080   28.9230   41.1580 C   0  0  0  0  0  0  0  0  0  0  0  0
   37.9450   30.1670   40.6030 C   0  0  0  0  0  0  0  0  0  0  0  0
   36.7040   30.6530   40.2980 N   0  0  0  0  0  0  0  0  0  0  0  0
   35.5630   29.9610   40.5230 C   0  0  0  0  0  0  0  0  0  0  0  0
   35.5970   28.7430   41.0680 N   0  0  0  0  0  0  0  0  0  0  0  0
   39.1030   31.0120   40.3250 C   0  0  0  0  0  0  0  0  0  0  0  0
   40.3760   30.9890   40.0650 N   0  0  0  0  0  0  0  0  0  0  0  0
   40.8690   32.1670   39.9130 O   0  0  0  0  0  0  0  0  0  0  0  0
   39.9620   33.0720   40.0590 C   0  0  0  0  0  0  0  0  0  0  0  0
   38.8830   32.3550   40.3110 N   0  0  0  0  0  0  0  0  0  0  0  0
   40.0000   34.4930   39.9900 N   0  0  0  0  0  0  0  0  0  0  0  0
   41.0830   35.2240   39.7010 C   0  0  0  0  0  0  0  0  0  0  0  0
   40.7480   36.5350   39.7270 N   0  0  0  0  0  0  0  0  0  0  0  0
   39.4430   36.5990   40.0340 C   0  0  0  0  0  0  0  0  0  0  0  0
   38.9690   35.3340   40.2000 N   0  0  0  0  0  0  0  0  0  0  0  0
   39.2280   28.2260   41.5410 C   0  0  0  0  0  0  0  0  0  0  0  0
   39.7790   27.3000   40.5810 C   0  0  0  0  0  0  0  0  0  0  0  0
   41.2790   26.6560   41.4530 S   0  0  0  0  0  0  0  0  0  0  0  0
   40.8590   27.7820   42.9610 C   0  0  0  0  0  0  0  0  0  0  0  0
   39.9230   28.3080   42.6470 N   0  0  0  0  0  0  0  0  0  0  0  0
   41.8380   27.6500   44.0640 C   0  0  0  0  0  0  0  0  0  0  0  0
   42.8490   28.3780   44.1980 O   0  0  0  0  0  0  0  0  0  0  0  0
   41.5040   26.6250   44.9330 O   0  0  0  0  0  0  0  0  0  0  0  0
   36.8124   27.1984   41.8369 H   0  0  0  0  0  0  0  0  0  0  0  0
   34.5949   30.4081   40.2532 H   0  0  0  0  0  0  0  0  0  0  0  0
   42.0833   34.8242   39.4784 H   0  0  0  0  0  0  0  0  0  0  0  0
   38.8534   37.5221   40.1349 H   0  0  0  0  0  0  0  0  0  0  0  0
   39.4016   27.0415   39.5806 H   0  0  0  0  0  0  0  0  0  0  0  0
   42.0792   26.4321   45.7153 H   0  0  0  0  0  0  0  0  0  0  0  0
  2  1  2  0
  2 17  1  0
  3  2  1  0
  4  5  1  0
  4  3  2  0
  5  6  2  0
  6  1  1  0
  7  3  1  0
  8  7  2  0
  9 10  1  0
  9  8  1  0
 10 11  2  0
 11  7  1  0
 12 10  1  0
 12 16  1  0
 13 14  2  0
 13 12  1  0
 14 15  1  0
 15 16  2  0
 17 21  1  0
 18 19  1  0
 18 17  2  0
 19 20  1  0
 20 22  1  0
 21 20  2  0
 22 23  2  0
 22 24  1  0
  1 25  1  0
  5 26  1  0
 13 27  1  0
 15 28  1  0
 18 29  1  0
 24 30  1  0
M  ISO  6  25  14  26  14  27  14  28  14  29  14  30   3
M  END
>  <minimizedAffinity>  (1) 
-5.6550808

>  <minimizedRMSD>  (1) 
2.42730927

$$$$
