
     RDKit          3D

 42 46  0  0  0  0  0  0  0  0999 V2000
   37.1080   29.9570   41.5300 C   0  0  0  0  0  0  0  0  0  0  0  0
   38.5360   30.0370   41.3040 C   0  0  0  0  0  0  0  0  0  0  0  0
   39.0570   31.0960   40.6380 C   0  0  0  0  0  0  0  0  0  0  0  0
   38.1730   32.0520   40.2070 N   0  0  0  0  0  0  0  0  0  0  0  0
   36.8330   31.9670   40.4250 C   0  0  0  0  0  0  0  0  0  0  0  0
   36.3030   30.9290   41.0810 N   0  0  0  0  0  0  0  0  0  0  0  0
   39.3080   28.9200   41.8320 C   0  0  0  0  0  0  0  0  0  0  0  0
   38.9090   27.5930   41.4660 C   0  0  0  0  0  0  0  0  0  0  0  0
   40.1110   26.5030   42.3370 S   0  0  0  0  0  0  0  0  0  0  0  0
   40.9620   28.0780   43.0580 C   0  0  0  0  0  0  0  0  0  0  0  0
   40.3510   28.9120   42.6290 N   0  0  0  0  0  0  0  0  0  0  0  0
   42.0960   28.1050   43.9200 N   0  0  0  0  0  0  0  0  0  0  0  0
   42.3030   26.9060   44.7070 C   0  0  0  0  0  0  0  0  0  0  0  0
   43.7540   26.4880   44.4310 C   0  0  0  0  0  0  0  0  0  0  0  0
   44.6250   27.5440   45.0450 C   0  0  0  0  0  0  0  0  0  0  0  0
   43.8950   28.8450   45.3160 C   0  0  0  0  0  0  0  0  0  0  0  0
   43.0580   29.1710   44.0890 C   0  0  0  0  0  0  0  0  0  0  0  0
   40.4730   31.3090   40.3600 C   0  0  0  0  0  0  0  0  0  0  0  0
   41.4960   30.8050   39.7250 N   0  0  0  0  0  0  0  0  0  0  0  0
   42.5560   31.5080   39.8920 O   0  0  0  0  0  0  0  0  0  0  0  0
   42.3360   32.5250   40.6400 C   0  0  0  0  0  0  0  0  0  0  0  0
   41.0560   32.3980   40.9250 N   0  0  0  0  0  0  0  0  0  0  0  0
   43.1680   33.5840   41.1130 N   0  0  0  0  0  0  0  0  0  0  0  0
   44.4620   33.7420   40.8220 C   0  0  0  0  0  0  0  0  0  0  0  0
   44.9290   34.8370   41.4340 N   0  0  0  0  0  0  0  0  0  0  0  0
   43.8930   35.3840   42.1320 C   0  0  0  0  0  0  0  0  0  0  0  0
   42.8040   34.5880   41.9200 N   0  0  0  0  0  0  0  0  0  0  0  0
   36.6841   29.0978   42.0705 H   0  0  0  0  0  0  0  0  0  0  0  0
   36.1737   32.7661   40.0552 H   0  0  0  0  0  0  0  0  0  0  0  0
   38.0752   27.2939   40.8138 H   0  0  0  0  0  0  0  0  0  0  0  0
   42.1595   27.1175   45.7769 H   0  0  0  0  0  0  0  0  0  0  0  0
   41.5892   26.1122   44.4417 H   0  0  0  0  0  0  0  0  0  0  0  0
   43.9616   25.5100   44.8897 H   0  0  0  0  0  0  0  0  0  0  0  0
   43.9428   26.3945   43.3514 H   0  0  0  0  0  0  0  0  0  0  0  0
   45.0189   27.1604   45.9977 H   0  0  0  0  0  0  0  0  0  0  0  0
   45.4248   27.7651   44.3229 H   0  0  0  0  0  0  0  0  0  0  0  0
   43.2431   28.7326   46.1949 H   0  0  0  0  0  0  0  0  0  0  0  0
   44.6125   29.6539   45.5184 H   0  0  0  0  0  0  0  0  0  0  0  0
   43.7040   29.2375   43.2012 H   0  0  0  0  0  0  0  0  0  0  0  0
   42.5463   30.1365   44.2159 H   0  0  0  0  0  0  0  0  0  0  0  0
   45.0533   33.0745   40.1780 H   0  0  0  0  0  0  0  0  0  0  0  0
   43.9280   36.2940   42.7489 H   0  0  0  0  0  0  0  0  0  0  0  0
  2  1  2  0
  2  7  1  0
  3  2  1  0
  4  5  1  0
  4  3  2  0
  5  6  2  0
  6  1  1  0
  7 11  1  0
  8  7  2  0
  8  9  1  0
  9 10  1  0
 10 12  1  0
 11 10  2  0
 12 17  1  0
 12 13  1  0
 14 13  1  0
 14 15  1  0
 15 16  1  0
 17 16  1  0
 18  3  1  0
 18 22  1  0
 19 20  1  0
 19 18  2  0
 20 21  1  0
 21 22  2  0
 21 23  1  0
 23 27  1  0
 24 23  1  0
 24 25  2  0
 25 26  1  0
 27 26  2  0
  1 28  1  0
  5 29  1  0
  8 30  1  0
 13 31  1  0
 13 32  1  0
 14 33  1  0
 14 34  1  0
 15 35  1  0
 15 36  1  0
 16 37  1  0
 16 38  1  0
 17 39  1  0
 17 40  1  0
 24 41  1  0
 26 42  1  0
M  ISO  8  28  14  29  14  30  14  31  13  32  13  33  13  34  13  35  13
M  ISO  7  36  13  37  13  38  13  39  13  40  13  41  14  42  14
M  END
>  <minimizedAffinity>  (1) 
-5.49682856

>  <minimizedRMSD>  (1) 
0.874320507

$$$$
