
     RDKit          3D

 26 27  0  0  0  0  0  0  0  0999 V2000
   37.8140   28.0260   43.6330 C   0  0  0  0  0  0  0  0  0  0  0  0
   36.6300   27.5470   43.0260 C   0  0  0  0  0  0  0  0  0  0  0  0
   36.1790   28.1990   41.8860 C   0  0  0  0  0  0  0  0  0  0  0  0
   36.8980   29.2500   41.4240 N   0  0  0  0  0  0  0  0  0  0  0  0
   38.0140   29.6980   42.0030 C   0  0  0  0  0  0  0  0  0  0  0  0
   38.4620   29.0700   43.1140 N   0  0  0  0  0  0  0  0  0  0  0  0
   38.7850   30.7920   41.5440 N   0  0  0  0  0  0  0  0  0  0  0  0
   40.0100   30.8980   42.0820 N   0  0  0  0  0  0  0  0  0  0  0  0
   40.6000   31.9990   41.5260 C   0  0  0  0  0  0  0  0  0  0  0  0
   39.6660   32.5340   40.6360 C   0  0  0  0  0  0  0  0  0  0  0  0
   38.5190   31.7630   40.6540 C   0  0  0  0  0  0  0  0  0  0  0  0
   37.2830   31.9330   39.8980 C   0  0  0  0  0  0  0  0  0  0  0  0
   37.1820   33.4190   39.5390 C   0  0  0  0  0  0  0  0  0  0  0  0
   37.3130   31.1880   38.5730 C   0  0  0  0  0  0  0  0  0  0  0  0
   38.2025   27.5353   44.5376 H   0  0  0  0  0  0  0  0  0  0  0  0
   36.0849   26.6872   43.4427 H   0  0  0  0  0  0  0  0  0  0  0  0
   35.2632   27.8711   41.3723 H   0  0  0  0  0  0  0  0  0  0  0  0
   41.6079   32.3858   41.7372 H   0  0  0  0  0  0  0  0  0  0  0  0
   39.8195   33.4301   40.0167 H   0  0  0  0  0  0  0  0  0  0  0  0
   36.4500   31.5551   40.5090 H   0  0  0  0  0  0  0  0  0  0  0  0
   37.1413   34.0171   40.4613 H   0  0  0  0  0  0  0  0  0  0  0  0
   38.0621   33.7143   38.9490 H   0  0  0  0  0  0  0  0  0  0  0  0
   36.2700   33.5925   38.9490 H   0  0  0  0  0  0  0  0  0  0  0  0
   37.3566   30.1052   38.7621 H   0  0  0  0  0  0  0  0  0  0  0  0
   36.4046   31.4237   37.9992 H   0  0  0  0  0  0  0  0  0  0  0  0
   38.1995   31.4960   37.9992 H   0  0  0  0  0  0  0  0  0  0  0  0
  2  1  2  0
  3  2  1  0
  4  3  2  0
  4  5  1  0
  5  6  2  0
  6  1  1  0
  7  5  1  0
  7  8  1  0
  9  8  2  0
 10 11  2  0
 10  9  1  0
 11  7  1  0
 12 11  1  0
 13 12  1  0
 14 12  1  0
  1 15  1  0
  2 16  1  0
  3 17  1  0
  9 18  1  0
 10 19  1  0
 12 20  1  0
 13 21  1  0
 13 22  1  0
 13 23  1  0
 14 24  1  0
 14 25  1  0
 14 26  1  0
M  ISO  8  15  14  16  14  17  14  18  14  19  14  20   8  21   8  22   8
M  ISO  4  23   8  24   8  25   8  26   8
M  END
>  <minimizedAffinity>  (1) 
-4.39460182

>  <minimizedRMSD>  (1) 
1.75950384

$$$$
