
     RDKit          3D

 32 36  0  0  0  0  0  0  0  0999 V2000
   37.6960   30.8600   40.5570 C   0  0  0  0  0  0  0  0  0  0  0  0
   39.1240   30.9700   40.5020 C   0  0  0  0  0  0  0  0  0  0  0  0
   39.6940   32.1630   40.1590 C   0  0  0  0  0  0  0  0  0  0  0  0
   38.8450   33.1940   39.8850 N   0  0  0  0  0  0  0  0  0  0  0  0
   37.4950   33.0740   39.9410 C   0  0  0  0  0  0  0  0  0  0  0  0
   36.9210   31.9150   40.2750 N   0  0  0  0  0  0  0  0  0  0  0  0
   41.1310   32.4130   40.0740 C   0  0  0  0  0  0  0  0  0  0  0  0
   42.2260   32.0380   39.4810 N   0  0  0  0  0  0  0  0  0  0  0  0
   43.2510   32.7030   39.8790 O   0  0  0  0  0  0  0  0  0  0  0  0
   42.9390   33.5680   40.7600 C   0  0  0  0  0  0  0  0  0  0  0  0
   41.6260   33.3900   40.8810 N   0  0  0  0  0  0  0  0  0  0  0  0
   43.6860   34.5300   41.4980 N   0  0  0  0  0  0  0  0  0  0  0  0
   44.9960   34.7410   41.3810 C   0  0  0  0  0  0  0  0  0  0  0  0
   45.3680   35.7270   42.2290 N   0  0  0  0  0  0  0  0  0  0  0  0
   44.2570   36.1320   42.8820 C   0  0  0  0  0  0  0  0  0  0  0  0
   43.2200   35.3770   42.4150 N   0  0  0  0  0  0  0  0  0  0  0  0
   39.8570   29.7590   40.8200 C   0  0  0  0  0  0  0  0  0  0  0  0
   39.9630   28.7550   39.7930 C   0  0  0  0  0  0  0  0  0  0  0  0
   40.9400   27.4120   40.5630 S   0  0  0  0  0  0  0  0  0  0  0  0
   41.0410   28.4650   42.1810 C   0  0  0  0  0  0  0  0  0  0  0  0
   40.4710   29.3900   41.9170 N   0  0  0  0  0  0  0  0  0  0  0  0
   41.7420   28.0410   43.4340 C   0  0  0  0  0  0  0  0  0  0  0  0
   41.3960   27.0400   44.2620 N   0  0  0  0  0  0  0  0  0  0  0  0
   42.2540   26.9870   45.2390 O   0  0  0  0  0  0  0  0  0  0  0  0
   43.1710   27.9230   45.0960 C   0  0  0  0  0  0  0  0  0  0  0  0
   42.8530   28.5940   43.9560 N   0  0  0  0  0  0  0  0  0  0  0  0
   37.2329   29.9012   40.8331 H   0  0  0  0  0  0  0  0  0  0  0  0
   36.8636   33.9440   39.7079 H   0  0  0  0  0  0  0  0  0  0  0  0
   45.6696   34.1985   40.7014 H   0  0  0  0  0  0  0  0  0  0  0  0
   44.1989   36.9213   43.6460 H   0  0  0  0  0  0  0  0  0  0  0  0
   39.5495   28.7878   38.7742 H   0  0  0  0  0  0  0  0  0  0  0  0
   44.0221   28.1216   45.7640 H   0  0  0  0  0  0  0  0  0  0  0  0
  2  1  2  0
  2 17  1  0
  3  2  1  0
  4  5  1  0
  4  3  2  0
  5  6  2  0
  6  1  1  0
  7  3  1  0
  7 11  1  0
  8  9  1  0
  8  7  2  0
  9 10  1  0
 10 11  2  0
 10 12  1  0
 12 16  1  0
 13 12  1  0
 13 14  2  0
 14 15  1  0
 16 15  2  0
 17 21  1  0
 18 19  1  0
 18 17  2  0
 19 20  1  0
 20 22  1  0
 21 20  2  0
 22 26  1  0
 22 23  2  0
 23 24  1  0
 25 24  1  0
 26 25  2  0
  1 27  1  0
  5 28  1  0
 13 29  1  0
 15 30  1  0
 18 31  1  0
 25 32  1  0
M  ISO  6  27  14  28  14  29  14  30  14  31  14  32  14
M  END
>  <minimizedAffinity>  (1) 
-5.26797009

>  <minimizedRMSD>  (1) 
1.32991922

$$$$
