
     RDKit          3D

 29 32  0  0  0  0  0  0  0  0999 V2000
   37.1470   29.8090   41.6470 C   0  0  0  0  0  0  0  0  0  0  0  0
   38.5540   29.9110   41.3320 C   0  0  0  0  0  0  0  0  0  0  0  0
   38.9860   30.9820   40.6120 C   0  0  0  0  0  0  0  0  0  0  0  0
   38.0570   31.9090   40.2250 N   0  0  0  0  0  0  0  0  0  0  0  0
   36.7330   31.7860   40.5380 C   0  0  0  0  0  0  0  0  0  0  0  0
   36.2840   30.7460   41.2420 N   0  0  0  0  0  0  0  0  0  0  0  0
   40.3750   31.2200   40.2330 C   0  0  0  0  0  0  0  0  0  0  0  0
   41.3470   30.7920   39.4790 N   0  0  0  0  0  0  0  0  0  0  0  0
   42.4160   31.4860   39.6100 O   0  0  0  0  0  0  0  0  0  0  0  0
   42.2540   32.4390   40.4610 C   0  0  0  0  0  0  0  0  0  0  0  0
   41.0060   32.2690   40.8350 N   0  0  0  0  0  0  0  0  0  0  0  0
   43.1170   33.4700   40.9540 N   0  0  0  0  0  0  0  0  0  0  0  0
   44.3900   33.6460   40.5610 C   0  0  0  0  0  0  0  0  0  0  0  0
   44.9000   34.7070   41.2280 N   0  0  0  0  0  0  0  0  0  0  0  0
   43.9220   35.1830   42.0370 C   0  0  0  0  0  0  0  0  0  0  0  0
   42.8180   34.4000   41.8540 N   0  0  0  0  0  0  0  0  0  0  0  0
   39.3840   28.8280   41.8150 C   0  0  0  0  0  0  0  0  0  0  0  0
   39.1400   27.5130   41.2640 C   0  0  0  0  0  0  0  0  0  0  0  0
   40.3900   26.4590   42.1400 S   0  0  0  0  0  0  0  0  0  0  0  0
   41.0030   28.0230   43.0910 C   0  0  0  0  0  0  0  0  0  0  0  0
   40.3480   28.8270   42.6940 N   0  0  0  0  0  0  0  0  0  0  0  0
   42.1110   27.7260   44.0270 C   0  0  0  0  0  0  0  0  0  0  0  0
   42.0380   26.8630   44.9370 O   0  0  0  0  0  0  0  0  0  0  0  0
   36.7817   28.9491   42.2276 H   0  0  0  0  0  0  0  0  0  0  0  0
   36.0247   32.5583   40.2035 H   0  0  0  0  0  0  0  0  0  0  0  0
   44.9262   33.0319   39.8226 H   0  0  0  0  0  0  0  0  0  0  0  0
   44.0028   36.0436   42.7173 H   0  0  0  0  0  0  0  0  0  0  0  0
   38.3965   27.2122   40.5112 H   0  0  0  0  0  0  0  0  0  0  0  0
   43.0485   28.2914   43.9199 H   0  0  0  0  0  0  0  0  0  0  0  0
  2  1  2  0
  2 17  1  0
  3  2  1  0
  4  5  1  0
  4  3  2  0
  5  6  2  0
  6  1  1  0
  7  3  1  0
  7 11  1  0
  8  9  1  0
  8  7  2  0
  9 10  1  0
 10 11  2  0
 10 12  1  0
 12 16  1  0
 13 12  1  0
 13 14  2  0
 14 15  1  0
 16 15  2  0
 17 21  1  0
 18 17  2  0
 18 19  1  0
 19 20  1  0
 20 22  1  0
 21 20  2  0
 22 23  2  0
  1 24  1  0
  5 25  1  0
 13 26  1  0
 15 27  1  0
 18 28  1  0
 22 29  1  0
M  ISO  6  24  14  25  14  26  14  27  14  28  14  29   6
M  END
>  <minimizedAffinity>  (1) 
-4.53987694

>  <minimizedRMSD>  (1) 
0.453475147

$$$$
