
     RDKit          3D

 29 32  0  0  0  0  0  0  0  0999 V2000
   37.0880   29.7750   41.4720 C   0  0  0  0  0  0  0  0  0  0  0  0
   38.4860   29.8690   41.1750 C   0  0  0  0  0  0  0  0  0  0  0  0
   38.9730   30.9830   40.5640 C   0  0  0  0  0  0  0  0  0  0  0  0
   38.0690   31.9680   40.2620 N   0  0  0  0  0  0  0  0  0  0  0  0
   36.7500   31.8640   40.5500 C   0  0  0  0  0  0  0  0  0  0  0  0
   36.2570   30.7720   41.1510 N   0  0  0  0  0  0  0  0  0  0  0  0
   40.3710   31.2110   40.2110 C   0  0  0  0  0  0  0  0  0  0  0  0
   41.3550   30.7660   39.4870 N   0  0  0  0  0  0  0  0  0  0  0  0
   42.4200   31.4540   39.6250 O   0  0  0  0  0  0  0  0  0  0  0  0
   42.2490   32.4260   40.4580 C   0  0  0  0  0  0  0  0  0  0  0  0
   40.9950   32.2670   40.8070 N   0  0  0  0  0  0  0  0  0  0  0  0
   43.1160   33.4560   40.9420 N   0  0  0  0  0  0  0  0  0  0  0  0
   44.3950   33.6180   40.5780 C   0  0  0  0  0  0  0  0  0  0  0  0
   44.8950   34.6790   41.2310 N   0  0  0  0  0  0  0  0  0  0  0  0
   43.9010   35.1780   42.0120 C   0  0  0  0  0  0  0  0  0  0  0  0
   42.7910   34.4090   41.8270 N   0  0  0  0  0  0  0  0  0  0  0  0
   39.2880   28.7230   41.5640 C   0  0  0  0  0  0  0  0  0  0  0  0
   39.3400   27.6020   40.6570 C   0  0  0  0  0  0  0  0  0  0  0  0
   40.4410   26.3820   41.5070 S   0  0  0  0  0  0  0  0  0  0  0  0
   40.6340   27.6440   42.9700 C   0  0  0  0  0  0  0  0  0  0  0  0
   40.0090   28.5050   42.6370 N   0  0  0  0  0  0  0  0  0  0  0  0
   41.4360   27.3780   44.1410 N   0  0  0  0  0  0  0  0  0  0  0  0
   36.6949   28.8754   41.9681 H   0  0  0  0  0  0  0  0  0  0  0  0
   36.0720   32.6891   40.2864 H   0  0  0  0  0  0  0  0  0  0  0  0
   44.9438   32.9870   39.8634 H   0  0  0  0  0  0  0  0  0  0  0  0
   43.9787   36.0504   42.6774 H   0  0  0  0  0  0  0  0  0  0  0  0
   38.8396   27.4968   39.6831 H   0  0  0  0  0  0  0  0  0  0  0  0
   41.5046   28.0826   44.8891 H   0  0  0  0  0  0  0  0  0  0  0  0
   41.9394   26.4836   44.2281 H   0  0  0  0  0  0  0  0  0  0  0  0
  2  1  2  0
  2 17  1  0
  3  2  1  0
  4  5  1  0
  4  3  2  0
  5  6  2  0
  6  1  1  0
  7  3  1  0
  7 11  1  0
  8  9  1  0
  8  7  2  0
  9 10  1  0
 10 11  2  0
 10 12  1  0
 12 16  1  0
 13 12  1  0
 13 14  2  0
 14 15  1  0
 16 15  2  0
 17 21  1  0
 18 19  1  0
 18 17  2  0
 19 20  1  0
 20 22  1  0
 21 20  2  0
  1 23  1  0
  5 24  1  0
 13 25  1  0
 15 26  1  0
 18 27  1  0
 22 28  1  0
 22 29  1  0
M  ISO  5  23  14  24  14  25  14  26  14  27  14
M  END
>  <minimizedAffinity>  (1) 
-4.41754103

>  <minimizedRMSD>  (1) 
0.275310636

$$$$
