
     RDKit          3D

 17 17  0  0  0  0  0  0  0  0999 V2000
   38.6300   29.3150   42.5350 C   0  0  0  0  0  0  0  0  0  0  0  0
   37.8820   29.1610   41.3340 C   0  0  0  0  0  0  0  0  0  0  0  0
   37.4300   27.8700   41.0900 C   0  0  0  0  0  0  0  0  0  0  0  0
   37.7070   26.8590   41.9630 N   0  0  0  0  0  0  0  0  0  0  0  0
   38.4200   27.0670   43.0850 C   0  0  0  0  0  0  0  0  0  0  0  0
   38.8730   28.2950   43.3570 N   0  0  0  0  0  0  0  0  0  0  0  0
   37.6340   30.2660   40.4840 N   0  0  0  0  0  0  0  0  0  0  0  0
   36.7420   31.3250   40.7720 C   0  0  0  0  0  0  0  0  0  0  0  0
   35.6110   30.9470   41.3030 N   0  0  0  0  0  0  0  0  0  0  0  0
   37.1640   32.6660   40.4570 N   0  0  0  0  0  0  0  0  0  0  0  0
   34.8660   31.6250   41.5630 H   0  0  0  0  0  0  0  0  0  0  0  0
   39.0209   30.3102   42.7934 H   0  0  0  0  0  0  0  0  0  0  0  0
   36.8428   27.6610   40.1836 H   0  0  0  0  0  0  0  0  0  0  0  0
   38.6283   26.2339   43.7724 H   0  0  0  0  0  0  0  0  0  0  0  0
   38.1415   30.3012   39.5884 H   0  0  0  0  0  0  0  0  0  0  0  0
   36.5401   33.4617   40.6531 H   0  0  0  0  0  0  0  0  0  0  0  0
   38.0896   32.8290   40.0357 H   0  0  0  0  0  0  0  0  0  0  0  0
  1  6  2  0
  2  1  1  0
  3  2  2  0
  3  4  1  0
  4  5  2  0
  5  6  1  0
  7  8  1  0
  7  2  1  0
  8  9  2  0
  9 11  1  0
 10  8  1  0
  1 12  1  0
  3 13  1  0
  5 14  1  0
  7 15  1  0
 10 16  1  0
 10 17  1  0
M  ISO  3  12  14  13  14  14  14
M  END
>  <minimizedAffinity>  (1) 
-3.95473051

>  <minimizedRMSD>  (1) 
4.78930855

$$$$
