
     RDKit          3D

 39 44  0  0  0  0  0  0  0  0999 V2000
   38.7870   28.1100   43.0270 C   0  0  0  0  0  0  0  0  0  0  0  0
   39.7620   28.9970   42.4790 C   0  0  0  0  0  0  0  0  0  0  0  0
   39.3730   30.0860   41.7430 C   0  0  0  0  0  0  0  0  0  0  0  0
   38.0260   30.2480   41.5830 N   0  0  0  0  0  0  0  0  0  0  0  0
   37.1080   29.3970   42.1080 C   0  0  0  0  0  0  0  0  0  0  0  0
   37.4850   28.3320   42.8280 N   0  0  0  0  0  0  0  0  0  0  0  0
   40.2630   31.0550   41.1370 C   0  0  0  0  0  0  0  0  0  0  0  0
   41.4520   31.2120   40.6200 N   0  0  0  0  0  0  0  0  0  0  0  0
   41.6510   32.4220   40.2310 O   0  0  0  0  0  0  0  0  0  0  0  0
   40.6330   33.1640   40.4490 C   0  0  0  0  0  0  0  0  0  0  0  0
   39.7770   32.3230   41.0080 N   0  0  0  0  0  0  0  0  0  0  0  0
   40.3750   34.5340   40.2010 N   0  0  0  0  0  0  0  0  0  0  0  0
   41.2200   35.4060   39.6170 C   0  0  0  0  0  0  0  0  0  0  0  0
   40.6280   36.6200   39.5520 N   0  0  0  0  0  0  0  0  0  0  0  0
   39.4070   36.4960   40.1010 C   0  0  0  0  0  0  0  0  0  0  0  0
   39.2430   35.2110   40.5060 N   0  0  0  0  0  0  0  0  0  0  0  0
   41.1530   28.6500   42.7630 C   0  0  0  0  0  0  0  0  0  0  0  0
   41.7770   27.6480   41.9470 C   0  0  0  0  0  0  0  0  0  0  0  0
   43.4720   27.5110   42.6110 S   0  0  0  0  0  0  0  0  0  0  0  0
   43.0400   28.8760   43.9250 C   0  0  0  0  0  0  0  0  0  0  0  0
   41.9780   29.1020   43.6640 N   0  0  0  0  0  0  0  0  0  0  0  0
   44.1640   29.5080   45.1730 S   0  0  0  0  0  0  0  0  0  0  0  0
   45.7720   25.5000   47.5520 N   0  0  0  0  0  0  0  0  0  0  0  0
   46.4190   25.7150   46.3750 C   0  0  0  0  0  0  0  0  0  0  0  0
   45.9070   26.8250   45.8120 N   0  0  0  0  0  0  0  0  0  0  0  0
   44.9470   27.3390   46.5830 C   0  0  0  0  0  0  0  0  0  0  0  0
   44.0840   28.4040   46.5740 C   0  0  0  0  0  0  0  0  0  0  0  0
   43.2320   28.5840   47.5870 N   0  0  0  0  0  0  0  0  0  0  0  0
   43.1540   27.7560   48.6630 C   0  0  0  0  0  0  0  0  0  0  0  0
   44.0000   26.7100   48.6750 N   0  0  0  0  0  0  0  0  0  0  0  0
   44.8740   26.4860   47.6850 C   0  0  0  0  0  0  0  0  0  0  0  0
   39.1096   27.2390   43.6163 H   0  0  0  0  0  0  0  0  0  0  0  0
   36.0373   29.5849   41.9396 H   0  0  0  0  0  0  0  0  0  0  0  0
   42.2299   35.1683   39.2515 H   0  0  0  0  0  0  0  0  0  0  0  0
   38.6650   37.3014   40.2046 H   0  0  0  0  0  0  0  0  0  0  0  0
   41.3338   27.0885   41.1100 H   0  0  0  0  0  0  0  0  0  0  0  0
   45.9398   24.7284   48.2134 H   0  0  0  0  0  0  0  0  0  0  0  0
   47.2215   25.0901   45.9560 H   0  0  0  0  0  0  0  0  0  0  0  0
   42.4380   27.9320   49.4793 H   0  0  0  0  0  0  0  0  0  0  0  0
  2 17  1  0
  2  1  2  0
  3  2  1  0
  4  3  2  0
  4  5  1  0
  5  6  2  0
  6  1  1  0
  7  3  1  0
  8  7  2  0
  9 10  1  0
  9  8  1  0
 10 11  2  0
 11  7  1  0
 12 10  1  0
 12 16  1  0
 13 12  1  0
 14 13  2  0
 14 15  1  0
 15 16  2  0
 17 21  1  0
 18 19  1  0
 18 17  2  0
 19 20  1  0
 20 22  1  0
 21 20  2  0
 22 27  1  0
 23 31  1  0
 24 23  1  0
 25 24  2  0
 25 26  1  0
 26 31  2  0
 27 26  1  0
 27 28  2  0
 28 29  1  0
 29 30  2  0
 31 30  1  0
  1 32  1  0
  5 33  1  0
 13 34  1  0
 15 35  1  0
 18 36  1  0
 23 37  1  0
 24 38  1  0
 29 39  1  0
M  ISO  8  32  14  33  14  34  14  35  14  36  14  37   9  38  14  39  14
M  END
>  <minimizedAffinity>  (1) 
-6.67859316

>  <minimizedRMSD>  (1) 
3.59571886

$$$$
