
     RDKit          3D

 41 45  0  0  0  0  0  0  0  0999 V2000
   37.9540   32.8700   39.7430 C   0  0  0  0  0  0  0  0  0  0  0  0
   39.3630   32.7570   39.9410 C   0  0  0  0  0  0  0  0  0  0  0  0
   40.1240   33.8900   40.0750 C   0  0  0  0  0  0  0  0  0  0  0  0
   39.4540   35.0760   40.0070 N   0  0  0  0  0  0  0  0  0  0  0  0
   38.1130   35.1690   39.8180 C   0  0  0  0  0  0  0  0  0  0  0  0
   37.3680   34.0670   39.6870 N   0  0  0  0  0  0  0  0  0  0  0  0
   41.5610   33.9100   40.2780 C   0  0  0  0  0  0  0  0  0  0  0  0
   42.6870   33.3870   39.8940 N   0  0  0  0  0  0  0  0  0  0  0  0
   43.7020   33.8670   40.5140 O   0  0  0  0  0  0  0  0  0  0  0  0
   43.3390   34.7600   41.3720 C   0  0  0  0  0  0  0  0  0  0  0  0
   42.0330   34.7830   41.2260 N   0  0  0  0  0  0  0  0  0  0  0  0
   44.0650   35.5700   42.2890 N   0  0  0  0  0  0  0  0  0  0  0  0
   45.4050   35.5780   42.4340 C   0  0  0  0  0  0  0  0  0  0  0  0
   45.7340   36.4660   43.3930 N   0  0  0  0  0  0  0  0  0  0  0  0
   44.5880   37.0050   43.8360 C   0  0  0  0  0  0  0  0  0  0  0  0
   43.5500   36.4550   43.1570 N   0  0  0  0  0  0  0  0  0  0  0  0
   39.8880   31.3960   39.9840 C   0  0  0  0  0  0  0  0  0  0  0  0
   40.3830   30.8380   38.7620 C   0  0  0  0  0  0  0  0  0  0  0  0
   40.9380   29.1640   39.2070 S   0  0  0  0  0  0  0  0  0  0  0  0
   40.3920   29.5050   41.0380 C   0  0  0  0  0  0  0  0  0  0  0  0
   39.9990   30.5500   40.9670 N   0  0  0  0  0  0  0  0  0  0  0  0
   40.5250   28.3630   42.4280 S   0  0  0  0  0  0  0  0  0  0  0  0
   39.1520   27.1890   42.4300 C   0  0  0  0  0  0  0  0  0  0  0  0
   38.0640   27.5620   41.4750 C   0  0  0  0  0  0  0  0  0  0  0  0
   36.8380   27.7630   42.3270 C   0  0  0  0  0  0  0  0  0  0  0  0
   37.4540   28.3380   43.6000 C   0  0  0  0  0  0  0  0  0  0  0  0
   38.5330   27.2710   43.8310 C   0  0  0  0  0  0  0  0  0  0  0  0
   37.3449   31.9604   39.6354 H   0  0  0  0  0  0  0  0  0  0  0  0
   37.6357   36.1590   39.7723 H   0  0  0  0  0  0  0  0  0  0  0  0
   46.1141   34.9607   41.8630 H   0  0  0  0  0  0  0  0  0  0  0  0
   44.5036   37.7693   44.6226 H   0  0  0  0  0  0  0  0  0  0  0  0
   40.4196   31.3163   37.7721 H   0  0  0  0  0  0  0  0  0  0  0  0
   39.5378   26.1989   42.1458 H   0  0  0  0  0  0  0  0  0  0  0  0
   37.8983   26.7553   40.7458 H   0  0  0  0  0  0  0  0  0  0  0  0
   38.3156   28.4650   40.8994 H   0  0  0  0  0  0  0  0  0  0  0  0
   36.1361   28.4715   41.8629 H   0  0  0  0  0  0  0  0  0  0  0  0
   36.2429   26.8514   42.4848 H   0  0  0  0  0  0  0  0  0  0  0  0
   37.8862   29.3364   43.4372 H   0  0  0  0  0  0  0  0  0  0  0  0
   36.7580   28.5030   44.4357 H   0  0  0  0  0  0  0  0  0  0  0  0
   38.0943   26.3100   44.1377 H   0  0  0  0  0  0  0  0  0  0  0  0
   39.2468   27.5081   44.6336 H   0  0  0  0  0  0  0  0  0  0  0  0
  1  2  2  0
  2 17  1  0
  2  3  1  0
  3  7  1  0
  4  3  2  0
  5  4  1  0
  6  1  1  0
  6  5  2  0
  7 11  1  0
  8  7  2  0
  8  9  1  0
  9 10  1  0
 10 12  1  0
 11 10  2  0
 12 13  1  0
 12 16  1  0
 13 14  2  0
 14 15  1  0
 16 15  2  0
 17 21  1  0
 18 19  1  0
 18 17  2  0
 19 20  1  0
 20 22  1  0
 21 20  2  0
 22 23  1  0
 23 27  1  0
 24 25  1  0
 24 23  1  0
 25 26  1  0
 26 27  1  0
  1 28  1  0
  5 29  1  0
 13 30  1  0
 15 31  1  0
 18 32  1  0
 23 33  1  0
 24 34  1  0
 24 35  1  0
 25 36  1  0
 25 37  1  0
 26 38  1  0
 26 39  1  0
 27 40  1  0
 27 41  1  0
M  ISO  8  28  14  29  14  30  14  31  14  32  14  33  13  34  13  35  13
M  ISO  6  36  13  37  13  38  13  39  13  40  13  41  13
M  END
>  <minimizedAffinity>  (1) 
-6.24055481

>  <minimizedRMSD>  (1) 
3.30748034

$$$$
