
     RDKit          3D

 35 39  0  0  0  0  0  0  0  0999 V2000
   36.6540   28.1370   41.0850 C   0  0  0  0  0  0  0  0  0  0  0  0
   37.8720   28.8720   41.1220 C   0  0  0  0  0  0  0  0  0  0  0  0
   37.8650   30.2240   40.9180 C   0  0  0  0  0  0  0  0  0  0  0  0
   36.6500   30.7890   40.6860 N   0  0  0  0  0  0  0  0  0  0  0  0
   35.4970   30.0740   40.6530 C   0  0  0  0  0  0  0  0  0  0  0  0
   35.4990   28.7540   40.8520 N   0  0  0  0  0  0  0  0  0  0  0  0
   39.0460   31.0850   40.9320 C   0  0  0  0  0  0  0  0  0  0  0  0
   40.3330   31.0970   41.1110 N   0  0  0  0  0  0  0  0  0  0  0  0
   40.8450   32.2670   40.9760 O   0  0  0  0  0  0  0  0  0  0  0  0
   39.9380   33.1370   40.6910 C   0  0  0  0  0  0  0  0  0  0  0  0
   38.8380   32.4050   40.6660 N   0  0  0  0  0  0  0  0  0  0  0  0
   39.9730   34.5390   40.4460 N   0  0  0  0  0  0  0  0  0  0  0  0
   41.0930   35.2900   40.4490 C   0  0  0  0  0  0  0  0  0  0  0  0
   40.7450   36.5750   40.1780 N   0  0  0  0  0  0  0  0  0  0  0  0
   39.4210   36.5980   40.0120 C   0  0  0  0  0  0  0  0  0  0  0  0
   38.9290   35.3340   40.1770 N   0  0  0  0  0  0  0  0  0  0  0  0
   39.0790   28.0800   41.3870 C   0  0  0  0  0  0  0  0  0  0  0  0
   39.7940   27.5340   40.2700 C   0  0  0  0  0  0  0  0  0  0  0  0
   41.1960   26.6410   41.0030 S   0  0  0  0  0  0  0  0  0  0  0  0
   40.5660   27.1690   42.7620 C   0  0  0  0  0  0  0  0  0  0  0  0
   39.6590   27.7600   42.5150 N   0  0  0  0  0  0  0  0  0  0  0  0
   41.3620   26.7300   44.3110 S   0  0  0  0  0  0  0  0  0  0  0  0
   42.9920   26.1230   43.8990 C   0  0  0  0  0  0  0  0  0  0  0  0
   43.9900   27.0950   43.7800 C   0  0  0  0  0  0  0  0  0  0  0  0
   45.1540   26.4860   43.4680 N   0  0  0  0  0  0  0  0  0  0  0  0
   44.8830   25.1700   43.3950 C   0  0  0  0  0  0  0  0  0  0  0  0
   43.5850   24.9230   43.6510 N   0  0  0  0  0  0  0  0  0  0  0  0
   36.6679   27.0496   41.2505 H   0  0  0  0  0  0  0  0  0  0  0  0
   34.5454   30.5905   40.4591 H   0  0  0  0  0  0  0  0  0  0  0  0
   42.1132   34.9249   40.6384 H   0  0  0  0  0  0  0  0  0  0  0  0
   38.8221   37.4909   39.7797 H   0  0  0  0  0  0  0  0  0  0  0  0
   39.5474   27.6341   39.2027 H   0  0  0  0  0  0  0  0  0  0  0  0
   43.8500   28.1773   43.9178 H   0  0  0  0  0  0  0  0  0  0  0  0
   45.6269   24.3955   43.1567 H   0  0  0  0  0  0  0  0  0  0  0  0
   43.1269   24.0005   43.6580 H   0  0  0  0  0  0  0  0  0  0  0  0
  1  2  2  0
  2 17  1  0
  3  7  1  0
  3  2  1  0
  4  3  2  0
  5  4  1  0
  5  6  2  0
  6  1  1  0
  7  8  2  0
  9  8  1  0
 10  9  1  0
 11 10  2  0
 11  7  1  0
 12 13  1  0
 12 10  1  0
 14 13  2  0
 15 16  2  0
 15 14  1  0
 16 12  1  0
 17 21  1  0
 18 19  1  0
 18 17  2  0
 19 20  1  0
 20 22  1  0
 21 20  2  0
 23 22  1  0
 24 23  2  0
 25 24  1  0
 26 25  2  0
 26 27  1  0
 27 23  1  0
  1 28  1  0
  5 29  1  0
 13 30  1  0
 15 31  1  0
 18 32  1  0
 24 33  1  0
 26 34  1  0
 27 35  1  0
M  ISO  8  28  14  29  14  30  14  31  14  32  14  33  14  34  14  35   9
M  END
>  <minimizedAffinity>  (1) 
-5.97654963

>  <minimizedRMSD>  (1) 
2.53438234

$$$$
