
     RDKit          3D

 44 48  0  0  0  0  0  0  0  0999 V2000
   37.2210   28.2420   41.6000 C   0  0  0  0  0  0  0  0  0  0  0  0
   38.3710   29.0080   41.2600 C   0  0  0  0  0  0  0  0  0  0  0  0
   38.2260   30.2520   40.7090 C   0  0  0  0  0  0  0  0  0  0  0  0
   36.9510   30.6830   40.5180 N   0  0  0  0  0  0  0  0  0  0  0  0
   35.8610   29.9480   40.8430 C   0  0  0  0  0  0  0  0  0  0  0  0
   35.9950   28.7290   41.3830 N   0  0  0  0  0  0  0  0  0  0  0  0
   39.3320   31.1310   40.3210 C   0  0  0  0  0  0  0  0  0  0  0  0
   40.5660   31.1570   39.9300 N   0  0  0  0  0  0  0  0  0  0  0  0
   40.9980   32.3430   39.7410 O   0  0  0  0  0  0  0  0  0  0  0  0
   40.0840   33.2290   39.9900 C   0  0  0  0  0  0  0  0  0  0  0  0
   39.0650   32.4760   40.3450 N   0  0  0  0  0  0  0  0  0  0  0  0
   40.0740   34.6450   39.9310 N   0  0  0  0  0  0  0  0  0  0  0  0
   41.1060   35.4260   39.5500 C   0  0  0  0  0  0  0  0  0  0  0  0
   40.7260   36.7080   39.6210 N   0  0  0  0  0  0  0  0  0  0  0  0
   39.4520   36.7280   40.0480 C   0  0  0  0  0  0  0  0  0  0  0  0
   39.0310   35.4510   40.2460 N   0  0  0  0  0  0  0  0  0  0  0  0
   39.6500   28.3730   41.5410 C   0  0  0  0  0  0  0  0  0  0  0  0
   40.0380   27.2440   40.7340 C   0  0  0  0  0  0  0  0  0  0  0  0
   41.6620   26.7420   41.3810 S   0  0  0  0  0  0  0  0  0  0  0  0
   41.5510   28.1830   42.6780 C   0  0  0  0  0  0  0  0  0  0  0  0
   40.5680   28.6340   42.4270 N   0  0  0  0  0  0  0  0  0  0  0  0
   42.8090   28.5700   43.9170 S   0  0  0  0  0  0  0  0  0  0  0  0
   43.9350   27.1540   43.9090 C   0  0  0  0  0  0  0  0  0  0  0  0
   44.5600   26.8930   45.2390 C   0  0  0  0  0  0  0  0  0  0  0  0
   45.7730   26.0210   44.9950 C   0  0  0  0  0  0  0  0  0  0  0  0
   45.6510   25.1770   43.7460 C   0  0  0  0  0  0  0  0  0  0  0  0
   45.5360   26.0160   42.4930 C   0  0  0  0  0  0  0  0  0  0  0  0
   45.0920   27.3910   42.9280 C   0  0  0  0  0  0  0  0  0  0  0  0
   37.3415   27.2429   42.0442 H   0  0  0  0  0  0  0  0  0  0  0  0
   34.8556   30.3558   40.6619 H   0  0  0  0  0  0  0  0  0  0  0  0
   42.0968   35.0684   39.2331 H   0  0  0  0  0  0  0  0  0  0  0  0
   38.8473   37.6323   40.2110 H   0  0  0  0  0  0  0  0  0  0  0  0
   39.4751   26.7859   39.9074 H   0  0  0  0  0  0  0  0  0  0  0  0
   43.3141   26.2935   43.6193 H   0  0  0  0  0  0  0  0  0  0  0  0
   44.8644   27.8413   45.7059 H   0  0  0  0  0  0  0  0  0  0  0  0
   43.8493   26.3961   45.9158 H   0  0  0  0  0  0  0  0  0  0  0  0
   46.6564   26.6688   44.8956 H   0  0  0  0  0  0  0  0  0  0  0  0
   45.8623   25.3341   45.8495 H   0  0  0  0  0  0  0  0  0  0  0  0
   46.5425   24.5380   43.6628 H   0  0  0  0  0  0  0  0  0  0  0  0
   44.7328   24.5778   43.8342 H   0  0  0  0  0  0  0  0  0  0  0  0
   44.7939   25.5769   41.8101 H   0  0  0  0  0  0  0  0  0  0  0  0
   46.4968   26.0620   41.9593 H   0  0  0  0  0  0  0  0  0  0  0  0
   45.9165   27.9220   43.4262 H   0  0  0  0  0  0  0  0  0  0  0  0
   44.7834   28.0109   42.0733 H   0  0  0  0  0  0  0  0  0  0  0  0
  2 17  1  0
  2  1  2  0
  3  2  1  0
  4  3  2  0
  4  5  1  0
  5  6  2  0
  6  1  1  0
  7 11  1  0
  7  3  1  0
  8  7  2  0
  9  8  1  0
  9 10  1  0
 10 11  2  0
 12 10  1  0
 12 16  1  0
 13 14  2  0
 13 12  1  0
 14 15  1  0
 15 16  2  0
 17 21  1  0
 18 19  1  0
 18 17  2  0
 19 20  1  0
 20 22  1  0
 21 20  2  0
 23 22  1  0
 23 24  1  0
 25 24  1  0
 26 25  1  0
 27 28  1  0
 27 26  1  0
 28 23  1  0
  1 29  1  0
  5 30  1  0
 13 31  1  0
 15 32  1  0
 18 33  1  0
 23 34  1  0
 24 35  1  0
 24 36  1  0
 25 37  1  0
 25 38  1  0
 26 39  1  0
 26 40  1  0
 27 41  1  0
 27 42  1  0
 28 43  1  0
 28 44  1  0
M  ISO  8  29  14  30  14  31  14  32  14  33  14  34  13  35  13  36  13
M  ISO  8  37  13  38  13  39  13  40  13  41  13  42  13  43  13  44  13
M  END
>  <minimizedAffinity>  (1) 
-5.31656647

>  <minimizedRMSD>  (1) 
2.60882807

$$$$
