
     RDKit          3D

 35 39  0  0  0  0  0  0  0  0999 V2000
   37.4660   30.3430   40.7580 C   0  0  0  0  0  0  0  0  0  0  0  0
   38.8930   30.3820   40.7310 C   0  0  0  0  0  0  0  0  0  0  0  0
   39.5310   31.5670   40.5000 C   0  0  0  0  0  0  0  0  0  0  0  0
   38.7460   32.6600   40.3070 N   0  0  0  0  0  0  0  0  0  0  0  0
   37.3870   32.6100   40.3350 C   0  0  0  0  0  0  0  0  0  0  0  0
   36.7510   31.4610   40.5590 N   0  0  0  0  0  0  0  0  0  0  0  0
   40.9850   31.7320   40.4490 C   0  0  0  0  0  0  0  0  0  0  0  0
   42.0910   31.1920   40.0320 N   0  0  0  0  0  0  0  0  0  0  0  0
   43.1190   31.9050   40.3370 O   0  0  0  0  0  0  0  0  0  0  0  0
   42.7980   32.9690   40.9750 C   0  0  0  0  0  0  0  0  0  0  0  0
   41.4770   32.8660   41.0470 N   0  0  0  0  0  0  0  0  0  0  0  0
   43.5530   34.0460   41.5130 N   0  0  0  0  0  0  0  0  0  0  0  0
   44.8860   34.1780   41.4420 C   0  0  0  0  0  0  0  0  0  0  0  0
   45.2540   35.3170   42.0610 N   0  0  0  0  0  0  0  0  0  0  0  0
   44.1220   35.8920   42.5170 C   0  0  0  0  0  0  0  0  0  0  0  0
   43.0650   35.1080   42.1800 N   0  0  0  0  0  0  0  0  0  0  0  0
   39.5550   29.1000   40.9600 C   0  0  0  0  0  0  0  0  0  0  0  0
   39.8910   28.3060   39.8180 C   0  0  0  0  0  0  0  0  0  0  0  0
   40.6840   26.8200   40.5200 S   0  0  0  0  0  0  0  0  0  0  0  0
   40.4170   27.5460   42.2970 C   0  0  0  0  0  0  0  0  0  0  0  0
   39.9170   28.5080   42.0610 N   0  0  0  0  0  0  0  0  0  0  0  0
   40.9170   26.7320   43.8110 S   0  0  0  0  0  0  0  0  0  0  0  0
   42.2680   27.6150   44.4940 C   0  0  0  0  0  0  0  0  0  0  0  0
   42.7820   27.2670   45.7310 C   0  0  0  0  0  0  0  0  0  0  0  0
   43.8120   27.8730   46.3510 C   0  0  0  0  0  0  0  0  0  0  0  0
   44.4040   28.9550   45.6580 C   0  0  0  0  0  0  0  0  0  0  0  0
   43.3950   29.0660   44.0470 S   0  0  0  0  0  0  0  0  0  0  0  0
   36.9491   29.3898   40.9432 H   0  0  0  0  0  0  0  0  0  0  0  0
   36.8060   33.5295   40.1707 H   0  0  0  0  0  0  0  0  0  0  0  0
   45.5709   33.4682   40.9551 H   0  0  0  0  0  0  0  0  0  0  0  0
   44.0643   36.8405   43.0711 H   0  0  0  0  0  0  0  0  0  0  0  0
   39.7120   28.5385   38.7579 H   0  0  0  0  0  0  0  0  0  0  0  0
   42.3081   26.4224   46.2526 H   0  0  0  0  0  0  0  0  0  0  0  0
   44.1719   27.5463   47.3378 H   0  0  0  0  0  0  0  0  0  0  0  0
   45.2486   29.5842   45.9752 H   0  0  0  0  0  0  0  0  0  0  0  0
  2  1  2  0
  2 17  1  0
  3  2  1  0
  4  5  1  0
  4  3  2  0
  5  6  2  0
  6  1  1  0
  7  3  1  0
  7 11  1  0
  8  9  1  0
  8  7  2  0
  9 10  1  0
 10 11  2  0
 10 12  1  0
 12 16  1  0
 13 12  1  0
 13 14  2  0
 14 15  1  0
 16 15  2  0
 17 21  1  0
 18 19  1  0
 18 17  2  0
 19 20  1  0
 20 22  1  0
 21 20  2  0
 22 23  1  0
 23 24  2  0
 24 25  1  0
 26 25  2  0
 27 23  1  0
 27 26  1  0
  1 28  1  0
  5 29  1  0
 13 30  1  0
 15 31  1  0
 18 32  1  0
 24 33  1  0
 25 34  1  0
 26 35  1  0
M  ISO  8  28  14  29  14  30  14  31  14  32  14  33  14  34  14  35  14
M  END
>  <minimizedAffinity>  (1) 
-5.08871841

>  <minimizedRMSD>  (1) 
1.35171282

$$$$
