
     RDKit          3D

 36 40  0  0  0  0  0  0  0  0999 V2000
   37.1750   29.9730   40.9720 C   0  0  0  0  0  0  0  0  0  0  0  0
   38.5950   30.0420   40.8670 C   0  0  0  0  0  0  0  0  0  0  0  0
   39.2010   31.2320   40.5600 C   0  0  0  0  0  0  0  0  0  0  0  0
   38.3780   32.2990   40.3710 N   0  0  0  0  0  0  0  0  0  0  0  0
   37.0330   32.2210   40.4730 C   0  0  0  0  0  0  0  0  0  0  0  0
   36.4230   31.0690   40.7720 N   0  0  0  0  0  0  0  0  0  0  0  0
   40.6410   31.4240   40.4260 C   0  0  0  0  0  0  0  0  0  0  0  0
   41.7310   30.9060   39.9540 N   0  0  0  0  0  0  0  0  0  0  0  0
   42.7620   31.6390   40.1920 O   0  0  0  0  0  0  0  0  0  0  0  0
   42.4600   32.7020   40.8380 C   0  0  0  0  0  0  0  0  0  0  0  0
   41.1470   32.5630   40.9800 N   0  0  0  0  0  0  0  0  0  0  0  0
   43.2010   33.8020   41.3290 N   0  0  0  0  0  0  0  0  0  0  0  0
   44.5310   33.9550   41.1710 C   0  0  0  0  0  0  0  0  0  0  0  0
   44.9210   35.1090   41.7590 N   0  0  0  0  0  0  0  0  0  0  0  0
   43.8110   35.6670   42.2830 C   0  0  0  0  0  0  0  0  0  0  0  0
   42.7410   34.8570   42.0170 N   0  0  0  0  0  0  0  0  0  0  0  0
   39.2970   28.7890   41.1070 C   0  0  0  0  0  0  0  0  0  0  0  0
   39.5630   27.9390   39.9770 C   0  0  0  0  0  0  0  0  0  0  0  0
   40.4400   26.5030   40.7000 S   0  0  0  0  0  0  0  0  0  0  0  0
   40.2890   27.3240   42.4520 C   0  0  0  0  0  0  0  0  0  0  0  0
   39.7510   28.2680   42.2090 N   0  0  0  0  0  0  0  0  0  0  0  0
   40.9190   26.5940   43.9610 S   0  0  0  0  0  0  0  0  0  0  0  0
   42.2840   27.5490   44.6210 C   0  0  0  0  0  0  0  0  0  0  0  0
   42.8860   28.5720   43.9200 C   0  0  0  0  0  0  0  0  0  0  0  0
   43.9220   29.1940   44.5880 C   0  0  0  0  0  0  0  0  0  0  0  0
   44.3240   28.8400   45.8280 N   0  0  0  0  0  0  0  0  0  0  0  0
   43.7060   27.8370   46.4690 C   0  0  0  0  0  0  0  0  0  0  0  0
   42.6750   27.1750   45.8750 N   0  0  0  0  0  0  0  0  0  0  0  0
   36.6914   29.0162   41.2184 H   0  0  0  0  0  0  0  0  0  0  0  0
   36.4271   33.1239   40.3066 H   0  0  0  0  0  0  0  0  0  0  0  0
   45.1947   33.2519   40.6464 H   0  0  0  0  0  0  0  0  0  0  0  0
   43.7721   36.6181   42.8343 H   0  0  0  0  0  0  0  0  0  0  0  0
   39.3004   28.1117   38.9229 H   0  0  0  0  0  0  0  0  0  0  0  0
   42.5668   28.8688   42.9100 H   0  0  0  0  0  0  0  0  0  0  0  0
   44.4466   30.0197   44.0849 H   0  0  0  0  0  0  0  0  0  0  0  0
   44.0333   27.5480   47.4786 H   0  0  0  0  0  0  0  0  0  0  0  0
  2  1  2  0
  2 17  1  0
  3  2  1  0
  4  5  1  0
  4  3  2  0
  5  6  2  0
  6  1  1  0
  7  3  1  0
  7 11  1  0
  8  9  1  0
  8  7  2  0
  9 10  1  0
 10 11  2  0
 10 12  1  0
 12 16  1  0
 13 12  1  0
 13 14  2  0
 14 15  1  0
 16 15  2  0
 17 21  1  0
 18 19  1  0
 18 17  2  0
 19 20  1  0
 20 22  1  0
 21 20  2  0
 22 23  1  0
 23 28  2  0
 24 25  2  0
 24 23  1  0
 25 26  1  0
 26 27  2  0
 28 27  1  0
  1 29  1  0
  5 30  1  0
 13 31  1  0
 15 32  1  0
 18 33  1  0
 24 34  1  0
 25 35  1  0
 27 36  1  0
M  ISO  8  29  14  30  14  31  14  32  14  33  14  34  14  35  14  36  14
M  END
>  <minimizedAffinity>  (1) 
-5.08056736

>  <minimizedRMSD>  (1) 
1.04922807

$$$$
