
     RDKit          3D

 43 47  0  0  0  0  0  0  0  0999 V2000
   37.1120   29.6890   41.3830 C   0  0  0  0  0  0  0  0  0  0  0  0
   38.5020   29.7990   41.0510 C   0  0  0  0  0  0  0  0  0  0  0  0
   38.9810   30.9400   40.4800 C   0  0  0  0  0  0  0  0  0  0  0  0
   38.0720   31.9310   40.2580 N   0  0  0  0  0  0  0  0  0  0  0  0
   36.7510   31.8200   40.5770 C   0  0  0  0  0  0  0  0  0  0  0  0
   36.2750   30.7100   41.1340 N   0  0  0  0  0  0  0  0  0  0  0  0
   40.3630   31.1660   40.1020 C   0  0  0  0  0  0  0  0  0  0  0  0
   41.3290   30.7380   39.3440 N   0  0  0  0  0  0  0  0  0  0  0  0
   42.4060   31.4320   39.4840 O   0  0  0  0  0  0  0  0  0  0  0  0
   42.2490   32.3750   40.3430 C   0  0  0  0  0  0  0  0  0  0  0  0
   40.9950   32.2110   40.7220 N   0  0  0  0  0  0  0  0  0  0  0  0
   43.1160   33.3880   40.8400 N   0  0  0  0  0  0  0  0  0  0  0  0
   44.3920   33.5830   40.4580 C   0  0  0  0  0  0  0  0  0  0  0  0
   44.9010   34.6240   41.1320 N   0  0  0  0  0  0  0  0  0  0  0  0
   43.9310   35.0780   41.9410 C   0  0  0  0  0  0  0  0  0  0  0  0
   42.8230   34.3230   41.7690 N   0  0  0  0  0  0  0  0  0  0  0  0
   39.3040   28.6260   41.3690 C   0  0  0  0  0  0  0  0  0  0  0  0
   39.4400   27.6050   40.3690 C   0  0  0  0  0  0  0  0  0  0  0  0
   40.4980   26.3370   41.1490 S   0  0  0  0  0  0  0  0  0  0  0  0
   40.5840   27.4210   42.7350 C   0  0  0  0  0  0  0  0  0  0  0  0
   39.9610   28.3010   42.4460 N   0  0  0  0  0  0  0  0  0  0  0  0
   41.4860   27.0010   44.2460 S   0  0  0  0  0  0  0  0  0  0  0  0
   45.0070   26.4420   45.4710 N   0  0  0  0  0  0  0  0  0  0  0  0
   44.4080   26.0630   44.2050 C   0  0  0  0  0  0  0  0  0  0  0  0
   44.0540   27.3610   43.5030 C   0  0  0  0  0  0  0  0  0  0  0  0
   42.9740   28.0340   44.3260 C   0  0  0  0  0  0  0  0  0  0  0  0
   43.4200   28.1950   45.7390 C   0  0  0  0  0  0  0  0  0  0  0  0
   44.0100   26.9660   46.3640 C   0  0  0  0  0  0  0  0  0  0  0  0
   36.7294   28.7659   41.8430 H   0  0  0  0  0  0  0  0  0  0  0  0
   36.0703   32.6592   40.3711 H   0  0  0  0  0  0  0  0  0  0  0  0
   44.9318   32.9828   39.7107 H   0  0  0  0  0  0  0  0  0  0  0  0
   44.0229   35.9281   42.6330 H   0  0  0  0  0  0  0  0  0  0  0  0
   39.0045   27.5898   39.3590 H   0  0  0  0  0  0  0  0  0  0  0  0
   45.7244   27.1620   45.3043 H   0  0  0  0  0  0  0  0  0  0  0  0
   45.1236   25.4853   43.6016 H   0  0  0  0  0  0  0  0  0  0  0  0
   43.5202   25.4306   44.3532 H   0  0  0  0  0  0  0  0  0  0  0  0
   44.9401   28.0099   43.4408 H   0  0  0  0  0  0  0  0  0  0  0  0
   43.7021   27.1682   42.4788 H   0  0  0  0  0  0  0  0  0  0  0  0
   42.7623   29.0368   43.9265 H   0  0  0  0  0  0  0  0  0  0  0  0
   44.1795   28.9902   45.7681 H   0  0  0  0  0  0  0  0  0  0  0  0
   42.5164   28.4306   46.3204 H   0  0  0  0  0  0  0  0  0  0  0  0
   43.2223   26.2151   46.5244 H   0  0  0  0  0  0  0  0  0  0  0  0
   44.4628   27.2139   47.3354 H   0  0  0  0  0  0  0  0  0  0  0  0
  2 17  1  0
  2  1  2  0
  3  2  1  0
  4  3  2  0
  4  5  1  0
  5  6  2  0
  6  1  1  0
  7  3  1  0
  7 11  1  0
  8  9  1  0
  8  7  2  0
  9 10  1  0
 10 11  2  0
 10 12  1  0
 12 16  1  0
 13 12  1  0
 13 14  2  0
 14 15  1  0
 16 15  2  0
 17 21  1  0
 18 19  1  0
 18 17  2  0
 19 20  1  0
 20 22  1  0
 21 20  2  0
 22 26  1  0
 23 28  1  0
 24 23  1  0
 25 24  1  0
 25 26  1  0
 26 27  1  0
 27 28  1  0
  1 29  1  0
  5 30  1  0
 13 31  1  0
 15 32  1  0
 18 33  1  0
 23 34  1  0
 24 35  1  0
 24 36  1  0
 25 37  1  0
 25 38  1  0
 26 39  1  0
 27 40  1  0
 27 41  1  0
 28 42  1  0
 28 43  1  0
M  ISO  8  29  14  30  14  31  14  32  14  33  14  34   5  35  13  36  13
M  ISO  7  37  13  38  13  39  13  40  13  41  13  42  13  43  13
M  END
>  <minimizedAffinity>  (1) 
-5.02810621

>  <minimizedRMSD>  (1) 
0.391357243

$$$$
