
     RDKit          3D

 40 43  0  0  0  0  0  0  0  0999 V2000
   37.4610   30.7960   40.3830 C   0  0  0  0  0  0  0  0  0  0  0  0
   38.8850   30.7790   40.4560 C   0  0  0  0  0  0  0  0  0  0  0  0
   39.6050   31.9320   40.2510 C   0  0  0  0  0  0  0  0  0  0  0  0
   38.8750   33.0550   39.9820 N   0  0  0  0  0  0  0  0  0  0  0  0
   37.5170   33.0540   39.9160 C   0  0  0  0  0  0  0  0  0  0  0  0
   36.8150   31.9440   40.1130 N   0  0  0  0  0  0  0  0  0  0  0  0
   41.0520   32.0380   40.3000 C   0  0  0  0  0  0  0  0  0  0  0  0
   42.1670   31.4640   39.9350 N   0  0  0  0  0  0  0  0  0  0  0  0
   43.1980   32.1120   40.3200 O   0  0  0  0  0  0  0  0  0  0  0  0
   42.8800   33.1690   40.9710 C   0  0  0  0  0  0  0  0  0  0  0  0
   41.5490   33.1320   40.9630 N   0  0  0  0  0  0  0  0  0  0  0  0
   43.6390   34.2060   41.5960 N   0  0  0  0  0  0  0  0  0  0  0  0
   44.9780   34.2780   41.6010 C   0  0  0  0  0  0  0  0  0  0  0  0
   45.3580   35.3800   42.2800 N   0  0  0  0  0  0  0  0  0  0  0  0
   44.2300   35.9850   42.6890 C   0  0  0  0  0  0  0  0  0  0  0  0
   43.1600   35.2630   42.2700 N   0  0  0  0  0  0  0  0  0  0  0  0
   39.4790   29.4820   40.7550 C   0  0  0  0  0  0  0  0  0  0  0  0
   39.8830   28.6550   39.6550 C   0  0  0  0  0  0  0  0  0  0  0  0
   40.5610   27.1490   40.4170 S   0  0  0  0  0  0  0  0  0  0  0  0
   40.1760   27.9040   42.1640 C   0  0  0  0  0  0  0  0  0  0  0  0
   39.7250   28.8950   41.8890 N   0  0  0  0  0  0  0  0  0  0  0  0
   40.5060   27.1100   43.7510 S   0  0  0  0  0  0  0  0  0  0  0  0
   42.2880   27.0110   44.0220 C   0  0  0  0  0  0  0  0  0  0  0  0
   42.8280   25.7050   43.4840 C   0  0  0  0  0  0  0  0  0  0  0  0
   42.9860   28.1570   43.2890 C   0  0  0  0  0  0  0  0  0  0  0  0
   42.6470   27.1420   45.4800 C   0  0  0  0  0  0  0  0  0  0  0  0
   36.8909   29.8698   40.5476 H   0  0  0  0  0  0  0  0  0  0  0  0
   36.9883   33.9929   39.6946 H   0  0  0  0  0  0  0  0  0  0  0  0
   45.6577   33.5544   41.1273 H   0  0  0  0  0  0  0  0  0  0  0  0
   44.1816   36.9172   43.2709 H   0  0  0  0  0  0  0  0  0  0  0  0
   39.8006   28.8825   38.5819 H   0  0  0  0  0  0  0  0  0  0  0  0
   43.0999   25.0474   44.3228 H   0  0  0  0  0  0  0  0  0  0  0  0
   42.0585   25.2156   42.8689 H   0  0  0  0  0  0  0  0  0  0  0  0
   43.7184   25.9020   42.8689 H   0  0  0  0  0  0  0  0  0  0  0  0
   43.4120   28.8564   44.0234 H   0  0  0  0  0  0  0  0  0  0  0  0
   43.7911   27.7523   42.6581 H   0  0  0  0  0  0  0  0  0  0  0  0
   42.2570   28.6867   42.6581 H   0  0  0  0  0  0  0  0  0  0  0  0
   41.7919   26.8300   46.0976 H   0  0  0  0  0  0  0  0  0  0  0  0
   43.5134   26.5021   45.7032 H   0  0  0  0  0  0  0  0  0  0  0  0
   42.8977   28.1895   45.7032 H   0  0  0  0  0  0  0  0  0  0  0  0
  1  2  2  0
  2 17  1  0
  3  7  1  0
  3  2  1  0
  4  3  2  0
  5  4  1  0
  5  6  2  0
  6  1  1  0
  7 11  1  0
  8  7  2  0
  8  9  1  0
  9 10  1  0
 10 12  1  0
 11 10  2  0
 12 13  1  0
 12 16  1  0
 13 14  2  0
 14 15  1  0
 16 15  2  0
 17 21  1  0
 18 19  1  0
 18 17  2  0
 19 20  1  0
 20 22  1  0
 21 20  2  0
 22 23  1  0
 23 26  1  0
 24 23  1  0
 25 23  1  0
  1 27  1  0
  5 28  1  0
 13 29  1  0
 15 30  1  0
 18 31  1  0
 24 32  1  0
 24 33  1  0
 24 34  1  0
 25 35  1  0
 25 36  1  0
 25 37  1  0
 26 38  1  0
 26 39  1  0
 26 40  1  0
M  ISO  8  27  14  28  14  29  14  30  14  31  14  32   8  33   8  34   8
M  ISO  6  35   8  36   8  37   8  38   8  39   8  40   8
M  END
>  <minimizedAffinity>  (1) 
-5.02616167

>  <minimizedRMSD>  (1) 
1.28308821

$$$$
