
     RDKit          3D

 31 34  0  0  0  0  0  0  0  0999 V2000
   37.1070   29.6960   41.3570 C   0  0  0  0  0  0  0  0  0  0  0  0
   38.4970   29.8010   41.0640 C   0  0  0  0  0  0  0  0  0  0  0  0
   38.9940   30.9590   40.5330 C   0  0  0  0  0  0  0  0  0  0  0  0
   38.1080   31.9660   40.3100 N   0  0  0  0  0  0  0  0  0  0  0  0
   36.7840   31.8540   40.5930 C   0  0  0  0  0  0  0  0  0  0  0  0
   36.2820   30.7220   41.1160 N   0  0  0  0  0  0  0  0  0  0  0  0
   40.3990   31.1920   40.1890 C   0  0  0  0  0  0  0  0  0  0  0  0
   41.3860   30.7460   39.4680 N   0  0  0  0  0  0  0  0  0  0  0  0
   42.4510   31.4510   39.6230 O   0  0  0  0  0  0  0  0  0  0  0  0
   42.2700   32.4180   40.4530 C   0  0  0  0  0  0  0  0  0  0  0  0
   40.9980   32.2570   40.8040 N   0  0  0  0  0  0  0  0  0  0  0  0
   43.1080   33.4450   40.9470 N   0  0  0  0  0  0  0  0  0  0  0  0
   44.3950   33.6330   40.5920 C   0  0  0  0  0  0  0  0  0  0  0  0
   44.8870   34.7040   41.2580 N   0  0  0  0  0  0  0  0  0  0  0  0
   43.8870   35.1750   42.0280 C   0  0  0  0  0  0  0  0  0  0  0  0
   42.7840   34.3930   41.8350 N   0  0  0  0  0  0  0  0  0  0  0  0
   39.2930   28.6130   41.3730 C   0  0  0  0  0  0  0  0  0  0  0  0
   39.3970   27.5980   40.3710 C   0  0  0  0  0  0  0  0  0  0  0  0
   40.4530   26.3180   41.1440 S   0  0  0  0  0  0  0  0  0  0  0  0
   40.5720   27.4130   42.7320 C   0  0  0  0  0  0  0  0  0  0  0  0
   39.9570   28.2930   42.4450 N   0  0  0  0  0  0  0  0  0  0  0  0
   41.4860   26.9740   44.2080 S   0  0  0  0  0  0  0  0  0  0  0  0
   42.9380   28.0210   44.4210 C   0  0  0  0  0  0  0  0  0  0  0  0
   36.7084   28.7642   41.7848 H   0  0  0  0  0  0  0  0  0  0  0  0
   36.1130   32.7020   40.3912 H   0  0  0  0  0  0  0  0  0  0  0  0
   44.9558   33.0148   39.8755 H   0  0  0  0  0  0  0  0  0  0  0  0
   43.9485   36.0439   42.6997 H   0  0  0  0  0  0  0  0  0  0  0  0
   38.9465   27.5886   39.3675 H   0  0  0  0  0  0  0  0  0  0  0  0
   43.1339   28.1623   45.4941 H   0  0  0  0  0  0  0  0  0  0  0  0
   43.8083   27.5413   43.9494 H   0  0  0  0  0  0  0  0  0  0  0  0
   42.7577   28.9983   43.9494 H   0  0  0  0  0  0  0  0  0  0  0  0
  2  1  2  0
  2 17  1  0
  3  2  1  0
  4  3  2  0
  4  5  1  0
  5  6  2  0
  6  1  1  0
  7  3  1  0
  7 11  1  0
  8  9  1  0
  8  7  2  0
  9 10  1  0
 10 11  2  0
 10 12  1  0
 12 16  1  0
 13 12  1  0
 13 14  2  0
 14 15  1  0
 16 15  2  0
 17 21  1  0
 18 19  1  0
 18 17  2  0
 19 20  1  0
 20 22  1  0
 21 20  2  0
 22 23  1  0
  1 24  1  0
  5 25  1  0
 13 26  1  0
 15 27  1  0
 18 28  1  0
 23 29  1  0
 23 30  1  0
 23 31  1  0
M  ISO  8  24  14  25  14  26  14  27  14  28  14  29   8  30   8  31   8
M  END
>  <minimizedAffinity>  (1) 
-4.29870081

>  <minimizedRMSD>  (1) 
0.204738438

$$$$
