
     RDKit          3D

 33 36  0  0  0  0  0  0  0  0999 V2000
   37.7750   29.3020   42.0350 C   0  0  0  0  0  0  0  0  0  0  0  0
   38.1100   29.0870   43.3440 C   0  0  0  0  0  0  0  0  0  0  0  0
   37.3120   28.1470   43.8940 N   0  0  0  0  0  0  0  0  0  0  0  0
   36.4660   27.7720   42.9050 C   0  0  0  0  0  0  0  0  0  0  0  0
   36.7620   28.4780   41.8020 N   0  0  0  0  0  0  0  0  0  0  0  0
   36.0590   28.3300   40.5720 C   0  0  0  0  0  0  0  0  0  0  0  0
   35.0490   29.1620   40.1040 C   0  0  0  0  0  0  0  0  0  0  0  0
   34.4400   28.9190   38.8980 C   0  0  0  0  0  0  0  0  0  0  0  0
   34.7940   27.8480   38.0920 C   0  0  0  0  0  0  0  0  0  0  0  0
   35.8110   27.0160   38.5690 C   0  0  0  0  0  0  0  0  0  0  0  0
   36.1750   25.9420   37.7760 C   0  0  0  0  0  0  0  0  0  0  0  0
   37.1720   25.0870   38.1970 C   0  0  0  0  0  0  0  0  0  0  0  0
   37.8270   25.2850   39.4160 C   0  0  0  0  0  0  0  0  0  0  0  0
   37.4210   26.3630   40.1520 C   0  0  0  0  0  0  0  0  0  0  0  0
   36.4270   27.2540   39.7830 C   0  0  0  0  0  0  0  0  0  0  0  0
   38.4460   32.4220   40.1600 C   0  0  0  0  0  0  0  0  0  0  0  0
   37.8300   31.4920   40.9960 C   0  0  0  0  0  0  0  0  0  0  0  0
   38.4270   30.2350   41.1730 C   0  0  0  0  0  0  0  0  0  0  0  0
   39.5870   29.9950   40.5070 N   0  0  0  0  0  0  0  0  0  0  0  0
   40.1690   30.9270   39.6920 C   0  0  0  0  0  0  0  0  0  0  0  0
   39.5950   32.1310   39.5250 N   0  0  0  0  0  0  0  0  0  0  0  0
   38.9192   29.6089   43.8758 H   0  0  0  0  0  0  0  0  0  0  0  0
   35.6709   27.0168   42.9909 H   0  0  0  0  0  0  0  0  0  0  0  0
   34.7337   30.0260   40.7074 H   0  0  0  0  0  0  0  0  0  0  0  0
   33.6434   29.5977   38.5593 H   0  0  0  0  0  0  0  0  0  0  0  0
   34.3000   27.6625   37.1268 H   0  0  0  0  0  0  0  0  0  0  0  0
   35.6710   25.7708   36.8133 H   0  0  0  0  0  0  0  0  0  0  0  0
   37.4566   24.2346   37.5626 H   0  0  0  0  0  0  0  0  0  0  0  0
   38.6242   24.6113   39.7634 H   0  0  0  0  0  0  0  0  0  0  0  0
   37.9242   26.5367   41.1146 H   0  0  0  0  0  0  0  0  0  0  0  0
   37.9845   33.4103   40.0174 H   0  0  0  0  0  0  0  0  0  0  0  0
   36.8894   31.7402   41.5095 H   0  0  0  0  0  0  0  0  0  0  0  0
   41.1091   30.6905   39.1720 H   0  0  0  0  0  0  0  0  0  0  0  0
  1  2  2  0
  2  3  1  0
  4  3  2  0
  5  1  1  0
  5  4  1  0
  6  5  1  0
  7  6  2  0
  8  7  1  0
  9 10  1  0
  9  8  2  0
 10 15  2  0
 11 12  2  0
 11 10  1  0
 12 13  1  0
 13 14  2  0
 15 14  1  0
 15  6  1  0
 16 17  2  0
 17 18  1  0
 18  1  1  0
 19 18  2  0
 20 19  1  0
 21 20  2  0
 21 16  1  0
  2 22  1  0
  4 23  1  0
  7 24  1  0
  8 25  1  0
  9 26  1  0
 11 27  1  0
 12 28  1  0
 13 29  1  0
 14 30  1  0
 16 31  1  0
 17 32  1  0
 20 33  1  0
M  ISO  8  22  14  23  14  24  14  25  14  26  14  27  14  28  14  29  14
M  ISO  4  30  14  31  14  32  14  33  14
M  END
>  <minimizedAffinity>  (1) 
-5.18150139

>  <minimizedRMSD>  (1) 
4.98070526

$$$$
