
     RDKit          3D

 31 34  0  0  0  0  0  0  0  0999 V2000
   38.3520   27.5810   42.4390 C   0  0  0  0  0  0  0  0  0  0  0  0
   38.7690   27.6070   43.7390 C   0  0  0  0  0  0  0  0  0  0  0  0
   39.5040   26.5280   44.0450 N   0  0  0  0  0  0  0  0  0  0  0  0
   39.5500   25.7990   42.8960 C   0  0  0  0  0  0  0  0  0  0  0  0
   38.8500   26.4520   41.9460 N   0  0  0  0  0  0  0  0  0  0  0  0
   38.6890   25.9690   40.6090 C   0  0  0  0  0  0  0  0  0  0  0  0
   39.4380   26.2600   39.4860 C   0  0  0  0  0  0  0  0  0  0  0  0
   38.9390   25.5810   38.4130 N   0  0  0  0  0  0  0  0  0  0  0  0
   37.8780   24.8570   38.8380 C   0  0  0  0  0  0  0  0  0  0  0  0
   37.0440   24.0140   38.1400 C   0  0  0  0  0  0  0  0  0  0  0  0
   36.0250   23.3980   38.8430 C   0  0  0  0  0  0  0  0  0  0  0  0
   35.8340   23.6100   40.2080 C   0  0  0  0  0  0  0  0  0  0  0  0
   36.6710   24.4520   40.8890 C   0  0  0  0  0  0  0  0  0  0  0  0
   37.7030   25.0810   40.1940 C   0  0  0  0  0  0  0  0  0  0  0  0
   35.4580   29.1690   40.7750 C   0  0  0  0  0  0  0  0  0  0  0  0
   36.2580   28.2060   41.3960 C   0  0  0  0  0  0  0  0  0  0  0  0
   37.5510   28.5850   41.8040 C   0  0  0  0  0  0  0  0  0  0  0  0
   37.9410   29.8620   41.5690 N   0  0  0  0  0  0  0  0  0  0  0  0
   37.1350   30.7720   40.9610 C   0  0  0  0  0  0  0  0  0  0  0  0
   35.8980   30.4300   40.5650 N   0  0  0  0  0  0  0  0  0  0  0  0
   38.5313   28.4138   44.4480 H   0  0  0  0  0  0  0  0  0  0  0  0
   40.0705   24.8389   42.7646 H   0  0  0  0  0  0  0  0  0  0  0  0
   40.3051   26.9364   39.4604 H   0  0  0  0  0  0  0  0  0  0  0  0
   39.3049   25.6137   37.4507 H   0  0  0  0  0  0  0  0  0  0  0  0
   37.1827   23.8368   37.0633 H   0  0  0  0  0  0  0  0  0  0  0  0
   35.3437   22.7195   38.3088 H   0  0  0  0  0  0  0  0  0  0  0  0
   35.0133   23.1021   40.7357 H   0  0  0  0  0  0  0  0  0  0  0  0
   36.5319   24.6293   41.9657 H   0  0  0  0  0  0  0  0  0  0  0  0
   34.4442   28.8939   40.4487 H   0  0  0  0  0  0  0  0  0  0  0  0
   35.8887   27.1831   41.5610 H   0  0  0  0  0  0  0  0  0  0  0  0
   37.4986   31.7963   40.7920 H   0  0  0  0  0  0  0  0  0  0  0  0
  1  2  2  0
  2  3  1  0
  4  3  2  0
  5  1  1  0
  5  4  1  0
  6  5  1  0
  7  6  2  0
  8  9  1  0
  8  7  1  0
  9 14  2  0
 10  9  1  0
 10 11  2  0
 11 12  1  0
 12 13  2  0
 14  6  1  0
 14 13  1  0
 15 16  2  0
 16 17  1  0
 17  1  1  0
 18 17  2  0
 19 18  1  0
 20 15  1  0
 20 19  2  0
  2 21  1  0
  4 22  1  0
  7 23  1  0
  8 24  1  0
 10 25  1  0
 11 26  1  0
 12 27  1  0
 13 28  1  0
 15 29  1  0
 16 30  1  0
 19 31  1  0
M  ISO  8  21  14  22  14  23  14  24   9  25  14  26  14  27  14  28  14
M  ISO  3  29  14  30  14  31  14
M  END
>  <minimizedAffinity>  (1) 
-4.67097187

>  <minimizedRMSD>  (1) 
5.7493844

$$$$
