
     RDKit          3D

 30 32  0  0  0  0  0  0  0  0999 V2000
   38.6090   28.3110   42.5390 C   0  0  0  0  0  0  0  0  0  0  0  0
   38.4490   27.2430   43.3960 C   0  0  0  0  0  0  0  0  0  0  0  0
   39.6260   26.8690   43.9250 N   0  0  0  0  0  0  0  0  0  0  0  0
   40.5430   27.7300   43.3800 C   0  0  0  0  0  0  0  0  0  0  0  0
   39.9120   28.5820   42.5560 N   0  0  0  0  0  0  0  0  0  0  0  0
   35.5710   28.7000   40.4540 C   0  0  0  0  0  0  0  0  0  0  0  0
   36.6270   28.1050   41.1480 C   0  0  0  0  0  0  0  0  0  0  0  0
   37.5310   28.9250   41.8300 C   0  0  0  0  0  0  0  0  0  0  0  0
   37.3160   30.2630   41.7670 N   0  0  0  0  0  0  0  0  0  0  0  0
   36.2860   30.8240   41.0880 C   0  0  0  0  0  0  0  0  0  0  0  0
   35.4110   30.0350   40.4290 N   0  0  0  0  0  0  0  0  0  0  0  0
   41.8080   31.7810   40.5840 C   0  0  0  0  0  0  0  0  0  0  0  0
   41.4830   30.6420   39.8460 C   0  0  0  0  0  0  0  0  0  0  0  0
   40.8640   29.5850   40.4720 C   0  0  0  0  0  0  0  0  0  0  0  0
   40.5500   29.6160   41.8150 C   0  0  0  0  0  0  0  0  0  0  0  0
   40.8840   30.7670   42.5370 C   0  0  0  0  0  0  0  0  0  0  0  0
   41.5080   31.8450   41.9310 C   0  0  0  0  0  0  0  0  0  0  0  0
   42.5960   33.1660   39.8580 S   0  0  0  0  0  0  0  0  0  0  0  0
   42.6230   34.3050   40.8390 O   0  0  0  0  0  0  0  0  0  0  0  0
   44.0070   32.7920   39.5640 O   0  0  0  0  0  0  0  0  0  0  0  0
   37.4853   26.7609   43.6173 H   0  0  0  0  0  0  0  0  0  0  0  0
   41.6237   27.7239   43.5851 H   0  0  0  0  0  0  0  0  0  0  0  0
   34.8542   28.0624   39.9159 H   0  0  0  0  0  0  0  0  0  0  0  0
   36.7452   27.0114   41.1578 H   0  0  0  0  0  0  0  0  0  0  0  0
   36.1635   31.9171   41.0739 H   0  0  0  0  0  0  0  0  0  0  0  0
   41.7198   30.5899   38.7730 H   0  0  0  0  0  0  0  0  0  0  0  0
   40.6122   28.6895   39.8850 H   0  0  0  0  0  0  0  0  0  0  0  0
   40.6458   30.8169   43.6097 H   0  0  0  0  0  0  0  0  0  0  0  0
   41.7617   32.7416   42.5155 H   0  0  0  0  0  0  0  0  0  0  0  0
   41.9235   33.5372   38.7236 H   0  0  0  0  0  0  0  0  0  0  0  0
  1  5  1  0
  1  2  2  0
  2  3  1  0
  4  3  2  0
  5  4  1  0
  6  7  2  0
  7  8  1  0
  8  1  1  0
  9  8  2  0
 10  9  1  0
 11  6  1  0
 11 10  2  0
 12 17  2  0
 13 14  2  0
 13 12  1  0
 14 15  1  0
 15 16  2  0
 15  5  1  0
 17 16  1  0
 18 12  1  0
 18 19  2  0
 20 18  2  0
  2 21  1  0
  4 22  1  0
  6 23  1  0
  7 24  1  0
 10 25  1  0
 13 26  1  0
 14 27  1  0
 16 28  1  0
 17 29  1  0
 18 30  1  0
M  ISO  8  21  14  22  14  23  14  24  14  25  14  26  14  27  14  28  14
M  ISO  2  29  14  30  11
M  END
>  <minimizedAffinity>  (1) 
-4.35642147

>  <minimizedRMSD>  (1) 
1.19690466

$$$$
