
     RDKit          3D

 28 31  0  0  0  0  0  0  0  0999 V2000
   37.7140   27.2180   41.7570 C   0  0  0  0  0  0  0  0  0  0  0  0
   36.5720   27.9060   41.4700 C   0  0  0  0  0  0  0  0  0  0  0  0
   36.5330   29.0920   42.0890 N   0  0  0  0  0  0  0  0  0  0  0  0
   37.7040   29.1570   42.7980 C   0  0  0  0  0  0  0  0  0  0  0  0
   38.4110   28.0150   42.5890 N   0  0  0  0  0  0  0  0  0  0  0  0
   42.7950   29.3850   42.6820 N   0  0  0  0  0  0  0  0  0  0  0  0
   42.0040   30.1430   41.8800 C   0  0  0  0  0  0  0  0  0  0  0  0
   40.7450   29.6720   41.9140 N   0  0  0  0  0  0  0  0  0  0  0  0
   40.6810   28.5910   42.7410 C   0  0  0  0  0  0  0  0  0  0  0  0
   39.6820   27.7150   43.1600 C   0  0  0  0  0  0  0  0  0  0  0  0
   39.9790   26.7130   44.0200 N   0  0  0  0  0  0  0  0  0  0  0  0
   41.2580   26.5890   44.4560 C   0  0  0  0  0  0  0  0  0  0  0  0
   42.2550   27.4260   44.0680 N   0  0  0  0  0  0  0  0  0  0  0  0
   41.9880   28.4430   43.2030 C   0  0  0  0  0  0  0  0  0  0  0  0
   37.6350   23.5590   41.2750 C   0  0  0  0  0  0  0  0  0  0  0  0
   37.3090   24.8400   41.7670 C   0  0  0  0  0  0  0  0  0  0  0  0
   38.0520   25.9200   41.2520 C   0  0  0  0  0  0  0  0  0  0  0  0
   39.0250   25.6690   40.3280 N   0  0  0  0  0  0  0  0  0  0  0  0
   39.3060   24.4230   39.8830 C   0  0  0  0  0  0  0  0  0  0  0  0
   38.6170   23.3690   40.3510 N   0  0  0  0  0  0  0  0  0  0  0  0
   35.7774   27.5308   40.8084 H   0  0  0  0  0  0  0  0  0  0  0  0
   38.0205   29.9973   43.4334 H   0  0  0  0  0  0  0  0  0  0  0  0
   43.8031   29.5060   42.8554 H   0  0  0  0  0  0  0  0  0  0  0  0
   42.3414   31.0096   41.2925 H   0  0  0  0  0  0  0  0  0  0  0  0
   41.4982   25.7742   45.1549 H   0  0  0  0  0  0  0  0  0  0  0  0
   37.0790   22.6867   41.6492 H   0  0  0  0  0  0  0  0  0  0  0  0
   36.5155   24.9879   42.5143 H   0  0  0  0  0  0  0  0  0  0  0  0
   40.1000   24.2725   39.1367 H   0  0  0  0  0  0  0  0  0  0  0  0
  1  5  1  0
  2  1  2  0
  2  3  1  0
  3  4  2  0
  5  4  1  0
  5 10  1  0
  6 14  1  0
  7  8  2  0
  7  6  1  0
  8  9  1  0
  9 10  1  0
  9 14  2  0
 10 11  2  0
 11 12  1  0
 13 12  2  0
 14 13  1  0
 15 16  2  0
 17  1  1  0
 17 16  1  0
 18 17  2  0
 19 18  1  0
 19 20  2  0
 20 15  1  0
  2 21  1  0
  4 22  1  0
  6 23  1  0
  7 24  1  0
 12 25  1  0
 15 26  1  0
 16 27  1  0
 19 28  1  0
M  ISO  8  21  14  22  14  23   9  24  14  25  14  26  14  27  14  28  14
M  END
>  <minimizedAffinity>  (1) 
-4.31672621

>  <minimizedRMSD>  (1) 
4.19594145

$$$$
