
     RDKit          3D

 24 26  0  0  0  0  0  0  0  0999 V2000
   38.6460   28.2830   42.5590 C   0  0  0  0  0  0  0  0  0  0  0  0
   38.5480   27.1120   43.2720 C   0  0  0  0  0  0  0  0  0  0  0  0
   39.7290   26.7910   43.8230 N   0  0  0  0  0  0  0  0  0  0  0  0
   40.5760   27.7750   43.4470 C   0  0  0  0  0  0  0  0  0  0  0  0
   39.9160   28.6780   42.6810 N   0  0  0  0  0  0  0  0  0  0  0  0
   40.4940   29.8480   42.1100 C   0  0  0  0  0  0  0  0  0  0  0  0
   41.0200   30.1080   40.8610 C   0  0  0  0  0  0  0  0  0  0  0  0
   41.4480   31.4230   40.8420 C   0  0  0  0  0  0  0  0  0  0  0  0
   41.1820   31.9390   42.0600 N   0  0  0  0  0  0  0  0  0  0  0  0
   40.6160   31.0090   42.8150 N   0  0  0  0  0  0  0  0  0  0  0  0
   35.6010   28.6260   40.4880 C   0  0  0  0  0  0  0  0  0  0  0  0
   36.6670   28.0300   41.1800 C   0  0  0  0  0  0  0  0  0  0  0  0
   37.5570   28.8920   41.8520 C   0  0  0  0  0  0  0  0  0  0  0  0
   37.3190   30.2250   41.7790 N   0  0  0  0  0  0  0  0  0  0  0  0
   36.2780   30.7610   41.1010 C   0  0  0  0  0  0  0  0  0  0  0  0
   35.4180   29.9570   40.4540 N   0  0  0  0  0  0  0  0  0  0  0  0
   37.6275   26.5190   43.3767 H   0  0  0  0  0  0  0  0  0  0  0  0
   41.6397   27.8341   43.7210 H   0  0  0  0  0  0  0  0  0  0  0  0
   41.0871   29.3943   40.0266 H   0  0  0  0  0  0  0  0  0  0  0  0
   41.9157   31.9478   39.9959 H   0  0  0  0  0  0  0  0  0  0  0  0
   41.3867   32.9040   42.3562 H   0  0  0  0  0  0  0  0  0  0  0  0
   34.8890   27.9797   39.9538 H   0  0  0  0  0  0  0  0  0  0  0  0
   36.8018   26.9384   41.1971 H   0  0  0  0  0  0  0  0  0  0  0  0
   36.1363   31.8516   41.0796 H   0  0  0  0  0  0  0  0  0  0  0  0
  1  5  1  0
  1  2  2  0
  2  3  1  0
  4  3  2  0
  5  4  1  0
  6  5  1  0
  6 10  2  0
  7  6  1  0
  8  7  2  0
  8  9  1  0
  9 10  1  0
 11 12  2  0
 12 13  1  0
 13  1  1  0
 14 13  2  0
 15 14  1  0
 16 11  1  0
 16 15  2  0
  2 17  1  0
  4 18  1  0
  7 19  1  0
  8 20  1  0
  9 21  1  0
 11 22  1  0
 12 23  1  0
 15 24  1  0
M  ISO  8  17  14  18  14  19  14  20  14  21   9  22  14  23  14  24  14
M  END
>  <minimizedAffinity>  (1) 
-4.31031942

>  <minimizedRMSD>  (1) 
0.507117331

$$$$
