
     RDKit          3D

 26 28  0  0  0  0  0  0  0  0999 V2000
   38.5550   28.1460   42.6300 C   0  0  0  0  0  0  0  0  0  0  0  0
   38.3770   27.0340   43.4030 C   0  0  0  0  0  0  0  0  0  0  0  0
   39.5360   26.6450   43.9670 N   0  0  0  0  0  0  0  0  0  0  0  0
   40.4540   27.5370   43.5330 C   0  0  0  0  0  0  0  0  0  0  0  0
   39.8460   28.4320   42.7290 N   0  0  0  0  0  0  0  0  0  0  0  0
   35.6110   28.6130   40.4340 C   0  0  0  0  0  0  0  0  0  0  0  0
   36.6320   27.9920   41.1590 C   0  0  0  0  0  0  0  0  0  0  0  0
   37.5170   28.8070   41.8940 C   0  0  0  0  0  0  0  0  0  0  0  0
   37.3240   30.1550   41.8550 N   0  0  0  0  0  0  0  0  0  0  0  0
   36.3150   30.7200   41.1340 C   0  0  0  0  0  0  0  0  0  0  0  0
   35.4600   29.9480   40.4250 N   0  0  0  0  0  0  0  0  0  0  0  0
   40.5210   29.5150   42.0970 C   0  0  0  0  0  0  0  0  0  0  0  0
   40.7990   30.7640   42.6160 C   0  0  0  0  0  0  0  0  0  0  0  0
   41.4710   31.6740   41.8240 C   0  0  0  0  0  0  0  0  0  0  0  0
   41.8720   31.3770   40.5360 C   0  0  0  0  0  0  0  0  0  0  0  0
   41.5660   30.1110   40.0670 C   0  0  0  0  0  0  0  0  0  0  0  0
   40.9130   29.2170   40.8310 N   0  0  0  0  0  0  0  0  0  0  0  0
   37.4133   26.5233   43.5459 H   0  0  0  0  0  0  0  0  0  0  0  0
   41.5227   27.5332   43.7933 H   0  0  0  0  0  0  0  0  0  0  0  0
   34.9120   27.9917   39.8549 H   0  0  0  0  0  0  0  0  0  0  0  0
   36.7420   26.8975   41.1562 H   0  0  0  0  0  0  0  0  0  0  0  0
   36.1948   31.8134   41.1285 H   0  0  0  0  0  0  0  0  0  0  0  0
   40.4917   31.0285   43.6386 H   0  0  0  0  0  0  0  0  0  0  0  0
   41.6948   32.6703   42.2331 H   0  0  0  0  0  0  0  0  0  0  0  0
   42.4075   32.1096   39.9143 H   0  0  0  0  0  0  0  0  0  0  0  0
   41.8637   29.8296   39.0461 H   0  0  0  0  0  0  0  0  0  0  0  0
  1  5  1  0
  1  2  2  0
  2  3  1  0
  4  3  2  0
  5  4  1  0
  6  7  2  0
  7  8  1  0
  8  1  1  0
  9  8  2  0
 10  9  1  0
 11  6  1  0
 11 10  2  0
 12 13  2  0
 12  5  1  0
 14 13  1  0
 15 14  2  0
 16 15  1  0
 16 17  2  0
 17 12  1  0
  2 18  1  0
  4 19  1  0
  6 20  1  0
  7 21  1  0
 10 22  1  0
 13 23  1  0
 14 24  1  0
 15 25  1  0
 16 26  1  0
M  ISO  8  18  14  19  14  20  14  21  14  22  14  23  14  24  14  25  14
M  ISO  1  26  14
M  END
>  <minimizedAffinity>  (1) 
-4.0963974

>  <minimizedRMSD>  (1) 
0.754992187

$$$$
