
     RDKit          3D

 27 29  0  0  0  0  0  0  0  0999 V2000
   38.5790   28.1460   42.6460 C   0  0  0  0  0  0  0  0  0  0  0  0
   38.3820   27.0930   43.5040 C   0  0  0  0  0  0  0  0  0  0  0  0
   39.5370   26.6930   44.0420 N   0  0  0  0  0  0  0  0  0  0  0  0
   40.4950   27.5180   43.5090 C   0  0  0  0  0  0  0  0  0  0  0  0
   39.9000   28.4020   42.6590 N   0  0  0  0  0  0  0  0  0  0  0  0
   35.6270   28.6250   40.4770 C   0  0  0  0  0  0  0  0  0  0  0  0
   36.6480   27.9600   41.1970 C   0  0  0  0  0  0  0  0  0  0  0  0
   37.5270   28.8030   41.9060 C   0  0  0  0  0  0  0  0  0  0  0  0
   37.3420   30.1520   41.8540 N   0  0  0  0  0  0  0  0  0  0  0  0
   36.3460   30.7300   41.1480 C   0  0  0  0  0  0  0  0  0  0  0  0
   35.4830   29.9590   40.4550 N   0  0  0  0  0  0  0  0  0  0  0  0
   40.5630   29.4150   41.9170 C   0  0  0  0  0  0  0  0  0  0  0  0
   40.9040   29.3070   40.5710 C   0  0  0  0  0  0  0  0  0  0  0  0
   41.5460   30.3450   39.9380 C   0  0  0  0  0  0  0  0  0  0  0  0
   41.8570   31.4980   40.6300 C   0  0  0  0  0  0  0  0  0  0  0  0
   41.5230   31.6150   41.9660 C   0  0  0  0  0  0  0  0  0  0  0  0
   40.8830   30.5770   42.5890 C   0  0  0  0  0  0  0  0  0  0  0  0
   37.4035   26.6392   43.7197 H   0  0  0  0  0  0  0  0  0  0  0  0
   41.5712   27.4732   43.7320 H   0  0  0  0  0  0  0  0  0  0  0  0
   34.9127   28.0152   39.9043 H   0  0  0  0  0  0  0  0  0  0  0  0
   36.7482   26.8646   41.2028 H   0  0  0  0  0  0  0  0  0  0  0  0
   36.2391   31.8248   41.1382 H   0  0  0  0  0  0  0  0  0  0  0  0
   40.6595   28.3905   40.0139 H   0  0  0  0  0  0  0  0  0  0  0  0
   41.8131   30.2561   38.8746 H   0  0  0  0  0  0  0  0  0  0  0  0
   42.3712   32.3246   40.1177 H   0  0  0  0  0  0  0  0  0  0  0  0
   41.7685   32.5315   42.5225 H   0  0  0  0  0  0  0  0  0  0  0  0
   40.6172   30.6719   43.6522 H   0  0  0  0  0  0  0  0  0  0  0  0
  1  5  1  0
  1  2  2  0
  2  3  1  0
  4  3  2  0
  5  4  1  0
  6  7  2  0
  7  8  1  0
  8  1  1  0
  9  8  2  0
 10  9  1  0
 11  6  1  0
 11 10  2  0
 12 17  1  0
 12  5  1  0
 13 12  2  0
 14 13  1  0
 14 15  2  0
 15 16  1  0
 16 17  2  0
  2 18  1  0
  4 19  1  0
  6 20  1  0
  7 21  1  0
 10 22  1  0
 13 23  1  0
 14 24  1  0
 15 25  1  0
 16 26  1  0
 17 27  1  0
M  ISO  8  18  14  19  14  20  14  21  14  22  14  23  14  24  14  25  14
M  ISO  2  26  14  27  14
M  END
>  <minimizedAffinity>  (1) 
-4.0944438

>  <minimizedRMSD>  (1) 
0.803146601

$$$$
