
     RDKit          3D

 24 26  0  0  0  0  0  0  0  0999 V2000
   38.5250   28.1870   42.5880 C   0  0  0  0  0  0  0  0  0  0  0  0
   38.3650   27.0690   43.3630 C   0  0  0  0  0  0  0  0  0  0  0  0
   39.5230   26.7010   43.9250 N   0  0  0  0  0  0  0  0  0  0  0  0
   40.4450   27.6110   43.4960 C   0  0  0  0  0  0  0  0  0  0  0  0
   39.8270   28.5050   42.6880 N   0  0  0  0  0  0  0  0  0  0  0  0
   35.6100   28.6540   40.3750 C   0  0  0  0  0  0  0  0  0  0  0  0
   36.6370   28.0110   41.1040 C   0  0  0  0  0  0  0  0  0  0  0  0
   37.4800   28.8410   41.8460 C   0  0  0  0  0  0  0  0  0  0  0  0
   37.2620   30.1820   41.8170 N   0  0  0  0  0  0  0  0  0  0  0  0
   36.2700   30.7620   41.1070 C   0  0  0  0  0  0  0  0  0  0  0  0
   35.4370   29.9920   40.3800 N   0  0  0  0  0  0  0  0  0  0  0  0
   40.3670   29.6390   41.9980 C   0  0  0  0  0  0  0  0  0  0  0  0
   40.6570   30.8730   42.5850 C   0  0  0  0  0  0  0  0  0  0  0  0
   41.1520   31.6420   41.5430 C   0  0  0  0  0  0  0  0  0  0  0  0
   41.1320   30.8420   40.4010 C   0  0  0  0  0  0  0  0  0  0  0  0
   40.6570   29.6640   40.7330 O   0  0  0  0  0  0  0  0  0  0  0  0
   37.4098   26.5423   43.5051 H   0  0  0  0  0  0  0  0  0  0  0  0
   41.5123   27.6173   43.7621 H   0  0  0  0  0  0  0  0  0  0  0  0
   34.9225   28.0367   39.7781 H   0  0  0  0  0  0  0  0  0  0  0  0
   36.7647   26.9186   41.0875 H   0  0  0  0  0  0  0  0  0  0  0  0
   36.1432   31.8546   41.1222 H   0  0  0  0  0  0  0  0  0  0  0  0
   40.5229   31.1679   43.6362 H   0  0  0  0  0  0  0  0  0  0  0  0
   41.4953   32.6852   41.6053 H   0  0  0  0  0  0  0  0  0  0  0  0
   41.4580   31.1456   39.3953 H   0  0  0  0  0  0  0  0  0  0  0  0
  1  5  1  0
  1  2  2  0
  2  3  1  0
  4  3  2  0
  5  4  1  0
  6 11  2  0
  6  7  1  0
  7  8  2  0
  8  1  1  0
  9  8  1  0
 10  9  2  0
 11 10  1  0
 12 13  2  0
 12  5  1  0
 14 13  1  0
 15 16  1  0
 15 14  2  0
 16 12  1  0
  2 17  1  0
  4 18  1  0
  6 19  1  0
  7 20  1  0
 10 21  1  0
 13 22  1  0
 14 23  1  0
 15 24  1  0
M  ISO  8  17  14  18  14  19  14  20  14  21  14  22  14  23  14  24  14
M  END
>  <minimizedAffinity>  (1) 
-3.99373627

>  <minimizedRMSD>  (1) 
0.342490017

$$$$
