
     RDKit          3D

 28 30  0  0  0  0  0  0  0  0999 V2000
   39.4400   31.5850   41.6090 C   0  0  0  0  0  0  0  0  0  0  0  0
   39.1690   31.7730   40.2160 C   0  0  0  0  0  0  0  0  0  0  0  0
   38.8490   30.6200   39.5300 C   0  0  0  0  0  0  0  0  0  0  0  0
   38.8080   29.4090   40.1770 N   0  0  0  0  0  0  0  0  0  0  0  0
   39.0720   29.2870   41.4870 C   0  0  0  0  0  0  0  0  0  0  0  0
   39.3870   30.3920   42.1880 N   0  0  0  0  0  0  0  0  0  0  0  0
   39.0340   28.0440   42.1700 N   0  0  0  0  0  0  0  0  0  0  0  0
   39.6300   27.5980   43.3020 C   0  0  0  0  0  0  0  0  0  0  0  0
   39.2600   26.3170   43.5220 N   0  0  0  0  0  0  0  0  0  0  0  0
   38.4310   25.9110   42.5560 C   0  0  0  0  0  0  0  0  0  0  0  0
   37.7440   24.7620   42.2380 C   0  0  0  0  0  0  0  0  0  0  0  0
   36.9580   24.6930   41.1330 N   0  0  0  0  0  0  0  0  0  0  0  0
   36.8240   25.7560   40.3060 C   0  0  0  0  0  0  0  0  0  0  0  0
   37.4930   26.8540   40.6290 N   0  0  0  0  0  0  0  0  0  0  0  0
   38.2920   26.9940   41.7120 C   0  0  0  0  0  0  0  0  0  0  0  0
   39.2450   33.0710   39.6610 N   0  0  0  0  0  0  0  0  0  0  0  0
   38.2910   34.0870   39.8670 C   0  0  0  0  0  0  0  0  0  0  0  0
   37.0360   33.6910   39.8880 N   0  0  0  0  0  0  0  0  0  0  0  0
   38.8170   35.4290   40.0290 N   0  0  0  0  0  0  0  0  0  0  0  0
   36.2660   34.3610   40.0070 H   0  0  0  0  0  0  0  0  0  0  0  0
   39.7015   32.4606   42.2213 H   0  0  0  0  0  0  0  0  0  0  0  0
   38.6245   30.6707   38.4544 H   0  0  0  0  0  0  0  0  0  0  0  0
   40.3070   28.1849   43.9401 H   0  0  0  0  0  0  0  0  0  0  0  0
   37.8333   23.8820   42.8919 H   0  0  0  0  0  0  0  0  0  0  0  0
   36.1899   25.7110   39.4083 H   0  0  0  0  0  0  0  0  0  0  0  0
   40.0552   33.2894   39.0637 H   0  0  0  0  0  0  0  0  0  0  0  0
   38.1742   36.2190   40.1831 H   0  0  0  0  0  0  0  0  0  0  0  0
   39.8333   35.5920   39.9900 H   0  0  0  0  0  0  0  0  0  0  0  0
  1  6  2  0
  2  1  1  0
  3  4  1  0
  3  2  2  0
  4  5  2  0
  5  7  1  0
  5  6  1  0
  7  8  1  0
  8  9  2  0
 10  9  1  0
 11 10  2  0
 12 11  1  0
 13 14  1  0
 13 12  2  0
 14 15  2  0
 15  7  1  0
 15 10  1  0
 16 17  1  0
 16  2  1  0
 17 18  2  0
 17 19  1  0
 18 20  1  0
  1 21  1  0
  3 22  1  0
  8 23  1  0
 11 24  1  0
 13 25  1  0
 16 26  1  0
 19 27  1  0
 19 28  1  0
M  ISO  5  21  14  22  14  23  14  24  14  25  14
M  END
>  <minimizedAffinity>  (1) 
-5.36919737

>  <minimizedRMSD>  (1) 
3.22638941

$$$$
