
     RDKit          3D

 20 21  0  0  0  0  0  0  0  0999 V2000
   35.5600   28.7280   40.4450 C   0  0  0  0  0  0  0  0  0  0  0  0
   36.5630   28.0140   41.1270 C   0  0  0  0  0  0  0  0  0  0  0  0
   37.5080   28.8000   41.8140 C   0  0  0  0  0  0  0  0  0  0  0  0
   37.3990   30.1540   41.7790 N   0  0  0  0  0  0  0  0  0  0  0  0
   36.4140   30.7890   41.1060 C   0  0  0  0  0  0  0  0  0  0  0  0
   35.4860   30.0740   40.4340 N   0  0  0  0  0  0  0  0  0  0  0  0
   38.5410   28.0770   42.5160 C   0  0  0  0  0  0  0  0  0  0  0  0
   38.3330   27.3150   43.6480 C   0  0  0  0  0  0  0  0  0  0  0  0
   39.4780   26.7630   44.0750 N   0  0  0  0  0  0  0  0  0  0  0  0
   40.4230   27.1920   43.1900 C   0  0  0  0  0  0  0  0  0  0  0  0
   39.8520   27.9880   42.2440 N   0  0  0  0  0  0  0  0  0  0  0  0
   40.5470   28.6130   41.1610 C   0  0  0  0  0  0  0  0  0  0  0  0
   34.7977   28.1588   39.8929 H   0  0  0  0  0  0  0  0  0  0  0  0
   36.6058   26.9148   41.1236 H   0  0  0  0  0  0  0  0  0  0  0  0
   36.3681   31.8880   41.1055 H   0  0  0  0  0  0  0  0  0  0  0  0
   37.3565   27.1785   44.1356 H   0  0  0  0  0  0  0  0  0  0  0  0
   41.4911   26.9327   43.2340 H   0  0  0  0  0  0  0  0  0  0  0  0
   41.3089   29.2982   41.5610 H   0  0  0  0  0  0  0  0  0  0  0  0
   41.0338   27.8429   40.5446 H   0  0  0  0  0  0  0  0  0  0  0  0
   39.8327   29.1785   40.5446 H   0  0  0  0  0  0  0  0  0  0  0  0
  1  2  2  0
  2  3  1  0
  3  7  1  0
  4  3  2  0
  5  4  1  0
  6  1  1  0
  6  5  2  0
  7  8  2  0
  8  9  1  0
 10  9  2  0
 11  7  1  0
 11 10  1  0
 12 11  1  0
  1 13  1  0
  2 14  1  0
  5 15  1  0
  8 16  1  0
 10 17  1  0
 12 18  1  0
 12 19  1  0
 12 20  1  0
M  ISO  8  13  14  14  14  15  14  16  14  17  14  18   8  19   8  20   8
M  END
>  <minimizedAffinity>  (1) 
-3.45126796

>  <minimizedRMSD>  (1) 
0.462593645

$$$$
