
     RDKit          3D

 38 42  0  0  0  0  0  0  0  0999 V2000
   40.5000   29.5600   42.0510 C   0  0  0  0  0  0  0  0  0  0  0  0
   40.7360   30.7820   42.6310 C   0  0  0  0  0  0  0  0  0  0  0  0
   41.3620   31.7930   41.9180 C   0  0  0  0  0  0  0  0  0  0  0  0
   41.7240   31.5460   40.6600 N   0  0  0  0  0  0  0  0  0  0  0  0
   41.5070   30.3540   40.0560 C   0  0  0  0  0  0  0  0  0  0  0  0
   40.9040   29.3900   40.7560 N   0  0  0  0  0  0  0  0  0  0  0  0
   41.9090   30.1230   38.7100 N   0  0  0  0  0  0  0  0  0  0  0  0
   41.2330   29.3110   37.8530 C   0  0  0  0  0  0  0  0  0  0  0  0
   41.8760   29.3090   36.6530 N   0  0  0  0  0  0  0  0  0  0  0  0
   42.9400   30.1200   36.7810 C   0  0  0  0  0  0  0  0  0  0  0  0
   43.9580   30.5260   35.9440 C   0  0  0  0  0  0  0  0  0  0  0  0
   44.9360   31.3800   36.3490 N   0  0  0  0  0  0  0  0  0  0  0  0
   44.9320   31.8680   37.6230 C   0  0  0  0  0  0  0  0  0  0  0  0
   43.9460   31.4800   38.4500 N   0  0  0  0  0  0  0  0  0  0  0  0
   42.9730   30.6360   38.0640 C   0  0  0  0  0  0  0  0  0  0  0  0
   38.5700   28.1080   42.5490 C   0  0  0  0  0  0  0  0  0  0  0  0
   38.4260   26.9720   43.3240 C   0  0  0  0  0  0  0  0  0  0  0  0
   39.5880   26.6150   43.9070 N   0  0  0  0  0  0  0  0  0  0  0  0
   40.4730   27.5430   43.4910 C   0  0  0  0  0  0  0  0  0  0  0  0
   39.8660   28.4400   42.6760 N   0  0  0  0  0  0  0  0  0  0  0  0
   35.7080   28.5120   40.2680 C   0  0  0  0  0  0  0  0  0  0  0  0
   36.7320   27.9010   40.9910 C   0  0  0  0  0  0  0  0  0  0  0  0
   37.5190   28.7290   41.8070 C   0  0  0  0  0  0  0  0  0  0  0  0
   37.2330   30.0660   41.8420 N   0  0  0  0  0  0  0  0  0  0  0  0
   36.2280   30.6130   41.1230 C   0  0  0  0  0  0  0  0  0  0  0  0
   35.4630   29.8400   40.3340 N   0  0  0  0  0  0  0  0  0  0  0  0
   44.0190   30.0530   34.6030 N   0  0  0  0  0  0  0  0  0  0  0  0
   40.4255   30.9605   43.6711 H   0  0  0  0  0  0  0  0  0  0  0  0
   41.5546   32.7730   42.3789 H   0  0  0  0  0  0  0  0  0  0  0  0
   40.3178   28.7488   38.0905 H   0  0  0  0  0  0  0  0  0  0  0  0
   45.7152   32.5608   37.9645 H   0  0  0  0  0  0  0  0  0  0  0  0
   37.4792   26.4263   43.4495 H   0  0  0  0  0  0  0  0  0  0  0  0
   41.5360   27.5686   43.7728 H   0  0  0  0  0  0  0  0  0  0  0  0
   35.0750   27.8893   39.6187 H   0  0  0  0  0  0  0  0  0  0  0  0
   36.9150   26.8183   40.9249 H   0  0  0  0  0  0  0  0  0  0  0  0
   36.0357   31.6943   41.1839 H   0  0  0  0  0  0  0  0  0  0  0  0
   43.2996   29.4045   34.2524 H   0  0  0  0  0  0  0  0  0  0  0  0
   44.7825   30.3592   33.9831 H   0  0  0  0  0  0  0  0  0  0  0  0
  1  2  2  0
  1 20  1  0
  3  2  1  0
  4  3  2  0
  5  4  1  0
  5  6  2  0
  6  1  1  0
  7  5  1  0
  8  7  1  0
  9 10  1  0
  9  8  2  0
 10 15  2  0
 11 12  2  0
 11 10  1  0
 12 13  1  0
 13 14  2  0
 15 14  1  0
 15  7  1  0
 16 20  1  0
 16 17  2  0
 17 18  1  0
 19 18  2  0
 20 19  1  0
 21 26  2  0
 21 22  1  0
 22 23  2  0
 23 24  1  0
 23 16  1  0
 25 24  2  0
 26 25  1  0
 27 11  1  0
  2 28  1  0
  3 29  1  0
  8 30  1  0
 13 31  1  0
 17 32  1  0
 19 33  1  0
 21 34  1  0
 22 35  1  0
 25 36  1  0
 27 37  1  0
 27 38  1  0
M  ISO  8  28  14  29  14  30  14  31  14  32  14  33  14  34  14  35  14
M  ISO  1  36  14
M  END
>  <minimizedAffinity>  (1) 
-5.80776501

>  <minimizedRMSD>  (1) 
0.258762002

$$$$
