
     RDKit          3D

 38 41  0  0  0  0  0  0  0  0999 V2000
   40.5180   29.5860   42.0620 C   0  0  0  0  0  0  0  0  0  0  0  0
   40.6670   30.8190   42.6380 C   0  0  0  0  0  0  0  0  0  0  0  0
   41.2920   31.8360   41.9480 C   0  0  0  0  0  0  0  0  0  0  0  0
   41.7490   31.5970   40.7060 N   0  0  0  0  0  0  0  0  0  0  0  0
   41.6140   30.3840   40.1150 C   0  0  0  0  0  0  0  0  0  0  0  0
   41.0050   29.4060   40.7970 N   0  0  0  0  0  0  0  0  0  0  0  0
   42.0950   30.1390   38.8140 N   0  0  0  0  0  0  0  0  0  0  0  0
   42.9970   29.1990   38.4840 C   0  0  0  0  0  0  0  0  0  0  0  0
   43.3420   29.1120   37.1560 C   0  0  0  0  0  0  0  0  0  0  0  0
   44.3310   28.0990   36.7220 C   0  0  0  0  0  0  0  0  0  0  0  0
   42.8060   29.9380   36.1790 C   0  0  0  0  0  0  0  0  0  0  0  0
   43.1610   29.8130   34.9710 O   0  0  0  0  0  0  0  0  0  0  0  0
   41.8940   30.8720   36.5780 N   0  0  0  0  0  0  0  0  0  0  0  0
   41.5650   30.9440   37.8920 C   0  0  0  0  0  0  0  0  0  0  0  0
   40.7070   31.8570   38.1150 O   0  0  0  0  0  0  0  0  0  0  0  0
   38.5960   28.1060   42.5300 C   0  0  0  0  0  0  0  0  0  0  0  0
   38.4470   26.9510   43.2830 C   0  0  0  0  0  0  0  0  0  0  0  0
   39.6140   26.5960   43.8640 N   0  0  0  0  0  0  0  0  0  0  0  0
   40.5010   27.5370   43.4690 C   0  0  0  0  0  0  0  0  0  0  0  0
   39.8910   28.4480   42.6670 N   0  0  0  0  0  0  0  0  0  0  0  0
   35.7300   28.5220   40.2360 C   0  0  0  0  0  0  0  0  0  0  0  0
   36.7630   27.9090   40.9620 C   0  0  0  0  0  0  0  0  0  0  0  0
   37.5490   28.7330   41.7960 C   0  0  0  0  0  0  0  0  0  0  0  0
   37.2520   30.0520   41.8390 N   0  0  0  0  0  0  0  0  0  0  0  0
   36.2460   30.6170   41.1260 C   0  0  0  0  0  0  0  0  0  0  0  0
   35.4880   29.8370   40.3240 N   0  0  0  0  0  0  0  0  0  0  0  0
   40.2869   30.9989   43.6545 H   0  0  0  0  0  0  0  0  0  0  0  0
   41.4150   32.8282   42.4066 H   0  0  0  0  0  0  0  0  0  0  0  0
   43.4377   28.5319   39.2395 H   0  0  0  0  0  0  0  0  0  0  0  0
   44.7882   27.6307   37.6061 H   0  0  0  0  0  0  0  0  0  0  0  0
   43.8271   27.3295   36.1188 H   0  0  0  0  0  0  0  0  0  0  0  0
   45.1124   28.5843   36.1188 H   0  0  0  0  0  0  0  0  0  0  0  0
   41.4635   31.5104   35.8939 H   0  0  0  0  0  0  0  0  0  0  0  0
   37.5031   26.3969   43.3928 H   0  0  0  0  0  0  0  0  0  0  0  0
   41.5627   27.5613   43.7556 H   0  0  0  0  0  0  0  0  0  0  0  0
   35.1015   27.9057   39.5763 H   0  0  0  0  0  0  0  0  0  0  0  0
   36.9527   26.8283   40.8841 H   0  0  0  0  0  0  0  0  0  0  0  0
   36.0496   31.6968   41.1997 H   0  0  0  0  0  0  0  0  0  0  0  0
  1  2  2  0
  1 20  1  0
  3  2  1  0
  4  3  2  0
  5  4  1  0
  5  6  2  0
  6  1  1  0
  7  5  1  0
  8  7  1  0
  9  8  2  0
 10  9  1  0
 11 13  1  0
 11  9  1  0
 12 11  2  0
 13 14  1  0
 14 15  2  0
 14  7  1  0
 16 20  1  0
 16 17  2  0
 17 18  1  0
 19 18  2  0
 20 19  1  0
 21 26  2  0
 21 22  1  0
 22 23  2  0
 23 24  1  0
 23 16  1  0
 25 24  2  0
 26 25  1  0
  2 27  1  0
  3 28  1  0
  8 29  1  0
 10 30  1  0
 10 31  1  0
 10 32  1  0
 13 33  1  0
 17 34  1  0
 19 35  1  0
 21 36  1  0
 22 37  1  0
 25 38  1  0
M  ISO  8  27  14  28  14  29  14  30   8  31   8  32   8  33   9  34  14
M  ISO  4  35  14  36  14  37  14  38  14
M  END
>  <minimizedAffinity>  (1) 
-5.66569901

>  <minimizedRMSD>  (1) 
0.34721604

$$$$
