
     RDKit          3D

 35 38  0  0  0  0  0  0  0  0999 V2000
   40.5360   29.5950   42.0290 C   0  0  0  0  0  0  0  0  0  0  0  0
   40.7810   30.8070   42.6360 C   0  0  0  0  0  0  0  0  0  0  0  0
   41.3870   31.8360   41.9360 C   0  0  0  0  0  0  0  0  0  0  0  0
   41.7260   31.6270   40.6690 N   0  0  0  0  0  0  0  0  0  0  0  0
   41.5010   30.4500   40.0450 C   0  0  0  0  0  0  0  0  0  0  0  0
   40.9130   29.4570   40.7300 N   0  0  0  0  0  0  0  0  0  0  0  0
   41.8740   30.2480   38.6830 N   0  0  0  0  0  0  0  0  0  0  0  0
   43.0800   30.7050   38.3570 C   0  0  0  0  0  0  0  0  0  0  0  0
   43.5870   30.5870   37.0760 C   0  0  0  0  0  0  0  0  0  0  0  0
   42.7550   29.9580   36.1480 C   0  0  0  0  0  0  0  0  0  0  0  0
   43.2070   29.8450   34.9800 O   0  0  0  0  0  0  0  0  0  0  0  0
   41.5440   29.5140   36.5290 N   0  0  0  0  0  0  0  0  0  0  0  0
   41.0730   29.6410   37.7830 C   0  0  0  0  0  0  0  0  0  0  0  0
   39.9420   29.2270   38.1430 O   0  0  0  0  0  0  0  0  0  0  0  0
   38.6280   28.1110   42.5280 C   0  0  0  0  0  0  0  0  0  0  0  0
   38.4920   26.9640   43.2800 C   0  0  0  0  0  0  0  0  0  0  0  0
   39.6640   26.6100   43.8440 N   0  0  0  0  0  0  0  0  0  0  0  0
   40.5440   27.5540   43.4340 C   0  0  0  0  0  0  0  0  0  0  0  0
   39.9250   28.4690   42.6370 N   0  0  0  0  0  0  0  0  0  0  0  0
   35.7380   28.5260   40.2580 C   0  0  0  0  0  0  0  0  0  0  0  0
   36.7750   27.9110   40.9750 C   0  0  0  0  0  0  0  0  0  0  0  0
   37.5660   28.7520   41.7970 C   0  0  0  0  0  0  0  0  0  0  0  0
   37.2710   30.0730   41.8350 N   0  0  0  0  0  0  0  0  0  0  0  0
   36.2530   30.6260   41.1210 C   0  0  0  0  0  0  0  0  0  0  0  0
   35.4920   29.8480   40.3370 N   0  0  0  0  0  0  0  0  0  0  0  0
   40.4924   30.9585   43.6866 H   0  0  0  0  0  0  0  0  0  0  0  0
   41.5834   32.8050   42.4182 H   0  0  0  0  0  0  0  0  0  0  0  0
   43.6927   31.1917   39.1302 H   0  0  0  0  0  0  0  0  0  0  0  0
   44.5838   30.9652   36.8050 H   0  0  0  0  0  0  0  0  0  0  0  0
   40.9477   29.0541   35.8262 H   0  0  0  0  0  0  0  0  0  0  0  0
   37.5499   26.4098   43.4038 H   0  0  0  0  0  0  0  0  0  0  0  0
   41.6095   27.5785   43.7064 H   0  0  0  0  0  0  0  0  0  0  0  0
   35.1029   27.9064   39.6078 H   0  0  0  0  0  0  0  0  0  0  0  0
   36.9648   26.8299   40.9029 H   0  0  0  0  0  0  0  0  0  0  0  0
   36.0551   31.7061   41.1865 H   0  0  0  0  0  0  0  0  0  0  0  0
  1  2  2  0
  1 19  1  0
  3  2  1  0
  4  3  2  0
  5  4  1  0
  5  6  2  0
  6  1  1  0
  7  5  1  0
  8  7  1  0
  9  8  2  0
 10 12  1  0
 10  9  1  0
 11 10  2  0
 12 13  1  0
 13 14  2  0
 13  7  1  0
 15 19  1  0
 15 16  2  0
 16 17  1  0
 18 17  2  0
 19 18  1  0
 20 25  2  0
 20 21  1  0
 21 22  2  0
 22 23  1  0
 22 15  1  0
 24 23  2  0
 25 24  1  0
  2 26  1  0
  3 27  1  0
  8 28  1  0
  9 29  1  0
 12 30  1  0
 16 31  1  0
 18 32  1  0
 20 33  1  0
 21 34  1  0
 24 35  1  0
M  ISO  8  26  14  27  14  28  14  29  14  30   9  31  14  32  14  33  14
M  ISO  2  34  14  35  14
M  END
>  <minimizedAffinity>  (1) 
-5.5780201

>  <minimizedRMSD>  (1) 
0.307436526

$$$$
