
     RDKit          3D

 29 29  0  0  0  0  0  0  0  0999 V2000
   39.0910   30.7760   41.9700 C   0  0  0  0  0  0  0  0  0  0  0  0
   38.5410   30.8260   40.6490 C   0  0  0  0  0  0  0  0  0  0  0  0
   37.7430   29.7360   40.3080 C   0  0  0  0  0  0  0  0  0  0  0  0
   37.5340   28.7270   41.1990 N   0  0  0  0  0  0  0  0  0  0  0  0
   38.0770   28.7400   42.4200 C   0  0  0  0  0  0  0  0  0  0  0  0
   38.8450   29.7530   42.7990 N   0  0  0  0  0  0  0  0  0  0  0  0
   38.8320   31.9300   39.8130 N   0  0  0  0  0  0  0  0  0  0  0  0
   38.2180   33.2020   39.9160 C   0  0  0  0  0  0  0  0  0  0  0  0
   36.9360   33.1920   40.2020 N   0  0  0  0  0  0  0  0  0  0  0  0
   39.0840   34.3310   39.6930 N   0  0  0  0  0  0  0  0  0  0  0  0
   36.4040   34.0700   40.2990 H   0  0  0  0  0  0  0  0  0  0  0  0
   37.8070   27.6080   43.3460 C   0  0  0  0  0  0  0  0  0  0  0  0
   36.9760   26.5450   42.6330 C   0  0  0  0  0  0  0  0  0  0  0  0
   36.9640   28.1450   44.4830 C   0  0  0  0  0  0  0  0  0  0  0  0
   39.0820   26.9730   43.8590 C   0  0  0  0  0  0  0  0  0  0  0  0
   39.7332   31.6003   42.3136 H   0  0  0  0  0  0  0  0  0  0  0  0
   37.2783   29.6899   39.3120 H   0  0  0  0  0  0  0  0  0  0  0  0
   39.5408   31.7991   39.0772 H   0  0  0  0  0  0  0  0  0  0  0  0
   38.7078   35.2881   39.7514 H   0  0  0  0  0  0  0  0  0  0  0  0
   40.0795   34.1813   39.4751 H   0  0  0  0  0  0  0  0  0  0  0  0
   36.4779   25.9079   43.3786 H   0  0  0  0  0  0  0  0  0  0  0  0
   36.2180   27.0336   42.0032 H   0  0  0  0  0  0  0  0  0  0  0  0
   37.6331   25.9273   42.0032 H   0  0  0  0  0  0  0  0  0  0  0  0
   37.4168   27.8566   45.4431 H   0  0  0  0  0  0  0  0  0  0  0  0
   36.9139   29.2418   44.4160 H   0  0  0  0  0  0  0  0  0  0  0  0
   35.9488   27.7268   44.4160 H   0  0  0  0  0  0  0  0  0  0  0  0
   39.0762   26.9759   44.9590 H   0  0  0  0  0  0  0  0  0  0  0  0
   39.1477   25.9369   43.4954 H   0  0  0  0  0  0  0  0  0  0  0  0
   39.9485   27.5448   43.4954 H   0  0  0  0  0  0  0  0  0  0  0  0
  1  6  2  0
  2  1  1  0
  3  2  2  0
  3  4  1  0
  4  5  2  0
  5  6  1  0
  5 12  1  0
  7  8  1  0
  7  2  1  0
  8  9  2  0
  9 11  1  0
 10  8  1  0
 12 15  1  0
 12 14  1  0
 13 12  1  0
  1 16  1  0
  3 17  1  0
  7 18  1  0
 10 19  1  0
 10 20  1  0
 13 21  1  0
 13 22  1  0
 13 23  1  0
 14 24  1  0
 14 25  1  0
 14 26  1  0
 15 27  1  0
 15 28  1  0
 15 29  1  0
M  ISO  8  16  14  17  14  21   8  22   8  23   8  24   8  25   8  26   8
M  ISO  3  27   8  28   8  29   8
M  END
>  <minimizedAffinity>  (1) 
-5.04949665

>  <minimizedRMSD>  (1) 
2.14738536

$$$$
