
     RDKit          3D

 35 38  0  0  0  0  0  0  0  0999 V2000
   38.6330   28.1390   42.6260 C   0  0  0  0  0  0  0  0  0  0  0  0
   38.4760   27.0140   43.4140 C   0  0  0  0  0  0  0  0  0  0  0  0
   39.6440   26.6300   43.9570 N   0  0  0  0  0  0  0  0  0  0  0  0
   40.5550   27.5270   43.5060 C   0  0  0  0  0  0  0  0  0  0  0  0
   39.9480   28.4320   42.7080 N   0  0  0  0  0  0  0  0  0  0  0  0
   35.6630   28.6070   40.5040 C   0  0  0  0  0  0  0  0  0  0  0  0
   36.6920   27.9710   41.2110 C   0  0  0  0  0  0  0  0  0  0  0  0
   37.5900   28.7990   41.9100 C   0  0  0  0  0  0  0  0  0  0  0  0
   37.3990   30.1310   41.8500 N   0  0  0  0  0  0  0  0  0  0  0  0
   36.3920   30.7140   41.1550 C   0  0  0  0  0  0  0  0  0  0  0  0
   35.5220   29.9410   40.4810 N   0  0  0  0  0  0  0  0  0  0  0  0
   40.5950   29.5250   42.0550 C   0  0  0  0  0  0  0  0  0  0  0  0
   40.8820   30.7510   42.6220 C   0  0  0  0  0  0  0  0  0  0  0  0
   41.5180   31.7300   41.8700 C   0  0  0  0  0  0  0  0  0  0  0  0
   41.8390   31.4630   40.6080 N   0  0  0  0  0  0  0  0  0  0  0  0
   41.5710   30.2770   40.0280 C   0  0  0  0  0  0  0  0  0  0  0  0
   40.9600   29.3320   40.7480 N   0  0  0  0  0  0  0  0  0  0  0  0
   41.9100   29.9540   38.6480 C   0  0  0  0  0  0  0  0  0  0  0  0
   42.4580   30.9610   37.8700 C   0  0  0  0  0  0  0  0  0  0  0  0
   42.8410   30.8410   36.5430 C   0  0  0  0  0  0  0  0  0  0  0  0
   42.6300   29.5710   36.0090 C   0  0  0  0  0  0  0  0  0  0  0  0
   42.0870   28.5520   36.7600 C   0  0  0  0  0  0  0  0  0  0  0  0
   41.7270   28.7290   38.0700 C   0  0  0  0  0  0  0  0  0  0  0  0
   37.5176   26.4989   43.5759 H   0  0  0  0  0  0  0  0  0  0  0  0
   41.6269   27.5190   43.7528 H   0  0  0  0  0  0  0  0  0  0  0  0
   34.9435   27.9892   39.9467 H   0  0  0  0  0  0  0  0  0  0  0  0
   36.7932   26.8757   41.2193 H   0  0  0  0  0  0  0  0  0  0  0  0
   36.2873   31.8089   41.1423 H   0  0  0  0  0  0  0  0  0  0  0  0
   40.6072   30.9519   43.6680 H   0  0  0  0  0  0  0  0  0  0  0  0
   41.7522   32.7100   42.3113 H   0  0  0  0  0  0  0  0  0  0  0  0
   42.6018   31.9417   38.3470 H   0  0  0  0  0  0  0  0  0  0  0  0
   43.2718   31.6717   35.9647 H   0  0  0  0  0  0  0  0  0  0  0  0
   42.9040   29.3776   34.9614 H   0  0  0  0  0  0  0  0  0  0  0  0
   41.9380   27.5668   36.2941 H   0  0  0  0  0  0  0  0  0  0  0  0
   41.2971   27.8977   38.6480 H   0  0  0  0  0  0  0  0  0  0  0  0
  1  5  1  0
  1  2  2  0
  2  3  1  0
  4  3  2  0
  5  4  1  0
  6  7  2  0
  7  8  1  0
  8  1  1  0
  9  8  2  0
 10  9  1  0
 11  6  1  0
 11 10  2  0
 12 13  2  0
 12  5  1  0
 14 13  1  0
 15 14  2  0
 16 15  1  0
 16 17  2  0
 17 12  1  0
 18 16  1  0
 19 18  2  0
 20 19  1  0
 21 20  2  0
 21 22  1  0
 22 23  2  0
 23 18  1  0
  2 24  1  0
  4 25  1  0
  6 26  1  0
  7 27  1  0
 10 28  1  0
 13 29  1  0
 14 30  1  0
 19 31  1  0
 20 32  1  0
 21 33  1  0
 22 34  1  0
 23 35  1  0
M  ISO  8  24  14  25  14  26  14  27  14  28  14  29  14  30  14  31  14
M  ISO  4  32  14  33  14  34  14  35  14
M  END
>  <minimizedAffinity>  (1) 
-4.87549925

>  <minimizedRMSD>  (1) 
0.445777118

$$$$
