
     RDKit          3D

 41 44  0  0  0  0  0  0  0  0999 V2000
   38.5700   28.1390   42.6410 C   0  0  0  0  0  0  0  0  0  0  0  0
   38.3810   27.0310   43.4420 C   0  0  0  0  0  0  0  0  0  0  0  0
   39.5410   26.6470   44.0040 N   0  0  0  0  0  0  0  0  0  0  0  0
   40.4550   27.5190   43.5490 C   0  0  0  0  0  0  0  0  0  0  0  0
   39.8780   28.4310   42.7210 N   0  0  0  0  0  0  0  0  0  0  0  0
   35.6190   28.6320   40.4650 C   0  0  0  0  0  0  0  0  0  0  0  0
   36.6380   27.9780   41.1840 C   0  0  0  0  0  0  0  0  0  0  0  0
   37.5250   28.7910   41.9020 C   0  0  0  0  0  0  0  0  0  0  0  0
   37.3440   30.1420   41.8540 N   0  0  0  0  0  0  0  0  0  0  0  0
   36.3390   30.7290   41.1400 C   0  0  0  0  0  0  0  0  0  0  0  0
   35.4910   29.9600   40.4550 N   0  0  0  0  0  0  0  0  0  0  0  0
   40.5430   29.4980   42.0610 C   0  0  0  0  0  0  0  0  0  0  0  0
   40.8050   30.7360   42.5960 C   0  0  0  0  0  0  0  0  0  0  0  0
   41.4600   31.7010   41.8590 C   0  0  0  0  0  0  0  0  0  0  0  0
   41.8360   31.3970   40.6060 N   0  0  0  0  0  0  0  0  0  0  0  0
   41.5900   30.1910   40.0650 C   0  0  0  0  0  0  0  0  0  0  0  0
   40.9580   29.2630   40.7760 N   0  0  0  0  0  0  0  0  0  0  0  0
   42.0430   29.9540   38.6800 C   0  0  0  0  0  0  0  0  0  0  0  0
   41.8640   31.1330   37.7830 C   0  0  0  0  0  0  0  0  0  0  0  0
   42.5950   30.8710   36.4840 C   0  0  0  0  0  0  0  0  0  0  0  0
   42.8760   29.3910   36.2770 C   0  0  0  0  0  0  0  0  0  0  0  0
   41.5810   28.6640   36.6010 C   0  0  0  0  0  0  0  0  0  0  0  0
   41.3320   28.7420   38.0780 C   0  0  0  0  0  0  0  0  0  0  0  0
   37.4141   26.5306   43.5992 H   0  0  0  0  0  0  0  0  0  0  0  0
   41.5234   27.4987   43.8099 H   0  0  0  0  0  0  0  0  0  0  0  0
   34.9026   28.0261   39.8908 H   0  0  0  0  0  0  0  0  0  0  0  0
   36.7330   26.8821   41.1821 H   0  0  0  0  0  0  0  0  0  0  0  0
   36.2298   31.8235   41.1297 H   0  0  0  0  0  0  0  0  0  0  0  0
   40.4885   30.9607   43.6252 H   0  0  0  0  0  0  0  0  0  0  0  0
   41.6687   32.6929   42.2862 H   0  0  0  0  0  0  0  0  0  0  0  0
   43.1241   29.7627   38.7488 H   0  0  0  0  0  0  0  0  0  0  0  0
   40.7935   31.2850   37.5809 H   0  0  0  0  0  0  0  0  0  0  0  0
   42.2688   32.0351   38.2651 H   0  0  0  0  0  0  0  0  0  0  0  0
   41.9779   31.2354   35.6495 H   0  0  0  0  0  0  0  0  0  0  0  0
   43.5599   31.3976   36.5249 H   0  0  0  0  0  0  0  0  0  0  0  0
   43.1694   29.2008   35.2340 H   0  0  0  0  0  0  0  0  0  0  0  0
   43.7005   29.0461   36.9182 H   0  0  0  0  0  0  0  0  0  0  0  0
   40.7476   29.1374   36.0612 H   0  0  0  0  0  0  0  0  0  0  0  0
   41.6596   27.6109   36.2931 H   0  0  0  0  0  0  0  0  0  0  0  0
   40.2505   28.8310   38.2581 H   0  0  0  0  0  0  0  0  0  0  0  0
   41.7229   27.8297   38.5523 H   0  0  0  0  0  0  0  0  0  0  0  0
  1  5  1  0
  1  2  2  0
  2  3  1  0
  4  3  2  0
  5  4  1  0
  6  7  2  0
  7  8  1  0
  8  1  1  0
  9  8  2  0
 10  9  1  0
 11  6  1  0
 11 10  2  0
 12 13  2  0
 12  5  1  0
 14 13  1  0
 15 14  2  0
 16 15  1  0
 16 17  2  0
 17 12  1  0
 18 16  1  0
 19 18  1  0
 20 19  1  0
 21 20  1  0
 21 22  1  0
 22 23  1  0
 23 18  1  0
  2 24  1  0
  4 25  1  0
  6 26  1  0
  7 27  1  0
 10 28  1  0
 13 29  1  0
 14 30  1  0
 18 31  1  0
 19 32  1  0
 19 33  1  0
 20 34  1  0
 20 35  1  0
 21 36  1  0
 21 37  1  0
 22 38  1  0
 22 39  1  0
 23 40  1  0
 23 41  1  0
M  ISO  8  24  14  25  14  26  14  27  14  28  14  29  14  30  14  31  13
M  ISO  8  32  13  33  13  34  13  35  13  36  13  37  13  38  13  39  13
M  ISO  2  40  13  41  13
M  END
>  <minimizedAffinity>  (1) 
-4.84798765

>  <minimizedRMSD>  (1) 
0.107140653

$$$$
