
     RDKit          3D

 32 35  0  0  0  0  0  0  0  0999 V2000
   38.5400   28.2220   42.5710 C   0  0  0  0  0  0  0  0  0  0  0  0
   38.3510   27.1050   43.3810 C   0  0  0  0  0  0  0  0  0  0  0  0
   39.5270   26.7150   43.9290 N   0  0  0  0  0  0  0  0  0  0  0  0
   40.4430   27.5810   43.4630 C   0  0  0  0  0  0  0  0  0  0  0  0
   39.8560   28.4950   42.6420 N   0  0  0  0  0  0  0  0  0  0  0  0
   40.5220   29.5620   41.9720 C   0  0  0  0  0  0  0  0  0  0  0  0
   40.8940   30.7660   42.5420 C   0  0  0  0  0  0  0  0  0  0  0  0
   41.5350   31.7260   41.7920 C   0  0  0  0  0  0  0  0  0  0  0  0
   41.7880   31.4610   40.4970 N   0  0  0  0  0  0  0  0  0  0  0  0
   41.4340   30.2890   39.9120 C   0  0  0  0  0  0  0  0  0  0  0  0
   40.8110   29.3670   40.6600 N   0  0  0  0  0  0  0  0  0  0  0  0
   41.7590   30.1410   38.5480 N   0  0  0  0  0  0  0  0  0  0  0  0
   42.3930   31.0780   37.8190 C   0  0  0  0  0  0  0  0  0  0  0  0
   42.5420   30.5970   36.5430 C   0  0  0  0  0  0  0  0  0  0  0  0
   41.9930   29.3640   36.5020 N   0  0  0  0  0  0  0  0  0  0  0  0
   41.5200   29.0990   37.7320 C   0  0  0  0  0  0  0  0  0  0  0  0
   35.5840   28.7110   40.4230 C   0  0  0  0  0  0  0  0  0  0  0  0
   36.6080   28.0700   41.1350 C   0  0  0  0  0  0  0  0  0  0  0  0
   37.5010   28.8780   41.8470 C   0  0  0  0  0  0  0  0  0  0  0  0
   37.3180   30.2260   41.8010 N   0  0  0  0  0  0  0  0  0  0  0  0
   36.3200   30.8170   41.1030 C   0  0  0  0  0  0  0  0  0  0  0  0
   35.4530   30.0600   40.4150 N   0  0  0  0  0  0  0  0  0  0  0  0
   37.3838   26.6096   43.5517 H   0  0  0  0  0  0  0  0  0  0  0  0
   41.5147   27.5551   43.7098 H   0  0  0  0  0  0  0  0  0  0  0  0
   40.6759   30.9580   43.6029 H   0  0  0  0  0  0  0  0  0  0  0  0
   41.8329   32.6855   42.2399 H   0  0  0  0  0  0  0  0  0  0  0  0
   42.7326   32.0589   38.1830 H   0  0  0  0  0  0  0  0  0  0  0  0
   43.0224   31.1215   35.7039 H   0  0  0  0  0  0  0  0  0  0  0  0
   41.0130   28.1685   38.0272 H   0  0  0  0  0  0  0  0  0  0  0  0
   34.8663   28.1013   39.8545 H   0  0  0  0  0  0  0  0  0  0  0  0
   36.7054   26.9743   41.1337 H   0  0  0  0  0  0  0  0  0  0  0  0
   36.2208   31.9125   41.1002 H   0  0  0  0  0  0  0  0  0  0  0  0
  1  5  1  0
  1  2  2  0
  2  3  1  0
  4  3  2  0
  5  4  1  0
  6  7  2  0
  6  5  1  0
  8  7  1  0
  9  8  2  0
 10  9  1  0
 10 11  2  0
 11  6  1  0
 12 10  1  0
 13 12  1  0
 14 13  2  0
 15 14  1  0
 15 16  2  0
 16 12  1  0
 17 18  2  0
 18 19  1  0
 19  1  1  0
 20 19  2  0
 21 20  1  0
 22 17  1  0
 22 21  2  0
  2 23  1  0
  4 24  1  0
  7 25  1  0
  8 26  1  0
 13 27  1  0
 14 28  1  0
 16 29  1  0
 17 30  1  0
 18 31  1  0
 21 32  1  0
M  ISO  8  23  14  24  14  25  14  26  14  27  14  28  14  29  14  30  14
M  ISO  2  31  14  32  14
M  END
>  <minimizedAffinity>  (1) 
-4.84601736

>  <minimizedRMSD>  (1) 
0.190222695

$$$$
