
     RDKit          3D

 31 34  0  0  0  0  0  0  0  0999 V2000
   38.5390   28.2160   42.5510 C   0  0  0  0  0  0  0  0  0  0  0  0
   38.3670   27.0910   43.3450 C   0  0  0  0  0  0  0  0  0  0  0  0
   39.5180   26.6940   43.9000 N   0  0  0  0  0  0  0  0  0  0  0  0
   40.4440   27.5800   43.4540 C   0  0  0  0  0  0  0  0  0  0  0  0
   39.8540   28.4990   42.6400 N   0  0  0  0  0  0  0  0  0  0  0  0
   40.5140   29.5760   41.9920 C   0  0  0  0  0  0  0  0  0  0  0  0
   40.8830   30.7750   42.5910 C   0  0  0  0  0  0  0  0  0  0  0  0
   41.5230   31.7470   41.8460 C   0  0  0  0  0  0  0  0  0  0  0  0
   41.7740   31.5100   40.5580 N   0  0  0  0  0  0  0  0  0  0  0  0
   41.4260   30.3540   39.9520 C   0  0  0  0  0  0  0  0  0  0  0  0
   40.8120   29.4300   40.6830 N   0  0  0  0  0  0  0  0  0  0  0  0
   41.7140   30.1420   38.5730 N   0  0  0  0  0  0  0  0  0  0  0  0
   42.1100   31.1070   37.7090 C   0  0  0  0  0  0  0  0  0  0  0  0
   42.2750   30.5060   36.5210 N   0  0  0  0  0  0  0  0  0  0  0  0
   41.9840   29.2040   36.6740 C   0  0  0  0  0  0  0  0  0  0  0  0
   41.6350   28.9820   37.9560 N   0  0  0  0  0  0  0  0  0  0  0  0
   35.5830   28.7300   40.4130 C   0  0  0  0  0  0  0  0  0  0  0  0
   36.6030   28.0570   41.1170 C   0  0  0  0  0  0  0  0  0  0  0  0
   37.4980   28.8720   41.8290 C   0  0  0  0  0  0  0  0  0  0  0  0
   37.3270   30.2290   41.7930 N   0  0  0  0  0  0  0  0  0  0  0  0
   36.3200   30.8220   41.0930 C   0  0  0  0  0  0  0  0  0  0  0  0
   35.4540   30.0570   40.4060 N   0  0  0  0  0  0  0  0  0  0  0  0
   37.4016   26.5868   43.4994 H   0  0  0  0  0  0  0  0  0  0  0  0
   41.5132   27.5591   43.7118 H   0  0  0  0  0  0  0  0  0  0  0  0
   40.6661   30.9495   43.6552 H   0  0  0  0  0  0  0  0  0  0  0  0
   41.8204   32.7001   42.3076 H   0  0  0  0  0  0  0  0  0  0  0  0
   42.2654   32.1720   37.9363 H   0  0  0  0  0  0  0  0  0  0  0  0
   42.0241   28.4425   35.8812 H   0  0  0  0  0  0  0  0  0  0  0  0
   34.8585   28.1309   39.8418 H   0  0  0  0  0  0  0  0  0  0  0  0
   36.6921   26.9606   41.1089 H   0  0  0  0  0  0  0  0  0  0  0  0
   36.2164   31.9171   41.0899 H   0  0  0  0  0  0  0  0  0  0  0  0
  1  5  1  0
  1  2  2  0
  2  3  1  0
  4  3  2  0
  5  4  1  0
  6  7  2  0
  6  5  1  0
  8  7  1  0
  9  8  2  0
 10  9  1  0
 10 11  2  0
 11  6  1  0
 12 10  1  0
 13 12  1  0
 14 15  1  0
 14 13  2  0
 15 16  2  0
 16 12  1  0
 17 18  2  0
 18 19  1  0
 19  1  1  0
 20 19  2  0
 21 20  1  0
 22 17  1  0
 22 21  2  0
  2 23  1  0
  4 24  1  0
  7 25  1  0
  8 26  1  0
 13 27  1  0
 15 28  1  0
 17 29  1  0
 18 30  1  0
 21 31  1  0
M  ISO  8  23  14  24  14  25  14  26  14  27  14  28  14  29  14  30  14
M  ISO  1  31  14
M  END
>  <minimizedAffinity>  (1) 
-4.82453251

>  <minimizedRMSD>  (1) 
0.228430033

$$$$
