
     RDKit          3D

 29 31  0  0  0  0  0  0  0  0999 V2000
   37.4570   28.5010   43.4830 C   0  0  0  0  0  0  0  0  0  0  0  0
   37.2200   27.1820   43.0290 C   0  0  0  0  0  0  0  0  0  0  0  0
   36.9720   26.9970   41.6520 C   0  0  0  0  0  0  0  0  0  0  0  0
   36.9740   28.0790   40.8400 N   0  0  0  0  0  0  0  0  0  0  0  0
   37.2020   29.3150   41.2990 C   0  0  0  0  0  0  0  0  0  0  0  0
   37.4420   29.5120   42.6130 N   0  0  0  0  0  0  0  0  0  0  0  0
   37.2190   30.4710   40.4930 N   0  0  0  0  0  0  0  0  0  0  0  0
   37.8350   31.5410   41.0210 N   0  0  0  0  0  0  0  0  0  0  0  0
   37.7370   32.5390   40.0990 C   0  0  0  0  0  0  0  0  0  0  0  0
   37.0540   32.0470   39.0110 C   0  0  0  0  0  0  0  0  0  0  0  0
   36.7270   30.7300   39.2660 C   0  0  0  0  0  0  0  0  0  0  0  0
   36.0340   29.8190   38.4290 N   0  0  0  0  0  0  0  0  0  0  0  0
   36.5920   29.3780   37.1400 C   0  0  0  0  0  0  0  0  0  0  0  0
   36.6260   27.8660   37.4020 C   0  0  0  0  0  0  0  0  0  0  0  0
   35.2780   27.6480   38.1020 C   0  0  0  0  0  0  0  0  0  0  0  0
   34.7980   29.0550   38.4040 C   0  0  0  0  0  0  0  0  0  0  0  0
   37.6527   28.6918   44.5485 H   0  0  0  0  0  0  0  0  0  0  0  0
   37.2287   26.3303   43.7251 H   0  0  0  0  0  0  0  0  0  0  0  0
   36.7808   25.9924   41.2468 H   0  0  0  0  0  0  0  0  0  0  0  0
   38.1343   33.5592   40.2058 H   0  0  0  0  0  0  0  0  0  0  0  0
   36.8104   32.6063   38.0957 H   0  0  0  0  0  0  0  0  0  0  0  0
   37.5967   29.7891   36.9625 H   0  0  0  0  0  0  0  0  0  0  0  0
   36.0308   29.6924   36.2477 H   0  0  0  0  0  0  0  0  0  0  0  0
   36.6882   27.2965   36.4629 H   0  0  0  0  0  0  0  0  0  0  0  0
   37.4952   27.5310   37.9871 H   0  0  0  0  0  0  0  0  0  0  0  0
   34.5717   27.1264   37.4394 H   0  0  0  0  0  0  0  0  0  0  0  0
   35.3619   27.0235   39.0036 H   0  0  0  0  0  0  0  0  0  0  0  0
   34.1222   29.4205   37.6168 H   0  0  0  0  0  0  0  0  0  0  0  0
   34.2226   29.1274   39.3387 H   0  0  0  0  0  0  0  0  0  0  0  0
  2  1  2  0
  3  2  1  0
  4  5  1  0
  4  3  2  0
  5  6  2  0
  6  1  1  0
  7  8  1  0
  7  5  1  0
  9  8  2  0
 10 11  2  0
 10  9  1  0
 11  7  1  0
 12 11  1  0
 13 14  1  0
 13 12  1  0
 14 15  1  0
 15 16  1  0
 16 12  1  0
  1 17  1  0
  2 18  1  0
  3 19  1  0
  9 20  1  0
 10 21  1  0
 13 22  1  0
 13 23  1  0
 14 24  1  0
 14 25  1  0
 15 26  1  0
 15 27  1  0
 16 28  1  0
 16 29  1  0
M  ISO  8  17  14  18  14  19  14  20  14  21  14  22  13  23  13  24  13
M  ISO  5  25  13  26  13  27  13  28  13  29  13
M  END
>  <minimizedAffinity>  (1) 
-4.35606289

>  <minimizedRMSD>  (1) 
1.83321714

$$$$
