
     RDKit          3D

 32 35  0  0  0  0  0  0  0  0999 V2000
   38.5310   28.2120   42.6020 C   0  0  0  0  0  0  0  0  0  0  0  0
   38.3660   27.0860   43.3790 C   0  0  0  0  0  0  0  0  0  0  0  0
   39.5270   26.6860   43.9250 N   0  0  0  0  0  0  0  0  0  0  0  0
   40.4450   27.5800   43.4820 C   0  0  0  0  0  0  0  0  0  0  0  0
   39.8450   28.4950   42.6870 N   0  0  0  0  0  0  0  0  0  0  0  0
   35.5260   28.7230   40.5230 C   0  0  0  0  0  0  0  0  0  0  0  0
   36.5470   28.0700   41.2230 C   0  0  0  0  0  0  0  0  0  0  0  0
   37.4840   28.8830   41.8860 C   0  0  0  0  0  0  0  0  0  0  0  0
   37.3440   30.2360   41.8110 N   0  0  0  0  0  0  0  0  0  0  0  0
   36.3340   30.8240   41.1180 C   0  0  0  0  0  0  0  0  0  0  0  0
   35.4330   30.0620   40.4810 N   0  0  0  0  0  0  0  0  0  0  0  0
   40.5030   29.5900   42.0420 C   0  0  0  0  0  0  0  0  0  0  0  0
   41.0120   30.7090   42.6750 C   0  0  0  0  0  0  0  0  0  0  0  0
   41.6290   31.7070   41.9420 C   0  0  0  0  0  0  0  0  0  0  0  0
   41.7210   31.5650   40.6230 N   0  0  0  0  0  0  0  0  0  0  0  0
   41.2280   30.4750   39.9710 C   0  0  0  0  0  0  0  0  0  0  0  0
   40.6320   29.5130   40.6820 N   0  0  0  0  0  0  0  0  0  0  0  0
   41.3730   30.4010   38.5030 C   0  0  0  0  0  0  0  0  0  0  0  0
   40.3920   29.6700   37.6690 C   0  0  0  0  0  0  0  0  0  0  0  0
   40.2800   31.1440   37.7510 C   0  0  0  0  0  0  0  0  0  0  0  0
   37.4029   26.5774   43.5333 H   0  0  0  0  0  0  0  0  0  0  0  0
   41.5162   27.5636   43.7315 H   0  0  0  0  0  0  0  0  0  0  0  0
   34.7758   28.1202   39.9903 H   0  0  0  0  0  0  0  0  0  0  0  0
   36.6136   26.9724   41.2533 H   0  0  0  0  0  0  0  0  0  0  0  0
   36.2557   31.9205   41.0796 H   0  0  0  0  0  0  0  0  0  0  0  0
   40.9259   30.8062   43.7673 H   0  0  0  0  0  0  0  0  0  0  0  0
   42.0352   32.5997   42.4401 H   0  0  0  0  0  0  0  0  0  0  0  0
   42.4715   30.3676   38.5504 H   0  0  0  0  0  0  0  0  0  0  0  0
   39.6311   29.0380   38.1504 H   0  0  0  0  0  0  0  0  0  0  0  0
   40.4743   28.9519   36.8398 H   0  0  0  0  0  0  0  0  0  0  0  0
   40.5337   31.7666   36.8804 H   0  0  0  0  0  0  0  0  0  0  0  0
   39.4863   31.8550   38.0238 H   0  0  0  0  0  0  0  0  0  0  0  0
  1  5  1  0
  1  2  2  0
  2  3  1  0
  4  3  2  0
  5  4  1  0
  6  7  2  0
  7  8  1  0
  8  1  1  0
  9  8  2  0
 10  9  1  0
 11  6  1  0
 11 10  2  0
 12 13  2  0
 12  5  1  0
 14 13  1  0
 15 14  2  0
 16 15  1  0
 16 17  2  0
 17 12  1  0
 18 16  1  0
 19 20  1  0
 19 18  1  0
 20 18  1  0
  2 21  1  0
  4 22  1  0
  6 23  1  0
  7 24  1  0
 10 25  1  0
 13 26  1  0
 14 27  1  0
 18 28  1  0
 19 29  1  0
 19 30  1  0
 20 31  1  0
 20 32  1  0
M  ISO  8  21  14  22  14  23  14  24  14  25  14  26  14  27  14  28  13
M  ISO  4  29  13  30  13  31  13  32  13
M  END
>  <minimizedAffinity>  (1) 
-4.33022213

>  <minimizedRMSD>  (1) 
0.726830304

$$$$
