
     RDKit          3D

 34 36  0  0  0  0  0  0  0  0999 V2000
   38.6400   28.3170   42.5340 C   0  0  0  0  0  0  0  0  0  0  0  0
   38.5330   27.1970   43.3440 C   0  0  0  0  0  0  0  0  0  0  0  0
   39.7280   26.8690   43.8620 N   0  0  0  0  0  0  0  0  0  0  0  0
   40.5860   27.7890   43.3710 C   0  0  0  0  0  0  0  0  0  0  0  0
   39.9350   28.6680   42.5680 N   0  0  0  0  0  0  0  0  0  0  0  0
   35.5780   28.6500   40.4970 C   0  0  0  0  0  0  0  0  0  0  0  0
   36.6500   28.0510   41.1760 C   0  0  0  0  0  0  0  0  0  0  0  0
   37.5400   28.9150   41.8360 C   0  0  0  0  0  0  0  0  0  0  0  0
   37.3040   30.2520   41.7740 N   0  0  0  0  0  0  0  0  0  0  0  0
   36.2410   30.7900   41.0980 C   0  0  0  0  0  0  0  0  0  0  0  0
   35.3870   29.9800   40.4640 N   0  0  0  0  0  0  0  0  0  0  0  0
   40.5170   29.7640   41.8830 C   0  0  0  0  0  0  0  0  0  0  0  0
   41.0360   30.9030   42.4870 C   0  0  0  0  0  0  0  0  0  0  0  0
   41.5780   31.9090   41.7050 C   0  0  0  0  0  0  0  0  0  0  0  0
   41.5920   31.7620   40.3840 N   0  0  0  0  0  0  0  0  0  0  0  0
   41.0900   30.6570   39.7650 C   0  0  0  0  0  0  0  0  0  0  0  0
   40.5670   29.6900   40.5300 N   0  0  0  0  0  0  0  0  0  0  0  0
   41.1150   30.5140   38.2920 C   0  0  0  0  0  0  0  0  0  0  0  0
   41.0400   31.8450   37.5990 C   0  0  0  0  0  0  0  0  0  0  0  0
   39.9780   29.5900   37.8350 C   0  0  0  0  0  0  0  0  0  0  0  0
   37.5973   26.6515   43.5362 H   0  0  0  0  0  0  0  0  0  0  0  0
   41.6632   27.8213   43.5914 H   0  0  0  0  0  0  0  0  0  0  0  0
   34.8626   28.0027   39.9686 H   0  0  0  0  0  0  0  0  0  0  0  0
   36.7867   26.9596   41.1908 H   0  0  0  0  0  0  0  0  0  0  0  0
   36.0913   31.8796   41.0770 H   0  0  0  0  0  0  0  0  0  0  0  0
   41.0163   31.0049   43.5821 H   0  0  0  0  0  0  0  0  0  0  0  0
   41.9909   32.8163   42.1701 H   0  0  0  0  0  0  0  0  0  0  0  0
   42.0770   30.0609   38.0107 H   0  0  0  0  0  0  0  0  0  0  0  0
   40.9948   32.6474   38.3501 H   0  0  0  0  0  0  0  0  0  0  0  0
   41.9319   31.9816   36.9698 H   0  0  0  0  0  0  0  0  0  0  0  0
   40.1384   31.8805   36.9698 H   0  0  0  0  0  0  0  0  0  0  0  0
   39.4667   29.1745   38.7159 H   0  0  0  0  0  0  0  0  0  0  0  0
   39.2598   30.1636   37.2308 H   0  0  0  0  0  0  0  0  0  0  0  0
   40.3926   28.7696   37.2308 H   0  0  0  0  0  0  0  0  0  0  0  0
  1  5  1  0
  1  2  2  0
  2  3  1  0
  4  3  2  0
  5  4  1  0
  6  7  2  0
  7  8  1  0
  8  1  1  0
  9  8  2  0
 10  9  1  0
 11  6  1  0
 11 10  2  0
 12 13  2  0
 12  5  1  0
 14 13  1  0
 15 14  2  0
 16 15  1  0
 16 17  2  0
 17 12  1  0
 18 16  1  0
 19 18  1  0
 20 18  1  0
  2 21  1  0
  4 22  1  0
  6 23  1  0
  7 24  1  0
 10 25  1  0
 13 26  1  0
 14 27  1  0
 18 28  1  0
 19 29  1  0
 19 30  1  0
 19 31  1  0
 20 32  1  0
 20 33  1  0
 20 34  1  0
M  ISO  8  21  14  22  14  23  14  24  14  25  14  26  14  27  14  28   8
M  ISO  6  29   8  30   8  31   8  32   8  33   8  34   8
M  END
>  <minimizedAffinity>  (1) 
-4.32481813

>  <minimizedRMSD>  (1) 
0.552142024

$$$$
