
     RDKit          3D

 27 29  0  0  0  0  0  0  0  0999 V2000
   38.5650   28.1420   42.6390 C   0  0  0  0  0  0  0  0  0  0  0  0
   38.3690   27.0400   43.4530 C   0  0  0  0  0  0  0  0  0  0  0  0
   39.5370   26.6530   44.0060 N   0  0  0  0  0  0  0  0  0  0  0  0
   40.4570   27.5170   43.5350 C   0  0  0  0  0  0  0  0  0  0  0  0
   39.8690   28.4140   42.7110 N   0  0  0  0  0  0  0  0  0  0  0  0
   40.5340   29.4740   42.0320 C   0  0  0  0  0  0  0  0  0  0  0  0
   40.8300   30.7140   42.5680 C   0  0  0  0  0  0  0  0  0  0  0  0
   41.4760   31.6880   41.8480 C   0  0  0  0  0  0  0  0  0  0  0  0
   41.8130   31.3860   40.5860 N   0  0  0  0  0  0  0  0  0  0  0  0
   41.5460   30.1950   40.0240 C   0  0  0  0  0  0  0  0  0  0  0  0
   40.9120   29.2610   40.7530 N   0  0  0  0  0  0  0  0  0  0  0  0
   41.9300   29.9400   38.6850 N   0  0  0  0  0  0  0  0  0  0  0  0
   35.6180   28.6240   40.4590 C   0  0  0  0  0  0  0  0  0  0  0  0
   36.6310   27.9750   41.1740 C   0  0  0  0  0  0  0  0  0  0  0  0
   37.5170   28.8020   41.8980 C   0  0  0  0  0  0  0  0  0  0  0  0
   37.3350   30.1390   41.8560 N   0  0  0  0  0  0  0  0  0  0  0  0
   36.3330   30.7210   41.1450 C   0  0  0  0  0  0  0  0  0  0  0  0
   35.4760   29.9500   40.4460 N   0  0  0  0  0  0  0  0  0  0  0  0
   37.3994   26.5497   43.6245 H   0  0  0  0  0  0  0  0  0  0  0  0
   41.5283   27.4961   43.7838 H   0  0  0  0  0  0  0  0  0  0  0  0
   40.5378   30.9271   43.6068 H   0  0  0  0  0  0  0  0  0  0  0  0
   41.7064   32.6704   42.2860 H   0  0  0  0  0  0  0  0  0  0  0  0
   41.7247   29.0266   38.2554 H   0  0  0  0  0  0  0  0  0  0  0  0
   42.4146   30.6679   38.1407 H   0  0  0  0  0  0  0  0  0  0  0  0
   34.9076   28.0135   39.8823 H   0  0  0  0  0  0  0  0  0  0  0  0
   36.7315   26.8796   41.1720 H   0  0  0  0  0  0  0  0  0  0  0  0
   36.2221   31.8154   41.1401 H   0  0  0  0  0  0  0  0  0  0  0  0
  1  5  1  0
  1  2  2  0
  2  3  1  0
  4  3  2  0
  5  4  1  0
  6  7  2  0
  6  5  1  0
  8  7  1  0
  9  8  2  0
 10  9  1  0
 10 11  2  0
 11  6  1  0
 12 10  1  0
 13 14  2  0
 14 15  1  0
 15  1  1  0
 16 15  2  0
 17 16  1  0
 18 13  1  0
 18 17  2  0
  2 19  1  0
  4 20  1  0
  7 21  1  0
  8 22  1  0
 12 23  1  0
 12 24  1  0
 13 25  1  0
 14 26  1  0
 17 27  1  0
M  ISO  7  19  14  20  14  21  14  22  14  25  14  26  14  27  14
M  END
>  <minimizedAffinity>  (1) 
-4.18707466

>  <minimizedRMSD>  (1) 
0.0149528906

$$$$
