
     RDKit          3D

 26 28  0  0  0  0  0  0  0  0999 V2000
   38.5640   28.1430   42.6360 C   0  0  0  0  0  0  0  0  0  0  0  0
   38.3830   27.0390   43.4550 C   0  0  0  0  0  0  0  0  0  0  0  0
   39.5470   26.6540   44.0070 N   0  0  0  0  0  0  0  0  0  0  0  0
   40.4680   27.5190   43.5330 C   0  0  0  0  0  0  0  0  0  0  0  0
   39.8850   28.4290   42.7000 N   0  0  0  0  0  0  0  0  0  0  0  0
   35.6220   28.6200   40.4610 C   0  0  0  0  0  0  0  0  0  0  0  0
   36.6410   27.9730   41.1800 C   0  0  0  0  0  0  0  0  0  0  0  0
   37.5240   28.7980   41.9010 C   0  0  0  0  0  0  0  0  0  0  0  0
   37.3420   30.1400   41.8590 N   0  0  0  0  0  0  0  0  0  0  0  0
   36.3320   30.7220   41.1420 C   0  0  0  0  0  0  0  0  0  0  0  0
   35.4820   29.9580   40.4490 N   0  0  0  0  0  0  0  0  0  0  0  0
   40.5460   29.4810   42.0240 C   0  0  0  0  0  0  0  0  0  0  0  0
   40.8370   30.7280   42.5710 C   0  0  0  0  0  0  0  0  0  0  0  0
   41.4850   31.6780   41.8210 C   0  0  0  0  0  0  0  0  0  0  0  0
   41.8300   31.3810   40.5620 N   0  0  0  0  0  0  0  0  0  0  0  0
   41.5600   30.1830   40.0130 C   0  0  0  0  0  0  0  0  0  0  0  0
   40.9250   29.2580   40.7500 N   0  0  0  0  0  0  0  0  0  0  0  0
   41.9800   30.0430   38.7200 O   0  0  0  0  0  0  0  0  0  0  0  0
   37.4163   26.5442   43.6298 H   0  0  0  0  0  0  0  0  0  0  0  0
   41.5389   27.4940   43.7832 H   0  0  0  0  0  0  0  0  0  0  0  0
   34.9111   28.0089   39.8856 H   0  0  0  0  0  0  0  0  0  0  0  0
   36.7433   26.8778   41.1794 H   0  0  0  0  0  0  0  0  0  0  0  0
   36.2200   31.8163   41.1360 H   0  0  0  0  0  0  0  0  0  0  0  0
   40.5466   30.9528   43.6079 H   0  0  0  0  0  0  0  0  0  0  0  0
   41.7166   32.6654   42.2469 H   0  0  0  0  0  0  0  0  0  0  0  0
   41.8225   29.1929   38.2377 H   0  0  0  0  0  0  0  0  0  0  0  0
  1  5  1  0
  1  2  2  0
  2  3  1  0
  4  3  2  0
  5  4  1  0
  6  7  2  0
  7  8  1  0
  8  1  1  0
  9  8  2  0
 10  9  1  0
 11  6  1  0
 11 10  2  0
 12 13  2  0
 12  5  1  0
 14 13  1  0
 15 14  2  0
 16 15  1  0
 16 17  2  0
 17 12  1  0
 18 16  1  0
  2 19  1  0
  4 20  1  0
  6 21  1  0
  7 22  1  0
 10 23  1  0
 13 24  1  0
 14 25  1  0
 18 26  1  0
M  ISO  8  19  14  20  14  21  14  22  14  23  14  24  14  25  14  26   3
M  END
>  <minimizedAffinity>  (1) 
-4.18376398

>  <minimizedRMSD>  (1) 
0.0108158709

$$$$
