
     RDKit          3D

 31 33  0  0  0  0  0  0  0  0999 V2000
   38.5420   28.2100   42.6120 C   0  0  0  0  0  0  0  0  0  0  0  0
   38.3530   27.1090   43.4090 C   0  0  0  0  0  0  0  0  0  0  0  0
   39.5210   26.7010   43.9560 N   0  0  0  0  0  0  0  0  0  0  0  0
   40.4500   27.5670   43.4870 C   0  0  0  0  0  0  0  0  0  0  0  0
   39.8600   28.4810   42.6730 N   0  0  0  0  0  0  0  0  0  0  0  0
   35.5420   28.7180   40.5120 C   0  0  0  0  0  0  0  0  0  0  0  0
   36.5680   28.0680   41.2230 C   0  0  0  0  0  0  0  0  0  0  0  0
   37.5020   28.8820   41.8900 C   0  0  0  0  0  0  0  0  0  0  0  0
   37.3530   30.2290   41.8050 N   0  0  0  0  0  0  0  0  0  0  0  0
   36.3480   30.8270   41.1070 C   0  0  0  0  0  0  0  0  0  0  0  0
   35.4490   30.0530   40.4650 N   0  0  0  0  0  0  0  0  0  0  0  0
   40.5260   29.5480   41.9970 C   0  0  0  0  0  0  0  0  0  0  0  0
   40.8800   30.7540   42.5470 C   0  0  0  0  0  0  0  0  0  0  0  0
   41.5210   31.7180   41.8060 C   0  0  0  0  0  0  0  0  0  0  0  0
   41.7940   31.4460   40.5200 N   0  0  0  0  0  0  0  0  0  0  0  0
   41.4600   30.2740   39.9530 C   0  0  0  0  0  0  0  0  0  0  0  0
   40.8360   29.3460   40.6890 N   0  0  0  0  0  0  0  0  0  0  0  0
   41.7380   29.9190   38.5320 C   0  0  0  0  0  0  0  0  0  0  0  0
   41.2760   30.9970   37.5770 C   0  0  0  0  0  0  0  0  0  0  0  0
   37.3812   26.6230   43.5803 H   0  0  0  0  0  0  0  0  0  0  0  0
   41.5226   27.5354   43.7289 H   0  0  0  0  0  0  0  0  0  0  0  0
   34.7946   28.1116   39.9793 H   0  0  0  0  0  0  0  0  0  0  0  0
   36.6368   26.9706   41.2559 H   0  0  0  0  0  0  0  0  0  0  0  0
   36.2707   31.9236   41.0674 H   0  0  0  0  0  0  0  0  0  0  0  0
   40.6459   30.9536   43.6031 H   0  0  0  0  0  0  0  0  0  0  0  0
   41.8018   32.6830   42.2531 H   0  0  0  0  0  0  0  0  0  0  0  0
   42.8214   29.7750   38.4075 H   0  0  0  0  0  0  0  0  0  0  0  0
   41.1842   28.9979   38.2977 H   0  0  0  0  0  0  0  0  0  0  0  0
   40.9060   31.8602   38.1497 H   0  0  0  0  0  0  0  0  0  0  0  0
   42.1185   31.3112   36.9434 H   0  0  0  0  0  0  0  0  0  0  0  0
   40.4674   30.6036   36.9434 H   0  0  0  0  0  0  0  0  0  0  0  0
  1  5  1  0
  1  2  2  0
  2  3  1  0
  4  3  2  0
  5  4  1  0
  6  7  2  0
  7  8  1  0
  8  1  1  0
  9  8  2  0
 10  9  1  0
 11  6  1  0
 11 10  2  0
 12 13  2  0
 12  5  1  0
 14 13  1  0
 15 14  2  0
 16 15  1  0
 16 17  2  0
 17 12  1  0
 18 16  1  0
 19 18  1  0
  2 20  1  0
  4 21  1  0
  6 22  1  0
  7 23  1  0
 10 24  1  0
 13 25  1  0
 14 26  1  0
 18 27  1  0
 18 28  1  0
 19 29  1  0
 19 30  1  0
 19 31  1  0
M  ISO  8  20  14  21  14  22  14  23  14  24  14  25  14  26  14  27   8
M  ISO  4  28   8  29   8  30   8  31   8
M  END
>  <minimizedAffinity>  (1) 
-4.14939928

>  <minimizedRMSD>  (1) 
0.244911656

$$$$
