
     RDKit          3D

 18 19  0  0  0  0  0  0  0  0999 V2000
   38.0820   28.9540   43.4840 C   0  0  0  0  0  0  0  0  0  0  0  0
   37.1930   27.8470   43.5250 C   0  0  0  0  0  0  0  0  0  0  0  0
   36.3480   27.6510   42.4340 C   0  0  0  0  0  0  0  0  0  0  0  0
   36.4170   28.5270   41.3850 N   0  0  0  0  0  0  0  0  0  0  0  0
   37.2700   29.5650   41.3780 C   0  0  0  0  0  0  0  0  0  0  0  0
   38.0930   29.7730   42.4190 N   0  0  0  0  0  0  0  0  0  0  0  0
   37.3010   30.4710   40.2300 C   0  0  0  0  0  0  0  0  0  0  0  0
   37.1540   31.8290   40.4200 C   0  0  0  0  0  0  0  0  0  0  0  0
   37.1940   32.6180   39.2850 C   0  0  0  0  0  0  0  0  0  0  0  0
   37.3690   32.1040   38.0450 N   0  0  0  0  0  0  0  0  0  0  0  0
   37.5120   30.7550   37.8960 C   0  0  0  0  0  0  0  0  0  0  0  0
   37.4750   29.9560   38.9980 N   0  0  0  0  0  0  0  0  0  0  0  0
   38.7636   29.1414   44.3268 H   0  0  0  0  0  0  0  0  0  0  0  0
   37.1721   27.1668   44.3892 H   0  0  0  0  0  0  0  0  0  0  0  0
   35.6401   26.8093   42.4166 H   0  0  0  0  0  0  0  0  0  0  0  0
   37.0124   32.2617   41.4214 H   0  0  0  0  0  0  0  0  0  0  0  0
   37.0790   33.7065   39.3941 H   0  0  0  0  0  0  0  0  0  0  0  0
   37.6556   30.3180   36.8968 H   0  0  0  0  0  0  0  0  0  0  0  0
  1  2  2  0
  3  2  1  0
  4  3  2  0
  5  4  1  0
  5  6  2  0
  6  1  1  0
  7  8  2  0
  7  5  1  0
  9  8  1  0
 10  9  2  0
 11 10  1  0
 11 12  2  0
 12  7  1  0
  1 13  1  0
  2 14  1  0
  3 15  1  0
  8 16  1  0
  9 17  1  0
 11 18  1  0
M  ISO  6  13  14  14  14  15  14  16  14  17  14  18  14
M  END
>  <minimizedAffinity>  (1) 
-3.69031429

>  <minimizedRMSD>  (1) 
1.07852256

$$$$
