
     RDKit          3D

 32 33  0  0  0  0  0  0  0  0999 V2000
   38.7180   29.8920   42.0290 C   0  0  0  0  0  0  0  0  0  0  0  0
   38.0880   29.7140   40.7550 C   0  0  0  0  0  0  0  0  0  0  0  0
   37.9510   28.3930   40.3430 C   0  0  0  0  0  0  0  0  0  0  0  0
   38.4020   27.3800   41.1300 N   0  0  0  0  0  0  0  0  0  0  0  0
   38.9830   27.6080   42.3100 C   0  0  0  0  0  0  0  0  0  0  0  0
   39.1400   28.8480   42.7570 N   0  0  0  0  0  0  0  0  0  0  0  0
   39.4120   26.4800   43.0440 N   0  0  0  0  0  0  0  0  0  0  0  0
   40.3260   26.6250   44.1610 C   0  0  0  0  0  0  0  0  0  0  0  0
   41.6520   26.0380   43.7200 C   0  0  0  0  0  0  0  0  0  0  0  0
   41.5080   24.8740   42.7850 C   0  0  0  0  0  0  0  0  0  0  0  0
   40.1800   24.1610   42.8910 C   0  0  0  0  0  0  0  0  0  0  0  0
   39.0150   25.1070   42.7880 C   0  0  0  0  0  0  0  0  0  0  0  0
   37.6640   30.8640   40.0350 N   0  0  0  0  0  0  0  0  0  0  0  0
   36.6880   31.7850   40.4980 C   0  0  0  0  0  0  0  0  0  0  0  0
   35.6600   31.2550   41.1250 N   0  0  0  0  0  0  0  0  0  0  0  0
   36.9510   33.1660   40.2200 N   0  0  0  0  0  0  0  0  0  0  0  0
   34.9160   31.8480   41.5250 H   0  0  0  0  0  0  0  0  0  0  0  0
   38.8591   30.9105   42.4199 H   0  0  0  0  0  0  0  0  0  0  0  0
   37.4761   28.1667   39.3770 H   0  0  0  0  0  0  0  0  0  0  0  0
   40.4482   27.6883   44.4149 H   0  0  0  0  0  0  0  0  0  0  0  0
   39.9432   26.1093   45.0541 H   0  0  0  0  0  0  0  0  0  0  0  0
   42.2292   26.8242   43.2113 H   0  0  0  0  0  0  0  0  0  0  0  0
   42.1590   25.6676   44.6232 H   0  0  0  0  0  0  0  0  0  0  0  0
   42.3072   24.1514   43.0067 H   0  0  0  0  0  0  0  0  0  0  0  0
   41.5723   25.2767   41.7634 H   0  0  0  0  0  0  0  0  0  0  0  0
   40.1090   23.4225   42.0788 H   0  0  0  0  0  0  0  0  0  0  0  0
   40.1351   23.6777   43.8781 H   0  0  0  0  0  0  0  0  0  0  0  0
   38.5916   25.0416   41.7749 H   0  0  0  0  0  0  0  0  0  0  0  0
   38.2719   24.8186   43.5460 H   0  0  0  0  0  0  0  0  0  0  0  0
   38.0937   31.0409   39.1158 H   0  0  0  0  0  0  0  0  0  0  0  0
   36.2849   33.8891   40.5271 H   0  0  0  0  0  0  0  0  0  0  0  0
   37.8062   33.4355   39.7131 H   0  0  0  0  0  0  0  0  0  0  0  0
  1  6  2  0
  2  1  1  0
  3  2  2  0
  3  4  1  0
  4  5  2  0
  5  6  1  0
  5  7  1  0
  7  8  1  0
  9  8  1  0
 10 11  1  0
 10  9  1  0
 12 11  1  0
 12  7  1  0
 13 14  1  0
 13  2  1  0
 14 15  2  0
 15 17  1  0
 16 14  1  0
  1 18  1  0
  3 19  1  0
  8 20  1  0
  8 21  1  0
  9 22  1  0
  9 23  1  0
 10 24  1  0
 10 25  1  0
 11 26  1  0
 11 27  1  0
 12 28  1  0
 12 29  1  0
 13 30  1  0
 16 31  1  0
 16 32  1  0
M  ISO  8  18  14  19  14  20  13  21  13  22  13  23  13  24  13  25  13
M  ISO  4  26  13  27  13  28  13  29  13
M  END
>  <minimizedAffinity>  (1) 
-4.92343187

>  <minimizedRMSD>  (1) 
1.15943217

$$$$
