
     RDKit          3D

 31 33  0  0  0  0  0  0  0  0999 V2000
   38.2610   29.5190   41.4500 C   0  0  0  0  0  0  0  0  0  0  0  0
   36.9620   29.9330   41.5520 C   0  0  0  0  0  0  0  0  0  0  0  0
   36.5930   31.0780   40.8840 C   0  0  0  0  0  0  0  0  0  0  0  0
   37.4890   31.7850   40.1410 N   0  0  0  0  0  0  0  0  0  0  0  0
   38.7720   31.3580   40.0510 C   0  0  0  0  0  0  0  0  0  0  0  0
   39.1230   30.2280   40.7150 N   0  0  0  0  0  0  0  0  0  0  0  0
   39.7380   32.0750   39.2810 N   0  0  0  0  0  0  0  0  0  0  0  0
   40.7250   32.7110   39.9140 C   0  0  0  0  0  0  0  0  0  0  0  0
   41.6460   33.3960   39.1760 C   0  0  0  0  0  0  0  0  0  0  0  0
   42.7590   34.1150   39.8470 C   0  0  0  0  0  0  0  0  0  0  0  0
   41.5190   33.4020   37.8200 C   0  0  0  0  0  0  0  0  0  0  0  0
   42.3660   34.0320   37.1470 O   0  0  0  0  0  0  0  0  0  0  0  0
   40.5080   32.7490   37.2080 N   0  0  0  0  0  0  0  0  0  0  0  0
   39.6170   32.0850   37.9470 C   0  0  0  0  0  0  0  0  0  0  0  0
   38.6800   31.4810   37.3570 O   0  0  0  0  0  0  0  0  0  0  0  0
   38.7870   26.9990   44.0600 C   0  0  0  0  0  0  0  0  0  0  0  0
   39.6010   26.0490   43.4060 C   0  0  0  0  0  0  0  0  0  0  0  0
   39.9520   26.2890   42.0840 C   0  0  0  0  0  0  0  0  0  0  0  0
   39.4910   27.4300   41.4970 N   0  0  0  0  0  0  0  0  0  0  0  0
   38.7230   28.3200   42.1270 C   0  0  0  0  0  0  0  0  0  0  0  0
   38.3740   28.0990   43.4110 N   0  0  0  0  0  0  0  0  0  0  0  0
   36.2330   29.3672   42.1507 H   0  0  0  0  0  0  0  0  0  0  0  0
   35.5529   31.4295   40.9515 H   0  0  0  0  0  0  0  0  0  0  0  0
   40.7952   32.6838   41.0114 H   0  0  0  0  0  0  0  0  0  0  0  0
   42.6402   34.0383   40.9379 H   0  0  0  0  0  0  0  0  0  0  0  0
   43.7179   33.6652   39.5500 H   0  0  0  0  0  0  0  0  0  0  0  0
   42.7432   35.1740   39.5500 H   0  0  0  0  0  0  0  0  0  0  0  0
   40.4253   32.7632   36.1814 H   0  0  0  0  0  0  0  0  0  0  0  0
   38.4897   26.8370   45.1066 H   0  0  0  0  0  0  0  0  0  0  0  0
   39.9472   25.1449   43.9284 H   0  0  0  0  0  0  0  0  0  0  0  0
   40.5827   25.5802   41.5274 H   0  0  0  0  0  0  0  0  0  0  0  0
  1  2  2  0
  1 20  1  0
  3  2  1  0
  4  3  2  0
  5  4  1  0
  5  6  2  0
  6  1  1  0
  7  8  1  0
  7  5  1  0
  9 10  1  0
  9  8  2  0
 11  9  1  0
 12 11  2  0
 13 11  1  0
 13 14  1  0
 14  7  1  0
 15 14  2  0
 17 16  2  0
 18 17  1  0
 19 18  2  0
 19 20  1  0
 20 21  2  0
 21 16  1  0
  2 22  1  0
  3 23  1  0
  8 24  1  0
 10 25  1  0
 10 26  1  0
 10 27  1  0
 13 28  1  0
 16 29  1  0
 17 30  1  0
 18 31  1  0
M  ISO  8  22  14  23  14  24  14  25   8  26   8  27   8  28   9  29  14
M  ISO  2  30  14  31  14
M  END
>  <minimizedAffinity>  (1) 
-5.66086721

>  <minimizedRMSD>  (1) 
4.33138418

$$$$
