
     RDKit          3D

 34 37  0  0  0  0  0  0  0  0999 V2000
   37.1500   30.3610   40.4230 C   0  0  0  0  0  0  0  0  0  0  0  0
   37.3530   31.6970   40.5890 C   0  0  0  0  0  0  0  0  0  0  0  0
   37.2980   32.4470   39.4240 C   0  0  0  0  0  0  0  0  0  0  0  0
   37.0630   31.9240   38.2120 N   0  0  0  0  0  0  0  0  0  0  0  0
   36.8650   30.5970   38.0710 C   0  0  0  0  0  0  0  0  0  0  0  0
   36.9220   29.8840   39.2080 N   0  0  0  0  0  0  0  0  0  0  0  0
   36.5920   29.7650   36.8980 C   0  0  0  0  0  0  0  0  0  0  0  0
   36.6580   30.2420   35.5910 C   0  0  0  0  0  0  0  0  0  0  0  0
   36.4040   29.4640   34.4960 C   0  0  0  0  0  0  0  0  0  0  0  0
   36.0640   28.1460   34.6280 C   0  0  0  0  0  0  0  0  0  0  0  0
   35.9830   27.6220   35.8840 C   0  0  0  0  0  0  0  0  0  0  0  0
   35.6400   26.2950   35.9860 C   0  0  0  0  0  0  0  0  0  0  0  0
   35.5420   25.6970   37.2250 C   0  0  0  0  0  0  0  0  0  0  0  0
   35.8030   26.4970   38.3410 C   0  0  0  0  0  0  0  0  0  0  0  0
   36.1380   27.8060   38.1740 C   0  0  0  0  0  0  0  0  0  0  0  0
   36.2460   28.4360   36.9590 C   0  0  0  0  0  0  0  0  0  0  0  0
   38.1340   28.8360   43.6230 C   0  0  0  0  0  0  0  0  0  0  0  0
   37.2550   27.7370   43.7190 C   0  0  0  0  0  0  0  0  0  0  0  0
   36.3360   27.5360   42.6810 C   0  0  0  0  0  0  0  0  0  0  0  0
   36.3260   28.4040   41.6250 N   0  0  0  0  0  0  0  0  0  0  0  0
   37.1790   29.4420   41.5670 C   0  0  0  0  0  0  0  0  0  0  0  0
   38.0520   29.6320   42.5530 N   0  0  0  0  0  0  0  0  0  0  0  0
   37.5462   32.1477   41.5736 H   0  0  0  0  0  0  0  0  0  0  0  0
   37.4562   33.5330   39.4984 H   0  0  0  0  0  0  0  0  0  0  0  0
   36.9278   31.2965   35.4321 H   0  0  0  0  0  0  0  0  0  0  0  0
   36.4743   29.9059   33.4911 H   0  0  0  0  0  0  0  0  0  0  0  0
   35.8611   27.5245   33.7434 H   0  0  0  0  0  0  0  0  0  0  0  0
   35.4430   25.7081   35.0767 H   0  0  0  0  0  0  0  0  0  0  0  0
   35.2702   24.6363   37.3303 H   0  0  0  0  0  0  0  0  0  0  0  0
   35.7379   26.0697   39.3525 H   0  0  0  0  0  0  0  0  0  0  0  0
   36.3363   28.4015   39.0773 H   0  0  0  0  0  0  0  0  0  0  0  0
   38.8727   29.0339   44.4137 H   0  0  0  0  0  0  0  0  0  0  0  0
   37.2901   27.0578   44.5835 H   0  0  0  0  0  0  0  0  0  0  0  0
   35.6321   26.6914   42.7152 H   0  0  0  0  0  0  0  0  0  0  0  0
  1  2  2  0
  1 21  1  0
  3  2  1  0
  4  3  2  0
  5  4  1  0
  5  6  2  0
  6  1  1  0
  7 16  1  0
  7  5  1  0
  8  7  2  0
  9 10  2  0
  9  8  1  0
 10 11  1  0
 11 12  1  0
 11 16  2  0
 12 13  2  0
 13 14  1  0
 15 14  2  0
 16 15  1  0
 17 18  2  0
 19 18  1  0
 20 19  2  0
 21 20  1  0
 21 22  2  0
 22 17  1  0
  2 23  1  0
  3 24  1  0
  8 25  1  0
  9 26  1  0
 10 27  1  0
 12 28  1  0
 13 29  1  0
 14 30  1  0
 15 31  1  0
 17 32  1  0
 18 33  1  0
 19 34  1  0
M  ISO  8  23  14  24  14  25  14  26  14  27  14  28  14  29  14  30  14
M  ISO  4  31  14  32  14  33  14  34  14
M  END
>  <minimizedAffinity>  (1) 
-5.12511253

>  <minimizedRMSD>  (1) 
1.57328069

$$$$
