
     RDKit          3D

 25 27  0  0  0  0  0  0  0  0999 V2000
   37.1660   30.3330   40.3640 C   0  0  0  0  0  0  0  0  0  0  0  0
   37.2080   31.6960   40.5180 C   0  0  0  0  0  0  0  0  0  0  0  0
   37.1760   32.4450   39.3490 C   0  0  0  0  0  0  0  0  0  0  0  0
   37.1080   31.8950   38.1250 N   0  0  0  0  0  0  0  0  0  0  0  0
   37.0670   30.5350   38.0090 C   0  0  0  0  0  0  0  0  0  0  0  0
   37.0980   29.7950   39.1410 N   0  0  0  0  0  0  0  0  0  0  0  0
   36.9950   29.8290   36.7750 N   0  0  0  0  0  0  0  0  0  0  0  0
   36.5560   30.1150   35.5520 N   0  0  0  0  0  0  0  0  0  0  0  0
   36.7260   29.0640   34.7400 C   0  0  0  0  0  0  0  0  0  0  0  0
   37.3040   28.0600   35.4940 C   0  0  0  0  0  0  0  0  0  0  0  0
   37.4670   28.5640   36.7850 C   0  0  0  0  0  0  0  0  0  0  0  0
   38.1110   28.9180   43.6130 C   0  0  0  0  0  0  0  0  0  0  0  0
   37.2470   27.8090   43.7280 C   0  0  0  0  0  0  0  0  0  0  0  0
   36.3510   27.5620   42.6860 C   0  0  0  0  0  0  0  0  0  0  0  0
   36.3450   28.4040   41.5950 N   0  0  0  0  0  0  0  0  0  0  0  0
   37.1960   29.4540   41.5370 C   0  0  0  0  0  0  0  0  0  0  0  0
   38.0590   29.7030   42.5250 N   0  0  0  0  0  0  0  0  0  0  0  0
   37.2638   32.1680   41.5100 H   0  0  0  0  0  0  0  0  0  0  0  0
   37.2079   33.5416   39.4290 H   0  0  0  0  0  0  0  0  0  0  0  0
   36.4567   29.0098   33.6748 H   0  0  0  0  0  0  0  0  0  0  0  0
   37.5824   27.0553   35.1432 H   0  0  0  0  0  0  0  0  0  0  0  0
   37.8977   28.0323   37.6463 H   0  0  0  0  0  0  0  0  0  0  0  0
   38.8288   29.1402   44.4163 H   0  0  0  0  0  0  0  0  0  0  0  0
   37.2782   27.1572   44.6135 H   0  0  0  0  0  0  0  0  0  0  0  0
   35.6599   26.7077   42.7352 H   0  0  0  0  0  0  0  0  0  0  0  0
  1  2  2  0
  1 16  1  0
  3  2  1  0
  4  3  2  0
  5  4  1  0
  5  6  2  0
  6  1  1  0
  7 11  1  0
  7  5  1  0
  8  7  1  0
  9 10  1  0
  9  8  2  0
 10 11  2  0
 12 13  2  0
 14 13  1  0
 15 14  2  0
 16 15  1  0
 16 17  2  0
 17 12  1  0
  2 18  1  0
  3 19  1  0
  9 20  1  0
 10 21  1  0
 11 22  1  0
 12 23  1  0
 13 24  1  0
 14 25  1  0
M  ISO  8  18  14  19  14  20  14  21  14  22  14  23  14  24  14  25  14
M  END
>  <minimizedAffinity>  (1) 
-4.64416647

>  <minimizedRMSD>  (1) 
0.593661845

$$$$
