
     RDKit          3D

 25 27  0  0  0  0  0  0  0  0999 V2000
   37.1440   30.1750   40.4320 C   0  0  0  0  0  0  0  0  0  0  0  0
   37.1630   31.5480   40.5480 C   0  0  0  0  0  0  0  0  0  0  0  0
   37.1520   32.2910   39.3930 C   0  0  0  0  0  0  0  0  0  0  0  0
   37.1240   31.6990   38.1670 N   0  0  0  0  0  0  0  0  0  0  0  0
   37.1070   30.3460   38.0860 C   0  0  0  0  0  0  0  0  0  0  0  0
   37.1170   29.5850   39.2100 N   0  0  0  0  0  0  0  0  0  0  0  0
   37.0770   29.6500   36.8320 N   0  0  0  0  0  0  0  0  0  0  0  0
   37.7310   28.4780   36.7130 C   0  0  0  0  0  0  0  0  0  0  0  0
   37.5250   28.0560   35.4190 C   0  0  0  0  0  0  0  0  0  0  0  0
   36.7610   28.9650   34.7880 N   0  0  0  0  0  0  0  0  0  0  0  0
   36.4770   29.9670   35.6700 C   0  0  0  0  0  0  0  0  0  0  0  0
   38.0140   28.8710   43.7490 C   0  0  0  0  0  0  0  0  0  0  0  0
   37.1430   27.7430   43.8650 C   0  0  0  0  0  0  0  0  0  0  0  0
   36.2940   27.4730   42.8040 C   0  0  0  0  0  0  0  0  0  0  0  0
   36.3250   28.2860   41.7050 N   0  0  0  0  0  0  0  0  0  0  0  0
   37.1550   29.3420   41.6260 C   0  0  0  0  0  0  0  0  0  0  0  0
   37.9850   29.6240   42.6370 N   0  0  0  0  0  0  0  0  0  0  0  0
   37.1862   32.0337   41.5347 H   0  0  0  0  0  0  0  0  0  0  0  0
   37.1661   33.3889   39.4598 H   0  0  0  0  0  0  0  0  0  0  0  0
   38.3119   27.9627   37.4921 H   0  0  0  0  0  0  0  0  0  0  0  0
   37.9194   27.1300   34.9753 H   0  0  0  0  0  0  0  0  0  0  0  0
   35.8723   30.8637   35.4691 H   0  0  0  0  0  0  0  0  0  0  0  0
   38.7052   29.1212   44.5673 H   0  0  0  0  0  0  0  0  0  0  0  0
   37.1469   27.1114   44.7656 H   0  0  0  0  0  0  0  0  0  0  0  0
   35.6047   26.6167   42.8451 H   0  0  0  0  0  0  0  0  0  0  0  0
  1  2  2  0
  1 16  1  0
  3  2  1  0
  4  3  2  0
  5  4  1  0
  5  6  2  0
  6  1  1  0
  7  5  1  0
  8  7  1  0
  9  8  2  0
 10  9  1  0
 10 11  2  0
 11  7  1  0
 12 13  2  0
 14 13  1  0
 15 14  2  0
 16 15  1  0
 16 17  2  0
 17 12  1  0
  2 18  1  0
  3 19  1  0
  8 20  1  0
  9 21  1  0
 11 22  1  0
 12 23  1  0
 13 24  1  0
 14 25  1  0
M  ISO  8  18  14  19  14  20  14  21  14  22  14  23  14  24  14  25  14
M  END
>  <minimizedAffinity>  (1) 
-4.47888803

>  <minimizedRMSD>  (1) 
0.651515901

$$$$
