
     RDKit          3D

 25 27  0  0  0  0  0  0  0  0999 V2000
   37.1790   30.3630   40.3580 C   0  0  0  0  0  0  0  0  0  0  0  0
   37.2800   31.7180   40.5090 C   0  0  0  0  0  0  0  0  0  0  0  0
   37.2550   32.4900   39.3670 C   0  0  0  0  0  0  0  0  0  0  0  0
   37.1360   31.9500   38.1400 N   0  0  0  0  0  0  0  0  0  0  0  0
   37.0370   30.5990   38.0120 C   0  0  0  0  0  0  0  0  0  0  0  0
   37.0590   29.8090   39.1260 N   0  0  0  0  0  0  0  0  0  0  0  0
   38.0940   28.9080   43.5930 C   0  0  0  0  0  0  0  0  0  0  0  0
   37.2130   27.7870   43.6800 C   0  0  0  0  0  0  0  0  0  0  0  0
   36.3350   27.5660   42.6320 C   0  0  0  0  0  0  0  0  0  0  0  0
   36.3550   28.4280   41.5690 N   0  0  0  0  0  0  0  0  0  0  0  0
   37.1980   29.4720   41.5200 C   0  0  0  0  0  0  0  0  0  0  0  0
   38.0740   29.7310   42.5190 N   0  0  0  0  0  0  0  0  0  0  0  0
   36.9060   29.9600   36.7060 C   0  0  0  0  0  0  0  0  0  0  0  0
   37.1630   28.6000   36.5160 C   0  0  0  0  0  0  0  0  0  0  0  0
   36.9430   28.3430   35.1800 C   0  0  0  0  0  0  0  0  0  0  0  0
   36.5640   29.5430   34.6080 C   0  0  0  0  0  0  0  0  0  0  0  0
   36.5560   30.4680   35.5430 O   0  0  0  0  0  0  0  0  0  0  0  0
   37.3776   32.1753   41.5047 H   0  0  0  0  0  0  0  0  0  0  0  0
   37.3349   33.5830   39.4618 H   0  0  0  0  0  0  0  0  0  0  0  0
   38.8005   29.1056   44.4127 H   0  0  0  0  0  0  0  0  0  0  0  0
   37.2314   27.1189   44.5537 H   0  0  0  0  0  0  0  0  0  0  0  0
   35.6368   26.7163   42.6534 H   0  0  0  0  0  0  0  0  0  0  0  0
   37.4788   27.8766   37.2821 H   0  0  0  0  0  0  0  0  0  0  0  0
   37.0482   27.3743   34.6696 H   0  0  0  0  0  0  0  0  0  0  0  0
   36.3115   29.6982   33.5487 H   0  0  0  0  0  0  0  0  0  0  0  0
  1  2  2  0
  1 11  1  0
  3  2  1  0
  4  3  2  0
  5  4  1  0
  5  6  2  0
  6  1  1  0
  7  8  2  0
  9  8  1  0
 10  9  2  0
 11 10  1  0
 11 12  2  0
 12  7  1  0
 13  5  1  0
 14 13  2  0
 15 14  1  0
 16 15  2  0
 16 17  1  0
 17 13  1  0
  2 18  1  0
  3 19  1  0
  7 20  1  0
  8 21  1  0
  9 22  1  0
 14 23  1  0
 15 24  1  0
 16 25  1  0
M  ISO  8  18  14  19  14  20  14  21  14  22  14  23  14  24  14  25  14
M  END
>  <minimizedAffinity>  (1) 
-4.37991953

>  <minimizedRMSD>  (1) 
0.673434973

$$$$
