
     RDKit          3D

 26 28  0  0  0  0  0  0  0  0999 V2000
   37.1310   30.1020   40.4010 C   0  0  0  0  0  0  0  0  0  0  0  0
   37.5290   31.4120   40.4100 C   0  0  0  0  0  0  0  0  0  0  0  0
   37.4380   32.0890   39.2060 C   0  0  0  0  0  0  0  0  0  0  0  0
   36.9800   31.5010   38.0640 N   0  0  0  0  0  0  0  0  0  0  0  0
   36.5980   30.2020   38.1060 C   0  0  0  0  0  0  0  0  0  0  0  0
   36.6750   29.5140   39.2680 N   0  0  0  0  0  0  0  0  0  0  0  0
   38.1130   28.8960   43.7190 C   0  0  0  0  0  0  0  0  0  0  0  0
   37.2680   27.7780   43.9050 C   0  0  0  0  0  0  0  0  0  0  0  0
   36.3810   27.4630   42.8880 C   0  0  0  0  0  0  0  0  0  0  0  0
   36.3640   28.2430   41.7600 N   0  0  0  0  0  0  0  0  0  0  0  0
   37.1880   29.3050   41.6200 C   0  0  0  0  0  0  0  0  0  0  0  0
   38.0590   29.6310   42.5960 N   0  0  0  0  0  0  0  0  0  0  0  0
   36.1060   29.5570   36.8930 C   0  0  0  0  0  0  0  0  0  0  0  0
   34.8530   28.9770   36.9000 C   0  0  0  0  0  0  0  0  0  0  0  0
   34.4900   28.3960   35.7010 C   0  0  0  0  0  0  0  0  0  0  0  0
   35.2580   28.3740   34.5940 N   0  0  0  0  0  0  0  0  0  0  0  0
   36.4750   28.9580   34.6470 C   0  0  0  0  0  0  0  0  0  0  0  0
   36.8940   29.5490   35.8030 N   0  0  0  0  0  0  0  0  0  0  0  0
   37.9005   31.8995   41.3234 H   0  0  0  0  0  0  0  0  0  0  0  0
   37.7476   33.1439   39.1689 H   0  0  0  0  0  0  0  0  0  0  0  0
   38.8282   29.1692   44.5088 H   0  0  0  0  0  0  0  0  0  0  0  0
   37.3131   27.1783   44.8260 H   0  0  0  0  0  0  0  0  0  0  0  0
   35.7025   26.6025   42.9837 H   0  0  0  0  0  0  0  0  0  0  0  0
   34.1998   28.9777   37.7850 H   0  0  0  0  0  0  0  0  0  0  0  0
   33.5018   27.9161   35.6455 H   0  0  0  0  0  0  0  0  0  0  0  0
   37.1263   28.9570   33.7605 H   0  0  0  0  0  0  0  0  0  0  0  0
  1  2  2  0
  1 11  1  0
  3  2  1  0
  4  5  1  0
  4  3  2  0
  5  6  2  0
  6  1  1  0
  7  8  2  0
  9  8  1  0
 10  9  2  0
 11 10  1  0
 11 12  2  0
 12  7  1  0
 13 14  2  0
 13  5  1  0
 15 14  1  0
 16 17  1  0
 16 15  2  0
 17 18  2  0
 18 13  1  0
  2 19  1  0
  3 20  1  0
  7 21  1  0
  8 22  1  0
  9 23  1  0
 14 24  1  0
 15 25  1  0
 17 26  1  0
M  ISO  8  19  14  20  14  21  14  22  14  23  14  24  14  25  14  26  14
M  END
>  <minimizedAffinity>  (1) 
-4.34320021

>  <minimizedRMSD>  (1) 
1.53469455

$$$$
