
     RDKit          3D

 25 27  0  0  0  0  0  0  0  0999 V2000
   37.2380   30.5480   40.3460 C   0  0  0  0  0  0  0  0  0  0  0  0
   37.3270   31.8930   40.5810 C   0  0  0  0  0  0  0  0  0  0  0  0
   37.3300   32.7150   39.4670 C   0  0  0  0  0  0  0  0  0  0  0  0
   37.2500   32.2330   38.2140 N   0  0  0  0  0  0  0  0  0  0  0  0
   37.1610   30.8780   38.0110 C   0  0  0  0  0  0  0  0  0  0  0  0
   37.1580   30.0690   39.0990 N   0  0  0  0  0  0  0  0  0  0  0  0
   38.0770   28.9080   43.5310 C   0  0  0  0  0  0  0  0  0  0  0  0
   37.1750   27.8000   43.5450 C   0  0  0  0  0  0  0  0  0  0  0  0
   36.3110   27.6460   42.4710 C   0  0  0  0  0  0  0  0  0  0  0  0
   36.3800   28.5680   41.4680 N   0  0  0  0  0  0  0  0  0  0  0  0
   37.2290   29.5970   41.4700 C   0  0  0  0  0  0  0  0  0  0  0  0
   38.0720   29.7670   42.4960 N   0  0  0  0  0  0  0  0  0  0  0  0
   37.0720   30.3040   36.6510 C   0  0  0  0  0  0  0  0  0  0  0  0
   37.4280   28.8810   36.4150 C   0  0  0  0  0  0  0  0  0  0  0  0
   35.9660   29.3180   36.3710 C   0  0  0  0  0  0  0  0  0  0  0  0
   37.3927   32.2996   41.6010 H   0  0  0  0  0  0  0  0  0  0  0  0
   37.4005   33.8031   39.6122 H   0  0  0  0  0  0  0  0  0  0  0  0
   38.7758   29.0586   44.3670 H   0  0  0  0  0  0  0  0  0  0  0  0
   37.1661   27.0889   44.3842 H   0  0  0  0  0  0  0  0  0  0  0  0
   35.5962   26.8109   42.4295 H   0  0  0  0  0  0  0  0  0  0  0  0
   37.4080   31.2519   36.2054 H   0  0  0  0  0  0  0  0  0  0  0  0
   37.9429   28.5895   35.4877 H   0  0  0  0  0  0  0  0  0  0  0  0
   37.9954   28.1192   36.9698 H   0  0  0  0  0  0  0  0  0  0  0  0
   35.4259   29.3490   35.4132 H   0  0  0  0  0  0  0  0  0  0  0  0
   35.0389   29.0123   36.8779 H   0  0  0  0  0  0  0  0  0  0  0  0
  1  2  2  0
  1 11  1  0
  3  2  1  0
  4  3  2  0
  5  4  1  0
  5  6  2  0
  6  1  1  0
  7  8  2  0
  9  8  1  0
 10 11  1  0
 10  9  2  0
 11 12  2  0
 12  7  1  0
 13  5  1  0
 14 13  1  0
 15 14  1  0
 15 13  1  0
  2 16  1  0
  3 17  1  0
  7 18  1  0
  8 19  1  0
  9 20  1  0
 13 21  1  0
 14 22  1  0
 14 23  1  0
 15 24  1  0
 15 25  1  0
M  ISO  8  16  14  17  14  18  14  19  14  20  14  21  13  22  13  23  13
M  ISO  2  24  13  25  13
M  END
>  <minimizedAffinity>  (1) 
-4.20434952

>  <minimizedRMSD>  (1) 
0.343159974

$$$$
