
     RDKit          3D

 24 25  0  0  0  0  0  0  0  0999 V2000
   37.2300   30.5350   40.3640 C   0  0  0  0  0  0  0  0  0  0  0  0
   37.3110   31.8840   40.5860 C   0  0  0  0  0  0  0  0  0  0  0  0
   37.3190   32.7050   39.4730 C   0  0  0  0  0  0  0  0  0  0  0  0
   37.2500   32.2090   38.2070 N   0  0  0  0  0  0  0  0  0  0  0  0
   37.1700   30.8570   38.0200 C   0  0  0  0  0  0  0  0  0  0  0  0
   37.1620   30.0400   39.1030 N   0  0  0  0  0  0  0  0  0  0  0  0
   38.0850   28.9100   43.5420 C   0  0  0  0  0  0  0  0  0  0  0  0
   37.1800   27.8030   43.5670 C   0  0  0  0  0  0  0  0  0  0  0  0
   36.3010   27.6490   42.4830 C   0  0  0  0  0  0  0  0  0  0  0  0
   36.3600   28.5600   41.4770 N   0  0  0  0  0  0  0  0  0  0  0  0
   37.2150   29.5880   41.4770 C   0  0  0  0  0  0  0  0  0  0  0  0
   38.0730   29.7620   42.5050 N   0  0  0  0  0  0  0  0  0  0  0  0
   37.0960   30.3500   36.6370 C   0  0  0  0  0  0  0  0  0  0  0  0
   36.0030   29.3360   36.5180 C   0  0  0  0  0  0  0  0  0  0  0  0
   37.3672   32.2962   41.6043 H   0  0  0  0  0  0  0  0  0  0  0  0
   37.3832   33.7939   39.6153 H   0  0  0  0  0  0  0  0  0  0  0  0
   38.7904   29.0631   44.3720 H   0  0  0  0  0  0  0  0  0  0  0  0
   37.1728   27.0947   44.4086 H   0  0  0  0  0  0  0  0  0  0  0  0
   35.5851   26.8146   42.4493 H   0  0  0  0  0  0  0  0  0  0  0  0
   36.8915   31.1871   35.9533 H   0  0  0  0  0  0  0  0  0  0  0  0
   38.0545   29.8779   36.3753 H   0  0  0  0  0  0  0  0  0  0  0  0
   35.6746   29.0313   37.5226 H   0  0  0  0  0  0  0  0  0  0  0  0
   35.1544   29.7739   35.9719 H   0  0  0  0  0  0  0  0  0  0  0  0
   36.3761   28.4570   35.9719 H   0  0  0  0  0  0  0  0  0  0  0  0
  1  2  2  0
  1 11  1  0
  3  2  1  0
  4  3  2  0
  5  4  1  0
  5  6  2  0
  6  1  1  0
  7  8  2  0
  9  8  1  0
 10 11  1  0
 10  9  2  0
 11 12  2  0
 12  7  1  0
 13  5  1  0
 14 13  1  0
  2 15  1  0
  3 16  1  0
  7 17  1  0
  8 18  1  0
  9 19  1  0
 13 20  1  0
 13 21  1  0
 14 22  1  0
 14 23  1  0
 14 24  1  0
M  ISO  8  15  14  16  14  17  14  18  14  19  14  20   8  21   8  22   8
M  ISO  2  23   8  24   8
M  END
>  <minimizedAffinity>  (1) 
-4.00418139

>  <minimizedRMSD>  (1) 
0.487043351

$$$$
