
     RDKit          3D

 21 22  0  0  0  0  0  0  0  0999 V2000
   37.2370   30.5340   40.3490 C   0  0  0  0  0  0  0  0  0  0  0  0
   37.3140   31.8820   40.5780 C   0  0  0  0  0  0  0  0  0  0  0  0
   37.3180   32.7150   39.4860 C   0  0  0  0  0  0  0  0  0  0  0  0
   37.2490   32.2360   38.2200 N   0  0  0  0  0  0  0  0  0  0  0  0
   37.1730   30.8860   38.0180 C   0  0  0  0  0  0  0  0  0  0  0  0
   37.1690   30.0610   39.0950 N   0  0  0  0  0  0  0  0  0  0  0  0
   38.0830   28.9160   43.5330 C   0  0  0  0  0  0  0  0  0  0  0  0
   37.1830   27.8100   43.5540 C   0  0  0  0  0  0  0  0  0  0  0  0
   36.3050   27.6460   42.4720 C   0  0  0  0  0  0  0  0  0  0  0  0
   36.3740   28.5630   41.4670 N   0  0  0  0  0  0  0  0  0  0  0  0
   37.2290   29.5920   41.4730 C   0  0  0  0  0  0  0  0  0  0  0  0
   38.0720   29.7670   42.4910 N   0  0  0  0  0  0  0  0  0  0  0  0
   37.0960   30.3070   36.6480 C   0  0  0  0  0  0  0  0  0  0  0  0
   37.3707   32.2835   41.6006 H   0  0  0  0  0  0  0  0  0  0  0  0
   37.3789   33.8020   39.6434 H   0  0  0  0  0  0  0  0  0  0  0  0
   38.7840   29.0728   44.3661 H   0  0  0  0  0  0  0  0  0  0  0  0
   37.1773   27.1034   44.3971 H   0  0  0  0  0  0  0  0  0  0  0  0
   35.5900   26.8109   42.4367 H   0  0  0  0  0  0  0  0  0  0  0  0
   36.9513   29.2188   36.7175 H   0  0  0  0  0  0  0  0  0  0  0  0
   36.2496   30.7557   36.1073 H   0  0  0  0  0  0  0  0  0  0  0  0
   38.0302   30.5189   36.1073 H   0  0  0  0  0  0  0  0  0  0  0  0
  1  2  2  0
  1 11  1  0
  3  2  1  0
  4  3  2  0
  5  4  1  0
  5  6  2  0
  6  1  1  0
  7  8  2  0
  9  8  1  0
 10 11  1  0
 10  9  2  0
 11 12  2  0
 12  7  1  0
 13  5  1  0
  2 14  1  0
  3 15  1  0
  7 16  1  0
  8 17  1  0
  9 18  1  0
 13 19  1  0
 13 20  1  0
 13 21  1  0
M  ISO  8  14  14  15  14  16  14  17  14  18  14  19   8  20   8  21   8
M  END
>  <minimizedAffinity>  (1) 
-3.96190929

>  <minimizedRMSD>  (1) 
0.258693486

$$$$
