
     RDKit          3D

 19 20  0  0  0  0  0  0  0  0999 V2000
   37.1890   30.4180   40.4010 C   0  0  0  0  0  0  0  0  0  0  0  0
   37.2890   31.7810   40.6040 C   0  0  0  0  0  0  0  0  0  0  0  0
   37.2690   32.5770   39.4660 C   0  0  0  0  0  0  0  0  0  0  0  0
   37.1590   32.0660   38.2220 N   0  0  0  0  0  0  0  0  0  0  0  0
   37.0630   30.7200   38.0640 C   0  0  0  0  0  0  0  0  0  0  0  0
   37.0780   29.8990   39.1530 N   0  0  0  0  0  0  0  0  0  0  0  0
   38.0770   28.8740   43.6020 C   0  0  0  0  0  0  0  0  0  0  0  0
   37.2060   27.7650   43.6690 C   0  0  0  0  0  0  0  0  0  0  0  0
   36.3370   27.5790   42.6070 C   0  0  0  0  0  0  0  0  0  0  0  0
   36.3700   28.4650   41.5730 N   0  0  0  0  0  0  0  0  0  0  0  0
   37.2020   29.5060   41.5330 C   0  0  0  0  0  0  0  0  0  0  0  0
   38.0630   29.7150   42.5540 N   0  0  0  0  0  0  0  0  0  0  0  0
   36.9100   29.8810   36.4830 S   0  0  0  0  0  0  0  0  0  0  0  0
   37.3795   32.2122   41.6119 H   0  0  0  0  0  0  0  0  0  0  0  0
   37.3459   33.6680   39.5836 H   0  0  0  0  0  0  0  0  0  0  0  0
   38.7830   29.0537   44.4262 H   0  0  0  0  0  0  0  0  0  0  0  0
   37.2171   27.0780   44.5280 H   0  0  0  0  0  0  0  0  0  0  0  0
   35.6342   26.7328   42.5986 H   0  0  0  0  0  0  0  0  0  0  0  0
   36.6672   28.5494   36.6943 H   0  0  0  0  0  0  0  0  0  0  0  0
  1  2  2  0
  1 11  1  0
  3  2  1  0
  4  3  2  0
  5  4  1  0
  5  6  2  0
  6  1  1  0
  7  8  2  0
  9  8  1  0
 10  9  2  0
 11 10  1  0
 11 12  2  0
 12  7  1  0
 13  5  1  0
  2 14  1  0
  3 15  1  0
  7 16  1  0
  8 17  1  0
  9 18  1  0
 13 19  1  0
M  ISO  6  14  14  15  14  16  14  17  14  18  14  19  11
M  END
>  <minimizedAffinity>  (1) 
-3.86082864

>  <minimizedRMSD>  (1) 
0.347517639

$$$$
