
     RDKit          3D

 33 35  0  0  0  0  0  0  0  0999 V2000
   37.6830   27.7510   41.5650 C   0  0  0  0  0  0  0  0  0  0  0  0
   38.2320   28.2330   42.7320 C   0  0  0  0  0  0  0  0  0  0  0  0
   38.3660   29.5950   42.8700 C   0  0  0  0  0  0  0  0  0  0  0  0
   37.9810   30.4520   41.9050 N   0  0  0  0  0  0  0  0  0  0  0  0
   37.4470   29.9550   40.7690 C   0  0  0  0  0  0  0  0  0  0  0  0
   37.3020   28.6240   40.6060 N   0  0  0  0  0  0  0  0  0  0  0  0
   37.8870   24.1300   42.1150 C   0  0  0  0  0  0  0  0  0  0  0  0
   37.1560   23.6270   40.9790 C   0  0  0  0  0  0  0  0  0  0  0  0
   36.6320   24.5400   40.0900 C   0  0  0  0  0  0  0  0  0  0  0  0
   36.8150   25.8850   40.2980 N   0  0  0  0  0  0  0  0  0  0  0  0
   37.5030   26.3190   41.3710 C   0  0  0  0  0  0  0  0  0  0  0  0
   38.0230   25.4530   42.2540 N   0  0  0  0  0  0  0  0  0  0  0  0
   37.0130   30.7160   39.5750 C   0  0  0  0  0  0  0  0  0  0  0  0
   36.1590   30.2850   38.7650 O   0  0  0  0  0  0  0  0  0  0  0  0
   39.8070   33.8790   39.6270 C   0  0  0  0  0  0  0  0  0  0  0  0
   38.5200   34.2140   40.0900 C   0  0  0  0  0  0  0  0  0  0  0  0
   37.6100   33.2080   40.0550 C   0  0  0  0  0  0  0  0  0  0  0  0
   37.7880   31.9270   39.6340 C   0  0  0  0  0  0  0  0  0  0  0  0
   39.0800   31.6380   39.1800 C   0  0  0  0  0  0  0  0  0  0  0  0
   40.1120   32.5910   39.1640 C   0  0  0  0  0  0  0  0  0  0  0  0
   40.9260   35.2410   39.7400 S   0  0  0  0  0  0  0  0  0  0  0  0
   41.8700   35.1340   38.5720 O   0  0  0  0  0  0  0  0  0  0  0  0
   41.7180   35.1300   41.0220 O   0  0  0  0  0  0  0  0  0  0  0  0
   38.5541   27.5488   43.5308 H   0  0  0  0  0  0  0  0  0  0  0  0
   38.8010   29.9966   43.7971 H   0  0  0  0  0  0  0  0  0  0  0  0
   38.3238   23.4401   42.8520 H   0  0  0  0  0  0  0  0  0  0  0  0
   37.0205   22.5461   40.8263 H   0  0  0  0  0  0  0  0  0  0  0  0
   36.0667   24.1913   39.2131 H   0  0  0  0  0  0  0  0  0  0  0  0
   38.2697   35.2212   40.4547 H   0  0  0  0  0  0  0  0  0  0  0  0
   36.6007   33.4605   40.4123 H   0  0  0  0  0  0  0  0  0  0  0  0
   39.2966   30.6213   38.8204 H   0  0  0  0  0  0  0  0  0  0  0  0
   41.1194   32.3369   38.8026 H   0  0  0  0  0  0  0  0  0  0  0  0
   40.2518   36.4336   39.7287 H   0  0  0  0  0  0  0  0  0  0  0  0
  1  2  2  0
  2  3  1  0
  4  3  2  0
  5  4  1  0
  6  5  2  0
  6  1  1  0
  7 12  2  0
  8  7  1  0
  9 10  1  0
  9  8  2  0
 10 11  2  0
 11  1  1  0
 11 12  1  0
 13 18  1  0
 13  5  1  0
 14 13  2  0
 15 21  1  0
 15 16  2  0
 17 16  1  0
 18 17  2  0
 19 18  1  0
 20 19  2  0
 20 15  1  0
 21 23  2  0
 22 21  2  0
  2 24  1  0
  3 25  1  0
  7 26  1  0
  8 27  1  0
  9 28  1  0
 16 29  1  0
 17 30  1  0
 19 31  1  0
 20 32  1  0
 21 33  1  0
M  ISO  8  24  14  25  14  26  14  27  14  28  14  29  14  30  14  31  14
M  ISO  2  32  14  33  11
M  END
>  <minimizedAffinity>  (1) 
-5.46259308

>  <minimizedRMSD>  (1) 
4.70608759

$$$$
