
     RDKit          3D

 36 38  0  0  0  0  0  0  0  0999 V2000
   37.3290   31.2300   38.9330 C   0  0  0  0  0  0  0  0  0  0  0  0
   37.2070   32.5980   38.9540 C   0  0  0  0  0  0  0  0  0  0  0  0
   37.8200   33.2850   39.9610 C   0  0  0  0  0  0  0  0  0  0  0  0
   38.5330   32.6600   40.9230 N   0  0  0  0  0  0  0  0  0  0  0  0
   38.6490   31.3000   40.8960 C   0  0  0  0  0  0  0  0  0  0  0  0
   38.0430   30.6050   39.8980 N   0  0  0  0  0  0  0  0  0  0  0  0
   35.0480   28.9070   37.2410 C   0  0  0  0  0  0  0  0  0  0  0  0
   35.5240   28.9690   35.8820 C   0  0  0  0  0  0  0  0  0  0  0  0
   36.5950   29.7970   35.6110 C   0  0  0  0  0  0  0  0  0  0  0  0
   37.1560   30.5160   36.6260 N   0  0  0  0  0  0  0  0  0  0  0  0
   36.6980   30.4450   37.8880 C   0  0  0  0  0  0  0  0  0  0  0  0
   35.6580   29.6460   38.1730 N   0  0  0  0  0  0  0  0  0  0  0  0
   39.3750   30.4900   41.8510 C   0  0  0  0  0  0  0  0  0  0  0  0
   40.6300   30.5220   41.9910 O   0  0  0  0  0  0  0  0  0  0  0  0
   38.6170   29.5560   42.7340 C   0  0  0  0  0  0  0  0  0  0  0  0
   39.2020   28.1610   42.6740 C   0  0  0  0  0  0  0  0  0  0  0  0
   38.4390   27.3380   43.7210 C   0  0  0  0  0  0  0  0  0  0  0  0
   37.0620   27.1090   43.1890 C   0  0  0  0  0  0  0  0  0  0  0  0
   36.6100   28.1240   42.1950 C   0  0  0  0  0  0  0  0  0  0  0  0
   37.1670   29.4960   42.3940 C   0  0  0  0  0  0  0  0  0  0  0  0
   36.6306   33.1255   38.1798 H   0  0  0  0  0  0  0  0  0  0  0  0
   37.7308   34.3810   39.9903 H   0  0  0  0  0  0  0  0  0  0  0  0
   34.1971   28.2625   37.5068 H   0  0  0  0  0  0  0  0  0  0  0  0
   35.0493   28.3758   35.0865 H   0  0  0  0  0  0  0  0  0  0  0  0
   36.9917   29.8762   34.5881 H   0  0  0  0  0  0  0  0  0  0  0  0
   38.7101   29.9549   43.7549 H   0  0  0  0  0  0  0  0  0  0  0  0
   39.0609   27.7300   41.6718 H   0  0  0  0  0  0  0  0  0  0  0  0
   40.2832   28.1680   42.8762 H   0  0  0  0  0  0  0  0  0  0  0  0
   38.9445   26.3748   43.8840 H   0  0  0  0  0  0  0  0  0  0  0  0
   38.4013   27.8705   44.6828 H   0  0  0  0  0  0  0  0  0  0  0  0
   37.0394   26.1208   42.7064 H   0  0  0  0  0  0  0  0  0  0  0  0
   36.3774   27.1826   44.0468 H   0  0  0  0  0  0  0  0  0  0  0  0
   35.5133   28.1900   42.2496 H   0  0  0  0  0  0  0  0  0  0  0  0
   36.9795   27.7816   41.2171 H   0  0  0  0  0  0  0  0  0  0  0  0
   37.0132   30.0626   41.4638 H   0  0  0  0  0  0  0  0  0  0  0  0
   36.6356   29.9152   43.2611 H   0  0  0  0  0  0  0  0  0  0  0  0
  1  2  2  0
  1  6  1  0
  2  3  1  0
  3  4  2  0
  5  4  1  0
  5 13  1  0
  6  5  2  0
  7 12  2  0
  8  7  1  0
  9  8  2  0
  9 10  1  0
 10 11  2  0
 11 12  1  0
 11  1  1  0
 13 14  2  0
 13 15  1  0
 16 15  1  0
 16 17  1  0
 18 17  1  0
 19 20  1  0
 19 18  1  0
 20 15  1  0
  2 21  1  0
  3 22  1  0
  7 23  1  0
  8 24  1  0
  9 25  1  0
 15 26  1  0
 16 27  1  0
 16 28  1  0
 17 29  1  0
 17 30  1  0
 18 31  1  0
 18 32  1  0
 19 33  1  0
 19 34  1  0
 20 35  1  0
 20 36  1  0
M  ISO  8  21  14  22  14  23  14  24  14  25  14  26  13  27  13  28  13
M  ISO  8  29  13  30  13  31  13  32  13  33  13  34  13  35  13  36  13
M  END
>  <minimizedAffinity>  (1) 
-5.33357668

>  <minimizedRMSD>  (1) 
6.0200386

$$$$
