
     RDKit          3D

 21 22  0  0  0  0  0  0  0  0999 V2000
   37.1800   30.3200   40.3800 C   0  0  0  0  0  0  0  0  0  0  0  0
   37.1390   31.6850   40.5610 C   0  0  0  0  0  0  0  0  0  0  0  0
   37.1600   32.4800   39.4420 C   0  0  0  0  0  0  0  0  0  0  0  0
   37.2200   31.9450   38.1890 N   0  0  0  0  0  0  0  0  0  0  0  0
   37.2600   30.6080   38.0460 C   0  0  0  0  0  0  0  0  0  0  0  0
   37.2410   29.8080   39.1340 N   0  0  0  0  0  0  0  0  0  0  0  0
   37.9990   28.8560   43.6460 C   0  0  0  0  0  0  0  0  0  0  0  0
   37.1140   27.7180   43.6830 C   0  0  0  0  0  0  0  0  0  0  0  0
   36.2930   27.5130   42.6020 C   0  0  0  0  0  0  0  0  0  0  0  0
   36.3230   28.3660   41.5320 N   0  0  0  0  0  0  0  0  0  0  0  0
   37.1600   29.4220   41.5240 C   0  0  0  0  0  0  0  0  0  0  0  0
   37.9700   29.6400   42.5710 N   0  0  0  0  0  0  0  0  0  0  0  0
   37.3270   29.9090   36.7630 C   0  0  0  0  0  0  0  0  0  0  0  0
   36.3670   29.8760   35.9360 O   0  0  0  0  0  0  0  0  0  0  0  0
   38.4850   29.2210   36.3630 O   0  0  0  0  0  0  0  0  0  0  0  0
   37.0910   32.1234   41.5687 H   0  0  0  0  0  0  0  0  0  0  0  0
   37.1277   33.5733   39.5587 H   0  0  0  0  0  0  0  0  0  0  0  0
   38.6794   29.0702   44.4834 H   0  0  0  0  0  0  0  0  0  0  0  0
   37.0974   27.0379   44.5474 H   0  0  0  0  0  0  0  0  0  0  0  0
   35.6045   26.6551   42.5957 H   0  0  0  0  0  0  0  0  0  0  0  0
   38.5071   28.7550   35.4898 H   0  0  0  0  0  0  0  0  0  0  0  0
  1  2  2  0
  1 11  1  0
  3  2  1  0
  4  3  2  0
  5  4  1  0
  5  6  2  0
  6  1  1  0
  7  8  2  0
  9  8  1  0
 10  9  2  0
 11 10  1  0
 11 12  2  0
 12  7  1  0
 13  5  1  0
 14 13  2  0
 15 13  1  0
  2 16  1  0
  3 17  1  0
  7 18  1  0
  8 19  1  0
  9 20  1  0
 15 21  1  0
M  ISO  6  16  14  17  14  18  14  19  14  20  14  21   3
M  END
>  <minimizedAffinity>  (1) 
-4.20421839

>  <minimizedRMSD>  (1) 
0.43297556

$$$$
