
     RDKit          3D

 22 23  0  0  0  0  0  0  0  0999 V2000
   37.1890   30.3400   40.3910 C   0  0  0  0  0  0  0  0  0  0  0  0
   37.1410   31.6990   40.5640 C   0  0  0  0  0  0  0  0  0  0  0  0
   37.1600   32.4860   39.4390 C   0  0  0  0  0  0  0  0  0  0  0  0
   37.2240   31.9550   38.1800 N   0  0  0  0  0  0  0  0  0  0  0  0
   37.2690   30.6110   38.0470 C   0  0  0  0  0  0  0  0  0  0  0  0
   37.2510   29.8230   39.1380 N   0  0  0  0  0  0  0  0  0  0  0  0
   38.0120   28.8440   43.6420 C   0  0  0  0  0  0  0  0  0  0  0  0
   37.1320   27.7250   43.6720 C   0  0  0  0  0  0  0  0  0  0  0  0
   36.2980   27.5160   42.6010 C   0  0  0  0  0  0  0  0  0  0  0  0
   36.3430   28.3890   41.5460 N   0  0  0  0  0  0  0  0  0  0  0  0
   37.1720   29.4380   41.5280 C   0  0  0  0  0  0  0  0  0  0  0  0
   38.0000   29.6580   42.5740 N   0  0  0  0  0  0  0  0  0  0  0  0
   37.3390   29.9090   36.7770 C   0  0  0  0  0  0  0  0  0  0  0  0
   36.4000   29.8970   35.9230 O   0  0  0  0  0  0  0  0  0  0  0  0
   38.6320   29.3090   36.7780 N   0  0  0  0  0  0  0  0  0  0  0  0
   37.0891   32.1435   41.5689 H   0  0  0  0  0  0  0  0  0  0  0  0
   37.1225   33.5793   39.5539 H   0  0  0  0  0  0  0  0  0  0  0  0
   38.6933   29.0393   44.4833 H   0  0  0  0  0  0  0  0  0  0  0  0
   37.1204   27.0425   44.5346 H   0  0  0  0  0  0  0  0  0  0  0  0
   35.6052   26.6616   42.5904 H   0  0  0  0  0  0  0  0  0  0  0  0
   38.9377   28.7430   35.9736 H   0  0  0  0  0  0  0  0  0  0  0  0
   39.2606   29.4415   37.5831 H   0  0  0  0  0  0  0  0  0  0  0  0
  1  2  2  0
  1 11  1  0
  3  2  1  0
  4  3  2  0
  5  4  1  0
  5  6  2  0
  6  1  1  0
  7  8  2  0
  9  8  1  0
 10  9  2  0
 11 10  1  0
 11 12  2  0
 12  7  1  0
 13 15  1  0
 13  5  1  0
 14 13  2  0
  2 16  1  0
  3 17  1  0
  7 18  1  0
  8 19  1  0
  9 20  1  0
 15 21  1  0
 15 22  1  0
M  ISO  5  16  14  17  14  18  14  19  14  20  14
M  END
>  <minimizedAffinity>  (1) 
-4.19673109

>  <minimizedRMSD>  (1) 
0.456660956

$$$$
