
     RDKit          3D

 24 25  0  0  0  0  0  0  0  0999 V2000
   39.4180   31.6770   40.3540 C   0  0  0  0  0  0  0  0  0  0  0  0
   38.2390   32.4750   40.1930 C   0  0  0  0  0  0  0  0  0  0  0  0
   37.0510   31.8460   40.5340 C   0  0  0  0  0  0  0  0  0  0  0  0
   37.0650   30.5570   40.9840 N   0  0  0  0  0  0  0  0  0  0  0  0
   38.2080   29.8600   41.1140 C   0  0  0  0  0  0  0  0  0  0  0  0
   39.3720   30.4150   40.8020 N   0  0  0  0  0  0  0  0  0  0  0  0
   38.3790   33.8020   39.7120 N   0  0  0  0  0  0  0  0  0  0  0  0
   39.0110   34.8570   40.4140 C   0  0  0  0  0  0  0  0  0  0  0  0
   38.7960   34.8750   41.7090 N   0  0  0  0  0  0  0  0  0  0  0  0
   39.7950   35.7520   39.6100 N   0  0  0  0  0  0  0  0  0  0  0  0
   39.2400   35.6000   42.3090 H   0  0  0  0  0  0  0  0  0  0  0  0
   38.0430   28.5450   41.5920 C   0  0  0  0  0  0  0  0  0  0  0  0
   37.0570   27.6060   41.3560 C   0  0  0  0  0  0  0  0  0  0  0  0
   37.1040   26.3740   41.9380 C   0  0  0  0  0  0  0  0  0  0  0  0
   38.2850   26.1560   42.8200 C   0  0  0  0  0  0  0  0  0  0  0  0
   39.2210   27.7980   42.7090 S   0  0  0  0  0  0  0  0  0  0  0  0
   40.3946   32.1155   40.1011 H   0  0  0  0  0  0  0  0  0  0  0  0
   36.0970   32.3858   40.4419 H   0  0  0  0  0  0  0  0  0  0  0  0
   37.9916   34.0144   38.7816 H   0  0  0  0  0  0  0  0  0  0  0  0
   40.2850   36.5441   40.0497 H   0  0  0  0  0  0  0  0  0  0  0  0
   39.8674   35.6018   38.5936 H   0  0  0  0  0  0  0  0  0  0  0  0
   36.2203   27.8567   40.6874 H   0  0  0  0  0  0  0  0  0  0  0  0
   36.3349   25.6056   41.7706 H   0  0  0  0  0  0  0  0  0  0  0  0
   38.5494   25.2574   43.3968 H   0  0  0  0  0  0  0  0  0  0  0  0
  1  6  2  0
  2  1  1  0
  2  3  2  0
  3  4  1  0
  4  5  2  0
  5 12  1  0
  6  5  1  0
  7  2  1  0
  7  8  1  0
  8  9  2  0
  9 11  1  0
 10  8  1  0
 12 16  1  0
 13 12  2  0
 13 14  1  0
 14 15  2  0
 16 15  1  0
  1 17  1  0
  3 18  1  0
  7 19  1  0
 10 20  1  0
 10 21  1  0
 13 22  1  0
 14 23  1  0
 15 24  1  0
M  ISO  5  17  14  18  14  22  14  23  14  24  14
M  END
>  <minimizedAffinity>  (1) 
-4.73711157

>  <minimizedRMSD>  (1) 
3.87930918

$$$$
