
     RDKit          3D

 47 51  0  0  1  0  0  0  0  0999 V2000
   37.5240   29.5830   37.6070 C   0  0  0  0  0  0  0  0  0  0  0  0
   36.7000   30.0960   36.7990 O   0  0  0  0  0  0  0  0  0  0  0  0
   38.5940   28.7430   37.1980 N   0  0  0  0  0  0  0  0  0  0  0  0
   38.5590   27.6490   36.2430 C   0  0  0  0  0  0  0  0  0  0  0  0
   39.2060   26.4720   36.9960 C   0  0  0  0  0  0  0  0  0  0  0  0
   40.6150   26.7450   37.1030 N   0  0  0  0  0  0  0  0  0  0  0  0
   40.9650   28.0640   37.4980 C   0  0  0  0  0  0  0  0  0  0  0  0
   39.8720   28.9990   37.8020 C   0  0  1  0  0  0  0  0  0  0  0  0
   40.2800   30.3800   37.6190 N   0  0  0  0  0  0  0  0  0  0  0  0
   39.5150   31.5120   37.5900 C   0  0  0  0  0  0  0  0  0  0  0  0
   40.2880   32.5970   37.3960 N   0  0  0  0  0  0  0  0  0  0  0  0
   41.5770   32.1830   37.2950 C   0  0  0  0  0  0  0  0  0  0  0  0
   42.7290   32.9150   37.0950 C   0  0  0  0  0  0  0  0  0  0  0  0
   43.9030   32.2300   37.0340 N   0  0  0  0  0  0  0  0  0  0  0  0
   43.9110   30.8790   37.1680 C   0  0  0  0  0  0  0  0  0  0  0  0
   42.7760   30.1760   37.3630 N   0  0  0  0  0  0  0  0  0  0  0  0
   41.5650   30.7980   37.4340 C   0  0  0  0  0  0  0  0  0  0  0  0
   42.6290   34.3310   36.9650 N   0  0  0  0  0  0  0  0  0  0  0  0
   37.9900   28.8270   41.1430 C   0  0  0  0  0  0  0  0  0  0  0  0
   37.5090   29.9370   41.7940 C   0  0  0  0  0  0  0  0  0  0  0  0
   37.0140   30.9660   41.0200 C   0  0  0  0  0  0  0  0  0  0  0  0
   36.9900   30.9170   39.6760 N   0  0  0  0  0  0  0  0  0  0  0  0
   37.4790   29.7930   39.0660 C   0  0  0  0  0  0  0  0  0  0  0  0
   37.9660   28.7790   39.8010 N   0  0  0  0  0  0  0  0  0  0  0  0
   39.6380   26.8880   43.7910 C   0  0  0  0  0  0  0  0  0  0  0  0
   39.5400   25.5670   43.2940 C   0  0  0  0  0  0  0  0  0  0  0  0
   38.9230   25.3780   42.0860 C   0  0  0  0  0  0  0  0  0  0  0  0
   38.4240   26.4520   41.3980 N   0  0  0  0  0  0  0  0  0  0  0  0
   38.5260   27.7070   41.8870 C   0  0  0  0  0  0  0  0  0  0  0  0
   39.1280   27.9010   43.0690 N   0  0  0  0  0  0  0  0  0  0  0  0
   39.1361   27.8998   35.3407 H   0  0  0  0  0  0  0  0  0  0  0  0
   37.5392   27.4209   35.8996 H   0  0  0  0  0  0  0  0  0  0  0  0
   38.7645   26.3806   37.9994 H   0  0  0  0  0  0  0  0  0  0  0  0
   39.0354   25.5284   36.4571 H   0  0  0  0  0  0  0  0  0  0  0  0
   41.0107   26.0931   37.7954 H   0  0  0  0  0  0  0  0  0  0  0  0
   41.5880   27.9822   38.4009 H   0  0  0  0  0  0  0  0  0  0  0  0
   41.4628   28.4952   36.6169 H   0  0  0  0  0  0  0  0  0  0  0  0
   39.6811   28.8049   38.8678 H   0  0  0  0  0  0  0  0  0  0  0  0
   38.4216   31.5336   37.7085 H   0  0  0  0  0  0  0  0  0  0  0  0
   44.8698   30.3424   37.1161 H   0  0  0  0  0  0  0  0  0  0  0  0
   43.4773   34.8956   36.8152 H   0  0  0  0  0  0  0  0  0  0  0  0
   41.7084   34.7896   37.0209 H   0  0  0  0  0  0  0  0  0  0  0  0
   37.5182   30.0028   42.8920 H   0  0  0  0  0  0  0  0  0  0  0  0
   36.6230   31.8631   41.5223 H   0  0  0  0  0  0  0  0  0  0  0  0
   40.1259   27.0840   44.7572 H   0  0  0  0  0  0  0  0  0  0  0  0
   39.9473   24.7169   43.8610 H   0  0  0  0  0  0  0  0  0  0  0  0
   38.8283   24.3646   41.6687 H   0  0  0  0  0  0  0  0  0  0  0  0
  1 23  1  0
  2  1  2  0
  3  1  1  0
  3  8  1  0
  4  5  1  0
  4  3  1  0
  5  6  1  0
  6  7  1  0
  7  8  1  0
  9  8  1  0
 10  9  1  0
 11 10  2  0
 12 11  1  0
 12 17  2  0
 13 12  1  0
 14 13  2  0
 14 15  1  0
 15 16  2  0
 16 17  1  0
 17  9  1  0
 18 13  1  0
 19 20  2  0
 19 29  1  0
 21 20  1  0
 22 21  2  0
 23 22  1  0
 23 24  2  0
 24 19  1  0
 26 25  2  0
 27 26  1  0
 28 29  1  0
 28 27  2  0
 29 30  2  0
 30 25  1  0
  4 31  1  0
  4 32  1  0
  5 33  1  0
  5 34  1  0
  6 35  1  0
  7 36  1  0
  7 37  1  0
  8 38  1  1
 10 39  1  0
 15 40  1  0
 18 41  1  0
 18 42  1  0
 20 43  1  0
 21 44  1  0
 25 45  1  0
 26 46  1  0
 27 47  1  0
M  ISO  8  31  13  32  13  33  13  34  13  35   5  36  13  37  13  38  13
M  ISO  7  39  14  40  14  43  14  44  14  45  14  46  14  47  14
M  END
>  <minimizedAffinity>  (1) 
-6.24542427

>  <minimizedRMSD>  (1) 
1.70858943

$$$$
