
     RDKit          3D

 44 47  0  0  1  0  0  0  0  0999 V2000
   37.2800   30.9860   40.1160 C   0  0  0  0  0  0  0  0  0  0  0  0
   37.1220   32.1330   40.6120 O   0  0  0  0  0  0  0  0  0  0  0  0
   38.5410   30.3060   40.0820 N   0  0  0  0  0  0  0  0  0  0  0  0
   39.8200   30.8820   39.7140 C   0  0  0  0  0  0  0  0  0  0  0  0
   40.3760   29.9090   38.6730 C   0  0  0  0  0  0  0  0  0  0  0  0
   40.7450   28.6910   39.3390 N   0  0  0  0  0  0  0  0  0  0  0  0
   39.8150   28.1980   40.2760 C   0  0  0  0  0  0  0  0  0  0  0  0
   38.5320   28.9320   40.4470 C   0  0  1  0  0  0  0  0  0  0  0  0
   37.9790   28.7030   41.7710 N   0  0  0  0  0  0  0  0  0  0  0  0
   37.0690   27.7050   41.8820 C   0  0  0  0  0  0  0  0  0  0  0  0
   36.5490   27.4930   43.1420 C   0  0  0  0  0  0  0  0  0  0  0  0
   36.9070   28.2360   44.2670 C   0  0  0  0  0  0  0  0  0  0  0  0
   36.4110   28.0140   45.4020 O   0  0  0  0  0  0  0  0  0  0  0  0
   37.8170   29.1980   44.0390 N   0  0  0  0  0  0  0  0  0  0  0  0
   38.3540   29.4480   42.8390 C   0  0  0  0  0  0  0  0  0  0  0  0
   39.2130   30.3660   42.6590 O   0  0  0  0  0  0  0  0  0  0  0  0
   35.4300   29.2410   37.5090 C   0  0  0  0  0  0  0  0  0  0  0  0
   34.3130   28.7640   38.1430 C   0  0  0  0  0  0  0  0  0  0  0  0
   34.1790   29.0360   39.4820 C   0  0  0  0  0  0  0  0  0  0  0  0
   35.1000   29.7450   40.1720 N   0  0  0  0  0  0  0  0  0  0  0  0
   36.1890   30.1990   39.5090 C   0  0  0  0  0  0  0  0  0  0  0  0
   36.3410   29.9440   38.1920 N   0  0  0  0  0  0  0  0  0  0  0  0
   35.3540   27.6080   34.2140 C   0  0  0  0  0  0  0  0  0  0  0  0
   36.0370   28.5540   33.3970 C   0  0  0  0  0  0  0  0  0  0  0  0
   36.4940   29.7030   33.9860 C   0  0  0  0  0  0  0  0  0  0  0  0
   36.2770   29.8920   35.3340 N   0  0  0  0  0  0  0  0  0  0  0  0
   35.6310   28.9850   36.0850 C   0  0  0  0  0  0  0  0  0  0  0  0
   35.1780   27.8590   35.5200 N   0  0  0  0  0  0  0  0  0  0  0  0
   39.6877   31.8846   39.2812 H   0  0  0  0  0  0  0  0  0  0  0  0
   40.4912   31.0101   40.5760 H   0  0  0  0  0  0  0  0  0  0  0  0
   41.2598   30.3493   38.1883 H   0  0  0  0  0  0  0  0  0  0  0  0
   39.6156   29.7033   37.9052 H   0  0  0  0  0  0  0  0  0  0  0  0
   40.8829   27.9668   38.6197 H   0  0  0  0  0  0  0  0  0  0  0  0
   39.5648   27.1694   39.9769 H   0  0  0  0  0  0  0  0  0  0  0  0
   40.3222   28.3065   41.2460 H   0  0  0  0  0  0  0  0  0  0  0  0
   37.8551   28.4943   39.6986 H   0  0  0  0  0  0  0  0  0  0  0  0
   36.7625   27.0987   41.0169 H   0  0  0  0  0  0  0  0  0  0  0  0
   35.8077   26.6900   43.2671 H   0  0  0  0  0  0  0  0  0  0  0  0
   38.1192   29.7774   44.8351 H   0  0  0  0  0  0  0  0  0  0  0  0
   33.5520   28.1848   37.5995 H   0  0  0  0  0  0  0  0  0  0  0  0
   33.2902   28.6636   40.0124 H   0  0  0  0  0  0  0  0  0  0  0  0
   34.9720   26.6744   33.7753 H   0  0  0  0  0  0  0  0  0  0  0  0
   36.1929   28.3672   32.3242 H   0  0  0  0  0  0  0  0  0  0  0  0
   37.0253   30.4622   33.3932 H   0  0  0  0  0  0  0  0  0  0  0  0
  1  2  2  0
  3  1  1  0
  3  8  1  0
  4  3  1  0
  5  6  1  0
  5  4  1  0
  6  7  1  0
  7  8  1  0
  8  9  1  0
  9 10  1  0
  9 15  1  0
 10 11  2  0
 11 12  1  0
 12 13  2  0
 14 12  1  0
 15 14  1  0
 16 15  2  0
 17 18  2  0
 17 22  1  0
 18 19  1  0
 19 20  2  0
 21  1  1  0
 21 20  1  0
 22 21  2  0
 23 28  2  0
 24 25  2  0
 24 23  1  0
 25 26  1  0
 26 27  2  0
 27 17  1  0
 28 27  1  0
  4 29  1  0
  4 30  1  0
  5 31  1  0
  5 32  1  0
  6 33  1  0
  7 34  1  0
  7 35  1  0
  8 36  1  6
 10 37  1  0
 11 38  1  0
 14 39  1  0
 18 40  1  0
 19 41  1  0
 23 42  1  0
 24 43  1  0
 25 44  1  0
M  ISO  8  29  13  30  13  31  13  32  13  33   5  34  13  35  13  36  13
M  ISO  8  37  14  38  14  39   9  40  14  41  14  42  14  43  14  44  14
M  END
>  <minimizedAffinity>  (1) 
-6.10997725

>  <minimizedRMSD>  (1) 
6.78264141

$$$$
