
     RDKit          3D

 41 43  0  0  1  0  0  0  0  0999 V2000
   37.4540   30.6190   39.8060 C   0  0  0  0  0  0  0  0  0  0  0  0
   36.5650   31.5230   39.8770 O   0  0  0  0  0  0  0  0  0  0  0  0
   38.1320   30.2750   38.6040 N   0  0  0  0  0  0  0  0  0  0  0  0
   37.5470   30.0760   37.2890 C   0  0  0  0  0  0  0  0  0  0  0  0
   38.0800   28.7130   36.8350 C   0  0  0  0  0  0  0  0  0  0  0  0
   39.4820   28.8600   36.5420 N   0  0  0  0  0  0  0  0  0  0  0  0
   40.2320   29.5900   37.4790 C   0  0  0  0  0  0  0  0  0  0  0  0
   39.5400   30.1060   38.6870 C   0  0  1  0  0  0  0  0  0  0  0  0
   38.1170   27.6330   41.7920 C   0  0  0  0  0  0  0  0  0  0  0  0
   38.6310   28.1040   42.9620 C   0  0  0  0  0  0  0  0  0  0  0  0
   38.7600   29.4700   43.0900 C   0  0  0  0  0  0  0  0  0  0  0  0
   38.4030   30.3310   42.1180 N   0  0  0  0  0  0  0  0  0  0  0  0
   37.8920   29.8160   40.9620 C   0  0  0  0  0  0  0  0  0  0  0  0
   37.7580   28.4890   40.8170 N   0  0  0  0  0  0  0  0  0  0  0  0
   38.6940   24.0110   41.9580 C   0  0  0  0  0  0  0  0  0  0  0  0
   37.6140   23.5060   41.1690 C   0  0  0  0  0  0  0  0  0  0  0  0
   36.7400   24.4080   40.6180 C   0  0  0  0  0  0  0  0  0  0  0  0
   36.9170   25.7450   40.8290 N   0  0  0  0  0  0  0  0  0  0  0  0
   37.9490   26.2030   41.5810 C   0  0  0  0  0  0  0  0  0  0  0  0
   38.8090   25.3370   42.1250 N   0  0  0  0  0  0  0  0  0  0  0  0
   40.1850   31.3620   39.1000 N   0  0  0  0  0  0  0  0  0  0  0  0
   40.1850   32.5010   38.2440 C   0  0  0  0  0  0  0  0  0  0  0  0
   40.1720   32.2670   36.9760 N   0  0  0  0  0  0  0  0  0  0  0  0
   40.1990   33.7680   38.9350 N   0  0  0  0  0  0  0  0  0  0  0  0
   40.1700   32.9520   36.2180 H   0  0  0  0  0  0  0  0  0  0  0  0
   36.4487   30.0635   37.3497 H   0  0  0  0  0  0  0  0  0  0  0  0
   37.8087   30.8824   36.5881 H   0  0  0  0  0  0  0  0  0  0  0  0
   37.9415   27.9721   37.6362 H   0  0  0  0  0  0  0  0  0  0  0  0
   37.5368   28.3675   35.9430 H   0  0  0  0  0  0  0  0  0  0  0  0
   39.8911   27.9170   36.4763 H   0  0  0  0  0  0  0  0  0  0  0  0
   41.0463   28.9362   37.8246 H   0  0  0  0  0  0  0  0  0  0  0  0
   40.5387   30.4953   36.9347 H   0  0  0  0  0  0  0  0  0  0  0  0
   39.6502   29.3108   39.4390 H   0  0  0  0  0  0  0  0  0  0  0  0
   38.9308   27.4221   43.7714 H   0  0  0  0  0  0  0  0  0  0  0  0
   39.1722   29.8744   44.0262 H   0  0  0  0  0  0  0  0  0  0  0  0
   39.4182   23.3240   42.4202 H   0  0  0  0  0  0  0  0  0  0  0  0
   37.4876   22.4251   41.0085 H   0  0  0  0  0  0  0  0  0  0  0  0
   35.8969   24.0543   40.0064 H   0  0  0  0  0  0  0  0  0  0  0  0
   40.6430   31.4188   40.0208 H   0  0  0  0  0  0  0  0  0  0  0  0
   40.2001   34.6472   38.3985 H   0  0  0  0  0  0  0  0  0  0  0  0
   40.2079   33.7930   39.9647 H   0  0  0  0  0  0  0  0  0  0  0  0
  1  2  2  0
  1 13  1  0
  3  8  1  0
  3  1  1  0
  4  3  1  0
  5  4  1  0
  6  5  1  0
  6  7  1  0
  7  8  1  0
  8 21  1  0
  9 10  2  0
 10 11  1  0
 12 11  2  0
 13 12  1  0
 14 13  2  0
 14  9  1  0
 15 20  2  0
 16 15  1  0
 17 18  1  0
 17 16  2  0
 18 19  2  0
 19  9  1  0
 19 20  1  0
 22 24  1  0
 22 21  1  0
 23 22  2  0
 25 23  1  0
  4 26  1  0
  4 27  1  0
  5 28  1  0
  5 29  1  0
  6 30  1  0
  7 31  1  0
  7 32  1  0
  8 33  1  1
 10 34  1  0
 11 35  1  0
 15 36  1  0
 16 37  1  0
 17 38  1  0
 21 39  1  0
 24 40  1  0
 24 41  1  0
M  ISO  8  26  13  27  13  28  13  29  13  30   5  31  13  32  13  33  13
M  ISO  5  34  14  35  14  36  14  37  14  38  14
M  END
>  <minimizedAffinity>  (1) 
-5.88326502

>  <minimizedRMSD>  (1) 
3.44939899

$$$$
