
     RDKit          3D

 45 48  0  0  1  0  0  0  0  0999 V2000
   38.7290   29.5120   37.4270 C   0  0  0  0  0  0  0  0  0  0  0  0
   38.3250   29.5290   36.2320 O   0  0  0  0  0  0  0  0  0  0  0  0
   39.8980   28.8190   37.8550 N   0  0  0  0  0  0  0  0  0  0  0  0
   40.2950   27.4700   37.4710 C   0  0  0  0  0  0  0  0  0  0  0  0
   40.5760   26.7800   38.8180 C   0  0  0  0  0  0  0  0  0  0  0  0
   41.7900   27.3340   39.3570 N   0  0  0  0  0  0  0  0  0  0  0  0
   41.9060   28.7300   39.3070 C   0  0  0  0  0  0  0  0  0  0  0  0
   40.7680   29.5070   38.7410 C   0  0  1  0  0  0  0  0  0  0  0  0
   41.2460   30.7750   38.2210 N   0  0  0  0  0  0  0  0  0  0  0  0
   40.9480   31.8400   38.9880 C   0  0  0  0  0  0  0  0  0  0  0  0
   41.4000   33.0750   38.5070 C   0  0  0  0  0  0  0  0  0  0  0  0
   42.0970   33.1390   37.3230 C   0  0  0  0  0  0  0  0  0  0  0  0
   42.5620   34.3780   36.8190 N   0  0  0  0  0  0  0  0  0  0  0  0
   42.3560   32.0190   36.6100 N   0  0  0  0  0  0  0  0  0  0  0  0
   41.9280   30.8320   37.0630 C   0  0  0  0  0  0  0  0  0  0  0  0
   42.1790   29.8030   36.3860 O   0  0  0  0  0  0  0  0  0  0  0  0
   37.2710   29.9770   40.7340 C   0  0  0  0  0  0  0  0  0  0  0  0
   36.8000   31.2620   40.7240 C   0  0  0  0  0  0  0  0  0  0  0  0
   36.9770   31.9920   39.5710 C   0  0  0  0  0  0  0  0  0  0  0  0
   37.5930   31.4820   38.4740 N   0  0  0  0  0  0  0  0  0  0  0  0
   38.0460   30.2010   38.5290 C   0  0  0  0  0  0  0  0  0  0  0  0
   37.8750   29.4810   39.6530 N   0  0  0  0  0  0  0  0  0  0  0  0
   37.6890   28.7060   44.1530 C   0  0  0  0  0  0  0  0  0  0  0  0
   36.8150   27.5720   44.1470 C   0  0  0  0  0  0  0  0  0  0  0  0
   36.1130   27.2740   42.9880 C   0  0  0  0  0  0  0  0  0  0  0  0
   36.2940   28.0850   41.9080 N   0  0  0  0  0  0  0  0  0  0  0  0
   37.1180   29.1510   41.9160 C   0  0  0  0  0  0  0  0  0  0  0  0
   37.7950   29.4380   43.0350 N   0  0  0  0  0  0  0  0  0  0  0  0
   39.4839   26.9606   36.9301 H   0  0  0  0  0  0  0  0  0  0  0  0
   41.1615   27.4553   36.7935 H   0  0  0  0  0  0  0  0  0  0  0  0
   39.7422   26.9624   39.5119 H   0  0  0  0  0  0  0  0  0  0  0  0
   40.6814   25.6943   38.6764 H   0  0  0  0  0  0  0  0  0  0  0  0
   41.8553   27.0479   40.3443 H   0  0  0  0  0  0  0  0  0  0  0  0
   42.0621   29.0823   40.3373 H   0  0  0  0  0  0  0  0  0  0  0  0
   42.7365   28.9116   38.6089 H   0  0  0  0  0  0  0  0  0  0  0  0
   40.0921   29.6936   39.5886 H   0  0  0  0  0  0  0  0  0  0  0  0
   40.3870   31.7466   39.9296 H   0  0  0  0  0  0  0  0  0  0  0  0
   41.1976   33.9942   39.0762 H   0  0  0  0  0  0  0  0  0  0  0  0
   43.0826   34.4099   35.9308 H   0  0  0  0  0  0  0  0  0  0  0  0
   42.3796   35.2472   37.3406 H   0  0  0  0  0  0  0  0  0  0  0  0
   36.2996   31.6943   41.6031 H   0  0  0  0  0  0  0  0  0  0  0  0
   36.6057   33.0269   39.5370 H   0  0  0  0  0  0  0  0  0  0  0  0
   38.2607   28.9706   45.0548 H   0  0  0  0  0  0  0  0  0  0  0  0
   36.7020   26.9478   45.0457 H   0  0  0  0  0  0  0  0  0  0  0  0
   35.4324   26.4111   42.9424 H   0  0  0  0  0  0  0  0  0  0  0  0
  1  3  1  0
  1 21  1  0
  2  1  2  0
  3  8  1  0
  4  3  1  0
  4  5  1  0
  5  6  1  0
  7  6  1  0
  8  7  1  0
  9  8  1  0
  9 10  1  0
 11 10  2  0
 12 11  1  0
 13 12  1  0
 14 15  1  0
 14 12  2  0
 15  9  1  0
 16 15  2  0
 17 27  1  0
 18 17  2  0
 19 18  1  0
 20 21  1  0
 20 19  2  0
 21 22  2  0
 22 17  1  0
 24 23  2  0
 25 24  1  0
 26 27  1  0
 26 25  2  0
 27 28  2  0
 28 23  1  0
  4 29  1  0
  4 30  1  0
  5 31  1  0
  5 32  1  0
  6 33  1  0
  7 34  1  0
  7 35  1  0
  8 36  1  1
 10 37  1  0
 11 38  1  0
 13 39  1  0
 13 40  1  0
 18 41  1  0
 19 42  1  0
 23 43  1  0
 24 44  1  0
 25 45  1  0
M  ISO  8  29  13  30  13  31  13  32  13  33   5  34  13  35  13  36  13
M  ISO  7  37  14  38  14  41  14  42  14  43  14  44  14  45  14
M  END
>  <minimizedAffinity>  (1) 
-5.55182362

>  <minimizedRMSD>  (1) 
1.58039939

$$$$
