
     RDKit          3D

 49 52  0  0  1  0  0  0  0  0999 V2000
   37.2510   30.4940   39.8580 C   0  0  0  0  0  0  0  0  0  0  0  0
   36.4270   31.4510   39.9440 O   0  0  0  0  0  0  0  0  0  0  0  0
   37.8760   30.1050   38.6420 N   0  0  0  0  0  0  0  0  0  0  0  0
   37.2320   29.9540   37.3460 C   0  0  0  0  0  0  0  0  0  0  0  0
   37.6550   28.5590   36.8780 C   0  0  0  0  0  0  0  0  0  0  0  0
   39.0580   28.6060   36.5480 N   0  0  0  0  0  0  0  0  0  0  0  0
   39.8930   29.2740   37.4550 C   0  0  0  0  0  0  0  0  0  0  0  0
   39.2690   29.8330   38.6850 C   0  0  1  0  0  0  0  0  0  0  0  0
   37.9700   27.4670   41.7450 C   0  0  0  0  0  0  0  0  0  0  0  0
   38.3690   27.9150   42.9690 C   0  0  0  0  0  0  0  0  0  0  0  0
   38.3980   29.2770   43.1690 C   0  0  0  0  0  0  0  0  0  0  0  0
   38.0500   30.1550   42.2070 N   0  0  0  0  0  0  0  0  0  0  0  0
   37.6590   29.6730   41.0050 C   0  0  0  0  0  0  0  0  0  0  0  0
   37.6280   28.3360   40.8000 N   0  0  0  0  0  0  0  0  0  0  0  0
   38.9120   23.9170   41.5950 C   0  0  0  0  0  0  0  0  0  0  0  0
   37.7970   23.3430   40.9250 C   0  0  0  0  0  0  0  0  0  0  0  0
   36.7760   24.1770   40.5530 C   0  0  0  0  0  0  0  0  0  0  0  0
   36.8590   25.5110   40.8310 N   0  0  0  0  0  0  0  0  0  0  0  0
   37.9170   26.0460   41.4660 C   0  0  0  0  0  0  0  0  0  0  0  0
   38.9410   25.2460   41.8460 N   0  0  0  0  0  0  0  0  0  0  0  0
   39.9790   30.9060   39.2860 N   0  0  0  0  0  0  0  0  0  0  0  0
   40.4940   30.7300   40.5830 C   0  0  0  0  0  0  0  0  0  0  0  0
   41.3820   31.9120   40.9170 C   0  0  0  0  0  0  0  0  0  0  0  0
   40.7280   33.2380   40.7000 C   0  0  0  0  0  0  0  0  0  0  0  0
   39.3060   33.0240   40.1920 C   0  0  0  0  0  0  0  0  0  0  0  0
   39.4480   32.1800   38.9490 C   0  0  0  0  0  0  0  0  0  0  0  0
   36.1382   30.0179   37.4438 H   0  0  0  0  0  0  0  0  0  0  0  0
   37.5220   30.7429   36.6364 H   0  0  0  0  0  0  0  0  0  0  0  0
   37.4850   27.8280   37.6822 H   0  0  0  0  0  0  0  0  0  0  0  0
   37.0659   28.2556   36.0000 H   0  0  0  0  0  0  0  0  0  0  0  0
   39.3937   27.6353   36.4704 H   0  0  0  0  0  0  0  0  0  0  0  0
   40.6683   28.5619   37.7741 H   0  0  0  0  0  0  0  0  0  0  0  0
   40.2572   30.1530   36.9031 H   0  0  0  0  0  0  0  0  0  0  0  0
   39.3633   28.9599   39.3474 H   0  0  0  0  0  0  0  0  0  0  0  0
   38.6570   27.2148   43.7670 H   0  0  0  0  0  0  0  0  0  0  0  0
   38.7165   29.6625   44.1488 H   0  0  0  0  0  0  0  0  0  0  0  0
   39.7517   23.2799   41.9095 H   0  0  0  0  0  0  0  0  0  0  0  0
   37.7556   22.2645   40.7124 H   0  0  0  0  0  0  0  0  0  0  0  0
   35.8942   23.7741   40.0332 H   0  0  0  0  0  0  0  0  0  0  0  0
   39.6664   30.6728   41.3054 H   0  0  0  0  0  0  0  0  0  0  0  0
   41.0760   29.7979   40.6322 H   0  0  0  0  0  0  0  0  0  0  0  0
   41.6741   31.8383   41.9750 H   0  0  0  0  0  0  0  0  0  0  0  0
   42.2458   31.8658   40.2376 H   0  0  0  0  0  0  0  0  0  0  0  0
   40.6990   33.7927   41.6494 H   0  0  0  0  0  0  0  0  0  0  0  0
   41.3008   33.8133   39.9578 H   0  0  0  0  0  0  0  0  0  0  0  0
   38.7024   32.4989   40.9470 H   0  0  0  0  0  0  0  0  0  0  0  0
   38.7979   33.9771   39.9838 H   0  0  0  0  0  0  0  0  0  0  0  0
   40.1257   32.6822   38.2429 H   0  0  0  0  0  0  0  0  0  0  0  0
   38.4587   32.0485   38.4863 H   0  0  0  0  0  0  0  0  0  0  0  0
  1  2  2  0
  1 13  1  0
  3  8  1  0
  3  1  1  0
  4  3  1  0
  5  4  1  0
  6  5  1  0
  6  7  1  0
  7  8  1  0
  8 21  1  0
  9 10  2  0
 10 11  1  0
 12 11  2  0
 13 12  1  0
 14 13  2  0
 14  9  1  0
 15 20  2  0
 16 15  1  0
 17 18  1  0
 17 16  2  0
 18 19  2  0
 19  9  1  0
 19 20  1  0
 21 22  1  0
 22 23  1  0
 24 23  1  0
 25 24  1  0
 26 21  1  0
 26 25  1  0
  4 27  1  0
  4 28  1  0
  5 29  1  0
  5 30  1  0
  6 31  1  0
  7 32  1  0
  7 33  1  0
  8 34  1  1
 10 35  1  0
 11 36  1  0
 15 37  1  0
 16 38  1  0
 17 39  1  0
 22 40  1  0
 22 41  1  0
 23 42  1  0
 23 43  1  0
 24 44  1  0
 24 45  1  0
 25 46  1  0
 25 47  1  0
 26 48  1  0
 26 49  1  0
M  ISO  8  27  13  28  13  29  13  30  13  31   5  32  13  33  13  34  13
M  ISO  8  35  14  36  14  37  14  38  14  39  14  40  13  41  13  42  13
M  ISO  7  43  13  44  13  45  13  46  13  47  13  48  13  49  13
M  END
>  <minimizedAffinity>  (1) 
-5.44183016

>  <minimizedRMSD>  (1) 
3.64291263

$$$$
