
     RDKit          3D

 41 44  0  0  1  0  0  0  0  0999 V2000
   37.4280   30.6840   40.3670 C   0  0  0  0  0  0  0  0  0  0  0  0
   37.3500   31.8080   40.9420 O   0  0  0  0  0  0  0  0  0  0  0  0
   38.6290   29.9230   40.3120 N   0  0  0  0  0  0  0  0  0  0  0  0
   39.9630   30.4050   40.0040 C   0  0  0  0  0  0  0  0  0  0  0  0
   40.4520   29.4370   38.9120 C   0  0  0  0  0  0  0  0  0  0  0  0
   40.6980   28.1580   39.5180 N   0  0  0  0  0  0  0  0  0  0  0  0
   39.7050   27.6930   40.3960 C   0  0  0  0  0  0  0  0  0  0  0  0
   38.4990   28.5190   40.5940 C   0  0  1  0  0  0  0  0  0  0  0  0
   35.4990   29.2810   37.6110 C   0  0  0  0  0  0  0  0  0  0  0  0
   34.3320   28.8640   38.1980 C   0  0  0  0  0  0  0  0  0  0  0  0
   34.1900   29.0580   39.5500 C   0  0  0  0  0  0  0  0  0  0  0  0
   35.1500   29.6370   40.3020 N   0  0  0  0  0  0  0  0  0  0  0  0
   36.2930   30.0400   39.6960 C   0  0  0  0  0  0  0  0  0  0  0  0
   36.4450   29.8530   38.3580 N   0  0  0  0  0  0  0  0  0  0  0  0
   35.4750   27.7850   34.2640 C   0  0  0  0  0  0  0  0  0  0  0  0
   36.1350   28.7930   33.4930 C   0  0  0  0  0  0  0  0  0  0  0  0
   36.5620   29.9390   34.1300 C   0  0  0  0  0  0  0  0  0  0  0  0
   36.3430   30.0720   35.4710 N   0  0  0  0  0  0  0  0  0  0  0  0
   35.7170   29.1070   36.1870 C   0  0  0  0  0  0  0  0  0  0  0  0
   35.2930   27.9800   35.5730 N   0  0  0  0  0  0  0  0  0  0  0  0
   37.8720   28.2890   41.8910 N   0  0  0  0  0  0  0  0  0  0  0  0
   36.9230   27.3940   42.2190 C   0  0  0  0  0  0  0  0  0  0  0  0
   36.6010   27.5030   43.5570 C   0  0  0  0  0  0  0  0  0  0  0  0
   37.3830   28.4940   44.0440 N   0  0  0  0  0  0  0  0  0  0  0  0
   38.1390   28.9540   43.0300 C   0  0  0  0  0  0  0  0  0  0  0  0
   39.9306   31.4381   39.6277 H   0  0  0  0  0  0  0  0  0  0  0  0
   40.6237   30.4279   40.8832 H   0  0  0  0  0  0  0  0  0  0  0  0
   41.3804   29.8207   38.4639 H   0  0  0  0  0  0  0  0  0  0  0  0
   39.6917   29.3417   38.1228 H   0  0  0  0  0  0  0  0  0  0  0  0
   40.8005   27.4655   38.7625 H   0  0  0  0  0  0  0  0  0  0  0  0
   39.3707   26.7149   40.0198 H   0  0  0  0  0  0  0  0  0  0  0  0
   40.1951   27.6909   41.3808 H   0  0  0  0  0  0  0  0  0  0  0  0
   37.8243   28.1539   39.8057 H   0  0  0  0  0  0  0  0  0  0  0  0
   33.5358   28.3897   37.6054 H   0  0  0  0  0  0  0  0  0  0  0  0
   33.2604   28.7297   40.0379 H   0  0  0  0  0  0  0  0  0  0  0  0
   35.1215   26.8602   33.7847 H   0  0  0  0  0  0  0  0  0  0  0  0
   36.2986   28.6567   32.4138 H   0  0  0  0  0  0  0  0  0  0  0  0
   37.0715   30.7342   33.5661 H   0  0  0  0  0  0  0  0  0  0  0  0
   36.4679   26.6768   41.5201 H   0  0  0  0  0  0  0  0  0  0  0  0
   35.8616   26.9074   44.1124 H   0  0  0  0  0  0  0  0  0  0  0  0
   38.8765   29.7651   43.1202 H   0  0  0  0  0  0  0  0  0  0  0  0
  1  2  2  0
  3  1  1  0
  3  8  1  0
  4  3  1  0
  5  6  1  0
  5  4  1  0
  6  7  1  0
  7  8  1  0
  8 21  1  0
  9 10  2  0
  9 14  1  0
 10 11  1  0
 11 12  2  0
 13 12  1  0
 13  1  1  0
 14 13  2  0
 15 20  2  0
 16 17  2  0
 16 15  1  0
 17 18  1  0
 18 19  2  0
 19  9  1  0
 20 19  1  0
 21 22  1  0
 21 25  1  0
 22 23  2  0
 23 24  1  0
 25 24  2  0
  4 26  1  0
  4 27  1  0
  5 28  1  0
  5 29  1  0
  6 30  1  0
  7 31  1  0
  7 32  1  0
  8 33  1  6
 10 34  1  0
 11 35  1  0
 15 36  1  0
 16 37  1  0
 17 38  1  0
 22 39  1  0
 23 40  1  0
 25 41  1  0
M  ISO  8  26  13  27  13  28  13  29  13  30   5  31  13  32  13  33  13
M  ISO  8  34  14  35  14  36  14  37  14  38  14  39  14  40  14  41  14
M  END
>  <minimizedAffinity>  (1) 
-4.90343904

>  <minimizedRMSD>  (1) 
6.23701477

$$$$
