
     RDKit          3D

 41 44  0  0  1  0  0  0  0  0999 V2000
   37.8660   29.8650   41.5030 C   0  0  0  0  0  0  0  0  0  0  0  0
   37.0710   29.6470   42.4610 O   0  0  0  0  0  0  0  0  0  0  0  0
   38.5890   28.8250   40.8460 N   0  0  0  0  0  0  0  0  0  0  0  0
   39.3070   27.7160   41.4480 C   0  0  0  0  0  0  0  0  0  0  0  0
   40.6900   27.7720   40.7990 C   0  0  0  0  0  0  0  0  0  0  0  0
   40.5600   27.3580   39.4330 N   0  0  0  0  0  0  0  0  0  0  0  0
   39.4590   27.8970   38.7150 C   0  0  0  0  0  0  0  0  0  0  0  0
   38.6130   28.8810   39.4090 C   0  0  1  0  0  0  0  0  0  0  0  0
   39.8410   32.7500   40.4930 C   0  0  0  0  0  0  0  0  0  0  0  0
   38.9230   33.6330   39.9820 C   0  0  0  0  0  0  0  0  0  0  0  0
   37.6040   33.2420   39.9780 C   0  0  0  0  0  0  0  0  0  0  0  0
   37.1990   32.0440   40.4520 N   0  0  0  0  0  0  0  0  0  0  0  0
   38.1440   31.1950   40.9530 C   0  0  0  0  0  0  0  0  0  0  0  0
   39.4460   31.5640   40.9650 N   0  0  0  0  0  0  0  0  0  0  0  0
   43.1100   34.1160   39.5090 C   0  0  0  0  0  0  0  0  0  0  0  0
   43.9270   33.7460   40.6250 C   0  0  0  0  0  0  0  0  0  0  0  0
   43.3400   33.0530   41.6590 C   0  0  0  0  0  0  0  0  0  0  0  0
   42.0060   32.7500   41.5730 N   0  0  0  0  0  0  0  0  0  0  0  0
   41.2420   33.0980   40.5260 C   0  0  0  0  0  0  0  0  0  0  0  0
   41.8010   33.7740   39.5110 N   0  0  0  0  0  0  0  0  0  0  0  0
   37.2630   28.9290   38.8820 N   0  0  0  0  0  0  0  0  0  0  0  0
   36.2940   28.1630   39.3290 N   0  0  0  0  0  0  0  0  0  0  0  0
   35.1400   28.4090   38.6660 C   0  0  0  0  0  0  0  0  0  0  0  0
   35.4180   29.4090   37.7340 C   0  0  0  0  0  0  0  0  0  0  0  0
   36.7510   29.7110   37.8940 C   0  0  0  0  0  0  0  0  0  0  0  0
   39.3815   27.8445   42.5379 H   0  0  0  0  0  0  0  0  0  0  0  0
   38.8042   26.7507   41.2884 H   0  0  0  0  0  0  0  0  0  0  0  0
   41.0800   28.7997   40.8413 H   0  0  0  0  0  0  0  0  0  0  0  0
   41.3875   27.1094   41.3324 H   0  0  0  0  0  0  0  0  0  0  0  0
   41.4213   27.6313   38.9387 H   0  0  0  0  0  0  0  0  0  0  0  0
   38.8135   27.0562   38.4212 H   0  0  0  0  0  0  0  0  0  0  0  0
   39.9126   28.4544   37.8822 H   0  0  0  0  0  0  0  0  0  0  0  0
   39.1335   29.8226   39.1800 H   0  0  0  0  0  0  0  0  0  0  0  0
   39.2297   34.6144   39.5911 H   0  0  0  0  0  0  0  0  0  0  0  0
   36.8495   33.9323   39.5728 H   0  0  0  0  0  0  0  0  0  0  0  0
   43.5404   34.6704   38.6620 H   0  0  0  0  0  0  0  0  0  0  0  0
   44.9948   34.0085   40.6551 H   0  0  0  0  0  0  0  0  0  0  0  0
   43.9293   32.7485   42.5365 H   0  0  0  0  0  0  0  0  0  0  0  0
   34.1706   27.9159   38.8303 H   0  0  0  0  0  0  0  0  0  0  0  0
   34.7163   29.8627   37.0186 H   0  0  0  0  0  0  0  0  0  0  0  0
   37.3108   30.4620   37.3172 H   0  0  0  0  0  0  0  0  0  0  0  0
  1  2  2  0
  3  4  1  0
  3  1  1  0
  5  4  1  0
  6  5  1  0
  7  8  1  0
  7  6  1  0
  8  3  1  0
  9 19  1  0
  9 14  1  0
 10  9  2  0
 11 10  1  0
 11 12  2  0
 12 13  1  0
 13 14  2  0
 13  1  1  0
 15 20  2  0
 15 16  1  0
 16 17  2  0
 18 17  1  0
 19 18  2  0
 20 19  1  0
 21 22  1  0
 21  8  1  0
 23 22  2  0
 24 25  2  0
 24 23  1  0
 25 21  1  0
  4 26  1  0
  4 27  1  0
  5 28  1  0
  5 29  1  0
  6 30  1  0
  7 31  1  0
  7 32  1  0
  8 33  1  1
 10 34  1  0
 11 35  1  0
 15 36  1  0
 16 37  1  0
 17 38  1  0
 23 39  1  0
 24 40  1  0
 25 41  1  0
M  ISO  8  26  13  27  13  28  13  29  13  30   5  31  13  32  13  33  13
M  ISO  8  34  14  35  14  36  14  37  14  38  14  39  14  40  14  41  14
M  END
>  <minimizedAffinity>  (1) 
-4.87635136

>  <minimizedRMSD>  (1) 
5.38941669

$$$$
