
     RDKit          3D

 36 38  0  0  1  0  0  0  0  0999 V2000
   37.3900   31.3600   40.4210 C   0  0  0  0  0  0  0  0  0  0  0  0
   36.3180   31.2430   41.0880 O   0  0  0  0  0  0  0  0  0  0  0  0
   37.9980   30.2910   39.7000 N   0  0  0  0  0  0  0  0  0  0  0  0
   38.1920   28.9320   40.1940 C   0  0  0  0  0  0  0  0  0  0  0  0
   39.6740   28.6590   39.9120 C   0  0  0  0  0  0  0  0  0  0  0  0
   39.8670   28.5400   38.5030 N   0  0  0  0  0  0  0  0  0  0  0  0
   39.2140   29.5100   37.7040 C   0  0  0  0  0  0  0  0  0  0  0  0
   38.4560   30.5920   38.3790 C   0  0  1  0  0  0  0  0  0  0  0  0
   40.2630   33.6080   40.5320 C   0  0  0  0  0  0  0  0  0  0  0  0
   39.7610   34.8260   40.1940 C   0  0  0  0  0  0  0  0  0  0  0  0
   38.4180   34.9030   39.9200 C   0  0  0  0  0  0  0  0  0  0  0  0
   37.5990   33.8200   39.9760 N   0  0  0  0  0  0  0  0  0  0  0  0
   38.1320   32.6200   40.3160 C   0  0  0  0  0  0  0  0  0  0  0  0
   39.4600   32.5390   40.5890 N   0  0  0  0  0  0  0  0  0  0  0  0
   43.8890   34.1950   40.6040 C   0  0  0  0  0  0  0  0  0  0  0  0
   44.3520   33.1240   41.4310 C   0  0  0  0  0  0  0  0  0  0  0  0
   43.4130   32.2430   41.9330 C   0  0  0  0  0  0  0  0  0  0  0  0
   42.0980   32.4310   41.6210 N   0  0  0  0  0  0  0  0  0  0  0  0
   41.6800   33.4490   40.8370 C   0  0  0  0  0  0  0  0  0  0  0  0
   42.5800   34.3150   40.3410 N   0  0  0  0  0  0  0  0  0  0  0  0
   37.3590   31.0560   37.4810 C   0  0  0  0  0  0  0  0  0  0  0  0
   37.2700   30.1060   36.7180 O   0  0  0  0  0  0  0  0  0  0  0  0
   37.9786   28.8707   41.2714 H   0  0  0  0  0  0  0  0  0  0  0  0
   37.5225   28.2018   39.7159 H   0  0  0  0  0  0  0  0  0  0  0  0
   40.2817   29.4906   40.2981 H   0  0  0  0  0  0  0  0  0  0  0  0
   39.9799   27.7261   40.4081 H   0  0  0  0  0  0  0  0  0  0  0  0
   40.8778   28.6063   38.3164 H   0  0  0  0  0  0  0  0  0  0  0  0
   38.5054   28.9730   37.0563 H   0  0  0  0  0  0  0  0  0  0  0  0
   40.0354   30.0352   37.1947 H   0  0  0  0  0  0  0  0  0  0  0  0
   39.1672   31.4129   38.5531 H   0  0  0  0  0  0  0  0  0  0  0  0
   40.4063   35.7153   40.1422 H   0  0  0  0  0  0  0  0  0  0  0  0
   37.9888   35.8777   39.6448 H   0  0  0  0  0  0  0  0  0  0  0  0
   44.6046   34.9178   40.1851 H   0  0  0  0  0  0  0  0  0  0  0  0
   45.4213   33.0053   41.6602 H   0  0  0  0  0  0  0  0  0  0  0  0
   43.7208   31.4036   42.5739 H   0  0  0  0  0  0  0  0  0  0  0  0
   36.7872   31.9955   37.5004 H   0  0  0  0  0  0  0  0  0  0  0  0
  1  2  2  0
  3  4  1  0
  3  1  1  0
  5  4  1  0
  6  5  1  0
  7  8  1  0
  7  6  1  0
  8  3  1  0
  9 14  1  0
  9 19  1  0
 10  9  2  0
 11 12  2  0
 11 10  1  0
 12 13  1  0
 13  1  1  0
 13 14  2  0
 15 16  2  0
 16 17  1  0
 18 17  2  0
 19 18  1  0
 20 15  1  0
 20 19  2  0
 21  8  1  0
 22 21  2  0
  4 23  1  0
  4 24  1  0
  5 25  1  0
  5 26  1  0
  6 27  1  0
  7 28  1  0
  7 29  1  0
  8 30  1  1
 10 31  1  0
 11 32  1  0
 15 33  1  0
 16 34  1  0
 17 35  1  0
 21 36  1  0
M  ISO  8  23  13  24  13  25  13  26  13  27   5  28  13  29  13  30  13
M  ISO  6  31  14  32  14  33  14  34  14  35  14  36   6
M  END
>  <minimizedAffinity>  (1) 
-4.57233095

>  <minimizedRMSD>  (1) 
5.05207109

$$$$
