
     RDKit          3D

 27 29  0  0  0  0  0  0  0  0999 V2000
   38.2390   26.0050   40.9850 O   0  0  0  0  0  0  0  0  0  0  0  0
   37.2780   25.4030   40.1920 C   0  0  0  0  0  0  0  0  0  0  0  0
   37.0910   24.0800   40.5480 C   0  0  0  0  0  0  0  0  0  0  0  0
   36.1720   23.2760   39.8860 C   0  0  0  0  0  0  0  0  0  0  0  0
   35.4230   23.8090   38.8420 C   0  0  0  0  0  0  0  0  0  0  0  0
   35.6120   25.1210   38.4940 C   0  0  0  0  0  0  0  0  0  0  0  0
   34.9280   25.7700   37.4880 C   0  0  0  0  0  0  0  0  0  0  0  0
   35.1460   27.1100   37.1740 C   0  0  0  0  0  0  0  0  0  0  0  0
   36.0680   27.8460   37.8710 C   0  0  0  0  0  0  0  0  0  0  0  0
   36.7800   27.2430   38.8890 C   0  0  0  0  0  0  0  0  0  0  0  0
   36.5250   25.9150   39.1560 C   0  0  0  0  0  0  0  0  0  0  0  0
   38.3940   28.8730   43.1660 C   0  0  0  0  0  0  0  0  0  0  0  0
   38.7000   27.9620   42.1410 C   0  0  0  0  0  0  0  0  0  0  0  0
   37.8810   26.8390   41.9930 C   0  0  0  0  0  0  0  0  0  0  0  0
   36.8170   26.6750   42.8520 N   0  0  0  0  0  0  0  0  0  0  0  0
   36.5610   27.5660   43.8130 C   0  0  0  0  0  0  0  0  0  0  0  0
   37.3410   28.6460   43.9630 N   0  0  0  0  0  0  0  0  0  0  0  0
   37.6824   23.6554   41.3726 H   0  0  0  0  0  0  0  0  0  0  0  0
   36.0375   22.2260   40.1850 H   0  0  0  0  0  0  0  0  0  0  0  0
   34.6913   23.1878   38.3047 H   0  0  0  0  0  0  0  0  0  0  0  0
   34.1801   25.2073   36.9100 H   0  0  0  0  0  0  0  0  0  0  0  0
   34.5738   27.5803   36.3607 H   0  0  0  0  0  0  0  0  0  0  0  0
   36.2388   28.9039   37.6227 H   0  0  0  0  0  0  0  0  0  0  0  0
   37.5272   27.8048   39.4687 H   0  0  0  0  0  0  0  0  0  0  0  0
   39.0159   29.7683   43.3135 H   0  0  0  0  0  0  0  0  0  0  0  0
   39.5591   28.1277   41.4744 H   0  0  0  0  0  0  0  0  0  0  0  0
   35.7045   27.4129   44.4860 H   0  0  0  0  0  0  0  0  0  0  0  0
  1 14  1  0
  2  3  2  0
  2  1  1  0
  4  3  1  0
  5  4  2  0
  6  5  1  0
  6 11  2  0
  7  6  1  0
  8  7  2  0
  8  9  1  0
  9 10  2  0
 10 11  1  0
 11  2  1  0
 12 17  2  0
 13 12  1  0
 14 13  2  0
 14 15  1  0
 15 16  2  0
 16 17  1  0
  3 18  1  0
  4 19  1  0
  5 20  1  0
  7 21  1  0
  8 22  1  0
  9 23  1  0
 10 24  1  0
 12 25  1  0
 13 26  1  0
 16 27  1  0
M  ISO  8  18  14  19  14  20  14  21  14  22  14  23  14  24  14  25  14
M  ISO  2  26  14  27  14
M  END
>  <minimizedAffinity>  (1) 
-4.12890148

>  <minimizedRMSD>  (1) 
1.9798584

$$$$
