
     RDKit          3D

 21 22  0  0  0  0  0  0  0  0999 V2000
   38.3660   31.3160   38.0130 C   0  0  0  0  0  0  0  0  0  0  0  0
   38.8380   30.5230   39.0680 C   0  0  0  0  0  0  0  0  0  0  0  0
   38.4010   30.7950   40.3530 C   0  0  0  0  0  0  0  0  0  0  0  0
   37.5230   31.8290   40.5330 N   0  0  0  0  0  0  0  0  0  0  0  0
   37.0820   32.5800   39.4940 C   0  0  0  0  0  0  0  0  0  0  0  0
   37.4990   32.3250   38.2540 N   0  0  0  0  0  0  0  0  0  0  0  0
   38.8870   29.9940   41.3630 O   0  0  0  0  0  0  0  0  0  0  0  0
   38.1180   29.0290   42.0090 C   0  0  0  0  0  0  0  0  0  0  0  0
   37.9690   29.0970   43.3980 C   0  0  0  0  0  0  0  0  0  0  0  0
   37.2290   28.1900   44.1240 C   0  0  0  0  0  0  0  0  0  0  0  0
   36.5990   27.1520   43.4510 C   0  0  0  0  0  0  0  0  0  0  0  0
   36.7320   27.0630   42.0850 C   0  0  0  0  0  0  0  0  0  0  0  0
   37.4700   27.9710   41.3650 C   0  0  0  0  0  0  0  0  0  0  0  0
   38.7023   31.1166   36.9848 H   0  0  0  0  0  0  0  0  0  0  0  0
   39.5426   29.6998   38.8783 H   0  0  0  0  0  0  0  0  0  0  0  0
   36.3763   33.4041   39.6753 H   0  0  0  0  0  0  0  0  0  0  0  0
   38.4677   29.9157   43.9376 H   0  0  0  0  0  0  0  0  0  0  0  0
   37.1390   28.2863   45.2161 H   0  0  0  0  0  0  0  0  0  0  0  0
   36.0018   26.4110   44.0026 H   0  0  0  0  0  0  0  0  0  0  0  0
   36.2324   26.2400   41.5529 H   0  0  0  0  0  0  0  0  0  0  0  0
   37.5516   27.8646   40.2732 H   0  0  0  0  0  0  0  0  0  0  0  0
  1  6  2  0
  1  2  1  0
  2  3  2  0
  3  4  1  0
  3  7  1  0
  5  4  2  0
  6  5  1  0
  7  8  1  0
  8  9  2  0
  9 10  1  0
 11 10  2  0
 12 11  1  0
 13  8  1  0
 13 12  2  0
  1 14  1  0
  2 15  1  0
  5 16  1  0
  9 17  1  0
 10 18  1  0
 11 19  1  0
 12 20  1  0
 13 21  1  0
M  ISO  8  14  14  15  14  16  14  17  14  18  14  19  14  20  14  21  14
M  END
>  <minimizedAffinity>  (1) 
-3.98882031

>  <minimizedRMSD>  (1) 
4.79880285

$$$$
