
     RDKit          3D

 23 23  0  0  0  0  0  0  0  0999 V2000
   38.9980   29.7300   42.2990 C   0  0  0  0  0  0  0  0  0  0  0  0
   38.1240   29.4330   41.2030 C   0  0  0  0  0  0  0  0  0  0  0  0
   37.7650   28.0950   41.0880 C   0  0  0  0  0  0  0  0  0  0  0  0
   38.2390   27.1720   41.9790 N   0  0  0  0  0  0  0  0  0  0  0  0
   39.0530   27.5170   42.9800 C   0  0  0  0  0  0  0  0  0  0  0  0
   39.4370   28.7870   43.1470 N   0  0  0  0  0  0  0  0  0  0  0  0
   37.7030   30.4810   40.3520 N   0  0  0  0  0  0  0  0  0  0  0  0
   36.6950   31.4280   40.6870 C   0  0  0  0  0  0  0  0  0  0  0  0
   35.6560   30.9430   41.3320 N   0  0  0  0  0  0  0  0  0  0  0  0
   36.9420   32.7810   40.2790 N   0  0  0  0  0  0  0  0  0  0  0  0
   34.8950   31.5650   41.6520 H   0  0  0  0  0  0  0  0  0  0  0  0
   39.5370   26.4670   43.9170 C   0  0  0  0  0  0  0  0  0  0  0  0
   41.0530   26.5890   44.1150 C   0  0  0  0  0  0  0  0  0  0  0  0
   39.3214   30.7703   42.4511 H   0  0  0  0  0  0  0  0  0  0  0  0
   37.0955   27.7766   40.2753 H   0  0  0  0  0  0  0  0  0  0  0  0
   38.1551   30.5643   39.4303 H   0  0  0  0  0  0  0  0  0  0  0  0
   36.2526   33.5166   40.4901 H   0  0  0  0  0  0  0  0  0  0  0  0
   37.8088   33.0168   39.7750 H   0  0  0  0  0  0  0  0  0  0  0  0
   39.0334   26.5865   44.8876 H   0  0  0  0  0  0  0  0  0  0  0  0
   39.3096   25.4773   43.4942 H   0  0  0  0  0  0  0  0  0  0  0  0
   41.2820   26.6074   45.1907 H   0  0  0  0  0  0  0  0  0  0  0  0
   41.5542   25.7283   43.6481 H   0  0  0  0  0  0  0  0  0  0  0  0
   41.4101   27.5188   43.6481 H   0  0  0  0  0  0  0  0  0  0  0  0
  1  6  2  0
  2  1  1  0
  3  2  2  0
  3  4  1  0
  4  5  2  0
  5  6  1  0
  5 12  1  0
  7  8  1  0
  7  2  1  0
  8  9  2  0
  9 11  1  0
 10  8  1  0
 12 13  1  0
  1 14  1  0
  3 15  1  0
  7 16  1  0
 10 17  1  0
 10 18  1  0
 12 19  1  0
 12 20  1  0
 13 21  1  0
 13 22  1  0
 13 23  1  0
M  ISO  7  14  14  15  14  19   8  20   8  21   8  22   8  23   8
M  END
>  <minimizedAffinity>  (1) 
-4.50954723

>  <minimizedRMSD>  (1) 
0.64216572

$$$$
