
     RDKit          3D

 21 22  0  0  0  0  0  0  0  0999 V2000
   37.1770   28.9290   40.1780 O   0  0  0  0  0  0  0  0  0  0  0  0
   37.2480   32.5490   39.9390 C   0  0  0  0  0  0  0  0  0  0  0  0
   36.9050   31.2600   40.3680 C   0  0  0  0  0  0  0  0  0  0  0  0
   37.5180   30.1800   39.7530 C   0  0  0  0  0  0  0  0  0  0  0  0
   38.4130   30.4430   38.7700 N   0  0  0  0  0  0  0  0  0  0  0  0
   38.7370   31.6860   38.3640 C   0  0  0  0  0  0  0  0  0  0  0  0
   38.1420   32.7450   38.9600 N   0  0  0  0  0  0  0  0  0  0  0  0
   37.4870   28.4470   41.4500 C   0  0  0  0  0  0  0  0  0  0  0  0
   38.7460   28.4520   42.0090 C   0  0  0  0  0  0  0  0  0  0  0  0
   38.9640   27.9530   43.2840 C   0  0  0  0  0  0  0  0  0  0  0  0
   37.8940   27.4570   43.9640 C   0  0  0  0  0  0  0  0  0  0  0  0
   36.6190   27.4420   43.4190 C   0  0  0  0  0  0  0  0  0  0  0  0
   36.3950   27.9430   42.1380 C   0  0  0  0  0  0  0  0  0  0  0  0
   36.7732   33.4190   40.4161 H   0  0  0  0  0  0  0  0  0  0  0  0
   36.1689   31.1094   41.1714 H   0  0  0  0  0  0  0  0  0  0  0  0
   39.4733   31.8375   37.5610 H   0  0  0  0  0  0  0  0  0  0  0  0
   39.5917   28.8583   41.4348 H   0  0  0  0  0  0  0  0  0  0  0  0
   39.9688   27.9577   43.7316 H   0  0  0  0  0  0  0  0  0  0  0  0
   38.0455   27.0558   44.9770 H   0  0  0  0  0  0  0  0  0  0  0  0
   35.7800   27.0325   44.0008 H   0  0  0  0  0  0  0  0  0  0  0  0
   35.3902   27.9385   41.6904 H   0  0  0  0  0  0  0  0  0  0  0  0
  1  8  1  0
  2  3  2  0
  4  1  1  0
  4  3  1  0
  5  4  2  0
  6  5  1  0
  6  7  2  0
  7  2  1  0
  8  9  2  0
  8 13  1  0
  9 10  1  0
 10 11  2  0
 12 11  1  0
 13 12  2  0
  2 14  1  0
  3 15  1  0
  6 16  1  0
  9 17  1  0
 10 18  1  0
 11 19  1  0
 12 20  1  0
 13 21  1  0
M  ISO  8  14  14  15  14  16  14  17  14  18  14  19  14  20  14  21  14
M  END
>  <minimizedAffinity>  (1) 
-3.87064624

>  <minimizedRMSD>  (1) 
4.29584646

$$$$
