
     RDKit          3D

 18 19  0  0  0  0  0  0  0  0999 V2000
   37.2120   27.1610   42.4290 C   0  0  0  0  0  0  0  0  0  0  0  0
   36.4350   28.1970   41.8690 C   0  0  0  0  0  0  0  0  0  0  0  0
   36.9570   29.4970   41.9490 C   0  0  0  0  0  0  0  0  0  0  0  0
   38.1740   29.6890   42.5550 N   0  0  0  0  0  0  0  0  0  0  0  0
   38.8690   28.6640   43.0710 C   0  0  0  0  0  0  0  0  0  0  0  0
   38.3970   27.4040   43.0120 N   0  0  0  0  0  0  0  0  0  0  0  0
   36.1980   30.4960   41.4040 O   0  0  0  0  0  0  0  0  0  0  0  0
   36.7720   31.3490   40.4660 C   0  0  0  0  0  0  0  0  0  0  0  0
   36.7660   30.9600   39.1370 C   0  0  0  0  0  0  0  0  0  0  0  0
   37.3930   31.9880   38.4510 C   0  0  0  0  0  0  0  0  0  0  0  0
   37.7450   32.9380   39.3780 C   0  0  0  0  0  0  0  0  0  0  0  0
   37.3580   32.5280   40.5840 O   0  0  0  0  0  0  0  0  0  0  0  0
   36.8374   26.1276   42.3869 H   0  0  0  0  0  0  0  0  0  0  0  0
   35.4648   27.9949   41.3917 H   0  0  0  0  0  0  0  0  0  0  0  0
   39.8404   28.8559   43.5502 H   0  0  0  0  0  0  0  0  0  0  0  0
   36.3517   30.0323   38.7155 H   0  0  0  0  0  0  0  0  0  0  0  0
   37.5747   32.0343   37.3671 H   0  0  0  0  0  0  0  0  0  0  0  0
   38.2625   33.8838   39.1596 H   0  0  0  0  0  0  0  0  0  0  0  0
  1  6  2  0
  2  3  2  0
  2  1  1  0
  3  4  1  0
  4  5  2  0
  6  5  1  0
  7  3  1  0
  8 12  1  0
  8  7  1  0
  9  8  2  0
 10  9  1  0
 10 11  2  0
 11 12  1  0
  1 13  1  0
  2 14  1  0
  5 15  1  0
  9 16  1  0
 10 17  1  0
 11 18  1  0
M  ISO  6  13  14  14  14  15  14  16  14  17  14  18  14
M  END
>  <minimizedAffinity>  (1) 
-3.85797477

>  <minimizedRMSD>  (1) 
5.48704147

$$$$
