
     RDKit          3D

 18 19  0  0  0  0  0  0  0  0999 V2000
   38.2590   29.1870   43.2190 C   0  0  0  0  0  0  0  0  0  0  0  0
   37.9610   27.8160   43.4390 C   0  0  0  0  0  0  0  0  0  0  0  0
   37.0140   27.2480   42.6090 C   0  0  0  0  0  0  0  0  0  0  0  0
   36.4220   28.0050   41.6410 N   0  0  0  0  0  0  0  0  0  0  0  0
   36.7310   29.2960   41.4660 C   0  0  0  0  0  0  0  0  0  0  0  0
   37.6400   29.8880   42.2430 N   0  0  0  0  0  0  0  0  0  0  0  0
   36.7420   25.9100   42.8450 O   0  0  0  0  0  0  0  0  0  0  0  0
   37.0980   24.9420   42.0000 C   0  0  0  0  0  0  0  0  0  0  0  0
   36.4280   24.1710   41.0330 C   0  0  0  0  0  0  0  0  0  0  0  0
   37.1240   23.2400   40.3270 C   0  0  0  0  0  0  0  0  0  0  0  0
   38.5800   23.1180   40.6550 C   0  0  0  0  0  0  0  0  0  0  0  0
   38.8210   24.3470   41.9420 S   0  0  0  0  0  0  0  0  0  0  0  0
   39.0059   29.6867   43.8533 H   0  0  0  0  0  0  0  0  0  0  0  0
   38.4589   27.2359   44.2300 H   0  0  0  0  0  0  0  0  0  0  0  0
   36.2310   29.8737   40.6746 H   0  0  0  0  0  0  0  0  0  0  0  0
   35.3535   24.3193   40.8499 H   0  0  0  0  0  0  0  0  0  0  0  0
   36.6455   22.6133   39.5600 H   0  0  0  0  0  0  0  0  0  0  0  0
   39.3237   22.4384   40.2134 H   0  0  0  0  0  0  0  0  0  0  0  0
  1  2  2  0
  3  7  1  0
  3  2  1  0
  4  3  2  0
  5  4  1  0
  5  6  2  0
  6  1  1  0
  8  7  1  0
  9  8  2  0
 10 11  2  0
 10  9  1  0
 11 12  1  0
 12  8  1  0
  1 13  1  0
  2 14  1  0
  5 15  1  0
  9 16  1  0
 10 17  1  0
 11 18  1  0
M  ISO  6  13  14  14  14  15  14  16  14  17  14  18  14
M  END
>  <minimizedAffinity>  (1) 
-3.63648415

>  <minimizedRMSD>  (1) 
1.77911329

$$$$
