
     RDKit          3D

 27 28  0  0  0  0  0  0  0  0999 V2000
   37.9650   28.6460   43.4490 C   0  0  0  0  0  0  0  0  0  0  0  0
   37.8370   27.2620   43.2140 C   0  0  0  0  0  0  0  0  0  0  0  0
   37.1350   26.8440   42.0940 C   0  0  0  0  0  0  0  0  0  0  0  0
   36.6000   27.7900   41.2730 N   0  0  0  0  0  0  0  0  0  0  0  0
   36.7360   29.1120   41.5210 C   0  0  0  0  0  0  0  0  0  0  0  0
   37.4130   29.5460   42.6010 N   0  0  0  0  0  0  0  0  0  0  0  0
   37.0280   25.5000   41.8920 O   0  0  0  0  0  0  0  0  0  0  0  0
   37.2640   24.8430   40.6370 C   0  0  0  0  0  0  0  0  0  0  0  0
   38.6380   24.2620   40.7470 C   0  0  0  0  0  0  0  0  0  0  0  0
   38.9070   23.1440   39.7730 C   0  0  0  0  0  0  0  0  0  0  0  0
   37.8750   22.0630   40.1200 C   0  0  0  0  0  0  0  0  0  0  0  0
   36.5470   22.6100   39.6720 C   0  0  0  0  0  0  0  0  0  0  0  0
   36.1720   23.8990   40.3100 C   0  0  0  0  0  0  0  0  0  0  0  0
   38.5195   28.9989   44.3311 H   0  0  0  0  0  0  0  0  0  0  0  0
   38.2838   26.5305   43.9034 H   0  0  0  0  0  0  0  0  0  0  0  0
   36.2878   29.8426   40.8316 H   0  0  0  0  0  0  0  0  0  0  0  0
   37.2445   25.5210   39.7710 H   0  0  0  0  0  0  0  0  0  0  0  0
   39.3688   25.0637   40.5648 H   0  0  0  0  0  0  0  0  0  0  0  0
   38.7243   23.8341   41.7567 H   0  0  0  0  0  0  0  0  0  0  0  0
   39.9293   22.7581   39.8992 H   0  0  0  0  0  0  0  0  0  0  0  0
   38.8241   23.4760   38.7276 H   0  0  0  0  0  0  0  0  0  0  0  0
   38.1044   21.1284   39.5871 H   0  0  0  0  0  0  0  0  0  0  0  0
   37.8766   21.8300   41.1950 H   0  0  0  0  0  0  0  0  0  0  0  0
   36.5864   22.7626   38.5834 H   0  0  0  0  0  0  0  0  0  0  0  0
   35.7852   21.8755   39.9723 H   0  0  0  0  0  0  0  0  0  0  0  0
   35.4827   24.4166   39.6266 H   0  0  0  0  0  0  0  0  0  0  0  0
   35.7454   23.6160   41.2836 H   0  0  0  0  0  0  0  0  0  0  0  0
  2  1  2  0
  3  2  1  0
  4  5  1  0
  4  3  2  0
  5  6  2  0
  6  1  1  0
  7  3  1  0
  8  9  1  0
  8  7  1  0
 10 11  1  0
 10  9  1  0
 12 11  1  0
 12 13  1  0
 13  8  1  0
  1 14  1  0
  2 15  1  0
  5 16  1  0
  8 17  1  0
  9 18  1  0
  9 19  1  0
 10 20  1  0
 10 21  1  0
 11 22  1  0
 11 23  1  0
 12 24  1  0
 12 25  1  0
 13 26  1  0
 13 27  1  0
M  ISO  8  14  14  15  14  16  14  17  13  18  13  19  13  20  13  21  13
M  ISO  6  22  13  23  13  24  13  25  13  26  13  27  13
M  END
>  <minimizedAffinity>  (1) 
-3.56566858

>  <minimizedRMSD>  (1) 
1.58437908

$$$$
