
     RDKit          3D

 20 20  0  0  0  0  0  0  0  0999 V2000
   38.8460   31.6960   41.0310 C   0  0  0  0  0  0  0  0  0  0  0  0
   38.9220   30.5230   41.8190 C   0  0  0  0  0  0  0  0  0  0  0  0
   37.7680   29.7890   42.0370 C   0  0  0  0  0  0  0  0  0  0  0  0
   36.6120   30.2380   41.4800 N   0  0  0  0  0  0  0  0  0  0  0  0
   36.5520   31.3530   40.7340 C   0  0  0  0  0  0  0  0  0  0  0  0
   37.6670   32.0750   40.5140 N   0  0  0  0  0  0  0  0  0  0  0  0
   37.9000   28.6530   42.8150 O   0  0  0  0  0  0  0  0  0  0  0  0
   36.8150   27.8000   43.1230 C   0  0  0  0  0  0  0  0  0  0  0  0
   37.2530   26.3950   42.6920 C   0  0  0  0  0  0  0  0  0  0  0  0
   36.4990   27.7260   44.5860 C   0  0  0  0  0  0  0  0  0  0  0  0
   39.7495   32.2946   40.8430 H   0  0  0  0  0  0  0  0  0  0  0  0
   39.8808   30.1999   42.2507 H   0  0  0  0  0  0  0  0  0  0  0  0
   35.5929   31.6762   40.3031 H   0  0  0  0  0  0  0  0  0  0  0  0
   35.9188   28.1857   42.6149 H   0  0  0  0  0  0  0  0  0  0  0  0
   37.4445   25.7808   43.5842 H   0  0  0  0  0  0  0  0  0  0  0  0
   36.4569   25.9309   42.0913 H   0  0  0  0  0  0  0  0  0  0  0  0
   38.1718   26.4655   42.0913 H   0  0  0  0  0  0  0  0  0  0  0  0
   37.4075   27.9387   45.1686 H   0  0  0  0  0  0  0  0  0  0  0  0
   35.7240   28.4670   44.8317 H   0  0  0  0  0  0  0  0  0  0  0  0
   36.1336   26.7180   44.8317 H   0  0  0  0  0  0  0  0  0  0  0  0
  1  2  2  0
  2  3  1  0
  3  7  1  0
  4  3  2  0
  5  4  1  0
  6  5  2  0
  6  1  1  0
  7  8  1  0
  8 10  1  0
  9  8  1  0
  1 11  1  0
  2 12  1  0
  5 13  1  0
  8 14  1  0
  9 15  1  0
  9 16  1  0
  9 17  1  0
 10 18  1  0
 10 19  1  0
 10 20  1  0
M  ISO  8  11  14  12  14  13  14  14   8  15   8  16   8  17   8  18   8
M  ISO  2  19   8  20   8
M  END
>  <minimizedAffinity>  (1) 
-3.33980703

>  <minimizedRMSD>  (1) 
3.09016418

$$$$
