
     RDKit          3D

 13 13  0  0  0  0  0  0  0  0999 V2000
   39.2270   31.2790   41.6180 C   0  0  0  0  0  0  0  0  0  0  0  0
   39.2210   30.2210   42.5420 C   0  0  0  0  0  0  0  0  0  0  0  0
   38.0780   29.4570   42.7010 C   0  0  0  0  0  0  0  0  0  0  0  0
   36.9820   29.7680   41.9410 N   0  0  0  0  0  0  0  0  0  0  0  0
   37.0060   30.7820   41.0630 C   0  0  0  0  0  0  0  0  0  0  0  0
   38.1000   31.5230   40.9020 N   0  0  0  0  0  0  0  0  0  0  0  0
   38.1100   28.4270   43.6170 O   0  0  0  0  0  0  0  0  0  0  0  0
   36.8980   27.9090   44.1130 C   0  0  0  0  0  0  0  0  0  0  0  0
   36.5400   28.1500   45.3050 O   0  0  0  0  0  0  0  0  0  0  0  0
   40.1262   31.8968   41.4776 H   0  0  0  0  0  0  0  0  0  0  0  0
   40.1202   30.0008   43.1362 H   0  0  0  0  0  0  0  0  0  0  0  0
   36.1084   31.0044   40.4673 H   0  0  0  0  0  0  0  0  0  0  0  0
   36.2592   27.2926   43.4633 H   0  0  0  0  0  0  0  0  0  0  0  0
  1  2  2  0
  2  3  1  0
  3  7  1  0
  4  3  2  0
  5  4  1  0
  6  5  2  0
  6  1  1  0
  7  8  1  0
  8  9  2  0
  1 10  1  0
  2 11  1  0
  5 12  1  0
  8 13  1  0
M  ISO  4  10  14  11  14  12  14  13   6
M  END
>  <minimizedAffinity>  (1) 
-2.978549

>  <minimizedRMSD>  (1) 
2.56971741

$$$$
