
     RDKit          3D

 24 25  0  0  0  0  0  0  0  0999 V2000
   38.6030   29.4110   39.9740 C   0  0  0  0  0  0  0  0  0  0  0  0
   37.2390   29.8390   40.0650 C   0  0  0  0  0  0  0  0  0  0  0  0
   36.4850   29.1950   41.0240 C   0  0  0  0  0  0  0  0  0  0  0  0
   37.0350   28.2240   41.8100 N   0  0  0  0  0  0  0  0  0  0  0  0
   38.3170   27.8640   41.6810 C   0  0  0  0  0  0  0  0  0  0  0  0
   39.0850   28.4580   40.7700 N   0  0  0  0  0  0  0  0  0  0  0  0
   36.7740   30.8610   39.1920 N   0  0  0  0  0  0  0  0  0  0  0  0
   37.0990   32.2360   39.3370 C   0  0  0  0  0  0  0  0  0  0  0  0
   37.1340   32.6880   40.5720 N   0  0  0  0  0  0  0  0  0  0  0  0
   37.3470   32.9580   38.1150 N   0  0  0  0  0  0  0  0  0  0  0  0
   37.3520   33.6730   40.7750 H   0  0  0  0  0  0  0  0  0  0  0  0
   38.9580   26.8340   42.4940 C   0  0  0  0  0  0  0  0  0  0  0  0
   39.1430   25.4840   42.2550 C   0  0  0  0  0  0  0  0  0  0  0  0
   39.8180   24.9750   43.3680 C   0  0  0  0  0  0  0  0  0  0  0  0
   40.0190   26.0010   44.2330 N   0  0  0  0  0  0  0  0  0  0  0  0
   39.5080   27.1020   43.7110 N   0  0  0  0  0  0  0  0  0  0  0  0
   39.2660   29.8790   39.2315 H   0  0  0  0  0  0  0  0  0  0  0  0
   35.4276   29.4673   41.1569 H   0  0  0  0  0  0  0  0  0  0  0  0
   36.1650   30.5876   38.4076 H   0  0  0  0  0  0  0  0  0  0  0  0
   37.5879   33.9589   38.1480 H   0  0  0  0  0  0  0  0  0  0  0  0
   37.2834   32.4732   37.2084 H   0  0  0  0  0  0  0  0  0  0  0  0
   38.8223   24.9224   41.3652 H   0  0  0  0  0  0  0  0  0  0  0  0
   40.1301   23.9307   43.5161 H   0  0  0  0  0  0  0  0  0  0  0  0
   40.4917   25.9328   45.1456 H   0  0  0  0  0  0  0  0  0  0  0  0
  1  2  2  0
  1  6  1  0
  2  3  1  0
  3  4  2  0
  5  4  1  0
  5 12  1  0
  6  5  2  0
  7  8  1  0
  7  2  1  0
  8  9  2  0
  9 11  1  0
 10  8  1  0
 12 16  2  0
 13 12  1  0
 13 14  2  0
 14 15  1  0
 16 15  1  0
  1 17  1  0
  3 18  1  0
  7 19  1  0
 10 20  1  0
 10 21  1  0
 13 22  1  0
 14 23  1  0
 15 24  1  0
M  ISO  5  17  14  18  14  22  14  23  14  24   9
M  END
>  <minimizedAffinity>  (1) 
-4.4629178

>  <minimizedRMSD>  (1) 
2.01068759

$$$$
