
     RDKit          3D

 14 14  0  0  0  0  0  0  0  0999 V2000
   39.3260   27.8960   43.2420 C   0  0  0  0  0  0  0  0  0  0  0  0
   38.7120   26.6360   43.0210 C   0  0  0  0  0  0  0  0  0  0  0  0
   37.3890   26.6020   42.6100 C   0  0  0  0  0  0  0  0  0  0  0  0
   36.7350   27.7840   42.4360 N   0  0  0  0  0  0  0  0  0  0  0  0
   37.3410   28.9640   42.6530 C   0  0  0  0  0  0  0  0  0  0  0  0
   38.6150   29.0200   43.0500 N   0  0  0  0  0  0  0  0  0  0  0  0
   36.8340   25.3690   42.4080 O   0  0  0  0  0  0  0  0  0  0  0  0
   37.7080   24.2880   42.1380 C   0  0  0  0  0  0  0  0  0  0  0  0
   40.3752   27.9522   43.5677 H   0  0  0  0  0  0  0  0  0  0  0  0
   39.2756   25.7037   43.1731 H   0  0  0  0  0  0  0  0  0  0  0  0
   36.7793   29.8975   42.5013 H   0  0  0  0  0  0  0  0  0  0  0  0
   38.0586   23.8543   43.0862 H   0  0  0  0  0  0  0  0  0  0  0  0
   37.1737   23.5203   41.5591 H   0  0  0  0  0  0  0  0  0  0  0  0
   38.5706   24.6497   41.5591 H   0  0  0  0  0  0  0  0  0  0  0  0
  2  1  2  0
  3  2  1  0
  4  3  2  0
  4  5  1  0
  5  6  2  0
  6  1  1  0
  7  3  1  0
  8  7  1  0
  1  9  1  0
  2 10  1  0
  5 11  1  0
  8 12  1  0
  8 13  1  0
  8 14  1  0
M  ISO  6   9  14  10  14  11  14  12   8  13   8  14   8
M  END
>  <minimizedAffinity>  (1) 
-2.63197756

>  <minimizedRMSD>  (1) 
1.36057723

$$$$
