
     RDKit          3D

 25 27  0  0  0  0  0  0  0  0999 V2000
   36.4170   27.6810   42.4260 O   0  0  0  0  0  0  0  0  0  0  0  0
   38.6960   23.7670   42.0680 N   0  0  0  0  0  0  0  0  0  0  0  0
   37.5220   23.7390   41.4040 C   0  0  0  0  0  0  0  0  0  0  0  0
   36.9210   24.9280   41.5640 N   0  0  0  0  0  0  0  0  0  0  0  0
   37.6960   25.7450   42.3330 C   0  0  0  0  0  0  0  0  0  0  0  0
   37.5880   27.0430   42.8120 C   0  0  0  0  0  0  0  0  0  0  0  0
   38.5860   27.5510   43.5770 N   0  0  0  0  0  0  0  0  0  0  0  0
   39.6610   26.7820   43.8560 C   0  0  0  0  0  0  0  0  0  0  0  0
   39.7990   25.5200   43.4080 N   0  0  0  0  0  0  0  0  0  0  0  0
   38.8250   24.9690   42.6390 C   0  0  0  0  0  0  0  0  0  0  0  0
   36.0060   29.1150   39.1040 C   0  0  0  0  0  0  0  0  0  0  0  0
   35.9680   28.1860   40.1910 C   0  0  0  0  0  0  0  0  0  0  0  0
   36.4790   28.6020   41.4300 C   0  0  0  0  0  0  0  0  0  0  0  0
   36.9940   29.8690   41.5600 N   0  0  0  0  0  0  0  0  0  0  0  0
   37.0040   30.7070   40.4940 C   0  0  0  0  0  0  0  0  0  0  0  0
   36.5240   30.3470   39.2930 N   0  0  0  0  0  0  0  0  0  0  0  0
   37.5500   32.0550   40.6260 C   0  0  0  0  0  0  0  0  0  0  0  0
   38.6910   32.2850   41.1030 O   0  0  0  0  0  0  0  0  0  0  0  0
   36.8440   33.1880   40.2330 O   0  0  0  0  0  0  0  0  0  0  0  0
   39.3758   22.9953   42.1252 H   0  0  0  0  0  0  0  0  0  0  0  0
   37.1258   22.8882   40.8303 H   0  0  0  0  0  0  0  0  0  0  0  0
   40.4617   27.2072   44.4789 H   0  0  0  0  0  0  0  0  0  0  0  0
   35.6144   28.8264   38.1174 H   0  0  0  0  0  0  0  0  0  0  0  0
   35.5511   27.1766   40.0598 H   0  0  0  0  0  0  0  0  0  0  0  0
   37.2491   34.0851   40.3389 H   0  0  0  0  0  0  0  0  0  0  0  0
  1  6  1  0
  2 10  1  0
  3  4  2  0
  3  2  1  0
  4  5  1  0
  5 10  2  0
  5  6  1  0
  6  7  2  0
  7  8  1  0
  9  8  2  0
 10  9  1  0
 11 16  2  0
 11 12  1  0
 12 13  2  0
 13 14  1  0
 13  1  1  0
 15 17  1  0
 15 14  2  0
 16 15  1  0
 17 18  2  0
 19 17  1  0
  2 20  1  0
  3 21  1  0
  8 22  1  0
 11 23  1  0
 12 24  1  0
 19 25  1  0
M  ISO  6  20   9  21  14  22  14  23  14  24  14  25   3
M  END
>  <minimizedAffinity>  (1) 
-5.5158577

>  <minimizedRMSD>  (1) 
5.80265808

$$$$
