
     RDKit          3D

 23 25  0  0  0  0  0  0  0  0999 V2000
   35.4150   30.4530   40.8380 N   0  0  0  0  0  0  0  0  0  0  0  0
   35.0150   29.2090   40.5450 C   0  0  0  0  0  0  0  0  0  0  0  0
   36.1150   28.4410   40.4230 N   0  0  0  0  0  0  0  0  0  0  0  0
   37.2300   29.1670   40.6340 C   0  0  0  0  0  0  0  0  0  0  0  0
   38.5940   28.9140   40.6380 C   0  0  0  0  0  0  0  0  0  0  0  0
   39.4530   29.9250   40.9010 N   0  0  0  0  0  0  0  0  0  0  0  0
   38.9720   31.1570   41.1540 C   0  0  0  0  0  0  0  0  0  0  0  0
   37.6530   31.4500   41.1600 N   0  0  0  0  0  0  0  0  0  0  0  0
   36.7590   30.4480   40.8970 C   0  0  0  0  0  0  0  0  0  0  0  0
   38.9250   27.5930   40.3600 O   0  0  0  0  0  0  0  0  0  0  0  0
   38.8950   24.5520   42.3600 C   0  0  0  0  0  0  0  0  0  0  0  0
   38.6500   25.4640   41.2890 C   0  0  0  0  0  0  0  0  0  0  0  0
   39.1860   26.7580   41.4070 C   0  0  0  0  0  0  0  0  0  0  0  0
   39.9030   27.0780   42.5160 N   0  0  0  0  0  0  0  0  0  0  0  0
   40.1090   26.1860   43.4990 C   0  0  0  0  0  0  0  0  0  0  0  0
   39.6210   24.9380   43.4410 N   0  0  0  0  0  0  0  0  0  0  0  0
   40.8380   26.4960   44.6380 O   0  0  0  0  0  0  0  0  0  0  0  0
   34.8034   31.2675   40.9908 H   0  0  0  0  0  0  0  0  0  0  0  0
   33.9741   28.8741   40.4253 H   0  0  0  0  0  0  0  0  0  0  0  0
   39.6881   31.9646   41.3662 H   0  0  0  0  0  0  0  0  0  0  0  0
   38.4928   23.5294   42.3092 H   0  0  0  0  0  0  0  0  0  0  0  0
   38.0650   25.1657   40.4065 H   0  0  0  0  0  0  0  0  0  0  0  0
   40.9697   25.8131   45.3425 H   0  0  0  0  0  0  0  0  0  0  0  0
  1  9  1  0
  2  1  1  0
  3  2  2  0
  3  4  1  0
  4  5  1  0
  4  9  2  0
  5  6  2  0
  6  7  1  0
  7  8  2  0
  9  8  1  0
 10  5  1  0
 10 13  1  0
 11 16  2  0
 12 13  2  0
 12 11  1  0
 13 14  1  0
 14 15  2  0
 15 17  1  0
 16 15  1  0
  1 18  1  0
  2 19  1  0
  7 20  1  0
 11 21  1  0
 12 22  1  0
 17 23  1  0
M  ISO  6  18   9  19  14  20  14  21  14  22  14  23   3
M  END
>  <minimizedAffinity>  (1) 
-4.42595053

>  <minimizedRMSD>  (1) 
0.517305911

$$$$
