
     RDKit          3D

 29 32  0  0  0  0  0  0  0  0999 V2000
   39.6020   25.4430   40.7880 C   0  0  0  0  0  0  0  0  0  0  0  0
   39.2170   26.4750   39.8970 C   0  0  0  0  0  0  0  0  0  0  0  0
   39.6670   27.7770   40.1580 C   0  0  0  0  0  0  0  0  0  0  0  0
   40.4560   28.0000   41.2600 N   0  0  0  0  0  0  0  0  0  0  0  0
   40.7950   26.9840   42.0790 C   0  0  0  0  0  0  0  0  0  0  0  0
   40.3840   25.7260   41.8630 N   0  0  0  0  0  0  0  0  0  0  0  0
   41.6350   27.2670   43.2380 C   0  0  0  0  0  0  0  0  0  0  0  0
   41.7080   26.5390   44.4090 C   0  0  0  0  0  0  0  0  0  0  0  0
   42.6050   27.1330   45.2310 N   0  0  0  0  0  0  0  0  0  0  0  0
   43.1090   28.2270   44.6110 C   0  0  0  0  0  0  0  0  0  0  0  0
   42.5000   28.2750   43.4130 N   0  0  0  0  0  0  0  0  0  0  0  0
   39.2700   28.7340   39.2710 O   0  0  0  0  0  0  0  0  0  0  0  0
   35.5680   30.7160   41.0110 N   0  0  0  0  0  0  0  0  0  0  0  0
   35.3620   29.4180   40.7080 C   0  0  0  0  0  0  0  0  0  0  0  0
   36.5100   28.9260   40.2030 N   0  0  0  0  0  0  0  0  0  0  0  0
   37.4630   29.8740   40.1700 C   0  0  0  0  0  0  0  0  0  0  0  0
   38.7810   29.9310   39.7670 C   0  0  0  0  0  0  0  0  0  0  0  0
   39.4660   31.1080   39.8840 N   0  0  0  0  0  0  0  0  0  0  0  0
   38.8550   32.1880   40.3860 C   0  0  0  0  0  0  0  0  0  0  0  0
   37.5550   32.1770   40.7970 N   0  0  0  0  0  0  0  0  0  0  0  0
   36.8420   31.0130   40.6920 C   0  0  0  0  0  0  0  0  0  0  0  0
   39.2673   24.4105   40.6094 H   0  0  0  0  0  0  0  0  0  0  0  0
   38.5825   26.2607   39.0244 H   0  0  0  0  0  0  0  0  0  0  0  0
   41.1335   25.6288   44.6360 H   0  0  0  0  0  0  0  0  0  0  0  0
   43.8590   28.9287   45.0048 H   0  0  0  0  0  0  0  0  0  0  0  0
   42.6786   29.0051   42.7087 H   0  0  0  0  0  0  0  0  0  0  0  0
   34.8756   31.3634   41.4138 H   0  0  0  0  0  0  0  0  0  0  0  0
   34.4241   28.8606   40.8482 H   0  0  0  0  0  0  0  0  0  0  0  0
   39.4261   33.1243   40.4706 H   0  0  0  0  0  0  0  0  0  0  0  0
  1  6  2  0
  2  3  2  0
  2  1  1  0
  3  4  1  0
  4  5  2  0
  5  7  1  0
  6  5  1  0
  7 11  1  0
  7  8  2  0
  8  9  1  0
 10  9  2  0
 11 10  1  0
 12 17  1  0
 12  3  1  0
 14 13  1  0
 15 14  2  0
 16 15  1  0
 16 21  2  0
 17 18  2  0
 17 16  1  0
 18 19  1  0
 19 20  2  0
 21 20  1  0
 21 13  1  0
  1 22  1  0
  2 23  1  0
  8 24  1  0
 10 25  1  0
 11 26  1  0
 13 27  1  0
 14 28  1  0
 19 29  1  0
M  ISO  8  22  14  23  14  24  14  25  14  26   9  27   9  28  14  29  14
M  END
>  <minimizedAffinity>  (1) 
-4.36404705

>  <minimizedRMSD>  (1) 
1.77890885

$$$$
