
     RDKit          3D

 25 27  0  0  0  0  0  0  0  0999 V2000
   35.4020   30.4840   40.8850 N   0  0  0  0  0  0  0  0  0  0  0  0
   35.0610   29.2260   40.5310 C   0  0  0  0  0  0  0  0  0  0  0  0
   36.1800   28.5500   40.2090 N   0  0  0  0  0  0  0  0  0  0  0  0
   37.2570   29.3610   40.3490 C   0  0  0  0  0  0  0  0  0  0  0  0
   38.6310   29.2120   40.1620 C   0  0  0  0  0  0  0  0  0  0  0  0
   39.4430   30.2790   40.4080 N   0  0  0  0  0  0  0  0  0  0  0  0
   38.9090   31.4490   40.8230 C   0  0  0  0  0  0  0  0  0  0  0  0
   37.5890   31.6220   41.0120 N   0  0  0  0  0  0  0  0  0  0  0  0
   36.7320   30.5800   40.7780 C   0  0  0  0  0  0  0  0  0  0  0  0
   39.0130   27.9550   39.7350 O   0  0  0  0  0  0  0  0  0  0  0  0
   39.0310   24.6280   41.2060 C   0  0  0  0  0  0  0  0  0  0  0  0
   38.8620   25.6790   40.2640 C   0  0  0  0  0  0  0  0  0  0  0  0
   39.1920   26.9700   40.6780 C   0  0  0  0  0  0  0  0  0  0  0  0
   39.6590   27.1790   41.9530 N   0  0  0  0  0  0  0  0  0  0  0  0
   39.8010   26.1540   42.8040 C   0  0  0  0  0  0  0  0  0  0  0  0
   39.4950   24.8830   42.4520 N   0  0  0  0  0  0  0  0  0  0  0  0
   40.3100   26.4150   44.1800 C   0  0  0  0  0  0  0  0  0  0  0  0
   34.7577   31.2307   41.1821 H   0  0  0  0  0  0  0  0  0  0  0  0
   34.0386   28.8209   40.5093 H   0  0  0  0  0  0  0  0  0  0  0  0
   39.5835   32.2966   41.0145 H   0  0  0  0  0  0  0  0  0  0  0  0
   38.7819   23.5956   40.9193 H   0  0  0  0  0  0  0  0  0  0  0  0
   38.4860   25.4824   39.2491 H   0  0  0  0  0  0  0  0  0  0  0  0
   39.5831   26.0423   44.9167 H   0  0  0  0  0  0  0  0  0  0  0  0
   41.2711   25.8985   44.3195 H   0  0  0  0  0  0  0  0  0  0  0  0
   40.4515   27.4969   44.3195 H   0  0  0  0  0  0  0  0  0  0  0  0
  2  1  1  0
  3  4  1  0
  3  2  2  0
  4  9  2  0
  5  4  1  0
  5  6  2  0
  6  7  1  0
  7  8  2  0
  9  1  1  0
  9  8  1  0
 10  5  1  0
 10 13  1  0
 11 16  2  0
 12 13  2  0
 12 11  1  0
 13 14  1  0
 14 15  2  0
 15 17  1  0
 16 15  1  0
  1 18  1  0
  2 19  1  0
  7 20  1  0
 11 21  1  0
 12 22  1  0
 17 23  1  0
 17 24  1  0
 17 25  1  0
M  ISO  8  18   9  19  14  20  14  21  14  22  14  23   8  24   8  25   8
M  END
>  <minimizedAffinity>  (1) 
-4.08634806

>  <minimizedRMSD>  (1) 
0.875873446

$$$$
