
     RDKit          3D

 25 27  0  0  0  0  0  0  0  0999 V2000
   41.1070   26.8880   43.4130 O   0  0  0  0  0  0  0  0  0  0  0  0
   37.1310   29.0840   43.3460 N   0  0  0  0  0  0  0  0  0  0  0  0
   37.0000   27.8340   43.8130 C   0  0  0  0  0  0  0  0  0  0  0  0
   38.2300   27.2650   43.7950 N   0  0  0  0  0  0  0  0  0  0  0  0
   39.1470   28.1430   43.3190 C   0  0  0  0  0  0  0  0  0  0  0  0
   40.5180   28.0950   43.0900 C   0  0  0  0  0  0  0  0  0  0  0  0
   41.1270   29.1940   42.5910 N   0  0  0  0  0  0  0  0  0  0  0  0
   40.4060   30.3070   42.3260 C   0  0  0  0  0  0  0  0  0  0  0  0
   39.0690   30.3890   42.5370 N   0  0  0  0  0  0  0  0  0  0  0  0
   38.4130   29.3000   43.0400 C   0  0  0  0  0  0  0  0  0  0  0  0
   44.5580   26.2990   44.4370 C   0  0  0  0  0  0  0  0  0  0  0  0
   43.3750   26.3220   43.6640 C   0  0  0  0  0  0  0  0  0  0  0  0
   42.2150   26.8920   44.1990 C   0  0  0  0  0  0  0  0  0  0  0  0
   42.2790   27.4120   45.4730 N   0  0  0  0  0  0  0  0  0  0  0  0
   43.4250   27.3690   46.1740 C   0  0  0  0  0  0  0  0  0  0  0  0
   44.5470   26.8270   45.6760 N   0  0  0  0  0  0  0  0  0  0  0  0
   43.4210   27.9540   47.5530 C   0  0  0  0  0  0  0  0  0  0  0  0
   43.4580   29.3430   47.4970 F   0  0  0  0  0  0  0  0  0  0  0  0
   42.2170   27.6620   48.2020 F   0  0  0  0  0  0  0  0  0  0  0  0
   44.5180   27.5600   48.2960 F   0  0  0  0  0  0  0  0  0  0  0  0
   36.3671   29.7668   43.2404 H   0  0  0  0  0  0  0  0  0  0  0  0
   36.0668   27.3582   44.1487 H   0  0  0  0  0  0  0  0  0  0  0  0
   40.9281   31.1862   41.9206 H   0  0  0  0  0  0  0  0  0  0  0  0
   45.4785   25.8543   44.0308 H   0  0  0  0  0  0  0  0  0  0  0  0
   43.3665   25.8953   42.6502 H   0  0  0  0  0  0  0  0  0  0  0  0
  1 13  1  0
  2  3  1  0
  4  3  2  0
  5  4  1  0
  6  5  2  0
  6  1  1  0
  7  6  1  0
  8  9  1  0
  8  7  2  0
  9 10  2  0
 10  5  1  0
 10  2  1  0
 11 16  2  0
 12 13  2  0
 12 11  1  0
 13 14  1  0
 14 15  2  0
 15 17  1  0
 16 15  1  0
 17 19  1  0
 17 20  1  0
 18 17  1  0
  2 21  1  0
  3 22  1  0
  8 23  1  0
 11 24  1  0
 12 25  1  0
M  ISO  5  21   9  22  14  23  14  24  14  25  14
M  END
>  <minimizedAffinity>  (1) 
-5.22516155

>  <minimizedRMSD>  (1) 
3.82464337

$$$$
