
     RDKit          3D

 38 42  0  0  0  0  0  0  0  0999 V2000
   44.4100   26.1680   43.8520 C   0  0  0  0  0  0  0  0  0  0  0  0
   43.1350   26.2760   43.2640 C   0  0  0  0  0  0  0  0  0  0  0  0
   42.0620   26.7640   44.0010 C   0  0  0  0  0  0  0  0  0  0  0  0
   42.3050   27.1260   45.3050 N   0  0  0  0  0  0  0  0  0  0  0  0
   43.5280   27.0130   45.8380 C   0  0  0  0  0  0  0  0  0  0  0  0
   44.5680   26.5450   45.1350 N   0  0  0  0  0  0  0  0  0  0  0  0
   43.0960   25.8490   41.9060 N   0  0  0  0  0  0  0  0  0  0  0  0
   44.1950   25.9310   41.1280 C   0  0  0  0  0  0  0  0  0  0  0  0
   43.9160   25.4680   39.8870 N   0  0  0  0  0  0  0  0  0  0  0  0
   42.6130   25.0870   39.8870 C   0  0  0  0  0  0  0  0  0  0  0  0
   41.7630   24.5550   38.9610 C   0  0  0  0  0  0  0  0  0  0  0  0
   40.4740   24.2780   39.2900 N   0  0  0  0  0  0  0  0  0  0  0  0
   40.0210   24.5330   40.5540 C   0  0  0  0  0  0  0  0  0  0  0  0
   40.8250   25.0640   41.5180 N   0  0  0  0  0  0  0  0  0  0  0  0
   42.1080   25.3320   41.1660 C   0  0  0  0  0  0  0  0  0  0  0  0
   42.3050   24.3170   37.6690 N   0  0  0  0  0  0  0  0  0  0  0  0
   43.7110   27.4310   47.2720 C   0  0  0  0  0  0  0  0  0  0  0  0
   44.5700   28.5320   47.3470 F   0  0  0  0  0  0  0  0  0  0  0  0
   42.5040   27.8890   47.8060 F   0  0  0  0  0  0  0  0  0  0  0  0
   44.2860   26.4410   48.0410 F   0  0  0  0  0  0  0  0  0  0  0  0
   40.8670   26.8390   43.3700 O   0  0  0  0  0  0  0  0  0  0  0  0
   36.9780   29.1930   43.2520 N   0  0  0  0  0  0  0  0  0  0  0  0
   36.7740   27.9210   43.6290 C   0  0  0  0  0  0  0  0  0  0  0  0
   37.9810   27.2980   43.6360 N   0  0  0  0  0  0  0  0  0  0  0  0
   38.9470   28.1780   43.2640 C   0  0  0  0  0  0  0  0  0  0  0  0
   40.3250   28.0880   43.1010 C   0  0  0  0  0  0  0  0  0  0  0  0
   41.0060   29.1800   42.7100 N   0  0  0  0  0  0  0  0  0  0  0  0
   40.3450   30.3420   42.4800 C   0  0  0  0  0  0  0  0  0  0  0  0
   38.9940   30.4610   42.6310 N   0  0  0  0  0  0  0  0  0  0  0  0
   38.2740   29.3720   43.0270 C   0  0  0  0  0  0  0  0  0  0  0  0
   45.2622   25.7823   43.2732 H   0  0  0  0  0  0  0  0  0  0  0  0
   45.1724   26.3167   41.4536 H   0  0  0  0  0  0  0  0  0  0  0  0
   38.9742   24.3024   40.8012 H   0  0  0  0  0  0  0  0  0  0  0  0
   43.2900   24.5459   37.4736 H   0  0  0  0  0  0  0  0  0  0  0  0
   41.7128   23.9156   36.9280 H   0  0  0  0  0  0  0  0  0  0  0  0
   36.2480   29.9129   43.1534 H   0  0  0  0  0  0  0  0  0  0  0  0
   35.8059   27.4661   43.8855 H   0  0  0  0  0  0  0  0  0  0  0  0
   40.9205   31.2228   42.1592 H   0  0  0  0  0  0  0  0  0  0  0  0
  1  6  2  0
  2  1  1  0
  2  3  2  0
  3  4  1  0
  4  5  2  0
  5 17  1  0
  6  5  1  0
  7  2  1  0
  8  7  1  0
  9 10  1  0
  9  8  2  0
 10 15  2  0
 11 12  2  0
 11 10  1  0
 12 13  1  0
 13 14  2  0
 15 14  1  0
 15  7  1  0
 16 11  1  0
 17 18  1  0
 17 19  1  0
 17 20  1  0
 21  3  1  0
 22 23  1  0
 23 24  2  0
 25 24  1  0
 26 25  2  0
 26 21  1  0
 27 26  1  0
 28 29  1  0
 28 27  2  0
 29 30  2  0
 30 22  1  0
 30 25  1  0
  1 31  1  0
  8 32  1  0
 13 33  1  0
 16 34  1  0
 16 35  1  0
 22 36  1  0
 23 37  1  0
 28 38  1  0
M  ISO  6  31  14  32  14  33  14  36   9  37  14  38  14
M  END
>  <minimizedAffinity>  (1) 
-5.88356256

>  <minimizedRMSD>  (1) 
0.789749324

$$$$
