
     RDKit          3D

 36 40  0  0  0  0  0  0  0  0999 V2000
   44.4420   26.1560   43.8350 C   0  0  0  0  0  0  0  0  0  0  0  0
   43.1830   26.2760   43.2180 C   0  0  0  0  0  0  0  0  0  0  0  0
   42.0980   26.7760   43.9450 C   0  0  0  0  0  0  0  0  0  0  0  0
   42.3160   27.1370   45.2550 N   0  0  0  0  0  0  0  0  0  0  0  0
   43.5330   27.0090   45.8140 C   0  0  0  0  0  0  0  0  0  0  0  0
   44.5860   26.5300   45.1290 N   0  0  0  0  0  0  0  0  0  0  0  0
   43.1170   25.8620   41.8570 N   0  0  0  0  0  0  0  0  0  0  0  0
   44.1630   25.9550   41.0120 C   0  0  0  0  0  0  0  0  0  0  0  0
   43.7860   25.4810   39.7900 N   0  0  0  0  0  0  0  0  0  0  0  0
   42.5020   25.0910   39.8690 C   0  0  0  0  0  0  0  0  0  0  0  0
   41.6090   24.5410   38.9600 C   0  0  0  0  0  0  0  0  0  0  0  0
   40.3630   24.2640   39.3890 N   0  0  0  0  0  0  0  0  0  0  0  0
   39.9570   24.4960   40.6490 C   0  0  0  0  0  0  0  0  0  0  0  0
   40.8380   25.0350   41.5360 N   0  0  0  0  0  0  0  0  0  0  0  0
   42.0950   25.3340   41.1650 C   0  0  0  0  0  0  0  0  0  0  0  0
   43.6950   27.4210   47.2450 C   0  0  0  0  0  0  0  0  0  0  0  0
   44.5380   28.5290   47.3330 F   0  0  0  0  0  0  0  0  0  0  0  0
   42.4760   27.8640   47.7540 F   0  0  0  0  0  0  0  0  0  0  0  0
   44.2650   26.4330   48.0100 F   0  0  0  0  0  0  0  0  0  0  0  0
   40.9150   26.8660   43.2960 O   0  0  0  0  0  0  0  0  0  0  0  0
   37.0170   29.2040   43.2910 N   0  0  0  0  0  0  0  0  0  0  0  0
   36.8310   27.9270   43.6340 C   0  0  0  0  0  0  0  0  0  0  0  0
   38.0330   27.3210   43.6080 N   0  0  0  0  0  0  0  0  0  0  0  0
   39.0050   28.2000   43.2470 C   0  0  0  0  0  0  0  0  0  0  0  0
   40.3760   28.1210   43.0650 C   0  0  0  0  0  0  0  0  0  0  0  0
   41.0490   29.2400   42.6880 N   0  0  0  0  0  0  0  0  0  0  0  0
   40.3700   30.3870   42.5030 C   0  0  0  0  0  0  0  0  0  0  0  0
   39.0350   30.5160   42.6670 N   0  0  0  0  0  0  0  0  0  0  0  0
   38.3200   29.4060   43.0490 C   0  0  0  0  0  0  0  0  0  0  0  0
   45.3010   25.7623   43.2719 H   0  0  0  0  0  0  0  0  0  0  0  0
   45.1581   26.3488   41.2664 H   0  0  0  0  0  0  0  0  0  0  0  0
   41.9097   24.3377   37.9216 H   0  0  0  0  0  0  0  0  0  0  0  0
   38.9295   24.2543   40.9586 H   0  0  0  0  0  0  0  0  0  0  0  0
   36.2784   29.9187   43.2233 H   0  0  0  0  0  0  0  0  0  0  0  0
   35.8707   27.4560   43.8910 H   0  0  0  0  0  0  0  0  0  0  0  0
   40.9390   31.2778   42.1984 H   0  0  0  0  0  0  0  0  0  0  0  0
  1  6  2  0
  2  1  1  0
  2  3  2  0
  3  4  1  0
  4  5  2  0
  5 16  1  0
  6  5  1  0
  7  2  1  0
  8  7  1  0
  9 10  1  0
  9  8  2  0
 10 15  2  0
 11 12  2  0
 11 10  1  0
 12 13  1  0
 13 14  2  0
 15 14  1  0
 15  7  1  0
 16 17  1  0
 16 18  1  0
 16 19  1  0
 20  3  1  0
 21 22  1  0
 23 22  2  0
 24 23  1  0
 25 24  2  0
 25 20  1  0
 26 25  1  0
 27 28  1  0
 27 26  2  0
 28 29  2  0
 29 24  1  0
 29 21  1  0
  1 30  1  0
  8 31  1  0
 11 32  1  0
 13 33  1  0
 21 34  1  0
 22 35  1  0
 27 36  1  0
M  ISO  7  30  14  31  14  32  14  33  14  34   9  35  14  36  14
M  END
>  <minimizedAffinity>  (1) 
-5.79783678

>  <minimizedRMSD>  (1) 
0.920494258

$$$$
