
     RDKit          3D

 35 38  0  0  0  0  0  0  0  0999 V2000
   44.5070   26.1960   44.2690 C   0  0  0  0  0  0  0  0  0  0  0  0
   43.3170   26.2530   43.5160 C   0  0  0  0  0  0  0  0  0  0  0  0
   42.1770   26.8460   44.0740 C   0  0  0  0  0  0  0  0  0  0  0  0
   42.2720   27.3530   45.3490 N   0  0  0  0  0  0  0  0  0  0  0  0
   43.4250   27.2770   46.0290 C   0  0  0  0  0  0  0  0  0  0  0  0
   44.5200   26.7180   45.5160 N   0  0  0  0  0  0  0  0  0  0  0  0
   43.2600   25.7160   42.1950 N   0  0  0  0  0  0  0  0  0  0  0  0
   42.2080   25.3460   41.4620 C   0  0  0  0  0  0  0  0  0  0  0  0
   42.4080   24.8460   40.1910 C   0  0  0  0  0  0  0  0  0  0  0  0
   43.6800   24.7210   39.6630 C   0  0  0  0  0  0  0  0  0  0  0  0
   43.8200   24.2560   38.4900 O   0  0  0  0  0  0  0  0  0  0  0  0
   44.7250   25.0990   40.4210 N   0  0  0  0  0  0  0  0  0  0  0  0
   44.5140   25.5920   41.6750 C   0  0  0  0  0  0  0  0  0  0  0  0
   45.6040   25.9050   42.2630 O   0  0  0  0  0  0  0  0  0  0  0  0
   43.4570   27.8520   47.4200 C   0  0  0  0  0  0  0  0  0  0  0  0
   43.4200   29.2320   47.3870 F   0  0  0  0  0  0  0  0  0  0  0  0
   42.2920   27.4820   48.1150 F   0  0  0  0  0  0  0  0  0  0  0  0
   44.5990   27.4920   48.1160 F   0  0  0  0  0  0  0  0  0  0  0  0
   41.0510   26.8760   43.3040 O   0  0  0  0  0  0  0  0  0  0  0  0
   37.1030   29.1210   43.3810 N   0  0  0  0  0  0  0  0  0  0  0  0
   36.9660   27.8540   43.8070 C   0  0  0  0  0  0  0  0  0  0  0  0
   38.1940   27.2800   43.7440 N   0  0  0  0  0  0  0  0  0  0  0  0
   39.1150   28.1700   43.2820 C   0  0  0  0  0  0  0  0  0  0  0  0
   40.4810   28.1100   43.0300 C   0  0  0  0  0  0  0  0  0  0  0  0
   41.0910   29.2230   42.5590 N   0  0  0  0  0  0  0  0  0  0  0  0
   40.3780   30.3480   42.3470 C   0  0  0  0  0  0  0  0  0  0  0  0
   39.0500   30.4350   42.5830 N   0  0  0  0  0  0  0  0  0  0  0  0
   38.3820   29.3300   43.0620 C   0  0  0  0  0  0  0  0  0  0  0  0
   45.4120   25.7335   43.8482 H   0  0  0  0  0  0  0  0  0  0  0  0
   41.1896   25.4387   41.8674 H   0  0  0  0  0  0  0  0  0  0  0  0
   41.5402   24.5416   39.5875 H   0  0  0  0  0  0  0  0  0  0  0  0
   45.6840   25.0162   40.0545 H   0  0  0  0  0  0  0  0  0  0  0  0
   36.3460   29.8161   43.3120 H   0  0  0  0  0  0  0  0  0  0  0  0
   36.0353   27.3734   44.1430 H   0  0  0  0  0  0  0  0  0  0  0  0
   40.9017   31.2363   41.9641 H   0  0  0  0  0  0  0  0  0  0  0  0
  1  6  2  0
  2  3  2  0
  2  1  1  0
  3  4  1  0
  4  5  2  0
  5 15  1  0
  6  5  1  0
  7  2  1  0
  8  7  1  0
  9  8  2  0
 10  9  1  0
 10 12  1  0
 11 10  2  0
 12 13  1  0
 13  7  1  0
 13 14  2  0
 15 17  1  0
 15 18  1  0
 16 15  1  0
 19  3  1  0
 20 21  1  0
 22 21  2  0
 23 22  1  0
 24 23  2  0
 24 19  1  0
 25 24  1  0
 26 25  2  0
 26 27  1  0
 27 28  2  0
 28 23  1  0
 28 20  1  0
  1 29  1  0
  8 30  1  0
  9 31  1  0
 12 32  1  0
 20 33  1  0
 21 34  1  0
 26 35  1  0
M  ISO  7  29  14  30  14  31  14  32   9  33   9  34  14  35  14
M  END
>  <minimizedAffinity>  (1) 
-5.7225914

>  <minimizedRMSD>  (1) 
0.338296026

$$$$
