
     RDKit          3D

 34 37  0  0  0  0  0  0  0  0999 V2000
   44.6020   26.4300   44.3690 C   0  0  0  0  0  0  0  0  0  0  0  0
   43.4390   26.4630   43.5840 C   0  0  0  0  0  0  0  0  0  0  0  0
   42.2640   26.9510   44.1370 C   0  0  0  0  0  0  0  0  0  0  0  0
   42.2950   27.3830   45.4450 N   0  0  0  0  0  0  0  0  0  0  0  0
   43.4280   27.3340   46.1610 C   0  0  0  0  0  0  0  0  0  0  0  0
   44.5770   26.8640   45.6410 N   0  0  0  0  0  0  0  0  0  0  0  0
   43.4100   26.0040   42.2000 C   0  0  0  0  0  0  0  0  0  0  0  0
   42.3450   25.3530   41.6200 C   0  0  0  0  0  0  0  0  0  0  0  0
   42.3160   24.9200   40.3150 C   0  0  0  0  0  0  0  0  0  0  0  0
   43.4120   25.1370   39.5070 C   0  0  0  0  0  0  0  0  0  0  0  0
   44.4720   25.7900   40.1010 C   0  0  0  0  0  0  0  0  0  0  0  0
   44.4560   26.1930   41.3740 N   0  0  0  0  0  0  0  0  0  0  0  0
   43.4000   27.8180   47.5770 C   0  0  0  0  0  0  0  0  0  0  0  0
   43.3700   29.2010   47.6240 F   0  0  0  0  0  0  0  0  0  0  0  0
   42.2060   27.4250   48.1940 F   0  0  0  0  0  0  0  0  0  0  0  0
   44.5030   27.4220   48.3030 F   0  0  0  0  0  0  0  0  0  0  0  0
   41.1420   26.9780   43.3640 O   0  0  0  0  0  0  0  0  0  0  0  0
   37.1440   29.1080   43.3170 N   0  0  0  0  0  0  0  0  0  0  0  0
   37.0220   27.8250   43.7190 C   0  0  0  0  0  0  0  0  0  0  0  0
   38.2620   27.2690   43.7020 N   0  0  0  0  0  0  0  0  0  0  0  0
   39.1670   28.1910   43.2930 C   0  0  0  0  0  0  0  0  0  0  0  0
   40.5500   28.1900   43.0880 C   0  0  0  0  0  0  0  0  0  0  0  0
   41.1470   29.3230   42.6600 N   0  0  0  0  0  0  0  0  0  0  0  0
   40.4070   30.4330   42.4370 C   0  0  0  0  0  0  0  0  0  0  0  0
   39.0710   30.4780   42.6210 N   0  0  0  0  0  0  0  0  0  0  0  0
   38.4230   29.3530   43.0540 C   0  0  0  0  0  0  0  0  0  0  0  0
   45.5398   26.0466   43.9407 H   0  0  0  0  0  0  0  0  0  0  0  0
   41.4572   25.1665   42.2422 H   0  0  0  0  0  0  0  0  0  0  0  0
   41.4275   24.4058   39.9198 H   0  0  0  0  0  0  0  0  0  0  0  0
   43.4393   24.8106   38.4569 H   0  0  0  0  0  0  0  0  0  0  0  0
   45.3711   25.9877   39.4988 H   0  0  0  0  0  0  0  0  0  0  0  0
   36.3729   29.7851   43.2288 H   0  0  0  0  0  0  0  0  0  0  0  0
   36.0880   27.3209   44.0080 H   0  0  0  0  0  0  0  0  0  0  0  0
   40.9187   31.3424   42.0890 H   0  0  0  0  0  0  0  0  0  0  0  0
  1  6  2  0
  2  3  2  0
  2  1  1  0
  3  4  1  0
  4  5  2  0
  5 13  1  0
  6  5  1  0
  7  2  1  0
  8  7  2  0
  9  8  1  0
 10 11  1  0
 10  9  2  0
 11 12  2  0
 12  7  1  0
 13 14  1  0
 13 15  1  0
 13 16  1  0
 17  3  1  0
 18 19  1  0
 20 19  2  0
 21 20  1  0
 22 21  2  0
 22 17  1  0
 23 22  1  0
 24 25  1  0
 24 23  2  0
 25 26  2  0
 26 21  1  0
 26 18  1  0
  1 27  1  0
  8 28  1  0
  9 29  1  0
 10 30  1  0
 11 31  1  0
 18 32  1  0
 19 33  1  0
 24 34  1  0
M  ISO  8  27  14  28  14  29  14  30  14  31  14  32   9  33  14  34  14
M  END
>  <minimizedAffinity>  (1) 
-5.53247643

>  <minimizedRMSD>  (1) 
0.282697141

$$$$
