
     RDKit          3D

 31 34  0  0  0  0  0  0  0  0999 V2000
   44.5210   26.2090   44.1940 C   0  0  0  0  0  0  0  0  0  0  0  0
   43.2760   26.2610   43.5390 C   0  0  0  0  0  0  0  0  0  0  0  0
   42.1580   26.7460   44.2080 C   0  0  0  0  0  0  0  0  0  0  0  0
   42.3260   27.1640   45.5200 N   0  0  0  0  0  0  0  0  0  0  0  0
   43.5260   27.0980   46.1100 C   0  0  0  0  0  0  0  0  0  0  0  0
   44.6090   26.6320   45.4710 N   0  0  0  0  0  0  0  0  0  0  0  0
   43.2280   25.8040   42.1900 N   0  0  0  0  0  0  0  0  0  0  0  0
   42.2660   25.2750   41.4190 C   0  0  0  0  0  0  0  0  0  0  0  0
   42.8520   25.0450   40.2090 N   0  0  0  0  0  0  0  0  0  0  0  0
   44.1420   25.4260   40.2490 C   0  0  0  0  0  0  0  0  0  0  0  0
   44.3710   25.9050   41.5070 N   0  0  0  0  0  0  0  0  0  0  0  0
   43.6300   27.5680   47.5330 C   0  0  0  0  0  0  0  0  0  0  0  0
   44.3830   28.7270   47.6150 F   0  0  0  0  0  0  0  0  0  0  0  0
   42.3600   27.9250   48.0070 F   0  0  0  0  0  0  0  0  0  0  0  0
   44.2300   26.6290   48.3530 F   0  0  0  0  0  0  0  0  0  0  0  0
   40.9740   26.7760   43.5300 O   0  0  0  0  0  0  0  0  0  0  0  0
   37.0930   29.1170   43.3300 N   0  0  0  0  0  0  0  0  0  0  0  0
   36.8980   27.8840   43.8000 C   0  0  0  0  0  0  0  0  0  0  0  0
   38.1130   27.2650   43.8220 N   0  0  0  0  0  0  0  0  0  0  0  0
   39.0750   28.1100   43.3660 C   0  0  0  0  0  0  0  0  0  0  0  0
   40.4400   28.0050   43.1800 C   0  0  0  0  0  0  0  0  0  0  0  0
   41.1120   29.0780   42.6900 N   0  0  0  0  0  0  0  0  0  0  0  0
   40.4480   30.2080   42.3960 C   0  0  0  0  0  0  0  0  0  0  0  0
   39.1020   30.3530   42.5630 N   0  0  0  0  0  0  0  0  0  0  0  0
   38.3950   29.2860   43.0580 C   0  0  0  0  0  0  0  0  0  0  0  0
   45.4104   25.8282   43.6707 H   0  0  0  0  0  0  0  0  0  0  0  0
   41.2233   25.0698   41.7031 H   0  0  0  0  0  0  0  0  0  0  0  0
   44.8708   25.3636   39.4274 H   0  0  0  0  0  0  0  0  0  0  0  0
   36.3591   29.8273   43.1970 H   0  0  0  0  0  0  0  0  0  0  0  0
   35.9373   27.4482   44.1115 H   0  0  0  0  0  0  0  0  0  0  0  0
   41.0192   31.0606   42.0001 H   0  0  0  0  0  0  0  0  0  0  0  0
  1  6  2  0
  2  1  1  0
  2  3  2  0
  3  4  1  0
  4  5  2  0
  5 12  1  0
  6  5  1  0
  7  2  1  0
  8  7  1  0
  9 10  1  0
  9  8  2  0
 10 11  2  0
 11  7  1  0
 12 13  1  0
 12 14  1  0
 12 15  1  0
 16  3  1  0
 17 18  1  0
 18 19  2  0
 20 19  1  0
 21 20  2  0
 21 16  1  0
 22 21  1  0
 23 24  1  0
 23 22  2  0
 24 25  2  0
 25 17  1  0
 25 20  1  0
  1 26  1  0
  8 27  1  0
 10 28  1  0
 17 29  1  0
 18 30  1  0
 23 31  1  0
M  ISO  6  26  14  27  14  28  14  29   9  30  14  31  14
M  END
>  <minimizedAffinity>  (1) 
-5.50836086

>  <minimizedRMSD>  (1) 
0.574080408

$$$$
