
     RDKit          3D

 18 18  0  0  0  0  0  0  0  0999 V2000
   38.8900   29.6090   42.3980 C   0  0  0  0  0  0  0  0  0  0  0  0
   38.0770   29.3270   41.2550 C   0  0  0  0  0  0  0  0  0  0  0  0
   37.7380   27.9910   41.0830 C   0  0  0  0  0  0  0  0  0  0  0  0
   38.1740   27.0530   41.9680 N   0  0  0  0  0  0  0  0  0  0  0  0
   38.9320   27.3710   43.0210 C   0  0  0  0  0  0  0  0  0  0  0  0
   39.2850   28.6350   43.2310 N   0  0  0  0  0  0  0  0  0  0  0  0
   37.6780   30.3890   40.3960 N   0  0  0  0  0  0  0  0  0  0  0  0
   36.6840   31.3470   40.7270 C   0  0  0  0  0  0  0  0  0  0  0  0
   35.6410   30.8850   41.3790 N   0  0  0  0  0  0  0  0  0  0  0  0
   36.9520   32.7010   40.3050 N   0  0  0  0  0  0  0  0  0  0  0  0
   34.8520   31.4920   41.6350 H   0  0  0  0  0  0  0  0  0  0  0  0
   39.3910   26.4200   43.9410 O   0  0  0  0  0  0  0  0  0  0  0  0
   39.1974   30.6461   42.5977 H   0  0  0  0  0  0  0  0  0  0  0  0
   37.1147   27.6897   40.2282 H   0  0  0  0  0  0  0  0  0  0  0  0
   38.1385   30.4674   39.4780 H   0  0  0  0  0  0  0  0  0  0  0  0
   36.2741   33.4485   40.5113 H   0  0  0  0  0  0  0  0  0  0  0  0
   37.8212   32.9198   39.7975 H   0  0  0  0  0  0  0  0  0  0  0  0
   39.9509   26.7024   44.7071 H   0  0  0  0  0  0  0  0  0  0  0  0
  1  6  2  0
  2  1  1  0
  3  2  2  0
  3  4  1  0
  4  5  2  0
  5  6  1  0
  5 12  1  0
  7  8  1  0
  7  2  1  0
  8  9  2  0
  9 11  1  0
 10  8  1  0
  1 13  1  0
  3 14  1  0
  7 15  1  0
 10 16  1  0
 10 17  1  0
 12 18  1  0
M  ISO  3  13  14  14  14  18   3
M  END
>  <minimizedAffinity>  (1) 
-4.23670292

>  <minimizedRMSD>  (1) 
0.425039649

$$$$
