
     RDKit          3D

 28 30  0  0  0  0  0  0  0  0999 V2000
   44.6340   26.3830   44.5780 C   0  0  0  0  0  0  0  0  0  0  0  0
   43.4700   26.4080   43.7960 C   0  0  0  0  0  0  0  0  0  0  0  0
   42.2850   26.9260   44.3030 C   0  0  0  0  0  0  0  0  0  0  0  0
   42.3100   27.4090   45.6010 N   0  0  0  0  0  0  0  0  0  0  0  0
   43.4350   27.3740   46.3300 C   0  0  0  0  0  0  0  0  0  0  0  0
   44.5770   26.8750   45.8400 N   0  0  0  0  0  0  0  0  0  0  0  0
   43.3870   27.9130   47.7250 C   0  0  0  0  0  0  0  0  0  0  0  0
   43.4870   29.3040   47.7150 F   0  0  0  0  0  0  0  0  0  0  0  0
   42.1390   27.6650   48.2970 F   0  0  0  0  0  0  0  0  0  0  0  0
   44.4250   27.4500   48.5080 F   0  0  0  0  0  0  0  0  0  0  0  0
   43.5010   25.8860   42.4340 C   0  0  0  0  0  0  0  0  0  0  0  0
   44.3570   26.3290   41.6400 O   0  0  0  0  0  0  0  0  0  0  0  0
   42.5850   24.9150   42.0510 O   0  0  0  0  0  0  0  0  0  0  0  0
   41.1920   26.9250   43.5000 O   0  0  0  0  0  0  0  0  0  0  0  0
   37.2290   29.1140   43.2990 N   0  0  0  0  0  0  0  0  0  0  0  0
   37.0810   27.8700   43.7720 C   0  0  0  0  0  0  0  0  0  0  0  0
   38.3040   27.3060   43.7930 N   0  0  0  0  0  0  0  0  0  0  0  0
   39.2450   28.1730   43.3380 C   0  0  0  0  0  0  0  0  0  0  0  0
   40.6210   28.1220   43.1510 C   0  0  0  0  0  0  0  0  0  0  0  0
   41.2450   29.2210   42.6610 N   0  0  0  0  0  0  0  0  0  0  0  0
   40.5280   30.3260   42.3680 C   0  0  0  0  0  0  0  0  0  0  0  0
   39.1910   30.4150   42.5350 N   0  0  0  0  0  0  0  0  0  0  0  0
   38.5160   29.3250   43.0310 C   0  0  0  0  0  0  0  0  0  0  0  0
   45.5725   25.9732   44.1762 H   0  0  0  0  0  0  0  0  0  0  0  0
   42.6004   24.5564   41.1284 H   0  0  0  0  0  0  0  0  0  0  0  0
   36.4700   29.7971   43.1643 H   0  0  0  0  0  0  0  0  0  0  0  0
   36.1381   27.3976   44.0846 H   0  0  0  0  0  0  0  0  0  0  0  0
   41.0619   31.2022   41.9714 H   0  0  0  0  0  0  0  0  0  0  0  0
  1  6  2  0
  2  3  2  0
  2  1  1  0
  3  4  1  0
  4  5  2  0
  5  7  1  0
  6  5  1  0
  7  9  1  0
  7 10  1  0
  8  7  1  0
 11  2  1  0
 12 11  2  0
 13 11  1  0
 14  3  1  0
 15 16  1  0
 16 17  2  0
 18 17  1  0
 19 18  2  0
 19 14  1  0
 20 19  1  0
 21 22  1  0
 21 20  2  0
 22 23  2  0
 23 15  1  0
 23 18  1  0
  1 24  1  0
 13 25  1  0
 15 26  1  0
 16 27  1  0
 21 28  1  0
M  ISO  5  24  14  25   3  26   9  27  14  28  14
M  END
>  <minimizedAffinity>  (1) 
-5.46918726

>  <minimizedRMSD>  (1) 
0.464344501

$$$$
