
     RDKit          3D

 32 35  0  0  0  0  0  0  0  0999 V2000
   44.5680   26.3510   44.4370 C   0  0  0  0  0  0  0  0  0  0  0  0
   43.3950   26.3910   43.6660 C   0  0  0  0  0  0  0  0  0  0  0  0
   42.2310   26.9360   44.1860 C   0  0  0  0  0  0  0  0  0  0  0  0
   42.2870   27.4270   45.4750 N   0  0  0  0  0  0  0  0  0  0  0  0
   43.4210   27.3740   46.1830 C   0  0  0  0  0  0  0  0  0  0  0  0
   44.5430   26.8470   45.6800 N   0  0  0  0  0  0  0  0  0  0  0  0
   43.3370   25.8830   42.3210 C   0  0  0  0  0  0  0  0  0  0  0  0
   44.3510   25.8410   41.4640 C   0  0  0  0  0  0  0  0  0  0  0  0
   44.2530   25.3580   40.1990 C   0  0  0  0  0  0  0  0  0  0  0  0
   42.9460   24.8690   39.8080 C   0  0  0  0  0  0  0  0  0  0  0  0
   41.9500   25.1890   41.4220 S   0  0  0  0  0  0  0  0  0  0  0  0
   43.4030   27.9330   47.5840 C   0  0  0  0  0  0  0  0  0  0  0  0
   43.4270   29.3170   47.5640 F   0  0  0  0  0  0  0  0  0  0  0  0
   42.2000   27.6030   48.2160 F   0  0  0  0  0  0  0  0  0  0  0  0
   44.4990   27.5150   48.3270 F   0  0  0  0  0  0  0  0  0  0  0  0
   41.1110   26.9590   43.4140 O   0  0  0  0  0  0  0  0  0  0  0  0
   37.1160   29.0960   43.3190 N   0  0  0  0  0  0  0  0  0  0  0  0
   36.9900   27.8310   43.7350 C   0  0  0  0  0  0  0  0  0  0  0  0
   38.2280   27.2740   43.7310 N   0  0  0  0  0  0  0  0  0  0  0  0
   39.1420   28.1850   43.3130 C   0  0  0  0  0  0  0  0  0  0  0  0
   40.5250   28.1710   43.1170 C   0  0  0  0  0  0  0  0  0  0  0  0
   41.1300   29.2960   42.6750 N   0  0  0  0  0  0  0  0  0  0  0  0
   40.3920   30.3950   42.4370 C   0  0  0  0  0  0  0  0  0  0  0  0
   39.0580   30.4560   42.6100 N   0  0  0  0  0  0  0  0  0  0  0  0
   38.3960   29.3360   43.0580 C   0  0  0  0  0  0  0  0  0  0  0  0
   45.4924   25.9190   44.0261 H   0  0  0  0  0  0  0  0  0  0  0  0
   45.3278   26.2199   41.7990 H   0  0  0  0  0  0  0  0  0  0  0  0
   45.1127   25.3390   39.5131 H   0  0  0  0  0  0  0  0  0  0  0  0
   42.6152   24.4351   38.8529 H   0  0  0  0  0  0  0  0  0  0  0  0
   36.3465   29.7731   43.2177 H   0  0  0  0  0  0  0  0  0  0  0  0
   36.0538   27.3328   44.0271 H   0  0  0  0  0  0  0  0  0  0  0  0
   40.9090   31.2978   42.0797 H   0  0  0  0  0  0  0  0  0  0  0  0
  1  6  2  0
  2  3  2  0
  2  1  1  0
  3  4  1  0
  4  5  2  0
  5 12  1  0
  6  5  1  0
  7  2  1  0
  8  7  2  0
  9  8  1  0
 10  9  2  0
 10 11  1  0
 11  7  1  0
 12 14  1  0
 12 15  1  0
 13 12  1  0
 16  3  1  0
 17 18  1  0
 19 18  2  0
 20 19  1  0
 21 20  2  0
 21 16  1  0
 22 21  1  0
 23 24  1  0
 23 22  2  0
 24 25  2  0
 25 20  1  0
 25 17  1  0
  1 26  1  0
  8 27  1  0
  9 28  1  0
 10 29  1  0
 17 30  1  0
 18 31  1  0
 23 32  1  0
M  ISO  7  26  14  27  14  28  14  29  14  30   9  31  14  32  14
M  END
>  <minimizedAffinity>  (1) 
-5.46886683

>  <minimizedRMSD>  (1) 
0.229806229

$$$$
