
     RDKit          3D

 33 36  0  0  0  0  0  0  0  0999 V2000
   44.5970   26.4140   44.3940 C   0  0  0  0  0  0  0  0  0  0  0  0
   43.4370   26.4400   43.6060 C   0  0  0  0  0  0  0  0  0  0  0  0
   42.2600   26.9350   44.1580 C   0  0  0  0  0  0  0  0  0  0  0  0
   42.2950   27.3790   45.4670 N   0  0  0  0  0  0  0  0  0  0  0  0
   43.4280   27.3340   46.1810 C   0  0  0  0  0  0  0  0  0  0  0  0
   44.5780   26.8550   45.6580 N   0  0  0  0  0  0  0  0  0  0  0  0
   43.4010   25.9730   42.2260 C   0  0  0  0  0  0  0  0  0  0  0  0
   44.4450   26.1240   41.3400 C   0  0  0  0  0  0  0  0  0  0  0  0
   44.4450   25.6940   40.0300 C   0  0  0  0  0  0  0  0  0  0  0  0
   43.3100   25.0710   39.5960 N   0  0  0  0  0  0  0  0  0  0  0  0
   42.2780   24.9140   40.4470 C   0  0  0  0  0  0  0  0  0  0  0  0
   42.3210   25.3500   41.7200 N   0  0  0  0  0  0  0  0  0  0  0  0
   43.3970   27.8310   47.5910 C   0  0  0  0  0  0  0  0  0  0  0  0
   43.3620   29.2130   47.6240 F   0  0  0  0  0  0  0  0  0  0  0  0
   42.2090   27.4400   48.2170 F   0  0  0  0  0  0  0  0  0  0  0  0
   44.5120   27.4410   48.3130 F   0  0  0  0  0  0  0  0  0  0  0  0
   41.1360   26.9590   43.3840 O   0  0  0  0  0  0  0  0  0  0  0  0
   37.1470   29.1080   43.3150 N   0  0  0  0  0  0  0  0  0  0  0  0
   37.0200   27.8310   43.7250 C   0  0  0  0  0  0  0  0  0  0  0  0
   38.2570   27.2710   43.7140 N   0  0  0  0  0  0  0  0  0  0  0  0
   39.1730   28.1910   43.2970 C   0  0  0  0  0  0  0  0  0  0  0  0
   40.5520   28.1810   43.0970 C   0  0  0  0  0  0  0  0  0  0  0  0
   41.1520   29.3060   42.6630 N   0  0  0  0  0  0  0  0  0  0  0  0
   40.4190   30.4170   42.4320 C   0  0  0  0  0  0  0  0  0  0  0  0
   39.0830   30.4680   42.6130 N   0  0  0  0  0  0  0  0  0  0  0  0
   38.4280   29.3510   43.0520 C   0  0  0  0  0  0  0  0  0  0  0  0
   45.5342   26.0264   43.9681 H   0  0  0  0  0  0  0  0  0  0  0  0
   45.3512   26.6280   41.7071 H   0  0  0  0  0  0  0  0  0  0  0  0
   45.3122   25.8446   39.3703 H   0  0  0  0  0  0  0  0  0  0  0  0
   41.3673   24.4115   40.0891 H   0  0  0  0  0  0  0  0  0  0  0  0
   36.3773   29.7859   43.2206 H   0  0  0  0  0  0  0  0  0  0  0  0
   36.0837   27.3323   44.0160 H   0  0  0  0  0  0  0  0  0  0  0  0
   40.9354   31.3222   42.0800 H   0  0  0  0  0  0  0  0  0  0  0  0
  1  6  2  0
  2  3  2  0
  2  1  1  0
  3  4  1  0
  4  5  2  0
  5 13  1  0
  6  5  1  0
  7  2  1  0
  8  7  2  0
  9  8  1  0
 10  9  2  0
 10 11  1  0
 11 12  2  0
 12  7  1  0
 13 14  1  0
 13 15  1  0
 13 16  1  0
 17  3  1  0
 18 19  1  0
 20 19  2  0
 21 20  1  0
 22 21  2  0
 22 17  1  0
 23 22  1  0
 24 25  1  0
 24 23  2  0
 25 26  2  0
 26 21  1  0
 26 18  1  0
  1 27  1  0
  8 28  1  0
  9 29  1  0
 11 30  1  0
 18 31  1  0
 19 32  1  0
 24 33  1  0
M  ISO  7  27  14  28  14  29  14  30  14  31   9  32  14  33  14
M  END
>  <minimizedAffinity>  (1) 
-5.46457052

>  <minimizedRMSD>  (1) 
0.440660477

$$$$
