
     RDKit          3D

 39 42  0  0  0  0  0  0  0  0999 V2000
   44.8150   26.5900   44.4500 C   0  0  0  0  0  0  0  0  0  0  0  0
   43.7020   26.6660   43.5890 C   0  0  0  0  0  0  0  0  0  0  0  0
   42.4760   27.1380   44.0690 C   0  0  0  0  0  0  0  0  0  0  0  0
   42.4120   27.5160   45.3920 N   0  0  0  0  0  0  0  0  0  0  0  0
   43.4900   27.4290   46.1840 C   0  0  0  0  0  0  0  0  0  0  0  0
   44.6710   26.9770   45.7320 N   0  0  0  0  0  0  0  0  0  0  0  0
   43.8140   26.2630   42.2160 N   0  0  0  0  0  0  0  0  0  0  0  0
   42.7300   26.4510   41.2850 C   0  0  0  0  0  0  0  0  0  0  0  0
   42.3160   25.1820   40.6160 C   0  0  0  0  0  0  0  0  0  0  0  0
   43.4650   24.5090   40.1090 N   0  0  0  0  0  0  0  0  0  0  0  0
   44.6960   25.2110   40.2660 C   0  0  0  0  0  0  0  0  0  0  0  0
   45.0080   25.6460   41.6730 C   0  0  0  0  0  0  0  0  0  0  0  0
   43.3490   27.8560   47.6150 C   0  0  0  0  0  0  0  0  0  0  0  0
   43.3180   29.2330   47.7110 F   0  0  0  0  0  0  0  0  0  0  0  0
   42.1060   27.4380   48.1190 F   0  0  0  0  0  0  0  0  0  0  0  0
   44.3860   27.4200   48.4060 F   0  0  0  0  0  0  0  0  0  0  0  0
   41.4380   27.1920   43.1960 O   0  0  0  0  0  0  0  0  0  0  0  0
   37.3590   29.1780   43.3140 N   0  0  0  0  0  0  0  0  0  0  0  0
   37.2950   27.8820   43.6430 C   0  0  0  0  0  0  0  0  0  0  0  0
   38.5490   27.3810   43.5810 N   0  0  0  0  0  0  0  0  0  0  0  0
   39.4250   28.3480   43.2110 C   0  0  0  0  0  0  0  0  0  0  0  0
   40.7920   28.3850   42.9980 C   0  0  0  0  0  0  0  0  0  0  0  0
   41.3590   29.5620   42.6220 N   0  0  0  0  0  0  0  0  0  0  0  0
   40.5850   30.6610   42.4660 C   0  0  0  0  0  0  0  0  0  0  0  0
   39.2440   30.6590   42.6660 N   0  0  0  0  0  0  0  0  0  0  0  0
   38.6310   29.4870   43.0470 C   0  0  0  0  0  0  0  0  0  0  0  0
   45.7837   26.2213   44.0818 H   0  0  0  0  0  0  0  0  0  0  0  0
   41.8659   26.8596   41.8294 H   0  0  0  0  0  0  0  0  0  0  0  0
   43.0812   27.1392   40.5020 H   0  0  0  0  0  0  0  0  0  0  0  0
   41.8048   24.5349   41.3439 H   0  0  0  0  0  0  0  0  0  0  0  0
   41.6338   25.4143   39.7850 H   0  0  0  0  0  0  0  0  0  0  0  0
   43.3190   24.3421   39.1032 H   0  0  0  0  0  0  0  0  0  0  0  0
   45.5091   24.5537   39.9243 H   0  0  0  0  0  0  0  0  0  0  0  0
   44.6003   26.1333   39.6743 H   0  0  0  0  0  0  0  0  0  0  0  0
   45.2895   24.7739   42.2815 H   0  0  0  0  0  0  0  0  0  0  0  0
   45.8476   26.3567   41.6804 H   0  0  0  0  0  0  0  0  0  0  0  0
   36.5611   29.8281   43.2735 H   0  0  0  0  0  0  0  0  0  0  0  0
   36.3861   27.3252   43.9147 H   0  0  0  0  0  0  0  0  0  0  0  0
   41.0673   31.6018   42.1621 H   0  0  0  0  0  0  0  0  0  0  0  0
  1  6  2  0
  2  3  2  0
  2  1  1  0
  3  4  1  0
  4  5  2  0
  5 13  1  0
  6  5  1  0
  7  2  1  0
  8  7  1  0
  9  8  1  0
 10 11  1  0
 10  9  1  0
 11 12  1  0
 12  7  1  0
 13 14  1  0
 13 15  1  0
 13 16  1  0
 17  3  1  0
 18 19  1  0
 20 19  2  0
 21 20  1  0
 22 17  1  0
 22 21  2  0
 23 22  1  0
 24 23  2  0
 24 25  1  0
 25 26  2  0
 26 21  1  0
 26 18  1  0
  1 27  1  0
  8 28  1  0
  8 29  1  0
  9 30  1  0
  9 31  1  0
 10 32  1  0
 11 33  1  0
 11 34  1  0
 12 35  1  0
 12 36  1  0
 18 37  1  0
 19 38  1  0
 24 39  1  0
M  ISO  8  27  14  28  13  29  13  30  13  31  13  32   5  33  13  34  13
M  ISO  5  35  13  36  13  37   9  38  14  39  14
M  END
>  <minimizedAffinity>  (1) 
-5.45401382

>  <minimizedRMSD>  (1) 
0.584179342

$$$$
