
     RDKit          3D

 28 30  0  0  0  0  0  0  0  0999 V2000
   41.1040   26.8940   43.4260 O   0  0  0  0  0  0  0  0  0  0  0  0
   37.1220   29.0930   43.3370 N   0  0  0  0  0  0  0  0  0  0  0  0
   36.9890   27.8370   43.8130 C   0  0  0  0  0  0  0  0  0  0  0  0
   38.2220   27.2650   43.8010 N   0  0  0  0  0  0  0  0  0  0  0  0
   39.1300   28.1390   43.3270 C   0  0  0  0  0  0  0  0  0  0  0  0
   40.5050   28.0970   43.0990 C   0  0  0  0  0  0  0  0  0  0  0  0
   41.1250   29.1980   42.5930 N   0  0  0  0  0  0  0  0  0  0  0  0
   40.4000   30.3060   42.3210 C   0  0  0  0  0  0  0  0  0  0  0  0
   39.0660   30.3780   42.5310 N   0  0  0  0  0  0  0  0  0  0  0  0
   38.4130   29.3010   43.0340 C   0  0  0  0  0  0  0  0  0  0  0  0
   44.5580   26.3140   44.4360 C   0  0  0  0  0  0  0  0  0  0  0  0
   43.3680   26.3380   43.6660 C   0  0  0  0  0  0  0  0  0  0  0  0
   42.2110   26.8950   44.1980 C   0  0  0  0  0  0  0  0  0  0  0  0
   42.2770   27.4080   45.4800 N   0  0  0  0  0  0  0  0  0  0  0  0
   43.4240   27.3660   46.1780 C   0  0  0  0  0  0  0  0  0  0  0  0
   44.5480   26.8310   45.6740 N   0  0  0  0  0  0  0  0  0  0  0  0
   43.4170   27.9430   47.5600 C   0  0  0  0  0  0  0  0  0  0  0  0
   43.4630   29.3410   47.5060 F   0  0  0  0  0  0  0  0  0  0  0  0
   42.2170   27.6600   48.2050 F   0  0  0  0  0  0  0  0  0  0  0  0
   44.5210   27.5550   48.3040 F   0  0  0  0  0  0  0  0  0  0  0  0
   43.3770   25.7600   42.2810 C   0  0  0  0  0  0  0  0  0  0  0  0
   36.3604   29.7773   43.2250 H   0  0  0  0  0  0  0  0  0  0  0  0
   36.0547   27.3634   44.1488 H   0  0  0  0  0  0  0  0  0  0  0  0
   40.9170   31.1864   41.9115 H   0  0  0  0  0  0  0  0  0  0  0  0
   45.4790   25.8765   44.0232 H   0  0  0  0  0  0  0  0  0  0  0  0
   43.3941   24.6618   42.3421 H   0  0  0  0  0  0  0  0  0  0  0  0
   42.4737   26.0833   41.7429 H   0  0  0  0  0  0  0  0  0  0  0  0
   44.2698   26.1112   41.7429 H   0  0  0  0  0  0  0  0  0  0  0  0
  1 13  1  0
  2  3  1  0
  4  3  2  0
  5  4  1  0
  6  5  2  0
  6  1  1  0
  7  6  1  0
  8  9  1  0
  8  7  2  0
  9 10  2  0
 10  5  1  0
 10  2  1  0
 11 16  2  0
 12 13  2  0
 12 11  1  0
 13 14  1  0
 14 15  2  0
 15 17  1  0
 16 15  1  0
 17 19  1  0
 17 20  1  0
 18 17  1  0
 21 12  1  0
  2 22  1  0
  3 23  1  0
  8 24  1  0
 11 25  1  0
 21 26  1  0
 21 27  1  0
 21 28  1  0
M  ISO  7  22   9  23  14  24  14  25  14  26   8  27   8  28   8
M  END
>  <minimizedAffinity>  (1) 
-5.35387516

>  <minimizedRMSD>  (1) 
0.0100005148

$$$$
