
     RDKit          3D

 26 28  0  0  0  0  0  0  0  0999 V2000
   41.0930   26.8740   43.4280 O   0  0  0  0  0  0  0  0  0  0  0  0
   37.1280   29.0840   43.3440 N   0  0  0  0  0  0  0  0  0  0  0  0
   36.9870   27.8440   43.8200 C   0  0  0  0  0  0  0  0  0  0  0  0
   38.2220   27.2620   43.8080 N   0  0  0  0  0  0  0  0  0  0  0  0
   39.1350   28.1460   43.3220 C   0  0  0  0  0  0  0  0  0  0  0  0
   40.5060   28.0870   43.0940 C   0  0  0  0  0  0  0  0  0  0  0  0
   41.1170   29.1710   42.5890 N   0  0  0  0  0  0  0  0  0  0  0  0
   40.3990   30.2930   42.3120 C   0  0  0  0  0  0  0  0  0  0  0  0
   39.0580   30.3750   42.5250 N   0  0  0  0  0  0  0  0  0  0  0  0
   38.4010   29.2920   43.0380 C   0  0  0  0  0  0  0  0  0  0  0  0
   44.5460   26.2900   44.4310 C   0  0  0  0  0  0  0  0  0  0  0  0
   43.3620   26.3100   43.6660 C   0  0  0  0  0  0  0  0  0  0  0  0
   42.2090   26.8770   44.1990 C   0  0  0  0  0  0  0  0  0  0  0  0
   42.2750   27.4040   45.4710 N   0  0  0  0  0  0  0  0  0  0  0  0
   43.4170   27.3700   46.1740 C   0  0  0  0  0  0  0  0  0  0  0  0
   44.5400   26.8260   45.6760 N   0  0  0  0  0  0  0  0  0  0  0  0
   43.4220   27.9560   47.5440 C   0  0  0  0  0  0  0  0  0  0  0  0
   43.4700   29.3460   47.4820 F   0  0  0  0  0  0  0  0  0  0  0  0
   42.2270   27.6730   48.1990 F   0  0  0  0  0  0  0  0  0  0  0  0
   44.5160   27.5640   48.2930 F   0  0  0  0  0  0  0  0  0  0  0  0
   43.4130   25.7500   42.3990 O   0  0  0  0  0  0  0  0  0  0  0  0
   36.3679   29.7701   43.2324 H   0  0  0  0  0  0  0  0  0  0  0  0
   36.0499   27.3782   44.1588 H   0  0  0  0  0  0  0  0  0  0  0  0
   40.9233   31.1678   41.8998 H   0  0  0  0  0  0  0  0  0  0  0  0
   45.4647   25.8443   44.0220 H   0  0  0  0  0  0  0  0  0  0  0  0
   44.2585   25.3585   42.0645 H   0  0  0  0  0  0  0  0  0  0  0  0
  1 13  1  0
  2  3  1  0
  4  3  2  0
  5  4  1  0
  6  5  2  0
  6  1  1  0
  7  6  1  0
  8  9  1  0
  8  7  2  0
  9 10  2  0
 10  5  1  0
 10  2  1  0
 11 16  2  0
 12 13  2  0
 12 11  1  0
 13 14  1  0
 14 15  2  0
 15 17  1  0
 16 15  1  0
 17 19  1  0
 17 20  1  0
 18 17  1  0
 21 12  1  0
  2 22  1  0
  3 23  1  0
  8 24  1  0
 11 25  1  0
 21 26  1  0
M  ISO  5  22   9  23  14  24  14  25  14  26   3
M  END
>  <minimizedAffinity>  (1) 
-5.3392911

>  <minimizedRMSD>  (1) 
0.0158051569

$$$$
