
     RDKit          3D

 38 41  0  0  0  0  0  0  0  0999 V2000
   44.6750   26.6590   44.2300 C   0  0  0  0  0  0  0  0  0  0  0  0
   43.4500   26.6690   43.5270 C   0  0  0  0  0  0  0  0  0  0  0  0
   42.2700   26.9850   44.1910 C   0  0  0  0  0  0  0  0  0  0  0  0
   42.3440   27.2800   45.5380 N   0  0  0  0  0  0  0  0  0  0  0  0
   43.5270   27.2600   46.1750 C   0  0  0  0  0  0  0  0  0  0  0  0
   44.6750   26.9600   45.5540 N   0  0  0  0  0  0  0  0  0  0  0  0
   43.4050   26.3570   42.1290 N   0  0  0  0  0  0  0  0  0  0  0  0
   44.0480   27.2410   41.1750 C   0  0  0  0  0  0  0  0  0  0  0  0
   42.9760   27.7240   40.2190 C   0  0  0  0  0  0  0  0  0  0  0  0
   42.1440   26.6780   39.8240 O   0  0  0  0  0  0  0  0  0  0  0  0
   42.6870   25.4190   40.0670 C   0  0  0  0  0  0  0  0  0  0  0  0
   42.7570   25.2050   41.5840 C   0  0  0  0  0  0  0  0  0  0  0  0
   43.5460   27.5900   47.6370 C   0  0  0  0  0  0  0  0  0  0  0  0
   42.7370   28.6940   47.9000 F   0  0  0  0  0  0  0  0  0  0  0  0
   42.9630   26.5600   48.3750 F   0  0  0  0  0  0  0  0  0  0  0  0
   44.8020   27.9130   48.0940 F   0  0  0  0  0  0  0  0  0  0  0  0
   41.1200   26.9830   43.4760 O   0  0  0  0  0  0  0  0  0  0  0  0
   37.1050   29.0770   43.3090 N   0  0  0  0  0  0  0  0  0  0  0  0
   36.9790   27.8140   43.7330 C   0  0  0  0  0  0  0  0  0  0  0  0
   38.2190   27.2770   43.7500 N   0  0  0  0  0  0  0  0  0  0  0  0
   39.1410   28.1930   43.3360 C   0  0  0  0  0  0  0  0  0  0  0  0
   40.5140   28.1790   43.1670 C   0  0  0  0  0  0  0  0  0  0  0  0
   41.1270   29.3060   42.7240 N   0  0  0  0  0  0  0  0  0  0  0  0
   40.3940   30.4090   42.4620 C   0  0  0  0  0  0  0  0  0  0  0  0
   39.0400   30.4540   42.6190 N   0  0  0  0  0  0  0  0  0  0  0  0
   38.3830   29.3420   43.0610 C   0  0  0  0  0  0  0  0  0  0  0  0
   45.6139   26.4113   43.7132 H   0  0  0  0  0  0  0  0  0  0  0  0
   44.4993   28.0966   41.6987 H   0  0  0  0  0  0  0  0  0  0  0  0
   44.8472   26.7150   40.6322 H   0  0  0  0  0  0  0  0  0  0  0  0
   42.3707   28.4948   40.7185 H   0  0  0  0  0  0  0  0  0  0  0  0
   43.4668   28.1352   39.3246 H   0  0  0  0  0  0  0  0  0  0  0  0
   42.0503   24.6460   39.6120 H   0  0  0  0  0  0  0  0  0  0  0  0
   43.6940   25.3515   39.6295 H   0  0  0  0  0  0  0  0  0  0  0  0
   41.7437   25.1067   42.0007 H   0  0  0  0  0  0  0  0  0  0  0  0
   43.3086   24.2857   41.8301 H   0  0  0  0  0  0  0  0  0  0  0  0
   36.3282   29.7433   43.1925 H   0  0  0  0  0  0  0  0  0  0  0  0
   36.0433   27.3087   44.0144 H   0  0  0  0  0  0  0  0  0  0  0  0
   40.9120   31.3118   42.1060 H   0  0  0  0  0  0  0  0  0  0  0  0
  1  6  2  0
  2  3  2  0
  2  1  1  0
  3  4  1  0
  4  5  2  0
  5 13  1  0
  6  5  1  0
  7  2  1  0
  8  7  1  0
  9  8  1  0
 10 11  1  0
 10  9  1  0
 11 12  1  0
 12  7  1  0
 13 14  1  0
 13 16  1  0
 13 15  1  0
 17  3  1  0
 18 19  1  0
 19 20  2  0
 21 20  1  0
 22 21  2  0
 22 17  1  0
 23 22  1  0
 24 25  1  0
 24 23  2  0
 25 26  2  0
 26 18  1  0
 26 21  1  0
  1 27  1  0
  8 28  1  0
  8 29  1  0
  9 30  1  0
  9 31  1  0
 11 32  1  0
 11 33  1  0
 12 34  1  0
 12 35  1  0
 18 36  1  0
 19 37  1  0
 24 38  1  0
M  ISO  8  27  14  28  13  29  13  30  13  31  13  32  13  33  13  34  13
M  ISO  4  35  13  36   9  37  14  38  14
M  END
>  <minimizedAffinity>  (1) 
-5.24711418

>  <minimizedRMSD>  (1) 
0.951705575

$$$$
