
     RDKit          3D

 39 43  0  0  0  0  0  0  0  0999 V2000
   44.5910   26.4220   44.3650 C   0  0  0  0  0  0  0  0  0  0  0  0
   43.4270   26.4450   43.5770 C   0  0  0  0  0  0  0  0  0  0  0  0
   42.2440   26.9400   44.1320 C   0  0  0  0  0  0  0  0  0  0  0  0
   42.2850   27.3860   45.4450 N   0  0  0  0  0  0  0  0  0  0  0  0
   43.4250   27.3410   46.1470 C   0  0  0  0  0  0  0  0  0  0  0  0
   44.5700   26.8680   45.6290 N   0  0  0  0  0  0  0  0  0  0  0  0
   43.3850   25.9730   42.1950 C   0  0  0  0  0  0  0  0  0  0  0  0
   44.4230   26.1240   41.3150 C   0  0  0  0  0  0  0  0  0  0  0  0
   44.4210   25.6910   39.9970 C   0  0  0  0  0  0  0  0  0  0  0  0
   43.2820   25.0650   39.5580 N   0  0  0  0  0  0  0  0  0  0  0  0
   42.2570   24.9160   40.4260 C   0  0  0  0  0  0  0  0  0  0  0  0
   42.2990   25.3490   41.6950 N   0  0  0  0  0  0  0  0  0  0  0  0
   43.3880   27.8440   47.5650 C   0  0  0  0  0  0  0  0  0  0  0  0
   43.3620   29.2260   47.5930 F   0  0  0  0  0  0  0  0  0  0  0  0
   42.2100   27.4560   48.1950 F   0  0  0  0  0  0  0  0  0  0  0  0
   44.5030   27.4340   48.2890 F   0  0  0  0  0  0  0  0  0  0  0  0
   41.1250   26.9550   43.3610 O   0  0  0  0  0  0  0  0  0  0  0  0
   37.1250   29.0830   43.3500 N   0  0  0  0  0  0  0  0  0  0  0  0
   37.0060   27.8160   43.7650 C   0  0  0  0  0  0  0  0  0  0  0  0
   38.2470   27.2610   43.7360 N   0  0  0  0  0  0  0  0  0  0  0  0
   39.1510   28.1780   43.3000 C   0  0  0  0  0  0  0  0  0  0  0  0
   40.5210   28.1650   43.0810 C   0  0  0  0  0  0  0  0  0  0  0  0
   41.1220   29.2900   42.6300 N   0  0  0  0  0  0  0  0  0  0  0  0
   40.3770   30.3910   42.4070 C   0  0  0  0  0  0  0  0  0  0  0  0
   39.0440   30.4440   42.6080 N   0  0  0  0  0  0  0  0  0  0  0  0
   38.4040   29.3380   43.0600 C   0  0  0  0  0  0  0  0  0  0  0  0
   41.1360   31.5010   41.9350 N   0  0  0  0  0  0  0  0  0  0  0  0
   42.3340   31.7680   42.5280 C   0  0  0  0  0  0  0  0  0  0  0  0
   42.8510   32.8630   41.9030 N   0  0  0  0  0  0  0  0  0  0  0  0
   41.9760   33.2610   40.9350 C   0  0  0  0  0  0  0  0  0  0  0  0
   40.9240   32.4070   40.9710 N   0  0  0  0  0  0  0  0  0  0  0  0
   45.5285   26.0341   43.9401 H   0  0  0  0  0  0  0  0  0  0  0  0
   45.3294   26.6280   41.6817 H   0  0  0  0  0  0  0  0  0  0  0  0
   45.2884   25.8419   39.3376 H   0  0  0  0  0  0  0  0  0  0  0  0
   41.3430   24.4149   40.0746 H   0  0  0  0  0  0  0  0  0  0  0  0
   36.3505   29.7570   43.2671 H   0  0  0  0  0  0  0  0  0  0  0  0
   36.0758   27.3160   44.0728 H   0  0  0  0  0  0  0  0  0  0  0  0
   42.7955   31.2065   43.3537 H   0  0  0  0  0  0  0  0  0  0  0  0
   42.1008   34.1150   40.2530 H   0  0  0  0  0  0  0  0  0  0  0  0
  1  6  2  0
  2  3  2  0
  2  1  1  0
  3  4  1  0
  4  5  2  0
  5 13  1  0
  6  5  1  0
  7  2  1  0
  8  7  2  0
  9  8  1  0
 10  9  2  0
 10 11  1  0
 11 12  2  0
 12  7  1  0
 13 14  1  0
 13 15  1  0
 13 16  1  0
 17  3  1  0
 18 19  1  0
 20 19  2  0
 21 20  1  0
 22 21  2  0
 22 17  1  0
 23 22  1  0
 24 25  1  0
 24 23  2  0
 25 26  2  0
 26 21  1  0
 26 18  1  0
 27 24  1  0
 27 28  1  0
 29 28  2  0
 30 31  2  0
 30 29  1  0
 31 27  1  0
  1 32  1  0
  8 33  1  0
  9 34  1  0
 11 35  1  0
 18 36  1  0
 19 37  1  0
 28 38  1  0
 30 39  1  0
M  ISO  8  32  14  33  14  34  14  35  14  36   9  37  14  38  14  39  14
M  END
>  <minimizedAffinity>  (1) 
-6.34725428

>  <minimizedRMSD>  (1) 
0.0476261973

$$$$
