
     RDKit          3D

 41 45  0  0  0  0  0  0  0  0999 V2000
   44.6140   26.4910   44.3840 C   0  0  0  0  0  0  0  0  0  0  0  0
   43.4360   26.5020   43.6190 C   0  0  0  0  0  0  0  0  0  0  0  0
   42.2570   26.9500   44.1920 C   0  0  0  0  0  0  0  0  0  0  0  0
   42.2990   27.3690   45.5030 N   0  0  0  0  0  0  0  0  0  0  0  0
   43.4360   27.3480   46.2070 C   0  0  0  0  0  0  0  0  0  0  0  0
   44.5980   26.9110   45.6570 N   0  0  0  0  0  0  0  0  0  0  0  0
   43.3950   26.0550   42.2230 C   0  0  0  0  0  0  0  0  0  0  0  0
   44.3870   26.2930   41.3110 C   0  0  0  0  0  0  0  0  0  0  0  0
   44.3780   25.8880   39.9980 C   0  0  0  0  0  0  0  0  0  0  0  0
   43.2810   25.1900   39.5780 N   0  0  0  0  0  0  0  0  0  0  0  0
   42.3020   24.9510   40.4660 C   0  0  0  0  0  0  0  0  0  0  0  0
   42.3430   25.3610   41.7420 N   0  0  0  0  0  0  0  0  0  0  0  0
   43.4220   27.8120   47.6210 C   0  0  0  0  0  0  0  0  0  0  0  0
   43.3630   29.2010   47.6850 F   0  0  0  0  0  0  0  0  0  0  0  0
   42.2360   27.3990   48.2610 F   0  0  0  0  0  0  0  0  0  0  0  0
   44.5420   27.4240   48.3380 F   0  0  0  0  0  0  0  0  0  0  0  0
   41.1160   26.9560   43.4370 O   0  0  0  0  0  0  0  0  0  0  0  0
   37.1380   29.1020   43.3060 N   0  0  0  0  0  0  0  0  0  0  0  0
   37.0090   27.8380   43.7620 C   0  0  0  0  0  0  0  0  0  0  0  0
   38.2450   27.2870   43.7630 N   0  0  0  0  0  0  0  0  0  0  0  0
   39.1540   28.1750   43.3160 C   0  0  0  0  0  0  0  0  0  0  0  0
   40.5270   28.1570   43.1110 C   0  0  0  0  0  0  0  0  0  0  0  0
   41.1490   29.2750   42.6290 N   0  0  0  0  0  0  0  0  0  0  0  0
   40.4090   30.3600   42.3680 C   0  0  0  0  0  0  0  0  0  0  0  0
   39.0810   30.4340   42.5460 N   0  0  0  0  0  0  0  0  0  0  0  0
   38.4230   29.3360   43.0270 C   0  0  0  0  0  0  0  0  0  0  0  0
   41.0890   31.5460   41.8530 C   0  0  0  0  0  0  0  0  0  0  0  0
   42.3540   31.9120   42.2680 C   0  0  0  0  0  0  0  0  0  0  0  0
   43.0150   33.0100   41.8090 C   0  0  0  0  0  0  0  0  0  0  0  0
   42.4140   33.7970   40.8950 N   0  0  0  0  0  0  0  0  0  0  0  0
   41.1790   33.4570   40.4770 C   0  0  0  0  0  0  0  0  0  0  0  0
   40.5340   32.3660   40.9400 N   0  0  0  0  0  0  0  0  0  0  0  0
   45.5541   26.1361   43.9364 H   0  0  0  0  0  0  0  0  0  0  0  0
   45.2658   26.8561   41.6583 H   0  0  0  0  0  0  0  0  0  0  0  0
   45.2128   26.1145   39.3185 H   0  0  0  0  0  0  0  0  0  0  0  0
   41.4190   24.3886   40.1283 H   0  0  0  0  0  0  0  0  0  0  0  0
   36.3689   29.7775   43.1916 H   0  0  0  0  0  0  0  0  0  0  0  0
   36.0749   27.3480   44.0741 H   0  0  0  0  0  0  0  0  0  0  0  0
   42.8574   31.2790   43.0135 H   0  0  0  0  0  0  0  0  0  0  0  0
   44.0229   33.2508   42.1780 H   0  0  0  0  0  0  0  0  0  0  0  0
   40.6784   34.0919   39.7312 H   0  0  0  0  0  0  0  0  0  0  0  0
  1  6  2  0
  2  3  2  0
  2  1  1  0
  3  4  1  0
  4  5  2  0
  5 13  1  0
  6  5  1  0
  7  2  1  0
  8  7  2  0
  9  8  1  0
 10  9  2  0
 10 11  1  0
 11 12  2  0
 12  7  1  0
 13 14  1  0
 13 15  1  0
 13 16  1  0
 17  3  1  0
 18 19  1  0
 19 20  2  0
 21 20  1  0
 22 21  2  0
 22 17  1  0
 23 22  1  0
 24 25  1  0
 24 23  2  0
 25 26  2  0
 26 18  1  0
 26 21  1  0
 27 28  2  0
 27 24  1  0
 29 28  1  0
 30 29  2  0
 31 30  1  0
 31 32  2  0
 32 27  1  0
  1 33  1  0
  8 34  1  0
  9 35  1  0
 11 36  1  0
 18 37  1  0
 19 38  1  0
 28 39  1  0
 29 40  1  0
 31 41  1  0
M  ISO  8  33  14  34  14  35  14  36  14  37   9  38  14  39  14  40  14
M  ISO  1  41  14
M  END
>  <minimizedAffinity>  (1) 
-6.2528677

>  <minimizedRMSD>  (1) 
0.114825048

$$$$
