
     RDKit          3D

 40 44  0  0  0  0  0  0  0  0999 V2000
   44.6230   26.3980   44.4740 C   0  0  0  0  0  0  0  0  0  0  0  0
   43.4680   26.4520   43.6860 C   0  0  0  0  0  0  0  0  0  0  0  0
   42.3020   26.9570   44.2230 C   0  0  0  0  0  0  0  0  0  0  0  0
   42.3320   27.3930   45.5350 N   0  0  0  0  0  0  0  0  0  0  0  0
   43.4550   27.3260   46.2580 C   0  0  0  0  0  0  0  0  0  0  0  0
   44.6060   26.8300   45.7370 N   0  0  0  0  0  0  0  0  0  0  0  0
   43.4340   25.9930   42.3010 C   0  0  0  0  0  0  0  0  0  0  0  0
   44.4780   26.1500   41.4040 C   0  0  0  0  0  0  0  0  0  0  0  0
   44.4710   25.7260   40.0930 C   0  0  0  0  0  0  0  0  0  0  0  0
   43.3460   25.1040   39.6510 N   0  0  0  0  0  0  0  0  0  0  0  0
   42.3210   24.9420   40.5120 C   0  0  0  0  0  0  0  0  0  0  0  0
   42.3550   25.3650   41.7830 N   0  0  0  0  0  0  0  0  0  0  0  0
   43.4280   27.8110   47.6710 C   0  0  0  0  0  0  0  0  0  0  0  0
   43.3260   29.1980   47.7080 F   0  0  0  0  0  0  0  0  0  0  0  0
   42.2640   27.3590   48.3200 F   0  0  0  0  0  0  0  0  0  0  0  0
   44.5640   27.4620   48.3840 F   0  0  0  0  0  0  0  0  0  0  0  0
   41.1800   27.0080   43.4550 O   0  0  0  0  0  0  0  0  0  0  0  0
   37.2520   29.2440   43.1910 N   0  0  0  0  0  0  0  0  0  0  0  0
   37.0740   27.9840   43.6060 C   0  0  0  0  0  0  0  0  0  0  0  0
   38.2990   27.3990   43.6530 N   0  0  0  0  0  0  0  0  0  0  0  0
   39.2490   28.2740   43.2730 C   0  0  0  0  0  0  0  0  0  0  0  0
   40.6330   28.2290   43.1330 C   0  0  0  0  0  0  0  0  0  0  0  0
   41.2980   29.3450   42.7100 N   0  0  0  0  0  0  0  0  0  0  0  0
   40.5920   30.4580   42.4380 C   0  0  0  0  0  0  0  0  0  0  0  0
   39.2520   30.5540   42.5580 N   0  0  0  0  0  0  0  0  0  0  0  0
   38.5590   29.4620   42.9780 C   0  0  0  0  0  0  0  0  0  0  0  0
   41.3190   31.6430   41.9860 C   0  0  0  0  0  0  0  0  0  0  0  0
   41.1280   32.3700   40.8290 C   0  0  0  0  0  0  0  0  0  0  0  0
   41.9810   33.4010   40.7400 N   0  0  0  0  0  0  0  0  0  0  0  0
   42.7490   33.3480   41.8650 C   0  0  0  0  0  0  0  0  0  0  0  0
   42.3310   32.2880   42.5910 N   0  0  0  0  0  0  0  0  0  0  0  0
   45.5542   25.9956   44.0486 H   0  0  0  0  0  0  0  0  0  0  0  0
   45.3857   26.6538   41.7677 H   0  0  0  0  0  0  0  0  0  0  0  0
   45.3371   25.8838   39.4335 H   0  0  0  0  0  0  0  0  0  0  0  0
   41.4117   24.4375   40.1532 H   0  0  0  0  0  0  0  0  0  0  0  0
   36.5029   29.9379   43.0562 H   0  0  0  0  0  0  0  0  0  0  0  0
   36.1145   27.5105   43.8614 H   0  0  0  0  0  0  0  0  0  0  0  0
   40.3674   32.1325   40.0707 H   0  0  0  0  0  0  0  0  0  0  0  0
   43.5602   34.0411   42.1326 H   0  0  0  0  0  0  0  0  0  0  0  0
   42.7373   32.0090   43.4954 H   0  0  0  0  0  0  0  0  0  0  0  0
  1  6  2  0
  2  3  2  0
  2  1  1  0
  3  4  1  0
  4  5  2  0
  5 13  1  0
  6  5  1  0
  7  2  1  0
  8  7  2  0
  9  8  1  0
 10  9  2  0
 10 11  1  0
 11 12  2  0
 12  7  1  0
 13 14  1  0
 13 15  1  0
 13 16  1  0
 17  3  1  0
 18 19  1  0
 19 20  2  0
 21 20  1  0
 22 21  2  0
 22 17  1  0
 23 22  1  0
 24 25  1  0
 24 23  2  0
 25 26  2  0
 26 18  1  0
 26 21  1  0
 27 24  1  0
 27 31  1  0
 28 27  2  0
 29 28  1  0
 29 30  2  0
 30 31  1  0
  1 32  1  0
  8 33  1  0
  9 34  1  0
 11 35  1  0
 18 36  1  0
 19 37  1  0
 28 38  1  0
 30 39  1  0
 31 40  1  0
M  ISO  8  32  14  33  14  34  14  35  14  36   9  37  14  38  14  39  14
M  ISO  1  40   9
M  END
>  <minimizedAffinity>  (1) 
-6.21629477

>  <minimizedRMSD>  (1) 
0.185701221

$$$$
