
     RDKit          3D

 49 53  0  0  0  0  0  0  0  0999 V2000
   44.6000   26.4030   44.4140 C   0  0  0  0  0  0  0  0  0  0  0  0
   43.4410   26.4360   43.6260 C   0  0  0  0  0  0  0  0  0  0  0  0
   42.2600   26.9400   44.1800 C   0  0  0  0  0  0  0  0  0  0  0  0
   42.3010   27.3840   45.4890 N   0  0  0  0  0  0  0  0  0  0  0  0
   43.4310   27.3330   46.2030 C   0  0  0  0  0  0  0  0  0  0  0  0
   44.5830   26.8480   45.6820 N   0  0  0  0  0  0  0  0  0  0  0  0
   43.3940   25.9690   42.2480 C   0  0  0  0  0  0  0  0  0  0  0  0
   44.4390   26.1200   41.3530 C   0  0  0  0  0  0  0  0  0  0  0  0
   44.4310   25.6910   40.0420 C   0  0  0  0  0  0  0  0  0  0  0  0
   43.2950   25.0720   39.6060 N   0  0  0  0  0  0  0  0  0  0  0  0
   42.2710   24.9190   40.4650 C   0  0  0  0  0  0  0  0  0  0  0  0
   42.3210   25.3530   41.7380 N   0  0  0  0  0  0  0  0  0  0  0  0
   43.4050   27.8300   47.6160 C   0  0  0  0  0  0  0  0  0  0  0  0
   43.3630   29.2100   47.6460 F   0  0  0  0  0  0  0  0  0  0  0  0
   42.2220   27.4210   48.2470 F   0  0  0  0  0  0  0  0  0  0  0  0
   44.5250   27.4340   48.3320 F   0  0  0  0  0  0  0  0  0  0  0  0
   41.1390   26.9700   43.4120 O   0  0  0  0  0  0  0  0  0  0  0  0
   37.1570   29.1160   43.2830 N   0  0  0  0  0  0  0  0  0  0  0  0
   37.0270   27.8350   43.6960 C   0  0  0  0  0  0  0  0  0  0  0  0
   38.2600   27.2850   43.7000 N   0  0  0  0  0  0  0  0  0  0  0  0
   39.1860   28.1950   43.2960 C   0  0  0  0  0  0  0  0  0  0  0  0
   40.5580   28.1810   43.1160 C   0  0  0  0  0  0  0  0  0  0  0  0
   41.1820   29.3060   42.6870 N   0  0  0  0  0  0  0  0  0  0  0  0
   40.4480   30.4170   42.4420 C   0  0  0  0  0  0  0  0  0  0  0  0
   39.0960   30.4620   42.6090 N   0  0  0  0  0  0  0  0  0  0  0  0
   38.4530   29.3560   43.0360 C   0  0  0  0  0  0  0  0  0  0  0  0
   41.1530   31.6430   41.9700 C   0  0  0  0  0  0  0  0  0  0  0  0
   42.5920   31.7020   42.3510 C   0  0  0  0  0  0  0  0  0  0  0  0
   43.0560   33.1260   42.1150 C   0  0  0  0  0  0  0  0  0  0  0  0
   42.5370   33.7100   40.8400 C   0  0  0  0  0  0  0  0  0  0  0  0
   42.0130   32.6900   39.8580 C   0  0  0  0  0  0  0  0  0  0  0  0
   41.0000   31.7630   40.4710 C   0  0  0  0  0  0  0  0  0  0  0  0
   45.5347   26.0081   43.9893 H   0  0  0  0  0  0  0  0  0  0  0  0
   45.3480   26.6219   41.7160 H   0  0  0  0  0  0  0  0  0  0  0  0
   45.2971   25.8403   39.3806 H   0  0  0  0  0  0  0  0  0  0  0  0
   41.3565   24.4193   40.1129 H   0  0  0  0  0  0  0  0  0  0  0  0
   36.3890   29.7940   43.1760 H   0  0  0  0  0  0  0  0  0  0  0  0
   36.0892   27.3333   43.9770 H   0  0  0  0  0  0  0  0  0  0  0  0
   40.6782   32.4952   42.4782 H   0  0  0  0  0  0  0  0  0  0  0  0
   42.7130   31.4363   43.4115 H   0  0  0  0  0  0  0  0  0  0  0  0
   43.1849   30.9925   41.7551 H   0  0  0  0  0  0  0  0  0  0  0  0
   42.7096   33.7500   42.9520 H   0  0  0  0  0  0  0  0  0  0  0  0
   44.1534   33.1049   42.0425 H   0  0  0  0  0  0  0  0  0  0  0  0
   41.7191   34.4031   41.0863 H   0  0  0  0  0  0  0  0  0  0  0  0
   43.3876   34.2089   40.3526 H   0  0  0  0  0  0  0  0  0  0  0  0
   42.8583   32.0920   39.4867 H   0  0  0  0  0  0  0  0  0  0  0  0
   41.5141   33.2370   39.0444 H   0  0  0  0  0  0  0  0  0  0  0  0
   39.9928   32.1457   40.2493 H   0  0  0  0  0  0  0  0  0  0  0  0
   41.1589   30.7639   40.0392 H   0  0  0  0  0  0  0  0  0  0  0  0
  1  6  2  0
  2  3  2  0
  2  1  1  0
  3  4  1  0
  4  5  2  0
  5 13  1  0
  6  5  1  0
  7  2  1  0
  8  7  2  0
  9  8  1  0
 10  9  2  0
 10 11  1  0
 11 12  2  0
 12  7  1  0
 13 14  1  0
 13 15  1  0
 13 16  1  0
 17  3  1  0
 18 19  1  0
 19 20  2  0
 21 20  1  0
 22 21  2  0
 22 17  1  0
 23 22  1  0
 24 25  1  0
 24 23  2  0
 25 26  2  0
 26 18  1  0
 26 21  1  0
 27 28  1  0
 27 24  1  0
 29 28  1  0
 30 29  1  0
 31 32  1  0
 31 30  1  0
 32 27  1  0
  1 33  1  0
  8 34  1  0
  9 35  1  0
 11 36  1  0
 18 37  1  0
 19 38  1  0
 27 39  1  0
 28 40  1  0
 28 41  1  0
 29 42  1  0
 29 43  1  0
 30 44  1  0
 30 45  1  0
 31 46  1  0
 31 47  1  0
 32 48  1  0
 32 49  1  0
M  ISO  8  33  14  34  14  35  14  36  14  37   9  38  14  39  13  40  13
M  ISO  8  41  13  42  13  43  13  44  13  45  13  46  13  47  13  48  13
M  ISO  1  49  13
M  END
>  <minimizedAffinity>  (1) 
-6.16540384

>  <minimizedRMSD>  (1) 
0.15908739

$$$$
