
     RDKit          3D

 45 49  0  0  0  0  0  0  0  0999 V2000
   44.6630   26.6300   43.9360 C   0  0  0  0  0  0  0  0  0  0  0  0
   43.4350   26.6580   43.2410 C   0  0  0  0  0  0  0  0  0  0  0  0
   42.2670   26.9360   43.9500 C   0  0  0  0  0  0  0  0  0  0  0  0
   42.3640   27.1730   45.3080 N   0  0  0  0  0  0  0  0  0  0  0  0
   43.5650   27.1350   45.9230 C   0  0  0  0  0  0  0  0  0  0  0  0
   44.7090   26.8680   45.2510 N   0  0  0  0  0  0  0  0  0  0  0  0
   43.3310   26.4060   41.8080 C   0  0  0  0  0  0  0  0  0  0  0  0
   43.6750   27.3320   40.8480 C   0  0  0  0  0  0  0  0  0  0  0  0
   43.5860   27.1180   39.4850 C   0  0  0  0  0  0  0  0  0  0  0  0
   43.1190   25.8930   39.0760 N   0  0  0  0  0  0  0  0  0  0  0  0
   42.7850   24.9920   40.0150 C   0  0  0  0  0  0  0  0  0  0  0  0
   42.8810   25.2240   41.3330 N   0  0  0  0  0  0  0  0  0  0  0  0
   43.6030   27.4030   47.3980 C   0  0  0  0  0  0  0  0  0  0  0  0
   44.3990   28.5040   47.6740 F   0  0  0  0  0  0  0  0  0  0  0  0
   42.3290   27.7610   47.8650 F   0  0  0  0  0  0  0  0  0  0  0  0
   44.1140   26.3290   48.1160 F   0  0  0  0  0  0  0  0  0  0  0  0
   41.0960   26.9570   43.2680 O   0  0  0  0  0  0  0  0  0  0  0  0
   37.1200   29.1190   43.4260 N   0  0  0  0  0  0  0  0  0  0  0  0
   37.0110   27.8550   43.8640 C   0  0  0  0  0  0  0  0  0  0  0  0
   38.2390   27.2910   43.7810 N   0  0  0  0  0  0  0  0  0  0  0  0
   39.1360   28.1880   43.2920 C   0  0  0  0  0  0  0  0  0  0  0  0
   40.4860   28.1640   43.0050 C   0  0  0  0  0  0  0  0  0  0  0  0
   41.0730   29.2830   42.5110 N   0  0  0  0  0  0  0  0  0  0  0  0
   40.3270   30.3900   42.3110 C   0  0  0  0  0  0  0  0  0  0  0  0
   39.0130   30.4580   42.5750 N   0  0  0  0  0  0  0  0  0  0  0  0
   38.3860   29.3590   43.0720 C   0  0  0  0  0  0  0  0  0  0  0  0
   40.9760   31.5410   41.7930 N   0  0  0  0  0  0  0  0  0  0  0  0
   42.2470   32.1190   42.1860 C   0  0  0  0  0  0  0  0  0  0  0  0
   42.8010   32.8330   40.9680 C   0  0  0  0  0  0  0  0  0  0  0  0
   41.7760   32.5380   39.8910 C   0  0  0  0  0  0  0  0  0  0  0  0
   40.5130   32.4160   40.7330 C   0  0  0  0  0  0  0  0  0  0  0  0
   45.5923   26.4100   43.3901 H   0  0  0  0  0  0  0  0  0  0  0  0
   44.0463   28.3095   41.1895 H   0  0  0  0  0  0  0  0  0  0  0  0
   43.8761   27.8937   38.7610 H   0  0  0  0  0  0  0  0  0  0  0  0
   42.4126   24.0109   39.6853 H   0  0  0  0  0  0  0  0  0  0  0  0
   36.3478   29.7984   43.3712 H   0  0  0  0  0  0  0  0  0  0  0  0
   36.0931   27.3672   44.2240 H   0  0  0  0  0  0  0  0  0  0  0  0
   42.0993   32.8338   43.0090 H   0  0  0  0  0  0  0  0  0  0  0  0
   42.9417   31.3416   42.5368 H   0  0  0  0  0  0  0  0  0  0  0  0
   42.8815   33.9150   41.1489 H   0  0  0  0  0  0  0  0  0  0  0  0
   43.8143   32.4999   40.6991 H   0  0  0  0  0  0  0  0  0  0  0  0
   42.0024   31.6011   39.3610 H   0  0  0  0  0  0  0  0  0  0  0  0
   41.7221   33.2919   39.0917 H   0  0  0  0  0  0  0  0  0  0  0  0
   40.1922   33.3923   41.1253 H   0  0  0  0  0  0  0  0  0  0  0  0
   39.6351   32.0427   40.1854 H   0  0  0  0  0  0  0  0  0  0  0  0
  1  6  2  0
  2  1  1  0
  2  3  2  0
  3  4  1  0
  4  5  2  0
  5 13  1  0
  6  5  1  0
  7  2  1  0
  8  7  2  0
  9  8  1  0
 10  9  2  0
 10 11  1  0
 11 12  2  0
 12  7  1  0
 13 14  1  0
 13 15  1  0
 13 16  1  0
 17  3  1  0
 18 19  1  0
 20 19  2  0
 21 20  1  0
 22 17  1  0
 22 21  2  0
 23 22  1  0
 24 23  2  0
 24 25  1  0
 25 26  2  0
 26 21  1  0
 26 18  1  0
 27 28  1  0
 27 24  1  0
 29 28  1  0
 30 31  1  0
 30 29  1  0
 31 27  1  0
  1 32  1  0
  8 33  1  0
  9 34  1  0
 11 35  1  0
 18 36  1  0
 19 37  1  0
 28 38  1  0
 28 39  1  0
 29 40  1  0
 29 41  1  0
 30 42  1  0
 30 43  1  0
 31 44  1  0
 31 45  1  0
M  ISO  8  32  14  33  14  34  14  35  14  36   9  37  14  38  13  39  13
M  ISO  6  40  13  41  13  42  13  43  13  44  13  45  13
M  END
>  <minimizedAffinity>  (1) 
-6.11994648

>  <minimizedRMSD>  (1) 
0.634335876

$$$$
