
     RDKit          3D

 39 43  0  0  0  0  0  0  0  0999 V2000
   44.6000   26.4240   44.4000 C   0  0  0  0  0  0  0  0  0  0  0  0
   43.4430   26.4470   43.6070 C   0  0  0  0  0  0  0  0  0  0  0  0
   42.2610   26.9390   44.1600 C   0  0  0  0  0  0  0  0  0  0  0  0
   42.2960   27.3820   45.4770 N   0  0  0  0  0  0  0  0  0  0  0  0
   43.4310   27.3370   46.1890 C   0  0  0  0  0  0  0  0  0  0  0  0
   44.5810   26.8640   45.6660 N   0  0  0  0  0  0  0  0  0  0  0  0
   43.4070   25.9830   42.2240 C   0  0  0  0  0  0  0  0  0  0  0  0
   44.4490   26.1450   41.3420 C   0  0  0  0  0  0  0  0  0  0  0  0
   44.4400   25.7130   40.0250 C   0  0  0  0  0  0  0  0  0  0  0  0
   43.3090   25.0830   39.5870 N   0  0  0  0  0  0  0  0  0  0  0  0
   42.2860   24.9220   40.4520 C   0  0  0  0  0  0  0  0  0  0  0  0
   42.3190   25.3500   41.7240 N   0  0  0  0  0  0  0  0  0  0  0  0
   43.3970   27.8300   47.6010 C   0  0  0  0  0  0  0  0  0  0  0  0
   43.3610   29.2120   47.6330 F   0  0  0  0  0  0  0  0  0  0  0  0
   42.2060   27.4300   48.2290 F   0  0  0  0  0  0  0  0  0  0  0  0
   44.5070   27.4230   48.3240 F   0  0  0  0  0  0  0  0  0  0  0  0
   41.1360   26.9650   43.3960 O   0  0  0  0  0  0  0  0  0  0  0  0
   37.1490   29.1070   43.3080 N   0  0  0  0  0  0  0  0  0  0  0  0
   37.0210   27.8320   43.7310 C   0  0  0  0  0  0  0  0  0  0  0  0
   38.2630   27.2840   43.7210 N   0  0  0  0  0  0  0  0  0  0  0  0
   39.1830   28.1950   43.2960 C   0  0  0  0  0  0  0  0  0  0  0  0
   40.5480   28.1720   43.1010 C   0  0  0  0  0  0  0  0  0  0  0  0
   41.1560   29.2950   42.6550 N   0  0  0  0  0  0  0  0  0  0  0  0
   40.4230   30.3950   42.4140 C   0  0  0  0  0  0  0  0  0  0  0  0
   39.0840   30.4600   42.5930 N   0  0  0  0  0  0  0  0  0  0  0  0
   38.4380   29.3570   43.0380 C   0  0  0  0  0  0  0  0  0  0  0  0
   41.2060   31.5540   41.9310 C   0  0  0  0  0  0  0  0  0  0  0  0
   42.4500   31.7950   42.4670 C   0  0  0  0  0  0  0  0  0  0  0  0
   43.0180   33.3070   41.5690 S   0  0  0  0  0  0  0  0  0  0  0  0
   41.3760   33.3260   40.5890 C   0  0  0  0  0  0  0  0  0  0  0  0
   40.8540   32.4270   41.0120 N   0  0  0  0  0  0  0  0  0  0  0  0
   45.5387   26.0383   43.9757 H   0  0  0  0  0  0  0  0  0  0  0  0
   45.3536   26.6533   41.7072 H   0  0  0  0  0  0  0  0  0  0  0  0
   45.3039   25.8701   39.3624 H   0  0  0  0  0  0  0  0  0  0  0  0
   41.3777   24.4136   40.0964 H   0  0  0  0  0  0  0  0  0  0  0  0
   36.3775   29.7821   43.2083 H   0  0  0  0  0  0  0  0  0  0  0  0
   36.0874   27.3316   44.0276 H   0  0  0  0  0  0  0  0  0  0  0  0
   42.9797   31.2243   43.2440 H   0  0  0  0  0  0  0  0  0  0  0  0
   41.0341   34.0305   39.8164 H   0  0  0  0  0  0  0  0  0  0  0  0
  1  6  2  0
  2  3  2  0
  2  1  1  0
  3  4  1  0
  4  5  2  0
  5 13  1  0
  6  5  1  0
  7  2  1  0
  8  7  2  0
  9  8  1  0
 10  9  2  0
 10 11  1  0
 11 12  2  0
 12  7  1  0
 13 14  1  0
 13 15  1  0
 13 16  1  0
 17  3  1  0
 18 19  1  0
 20 19  2  0
 21 20  1  0
 22 21  2  0
 22 17  1  0
 23 22  1  0
 24 25  1  0
 24 23  2  0
 25 26  2  0
 26 21  1  0
 26 18  1  0
 27 24  1  0
 27 28  2  0
 29 28  1  0
 30 31  2  0
 30 29  1  0
 31 27  1  0
  1 32  1  0
  8 33  1  0
  9 34  1  0
 11 35  1  0
 18 36  1  0
 19 37  1  0
 28 38  1  0
 30 39  1  0
M  ISO  8  32  14  33  14  34  14  35  14  36   9  37  14  38  14  39  14
M  END
>  <minimizedAffinity>  (1) 
-6.06331205

>  <minimizedRMSD>  (1) 
0.0543192476

$$$$
