
     RDKit          3D

 38 42  0  0  0  0  0  0  0  0999 V2000
   44.5840   26.4140   44.3820 C   0  0  0  0  0  0  0  0  0  0  0  0
   43.4330   26.4340   43.5900 C   0  0  0  0  0  0  0  0  0  0  0  0
   42.2590   26.9310   44.1440 C   0  0  0  0  0  0  0  0  0  0  0  0
   42.2900   27.3850   45.4560 N   0  0  0  0  0  0  0  0  0  0  0  0
   43.4300   27.3420   46.1670 C   0  0  0  0  0  0  0  0  0  0  0  0
   44.5740   26.8620   45.6460 N   0  0  0  0  0  0  0  0  0  0  0  0
   43.3900   25.9610   42.2170 C   0  0  0  0  0  0  0  0  0  0  0  0
   44.4310   26.1030   41.3290 C   0  0  0  0  0  0  0  0  0  0  0  0
   44.4240   25.6650   40.0160 C   0  0  0  0  0  0  0  0  0  0  0  0
   43.2820   25.0430   39.5770 N   0  0  0  0  0  0  0  0  0  0  0  0
   42.2580   24.9030   40.4420 C   0  0  0  0  0  0  0  0  0  0  0  0
   42.3010   25.3410   41.7120 N   0  0  0  0  0  0  0  0  0  0  0  0
   43.4060   27.8400   47.5690 C   0  0  0  0  0  0  0  0  0  0  0  0
   43.3670   29.2180   47.6020 F   0  0  0  0  0  0  0  0  0  0  0  0
   42.2120   27.4510   48.2050 F   0  0  0  0  0  0  0  0  0  0  0  0
   44.5160   27.4430   48.3030 F   0  0  0  0  0  0  0  0  0  0  0  0
   41.1310   26.9520   43.3740 O   0  0  0  0  0  0  0  0  0  0  0  0
   37.1570   29.1280   43.3390 N   0  0  0  0  0  0  0  0  0  0  0  0
   37.0290   27.8550   43.7950 C   0  0  0  0  0  0  0  0  0  0  0  0
   38.2590   27.3020   43.7650 N   0  0  0  0  0  0  0  0  0  0  0  0
   39.1710   28.1880   43.3020 C   0  0  0  0  0  0  0  0  0  0  0  0
   40.5380   28.1570   43.0690 C   0  0  0  0  0  0  0  0  0  0  0  0
   41.1440   29.2600   42.5850 N   0  0  0  0  0  0  0  0  0  0  0  0
   40.4120   30.3650   42.3390 C   0  0  0  0  0  0  0  0  0  0  0  0
   39.0900   30.4450   42.5460 N   0  0  0  0  0  0  0  0  0  0  0  0
   38.4320   29.3460   43.0380 C   0  0  0  0  0  0  0  0  0  0  0  0
   41.0480   31.5690   41.8160 C   0  0  0  0  0  0  0  0  0  0  0  0
   40.7290   32.5210   40.9200 N   0  0  0  0  0  0  0  0  0  0  0  0
   41.6890   33.3910   40.8370 O   0  0  0  0  0  0  0  0  0  0  0  0
   42.6690   33.0610   41.6630 C   0  0  0  0  0  0  0  0  0  0  0  0
   42.2790   31.9170   42.2860 N   0  0  0  0  0  0  0  0  0  0  0  0
   45.5204   26.0215   43.9587 H   0  0  0  0  0  0  0  0  0  0  0  0
   45.3408   26.6042   41.6910 H   0  0  0  0  0  0  0  0  0  0  0  0
   45.2922   25.8086   39.3559 H   0  0  0  0  0  0  0  0  0  0  0  0
   41.3417   24.4057   40.0913 H   0  0  0  0  0  0  0  0  0  0  0  0
   36.3921   29.8110   43.2426 H   0  0  0  0  0  0  0  0  0  0  0  0
   36.0998   27.3680   44.1256 H   0  0  0  0  0  0  0  0  0  0  0  0
   43.6129   33.6049   41.8155 H   0  0  0  0  0  0  0  0  0  0  0  0
  1  6  2  0
  2  3  2  0
  2  1  1  0
  3  4  1  0
  4  5  2  0
  5 13  1  0
  6  5  1  0
  7  2  1  0
  8  7  2  0
  9  8  1  0
 10  9  2  0
 10 11  1  0
 11 12  2  0
 12  7  1  0
 13 14  1  0
 13 15  1  0
 13 16  1  0
 17  3  1  0
 18 19  1  0
 20 19  2  0
 21 20  1  0
 22 21  2  0
 22 17  1  0
 23 22  1  0
 24 25  1  0
 24 23  2  0
 25 26  2  0
 26 21  1  0
 26 18  1  0
 27 31  1  0
 27 24  1  0
 28 27  2  0
 29 28  1  0
 29 30  1  0
 30 31  2  0
  1 32  1  0
  8 33  1  0
  9 34  1  0
 11 35  1  0
 18 36  1  0
 19 37  1  0
 30 38  1  0
M  ISO  7  32  14  33  14  34  14  35  14  36   9  37  14  38  14
M  END
>  <minimizedAffinity>  (1) 
-6.06258488

>  <minimizedRMSD>  (1) 
0.083607547

$$$$
