
     RDKit          3D

 36 39  0  0  0  0  0  0  0  0999 V2000
   44.5760   26.4240   44.3910 C   0  0  0  0  0  0  0  0  0  0  0  0
   43.4250   26.4390   43.6020 C   0  0  0  0  0  0  0  0  0  0  0  0
   42.2440   26.9270   44.1580 C   0  0  0  0  0  0  0  0  0  0  0  0
   42.2790   27.3740   45.4650 N   0  0  0  0  0  0  0  0  0  0  0  0
   43.4170   27.3380   46.1840 C   0  0  0  0  0  0  0  0  0  0  0  0
   44.5630   26.8650   45.6480 N   0  0  0  0  0  0  0  0  0  0  0  0
   43.3820   25.9700   42.2220 C   0  0  0  0  0  0  0  0  0  0  0  0
   44.4280   26.1290   41.3330 C   0  0  0  0  0  0  0  0  0  0  0  0
   44.4110   25.6930   40.0200 C   0  0  0  0  0  0  0  0  0  0  0  0
   43.2850   25.0660   39.5830 N   0  0  0  0  0  0  0  0  0  0  0  0
   42.2640   24.9110   40.4510 C   0  0  0  0  0  0  0  0  0  0  0  0
   42.2950   25.3400   41.7250 N   0  0  0  0  0  0  0  0  0  0  0  0
   43.3930   27.8340   47.5940 C   0  0  0  0  0  0  0  0  0  0  0  0
   43.3590   29.2120   47.6260 F   0  0  0  0  0  0  0  0  0  0  0  0
   42.2050   27.4430   48.2220 F   0  0  0  0  0  0  0  0  0  0  0  0
   44.5050   27.4360   48.3200 F   0  0  0  0  0  0  0  0  0  0  0  0
   41.1160   26.9440   43.3910 O   0  0  0  0  0  0  0  0  0  0  0  0
   37.1320   29.0970   43.3460 N   0  0  0  0  0  0  0  0  0  0  0  0
   37.0120   27.8380   43.7890 C   0  0  0  0  0  0  0  0  0  0  0  0
   38.2480   27.2820   43.7650 N   0  0  0  0  0  0  0  0  0  0  0  0
   39.1610   28.1760   43.3100 C   0  0  0  0  0  0  0  0  0  0  0  0
   40.5250   28.1440   43.0890 C   0  0  0  0  0  0  0  0  0  0  0  0
   41.1360   29.2700   42.6070 N   0  0  0  0  0  0  0  0  0  0  0  0
   40.3920   30.3680   42.3660 C   0  0  0  0  0  0  0  0  0  0  0  0
   39.0670   30.4330   42.5700 N   0  0  0  0  0  0  0  0  0  0  0  0
   38.4150   29.3400   43.0470 C   0  0  0  0  0  0  0  0  0  0  0  0
   41.0920   31.5870   41.8380 C   0  0  0  0  0  0  0  0  0  0  0  0
   45.5147   26.0395   43.9656 H   0  0  0  0  0  0  0  0  0  0  0  0
   45.3351   26.6363   41.6934 H   0  0  0  0  0  0  0  0  0  0  0  0
   45.2739   25.8471   39.3554 H   0  0  0  0  0  0  0  0  0  0  0  0
   41.3541   24.4047   40.0963 H   0  0  0  0  0  0  0  0  0  0  0  0
   36.3595   29.7716   43.2505 H   0  0  0  0  0  0  0  0  0  0  0  0
   36.0825   27.3466   44.1123 H   0  0  0  0  0  0  0  0  0  0  0  0
   41.4445   32.2009   42.6799 H   0  0  0  0  0  0  0  0  0  0  0  0
   41.9510   31.2793   41.2236 H   0  0  0  0  0  0  0  0  0  0  0  0
   40.3933   32.1738   41.2236 H   0  0  0  0  0  0  0  0  0  0  0  0
  1  6  2  0
  2  3  2  0
  2  1  1  0
  3  4  1  0
  4  5  2  0
  5 13  1  0
  6  5  1  0
  7  2  1  0
  8  7  2  0
  9  8  1  0
 10  9  2  0
 10 11  1  0
 11 12  2  0
 12  7  1  0
 13 14  1  0
 13 15  1  0
 13 16  1  0
 17  3  1  0
 18 19  1  0
 20 19  2  0
 21 20  1  0
 22 21  2  0
 22 17  1  0
 23 22  1  0
 24 25  1  0
 24 23  2  0
 25 26  2  0
 26 21  1  0
 26 18  1  0
 27 24  1  0
  1 28  1  0
  8 29  1  0
  9 30  1  0
 11 31  1  0
 18 32  1  0
 19 33  1  0
 27 34  1  0
 27 35  1  0
 27 36  1  0
M  ISO  8  28  14  29  14  30  14  31  14  32   9  33  14  34   8  35   8
M  ISO  1  36   8
M  END
>  <minimizedAffinity>  (1) 
-5.64003181

>  <minimizedRMSD>  (1) 
0.0363674462

$$$$
