
     RDKit          3D

 34 37  0  0  0  0  0  0  0  0999 V2000
   44.5750   26.4230   44.3720 C   0  0  0  0  0  0  0  0  0  0  0  0
   43.4140   26.4350   43.5880 C   0  0  0  0  0  0  0  0  0  0  0  0
   42.2410   26.9210   44.1540 C   0  0  0  0  0  0  0  0  0  0  0  0
   42.2770   27.3670   45.4610 N   0  0  0  0  0  0  0  0  0  0  0  0
   43.4160   27.3340   46.1680 C   0  0  0  0  0  0  0  0  0  0  0  0
   44.5730   26.8610   45.6290 N   0  0  0  0  0  0  0  0  0  0  0  0
   43.3760   25.9640   42.2100 C   0  0  0  0  0  0  0  0  0  0  0  0
   44.4210   26.1090   41.3160 C   0  0  0  0  0  0  0  0  0  0  0  0
   44.4050   25.6720   40.0170 C   0  0  0  0  0  0  0  0  0  0  0  0
   43.2780   25.0510   39.5720 N   0  0  0  0  0  0  0  0  0  0  0  0
   42.2400   24.8980   40.4370 C   0  0  0  0  0  0  0  0  0  0  0  0
   42.2960   25.3410   41.7050 N   0  0  0  0  0  0  0  0  0  0  0  0
   43.3940   27.8280   47.5700 C   0  0  0  0  0  0  0  0  0  0  0  0
   43.3640   29.2180   47.5960 F   0  0  0  0  0  0  0  0  0  0  0  0
   42.2010   27.4550   48.2050 F   0  0  0  0  0  0  0  0  0  0  0  0
   44.5020   27.4320   48.3000 F   0  0  0  0  0  0  0  0  0  0  0  0
   41.1070   26.9300   43.3810 O   0  0  0  0  0  0  0  0  0  0  0  0
   37.1460   29.1240   43.3590 N   0  0  0  0  0  0  0  0  0  0  0  0
   37.0200   27.8610   43.8350 C   0  0  0  0  0  0  0  0  0  0  0  0
   38.2460   27.2920   43.8020 N   0  0  0  0  0  0  0  0  0  0  0  0
   39.1550   28.1720   43.3120 C   0  0  0  0  0  0  0  0  0  0  0  0
   40.5130   28.1250   43.0680 C   0  0  0  0  0  0  0  0  0  0  0  0
   41.1330   29.2290   42.5530 N   0  0  0  0  0  0  0  0  0  0  0  0
   40.3970   30.3310   42.3000 C   0  0  0  0  0  0  0  0  0  0  0  0
   39.0770   30.4220   42.5220 N   0  0  0  0  0  0  0  0  0  0  0  0
   38.4210   29.3340   43.0380 C   0  0  0  0  0  0  0  0  0  0  0  0
   41.3780   31.6700   41.6330 S   0  0  0  0  0  0  0  0  0  0  0  0
   45.5114   26.0422   43.9381 H   0  0  0  0  0  0  0  0  0  0  0  0
   45.3317   26.6118   41.6735 H   0  0  0  0  0  0  0  0  0  0  0  0
   45.2727   25.8180   39.3568 H   0  0  0  0  0  0  0  0  0  0  0  0
   41.3256   24.3959   40.0882 H   0  0  0  0  0  0  0  0  0  0  0  0
   36.3820   29.8079   43.2618 H   0  0  0  0  0  0  0  0  0  0  0  0
   36.0911   27.3863   44.1839 H   0  0  0  0  0  0  0  0  0  0  0  0
   41.9130   32.4003   42.6612 H   0  0  0  0  0  0  0  0  0  0  0  0
  1  6  2  0
  2  3  2  0
  2  1  1  0
  3  4  1  0
  4  5  2  0
  5 13  1  0
  6  5  1  0
  7  2  1  0
  8  7  2  0
  9  8  1  0
 10  9  2  0
 10 11  1  0
 11 12  2  0
 12  7  1  0
 13 14  1  0
 13 15  1  0
 13 16  1  0
 17  3  1  0
 18 19  1  0
 20 19  2  0
 21 20  1  0
 22 21  2  0
 22 17  1  0
 23 22  1  0
 24 25  1  0
 24 23  2  0
 25 26  2  0
 26 21  1  0
 26 18  1  0
 27 24  1  0
  1 28  1  0
  8 29  1  0
  9 30  1  0
 11 31  1  0
 18 32  1  0
 19 33  1  0
 27 34  1  0
M  ISO  7  28  14  29  14  30  14  31  14  32   9  33  14  34  11
M  END
>  <minimizedAffinity>  (1) 
-5.60678101

>  <minimizedRMSD>  (1) 
0.0757889003

$$$$
