
     RDKit          3D

 34 37  0  0  0  0  0  0  0  0999 V2000
   44.6890   26.6240   43.9850 C   0  0  0  0  0  0  0  0  0  0  0  0
   43.4810   26.6860   43.2650 C   0  0  0  0  0  0  0  0  0  0  0  0
   42.3120   26.9860   43.9480 C   0  0  0  0  0  0  0  0  0  0  0  0
   42.4000   27.2120   45.3130 N   0  0  0  0  0  0  0  0  0  0  0  0
   43.5730   27.1410   45.9500 C   0  0  0  0  0  0  0  0  0  0  0  0
   44.7190   26.8510   45.3030 N   0  0  0  0  0  0  0  0  0  0  0  0
   43.3990   26.4460   41.8300 C   0  0  0  0  0  0  0  0  0  0  0  0
   43.7090   27.3890   40.8690 C   0  0  0  0  0  0  0  0  0  0  0  0
   43.6400   27.1890   39.5140 C   0  0  0  0  0  0  0  0  0  0  0  0
   43.2310   25.9600   39.0920 N   0  0  0  0  0  0  0  0  0  0  0  0
   42.9200   25.0150   40.0170 C   0  0  0  0  0  0  0  0  0  0  0  0
   43.0000   25.2490   41.3400 N   0  0  0  0  0  0  0  0  0  0  0  0
   43.6010   27.3970   47.4310 C   0  0  0  0  0  0  0  0  0  0  0  0
   44.3900   28.4930   47.7230 F   0  0  0  0  0  0  0  0  0  0  0  0
   42.3260   27.7590   47.8760 F   0  0  0  0  0  0  0  0  0  0  0  0
   44.1020   26.3190   48.1460 F   0  0  0  0  0  0  0  0  0  0  0  0
   41.1470   27.0430   43.2470 O   0  0  0  0  0  0  0  0  0  0  0  0
   37.1210   29.1070   43.3150 N   0  0  0  0  0  0  0  0  0  0  0  0
   37.0120   27.8080   43.6160 C   0  0  0  0  0  0  0  0  0  0  0  0
   38.2600   27.2720   43.5720 N   0  0  0  0  0  0  0  0  0  0  0  0
   39.1670   28.2350   43.2410 C   0  0  0  0  0  0  0  0  0  0  0  0
   40.5380   28.2570   43.0570 C   0  0  0  0  0  0  0  0  0  0  0  0
   41.1300   29.4300   42.7210 N   0  0  0  0  0  0  0  0  0  0  0  0
   40.3790   30.5470   42.5730 C   0  0  0  0  0  0  0  0  0  0  0  0
   39.0470   30.5590   42.7430 N   0  0  0  0  0  0  0  0  0  0  0  0
   38.4000   29.4000   43.0830 C   0  0  0  0  0  0  0  0  0  0  0  0
   40.9910   31.7450   42.2280 O   0  0  0  0  0  0  0  0  0  0  0  0
   45.6231   26.3851   43.4555 H   0  0  0  0  0  0  0  0  0  0  0  0
   44.0373   28.3790   41.2185 H   0  0  0  0  0  0  0  0  0  0  0  0
   43.9028   27.9842   38.8009 H   0  0  0  0  0  0  0  0  0  0  0  0
   42.5911   24.0234   39.6726 H   0  0  0  0  0  0  0  0  0  0  0  0
   36.3389   29.7757   43.2697 H   0  0  0  0  0  0  0  0  0  0  0  0
   36.0819   27.2717   43.8554 H   0  0  0  0  0  0  0  0  0  0  0  0
   40.4473   32.5650   42.1183 H   0  0  0  0  0  0  0  0  0  0  0  0
  1  6  2  0
  2  3  2  0
  2  1  1  0
  3  4  1  0
  4  5  2  0
  5 13  1  0
  6  5  1  0
  7  2  1  0
  8  7  2  0
  9  8  1  0
 10  9  2  0
 10 11  1  0
 11 12  2  0
 12  7  1  0
 13 14  1  0
 13 15  1  0
 13 16  1  0
 17  3  1  0
 18 19  1  0
 20 19  2  0
 21 20  1  0
 22 21  2  0
 22 17  1  0
 23 22  1  0
 24 23  2  0
 24 25  1  0
 25 26  2  0
 26 21  1  0
 26 18  1  0
 27 24  1  0
  1 28  1  0
  8 29  1  0
  9 30  1  0
 11 31  1  0
 18 32  1  0
 19 33  1  0
 27 34  1  0
M  ISO  7  28  14  29  14  30  14  31  14  32   9  33  14  34   3
M  END
>  <minimizedAffinity>  (1) 
-5.59954357

>  <minimizedRMSD>  (1) 
0.687111378

$$$$
