
     RDKit          3D

 37 40  0  0  0  0  0  0  0  0999 V2000
   38.8280   27.9100   40.3100 C   0  0  0  0  0  0  0  0  0  0  0  0
   40.1720   27.8380   40.7390 C   0  0  0  0  0  0  0  0  0  0  0  0
   41.1060   28.8390   40.5840 C   0  0  0  0  0  0  0  0  0  0  0  0
   40.7090   30.0010   39.9660 C   0  0  0  0  0  0  0  0  0  0  0  0
   39.4210   30.1520   39.5190 C   0  0  0  0  0  0  0  0  0  0  0  0
   39.0310   31.3170   38.9240 C   0  0  0  0  0  0  0  0  0  0  0  0
   37.7400   31.5240   38.4800 C   0  0  0  0  0  0  0  0  0  0  0  0
   36.8710   30.4590   38.6840 C   0  0  0  0  0  0  0  0  0  0  0  0
   37.2870   29.3070   39.2800 C   0  0  0  0  0  0  0  0  0  0  0  0
   38.5600   29.1040   39.7170 C   0  0  0  0  0  0  0  0  0  0  0  0
   39.9550   32.3710   38.7380 N   0  0  0  0  0  0  0  0  0  0  0  0
   40.7550   32.2990   37.6290 C   0  0  0  0  0  0  0  0  0  0  0  0
   41.7110   33.2510   37.3050 C   0  0  0  0  0  0  0  0  0  0  0  0
   41.8320   34.3300   38.1870 C   0  0  0  0  0  0  0  0  0  0  0  0
   42.7960   35.3360   37.9050 N   0  0  0  0  0  0  0  0  0  0  0  0
   41.0340   34.3970   39.2880 N   0  0  0  0  0  0  0  0  0  0  0  0
   40.1250   33.4380   39.5450 C   0  0  0  0  0  0  0  0  0  0  0  0
   39.3660   33.4580   40.5500 O   0  0  0  0  0  0  0  0  0  0  0  0
   38.0220   26.7660   40.5620 C   0  0  0  0  0  0  0  0  0  0  0  0
   37.4280   25.8720   39.6590 C   0  0  0  0  0  0  0  0  0  0  0  0
   36.6950   24.7640   40.0820 C   0  0  0  0  0  0  0  0  0  0  0  0
   36.5920   24.6020   41.4320 N   0  0  0  0  0  0  0  0  0  0  0  0
   37.1460   25.4370   42.3040 C   0  0  0  0  0  0  0  0  0  0  0  0
   37.8420   26.4910   41.8640 N   0  0  0  0  0  0  0  0  0  0  0  0
   40.4979   26.9117   41.2348 H   0  0  0  0  0  0  0  0  0  0  0  0
   42.1378   28.7122   40.9437 H   0  0  0  0  0  0  0  0  0  0  0  0
   41.4320   30.8185   39.8285 H   0  0  0  0  0  0  0  0  0  0  0  0
   37.4231   32.4619   38.0006 H   0  0  0  0  0  0  0  0  0  0  0  0
   35.8245   30.5482   38.3571 H   0  0  0  0  0  0  0  0  0  0  0  0
   36.5549   28.4973   39.4154 H   0  0  0  0  0  0  0  0  0  0  0  0
   40.6328   31.4371   36.9565 H   0  0  0  0  0  0  0  0  0  0  0  0
   42.3381   33.1623   36.4056 H   0  0  0  0  0  0  0  0  0  0  0  0
   42.9027   36.1396   38.5404 H   0  0  0  0  0  0  0  0  0  0  0  0
   43.3878   35.2613   37.0653 H   0  0  0  0  0  0  0  0  0  0  0  0
   37.5445   26.0513   38.5800 H   0  0  0  0  0  0  0  0  0  0  0  0
   36.2293   24.0649   39.3718 H   0  0  0  0  0  0  0  0  0  0  0  0
   37.0328   25.2622   43.3841 H   0  0  0  0  0  0  0  0  0  0  0  0
  1 19  1  0
  1  2  2  0
  3  2  1  0
  4  3  2  0
  5 10  2  0
  5  4  1  0
  6  5  1  0
  7  8  1  0
  7  6  2  0
  8  9  2  0
  9 10  1  0
 10  1  1  0
 11  6  1  0
 11 17  1  0
 12 11  1  0
 13 12  2  0
 13 14  1  0
 14 16  2  0
 15 14  1  0
 16 17  1  0
 17 18  2  0
 19 24  2  0
 20 21  2  0
 20 19  1  0
 21 22  1  0
 22 23  2  0
 24 23  1  0
  2 25  1  0
  3 26  1  0
  4 27  1  0
  7 28  1  0
  8 29  1  0
  9 30  1  0
 12 31  1  0
 13 32  1  0
 15 33  1  0
 15 34  1  0
 20 35  1  0
 21 36  1  0
 23 37  1  0
M  ISO  8  25  14  26  14  27  14  28  14  29  14  30  14  31  14  32  14
M  ISO  3  35  14  36  14  37  14
M  END
>  <minimizedAffinity>  (1) 
-5.68133926

>  <minimizedRMSD>  (1) 
8.64077854

$$$$
