
     RDKit          3D

 33 36  0  0  0  0  0  0  0  0999 V2000
   37.1180   28.3260   40.8270 C   0  0  0  0  0  0  0  0  0  0  0  0
   35.9070   29.0530   40.8370 C   0  0  0  0  0  0  0  0  0  0  0  0
   35.8200   30.4250   40.6530 C   0  0  0  0  0  0  0  0  0  0  0  0
   36.9890   31.1300   40.4450 C   0  0  0  0  0  0  0  0  0  0  0  0
   38.2040   30.4760   40.4270 C   0  0  0  0  0  0  0  0  0  0  0  0
   39.3230   31.2120   40.1880 C   0  0  0  0  0  0  0  0  0  0  0  0
   40.5860   30.5750   40.1150 C   0  0  0  0  0  0  0  0  0  0  0  0
   40.5800   29.1950   40.3050 C   0  0  0  0  0  0  0  0  0  0  0  0
   39.4140   28.5290   40.5440 C   0  0  0  0  0  0  0  0  0  0  0  0
   38.1910   29.1300   40.6140 C   0  0  0  0  0  0  0  0  0  0  0  0
   37.0030   26.9200   41.0360 C   0  0  0  0  0  0  0  0  0  0  0  0
   37.1540   26.1720   42.2130 C   0  0  0  0  0  0  0  0  0  0  0  0
   36.9690   24.7920   42.2610 C   0  0  0  0  0  0  0  0  0  0  0  0
   36.6280   24.2070   41.0780 N   0  0  0  0  0  0  0  0  0  0  0  0
   36.4810   24.8950   39.9510 C   0  0  0  0  0  0  0  0  0  0  0  0
   36.6660   26.2200   39.9390 N   0  0  0  0  0  0  0  0  0  0  0  0
   39.4630   32.6390   40.1320 C   0  0  0  0  0  0  0  0  0  0  0  0
   38.7910   33.6010   40.8100 C   0  0  0  0  0  0  0  0  0  0  0  0
   39.0300   34.9150   40.7770 C   0  0  0  0  0  0  0  0  0  0  0  0
   40.1740   35.2140   39.8660 C   0  0  0  0  0  0  0  0  0  0  0  0
   40.7040   33.5180   39.2140 S   0  0  0  0  0  0  0  0  0  0  0  0
   34.9731   28.4954   41.0012 H   0  0  0  0  0  0  0  0  0  0  0  0
   34.8468   30.9373   40.6722 H   0  0  0  0  0  0  0  0  0  0  0  0
   36.9515   32.2188   40.2928 H   0  0  0  0  0  0  0  0  0  0  0  0
   41.5129   31.1346   39.9206 H   0  0  0  0  0  0  0  0  0  0  0  0
   41.5264   28.6361   40.2618 H   0  0  0  0  0  0  0  0  0  0  0  0
   39.4626   27.4397   40.6893 H   0  0  0  0  0  0  0  0  0  0  0  0
   37.4306   26.6981   43.1386 H   0  0  0  0  0  0  0  0  0  0  0  0
   37.0898   24.2144   43.1894 H   0  0  0  0  0  0  0  0  0  0  0  0
   36.2058   24.3725   39.0229 H   0  0  0  0  0  0  0  0  0  0  0  0
   37.9642   33.2656   41.4533 H   0  0  0  0  0  0  0  0  0  0  0  0
   38.4635   35.6702   41.3416 H   0  0  0  0  0  0  0  0  0  0  0  0
   40.6095   36.1957   39.6280 H   0  0  0  0  0  0  0  0  0  0  0  0
  1  2  2  0
  1 11  1  0
  3  2  1  0
  4  3  2  0
  5  4  1  0
  5 10  2  0
  6  5  1  0
  7  6  2  0
  7  8  1  0
  8  9  2  0
  9 10  1  0
 10  1  1  0
 11 12  2  0
 12 13  1  0
 14 13  2  0
 15 14  1  0
 16 15  2  0
 16 11  1  0
 17  6  1  0
 17 18  2  0
 19 18  1  0
 20 19  2  0
 21 20  1  0
 21 17  1  0
  2 22  1  0
  3 23  1  0
  4 24  1  0
  7 25  1  0
  8 26  1  0
  9 27  1  0
 12 28  1  0
 13 29  1  0
 15 30  1  0
 18 31  1  0
 19 32  1  0
 20 33  1  0
M  ISO  8  22  14  23  14  24  14  25  14  26  14  27  14  28  14  29  14
M  ISO  4  30  14  31  14  32  14  33  14
M  END
>  <minimizedAffinity>  (1) 
-5.52441359

>  <minimizedRMSD>  (1) 
7.33539629

$$$$
