
     RDKit          3D

 34 37  0  0  0  0  0  0  0  0999 V2000
   39.5760   31.6800   41.0320 C   0  0  0  0  0  0  0  0  0  0  0  0
   40.4170   31.3090   42.1030 C   0  0  0  0  0  0  0  0  0  0  0  0
   40.4710   30.0370   42.6490 C   0  0  0  0  0  0  0  0  0  0  0  0
   39.6510   29.0680   42.1170 C   0  0  0  0  0  0  0  0  0  0  0  0
   38.8070   29.3630   41.0760 C   0  0  0  0  0  0  0  0  0  0  0  0
   38.0320   28.3670   40.5590 C   0  0  0  0  0  0  0  0  0  0  0  0
   37.1810   28.6170   39.4610 C   0  0  0  0  0  0  0  0  0  0  0  0
   37.1950   29.9300   38.9660 C   0  0  0  0  0  0  0  0  0  0  0  0
   37.9940   30.8780   39.5360 C   0  0  0  0  0  0  0  0  0  0  0  0
   38.8230   30.6370   40.6030 C   0  0  0  0  0  0  0  0  0  0  0  0
   39.6730   33.0400   40.6080 C   0  0  0  0  0  0  0  0  0  0  0  0
   38.7540   34.0860   40.7130 C   0  0  0  0  0  0  0  0  0  0  0  0
   39.0170   35.3780   40.2810 C   0  0  0  0  0  0  0  0  0  0  0  0
   40.2430   35.5710   39.7390 N   0  0  0  0  0  0  0  0  0  0  0  0
   41.1450   34.6020   39.6210 C   0  0  0  0  0  0  0  0  0  0  0  0
   40.8480   33.3760   40.0500 N   0  0  0  0  0  0  0  0  0  0  0  0
   37.9330   26.9980   40.9800 C   0  0  0  0  0  0  0  0  0  0  0  0
   37.1140   26.4490   41.9370 C   0  0  0  0  0  0  0  0  0  0  0  0
   36.9980   25.1170   42.2550 C   0  0  0  0  0  0  0  0  0  0  0  0
   37.7700   24.2310   41.5540 N   0  0  0  0  0  0  0  0  0  0  0  0
   38.5990   24.7380   40.5910 C   0  0  0  0  0  0  0  0  0  0  0  0
   38.6590   26.0470   40.3360 N   0  0  0  0  0  0  0  0  0  0  0  0
   41.0728   32.0807   42.5324 H   0  0  0  0  0  0  0  0  0  0  0  0
   41.1497   29.8080   43.4838 H   0  0  0  0  0  0  0  0  0  0  0  0
   39.6724   28.0486   42.5297 H   0  0  0  0  0  0  0  0  0  0  0  0
   36.5473   27.8327   39.0214 H   0  0  0  0  0  0  0  0  0  0  0  0
   36.5564   30.1973   38.1112 H   0  0  0  0  0  0  0  0  0  0  0  0
   37.9724   31.8944   39.1159 H   0  0  0  0  0  0  0  0  0  0  0  0
   37.7717   33.8750   41.1609 H   0  0  0  0  0  0  0  0  0  0  0  0
   38.2803   36.1898   40.3725 H   0  0  0  0  0  0  0  0  0  0  0  0
   42.1279   34.8103   39.1732 H   0  0  0  0  0  0  0  0  0  0  0  0
   36.4858   27.1484   42.5081 H   0  0  0  0  0  0  0  0  0  0  0  0
   36.3106   24.7760   43.0432 H   0  0  0  0  0  0  0  0  0  0  0  0
   39.2322   24.0495   40.0121 H   0  0  0  0  0  0  0  0  0  0  0  0
  1  2  2  0
  2  3  1  0
  4  3  2  0
  5  4  1  0
  6 17  1  0
  6  5  2  0
  7  6  1  0
  8  7  2  0
  8  9  1  0
  9 10  2  0
 10  1  1  0
 10  5  1  0
 11 12  2  0
 11  1  1  0
 13 12  1  0
 14 13  2  0
 15 14  1  0
 15 16  2  0
 16 11  1  0
 17 18  2  0
 18 19  1  0
 20 19  2  0
 21 20  1  0
 22 21  2  0
 22 17  1  0
  2 23  1  0
  3 24  1  0
  4 25  1  0
  7 26  1  0
  8 27  1  0
  9 28  1  0
 12 29  1  0
 13 30  1  0
 15 31  1  0
 18 32  1  0
 19 33  1  0
 21 34  1  0
M  ISO  8  23  14  24  14  25  14  26  14  27  14  28  14  29  14  30  14
M  ISO  4  31  14  32  14  33  14  34  14
M  END
>  <minimizedAffinity>  (1) 
-5.45232439

>  <minimizedRMSD>  (1) 
4.27857351

$$$$
