
     RDKit          3D

 29 31  0  0  0  0  0  0  0  0999 V2000
   37.6360   29.3600   41.5490 C   0  0  0  0  0  0  0  0  0  0  0  0
   37.4780   29.1970   42.9370 C   0  0  0  0  0  0  0  0  0  0  0  0
   37.2680   27.9780   43.5610 C   0  0  0  0  0  0  0  0  0  0  0  0
   37.2050   26.8460   42.7870 C   0  0  0  0  0  0  0  0  0  0  0  0
   37.3500   26.9280   41.4290 C   0  0  0  0  0  0  0  0  0  0  0  0
   37.2980   25.8090   40.6310 C   0  0  0  0  0  0  0  0  0  0  0  0
   37.4450   25.8420   39.2590 C   0  0  0  0  0  0  0  0  0  0  0  0
   37.6510   27.1040   38.7370 C   0  0  0  0  0  0  0  0  0  0  0  0
   37.7000   28.2080   39.5360 C   0  0  0  0  0  0  0  0  0  0  0  0
   37.5560   28.1760   40.8870 C   0  0  0  0  0  0  0  0  0  0  0  0
   37.8450   30.6960   41.0970 C   0  0  0  0  0  0  0  0  0  0  0  0
   36.9930   31.5610   40.4000 C   0  0  0  0  0  0  0  0  0  0  0  0
   37.3390   32.8620   40.0620 C   0  0  0  0  0  0  0  0  0  0  0  0
   38.5750   33.2560   40.4560 N   0  0  0  0  0  0  0  0  0  0  0  0
   39.4080   32.4620   41.1170 C   0  0  0  0  0  0  0  0  0  0  0  0
   39.0380   31.2210   41.4210 N   0  0  0  0  0  0  0  0  0  0  0  0
   37.0840   24.4860   41.1670 C   0  0  0  0  0  0  0  0  0  0  0  0
   36.0490   23.7860   41.0390 O   0  0  0  0  0  0  0  0  0  0  0  0
   37.7100   23.5340   41.9020 O   0  0  0  0  0  0  0  0  0  0  0  0
   37.5242   30.0964   43.5686 H   0  0  0  0  0  0  0  0  0  0  0  0
   37.1542   27.9185   44.6535 H   0  0  0  0  0  0  0  0  0  0  0  0
   37.0370   25.8678   43.2611 H   0  0  0  0  0  0  0  0  0  0  0  0
   37.4017   24.9383   38.6333 H   0  0  0  0  0  0  0  0  0  0  0  0
   37.7786   27.2214   37.6507 H   0  0  0  0  0  0  0  0  0  0  0  0
   37.8663   29.1845   39.0576 H   0  0  0  0  0  0  0  0  0  0  0  0
   35.9998   31.1911   40.1055 H   0  0  0  0  0  0  0  0  0  0  0  0
   36.6573   33.5276   39.5123 H   0  0  0  0  0  0  0  0  0  0  0  0
   40.4018   32.8292   41.4127 H   0  0  0  0  0  0  0  0  0  0  0  0
   37.2492   22.6811   42.1029 H   0  0  0  0  0  0  0  0  0  0  0  0
  1  2  2  0
  2  3  1  0
  4  3  2  0
  5  4  1  0
  6 17  1  0
  6  5  2  0
  7  6  1  0
  8  7  2  0
  8  9  1  0
  9 10  2  0
 10  5  1  0
 10  1  1  0
 11 16  1  0
 11  1  1  0
 12 11  2  0
 13 12  1  0
 13 14  2  0
 14 15  1  0
 15 16  2  0
 17 19  1  0
 18 17  2  0
  2 20  1  0
  3 21  1  0
  4 22  1  0
  7 23  1  0
  8 24  1  0
  9 25  1  0
 12 26  1  0
 13 27  1  0
 15 28  1  0
 19 29  1  0
M  ISO  8  20  14  21  14  22  14  23  14  24  14  25  14  26  14  27  14
M  ISO  2  28  14  29   3
M  END
>  <minimizedAffinity>  (1) 
-5.4003067

>  <minimizedRMSD>  (1) 
2.14650559

$$$$
