
     RDKit          3D

 26 27  0  0  0  0  0  0  0  0999 V2000
   37.5640   30.4170   41.1970 C   0  0  0  0  0  0  0  0  0  0  0  0
   38.5050   29.7710   42.0640 C   0  0  0  0  0  0  0  0  0  0  0  0
   39.6120   30.5350   42.3850 C   0  0  0  0  0  0  0  0  0  0  0  0
   39.7690   31.7930   41.9050 N   0  0  0  0  0  0  0  0  0  0  0  0
   38.8570   32.3520   41.0950 C   0  0  0  0  0  0  0  0  0  0  0  0
   37.7660   31.6630   40.7490 N   0  0  0  0  0  0  0  0  0  0  0  0
   38.2580   28.4440   42.5220 N   0  0  0  0  0  0  0  0  0  0  0  0
   37.1900   28.0850   43.3760 C   0  0  0  0  0  0  0  0  0  0  0  0
   36.9300   28.9500   44.3480 N   0  0  0  0  0  0  0  0  0  0  0  0
   36.5460   26.8340   43.0570 N   0  0  0  0  0  0  0  0  0  0  0  0
   36.1920   28.7540   45.0260 H   0  0  0  0  0  0  0  0  0  0  0  0
   39.1910   33.7190   40.6710 C   0  0  0  0  0  0  0  0  0  0  0  0
   38.3320   34.7230   40.2620 C   0  0  0  0  0  0  0  0  0  0  0  0
   39.0890   35.8590   39.9530 C   0  0  0  0  0  0  0  0  0  0  0  0
   40.3900   35.4460   40.2050 C   0  0  0  0  0  0  0  0  0  0  0  0
   40.4100   34.2120   40.6160 O   0  0  0  0  0  0  0  0  0  0  0  0
   41.4870   36.3370   40.0070 N   0  0  0  0  0  0  0  0  0  0  0  0
   36.6552   29.8772   40.8926 H   0  0  0  0  0  0  0  0  0  0  0  0
   40.3833   30.1120   43.0454 H   0  0  0  0  0  0  0  0  0  0  0  0
   38.8982   27.6994   42.2111 H   0  0  0  0  0  0  0  0  0  0  0  0
   35.7585   26.4993   43.6303 H   0  0  0  0  0  0  0  0  0  0  0  0
   36.8738   26.2756   42.2560 H   0  0  0  0  0  0  0  0  0  0  0  0
   37.2372   34.6422   40.1914 H   0  0  0  0  0  0  0  0  0  0  0  0
   38.7386   36.8392   39.5975 H   0  0  0  0  0  0  0  0  0  0  0  0
   42.4485   36.0203   40.1970 H   0  0  0  0  0  0  0  0  0  0  0  0
   41.3173   37.2968   39.6740 H   0  0  0  0  0  0  0  0  0  0  0  0
  1  2  2  0
  2  3  1  0
  2  7  1  0
  4  3  2  0
  5  4  1  0
  6  5  2  0
  6  1  1  0
  7  8  1  0
  8  9  2  0
  9 11  1  0
 10  8  1  0
 12  5  1  0
 13 12  2  0
 14 15  2  0
 14 13  1  0
 15 16  1  0
 16 12  1  0
 17 15  1  0
  1 18  1  0
  3 19  1  0
  7 20  1  0
 10 21  1  0
 10 22  1  0
 13 23  1  0
 14 24  1  0
 17 25  1  0
 17 26  1  0
M  ISO  4  18  14  19  14  23  14  24  14
M  END
>  <minimizedAffinity>  (1) 
-5.30769587

>  <minimizedRMSD>  (1) 
0.209578574

$$$$
