
     RDKit          3D

 33 36  0  0  0  0  0  0  0  0999 V2000
   38.1000   29.2840   41.1920 C   0  0  0  0  0  0  0  0  0  0  0  0
   38.6480   30.5730   41.3670 C   0  0  0  0  0  0  0  0  0  0  0  0
   39.7850   30.8440   42.1080 C   0  0  0  0  0  0  0  0  0  0  0  0
   40.4310   29.7830   42.7210 C   0  0  0  0  0  0  0  0  0  0  0  0
   39.9510   28.5030   42.5910 C   0  0  0  0  0  0  0  0  0  0  0  0
   40.6030   27.4680   43.2030 C   0  0  0  0  0  0  0  0  0  0  0  0
   40.1370   26.1480   43.0920 C   0  0  0  0  0  0  0  0  0  0  0  0
   38.9960   25.9860   42.3310 C   0  0  0  0  0  0  0  0  0  0  0  0
   38.3810   27.0460   41.7380 C   0  0  0  0  0  0  0  0  0  0  0  0
   38.8210   28.3290   41.8380 C   0  0  0  0  0  0  0  0  0  0  0  0
   36.9210   29.2130   40.3920 C   0  0  0  0  0  0  0  0  0  0  0  0
   35.5730   29.1390   40.7740 C   0  0  0  0  0  0  0  0  0  0  0  0
   34.5280   29.1160   39.8530 C   0  0  0  0  0  0  0  0  0  0  0  0
   34.8930   29.1690   38.5490 N   0  0  0  0  0  0  0  0  0  0  0  0
   36.1600   29.2390   38.1570 C   0  0  0  0  0  0  0  0  0  0  0  0
   37.1390   29.2590   39.0660 N   0  0  0  0  0  0  0  0  0  0  0  0
   41.8270   27.6670   44.0160 C   0  0  0  0  0  0  0  0  0  0  0  0
   42.1250   26.8810   45.1330 C   0  0  0  0  0  0  0  0  0  0  0  0
   43.3020   27.2540   45.7130 C   0  0  0  0  0  0  0  0  0  0  0  0
   43.6790   28.2860   44.8930 C   0  0  0  0  0  0  0  0  0  0  0  0
   42.8250   28.4910   43.9490 O   0  0  0  0  0  0  0  0  0  0  0  0
   38.1374   31.4182   40.8822 H   0  0  0  0  0  0  0  0  0  0  0  0
   40.1645   31.8717   42.2073 H   0  0  0  0  0  0  0  0  0  0  0  0
   41.3367   29.9675   43.3173 H   0  0  0  0  0  0  0  0  0  0  0  0
   40.6454   25.3019   43.5774 H   0  0  0  0  0  0  0  0  0  0  0  0
   38.5748   24.9782   42.2011 H   0  0  0  0  0  0  0  0  0  0  0  0
   37.4757   26.8536   41.1435 H   0  0  0  0  0  0  0  0  0  0  0  0
   35.3310   29.0974   41.8462 H   0  0  0  0  0  0  0  0  0  0  0  0
   33.4745   29.0585   40.1642 H   0  0  0  0  0  0  0  0  0  0  0  0
   36.4031   29.2805   37.0850 H   0  0  0  0  0  0  0  0  0  0  0  0
   41.4884   26.0621   45.4993 H   0  0  0  0  0  0  0  0  0  0  0  0
   43.8096   26.8401   46.5967 H   0  0  0  0  0  0  0  0  0  0  0  0
   44.6015   28.8704   45.0249 H   0  0  0  0  0  0  0  0  0  0  0  0
  1  2  2  0
  1 10  1  0
  2  3  1  0
  3  4  2  0
  5  4  1  0
  5  6  2  0
  6 17  1  0
  7  6  1  0
  8  7  2  0
  9 10  2  0
  9  8  1  0
 10  5  1  0
 11 12  2  0
 11  1  1  0
 13 12  1  0
 14 13  2  0
 15 14  1  0
 15 16  2  0
 16 11  1  0
 17 18  2  0
 18 19  1  0
 20 19  2  0
 21 17  1  0
 21 20  1  0
  2 22  1  0
  3 23  1  0
  4 24  1  0
  7 25  1  0
  8 26  1  0
  9 27  1  0
 12 28  1  0
 13 29  1  0
 15 30  1  0
 18 31  1  0
 19 32  1  0
 20 33  1  0
M  ISO  8  22  14  23  14  24  14  25  14  26  14  27  14  28  14  29  14
M  ISO  4  30  14  31  14  32  14  33  14
M  END
>  <minimizedAffinity>  (1) 
-5.00805187

>  <minimizedRMSD>  (1) 
4.51371717

$$$$
