
     RDKit          3D

 32 35  0  0  0  0  0  0  0  0999 V2000
   37.2470   27.8820   41.3200 C   0  0  0  0  0  0  0  0  0  0  0  0
   36.6950   27.8140   42.6190 C   0  0  0  0  0  0  0  0  0  0  0  0
   37.4340   27.6990   43.7750 C   0  0  0  0  0  0  0  0  0  0  0  0
   38.8040   27.6440   43.6730 C   0  0  0  0  0  0  0  0  0  0  0  0
   39.4190   27.7050   42.4310 C   0  0  0  0  0  0  0  0  0  0  0  0
   40.7810   27.6610   42.3450 C   0  0  0  0  0  0  0  0  0  0  0  0
   41.4320   27.7320   41.1290 C   0  0  0  0  0  0  0  0  0  0  0  0
   40.6080   27.8500   40.0160 C   0  0  0  0  0  0  0  0  0  0  0  0
   39.2450   27.8900   40.1460 C   0  0  0  0  0  0  0  0  0  0  0  0
   38.6100   27.8190   41.3450 C   0  0  0  0  0  0  0  0  0  0  0  0
   36.3120   27.9970   40.2490 C   0  0  0  0  0  0  0  0  0  0  0  0
   36.1910   27.2480   39.0700 C   0  0  0  0  0  0  0  0  0  0  0  0
   35.1950   27.4660   38.1270 C   0  0  0  0  0  0  0  0  0  0  0  0
   34.3340   28.4600   38.4170 N   0  0  0  0  0  0  0  0  0  0  0  0
   34.4180   29.1960   39.5300 C   0  0  0  0  0  0  0  0  0  0  0  0
   35.3890   28.9580   40.4160 N   0  0  0  0  0  0  0  0  0  0  0  0
   41.6240   27.5390   43.4860 N   0  0  0  0  0  0  0  0  0  0  0  0
   42.5080   28.4820   43.8690 C   0  0  0  0  0  0  0  0  0  0  0  0
   43.1680   28.0910   44.9880 N   0  0  0  0  0  0  0  0  0  0  0  0
   42.6740   26.8790   45.2940 C   0  0  0  0  0  0  0  0  0  0  0  0
   41.7440   26.5560   44.3820 N   0  0  0  0  0  0  0  0  0  0  0  0
   35.5998   27.8558   42.7131 H   0  0  0  0  0  0  0  0  0  0  0  0
   36.9401   27.6522   44.7568 H   0  0  0  0  0  0  0  0  0  0  0  0
   39.4164   27.5510   44.5820 H   0  0  0  0  0  0  0  0  0  0  0  0
   42.5284   27.6975   41.0470 H   0  0  0  0  0  0  0  0  0  0  0  0
   41.0579   27.9123   39.0141 H   0  0  0  0  0  0  0  0  0  0  0  0
   38.6350   27.9842   39.2355 H   0  0  0  0  0  0  0  0  0  0  0  0
   36.9217   26.4474   38.8825 H   0  0  0  0  0  0  0  0  0  0  0  0
   35.1150   26.8682   37.2071 H   0  0  0  0  0  0  0  0  0  0  0  0
   33.6877   29.9973   39.7161 H   0  0  0  0  0  0  0  0  0  0  0  0
   42.6715   29.4362   43.3467 H   0  0  0  0  0  0  0  0  0  0  0  0
   42.9803   26.2569   46.1479 H   0  0  0  0  0  0  0  0  0  0  0  0
  1 10  1  0
  1  2  2  0
  2  3  1  0
  4  3  2  0
  5  4  1  0
  6  5  2  0
  6 17  1  0
  7  6  1  0
  8  9  1  0
  8  7  2  0
  9 10  2  0
 10  5  1  0
 11 16  1  0
 11  1  1  0
 12 11  2  0
 13 14  2  0
 13 12  1  0
 14 15  1  0
 15 16  2  0
 17 18  1  0
 17 21  1  0
 18 19  2  0
 19 20  1  0
 21 20  2  0
  2 22  1  0
  3 23  1  0
  4 24  1  0
  7 25  1  0
  8 26  1  0
  9 27  1  0
 12 28  1  0
 13 29  1  0
 15 30  1  0
 18 31  1  0
 20 32  1  0
M  ISO  8  22  14  23  14  24  14  25  14  26  14  27  14  28  14  29  14
M  ISO  3  30  14  31  14  32  14
M  END
>  <minimizedAffinity>  (1) 
-4.99866819

>  <minimizedRMSD>  (1) 
4.4740715

$$$$
