
     RDKit          3D

 42 46  0  0  0  0  0  0  0  0999 V2000
   39.7170   32.4620   40.9360 C   0  0  0  0  0  0  0  0  0  0  0  0
   40.8340   31.9010   41.5930 C   0  0  0  0  0  0  0  0  0  0  0  0
   40.8600   30.6110   42.1090 C   0  0  0  0  0  0  0  0  0  0  0  0
   39.7230   29.8270   41.9700 C   0  0  0  0  0  0  0  0  0  0  0  0
   38.6230   30.3260   41.3430 C   0  0  0  0  0  0  0  0  0  0  0  0
   37.5410   29.5220   41.2300 C   0  0  0  0  0  0  0  0  0  0  0  0
   36.3680   29.9800   40.5820 C   0  0  0  0  0  0  0  0  0  0  0  0
   36.4190   31.2980   40.0840 C   0  0  0  0  0  0  0  0  0  0  0  0
   37.5510   32.0460   40.2410 C   0  0  0  0  0  0  0  0  0  0  0  0
   38.6800   31.5940   40.8680 C   0  0  0  0  0  0  0  0  0  0  0  0
   37.3440   28.1700   41.6900 C   0  0  0  0  0  0  0  0  0  0  0  0
   36.7980   27.7270   42.8760 C   0  0  0  0  0  0  0  0  0  0  0  0
   36.6140   26.4120   43.2270 C   0  0  0  0  0  0  0  0  0  0  0  0
   36.9830   25.4170   42.3680 C   0  0  0  0  0  0  0  0  0  0  0  0
   37.5240   25.8600   41.1920 C   0  0  0  0  0  0  0  0  0  0  0  0
   37.6980   27.1580   40.8640 N   0  0  0  0  0  0  0  0  0  0  0  0
   37.9500   24.9080   40.2090 N   0  0  0  0  0  0  0  0  0  0  0  0
   39.0640   24.1310   40.2680 C   0  0  0  0  0  0  0  0  0  0  0  0
   39.1730   23.3250   39.1530 C   0  0  0  0  0  0  0  0  0  0  0  0
   38.0900   23.6400   38.4210 N   0  0  0  0  0  0  0  0  0  0  0  0
   37.3700   24.5750   39.0470 C   0  0  0  0  0  0  0  0  0  0  0  0
   39.8860   33.8000   40.4880 C   0  0  0  0  0  0  0  0  0  0  0  0
   39.0740   34.9340   40.6820 C   0  0  0  0  0  0  0  0  0  0  0  0
   39.4080   36.1880   40.1860 C   0  0  0  0  0  0  0  0  0  0  0  0
   40.5790   36.2670   39.4930 N   0  0  0  0  0  0  0  0  0  0  0  0
   41.3540   35.2180   39.3000 C   0  0  0  0  0  0  0  0  0  0  0  0
   41.0180   34.0180   39.7830 N   0  0  0  0  0  0  0  0  0  0  0  0
   41.7359   32.5211   41.7027 H   0  0  0  0  0  0  0  0  0  0  0  0
   41.7567   30.2220   42.6136 H   0  0  0  0  0  0  0  0  0  0  0  0
   39.7111   28.8012   42.3671 H   0  0  0  0  0  0  0  0  0  0  0  0
   35.4743   29.3479   40.4741 H   0  0  0  0  0  0  0  0  0  0  0  0
   35.5460   31.7245   39.5683 H   0  0  0  0  0  0  0  0  0  0  0  0
   37.5552   33.0705   39.8404 H   0  0  0  0  0  0  0  0  0  0  0  0
   36.4833   28.4910   43.6021 H   0  0  0  0  0  0  0  0  0  0  0  0
   36.1690   26.1602   44.2010 H   0  0  0  0  0  0  0  0  0  0  0  0
   36.8561   24.3496   42.6016 H   0  0  0  0  0  0  0  0  0  0  0  0
   39.7859   24.1432   41.0979 H   0  0  0  0  0  0  0  0  0  0  0  0
   39.9618   22.5952   38.9180 H   0  0  0  0  0  0  0  0  0  0  0  0
   36.4349   25.0096   38.6639 H   0  0  0  0  0  0  0  0  0  0  0  0
   38.1379   34.8225   41.2489 H   0  0  0  0  0  0  0  0  0  0  0  0
   38.7647   37.0663   40.3434 H   0  0  0  0  0  0  0  0  0  0  0  0
   42.2901   35.3320   38.7336 H   0  0  0  0  0  0  0  0  0  0  0  0
  1  2  2  0
  2  3  1  0
  4  3  2  0
  5  4  1  0
  6  5  2  0
  6 11  1  0
  7  6  1  0
  8  9  1  0
  8  7  2  0
  9 10  2  0
 10  1  1  0
 10  5  1  0
 11 12  2  0
 12 13  1  0
 14 13  2  0
 15 14  1  0
 16 15  2  0
 16 11  1  0
 17 18  1  0
 17 15  1  0
 19 18  2  0
 20 21  2  0
 20 19  1  0
 21 17  1  0
 22 23  2  0
 22  1  1  0
 24 23  1  0
 25 24  2  0
 26 25  1  0
 26 27  2  0
 27 22  1  0
  2 28  1  0
  3 29  1  0
  4 30  1  0
  7 31  1  0
  8 32  1  0
  9 33  1  0
 12 34  1  0
 13 35  1  0
 14 36  1  0
 18 37  1  0
 19 38  1  0
 21 39  1  0
 23 40  1  0
 24 41  1  0
 26 42  1  0
M  ISO  8  28  14  29  14  30  14  31  14  32  14  33  14  34  14  35  14
M  ISO  7  36  14  37  14  38  14  39  14  40  14  41  14  42  14
M  END
>  <minimizedAffinity>  (1) 
-6.84906816

>  <minimizedRMSD>  (1) 
1.44597042

$$$$
