
     RDKit          3D

 43 47  0  0  0  0  0  0  0  0999 V2000
   39.7140   32.4240   40.9610 C   0  0  0  0  0  0  0  0  0  0  0  0
   40.8180   31.8720   41.6390 C   0  0  0  0  0  0  0  0  0  0  0  0
   40.8330   30.5910   42.1800 C   0  0  0  0  0  0  0  0  0  0  0  0
   39.6910   29.8110   42.0430 C   0  0  0  0  0  0  0  0  0  0  0  0
   38.6020   30.3000   41.3980 C   0  0  0  0  0  0  0  0  0  0  0  0
   37.5160   29.5050   41.2830 C   0  0  0  0  0  0  0  0  0  0  0  0
   36.3490   29.9580   40.6130 C   0  0  0  0  0  0  0  0  0  0  0  0
   36.4200   31.2640   40.0970 C   0  0  0  0  0  0  0  0  0  0  0  0
   37.5540   32.0100   40.2510 C   0  0  0  0  0  0  0  0  0  0  0  0
   38.6700   31.5620   40.8980 C   0  0  0  0  0  0  0  0  0  0  0  0
   39.8950   33.7560   40.4930 C   0  0  0  0  0  0  0  0  0  0  0  0
   39.0900   34.8980   40.6860 C   0  0  0  0  0  0  0  0  0  0  0  0
   39.4430   36.1460   40.1640 C   0  0  0  0  0  0  0  0  0  0  0  0
   40.5980   36.1980   39.4630 N   0  0  0  0  0  0  0  0  0  0  0  0
   41.3670   35.1420   39.2700 C   0  0  0  0  0  0  0  0  0  0  0  0
   41.0210   33.9540   39.7720 N   0  0  0  0  0  0  0  0  0  0  0  0
   37.3030   28.1600   41.7630 C   0  0  0  0  0  0  0  0  0  0  0  0
   36.7490   27.7450   42.9560 C   0  0  0  0  0  0  0  0  0  0  0  0
   36.5560   26.4310   43.3100 C   0  0  0  0  0  0  0  0  0  0  0  0
   36.9200   25.4120   42.4650 C   0  0  0  0  0  0  0  0  0  0  0  0
   37.4670   25.8460   41.2920 C   0  0  0  0  0  0  0  0  0  0  0  0
   37.6540   27.1230   40.9510 N   0  0  0  0  0  0  0  0  0  0  0  0
   37.8950   24.8380   40.3120 C   0  0  0  0  0  0  0  0  0  0  0  0
   38.1260   23.5190   40.6420 C   0  0  0  0  0  0  0  0  0  0  0  0
   38.5300   22.5810   39.7020 C   0  0  0  0  0  0  0  0  0  0  0  0
   38.7070   22.9520   38.4210 N   0  0  0  0  0  0  0  0  0  0  0  0
   38.4780   24.2430   38.1130 C   0  0  0  0  0  0  0  0  0  0  0  0
   38.0800   25.1970   39.0070 N   0  0  0  0  0  0  0  0  0  0  0  0
   41.7214   32.4903   41.7470 H   0  0  0  0  0  0  0  0  0  0  0  0
   41.7223   30.2066   42.7009 H   0  0  0  0  0  0  0  0  0  0  0  0
   39.6698   28.7930   42.4592 H   0  0  0  0  0  0  0  0  0  0  0  0
   35.4518   29.3308   40.5051 H   0  0  0  0  0  0  0  0  0  0  0  0
   35.5557   31.6884   39.5652 H   0  0  0  0  0  0  0  0  0  0  0  0
   37.5690   33.0266   39.8311 H   0  0  0  0  0  0  0  0  0  0  0  0
   38.1584   34.8041   41.2634 H   0  0  0  0  0  0  0  0  0  0  0  0
   38.8155   37.0367   40.3153 H   0  0  0  0  0  0  0  0  0  0  0  0
   42.2979   35.2415   38.6924 H   0  0  0  0  0  0  0  0  0  0  0  0
   36.4403   28.5192   43.6738 H   0  0  0  0  0  0  0  0  0  0  0  0
   36.1036   26.1925   44.2839 H   0  0  0  0  0  0  0  0  0  0  0  0
   36.7840   24.3482   42.7096 H   0  0  0  0  0  0  0  0  0  0  0  0
   37.9854   23.1996   41.6852 H   0  0  0  0  0  0  0  0  0  0  0  0
   38.7049   21.5377   40.0035 H   0  0  0  0  0  0  0  0  0  0  0  0
   38.6216   24.5516   37.0670 H   0  0  0  0  0  0  0  0  0  0  0  0
  1  2  2  0
  2  3  1  0
  4  3  2  0
  5  4  1  0
  6  5  2  0
  6 17  1  0
  7  6  1  0
  8  9  1  0
  8  7  2  0
  9 10  2  0
 10  1  1  0
 10  5  1  0
 11 12  2  0
 11  1  1  0
 13 12  1  0
 14 13  2  0
 15 14  1  0
 15 16  2  0
 16 11  1  0
 17 18  2  0
 18 19  1  0
 20 19  2  0
 21 20  1  0
 22 21  2  0
 22 17  1  0
 23 24  2  0
 23 21  1  0
 25 24  1  0
 26 25  2  0
 27 26  1  0
 27 28  2  0
 28 23  1  0
  2 29  1  0
  3 30  1  0
  4 31  1  0
  7 32  1  0
  8 33  1  0
  9 34  1  0
 12 35  1  0
 13 36  1  0
 15 37  1  0
 18 38  1  0
 19 39  1  0
 20 40  1  0
 24 41  1  0
 25 42  1  0
 27 43  1  0
M  ISO  8  29  14  30  14  31  14  32  14  33  14  34  14  35  14  36  14
M  ISO  7  37  14  38  14  39  14  40  14  41  14  42  14  43  14
M  END
>  <minimizedAffinity>  (1) 
-6.68498421

>  <minimizedRMSD>  (1) 
1.5432421

$$$$
