
     RDKit          3D

 43 47  0  0  0  0  0  0  0  0999 V2000
   39.7120   32.4360   40.9560 C   0  0  0  0  0  0  0  0  0  0  0  0
   40.8180   31.8710   41.6330 C   0  0  0  0  0  0  0  0  0  0  0  0
   40.8220   30.5930   42.1660 C   0  0  0  0  0  0  0  0  0  0  0  0
   39.6750   29.8190   42.0290 C   0  0  0  0  0  0  0  0  0  0  0  0
   38.5890   30.3200   41.3870 C   0  0  0  0  0  0  0  0  0  0  0  0
   37.4970   29.5270   41.2730 C   0  0  0  0  0  0  0  0  0  0  0  0
   36.3310   29.9880   40.6060 C   0  0  0  0  0  0  0  0  0  0  0  0
   36.4070   31.2950   40.0920 C   0  0  0  0  0  0  0  0  0  0  0  0
   37.5440   32.0350   40.2470 C   0  0  0  0  0  0  0  0  0  0  0  0
   38.6690   31.5770   40.8960 C   0  0  0  0  0  0  0  0  0  0  0  0
   39.8980   33.7670   40.4910 C   0  0  0  0  0  0  0  0  0  0  0  0
   39.0970   34.9160   40.6880 C   0  0  0  0  0  0  0  0  0  0  0  0
   39.4540   36.1600   40.1660 C   0  0  0  0  0  0  0  0  0  0  0  0
   40.6170   36.2090   39.4560 N   0  0  0  0  0  0  0  0  0  0  0  0
   41.3740   35.1460   39.2640 C   0  0  0  0  0  0  0  0  0  0  0  0
   41.0230   33.9600   39.7670 N   0  0  0  0  0  0  0  0  0  0  0  0
   37.2770   28.1830   41.7550 C   0  0  0  0  0  0  0  0  0  0  0  0
   36.7730   27.7790   42.9750 C   0  0  0  0  0  0  0  0  0  0  0  0
   36.5710   26.4690   43.3520 C   0  0  0  0  0  0  0  0  0  0  0  0
   36.8780   25.4470   42.4870 C   0  0  0  0  0  0  0  0  0  0  0  0
   37.3750   25.8680   41.2870 C   0  0  0  0  0  0  0  0  0  0  0  0
   37.5610   27.1500   40.9480 N   0  0  0  0  0  0  0  0  0  0  0  0
   37.7420   24.8690   40.2800 C   0  0  0  0  0  0  0  0  0  0  0  0
   36.8480   24.2040   39.4700 C   0  0  0  0  0  0  0  0  0  0  0  0
   37.2120   23.2720   38.5320 C   0  0  0  0  0  0  0  0  0  0  0  0
   38.5000   22.9640   38.3670 N   0  0  0  0  0  0  0  0  0  0  0  0
   39.4020   23.5930   39.1410 C   0  0  0  0  0  0  0  0  0  0  0  0
   39.0340   24.5060   40.0570 N   0  0  0  0  0  0  0  0  0  0  0  0
   41.7265   32.4815   41.7423 H   0  0  0  0  0  0  0  0  0  0  0  0
   41.7093   30.2004   42.6842 H   0  0  0  0  0  0  0  0  0  0  0  0
   39.6476   28.7996   42.4413 H   0  0  0  0  0  0  0  0  0  0  0  0
   35.4303   29.3656   40.4987 H   0  0  0  0  0  0  0  0  0  0  0  0
   35.5443   31.7241   39.5613 H   0  0  0  0  0  0  0  0  0  0  0  0
   37.5624   33.0530   39.8306 H   0  0  0  0  0  0  0  0  0  0  0  0
   38.1670   34.8265   41.2687 H   0  0  0  0  0  0  0  0  0  0  0  0
   38.8305   37.0532   40.3191 H   0  0  0  0  0  0  0  0  0  0  0  0
   42.3039   35.2375   38.6836 H   0  0  0  0  0  0  0  0  0  0  0  0
   36.5127   28.5626   43.7018 H   0  0  0  0  0  0  0  0  0  0  0  0
   36.1630   26.2412   44.3478 H   0  0  0  0  0  0  0  0  0  0  0  0
   36.7363   24.3855   42.7383 H   0  0  0  0  0  0  0  0  0  0  0  0
   35.7782   24.4342   39.5822 H   0  0  0  0  0  0  0  0  0  0  0  0
   36.4442   22.7796   37.9172 H   0  0  0  0  0  0  0  0  0  0  0  0
   40.4691   23.3543   39.0216 H   0  0  0  0  0  0  0  0  0  0  0  0
  1  2  2  0
  2  3  1  0
  4  3  2  0
  5  4  1  0
  6  5  2  0
  6 17  1  0
  7  6  1  0
  8  9  1  0
  8  7  2  0
  9 10  2  0
 10  1  1  0
 10  5  1  0
 11 12  2  0
 11  1  1  0
 13 12  1  0
 14 13  2  0
 15 14  1  0
 15 16  2  0
 16 11  1  0
 17 18  2  0
 18 19  1  0
 20 19  2  0
 21 20  1  0
 22 21  2  0
 22 17  1  0
 23 21  1  0
 24 23  2  0
 25 24  1  0
 26 25  2  0
 26 27  1  0
 27 28  2  0
 28 23  1  0
  2 29  1  0
  3 30  1  0
  4 31  1  0
  7 32  1  0
  8 33  1  0
  9 34  1  0
 12 35  1  0
 13 36  1  0
 15 37  1  0
 18 38  1  0
 19 39  1  0
 20 40  1  0
 24 41  1  0
 25 42  1  0
 27 43  1  0
M  ISO  8  29  14  30  14  31  14  32  14  33  14  34  14  35  14  36  14
M  ISO  7  37  14  38  14  39  14  40  14  41  14  42  14  43  14
M  END
>  <minimizedAffinity>  (1) 
-6.64849329

>  <minimizedRMSD>  (1) 
1.61205959

$$$$
