
     RDKit          3D

 44 47  0  0  0  0  0  0  0  0999 V2000
   39.8810   32.7120   40.9000 C   0  0  0  0  0  0  0  0  0  0  0  0
   41.0030   32.0980   41.5030 C   0  0  0  0  0  0  0  0  0  0  0  0
   40.9850   30.8180   42.0350 C   0  0  0  0  0  0  0  0  0  0  0  0
   39.8000   30.0950   41.9730 C   0  0  0  0  0  0  0  0  0  0  0  0
   38.6950   30.6470   41.4000 C   0  0  0  0  0  0  0  0  0  0  0  0
   37.5680   29.9010   41.3610 C   0  0  0  0  0  0  0  0  0  0  0  0
   36.3810   30.4180   40.7720 C   0  0  0  0  0  0  0  0  0  0  0  0
   36.4810   31.7200   40.2540 C   0  0  0  0  0  0  0  0  0  0  0  0
   37.6590   32.4070   40.3350 C   0  0  0  0  0  0  0  0  0  0  0  0
   38.7930   31.9020   40.9030 C   0  0  0  0  0  0  0  0  0  0  0  0
   40.0950   34.0350   40.4230 C   0  0  0  0  0  0  0  0  0  0  0  0
   39.4020   35.2330   40.7230 C   0  0  0  0  0  0  0  0  0  0  0  0
   39.7750   36.4570   40.1680 C   0  0  0  0  0  0  0  0  0  0  0  0
   40.8420   36.4360   39.3190 N   0  0  0  0  0  0  0  0  0  0  0  0
   41.4960   35.3280   39.0290 C   0  0  0  0  0  0  0  0  0  0  0  0
   41.1330   34.1600   39.5670 N   0  0  0  0  0  0  0  0  0  0  0  0
   37.3190   28.5680   41.8570 C   0  0  0  0  0  0  0  0  0  0  0  0
   36.9990   28.1800   43.1430 C   0  0  0  0  0  0  0  0  0  0  0  0
   36.7390   26.8960   43.5420 C   0  0  0  0  0  0  0  0  0  0  0  0
   36.7850   25.8680   42.6310 C   0  0  0  0  0  0  0  0  0  0  0  0
   37.1070   26.2690   41.3500 C   0  0  0  0  0  0  0  0  0  0  0  0
   37.3580   27.5350   40.9850 N   0  0  0  0  0  0  0  0  0  0  0  0
   37.1790   25.2080   40.2990 C   0  0  0  0  0  0  0  0  0  0  0  0
   36.5000   25.8040   39.0690 C   0  0  0  0  0  0  0  0  0  0  0  0
   36.4470   23.9450   40.7230 C   0  0  0  0  0  0  0  0  0  0  0  0
   41.9426   32.6679   41.5527 H   0  0  0  0  0  0  0  0  0  0  0  0
   41.8860   30.3856   42.4946 H   0  0  0  0  0  0  0  0  0  0  0  0
   39.7546   29.0768   42.3868 H   0  0  0  0  0  0  0  0  0  0  0  0
   35.4478   29.8376   40.7253 H   0  0  0  0  0  0  0  0  0  0  0  0
   35.6058   32.1889   39.7805 H   0  0  0  0  0  0  0  0  0  0  0  0
   37.6959   33.4246   39.9190 H   0  0  0  0  0  0  0  0  0  0  0  0
   38.5459   35.1972   41.4128 H   0  0  0  0  0  0  0  0  0  0  0  0
   39.2381   37.3880   40.4022 H   0  0  0  0  0  0  0  0  0  0  0  0
   42.3498   35.3658   38.3365 H   0  0  0  0  0  0  0  0  0  0  0  0
   36.9488   28.9669   43.9100 H   0  0  0  0  0  0  0  0  0  0  0  0
   36.4929   26.6871   44.5936 H   0  0  0  0  0  0  0  0  0  0  0  0
   36.5834   24.8202   42.8985 H   0  0  0  0  0  0  0  0  0  0  0  0
   38.2236   24.9194   40.1105 H   0  0  0  0  0  0  0  0  0  0  0  0
   35.7087   26.4986   39.3874 H   0  0  0  0  0  0  0  0  0  0  0  0
   37.2434   26.3465   38.4665 H   0  0  0  0  0  0  0  0  0  0  0  0
   36.0585   24.9965   38.4665 H   0  0  0  0  0  0  0  0  0  0  0  0
   36.4155   23.8906   41.8212 H   0  0  0  0  0  0  0  0  0  0  0  0
   35.4208   23.9656   40.3273 H   0  0  0  0  0  0  0  0  0  0  0  0
   36.9750   23.0648   40.3273 H   0  0  0  0  0  0  0  0  0  0  0  0
  1 10  1  0
  1  2  2  0
  2  3  1  0
  4  3  2  0
  5  4  1  0
  6  5  2  0
  6 17  1  0
  7  6  1  0
  8  9  1  0
  8  7  2  0
  9 10  2  0
 10  5  1  0
 11 12  2  0
 11  1  1  0
 13 12  1  0
 14 13  2  0
 15 14  1  0
 15 16  2  0
 16 11  1  0
 17 18  2  0
 18 19  1  0
 20 19  2  0
 21 20  1  0
 22 21  2  0
 22 17  1  0
 23 25  1  0
 23 21  1  0
 24 23  1  0
  2 26  1  0
  3 27  1  0
  4 28  1  0
  7 29  1  0
  8 30  1  0
  9 31  1  0
 12 32  1  0
 13 33  1  0
 15 34  1  0
 18 35  1  0
 19 36  1  0
 20 37  1  0
 23 38  1  0
 24 39  1  0
 24 40  1  0
 24 41  1  0
 25 42  1  0
 25 43  1  0
 25 44  1  0
M  ISO  8  26  14  27  14  28  14  29  14  30  14  31  14  32  14  33  14
M  ISO  8  34  14  35  14  36  14  37  14  38   8  39   8  40   8  41   8
M  ISO  3  42   8  43   8  44   8
M  END
>  <minimizedAffinity>  (1) 
-6.59611273

>  <minimizedRMSD>  (1) 
1.87089372

$$$$
