
     RDKit          3D

 42 46  0  0  0  0  0  0  0  0999 V2000
   39.8790   32.6960   40.9250 C   0  0  0  0  0  0  0  0  0  0  0  0
   40.9980   32.0850   41.5430 C   0  0  0  0  0  0  0  0  0  0  0  0
   40.9740   30.8130   42.0900 C   0  0  0  0  0  0  0  0  0  0  0  0
   39.7860   30.0940   42.0320 C   0  0  0  0  0  0  0  0  0  0  0  0
   38.6880   30.6400   41.4480 C   0  0  0  0  0  0  0  0  0  0  0  0
   37.5550   29.8990   41.4120 C   0  0  0  0  0  0  0  0  0  0  0  0
   36.3760   30.4060   40.8130 C   0  0  0  0  0  0  0  0  0  0  0  0
   36.4790   31.7010   40.2780 C   0  0  0  0  0  0  0  0  0  0  0  0
   37.6560   32.3910   40.3530 C   0  0  0  0  0  0  0  0  0  0  0  0
   38.7960   31.8940   40.9340 C   0  0  0  0  0  0  0  0  0  0  0  0
   40.1000   34.0110   40.4330 C   0  0  0  0  0  0  0  0  0  0  0  0
   39.4140   35.2180   40.7120 C   0  0  0  0  0  0  0  0  0  0  0  0
   39.7940   36.4290   40.1410 C   0  0  0  0  0  0  0  0  0  0  0  0
   40.8560   36.3950   39.3030 N   0  0  0  0  0  0  0  0  0  0  0  0
   41.5130   35.2800   39.0270 C   0  0  0  0  0  0  0  0  0  0  0  0
   41.1410   34.1230   39.5790 N   0  0  0  0  0  0  0  0  0  0  0  0
   37.3060   28.5700   41.9230 C   0  0  0  0  0  0  0  0  0  0  0  0
   36.9870   28.1940   43.2110 C   0  0  0  0  0  0  0  0  0  0  0  0
   36.7300   26.9080   43.6150 C   0  0  0  0  0  0  0  0  0  0  0  0
   36.7800   25.8710   42.7150 C   0  0  0  0  0  0  0  0  0  0  0  0
   37.0990   26.2670   41.4490 C   0  0  0  0  0  0  0  0  0  0  0  0
   37.3480   27.5240   41.0600 N   0  0  0  0  0  0  0  0  0  0  0  0
   37.1830   25.2420   40.3940 C   0  0  0  0  0  0  0  0  0  0  0  0
   36.5230   24.0070   40.3740 C   0  0  0  0  0  0  0  0  0  0  0  0
   36.8470   23.3140   39.2240 C   0  0  0  0  0  0  0  0  0  0  0  0
   37.6900   24.1320   38.5710 N   0  0  0  0  0  0  0  0  0  0  0  0
   37.8850   25.2460   39.2470 N   0  0  0  0  0  0  0  0  0  0  0  0
   41.9388   32.6530   41.5910 H   0  0  0  0  0  0  0  0  0  0  0  0
   41.8717   30.3829   42.5582 H   0  0  0  0  0  0  0  0  0  0  0  0
   39.7349   29.0818   42.4595 H   0  0  0  0  0  0  0  0  0  0  0  0
   35.4428   29.8252   40.7696 H   0  0  0  0  0  0  0  0  0  0  0  0
   35.6054   32.1630   39.7950 H   0  0  0  0  0  0  0  0  0  0  0  0
   37.6920   33.4029   39.9231 H   0  0  0  0  0  0  0  0  0  0  0  0
   38.5559   35.1979   41.4000 H   0  0  0  0  0  0  0  0  0  0  0  0
   39.2590   37.3650   40.3595 H   0  0  0  0  0  0  0  0  0  0  0  0
   42.3706   35.3067   38.3387 H   0  0  0  0  0  0  0  0  0  0  0  0
   36.9346   28.9857   43.9729 H   0  0  0  0  0  0  0  0  0  0  0  0
   36.4821   26.7058   44.6674 H   0  0  0  0  0  0  0  0  0  0  0  0
   36.5822   24.8240   42.9884 H   0  0  0  0  0  0  0  0  0  0  0  0
   35.8452   23.6420   41.1598 H   0  0  0  0  0  0  0  0  0  0  0  0
   36.4952   22.3192   38.9134 H   0  0  0  0  0  0  0  0  0  0  0  0
   38.1257   23.9167   37.6629 H   0  0  0  0  0  0  0  0  0  0  0  0
  1 10  1  0
  1  2  2  0
  2  3  1  0
  4  3  2  0
  5  4  1  0
  6  5  2  0
  6 17  1  0
  7  6  1  0
  8  9  1  0
  8  7  2  0
  9 10  2  0
 10  5  1  0
 11 12  2  0
 11  1  1  0
 13 12  1  0
 14 13  2  0
 15 14  1  0
 15 16  2  0
 16 11  1  0
 17 18  2  0
 18 19  1  0
 20 19  2  0
 21 20  1  0
 22 21  2  0
 22 17  1  0
 23 21  1  0
 24 23  1  0
 25 24  2  0
 26 25  1  0
 26 27  1  0
 27 23  2  0
  2 28  1  0
  3 29  1  0
  4 30  1  0
  7 31  1  0
  8 32  1  0
  9 33  1  0
 12 34  1  0
 13 35  1  0
 15 36  1  0
 18 37  1  0
 19 38  1  0
 20 39  1  0
 24 40  1  0
 25 41  1  0
 26 42  1  0
M  ISO  8  28  14  29  14  30  14  31  14  32  14  33  14  34  14  35  14
M  ISO  7  36  14  37  14  38  14  39  14  40  14  41  14  42   9
M  END
>  <minimizedAffinity>  (1) 
-6.59004927

>  <minimizedRMSD>  (1) 
2.04996395

$$$$
