
     RDKit          3D

 38 41  0  0  0  0  0  0  0  0999 V2000
   39.8800   32.7080   40.9150 C   0  0  0  0  0  0  0  0  0  0  0  0
   41.0010   32.0930   41.5210 C   0  0  0  0  0  0  0  0  0  0  0  0
   40.9760   30.8190   42.0560 C   0  0  0  0  0  0  0  0  0  0  0  0
   39.7920   30.0990   42.0000 C   0  0  0  0  0  0  0  0  0  0  0  0
   38.6850   30.6480   41.4280 C   0  0  0  0  0  0  0  0  0  0  0  0
   37.5560   29.9060   41.3910 C   0  0  0  0  0  0  0  0  0  0  0  0
   36.3720   30.4260   40.7980 C   0  0  0  0  0  0  0  0  0  0  0  0
   36.4770   31.7230   40.2760 C   0  0  0  0  0  0  0  0  0  0  0  0
   37.6540   32.4100   40.3520 C   0  0  0  0  0  0  0  0  0  0  0  0
   38.7940   31.9040   40.9250 C   0  0  0  0  0  0  0  0  0  0  0  0
   40.0980   34.0310   40.4300 C   0  0  0  0  0  0  0  0  0  0  0  0
   39.4200   35.2290   40.7160 C   0  0  0  0  0  0  0  0  0  0  0  0
   39.7920   36.4480   40.1540 C   0  0  0  0  0  0  0  0  0  0  0  0
   40.8520   36.4150   39.3080 N   0  0  0  0  0  0  0  0  0  0  0  0
   41.5050   35.3030   39.0230 C   0  0  0  0  0  0  0  0  0  0  0  0
   41.1340   34.1440   39.5710 N   0  0  0  0  0  0  0  0  0  0  0  0
   37.3060   28.5740   41.8870 C   0  0  0  0  0  0  0  0  0  0  0  0
   37.0040   28.1830   43.1740 C   0  0  0  0  0  0  0  0  0  0  0  0
   36.7480   26.8890   43.5690 C   0  0  0  0  0  0  0  0  0  0  0  0
   36.7830   25.8680   42.6500 C   0  0  0  0  0  0  0  0  0  0  0  0
   37.0840   26.2750   41.3830 C   0  0  0  0  0  0  0  0  0  0  0  0
   37.3330   27.5470   41.0110 N   0  0  0  0  0  0  0  0  0  0  0  0
   37.1530   25.2540   40.2900 C   0  0  0  0  0  0  0  0  0  0  0  0
   38.4160   25.0630   39.8220 F   0  0  0  0  0  0  0  0  0  0  0  0
   36.6340   24.0820   40.8530 F   0  0  0  0  0  0  0  0  0  0  0  0
   36.2830   25.6360   39.2840 F   0  0  0  0  0  0  0  0  0  0  0  0
   41.9428   32.6593   41.5688 H   0  0  0  0  0  0  0  0  0  0  0  0
   41.8760   30.3853   42.5164 H   0  0  0  0  0  0  0  0  0  0  0  0
   39.7471   29.0827   42.4184 H   0  0  0  0  0  0  0  0  0  0  0  0
   35.4366   29.8490   40.7521 H   0  0  0  0  0  0  0  0  0  0  0  0
   35.6025   32.1914   39.8007 H   0  0  0  0  0  0  0  0  0  0  0  0
   37.6910   33.4254   39.9307 H   0  0  0  0  0  0  0  0  0  0  0  0
   38.5655   35.2027   41.4081 H   0  0  0  0  0  0  0  0  0  0  0  0
   39.2579   37.3821   40.3826 H   0  0  0  0  0  0  0  0  0  0  0  0
   42.3591   35.3322   38.3304 H   0  0  0  0  0  0  0  0  0  0  0  0
   36.9644   28.9659   43.9457 H   0  0  0  0  0  0  0  0  0  0  0  0
   36.5151   26.6722   44.6220 H   0  0  0  0  0  0  0  0  0  0  0  0
   36.5862   24.8179   42.9120 H   0  0  0  0  0  0  0  0  0  0  0  0
  1 10  1  0
  1  2  2  0
  2  3  1  0
  4  3  2  0
  5  4  1  0
  6  5  2  0
  6 17  1  0
  7  6  1  0
  8  9  1  0
  8  7  2  0
  9 10  2  0
 10  5  1  0
 11 12  2  0
 11  1  1  0
 13 12  1  0
 14 13  2  0
 15 14  1  0
 15 16  2  0
 16 11  1  0
 17 18  2  0
 18 19  1  0
 20 19  2  0
 21 20  1  0
 22 21  2  0
 22 17  1  0
 23 25  1  0
 23 21  1  0
 24 23  1  0
 26 23  1  0
  2 27  1  0
  3 28  1  0
  4 29  1  0
  7 30  1  0
  8 31  1  0
  9 32  1  0
 12 33  1  0
 13 34  1  0
 15 35  1  0
 18 36  1  0
 19 37  1  0
 20 38  1  0
M  ISO  8  27  14  28  14  29  14  30  14  31  14  32  14  33  14  34  14
M  ISO  4  35  14  36  14  37  14  38  14
M  END
>  <minimizedAffinity>  (1) 
-6.53960323

>  <minimizedRMSD>  (1) 
1.94127917

$$$$
