
     RDKit          3D

 30 31  0  0  0  0  0  0  0  0999 V2000
   37.5010   30.5070   41.1470 C   0  0  0  0  0  0  0  0  0  0  0  0
   38.4830   29.8350   41.9280 C   0  0  0  0  0  0  0  0  0  0  0  0
   39.5880   30.6060   42.2430 C   0  0  0  0  0  0  0  0  0  0  0  0
   39.7070   31.8920   41.8330 N   0  0  0  0  0  0  0  0  0  0  0  0
   38.7350   32.4800   41.0890 C   0  0  0  0  0  0  0  0  0  0  0  0
   37.6460   31.7840   40.7540 N   0  0  0  0  0  0  0  0  0  0  0  0
   38.2740   28.4800   42.3140 N   0  0  0  0  0  0  0  0  0  0  0  0
   37.2640   28.0770   43.2220 C   0  0  0  0  0  0  0  0  0  0  0  0
   37.0580   28.8740   44.2600 N   0  0  0  0  0  0  0  0  0  0  0  0
   36.5840   26.8370   42.8980 N   0  0  0  0  0  0  0  0  0  0  0  0
   36.3830   28.6350   44.9890 H   0  0  0  0  0  0  0  0  0  0  0  0
   39.0310   33.8730   40.7360 C   0  0  0  0  0  0  0  0  0  0  0  0
   38.2420   34.7580   40.0220 C   0  0  0  0  0  0  0  0  0  0  0  0
   38.9170   35.9790   39.9200 C   0  0  0  0  0  0  0  0  0  0  0  0
   40.1060   35.7430   40.6020 C   0  0  0  0  0  0  0  0  0  0  0  0
   40.1280   34.5190   41.0530 O   0  0  0  0  0  0  0  0  0  0  0  0
   41.1480   36.7940   40.7460 C   0  0  0  0  0  0  0  0  0  0  0  0
   41.8540   36.6880   42.0880 C   0  0  0  0  0  0  0  0  0  0  0  0
   36.5913   29.9619   40.8548 H   0  0  0  0  0  0  0  0  0  0  0  0
   40.3944   30.1614   42.8446 H   0  0  0  0  0  0  0  0  0  0  0  0
   38.8880   27.7568   41.9128 H   0  0  0  0  0  0  0  0  0  0  0  0
   35.8382   26.4826   43.5136 H   0  0  0  0  0  0  0  0  0  0  0  0
   36.8471   26.3111   42.0523 H   0  0  0  0  0  0  0  0  0  0  0  0
   37.2487   34.5377   39.6040 H   0  0  0  0  0  0  0  0  0  0  0  0
   38.5873   36.9023   39.4212 H   0  0  0  0  0  0  0  0  0  0  0  0
   41.8885   36.6778   39.9409 H   0  0  0  0  0  0  0  0  0  0  0  0
   40.6606   37.7783   40.6857 H   0  0  0  0  0  0  0  0  0  0  0  0
   41.1188   36.7984   42.8988 H   0  0  0  0  0  0  0  0  0  0  0  0
   42.3437   35.7063   42.1682 H   0  0  0  0  0  0  0  0  0  0  0  0
   42.6104   37.4826   42.1682 H   0  0  0  0  0  0  0  0  0  0  0  0
  1  2  2  0
  2  3  1  0
  2  7  1  0
  4  3  2  0
  5  4  1  0
  6  5  2  0
  6  1  1  0
  7  8  1  0
  8  9  2  0
  9 11  1  0
 10  8  1  0
 12 16  1  0
 12  5  1  0
 13 12  2  0
 14 13  1  0
 14 15  2  0
 15 17  1  0
 15 16  1  0
 17 18  1  0
  1 19  1  0
  3 20  1  0
  7 21  1  0
 10 22  1  0
 10 23  1  0
 13 24  1  0
 14 25  1  0
 17 26  1  0
 17 27  1  0
 18 28  1  0
 18 29  1  0
 18 30  1  0
M  ISO  8  19  14  20  14  24  14  25  14  26   8  27   8  28   8  29   8
M  ISO  1  30   8
M  END
>  <minimizedAffinity>  (1) 
-5.15479946

>  <minimizedRMSD>  (1) 
0.728839755

$$$$
