
     RDKit          3D

 41 44  0  0  0  0  0  0  0  0999 V2000
   39.7210   32.4350   40.9480 C   0  0  0  0  0  0  0  0  0  0  0  0
   40.8290   31.8770   41.6190 C   0  0  0  0  0  0  0  0  0  0  0  0
   40.8450   30.5940   42.1460 C   0  0  0  0  0  0  0  0  0  0  0  0
   39.7070   29.8120   42.0070 C   0  0  0  0  0  0  0  0  0  0  0  0
   38.6120   30.3090   41.3660 C   0  0  0  0  0  0  0  0  0  0  0  0
   37.5290   29.5070   41.2540 C   0  0  0  0  0  0  0  0  0  0  0  0
   36.3590   29.9680   40.5910 C   0  0  0  0  0  0  0  0  0  0  0  0
   36.4250   31.2750   40.0850 C   0  0  0  0  0  0  0  0  0  0  0  0
   37.5570   32.0210   40.2420 C   0  0  0  0  0  0  0  0  0  0  0  0
   38.6810   31.5740   40.8800 C   0  0  0  0  0  0  0  0  0  0  0  0
   39.8960   33.7710   40.4880 C   0  0  0  0  0  0  0  0  0  0  0  0
   39.0880   34.9150   40.6810 C   0  0  0  0  0  0  0  0  0  0  0  0
   39.4310   36.1530   40.1700 C   0  0  0  0  0  0  0  0  0  0  0  0
   40.6070   36.2180   39.4610 N   0  0  0  0  0  0  0  0  0  0  0  0
   41.3700   35.1600   39.2740 C   0  0  0  0  0  0  0  0  0  0  0  0
   41.0250   33.9700   39.7730 N   0  0  0  0  0  0  0  0  0  0  0  0
   37.3190   28.1600   41.7250 C   0  0  0  0  0  0  0  0  0  0  0  0
   36.7670   27.7460   42.9190 C   0  0  0  0  0  0  0  0  0  0  0  0
   36.5670   26.4390   43.2980 C   0  0  0  0  0  0  0  0  0  0  0  0
   36.9250   25.4320   42.4650 C   0  0  0  0  0  0  0  0  0  0  0  0
   37.4810   25.8450   41.2660 C   0  0  0  0  0  0  0  0  0  0  0  0
   37.6640   27.1340   40.9250 N   0  0  0  0  0  0  0  0  0  0  0  0
   37.9080   24.8060   40.2790 C   0  0  0  0  0  0  0  0  0  0  0  0
   37.9200   23.4330   40.8770 C   0  0  0  0  0  0  0  0  0  0  0  0
   41.7323   32.4947   41.7308 H   0  0  0  0  0  0  0  0  0  0  0  0
   41.7366   30.2065   42.6607 H   0  0  0  0  0  0  0  0  0  0  0  0
   39.6889   28.7904   42.4145 H   0  0  0  0  0  0  0  0  0  0  0  0
   35.4614   29.3415   40.4819 H   0  0  0  0  0  0  0  0  0  0  0  0
   35.5585   31.7013   39.5582 H   0  0  0  0  0  0  0  0  0  0  0  0
   37.5658   33.0414   39.8314 H   0  0  0  0  0  0  0  0  0  0  0  0
   38.1558   34.8169   41.2567 H   0  0  0  0  0  0  0  0  0  0  0  0
   38.7968   37.0387   40.3226 H   0  0  0  0  0  0  0  0  0  0  0  0
   42.3030   35.2581   38.6996 H   0  0  0  0  0  0  0  0  0  0  0  0
   36.4604   28.5281   43.6292 H   0  0  0  0  0  0  0  0  0  0  0  0
   36.1172   26.2116   44.2757 H   0  0  0  0  0  0  0  0  0  0  0  0
   36.7851   24.3713   42.7208 H   0  0  0  0  0  0  0  0  0  0  0  0
   38.9211   25.0478   39.9252 H   0  0  0  0  0  0  0  0  0  0  0  0
   37.1850   24.8084   39.4500 H   0  0  0  0  0  0  0  0  0  0  0  0
   37.9193   23.5109   41.9742 H   0  0  0  0  0  0  0  0  0  0  0  0
   37.0266   22.8819   40.5480 H   0  0  0  0  0  0  0  0  0  0  0  0
   38.8229   22.8976   40.5480 H   0  0  0  0  0  0  0  0  0  0  0  0
  1  2  2  0
  2  3  1  0
  4  3  2  0
  5  4  1  0
  6  5  2  0
  6 17  1  0
  7  6  1  0
  8  9  1  0
  8  7  2  0
  9 10  2  0
 10  1  1  0
 10  5  1  0
 11 12  2  0
 11  1  1  0
 13 12  1  0
 14 13  2  0
 15 14  1  0
 15 16  2  0
 16 11  1  0
 17 18  2  0
 18 19  1  0
 20 19  2  0
 21 20  1  0
 22 21  2  0
 22 17  1  0
 23 24  1  0
 23 21  1  0
  2 25  1  0
  3 26  1  0
  4 27  1  0
  7 28  1  0
  8 29  1  0
  9 30  1  0
 12 31  1  0
 13 32  1  0
 15 33  1  0
 18 34  1  0
 19 35  1  0
 20 36  1  0
 23 37  1  0
 23 38  1  0
 24 39  1  0
 24 40  1  0
 24 41  1  0
M  ISO  8  25  14  26  14  27  14  28  14  29  14  30  14  31  14  32  14
M  ISO  8  33  14  34  14  35  14  36  14  37   8  38   8  39   8  40   8
M  ISO  1  41   8
M  END
>  <minimizedAffinity>  (1) 
-6.29342175

>  <minimizedRMSD>  (1) 
1.40512133

$$$$
