
     RDKit          3D

 38 41  0  0  0  0  0  0  0  0999 V2000
   39.7320   32.4410   40.9400 C   0  0  0  0  0  0  0  0  0  0  0  0
   40.8470   31.8800   41.5990 C   0  0  0  0  0  0  0  0  0  0  0  0
   40.8710   30.5920   42.1130 C   0  0  0  0  0  0  0  0  0  0  0  0
   39.7340   29.8070   41.9710 C   0  0  0  0  0  0  0  0  0  0  0  0
   38.6330   30.3060   41.3420 C   0  0  0  0  0  0  0  0  0  0  0  0
   37.5540   29.5000   41.2260 C   0  0  0  0  0  0  0  0  0  0  0  0
   36.3790   29.9630   40.5750 C   0  0  0  0  0  0  0  0  0  0  0  0
   36.4350   31.2740   40.0840 C   0  0  0  0  0  0  0  0  0  0  0  0
   37.5630   32.0290   40.2390 C   0  0  0  0  0  0  0  0  0  0  0  0
   38.6940   31.5740   40.8700 C   0  0  0  0  0  0  0  0  0  0  0  0
   39.8980   33.7820   40.4930 C   0  0  0  0  0  0  0  0  0  0  0  0
   39.0840   34.9220   40.6930 C   0  0  0  0  0  0  0  0  0  0  0  0
   39.4250   36.1730   40.1850 C   0  0  0  0  0  0  0  0  0  0  0  0
   40.5870   36.2390   39.4850 N   0  0  0  0  0  0  0  0  0  0  0  0
   41.3620   35.1900   39.2870 C   0  0  0  0  0  0  0  0  0  0  0  0
   41.0250   33.9910   39.7790 N   0  0  0  0  0  0  0  0  0  0  0  0
   37.3530   28.1470   41.6860 C   0  0  0  0  0  0  0  0  0  0  0  0
   36.7620   27.7110   42.8530 C   0  0  0  0  0  0  0  0  0  0  0  0
   36.5820   26.4000   43.2110 C   0  0  0  0  0  0  0  0  0  0  0  0
   37.0040   25.3920   42.3810 C   0  0  0  0  0  0  0  0  0  0  0  0
   37.5880   25.8390   41.2310 C   0  0  0  0  0  0  0  0  0  0  0  0
   37.7600   27.1290   40.8890 N   0  0  0  0  0  0  0  0  0  0  0  0
   38.0780   24.8340   40.2680 C   0  0  0  0  0  0  0  0  0  0  0  0
   37.9420   25.0300   39.0280 O   0  0  0  0  0  0  0  0  0  0  0  0
   38.6940   23.6560   40.6650 O   0  0  0  0  0  0  0  0  0  0  0  0
   41.7487   32.4999   41.7114 H   0  0  0  0  0  0  0  0  0  0  0  0
   41.7665   30.2027   42.6195 H   0  0  0  0  0  0  0  0  0  0  0  0
   39.7223   28.7808   42.3669 H   0  0  0  0  0  0  0  0  0  0  0  0
   35.4839   29.3333   40.4638 H   0  0  0  0  0  0  0  0  0  0  0  0
   35.5616   31.6998   39.5683 H   0  0  0  0  0  0  0  0  0  0  0  0
   37.5650   33.0533   39.8379 H   0  0  0  0  0  0  0  0  0  0  0  0
   38.1522   34.8167   41.2680 H   0  0  0  0  0  0  0  0  0  0  0  0
   38.7896   37.0571   40.3417 H   0  0  0  0  0  0  0  0  0  0  0  0
   42.2935   35.3012   38.7126 H   0  0  0  0  0  0  0  0  0  0  0  0
   36.4053   28.4790   43.5551 H   0  0  0  0  0  0  0  0  0  0  0  0
   36.0973   26.1550   44.1676 H   0  0  0  0  0  0  0  0  0  0  0  0
   36.8831   24.3250   42.6197 H   0  0  0  0  0  0  0  0  0  0  0  0
   39.0082   23.0083   39.9854 H   0  0  0  0  0  0  0  0  0  0  0  0
  1  2  2  0
  2  3  1  0
  4  3  2  0
  5  4  1  0
  6  5  2  0
  6 17  1  0
  7  6  1  0
  8  9  1  0
  8  7  2  0
  9 10  2  0
 10  1  1  0
 10  5  1  0
 11 12  2  0
 11  1  1  0
 13 12  1  0
 14 13  2  0
 15 14  1  0
 15 16  2  0
 16 11  1  0
 17 18  2  0
 18 19  1  0
 20 19  2  0
 21 20  1  0
 22 21  2  0
 22 17  1  0
 23 25  1  0
 23 21  1  0
 24 23  2  0
  2 26  1  0
  3 27  1  0
  4 28  1  0
  7 29  1  0
  8 30  1  0
  9 31  1  0
 12 32  1  0
 13 33  1  0
 15 34  1  0
 18 35  1  0
 19 36  1  0
 20 37  1  0
 25 38  1  0
M  ISO  8  26  14  27  14  28  14  29  14  30  14  31  14  32  14  33  14
M  ISO  5  34  14  35  14  36  14  37  14  38   3
M  END
>  <minimizedAffinity>  (1) 
-6.28426218

>  <minimizedRMSD>  (1) 
1.32106769

$$$$
