
     RDKit          3D

 36 39  0  0  0  0  0  0  0  0999 V2000
   39.5910   31.7110   41.0250 C   0  0  0  0  0  0  0  0  0  0  0  0
   40.4250   31.3490   42.0990 C   0  0  0  0  0  0  0  0  0  0  0  0
   40.4680   30.0700   42.6430 C   0  0  0  0  0  0  0  0  0  0  0  0
   39.6420   29.0960   42.0980 C   0  0  0  0  0  0  0  0  0  0  0  0
   38.8200   29.4040   41.0590 C   0  0  0  0  0  0  0  0  0  0  0  0
   38.0370   28.4180   40.5600 C   0  0  0  0  0  0  0  0  0  0  0  0
   37.1610   28.6720   39.4720 C   0  0  0  0  0  0  0  0  0  0  0  0
   37.1770   29.9920   38.9750 C   0  0  0  0  0  0  0  0  0  0  0  0
   37.9960   30.9290   39.5340 C   0  0  0  0  0  0  0  0  0  0  0  0
   38.8390   30.6740   40.5860 C   0  0  0  0  0  0  0  0  0  0  0  0
   39.6840   33.0720   40.6150 C   0  0  0  0  0  0  0  0  0  0  0  0
   38.7440   34.1230   40.7160 C   0  0  0  0  0  0  0  0  0  0  0  0
   39.0220   35.4130   40.2710 C   0  0  0  0  0  0  0  0  0  0  0  0
   40.2560   35.6080   39.7290 N   0  0  0  0  0  0  0  0  0  0  0  0
   41.1470   34.6380   39.6270 C   0  0  0  0  0  0  0  0  0  0  0  0
   40.8690   33.4050   40.0570 N   0  0  0  0  0  0  0  0  0  0  0  0
   37.9110   27.0410   40.9670 C   0  0  0  0  0  0  0  0  0  0  0  0
   37.1000   26.4970   41.9420 C   0  0  0  0  0  0  0  0  0  0  0  0
   37.0170   25.1610   42.2550 C   0  0  0  0  0  0  0  0  0  0  0  0
   37.7790   24.2470   41.5720 C   0  0  0  0  0  0  0  0  0  0  0  0
   38.5760   24.7960   40.6100 C   0  0  0  0  0  0  0  0  0  0  0  0
   38.6470   26.1100   40.3160 N   0  0  0  0  0  0  0  0  0  0  0  0
   39.4020   23.9630   39.8460 O   0  0  0  0  0  0  0  0  0  0  0  0
   41.0789   32.1202   42.5321 H   0  0  0  0  0  0  0  0  0  0  0  0
   41.1387   29.8360   43.4829 H   0  0  0  0  0  0  0  0  0  0  0  0
   39.6524   28.0748   42.5067 H   0  0  0  0  0  0  0  0  0  0  0  0
   36.5134   27.8919   39.0453 H   0  0  0  0  0  0  0  0  0  0  0  0
   36.5257   30.2673   38.1323 H   0  0  0  0  0  0  0  0  0  0  0  0
   37.9795   31.9470   39.1175 H   0  0  0  0  0  0  0  0  0  0  0  0
   37.7598   33.9149   41.1611 H   0  0  0  0  0  0  0  0  0  0  0  0
   38.2872   36.2275   40.3526 H   0  0  0  0  0  0  0  0  0  0  0  0
   42.1306   34.8489   39.1821 H   0  0  0  0  0  0  0  0  0  0  0  0
   36.4675   27.1899   42.5164 H   0  0  0  0  0  0  0  0  0  0  0  0
   36.3393   24.8245   43.0535 H   0  0  0  0  0  0  0  0  0  0  0  0
   37.7500   23.1675   41.7813 H   0  0  0  0  0  0  0  0  0  0  0  0
   39.9842   24.3509   39.1455 H   0  0  0  0  0  0  0  0  0  0  0  0
  1  2  2  0
  2  3  1  0
  4  3  2  0
  5  4  1  0
  6 17  1  0
  6  5  2  0
  7  6  1  0
  8  7  2  0
  8  9  1  0
  9 10  2  0
 10  1  1  0
 10  5  1  0
 11 12  2  0
 11  1  1  0
 13 12  1  0
 14 13  2  0
 15 14  1  0
 15 16  2  0
 16 11  1  0
 17 18  2  0
 18 19  1  0
 20 19  2  0
 21 20  1  0
 22 21  2  0
 22 17  1  0
 23 21  1  0
  2 24  1  0
  3 25  1  0
  4 26  1  0
  7 27  1  0
  8 28  1  0
  9 29  1  0
 12 30  1  0
 13 31  1  0
 15 32  1  0
 18 33  1  0
 19 34  1  0
 20 35  1  0
 23 36  1  0
M  ISO  8  24  14  25  14  26  14  27  14  28  14  29  14  30  14  31  14
M  ISO  5  32  14  33  14  34  14  35  14  36   3
M  END
>  <minimizedAffinity>  (1) 
-5.89147043

>  <minimizedRMSD>  (1) 
0.0311611667

$$$$
