
     RDKit          3D

 25 27  0  0  0  0  0  0  0  0999 V2000
   39.5120   27.5550   42.9740 C   0  0  0  0  0  0  0  0  0  0  0  0
   38.4180   27.3880   43.8670 C   0  0  0  0  0  0  0  0  0  0  0  0
   37.3390   28.2490   43.7710 C   0  0  0  0  0  0  0  0  0  0  0  0
   37.3680   29.2260   42.8230 N   0  0  0  0  0  0  0  0  0  0  0  0
   38.4060   29.3720   41.9860 C   0  0  0  0  0  0  0  0  0  0  0  0
   39.4630   28.5470   42.0620 N   0  0  0  0  0  0  0  0  0  0  0  0
   38.3990   30.4310   40.9830 C   0  0  0  0  0  0  0  0  0  0  0  0
   38.8470   31.7220   41.1460 C   0  0  0  0  0  0  0  0  0  0  0  0
   38.6650   32.3920   39.9750 N   0  0  0  0  0  0  0  0  0  0  0  0
   38.1090   31.5620   39.0600 C   0  0  0  0  0  0  0  0  0  0  0  0
   37.7610   31.8350   37.7540 C   0  0  0  0  0  0  0  0  0  0  0  0
   37.2030   30.7770   37.0450 C   0  0  0  0  0  0  0  0  0  0  0  0
   37.0080   29.5250   37.6120 C   0  0  0  0  0  0  0  0  0  0  0  0
   37.3810   29.3110   38.9380 C   0  0  0  0  0  0  0  0  0  0  0  0
   37.9460   30.3450   39.6920 C   0  0  0  0  0  0  0  0  0  0  0  0
   36.3170   28.0350   44.6620 O   0  0  0  0  0  0  0  0  0  0  0  0
   40.3837   26.8861   43.0263 H   0  0  0  0  0  0  0  0  0  0  0  0
   38.4293   26.5877   44.6216 H   0  0  0  0  0  0  0  0  0  0  0  0
   39.2790   32.1415   42.0666 H   0  0  0  0  0  0  0  0  0  0  0  0
   38.9120   33.3782   39.8101 H   0  0  0  0  0  0  0  0  0  0  0  0
   37.9149   32.8260   37.3021 H   0  0  0  0  0  0  0  0  0  0  0  0
   36.9057   30.9377   35.9982 H   0  0  0  0  0  0  0  0  0  0  0  0
   36.5638   28.7104   37.0212 H   0  0  0  0  0  0  0  0  0  0  0  0
   37.2299   28.3218   39.3948 H   0  0  0  0  0  0  0  0  0  0  0  0
   35.5160   28.6166   44.6456 H   0  0  0  0  0  0  0  0  0  0  0  0
  1  2  2  0
  3  2  1  0
  3 16  1  0
  4  3  2  0
  5  6  2  0
  5  4  1  0
  6  1  1  0
  7  8  2  0
  7  5  1  0
  9  8  1  0
 10 15  2  0
 10  9  1  0
 11 10  1  0
 12 13  1  0
 12 11  2  0
 13 14  2  0
 14 15  1  0
 15  7  1  0
  1 17  1  0
  2 18  1  0
  8 19  1  0
  9 20  1  0
 11 21  1  0
 12 22  1  0
 13 23  1  0
 14 24  1  0
 16 25  1  0
M  ISO  8  17  14  18  14  19  14  20   9  21  14  22  14  23  14  24  14
M  ISO  1  25   3
M  END
>  <minimizedAffinity>  (1) 
-4.83611917

>  <minimizedRMSD>  (1) 
2.59930205

$$$$
