
     RDKit          3D

 22 23  0  0  0  0  0  0  0  0999 V2000
   37.4110   28.5930   43.6410 C   0  0  0  0  0  0  0  0  0  0  0  0
   37.2310   27.2310   43.3340 C   0  0  0  0  0  0  0  0  0  0  0  0
   37.1460   26.8360   42.0060 C   0  0  0  0  0  0  0  0  0  0  0  0
   37.2450   27.8170   41.0520 N   0  0  0  0  0  0  0  0  0  0  0  0
   37.4170   29.1120   41.3710 C   0  0  0  0  0  0  0  0  0  0  0  0
   37.4990   29.4950   42.6510 N   0  0  0  0  0  0  0  0  0  0  0  0
   37.4860   29.9020   40.1890 N   0  0  0  0  0  0  0  0  0  0  0  0
   37.5140   31.2410   40.0420 C   0  0  0  0  0  0  0  0  0  0  0  0
   37.5820   31.7730   38.7880 C   0  0  0  0  0  0  0  0  0  0  0  0
   37.6220   30.9810   37.6850 C   0  0  0  0  0  0  0  0  0  0  0  0
   37.6920   31.5320   36.3780 N   0  0  0  0  0  0  0  0  0  0  0  0
   37.5940   29.6450   37.8270 N   0  0  0  0  0  0  0  0  0  0  0  0
   37.5260   29.1120   39.0800 C   0  0  0  0  0  0  0  0  0  0  0  0
   37.5060   27.8420   39.0710 O   0  0  0  0  0  0  0  0  0  0  0  0
   36.9710   25.5000   41.7490 O   0  0  0  0  0  0  0  0  0  0  0  0
   37.4794   28.9173   44.6899 H   0  0  0  0  0  0  0  0  0  0  0  0
   37.1583   26.4858   44.1399 H   0  0  0  0  0  0  0  0  0  0  0  0
   37.4824   31.8979   40.9237 H   0  0  0  0  0  0  0  0  0  0  0  0
   37.6049   32.8661   38.6672 H   0  0  0  0  0  0  0  0  0  0  0  0
   37.7143   32.5538   36.2504 H   0  0  0  0  0  0  0  0  0  0  0  0
   37.7205   30.9098   35.5577 H   0  0  0  0  0  0  0  0  0  0  0  0
   36.9059   25.1801   40.8144 H   0  0  0  0  0  0  0  0  0  0  0  0
  2  1  2  0
  3  2  1  0
  4  5  1  0
  4  3  2  0
  5  6  2  0
  6  1  1  0
  7  5  1  0
  8  7  1  0
  9  8  2  0
 10 12  2  0
 10  9  1  0
 11 10  1  0
 12 13  1  0
 13  7  1  0
 14 13  2  0
 15  3  1  0
  1 16  1  0
  2 17  1  0
  8 18  1  0
  9 19  1  0
 11 20  1  0
 11 21  1  0
 15 22  1  0
M  ISO  5  16  14  17  14  18  14  19  14  22   3
M  END
>  <minimizedAffinity>  (1) 
-4.43596935

>  <minimizedRMSD>  (1) 
2.17378092

$$$$
