
     RDKit          3D

 17 18  0  0  0  0  0  0  0  0999 V2000
   38.9140   28.7750   42.2280 C   0  0  0  0  0  0  0  0  0  0  0  0
   38.2330   29.0580   43.4290 C   0  0  0  0  0  0  0  0  0  0  0  0
   37.1760   28.2330   43.8130 C   0  0  0  0  0  0  0  0  0  0  0  0
   36.8550   27.1790   42.9910 N   0  0  0  0  0  0  0  0  0  0  0  0
   37.5300   26.9430   41.8550 C   0  0  0  0  0  0  0  0  0  0  0  0
   38.5500   27.7300   41.4720 N   0  0  0  0  0  0  0  0  0  0  0  0
   37.0320   25.7610   41.1080 C   0  0  0  0  0  0  0  0  0  0  0  0
   36.8800   24.4610   41.5940 C   0  0  0  0  0  0  0  0  0  0  0  0
   36.2370   23.5810   40.1290 S   0  0  0  0  0  0  0  0  0  0  0  0
   36.2870   25.1600   39.0870 C   0  0  0  0  0  0  0  0  0  0  0  0
   36.7670   26.1960   39.8900 N   0  0  0  0  0  0  0  0  0  0  0  0
   36.5270   28.5230   44.9820 O   0  0  0  0  0  0  0  0  0  0  0  0
   39.7494   29.4157   41.9092 H   0  0  0  0  0  0  0  0  0  0  0  0
   38.5298   29.9143   44.0524 H   0  0  0  0  0  0  0  0  0  0  0  0
   37.0926   24.0685   42.5993 H   0  0  0  0  0  0  0  0  0  0  0  0
   35.9894   25.2464   38.0316 H   0  0  0  0  0  0  0  0  0  0  0  0
   35.7725   27.9570   45.2829 H   0  0  0  0  0  0  0  0  0  0  0  0
  1  2  2  0
  2  3  1  0
  3 12  1  0
  4  3  2  0
  5  4  1  0
  6  5  2  0
  6  1  1  0
  7  8  2  0
  7  5  1  0
  9  8  1  0
 10 11  2  0
 10  9  1  0
 11  7  1  0
  1 13  1  0
  2 14  1  0
  8 15  1  0
 10 16  1  0
 12 17  1  0
M  ISO  5  13  14  14  14  15  14  16  14  17   3
M  END
>  <minimizedAffinity>  (1) 
-3.93222523

>  <minimizedRMSD>  (1) 
4.29983377

$$$$
