
     RDKit          3D

 18 19  0  0  0  0  0  0  0  0999 V2000
   40.6830   27.1760   43.7570 C   0  0  0  0  0  0  0  0  0  0  0  0
   40.5780   25.7620   43.7810 C   0  0  0  0  0  0  0  0  0  0  0  0
   39.5000   25.1700   43.1430 C   0  0  0  0  0  0  0  0  0  0  0  0
   38.5930   25.9630   42.5220 N   0  0  0  0  0  0  0  0  0  0  0  0
   38.7200   27.3110   42.5160 C   0  0  0  0  0  0  0  0  0  0  0  0
   39.7470   27.9070   43.1240 N   0  0  0  0  0  0  0  0  0  0  0  0
   37.7730   28.1520   41.8680 N   0  0  0  0  0  0  0  0  0  0  0  0
   38.1110   29.2590   41.2320 N   0  0  0  0  0  0  0  0  0  0  0  0
   36.9990   29.8480   40.7160 C   0  0  0  0  0  0  0  0  0  0  0  0
   35.9500   29.0160   41.0850 C   0  0  0  0  0  0  0  0  0  0  0  0
   36.4340   27.9380   41.8150 C   0  0  0  0  0  0  0  0  0  0  0  0
   39.4350   23.7980   43.1890 O   0  0  0  0  0  0  0  0  0  0  0  0
   41.5279   27.6744   44.2548 H   0  0  0  0  0  0  0  0  0  0  0  0
   41.3344   25.1498   44.2939 H   0  0  0  0  0  0  0  0  0  0  0  0
   36.9428   30.7796   40.1338 H   0  0  0  0  0  0  0  0  0  0  0  0
   34.8921   29.1857   40.8359 H   0  0  0  0  0  0  0  0  0  0  0  0
   35.8638   27.1038   42.2496 H   0  0  0  0  0  0  0  0  0  0  0  0
   38.6858   23.3229   42.7496 H   0  0  0  0  0  0  0  0  0  0  0  0
  1  2  2  0
  3 12  1  0
  3  2  1  0
  4  3  2  0
  5  4  1  0
  5  6  2  0
  6  1  1  0
  7  5  1  0
  8  7  1  0
  9 10  1  0
  9  8  2  0
 10 11  2  0
 11  7  1  0
  1 13  1  0
  2 14  1  0
  9 15  1  0
 10 16  1  0
 11 17  1  0
 12 18  1  0
M  ISO  6  13  14  14  14  15  14  16  14  17  14  18   3
M  END
>  <minimizedAffinity>  (1) 
-3.84920335

>  <minimizedRMSD>  (1) 
3.08167887

$$$$
