
     RDKit          3D

 20 20  0  0  0  0  0  0  0  0999 V2000
   38.2840   28.9850   43.2070 C   0  0  0  0  0  0  0  0  0  0  0  0
   38.1290   27.5930   43.2540 C   0  0  0  0  0  0  0  0  0  0  0  0
   37.1760   27.0080   42.4100 C   0  0  0  0  0  0  0  0  0  0  0  0
   36.4470   27.8260   41.5860 N   0  0  0  0  0  0  0  0  0  0  0  0
   36.6230   29.1570   41.5690 C   0  0  0  0  0  0  0  0  0  0  0  0
   37.5310   29.7360   42.3700 N   0  0  0  0  0  0  0  0  0  0  0  0
   35.8060   29.9980   40.6560 C   0  0  0  0  0  0  0  0  0  0  0  0
   34.8090   29.1940   39.8640 C   0  0  0  0  0  0  0  0  0  0  0  0
   36.6830   30.8310   39.7430 C   0  0  0  0  0  0  0  0  0  0  0  0
   37.0430   25.6340   42.4740 O   0  0  0  0  0  0  0  0  0  0  0  0
   39.0254   29.4723   43.8572 H   0  0  0  0  0  0  0  0  0  0  0  0
   38.7375   26.9780   43.9333 H   0  0  0  0  0  0  0  0  0  0  0  0
   35.2267   30.6813   41.2944 H   0  0  0  0  0  0  0  0  0  0  0  0
   34.1417   28.6558   40.5532 H   0  0  0  0  0  0  0  0  0  0  0  0
   34.2147   29.8686   39.2301 H   0  0  0  0  0  0  0  0  0  0  0  0
   35.3423   28.4703   39.2301 H   0  0  0  0  0  0  0  0  0  0  0  0
   37.3482   31.4628   40.3499 H   0  0  0  0  0  0  0  0  0  0  0  0
   37.2872   30.1662   39.1082 H   0  0  0  0  0  0  0  0  0  0  0  0
   36.0501   31.4686   39.1082 H   0  0  0  0  0  0  0  0  0  0  0  0
   36.3832   25.1732   41.8975 H   0  0  0  0  0  0  0  0  0  0  0  0
  1  2  2  0
  3 10  1  0
  3  2  1  0
  4  3  2  0
  5  4  1  0
  5  6  2  0
  6  1  1  0
  7  5  1  0
  8  7  1  0
  9  7  1  0
  1 11  1  0
  2 12  1  0
  7 13  1  0
  8 14  1  0
  8 15  1  0
  8 16  1  0
  9 17  1  0
  9 18  1  0
  9 19  1  0
 10 20  1  0
M  ISO  8  11  14  12  14  13   8  14   8  15   8  16   8  17   8  18   8
M  ISO  2  19   8  20   3
M  END
>  <minimizedAffinity>  (1) 
-3.5648942

>  <minimizedRMSD>  (1) 
0.279721767

$$$$
