
     RDKit          3D

 13 13  0  0  0  0  0  0  0  0999 V2000
   38.9180   28.8900   42.9520 C   0  0  0  0  0  0  0  0  0  0  0  0
   38.5110   27.5490   42.9850 C   0  0  0  0  0  0  0  0  0  0  0  0
   37.2370   27.2090   42.5040 C   0  0  0  0  0  0  0  0  0  0  0  0
   36.4500   28.2020   42.0250 N   0  0  0  0  0  0  0  0  0  0  0  0
   36.8640   29.4890   42.0040 C   0  0  0  0  0  0  0  0  0  0  0  0
   38.0720   29.8320   42.4560 N   0  0  0  0  0  0  0  0  0  0  0  0
   35.9450   30.4450   41.4740 N   0  0  0  0  0  0  0  0  0  0  0  0
   36.8840   25.8860   42.5570 O   0  0  0  0  0  0  0  0  0  0  0  0
   39.9125   29.1776   43.3239 H   0  0  0  0  0  0  0  0  0  0  0  0
   39.1815   26.7730   43.3828 H   0  0  0  0  0  0  0  0  0  0  0  0
   36.2047   31.4409   41.4323 H   0  0  0  0  0  0  0  0  0  0  0  0
   35.0225   30.1387   41.1334 H   0  0  0  0  0  0  0  0  0  0  0  0
   35.9955   25.5972   42.2294 H   0  0  0  0  0  0  0  0  0  0  0  0
  1  2  2  0
  3  8  1  0
  3  2  1  0
  4  3  2  0
  5  4  1  0
  5  6  2  0
  6  1  1  0
  7  5  1  0
  1  9  1  0
  2 10  1  0
  7 11  1  0
  7 12  1  0
  8 13  1  0
M  ISO  3   9  14  10  14  13   3
M  END
>  <minimizedAffinity>  (1) 
-3.20846772

>  <minimizedRMSD>  (1) 
0.617350221

$$$$
