
     RDKit          3D

 12 12  0  0  0  0  0  0  0  0999 V2000
   38.3410   29.1730   43.1400 C   0  0  0  0  0  0  0  0  0  0  0  0
   38.0940   27.7940   43.2670 C   0  0  0  0  0  0  0  0  0  0  0  0
   37.0950   27.2360   42.4660 C   0  0  0  0  0  0  0  0  0  0  0  0
   36.4090   28.0490   41.6020 N   0  0  0  0  0  0  0  0  0  0  0  0
   36.6830   29.3780   41.5140 C   0  0  0  0  0  0  0  0  0  0  0  0
   37.6370   29.9270   42.2740 N   0  0  0  0  0  0  0  0  0  0  0  0
   36.8590   25.8980   42.5920 O   0  0  0  0  0  0  0  0  0  0  0  0
   35.9010   30.0600   40.5920 O   0  0  0  0  0  0  0  0  0  0  0  0
   39.1209   29.6427   43.7573 H   0  0  0  0  0  0  0  0  0  0  0  0
   38.6681   27.1761   43.9731 H   0  0  0  0  0  0  0  0  0  0  0  0
   36.1591   25.4648   42.0419 H   0  0  0  0  0  0  0  0  0  0  0  0
   36.0284   31.0326   40.4581 H   0  0  0  0  0  0  0  0  0  0  0  0
  1  2  2  0
  3  7  1  0
  3  2  1  0
  4  3  2  0
  5  4  1  0
  5  6  2  0
  6  1  1  0
  8  5  1  0
  1  9  1  0
  2 10  1  0
  7 11  1  0
  8 12  1  0
M  ISO  4   9  14  10  14  11   3  12   3
M  END
>  <minimizedAffinity>  (1) 
-2.76385784

>  <minimizedRMSD>  (1) 
0.0928387791

$$$$
