
     RDKit          3D

 14 14  0  0  0  0  0  0  0  0999 V2000
   38.2980   29.2300   43.1050 C   0  0  0  0  0  0  0  0  0  0  0  0
   38.0520   27.8570   43.2370 C   0  0  0  0  0  0  0  0  0  0  0  0
   37.0800   27.2490   42.4470 C   0  0  0  0  0  0  0  0  0  0  0  0
   36.4040   28.0550   41.5630 N   0  0  0  0  0  0  0  0  0  0  0  0
   36.6600   29.3680   41.4570 C   0  0  0  0  0  0  0  0  0  0  0  0
   37.5930   29.9480   42.2170 N   0  0  0  0  0  0  0  0  0  0  0  0
   36.8690   25.9080   42.6050 O   0  0  0  0  0  0  0  0  0  0  0  0
   35.9180   30.2250   40.4940 C   0  0  0  0  0  0  0  0  0  0  0  0
   39.0647   29.7167   43.7257 H   0  0  0  0  0  0  0  0  0  0  0  0
   38.6251   27.2612   43.9626 H   0  0  0  0  0  0  0  0  0  0  0  0
   36.1848   25.4467   42.0580 H   0  0  0  0  0  0  0  0  0  0  0  0
   35.2956   30.9439   41.0470 H   0  0  0  0  0  0  0  0  0  0  0  0
   36.6338   30.7703   39.8614 H   0  0  0  0  0  0  0  0  0  0  0  0
   35.2758   29.5946   39.8614 H   0  0  0  0  0  0  0  0  0  0  0  0
  1  2  2  0
  3  7  1  0
  3  2  1  0
  4  3  2  0
  5  4  1  0
  5  6  2  0
  6  1  1  0
  8  5  1  0
  1  9  1  0
  2 10  1  0
  7 11  1  0
  8 12  1  0
  8 13  1  0
  8 14  1  0
M  ISO  6   9  14  10  14  11   3  12   8  13   8  14   8
M  END
>  <minimizedAffinity>  (1) 
-2.90310597

>  <minimizedRMSD>  (1) 
0.0946913362

$$$$
