
     RDKit          3D

 24 26  0  0  0  0  0  0  0  0999 V2000
   37.2850   28.5600   43.0550 C   0  0  0  0  0  0  0  0  0  0  0  0
   37.1090   27.2720   42.5000 C   0  0  0  0  0  0  0  0  0  0  0  0
   36.9680   27.1780   41.1050 C   0  0  0  0  0  0  0  0  0  0  0  0
   37.0100   28.3290   40.3670 N   0  0  0  0  0  0  0  0  0  0  0  0
   37.1810   29.5280   40.9410 C   0  0  0  0  0  0  0  0  0  0  0  0
   37.3190   29.6650   42.2760 N   0  0  0  0  0  0  0  0  0  0  0  0
   37.2250   30.7290   40.1890 N   0  0  0  0  0  0  0  0  0  0  0  0
   37.6020   31.8200   40.8590 N   0  0  0  0  0  0  0  0  0  0  0  0
   37.5980   32.8810   40.0190 C   0  0  0  0  0  0  0  0  0  0  0  0
   37.2000   32.3840   38.7930 C   0  0  0  0  0  0  0  0  0  0  0  0
   36.9640   31.0230   38.9050 C   0  0  0  0  0  0  0  0  0  0  0  0
   36.5460   30.0480   37.9790 N   0  0  0  0  0  0  0  0  0  0  0  0
   35.4070   29.3990   37.6780 C   0  0  0  0  0  0  0  0  0  0  0  0
   35.6180   28.5380   36.6450 C   0  0  0  0  0  0  0  0  0  0  0  0
   36.9090   28.6280   36.2680 N   0  0  0  0  0  0  0  0  0  0  0  0
   37.4660   29.5600   37.0960 C   0  0  0  0  0  0  0  0  0  0  0  0
   37.3967   28.6659   44.1442 H   0  0  0  0  0  0  0  0  0  0  0  0
   37.0833   26.3756   43.1371 H   0  0  0  0  0  0  0  0  0  0  0  0
   36.8272   26.2018   40.6179 H   0  0  0  0  0  0  0  0  0  0  0  0
   37.8575   33.9220   40.2618 H   0  0  0  0  0  0  0  0  0  0  0  0
   37.0880   32.9756   37.8724 H   0  0  0  0  0  0  0  0  0  0  0  0
   34.4451   29.5430   38.1918 H   0  0  0  0  0  0  0  0  0  0  0  0
   34.8617   27.8791   36.1935 H   0  0  0  0  0  0  0  0  0  0  0  0
   38.5188   29.8764   37.0568 H   0  0  0  0  0  0  0  0  0  0  0  0
  2  1  2  0
  3  2  1  0
  4  5  1  0
  4  3  2  0
  5  6  2  0
  6  1  1  0
  7  8  1  0
  7  5  1  0
  9  8  2  0
 10 11  2  0
 10  9  1  0
 11  7  1  0
 12 11  1  0
 13 12  1  0
 14 13  2  0
 15 14  1  0
 15 16  2  0
 16 12  1  0
  1 17  1  0
  2 18  1  0
  3 19  1  0
  9 20  1  0
 10 21  1  0
 13 22  1  0
 14 23  1  0
 16 24  1  0
M  ISO  8  17  14  18  14  19  14  20  14  21  14  22  14  23  14  24  14
M  END
>  <minimizedAffinity>  (1) 
-4.26987743

>  <minimizedRMSD>  (1) 
2.04857302

$$$$
