
     RDKit          3D

 24 25  0  0  0  0  0  0  0  0999 V2000
   35.6320   29.3250   40.8600 C   0  0  0  0  0  0  0  0  0  0  0  0
   38.1800   28.6850   43.4150 C   0  0  0  0  0  0  0  0  0  0  0  0
   38.4190   27.3200   43.2770 C   0  0  0  0  0  0  0  0  0  0  0  0
   37.7220   26.5910   42.3180 C   0  0  0  0  0  0  0  0  0  0  0  0
   36.8220   27.2730   41.5470 N   0  0  0  0  0  0  0  0  0  0  0  0
   36.6050   28.5910   41.6950 C   0  0  0  0  0  0  0  0  0  0  0  0
   37.2860   29.2770   42.6240 N   0  0  0  0  0  0  0  0  0  0  0  0
   37.9850   25.2450   42.2110 O   0  0  0  0  0  0  0  0  0  0  0  0
   36.3040   30.2920   39.9340 C   0  0  0  0  0  0  0  0  0  0  0  0
   36.6230   31.5620   40.3630 C   0  0  0  0  0  0  0  0  0  0  0  0
   37.2500   32.4810   39.5200 C   0  0  0  0  0  0  0  0  0  0  0  0
   37.5390   32.0690   38.2360 C   0  0  0  0  0  0  0  0  0  0  0  0
   37.2450   30.8050   37.7420 C   0  0  0  0  0  0  0  0  0  0  0  0
   36.6280   29.9580   38.6340 C   0  0  0  0  0  0  0  0  0  0  0  0
   35.0592   28.6006   40.2624 H   0  0  0  0  0  0  0  0  0  0  0  0
   34.9734   29.8976   41.5296 H   0  0  0  0  0  0  0  0  0  0  0  0
   38.7248   29.2697   44.1709 H   0  0  0  0  0  0  0  0  0  0  0  0
   39.1556   26.8201   43.9232 H   0  0  0  0  0  0  0  0  0  0  0  0
   37.5057   24.6989   41.5386 H   0  0  0  0  0  0  0  0  0  0  0  0
   36.3779   31.8584   41.3936 H   0  0  0  0  0  0  0  0  0  0  0  0
   37.5036   33.4939   39.8661 H   0  0  0  0  0  0  0  0  0  0  0  0
   38.0323   32.7851   37.5623 H   0  0  0  0  0  0  0  0  0  0  0  0
   37.4876   30.5027   36.7126 H   0  0  0  0  0  0  0  0  0  0  0  0
   36.3755   28.9450   38.2875 H   0  0  0  0  0  0  0  0  0  0  0  0
  1  6  1  0
  3  2  2  0
  4  3  1  0
  5  6  1  0
  5  4  2  0
  6  7  2  0
  7  2  1  0
  8  4  1  0
  9 10  2  0
  9  1  1  0
 11 10  1  0
 12 11  2  0
 13 12  1  0
 13 14  2  0
 14  9  1  0
  1 15  1  0
  1 16  1  0
  2 17  1  0
  3 18  1  0
  8 19  1  0
 10 20  1  0
 11 21  1  0
 12 22  1  0
 13 23  1  0
 14 24  1  0
M  ISO  8  15   8  16   8  17  14  18  14  19   3  20  14  21  14  22  14
M  ISO  2  23  14  24  14
M  END
>  <minimizedAffinity>  (1) 
-4.63427782

>  <minimizedRMSD>  (1) 
1.50052595

$$$$
