
     RDKit          3D

 24 25  0  0  0  0  0  0  0  0999 V2000
   36.1090   30.6400   41.0040 C   0  0  0  0  0  0  0  0  0  0  0  0
   36.5620   30.7540   39.5770 C   0  0  0  0  0  0  0  0  0  0  0  0
   36.1160   29.7710   38.7140 C   0  0  0  0  0  0  0  0  0  0  0  0
   36.4630   29.7700   37.3860 C   0  0  0  0  0  0  0  0  0  0  0  0
   37.2760   30.7870   36.9320 C   0  0  0  0  0  0  0  0  0  0  0  0
   37.7290   31.7820   37.8020 C   0  0  0  0  0  0  0  0  0  0  0  0
   37.3760   31.7820   39.1460 C   0  0  0  0  0  0  0  0  0  0  0  0
   38.8370   29.1200   42.9350 C   0  0  0  0  0  0  0  0  0  0  0  0
   38.4090   27.8030   43.0990 C   0  0  0  0  0  0  0  0  0  0  0  0
   37.1840   27.4180   42.5510 C   0  0  0  0  0  0  0  0  0  0  0  0
   36.4560   28.3660   41.8730 N   0  0  0  0  0  0  0  0  0  0  0  0
   36.9120   29.6320   41.7410 C   0  0  0  0  0  0  0  0  0  0  0  0
   38.0790   29.9880   42.2650 N   0  0  0  0  0  0  0  0  0  0  0  0
   36.7870   26.1120   42.7280 O   0  0  0  0  0  0  0  0  0  0  0  0
   35.0510   30.3395   41.0221 H   0  0  0  0  0  0  0  0  0  0  0  0
   36.2419   31.6169   41.4918 H   0  0  0  0  0  0  0  0  0  0  0  0
   35.4678   28.9707   39.1004 H   0  0  0  0  0  0  0  0  0  0  0  0
   36.1042   28.9834   36.7059 H   0  0  0  0  0  0  0  0  0  0  0  0
   37.5713   30.8153   35.8728 H   0  0  0  0  0  0  0  0  0  0  0  0
   38.3781   32.5814   37.4153 H   0  0  0  0  0  0  0  0  0  0  0  0
   37.7287   32.5644   39.8340 H   0  0  0  0  0  0  0  0  0  0  0  0
   39.7997   29.4425   43.3583 H   0  0  0  0  0  0  0  0  0  0  0  0
   39.0265   27.0792   43.6511 H   0  0  0  0  0  0  0  0  0  0  0  0
   35.9245   25.8018   42.3539 H   0  0  0  0  0  0  0  0  0  0  0  0
  1 12  1  0
  2  1  1  0
  3  2  2  0
  4  3  1  0
  5  4  2  0
  5  6  1  0
  6  7  2  0
  7  2  1  0
  8  9  2  0
 10 14  1  0
 10  9  1  0
 11 10  2  0
 12 11  1  0
 12 13  2  0
 13  8  1  0
  1 15  1  0
  1 16  1  0
  3 17  1  0
  4 18  1  0
  5 19  1  0
  6 20  1  0
  7 21  1  0
  8 22  1  0
  9 23  1  0
 14 24  1  0
M  ISO  8  15   8  16   8  17  14  18  14  19  14  20  14  21  14  22  14
M  ISO  2  23  14  24   3
M  END
>  <minimizedAffinity>  (1) 
-4.53853607

>  <minimizedRMSD>  (1) 
0.678342521

$$$$
