
     RDKit          3D

 21 22  0  0  0  0  0  0  0  0999 V2000
   38.1670   29.0710   43.1990 C   0  0  0  0  0  0  0  0  0  0  0  0
   38.1040   27.6820   43.2550 C   0  0  0  0  0  0  0  0  0  0  0  0
   37.2250   27.0020   42.4040 C   0  0  0  0  0  0  0  0  0  0  0  0
   36.4660   27.7610   41.5480 N   0  0  0  0  0  0  0  0  0  0  0  0
   36.5590   29.0980   41.5270 C   0  0  0  0  0  0  0  0  0  0  0  0
   37.3990   29.7440   42.3410 N   0  0  0  0  0  0  0  0  0  0  0  0
   35.7270   29.8920   40.5930 C   0  0  0  0  0  0  0  0  0  0  0  0
   36.4500   30.9990   39.9550 C   0  0  0  0  0  0  0  0  0  0  0  0
   37.0590   31.1640   38.7290 C   0  0  0  0  0  0  0  0  0  0  0  0
   37.6030   32.3870   38.5990 N   0  0  0  0  0  0  0  0  0  0  0  0
   37.3480   33.0500   39.7640 C   0  0  0  0  0  0  0  0  0  0  0  0
   36.6570   32.1990   40.5600 N   0  0  0  0  0  0  0  0  0  0  0  0
   37.1920   25.6390   42.4890 O   0  0  0  0  0  0  0  0  0  0  0  0
   38.8526   29.6158   43.8647 H   0  0  0  0  0  0  0  0  0  0  0  0
   38.7380   27.1246   43.9602 H   0  0  0  0  0  0  0  0  0  0  0  0
   35.3529   29.2216   39.8052 H   0  0  0  0  0  0  0  0  0  0  0  0
   34.9142   30.3375   41.1853 H   0  0  0  0  0  0  0  0  0  0  0  0
   37.0955   30.3880   37.9503 H   0  0  0  0  0  0  0  0  0  0  0  0
   37.6467   34.0797   40.0101 H   0  0  0  0  0  0  0  0  0  0  0  0
   36.3285   32.4325   41.5079 H   0  0  0  0  0  0  0  0  0  0  0  0
   36.5837   25.1212   41.9042 H   0  0  0  0  0  0  0  0  0  0  0  0
  1  2  2  0
  3 13  1  0
  3  2  1  0
  4  3  2  0
  5  4  1  0
  5  6  2  0
  6  1  1  0
  7  5  1  0
  8 12  1  0
  8  7  1  0
  9  8  2  0
 10  9  1  0
 10 11  2  0
 11 12  1  0
  1 14  1  0
  2 15  1  0
  7 16  1  0
  7 17  1  0
  9 18  1  0
 11 19  1  0
 12 20  1  0
 13 21  1  0
M  ISO  8  14  14  15  14  16   8  17   8  18  14  19  14  20   9  21   3
M  END
>  <minimizedAffinity>  (1) 
-4.42350292

>  <minimizedRMSD>  (1) 
1.51773787

$$$$
