
     RDKit          3D

 21 22  0  0  0  0  0  0  0  0999 V2000
   39.0430   29.2210   42.7530 C   0  0  0  0  0  0  0  0  0  0  0  0
   38.6370   27.8950   42.8920 C   0  0  0  0  0  0  0  0  0  0  0  0
   37.3840   27.5210   42.4410 C   0  0  0  0  0  0  0  0  0  0  0  0
   36.6040   28.4940   41.8730 N   0  0  0  0  0  0  0  0  0  0  0  0
   37.0160   29.7640   41.7480 C   0  0  0  0  0  0  0  0  0  0  0  0
   38.2310   30.1230   42.1870 N   0  0  0  0  0  0  0  0  0  0  0  0
   36.1680   30.8090   41.1340 C   0  0  0  0  0  0  0  0  0  0  0  0
   36.8300   31.5600   40.0630 C   0  0  0  0  0  0  0  0  0  0  0  0
   36.9630   30.9820   38.8040 C   0  0  0  0  0  0  0  0  0  0  0  0
   37.6160   31.9060   38.0070 C   0  0  0  0  0  0  0  0  0  0  0  0
   37.8430   32.9820   38.8080 N   0  0  0  0  0  0  0  0  0  0  0  0
   37.3820   32.7730   40.0070 N   0  0  0  0  0  0  0  0  0  0  0  0
   37.0190   26.2080   42.5950 O   0  0  0  0  0  0  0  0  0  0  0  0
   40.0368   29.5286   43.1105 H   0  0  0  0  0  0  0  0  0  0  0  0
   39.3054   27.1543   43.3551 H   0  0  0  0  0  0  0  0  0  0  0  0
   35.2725   30.3263   40.7157 H   0  0  0  0  0  0  0  0  0  0  0  0
   35.9276   31.5313   41.9280 H   0  0  0  0  0  0  0  0  0  0  0  0
   36.6160   29.9832   38.5008 H   0  0  0  0  0  0  0  0  0  0  0  0
   37.8932   31.7940   36.9484 H   0  0  0  0  0  0  0  0  0  0  0  0
   38.3160   33.8457   38.5062 H   0  0  0  0  0  0  0  0  0  0  0  0
   36.1302   25.9017   42.2848 H   0  0  0  0  0  0  0  0  0  0  0  0
  1  2  2  0
  3 13  1  0
  3  2  1  0
  4  3  2  0
  5  4  1  0
  5  6  2  0
  6  1  1  0
  7  5  1  0
  8  7  1  0
  9  8  1  0
 10  9  2  0
 10 11  1  0
 11 12  1  0
 12  8  2  0
  1 14  1  0
  2 15  1  0
  7 16  1  0
  7 17  1  0
  9 18  1  0
 10 19  1  0
 11 20  1  0
 13 21  1  0
M  ISO  8  14  14  15  14  16   8  17   8  18  14  19  14  20   9  21   3
M  END
>  <minimizedAffinity>  (1) 
-4.16873455

>  <minimizedRMSD>  (1) 
1.43547106

$$$$
