
     RDKit          3D

 27 28  0  0  0  0  0  0  0  0999 V2000
   40.4770   27.0750   43.7640 C   0  0  0  0  0  0  0  0  0  0  0  0
   40.6220   25.6760   43.6920 C   0  0  0  0  0  0  0  0  0  0  0  0
   39.5820   24.9120   43.1850 C   0  0  0  0  0  0  0  0  0  0  0  0
   38.4390   25.5740   42.7700 N   0  0  0  0  0  0  0  0  0  0  0  0
   38.3430   26.9170   42.8570 C   0  0  0  0  0  0  0  0  0  0  0  0
   39.3470   27.6460   43.3450 N   0  0  0  0  0  0  0  0  0  0  0  0
   37.1100   27.6050   42.4060 C   0  0  0  0  0  0  0  0  0  0  0  0
   37.3530   28.5970   41.4010 N   0  0  0  0  0  0  0  0  0  0  0  0
   37.0780   29.9360   41.7660 C   0  0  0  0  0  0  0  0  0  0  0  0
   36.1670   30.6850   40.8140 C   0  0  0  0  0  0  0  0  0  0  0  0
   35.2450   29.7520   40.3350 O   0  0  0  0  0  0  0  0  0  0  0  0
   35.9460   28.9530   39.4170 C   0  0  0  0  0  0  0  0  0  0  0  0
   37.0700   28.2000   40.0730 C   0  0  0  0  0  0  0  0  0  0  0  0
   39.7540   23.5620   43.1300 O   0  0  0  0  0  0  0  0  0  0  0  0
   41.2930   27.6946   44.1644 H   0  0  0  0  0  0  0  0  0  0  0  0
   41.5501   25.1948   44.0342 H   0  0  0  0  0  0  0  0  0  0  0  0
   36.4202   26.8529   41.9954 H   0  0  0  0  0  0  0  0  0  0  0  0
   36.6855   28.1215   43.2795 H   0  0  0  0  0  0  0  0  0  0  0  0
   36.6030   29.9286   42.7581 H   0  0  0  0  0  0  0  0  0  0  0  0
   38.0428   30.4640   41.7478 H   0  0  0  0  0  0  0  0  0  0  0  0
   35.6468   31.4963   41.3443 H   0  0  0  0  0  0  0  0  0  0  0  0
   36.7376   31.1405   39.9913 H   0  0  0  0  0  0  0  0  0  0  0  0
   36.3622   29.5981   38.6292 H   0  0  0  0  0  0  0  0  0  0  0  0
   35.2427   28.2185   38.9976 H   0  0  0  0  0  0  0  0  0  0  0  0
   36.8064   27.1321   40.0836 H   0  0  0  0  0  0  0  0  0  0  0  0
   37.9738   28.4175   39.4849 H   0  0  0  0  0  0  0  0  0  0  0  0
   39.0325   22.9852   42.7739 H   0  0  0  0  0  0  0  0  0  0  0  0
  2  1  2  0
  3  2  1  0
  4  5  1  0
  4  3  2  0
  5  6  2  0
  6  1  1  0
  7  5  1  0
  8  9  1  0
  8  7  1  0
 10  9  1  0
 11 10  1  0
 12 13  1  0
 12 11  1  0
 13  8  1  0
 14  3  1  0
  1 15  1  0
  2 16  1  0
  7 17  1  0
  7 18  1  0
  9 19  1  0
  9 20  1  0
 10 21  1  0
 10 22  1  0
 12 23  1  0
 12 24  1  0
 13 25  1  0
 13 26  1  0
 14 27  1  0
M  ISO  8  15  14  16  14  17   8  18   8  19  13  20  13  21  13  22  13
M  ISO  5  23  13  24  13  25  13  26  13  27   3
M  END
>  <minimizedAffinity>  (1) 
-4.12076569

>  <minimizedRMSD>  (1) 
3.25791979

$$$$
