
     RDKit          3D

 21 22  0  0  0  0  0  0  0  0999 V2000
   39.7780   25.9910   43.6800 C   0  0  0  0  0  0  0  0  0  0  0  0
   39.6040   24.7230   43.0900 C   0  0  0  0  0  0  0  0  0  0  0  0
   38.4350   24.4450   42.3700 C   0  0  0  0  0  0  0  0  0  0  0  0
   37.5070   25.4600   42.2830 N   0  0  0  0  0  0  0  0  0  0  0  0
   37.7150   26.6600   42.8640 C   0  0  0  0  0  0  0  0  0  0  0  0
   38.8260   26.9140   43.5460 N   0  0  0  0  0  0  0  0  0  0  0  0
   36.7050   27.7380   42.7600 C   0  0  0  0  0  0  0  0  0  0  0  0
   36.8840   28.4740   41.4360 C   0  0  0  0  0  0  0  0  0  0  0  0
   36.5800   29.9210   41.3550 C   0  0  0  0  0  0  0  0  0  0  0  0
   35.5810   28.9210   40.8030 C   0  0  0  0  0  0  0  0  0  0  0  0
   38.3120   23.2090   41.8190 O   0  0  0  0  0  0  0  0  0  0  0  0
   40.6930   26.2173   44.2470 H   0  0  0  0  0  0  0  0  0  0  0  0
   40.3836   23.9541   43.1945 H   0  0  0  0  0  0  0  0  0  0  0  0
   35.6963   27.3013   42.8037 H   0  0  0  0  0  0  0  0  0  0  0  0
   36.8343   28.4442   43.5934 H   0  0  0  0  0  0  0  0  0  0  0  0
   37.7652   27.8854   41.1410 H   0  0  0  0  0  0  0  0  0  0  0  0
   36.3436   30.4833   42.2704 H   0  0  0  0  0  0  0  0  0  0  0  0
   37.1014   30.7992   40.9466 H   0  0  0  0  0  0  0  0  0  0  0  0
   34.6257   28.7487   41.3204 H   0  0  0  0  0  0  0  0  0  0  0  0
   35.0798   28.7608   39.8370 H   0  0  0  0  0  0  0  0  0  0  0  0
   37.5000   22.9756   41.3030 H   0  0  0  0  0  0  0  0  0  0  0  0
  2  1  2  0
  3  2  1  0
  4  3  2  0
  4  5  1  0
  5  6  2  0
  6  1  1  0
  7  5  1  0
  8  7  1  0
  9  8  1  0
 10  9  1  0
 10  8  1  0
 11  3  1  0
  1 12  1  0
  2 13  1  0
  7 14  1  0
  7 15  1  0
  8 16  1  0
  9 17  1  0
  9 18  1  0
 10 19  1  0
 10 20  1  0
 11 21  1  0
M  ISO  8  12  14  13  14  14   8  15   8  16  13  17  13  18  13  19  13
M  ISO  2  20  13  21   3
M  END
>  <minimizedAffinity>  (1) 
-3.82830787

>  <minimizedRMSD>  (1) 
3.25595522

$$$$
