
     RDKit          3D

 36 37  0  0  0  0  0  0  0  0999 V2000
   36.8950   29.9410   41.3680 C   0  0  0  0  0  0  0  0  0  0  0  0
   38.0100   29.3940   42.0810 C   0  0  0  0  0  0  0  0  0  0  0  0
   39.0990   30.2430   42.1910 C   0  0  0  0  0  0  0  0  0  0  0  0
   39.0870   31.4920   41.6560 N   0  0  0  0  0  0  0  0  0  0  0  0
   38.0100   31.9500   40.9990 C   0  0  0  0  0  0  0  0  0  0  0  0
   36.9280   31.1800   40.8590 N   0  0  0  0  0  0  0  0  0  0  0  0
   37.9480   28.0770   42.6120 N   0  0  0  0  0  0  0  0  0  0  0  0
   37.0220   27.6590   43.5820 C   0  0  0  0  0  0  0  0  0  0  0  0
   36.7560   28.5350   44.5420 N   0  0  0  0  0  0  0  0  0  0  0  0
   36.4850   26.3210   43.3950 N   0  0  0  0  0  0  0  0  0  0  0  0
   36.0950   28.3020   45.2850 H   0  0  0  0  0  0  0  0  0  0  0  0
   38.1630   33.3240   40.4820 C   0  0  0  0  0  0  0  0  0  0  0  0
   37.3220   34.0270   39.6420 C   0  0  0  0  0  0  0  0  0  0  0  0
   37.8760   35.2900   39.4250 C   0  0  0  0  0  0  0  0  0  0  0  0
   39.0420   35.2680   40.1620 C   0  0  0  0  0  0  0  0  0  0  0  0
   39.1740   34.1150   40.7600 O   0  0  0  0  0  0  0  0  0  0  0  0
   40.0390   36.3800   40.2900 C   0  0  0  0  0  0  0  0  0  0  0  0
   39.3850   37.7170   39.9720 C   0  0  0  0  0  0  0  0  0  0  0  0
   41.1490   36.1860   39.2800 C   0  0  0  0  0  0  0  0  0  0  0  0
   40.6540   36.4020   41.6500 C   0  0  0  0  0  0  0  0  0  0  0  0
   35.9902   29.3297   41.2351 H   0  0  0  0  0  0  0  0  0  0  0  0
   39.9964   29.8973   42.7251 H   0  0  0  0  0  0  0  0  0  0  0  0
   38.6258   27.3844   42.2630 H   0  0  0  0  0  0  0  0  0  0  0  0
   35.8002   25.9426   44.0649 H   0  0  0  0  0  0  0  0  0  0  0  0
   36.7893   25.7514   42.5926 H   0  0  0  0  0  0  0  0  0  0  0  0
   36.3779   33.6557   39.2169 H   0  0  0  0  0  0  0  0  0  0  0  0
   37.4765   36.1102   38.8105 H   0  0  0  0  0  0  0  0  0  0  0  0
   39.1322   38.2337   40.9096 H   0  0  0  0  0  0  0  0  0  0  0  0
   40.0818   38.3364   39.3883 H   0  0  0  0  0  0  0  0  0  0  0  0
   38.4683   37.5471   39.3883 H   0  0  0  0  0  0  0  0  0  0  0  0
   42.0998   36.0198   39.8075 H   0  0  0  0  0  0  0  0  0  0  0  0
   40.9224   35.3138   38.6491 H   0  0  0  0  0  0  0  0  0  0  0  0
   41.2317   37.0833   38.6491 H   0  0  0  0  0  0  0  0  0  0  0  0
   39.8608   36.3736   42.4116 H   0  0  0  0  0  0  0  0  0  0  0  0
   41.3093   35.5267   41.7703 H   0  0  0  0  0  0  0  0  0  0  0  0
   41.2451   37.3219   41.7703 H   0  0  0  0  0  0  0  0  0  0  0  0
  1  2  2  0
  2  3  1  0
  2  7  1  0
  4  3  2  0
  5  4  1  0
  6  5  2  0
  6  1  1  0
  7  8  1  0
  8  9  2  0
  9 11  1  0
 10  8  1  0
 12 16  1  0
 12  5  1  0
 13 12  2  0
 14 13  1  0
 14 15  2  0
 15 17  1  0
 15 16  1  0
 17 20  1  0
 18 17  1  0
 19 17  1  0
  1 21  1  0
  3 22  1  0
  7 23  1  0
 10 24  1  0
 10 25  1  0
 13 26  1  0
 14 27  1  0
 18 28  1  0
 18 29  1  0
 18 30  1  0
 19 31  1  0
 19 32  1  0
 19 33  1  0
 20 34  1  0
 20 35  1  0
 20 36  1  0
M  ISO  8  21  14  22  14  26  14  27  14  28   8  29   8  30   8  31   8
M  ISO  5  32   8  33   8  34   8  35   8  36   8
M  END
>  <minimizedAffinity>  (1) 
-4.94971418

>  <minimizedRMSD>  (1) 
1.39094722

$$$$
