
     RDKit          3D

 16 16  0  0  0  0  0  0  0  0999 V2000
   37.3370   28.7020   42.9950 C   0  0  0  0  0  0  0  0  0  0  0  0
   36.6900   27.4920   42.7010 C   0  0  0  0  0  0  0  0  0  0  0  0
   37.4050   26.3080   42.6380 C   0  0  0  0  0  0  0  0  0  0  0  0
   38.7560   26.3830   42.8760 N   0  0  0  0  0  0  0  0  0  0  0  0
   39.3510   27.5610   43.1570 C   0  0  0  0  0  0  0  0  0  0  0  0
   38.6650   28.6970   43.2170 N   0  0  0  0  0  0  0  0  0  0  0  0
   40.8090   27.6260   43.4120 C   0  0  0  0  0  0  0  0  0  0  0  0
   41.2800   28.8950   42.8370 N   0  0  0  0  0  0  0  0  0  0  0  0
   36.7390   25.1570   42.3500 O   0  0  0  0  0  0  0  0  0  0  0  0
   36.7671   29.6416   43.0434 H   0  0  0  0  0  0  0  0  0  0  0  0
   35.6052   27.4841   42.5190 H   0  0  0  0  0  0  0  0  0  0  0  0
   41.0065   27.6031   44.4939 H   0  0  0  0  0  0  0  0  0  0  0  0
   41.3293   26.7685   42.9603 H   0  0  0  0  0  0  0  0  0  0  0  0
   41.5221   29.5472   43.5966 H   0  0  0  0  0  0  0  0  0  0  0  0
   42.1123   28.7206   42.2559 H   0  0  0  0  0  0  0  0  0  0  0  0
   37.2312   24.2995   42.3001 H   0  0  0  0  0  0  0  0  0  0  0  0
  1  6  2  0
  2  1  1  0
  3  2  2  0
  3  4  1  0
  4  5  2  0
  5  6  1  0
  5  7  1  0
  8  7  1  0
  9  3  1  0
  1 10  1  0
  2 11  1  0
  7 12  1  0
  7 13  1  0
  8 14  1  0
  8 15  1  0
  9 16  1  0
M  ISO  7  10  14  11  14  12   8  13   8  14   5  15   5  16   3
M  END
>  <minimizedAffinity>  (1) 
-2.73955035

>  <minimizedRMSD>  (1) 
3.651788

$$$$
