
     RDKit          3D

 40 42  0  0  0  0  0  0  0  0999 V2000
   37.0130   28.3430   42.1980 C   0  0  0  0  0  0  0  0  0  0  0  0
   36.5820   28.2840   40.7650 C   0  0  0  0  0  0  0  0  0  0  0  0
   35.3520   29.1850   40.6640 C   0  0  0  0  0  0  0  0  0  0  0  0
   34.8020   29.0390   39.2550 C   0  0  0  0  0  0  0  0  0  0  0  0
   35.8320   29.7740   38.3860 C   0  0  0  0  0  0  0  0  0  0  0  0
   37.0520   28.8940   38.4170 C   0  0  0  0  0  0  0  0  0  0  0  0
   37.6140   28.7620   39.7960 C   0  0  0  0  0  0  0  0  0  0  0  0
   39.7560   26.6470   43.9260 C   0  0  0  0  0  0  0  0  0  0  0  0
   39.6770   25.3490   43.4040 C   0  0  0  0  0  0  0  0  0  0  0  0
   38.6930   25.0270   42.4590 C   0  0  0  0  0  0  0  0  0  0  0  0
   37.8600   26.0520   42.1130 N   0  0  0  0  0  0  0  0  0  0  0  0
   37.9470   27.2810   42.6160 C   0  0  0  0  0  0  0  0  0  0  0  0
   38.8940   27.5790   43.5230 N   0  0  0  0  0  0  0  0  0  0  0  0
   38.6690   23.7570   41.9920 O   0  0  0  0  0  0  0  0  0  0  0  0
   37.7250   23.3840   41.0480 C   0  0  0  0  0  0  0  0  0  0  0  0
   36.4860   23.9660   40.8530 C   0  0  0  0  0  0  0  0  0  0  0  0
   35.6650   23.4610   39.8580 C   0  0  0  0  0  0  0  0  0  0  0  0
   36.0510   22.4020   39.0620 C   0  0  0  0  0  0  0  0  0  0  0  0
   37.2870   21.7990   39.2350 C   0  0  0  0  0  0  0  0  0  0  0  0
   38.1060   22.3170   40.2430 C   0  0  0  0  0  0  0  0  0  0  0  0
   36.1135   28.2725   42.8273 H   0  0  0  0  0  0  0  0  0  0  0  0
   37.5570   29.2919   42.3148 H   0  0  0  0  0  0  0  0  0  0  0  0
   36.3901   27.2345   40.4971 H   0  0  0  0  0  0  0  0  0  0  0  0
   34.5948   28.8727   41.3983 H   0  0  0  0  0  0  0  0  0  0  0  0
   35.6169   30.2320   40.8730 H   0  0  0  0  0  0  0  0  0  0  0  0
   34.7319   27.9792   38.9689 H   0  0  0  0  0  0  0  0  0  0  0  0
   33.7857   29.4464   39.1491 H   0  0  0  0  0  0  0  0  0  0  0  0
   36.0575   30.7654   38.8059 H   0  0  0  0  0  0  0  0  0  0  0  0
   35.4675   29.9457   37.3625 H   0  0  0  0  0  0  0  0  0  0  0  0
   36.7781   27.8945   38.0482 H   0  0  0  0  0  0  0  0  0  0  0  0
   37.8204   29.3569   37.7804 H   0  0  0  0  0  0  0  0  0  0  0  0
   38.4456   28.0422   39.7756 H   0  0  0  0  0  0  0  0  0  0  0  0
   37.9615   29.7531   40.1232 H   0  0  0  0  0  0  0  0  0  0  0  0
   40.5291   26.8960   44.6678 H   0  0  0  0  0  0  0  0  0  0  0  0
   40.3896   24.5801   43.7370 H   0  0  0  0  0  0  0  0  0  0  0  0
   36.1591   24.8123   41.4750 H   0  0  0  0  0  0  0  0  0  0  0  0
   34.6770   23.9173   39.6979 H   0  0  0  0  0  0  0  0  0  0  0  0
   35.3701   22.0321   38.2813 H   0  0  0  0  0  0  0  0  0  0  0  0
   37.6083   20.9533   38.6092 H   0  0  0  0  0  0  0  0  0  0  0  0
   39.0936   21.8607   40.4057 H   0  0  0  0  0  0  0  0  0  0  0  0
  1 12  1  0
  2  1  1  0
  3  2  1  0
  4  3  1  0
  5  6  1  0
  5  4  1  0
  6  7  1  0
  7  2  1  0
  9  8  2  0
 10  9  1  0
 11 10  2  0
 11 12  1  0
 12 13  2  0
 13  8  1  0
 14 10  1  0
 15 14  1  0
 16 15  2  0
 17 16  1  0
 18 19  1  0
 18 17  2  0
 19 20  2  0
 20 15  1  0
  1 21  1  0
  1 22  1  0
  2 23  1  0
  3 24  1  0
  3 25  1  0
  4 26  1  0
  4 27  1  0
  5 28  1  0
  5 29  1  0
  6 30  1  0
  6 31  1  0
  7 32  1  0
  7 33  1  0
  8 34  1  0
  9 35  1  0
 16 36  1  0
 17 37  1  0
 18 38  1  0
 19 39  1  0
 20 40  1  0
M  ISO  8  21   8  22   8  23  13  24  13  25  13  26  13  27  13  28  13
M  ISO  8  29  13  30  13  31  13  32  13  33  13  34  14  35  14  36  14
M  ISO  4  37  14  38  14  39  14  40  14
M  END
>  <minimizedAffinity>  (1) 
-5.13455009

>  <minimizedRMSD>  (1) 
0.563598275

$$$$
