
     RDKit          3D

 37 39  0  0  0  0  0  0  0  0999 V2000
   35.8320   30.2330   40.4880 C   0  0  0  0  0  0  0  0  0  0  0  0
   35.8470   29.4200   39.2510 C   0  0  0  0  0  0  0  0  0  0  0  0
   34.3900   29.0150   38.9970 C   0  0  0  0  0  0  0  0  0  0  0  0
   34.3740   28.0780   37.8070 C   0  0  0  0  0  0  0  0  0  0  0  0
   34.7150   28.9840   36.6100 C   0  0  0  0  0  0  0  0  0  0  0  0
   36.1610   29.3670   36.8000 C   0  0  0  0  0  0  0  0  0  0  0  0
   36.3910   30.1310   38.0550 C   0  0  0  0  0  0  0  0  0  0  0  0
   38.2360   29.1490   43.0280 C   0  0  0  0  0  0  0  0  0  0  0  0
   39.3050   30.0350   42.8290 C   0  0  0  0  0  0  0  0  0  0  0  0
   39.2200   31.0130   41.8250 C   0  0  0  0  0  0  0  0  0  0  0  0
   38.0610   31.0100   41.1110 N   0  0  0  0  0  0  0  0  0  0  0  0
   37.0580   30.1630   41.3150 C   0  0  0  0  0  0  0  0  0  0  0  0
   37.1470   29.2360   42.2710 N   0  0  0  0  0  0  0  0  0  0  0  0
   40.2820   31.8370   41.6810 O   0  0  0  0  0  0  0  0  0  0  0  0
   40.5160   32.5210   40.5040 C   0  0  0  0  0  0  0  0  0  0  0  0
   41.1150   32.2540   39.2790 C   0  0  0  0  0  0  0  0  0  0  0  0
   41.0460   33.3570   38.4670 C   0  0  0  0  0  0  0  0  0  0  0  0
   40.3990   34.3010   39.2080 N   0  0  0  0  0  0  0  0  0  0  0  0
   40.0910   33.8140   40.3890 N   0  0  0  0  0  0  0  0  0  0  0  0
   34.9874   29.8936   41.1057 H   0  0  0  0  0  0  0  0  0  0  0  0
   35.7506   31.2795   40.1590 H   0  0  0  0  0  0  0  0  0  0  0  0
   36.5192   28.5619   39.3982 H   0  0  0  0  0  0  0  0  0  0  0  0
   33.9834   28.5038   39.8820 H   0  0  0  0  0  0  0  0  0  0  0  0
   33.7723   29.9029   38.7969 H   0  0  0  0  0  0  0  0  0  0  0  0
   35.1279   27.2856   37.9240 H   0  0  0  0  0  0  0  0  0  0  0  0
   33.4081   27.5656   37.6865 H   0  0  0  0  0  0  0  0  0  0  0  0
   34.0760   29.8794   36.6102 H   0  0  0  0  0  0  0  0  0  0  0  0
   34.5486   28.4744   35.6495 H   0  0  0  0  0  0  0  0  0  0  0  0
   36.7672   28.4496   36.8301 H   0  0  0  0  0  0  0  0  0  0  0  0
   36.4468   30.0153   35.9586 H   0  0  0  0  0  0  0  0  0  0  0  0
   37.4731   30.2754   38.1895 H   0  0  0  0  0  0  0  0  0  0  0  0
   35.8688   31.0951   37.9663 H   0  0  0  0  0  0  0  0  0  0  0  0
   38.2991   28.3804   43.8124 H   0  0  0  0  0  0  0  0  0  0  0  0
   40.2057   29.9640   43.4565 H   0  0  0  0  0  0  0  0  0  0  0  0
   41.5779   31.2958   39.0006 H   0  0  0  0  0  0  0  0  0  0  0  0
   41.4293   33.4581   37.4409 H   0  0  0  0  0  0  0  0  0  0  0  0
   40.1832   35.2562   38.8888 H   0  0  0  0  0  0  0  0  0  0  0  0
  1 12  1  0
  2  1  1  0
  3  2  1  0
  4  3  1  0
  5  6  1  0
  5  4  1  0
  6  7  1  0
  7  2  1  0
  9  8  2  0
 10  9  1  0
 11 12  1  0
 11 10  2  0
 12 13  2  0
 13  8  1  0
 14 10  1  0
 15 14  1  0
 16 15  1  0
 17 18  1  0
 17 16  2  0
 18 19  1  0
 19 15  2  0
  1 20  1  0
  1 21  1  0
  2 22  1  0
  3 23  1  0
  3 24  1  0
  4 25  1  0
  4 26  1  0
  5 27  1  0
  5 28  1  0
  6 29  1  0
  6 30  1  0
  7 31  1  0
  7 32  1  0
  8 33  1  0
  9 34  1  0
 16 35  1  0
 17 36  1  0
 18 37  1  0
M  ISO  8  20   8  21   8  22  13  23  13  24  13  25  13  26  13  27  13
M  ISO  8  28  13  29  13  30  13  31  13  32  13  33  14  34  14  35  14
M  ISO  2  36  14  37   9
M  END
>  <minimizedAffinity>  (1) 
-4.84149313

>  <minimizedRMSD>  (1) 
6.83710384

$$$$
