
     RDKit          3D

 17 18  0  0  0  0  0  0  0  0999 V2000
   37.8370   30.1480   41.7120 C   0  0  0  0  0  0  0  0  0  0  0  0
   37.7010   28.7890   42.0330 C   0  0  0  0  0  0  0  0  0  0  0  0
   36.5140   28.1500   41.6230 C   0  0  0  0  0  0  0  0  0  0  0  0
   35.5800   28.8680   40.9500 N   0  0  0  0  0  0  0  0  0  0  0  0
   35.7490   30.1870   40.6570 C   0  0  0  0  0  0  0  0  0  0  0  0
   36.8810   30.8320   41.0380 N   0  0  0  0  0  0  0  0  0  0  0  0
   38.6890   28.0810   42.7310 N   0  0  0  0  0  0  0  0  0  0  0  0
   38.4970   26.9440   43.4100 C   0  0  0  0  0  0  0  0  0  0  0  0
   39.7430   26.6190   43.9260 C   0  0  0  0  0  0  0  0  0  0  0  0
   40.6650   27.5460   43.5630 N   0  0  0  0  0  0  0  0  0  0  0  0
   39.9670   28.4290   42.8250 C   0  0  0  0  0  0  0  0  0  0  0  0
   38.7517   30.6767   42.0182 H   0  0  0  0  0  0  0  0  0  0  0  0
   36.3472   27.0856   41.8451 H   0  0  0  0  0  0  0  0  0  0  0  0
   34.9656   30.7317   40.1097 H   0  0  0  0  0  0  0  0  0  0  0  0
   37.5558   26.3880   43.5324 H   0  0  0  0  0  0  0  0  0  0  0  0
   39.9541   25.7334   44.5433 H   0  0  0  0  0  0  0  0  0  0  0  0
   40.4006   29.3259   42.3585 H   0  0  0  0  0  0  0  0  0  0  0  0
  1  2  2  0
  2  7  1  0
  3  2  1  0
  4  3  2  0
  5  4  1  0
  5  6  2  0
  6  1  1  0
  7 11  1  0
  7  8  1  0
  8  9  2  0
 10  9  1  0
 11 10  2  0
  1 12  1  0
  3 13  1  0
  5 14  1  0
  8 15  1  0
  9 16  1  0
 11 17  1  0
M  ISO  6  12  14  13  14  14  14  15  14  16  14  17  14
M  END
>  <minimizedAffinity>  (1) 
-3.29139447

>  <minimizedRMSD>  (1) 
2.38386488

$$$$
