
     RDKit          3D

 24 26  0  0  0  0  0  0  0  0999 V2000
   36.6670   28.4550   41.7810 N   0  0  0  0  0  0  0  0  0  0  0  0
   36.5900   27.5360   42.7670 C   0  0  0  0  0  0  0  0  0  0  0  0
   37.4090   28.0620   43.7720 C   0  0  0  0  0  0  0  0  0  0  0  0
   37.9530   29.2550   43.3930 N   0  0  0  0  0  0  0  0  0  0  0  0
   37.4620   29.4580   42.1460 C   0  0  0  0  0  0  0  0  0  0  0  0
   37.9100   30.6600   41.5370 N   0  0  0  0  0  0  0  0  0  0  0  0
   37.3170   31.6530   40.8920 N   0  0  0  0  0  0  0  0  0  0  0  0
   38.2260   32.5720   40.5210 C   0  0  0  0  0  0  0  0  0  0  0  0
   39.4800   32.1710   40.9390 C   0  0  0  0  0  0  0  0  0  0  0  0
   39.2350   30.9670   41.5720 C   0  0  0  0  0  0  0  0  0  0  0  0
   34.8670   29.1310   40.2460 C   0  0  0  0  0  0  0  0  0  0  0  0
   36.0090   28.3630   40.5590 C   0  0  0  0  0  0  0  0  0  0  0  0
   36.4810   27.4660   39.5590 C   0  0  0  0  0  0  0  0  0  0  0  0
   35.8170   27.3980   38.3740 N   0  0  0  0  0  0  0  0  0  0  0  0
   34.7100   28.1730   38.1270 C   0  0  0  0  0  0  0  0  0  0  0  0
   34.2290   29.0460   39.0670 N   0  0  0  0  0  0  0  0  0  0  0  0
   36.0186   26.5961   42.7777 H   0  0  0  0  0  0  0  0  0  0  0  0
   37.5910   27.5767   44.7423 H   0  0  0  0  0  0  0  0  0  0  0  0
   38.0054   33.4985   39.9706 H   0  0  0  0  0  0  0  0  0  0  0  0
   40.4422   32.6860   40.8012 H   0  0  0  0  0  0  0  0  0  0  0  0
   40.0080   30.3407   42.0413 H   0  0  0  0  0  0  0  0  0  0  0  0
   34.4819   29.8311   41.0020 H   0  0  0  0  0  0  0  0  0  0  0  0
   37.3665   26.8395   39.7415 H   0  0  0  0  0  0  0  0  0  0  0  0
   34.2000   28.0911   37.1558 H   0  0  0  0  0  0  0  0  0  0  0  0
  1  5  1  0
  1  2  1  0
  2  3  2  0
  4  3  1  0
  5  4  2  0
  6 10  1  0
  6  5  1  0
  7  6  1  0
  8  7  2  0
  8  9  1  0
  9 10  2  0
 11 12  2  0
 12  1  1  0
 13 12  1  0
 14 13  2  0
 15 14  1  0
 15 16  2  0
 16 11  1  0
  2 17  1  0
  3 18  1  0
  8 19  1  0
  9 20  1  0
 10 21  1  0
 11 22  1  0
 13 23  1  0
 15 24  1  0
M  ISO  8  17  14  18  14  19  14  20  14  21  14  22  14  23  14  24  14
M  END
>  <minimizedAffinity>  (1) 
-4.44026947

>  <minimizedRMSD>  (1) 
3.0956645

$$$$
