
     RDKit          3D

 30 32  0  0  0  0  0  0  0  0999 V2000
   38.5320   28.0980   42.5340 N   0  0  0  0  0  0  0  0  0  0  0  0
   38.4590   26.9910   43.2830 C   0  0  0  0  0  0  0  0  0  0  0  0
   39.7070   26.8080   43.8250 C   0  0  0  0  0  0  0  0  0  0  0  0
   40.5210   27.8030   43.4020 N   0  0  0  0  0  0  0  0  0  0  0  0
   39.7560   28.5760   42.6100 C   0  0  0  0  0  0  0  0  0  0  0  0
   40.4480   29.7010   42.0830 N   0  0  0  0  0  0  0  0  0  0  0  0
   40.8470   30.9820   42.6730 C   0  0  0  0  0  0  0  0  0  0  0  0
   41.6340   31.7260   41.6190 C   0  0  0  0  0  0  0  0  0  0  0  0
   40.7990   31.9750   40.5340 O   0  0  0  0  0  0  0  0  0  0  0  0
   40.3250   30.8270   39.9550 C   0  0  0  0  0  0  0  0  0  0  0  0
   40.8200   29.5730   40.6640 C   0  0  0  0  0  0  0  0  0  0  0  0
   37.1270   29.9800   41.8130 C   0  0  0  0  0  0  0  0  0  0  0  0
   37.4940   28.6450   41.7930 C   0  0  0  0  0  0  0  0  0  0  0  0
   36.7210   27.8300   40.9270 C   0  0  0  0  0  0  0  0  0  0  0  0
   35.7140   28.3640   40.1980 N   0  0  0  0  0  0  0  0  0  0  0  0
   35.4090   29.6870   40.2670 C   0  0  0  0  0  0  0  0  0  0  0  0
   36.1210   30.4890   41.0800 N   0  0  0  0  0  0  0  0  0  0  0  0
   37.5748   26.3544   43.4342 H   0  0  0  0  0  0  0  0  0  0  0  0
   39.9983   25.9855   44.4949 H   0  0  0  0  0  0  0  0  0  0  0  0
   39.9561   31.5607   42.9583 H   0  0  0  0  0  0  0  0  0  0  0  0
   41.4518   30.8265   43.5786 H   0  0  0  0  0  0  0  0  0  0  0  0
   41.9986   32.6781   42.0321 H   0  0  0  0  0  0  0  0  0  0  0  0
   42.4963   31.1228   41.2986 H   0  0  0  0  0  0  0  0  0  0  0  0
   39.2256   30.8417   39.9893 H   0  0  0  0  0  0  0  0  0  0  0  0
   40.6951   30.7956   38.9196 H   0  0  0  0  0  0  0  0  0  0  0  0
   40.3452   28.6814   40.2286 H   0  0  0  0  0  0  0  0  0  0  0  0
   41.9091   29.4655   40.5535 H   0  0  0  0  0  0  0  0  0  0  0  0
   37.6904   30.6631   42.4656 H   0  0  0  0  0  0  0  0  0  0  0  0
   36.9419   26.7554   40.8474 H   0  0  0  0  0  0  0  0  0  0  0  0
   34.5869   30.0987   39.6632 H   0  0  0  0  0  0  0  0  0  0  0  0
  1  5  1  0
  1  2  1  0
  2  3  2  0
  4  3  1  0
  5  4  2  0
  6  5  1  0
  6  7  1  0
  8  7  1  0
  9  8  1  0
 10  9  1  0
 10 11  1  0
 11  6  1  0
 13 12  2  0
 13  1  1  0
 14 13  1  0
 15 16  1  0
 15 14  2  0
 16 17  2  0
 17 12  1  0
  2 18  1  0
  3 19  1  0
  7 20  1  0
  7 21  1  0
  8 22  1  0
  8 23  1  0
 10 24  1  0
 10 25  1  0
 11 26  1  0
 11 27  1  0
 12 28  1  0
 14 29  1  0
 16 30  1  0
M  ISO  8  18  14  19  14  20  13  21  13  22  13  23  13  24  13  25  13
M  ISO  5  26  13  27  13  28  14  29  14  30  14
M  END
>  <minimizedAffinity>  (1) 
-4.16582012

>  <minimizedRMSD>  (1) 
0.622474432

$$$$
