
     RDKit          3D

 32 34  0  0  0  0  0  0  0  0999 V2000
   38.4870   27.9970   42.5930 N   0  0  0  0  0  0  0  0  0  0  0  0
   38.3150   27.0400   43.5150 C   0  0  0  0  0  0  0  0  0  0  0  0
   39.5770   26.7370   43.9740 C   0  0  0  0  0  0  0  0  0  0  0  0
   40.5010   27.5030   43.3370 N   0  0  0  0  0  0  0  0  0  0  0  0
   39.7910   28.2710   42.4910 C   0  0  0  0  0  0  0  0  0  0  0  0
   40.5920   29.1630   41.7250 N   0  0  0  0  0  0  0  0  0  0  0  0
   40.4670   29.4230   40.2810 C   0  0  0  0  0  0  0  0  0  0  0  0
   41.0060   30.7900   39.9390 C   0  0  0  0  0  0  0  0  0  0  0  0
   40.6190   31.7410   41.0390 C   0  0  0  0  0  0  0  0  0  0  0  0
   41.3980   31.4000   42.2950 C   0  0  0  0  0  0  0  0  0  0  0  0
   41.6280   29.9050   42.4010 C   0  0  0  0  0  0  0  0  0  0  0  0
   37.1880   29.9690   41.9200 C   0  0  0  0  0  0  0  0  0  0  0  0
   37.4840   28.6110   41.8450 C   0  0  0  0  0  0  0  0  0  0  0  0
   36.7030   27.8350   40.9470 C   0  0  0  0  0  0  0  0  0  0  0  0
   35.7300   28.4370   40.2220 N   0  0  0  0  0  0  0  0  0  0  0  0
   35.4770   29.7790   40.3300 C   0  0  0  0  0  0  0  0  0  0  0  0
   36.2050   30.5290   41.1740 N   0  0  0  0  0  0  0  0  0  0  0  0
   37.3643   26.5905   43.8376 H   0  0  0  0  0  0  0  0  0  0  0  0
   39.8041   25.9848   44.7438 H   0  0  0  0  0  0  0  0  0  0  0  0
   41.0345   28.6614   39.7261 H   0  0  0  0  0  0  0  0  0  0  0  0
   39.4032   29.3817   40.0040 H   0  0  0  0  0  0  0  0  0  0  0  0
   42.1018   30.7467   39.8535 H   0  0  0  0  0  0  0  0  0  0  0  0
   40.5899   31.1316   38.9798 H   0  0  0  0  0  0  0  0  0  0  0  0
   40.8503   32.7716   40.7318 H   0  0  0  0  0  0  0  0  0  0  0  0
   39.5410   31.6530   41.2393 H   0  0  0  0  0  0  0  0  0  0  0  0
   42.3708   31.9127   42.2656 H   0  0  0  0  0  0  0  0  0  0  0  0
   40.8163   31.7285   43.1689 H   0  0  0  0  0  0  0  0  0  0  0  0
   41.6379   29.6190   43.4631 H   0  0  0  0  0  0  0  0  0  0  0  0
   42.5904   29.6685   41.9236 H   0  0  0  0  0  0  0  0  0  0  0  0
   37.7683   30.6056   42.6041 H   0  0  0  0  0  0  0  0  0  0  0  0
   36.8867   26.7556   40.8415 H   0  0  0  0  0  0  0  0  0  0  0  0
   34.6807   30.2408   39.7279 H   0  0  0  0  0  0  0  0  0  0  0  0
  1  2  1  0
  2  3  2  0
  4  3  1  0
  5  1  1  0
  5  4  2  0
  6 11  1  0
  6  5  1  0
  7  6  1  0
  8  7  1  0
  8  9  1  0
  9 10  1  0
 10 11  1  0
 13 12  2  0
 13  1  1  0
 14 13  1  0
 15 16  1  0
 15 14  2  0
 16 17  2  0
 17 12  1  0
  2 18  1  0
  3 19  1  0
  7 20  1  0
  7 21  1  0
  8 22  1  0
  8 23  1  0
  9 24  1  0
  9 25  1  0
 10 26  1  0
 10 27  1  0
 11 28  1  0
 11 29  1  0
 12 30  1  0
 14 31  1  0
 16 32  1  0
M  ISO  8  18  14  19  14  20  13  21  13  22  13  23  13  24  13  25  13
M  ISO  7  26  13  27  13  28  13  29  13  30  14  31  14  32  14
M  END
>  <minimizedAffinity>  (1) 
-4.109972

>  <minimizedRMSD>  (1) 
0.792322695

$$$$
