
     RDKit          3D

 29 31  0  0  0  0  0  0  0  0999 V2000
   38.4810   28.0750   42.5490 N   0  0  0  0  0  0  0  0  0  0  0  0
   38.4140   26.9630   43.2880 C   0  0  0  0  0  0  0  0  0  0  0  0
   39.6690   26.7990   43.8120 C   0  0  0  0  0  0  0  0  0  0  0  0
   40.4930   27.7940   43.4000 N   0  0  0  0  0  0  0  0  0  0  0  0
   39.7180   28.5770   42.6120 C   0  0  0  0  0  0  0  0  0  0  0  0
   40.3690   29.7370   42.0540 N   0  0  0  0  0  0  0  0  0  0  0  0
   40.6500   31.1090   42.4430 C   0  0  0  0  0  0  0  0  0  0  0  0
   40.5180   31.9370   41.1990 C   0  0  0  0  0  0  0  0  0  0  0  0
   40.7630   30.9890   40.0590 C   0  0  0  0  0  0  0  0  0  0  0  0
   40.9330   29.6300   40.6960 C   0  0  0  0  0  0  0  0  0  0  0  0
   37.1080   29.9880   41.8240 C   0  0  0  0  0  0  0  0  0  0  0  0
   37.4460   28.6420   41.7990 C   0  0  0  0  0  0  0  0  0  0  0  0
   36.6900   27.8140   40.9240 C   0  0  0  0  0  0  0  0  0  0  0  0
   35.7100   28.3580   40.1750 N   0  0  0  0  0  0  0  0  0  0  0  0
   35.4250   29.6980   40.2430 C   0  0  0  0  0  0  0  0  0  0  0  0
   36.1250   30.5130   41.0700 N   0  0  0  0  0  0  0  0  0  0  0  0
   37.5373   26.3169   43.4425 H   0  0  0  0  0  0  0  0  0  0  0  0
   39.9672   25.9739   44.4755 H   0  0  0  0  0  0  0  0  0  0  0  0
   39.9281   31.4448   43.2020 H   0  0  0  0  0  0  0  0  0  0  0  0
   41.6555   31.2020   42.8793 H   0  0  0  0  0  0  0  0  0  0  0  0
   39.5088   32.3690   41.1298 H   0  0  0  0  0  0  0  0  0  0  0  0
   41.2273   32.7778   41.1907 H   0  0  0  0  0  0  0  0  0  0  0  0
   41.6732   31.2735   39.5108 H   0  0  0  0  0  0  0  0  0  0  0  0
   39.9363   30.9999   39.3334 H   0  0  0  0  0  0  0  0  0  0  0  0
   40.3911   28.8675   40.1173 H   0  0  0  0  0  0  0  0  0  0  0  0
   41.9912   29.3310   40.7246 H   0  0  0  0  0  0  0  0  0  0  0  0
   37.6704   30.6572   42.4918 H   0  0  0  0  0  0  0  0  0  0  0  0
   36.9035   26.7369   40.8588 H   0  0  0  0  0  0  0  0  0  0  0  0
   34.6202   30.1157   39.6202 H   0  0  0  0  0  0  0  0  0  0  0  0
  1  5  1  0
  1  2  1  0
  2  3  2  0
  4  3  1  0
  5  4  2  0
  6  7  1  0
  6  5  1  0
  8  7  1  0
  9 10  1  0
  9  8  1  0
 10  6  1  0
 12 11  2  0
 12  1  1  0
 13 12  1  0
 14 15  1  0
 14 13  2  0
 15 16  2  0
 16 11  1  0
  2 17  1  0
  3 18  1  0
  7 19  1  0
  7 20  1  0
  8 21  1  0
  8 22  1  0
  9 23  1  0
  9 24  1  0
 10 25  1  0
 10 26  1  0
 11 27  1  0
 13 28  1  0
 15 29  1  0
M  ISO  8  17  14  18  14  19  13  20  13  21  13  22  13  23  13  24  13
M  ISO  5  25  13  26  13  27  14  28  14  29  14
M  END
>  <minimizedAffinity>  (1) 
-4.01469421

>  <minimizedRMSD>  (1) 
0.585879087

$$$$
