
     RDKit          3D

 23 25  0  0  0  0  0  0  0  0999 V2000
   38.5150   28.0800   42.4750 N   0  0  0  0  0  0  0  0  0  0  0  0
   38.4200   26.9920   43.2670 C   0  0  0  0  0  0  0  0  0  0  0  0
   39.7050   26.8700   43.8080 C   0  0  0  0  0  0  0  0  0  0  0  0
   40.5250   27.8620   43.3410 N   0  0  0  0  0  0  0  0  0  0  0  0
   39.7530   28.5870   42.5230 C   0  0  0  0  0  0  0  0  0  0  0  0
   40.4100   29.6860   41.9070 N   0  0  0  0  0  0  0  0  0  0  0  0
   40.7520   30.8160   42.5970 C   0  0  0  0  0  0  0  0  0  0  0  0
   41.3460   31.7090   41.8230 N   0  0  0  0  0  0  0  0  0  0  0  0
   41.3850   31.1360   40.6050 C   0  0  0  0  0  0  0  0  0  0  0  0
   40.8220   29.9150   40.6480 N   0  0  0  0  0  0  0  0  0  0  0  0
   37.0820   29.9550   41.7840 C   0  0  0  0  0  0  0  0  0  0  0  0
   37.4710   28.6000   41.7190 C   0  0  0  0  0  0  0  0  0  0  0  0
   36.7380   27.7680   40.8280 C   0  0  0  0  0  0  0  0  0  0  0  0
   35.7320   28.3020   40.1090 N   0  0  0  0  0  0  0  0  0  0  0  0
   35.3940   29.6270   40.2110 C   0  0  0  0  0  0  0  0  0  0  0  0
   36.0680   30.4700   41.0530 N   0  0  0  0  0  0  0  0  0  0  0  0
   37.5423   26.3533   43.4450 H   0  0  0  0  0  0  0  0  0  0  0  0
   40.0141   26.0839   44.5126 H   0  0  0  0  0  0  0  0  0  0  0  0
   40.5562   30.9647   43.6692 H   0  0  0  0  0  0  0  0  0  0  0  0
   41.8151   31.5994   39.7049 H   0  0  0  0  0  0  0  0  0  0  0  0
   37.6306   30.6248   42.4625 H   0  0  0  0  0  0  0  0  0  0  0  0
   36.9896   26.7019   40.7274 H   0  0  0  0  0  0  0  0  0  0  0  0
   34.5650   30.0202   39.6043 H   0  0  0  0  0  0  0  0  0  0  0  0
  1  5  1  0
  1  2  1  0
  2  3  2  0
  4  3  1  0
  5  4  2  0
  6  5  1  0
  6  7  1  0
  8  7  2  0
  9 10  2  0
  9  8  1  0
 10  6  1  0
 12 11  2  0
 12  1  1  0
 13 12  1  0
 14 15  1  0
 14 13  2  0
 15 16  2  0
 16 11  1  0
  2 17  1  0
  3 18  1  0
  7 19  1  0
  9 20  1  0
 11 21  1  0
 13 22  1  0
 15 23  1  0
M  ISO  7  17  14  18  14  19  14  20  14  21  14  22  14  23  14
M  END
>  <minimizedAffinity>  (1) 
-3.91549635

>  <minimizedRMSD>  (1) 
0.656687737

$$$$
