
     RDKit          3D

 24 26  0  0  0  0  0  0  0  0999 V2000
   38.5210   28.0470   42.3880 N   0  0  0  0  0  0  0  0  0  0  0  0
   38.3780   26.9170   43.1520 C   0  0  0  0  0  0  0  0  0  0  0  0
   39.6210   26.8330   43.7790 C   0  0  0  0  0  0  0  0  0  0  0  0
   40.4210   27.8310   43.4100 N   0  0  0  0  0  0  0  0  0  0  0  0
   39.7050   28.6000   42.5120 C   0  0  0  0  0  0  0  0  0  0  0  0
   37.0380   29.9200   41.7480 C   0  0  0  0  0  0  0  0  0  0  0  0
   37.4460   28.5640   41.6310 C   0  0  0  0  0  0  0  0  0  0  0  0
   36.7310   27.7070   40.7250 C   0  0  0  0  0  0  0  0  0  0  0  0
   35.6980   28.2580   40.0290 N   0  0  0  0  0  0  0  0  0  0  0  0
   35.3490   29.5870   40.1820 C   0  0  0  0  0  0  0  0  0  0  0  0
   36.0150   30.4370   41.0450 N   0  0  0  0  0  0  0  0  0  0  0  0
   40.4610   29.6970   41.9420 C   0  0  0  0  0  0  0  0  0  0  0  0
   40.7070   30.9360   42.5670 C   0  0  0  0  0  0  0  0  0  0  0  0
   41.3800   31.7930   41.7940 N   0  0  0  0  0  0  0  0  0  0  0  0
   41.6100   31.1800   40.6460 C   0  0  0  0  0  0  0  0  0  0  0  0
   41.0610   29.9900   40.7990 N   0  0  0  0  0  0  0  0  0  0  0  0
   37.5084   26.2499   43.2459 H   0  0  0  0  0  0  0  0  0  0  0  0
   39.9045   26.0419   44.4888 H   0  0  0  0  0  0  0  0  0  0  0  0
   37.5826   30.5752   42.4438 H   0  0  0  0  0  0  0  0  0  0  0  0
   37.0068   26.6496   40.5990 H   0  0  0  0  0  0  0  0  0  0  0  0
   34.5083   29.9836   39.5939 H   0  0  0  0  0  0  0  0  0  0  0  0
   40.3777   31.1737   43.5893 H   0  0  0  0  0  0  0  0  0  0  0  0
   42.1383   31.5722   39.7645 H   0  0  0  0  0  0  0  0  0  0  0  0
   41.0988   29.2971   40.0379 H   0  0  0  0  0  0  0  0  0  0  0  0
  1  5  1  0
  1  2  1  0
  2  3  2  0
  4  3  1  0
  5  4  2  0
  7  6  2  0
  7  1  1  0
  8  7  1  0
  9 10  1  0
  9  8  2  0
 10 11  2  0
 11  6  1  0
 12  5  1  0
 12 13  2  0
 14 13  1  0
 15 16  1  0
 15 14  2  0
 16 12  1  0
  2 17  1  0
  3 18  1  0
  6 19  1  0
  8 20  1  0
 10 21  1  0
 13 22  1  0
 15 23  1  0
 16 24  1  0
M  ISO  8  17  14  18  14  19  14  20  14  21  14  22  14  23  14  24   9
M  END
>  <minimizedAffinity>  (1) 
-3.68753624

>  <minimizedRMSD>  (1) 
0.783096552

$$$$
