
     RDKit          3D

 29 30  0  0  0  0  0  0  0  0999 V2000
   38.5350   27.9660   42.5100 N   0  0  0  0  0  0  0  0  0  0  0  0
   38.3050   26.8760   43.3010 C   0  0  0  0  0  0  0  0  0  0  0  0
   39.5320   26.7040   43.9110 C   0  0  0  0  0  0  0  0  0  0  0  0
   40.4420   27.6420   43.5020 N   0  0  0  0  0  0  0  0  0  0  0  0
   39.7930   28.4180   42.6240 C   0  0  0  0  0  0  0  0  0  0  0  0
   37.0950   29.8310   41.9300 C   0  0  0  0  0  0  0  0  0  0  0  0
   37.5410   28.5340   41.7100 C   0  0  0  0  0  0  0  0  0  0  0  0
   36.9360   27.8060   40.6470 C   0  0  0  0  0  0  0  0  0  0  0  0
   35.9670   28.4140   39.9120 N   0  0  0  0  0  0  0  0  0  0  0  0
   35.5600   29.7050   40.1680 C   0  0  0  0  0  0  0  0  0  0  0  0
   36.1290   30.4280   41.1910 N   0  0  0  0  0  0  0  0  0  0  0  0
   40.6380   29.4990   42.0470 C   0  0  0  0  0  0  0  0  0  0  0  0
   40.3710   30.8570   42.6500 C   0  0  0  0  0  0  0  0  0  0  0  0
   42.1390   29.2700   42.3810 C   0  0  0  0  0  0  0  0  0  0  0  0
   40.6510   29.5150   40.5290 C   0  0  0  0  0  0  0  0  0  0  0  0
   37.3828   26.2885   43.4208 H   0  0  0  0  0  0  0  0  0  0  0  0
   39.7520   25.9087   44.6384 H   0  0  0  0  0  0  0  0  0  0  0  0
   37.5514   30.4053   42.7497 H   0  0  0  0  0  0  0  0  0  0  0  0
   37.2456   26.7741   40.4250 H   0  0  0  0  0  0  0  0  0  0  0  0
   34.7735   30.1617   39.5493 H   0  0  0  0  0  0  0  0  0  0  0  0
   40.3861   30.7804   43.7472 H   0  0  0  0  0  0  0  0  0  0  0  0
   41.1475   31.5633   42.3211 H   0  0  0  0  0  0  0  0  0  0  0  0
   39.3849   31.2168   42.3211 H   0  0  0  0  0  0  0  0  0  0  0  0
   42.2727   29.2496   43.4726 H   0  0  0  0  0  0  0  0  0  0  0  0
   42.4677   28.3113   41.9533 H   0  0  0  0  0  0  0  0  0  0  0  0
   42.7386   30.0871   41.9533 H   0  0  0  0  0  0  0  0  0  0  0  0
   41.3081   30.3237   40.1765 H   0  0  0  0  0  0  0  0  0  0  0  0
   41.0242   28.5501   40.1553 H   0  0  0  0  0  0  0  0  0  0  0  0
   39.6301   29.6828   40.1553 H   0  0  0  0  0  0  0  0  0  0  0  0
  1  5  1  0
  1  2  1  0
  2  3  2  0
  4  3  1  0
  5  4  2  0
  7  6  2  0
  7  1  1  0
  8  7  1  0
  9 10  1  0
  9  8  2  0
 10 11  2  0
 11  6  1  0
 12 14  1  0
 12  5  1  0
 12 13  1  0
 15 12  1  0
  2 16  1  0
  3 17  1  0
  6 18  1  0
  8 19  1  0
 10 20  1  0
 13 21  1  0
 13 22  1  0
 13 23  1  0
 14 24  1  0
 14 25  1  0
 14 26  1  0
 15 27  1  0
 15 28  1  0
 15 29  1  0
M  ISO  8  16  14  17  14  18  14  19  14  20  14  21   8  22   8  23   8
M  ISO  6  24   8  25   8  26   8  27   8  28   8  29   8
M  END
>  <minimizedAffinity>  (1) 
-3.66727543

>  <minimizedRMSD>  (1) 
0.6333884

$$$$
