
     RDKit          3D

 26 27  0  0  0  0  0  0  0  0999 V2000
   38.4660   27.9530   42.5250 N   0  0  0  0  0  0  0  0  0  0  0  0
   38.2550   26.9310   43.3910 C   0  0  0  0  0  0  0  0  0  0  0  0
   39.5290   26.7350   43.9450 C   0  0  0  0  0  0  0  0  0  0  0  0
   40.4450   27.6120   43.4170 N   0  0  0  0  0  0  0  0  0  0  0  0
   39.7460   28.3460   42.5420 C   0  0  0  0  0  0  0  0  0  0  0  0
   37.0980   29.8800   41.8760 C   0  0  0  0  0  0  0  0  0  0  0  0
   37.4650   28.5230   41.7440 C   0  0  0  0  0  0  0  0  0  0  0  0
   36.7650   27.7530   40.7720 C   0  0  0  0  0  0  0  0  0  0  0  0
   35.7940   28.3660   40.0360 N   0  0  0  0  0  0  0  0  0  0  0  0
   35.4800   29.6930   40.2080 C   0  0  0  0  0  0  0  0  0  0  0  0
   36.1340   30.4650   41.1360 N   0  0  0  0  0  0  0  0  0  0  0  0
   40.5860   29.3350   41.8290 C   0  0  0  0  0  0  0  0  0  0  0  0
   40.6600   30.6530   42.5850 C   0  0  0  0  0  0  0  0  0  0  0  0
   42.0190   28.8140   41.6060 C   0  0  0  0  0  0  0  0  0  0  0  0
   37.3205   26.3916   43.6051 H   0  0  0  0  0  0  0  0  0  0  0  0
   39.7644   25.9757   44.7053 H   0  0  0  0  0  0  0  0  0  0  0  0
   37.6261   30.4924   42.6217 H   0  0  0  0  0  0  0  0  0  0  0  0
   37.0016   26.6898   40.6185 H   0  0  0  0  0  0  0  0  0  0  0  0
   34.6898   30.1450   39.5905 H   0  0  0  0  0  0  0  0  0  0  0  0
   40.1049   29.4984   40.8534 H   0  0  0  0  0  0  0  0  0  0  0  0
   40.6489   30.4561   43.6672 H   0  0  0  0  0  0  0  0  0  0  0  0
   41.5890   31.1776   42.3172 H   0  0  0  0  0  0  0  0  0  0  0  0
   39.7955   31.2783   42.3172 H   0  0  0  0  0  0  0  0  0  0  0  0
   42.5010   28.6388   42.5791 H   0  0  0  0  0  0  0  0  0  0  0  0
   41.9826   27.8716   41.0399 H   0  0  0  0  0  0  0  0  0  0  0  0
   42.5963   29.5598   41.0399 H   0  0  0  0  0  0  0  0  0  0  0  0
  1  5  1  0
  1  2  1  0
  2  3  2  0
  4  3  1  0
  5  4  2  0
  7  6  2  0
  7  1  1  0
  8  7  1  0
  9 10  1  0
  9  8  2  0
 10 11  2  0
 11  6  1  0
 12  5  1  0
 12 13  1  0
 14 12  1  0
  2 15  1  0
  3 16  1  0
  6 17  1  0
  8 18  1  0
 10 19  1  0
 12 20  1  0
 13 21  1  0
 13 22  1  0
 13 23  1  0
 14 24  1  0
 14 25  1  0
 14 26  1  0
M  ISO  8  15  14  16  14  17  14  18  14  19  14  20   8  21   8  22   8
M  ISO  4  23   8  24   8  25   8  26   8
M  END
>  <minimizedAffinity>  (1) 
-3.50595593

>  <minimizedRMSD>  (1) 
0.566704273

$$$$
