
     RDKit          3D

 23 25  0  0  0  0  0  0  0  0999 V2000
   37.5140   28.6500   43.3140 C   0  0  0  0  0  0  0  0  0  0  0  0
   37.1820   27.3490   42.8730 C   0  0  0  0  0  0  0  0  0  0  0  0
   36.8570   27.1880   41.5240 C   0  0  0  0  0  0  0  0  0  0  0  0
   36.8780   28.2870   40.7090 N   0  0  0  0  0  0  0  0  0  0  0  0
   37.2000   29.5020   41.1730 C   0  0  0  0  0  0  0  0  0  0  0  0
   37.5180   29.6950   42.4690 N   0  0  0  0  0  0  0  0  0  0  0  0
   37.2300   30.6600   40.3520 N   0  0  0  0  0  0  0  0  0  0  0  0
   37.7150   31.7570   40.9030 N   0  0  0  0  0  0  0  0  0  0  0  0
   37.6830   32.7690   40.0140 C   0  0  0  0  0  0  0  0  0  0  0  0
   37.1410   32.2300   38.8620 C   0  0  0  0  0  0  0  0  0  0  0  0
   36.8550   30.8930   39.0770 C   0  0  0  0  0  0  0  0  0  0  0  0
   36.3150   29.8100   38.3570 N   0  0  0  0  0  0  0  0  0  0  0  0
   36.9760   28.9810   37.4960 C   0  0  0  0  0  0  0  0  0  0  0  0
   36.1240   28.0460   36.9840 N   0  0  0  0  0  0  0  0  0  0  0  0
   34.9130   28.3090   37.5460 C   0  0  0  0  0  0  0  0  0  0  0  0
   35.0680   29.3700   38.3600 N   0  0  0  0  0  0  0  0  0  0  0  0
   37.7745   28.8106   44.3706 H   0  0  0  0  0  0  0  0  0  0  0  0
   37.1796   26.4949   43.5662 H   0  0  0  0  0  0  0  0  0  0  0  0
   36.5897   26.1983   41.1252 H   0  0  0  0  0  0  0  0  0  0  0  0
   38.0174   33.8050   40.1715 H   0  0  0  0  0  0  0  0  0  0  0  0
   36.9651   32.7767   37.9239 H   0  0  0  0  0  0  0  0  0  0  0  0
   38.0454   29.0565   37.2497 H   0  0  0  0  0  0  0  0  0  0  0  0
   33.9788   27.7562   37.3679 H   0  0  0  0  0  0  0  0  0  0  0  0
  2  1  2  0
  3  2  1  0
  4  5  1  0
  4  3  2  0
  5  6  2  0
  6  1  1  0
  7  8  1  0
  7  5  1  0
  9  8  2  0
 10 11  2  0
 10  9  1  0
 11  7  1  0
 12 16  1  0
 12 11  1  0
 13 12  1  0
 14 13  2  0
 14 15  1  0
 15 16  2  0
  1 17  1  0
  2 18  1  0
  3 19  1  0
  9 20  1  0
 10 21  1  0
 13 22  1  0
 15 23  1  0
M  ISO  7  17  14  18  14  19  14  20  14  21  14  22  14  23  14
M  END
>  <minimizedAffinity>  (1) 
-4.22775555

>  <minimizedRMSD>  (1) 
1.79240501

$$$$
