
     RDKit          3D

 19 20  0  0  0  0  0  0  0  0999 V2000
   38.5030   27.9430   42.5660 N   0  0  0  0  0  0  0  0  0  0  0  0
   38.4380   26.8020   43.2400 C   0  0  0  0  0  0  0  0  0  0  0  0
   39.6570   26.6140   43.8450 C   0  0  0  0  0  0  0  0  0  0  0  0
   40.4580   27.6470   43.5350 N   0  0  0  0  0  0  0  0  0  0  0  0
   39.7070   28.4250   42.7540 C   0  0  0  0  0  0  0  0  0  0  0  0
   37.1170   29.8610   41.9220 C   0  0  0  0  0  0  0  0  0  0  0  0
   37.4940   28.5220   41.8020 C   0  0  0  0  0  0  0  0  0  0  0  0
   36.8010   27.7280   40.8430 C   0  0  0  0  0  0  0  0  0  0  0  0
   35.8200   28.3170   40.1050 N   0  0  0  0  0  0  0  0  0  0  0  0
   35.4920   29.6420   40.2660 C   0  0  0  0  0  0  0  0  0  0  0  0
   36.1470   30.4200   41.1830 N   0  0  0  0  0  0  0  0  0  0  0  0
   40.4020   29.6030   42.2990 C   0  0  0  0  0  0  0  0  0  0  0  0
   40.4860   30.7890   42.6910 O   0  0  0  0  0  0  0  0  0  0  0  0
   37.5688   26.1307   43.3028 H   0  0  0  0  0  0  0  0  0  0  0  0
   39.9320   25.7582   44.4791 H   0  0  0  0  0  0  0  0  0  0  0  0
   37.6409   30.4881   42.6584 H   0  0  0  0  0  0  0  0  0  0  0  0
   37.0521   26.6663   40.7025 H   0  0  0  0  0  0  0  0  0  0  0  0
   34.6937   30.0828   39.6508 H   0  0  0  0  0  0  0  0  0  0  0  0
   40.9992   29.4158   41.3944 H   0  0  0  0  0  0  0  0  0  0  0  0
  1  5  1  0
  1  2  1  0
  2  3  2  0
  4  3  1  0
  5  4  2  0
  7  6  2  0
  7  1  1  0
  8  7  1  0
  9 10  1  0
  9  8  2  0
 10 11  2  0
 11  6  1  0
 12 13  2  0
 12  5  1  0
  2 14  1  0
  3 15  1  0
  6 16  1  0
  8 17  1  0
 10 18  1  0
 12 19  1  0
M  ISO  6  14  14  15  14  16  14  17  14  18  14  19   6
M  END
>  <minimizedAffinity>  (1) 
-3.36407042

>  <minimizedRMSD>  (1) 
0.591873765

$$$$
