
     RDKit          3D

 20 21  0  0  0  0  0  0  0  0999 V2000
   37.2440   29.9790   41.9220 C   0  0  0  0  0  0  0  0  0  0  0  0
   37.5260   28.6000   41.8020 C   0  0  0  0  0  0  0  0  0  0  0  0
   36.7350   27.8310   40.9000 C   0  0  0  0  0  0  0  0  0  0  0  0
   35.7620   28.4610   40.2100 N   0  0  0  0  0  0  0  0  0  0  0  0
   35.5230   29.8060   40.3590 C   0  0  0  0  0  0  0  0  0  0  0  0
   36.2630   30.5800   41.2180 N   0  0  0  0  0  0  0  0  0  0  0  0
   38.5600   27.9940   42.5470 N   0  0  0  0  0  0  0  0  0  0  0  0
   38.3190   27.1040   43.5430 C   0  0  0  0  0  0  0  0  0  0  0  0
   39.6080   26.7810   43.9870 C   0  0  0  0  0  0  0  0  0  0  0  0
   40.5420   27.4490   43.2850 N   0  0  0  0  0  0  0  0  0  0  0  0
   39.8500   28.2020   42.3860 C   0  0  0  0  0  0  0  0  0  0  0  0
   40.6530   29.0400   41.4550 C   0  0  0  0  0  0  0  0  0  0  0  0
   37.8465   30.5848   42.6149 H   0  0  0  0  0  0  0  0  0  0  0  0
   36.9129   26.7533   40.7699 H   0  0  0  0  0  0  0  0  0  0  0  0
   34.7176   30.2748   39.7746 H   0  0  0  0  0  0  0  0  0  0  0  0
   37.3521   26.7294   43.9103 H   0  0  0  0  0  0  0  0  0  0  0  0
   39.8276   26.0750   44.8014 H   0  0  0  0  0  0  0  0  0  0  0  0
   41.2999   29.7151   42.0346 H   0  0  0  0  0  0  0  0  0  0  0  0
   41.2749   28.3908   40.8211 H   0  0  0  0  0  0  0  0  0  0  0  0
   39.9779   29.6336   40.8211 H   0  0  0  0  0  0  0  0  0  0  0  0
  2  1  2  0
  2  7  1  0
  3  2  1  0
  4  5  1  0
  4  3  2  0
  5  6  2  0
  6  1  1  0
  7  8  1  0
  8  9  2  0
 10  9  1  0
 11  7  1  0
 11 10  2  0
 12 11  1  0
  1 13  1  0
  3 14  1  0
  5 15  1  0
  8 16  1  0
  9 17  1  0
 12 18  1  0
 12 19  1  0
 12 20  1  0
M  ISO  8  13  14  14  14  15  14  16  14  17  14  18   8  19   8  20   8
M  END
>  <minimizedAffinity>  (1) 
-3.27016664

>  <minimizedRMSD>  (1) 
0.55746007

$$$$
