
     RDKit          3D

 19 20  0  0  0  0  0  0  0  0999 V2000
   38.4870   27.7680   42.4470 N   0  0  0  0  0  0  0  0  0  0  0  0
   38.3980   27.3380   43.7240 C   0  0  0  0  0  0  0  0  0  0  0  0
   39.6180   26.6920   43.9390 C   0  0  0  0  0  0  0  0  0  0  0  0
   40.4000   26.7410   42.8170 N   0  0  0  0  0  0  0  0  0  0  0  0
   39.6640   27.4120   41.9260 C   0  0  0  0  0  0  0  0  0  0  0  0
   40.2230   27.6290   40.6310 N   0  0  0  0  0  0  0  0  0  0  0  0
   37.3550   29.8640   41.9120 C   0  0  0  0  0  0  0  0  0  0  0  0
   37.4920   28.4780   41.7810 C   0  0  0  0  0  0  0  0  0  0  0  0
   36.5640   27.8180   40.9320 C   0  0  0  0  0  0  0  0  0  0  0  0
   35.6120   28.5380   40.3020 N   0  0  0  0  0  0  0  0  0  0  0  0
   35.5170   29.8980   40.4610 C   0  0  0  0  0  0  0  0  0  0  0  0
   36.3930   30.5700   41.2700 N   0  0  0  0  0  0  0  0  0  0  0  0
   37.5627   27.4660   44.4282 H   0  0  0  0  0  0  0  0  0  0  0  0
   39.9106   26.2090   44.8830 H   0  0  0  0  0  0  0  0  0  0  0  0
   41.1637   27.2725   40.4098 H   0  0  0  0  0  0  0  0  0  0  0  0
   39.6858   28.1421   39.9175 H   0  0  0  0  0  0  0  0  0  0  0  0
   38.0579   30.4035   42.5637 H   0  0  0  0  0  0  0  0  0  0  0  0
   36.6208   26.7288   40.7891 H   0  0  0  0  0  0  0  0  0  0  0  0
   34.7284   30.4538   39.9326 H   0  0  0  0  0  0  0  0  0  0  0  0
  1  2  1  0
  2  3  2  0
  4  3  1  0
  5  1  1  0
  5  4  2  0
  6  5  1  0
  8  7  2  0
  8  1  1  0
  9  8  1  0
 10 11  1  0
 10  9  2  0
 11 12  2  0
 12  7  1  0
  2 13  1  0
  3 14  1  0
  6 15  1  0
  6 16  1  0
  7 17  1  0
  9 18  1  0
 11 19  1  0
M  ISO  5  13  14  14  14  17  14  18  14  19  14
M  END
>  <minimizedAffinity>  (1) 
-3.24567986

>  <minimizedRMSD>  (1) 
0.974248946

$$$$
