
     RDKit          3D

 40 44  0  0  0  0  0  0  0  0999 V2000
   36.8620   28.3530   41.9440 N   0  0  0  0  0  0  0  0  0  0  0  0
   36.3080   27.4350   42.7590 C   0  0  0  0  0  0  0  0  0  0  0  0
   36.8830   27.6630   43.9830 C   0  0  0  0  0  0  0  0  0  0  0  0
   37.7760   28.7040   43.9180 N   0  0  0  0  0  0  0  0  0  0  0  0
   37.7370   29.1060   42.6410 C   0  0  0  0  0  0  0  0  0  0  0  0
   38.5950   30.1970   42.3230 N   0  0  0  0  0  0  0  0  0  0  0  0
   39.8290   30.3330   42.8950 C   0  0  0  0  0  0  0  0  0  0  0  0
   40.4660   31.4530   42.4350 N   0  0  0  0  0  0  0  0  0  0  0  0
   39.6250   32.0420   41.5560 C   0  0  0  0  0  0  0  0  0  0  0  0
   39.7300   33.1790   40.7960 C   0  0  0  0  0  0  0  0  0  0  0  0
   38.6610   33.4600   40.0130 N   0  0  0  0  0  0  0  0  0  0  0  0
   37.5530   32.7030   39.9570 C   0  0  0  0  0  0  0  0  0  0  0  0
   37.4470   31.5770   40.7080 N   0  0  0  0  0  0  0  0  0  0  0  0
   38.4810   31.2700   41.4900 C   0  0  0  0  0  0  0  0  0  0  0  0
   35.3440   28.9160   40.0880 C   0  0  0  0  0  0  0  0  0  0  0  0
   36.5870   28.5170   40.5840 C   0  0  0  0  0  0  0  0  0  0  0  0
   37.6120   28.2690   39.6330 C   0  0  0  0  0  0  0  0  0  0  0  0
   37.3410   28.4290   38.3120 N   0  0  0  0  0  0  0  0  0  0  0  0
   36.1080   28.8220   37.8780 C   0  0  0  0  0  0  0  0  0  0  0  0
   35.1010   29.0680   38.7690 N   0  0  0  0  0  0  0  0  0  0  0  0
   36.0120   28.9370   36.4610 N   0  0  0  0  0  0  0  0  0  0  0  0
   34.9020   29.2120   35.7150 C   0  0  0  0  0  0  0  0  0  0  0  0
   35.0320   29.2770   34.3440 C   0  0  0  0  0  0  0  0  0  0  0  0
   36.2550   29.0690   33.7430 C   0  0  0  0  0  0  0  0  0  0  0  0
   36.2940   29.1450   32.4880 O   0  0  0  0  0  0  0  0  0  0  0  0
   37.3340   28.7990   34.4970 N   0  0  0  0  0  0  0  0  0  0  0  0
   37.1920   28.7390   35.8290 C   0  0  0  0  0  0  0  0  0  0  0  0
   38.2830   28.4770   36.4280 O   0  0  0  0  0  0  0  0  0  0  0  0
   40.8710   34.0210   40.8090 N   0  0  0  0  0  0  0  0  0  0  0  0
   35.5598   26.6713   42.5002 H   0  0  0  0  0  0  0  0  0  0  0  0
   36.6589   27.0891   44.8943 H   0  0  0  0  0  0  0  0  0  0  0  0
   40.2544   29.6332   43.6294 H   0  0  0  0  0  0  0  0  0  0  0  0
   36.7241   32.9980   39.2968 H   0  0  0  0  0  0  0  0  0  0  0  0
   34.5302   29.1144   40.8010 H   0  0  0  0  0  0  0  0  0  0  0  0
   38.6124   27.9514   39.9621 H   0  0  0  0  0  0  0  0  0  0  0  0
   33.9270   29.3778   36.1965 H   0  0  0  0  0  0  0  0  0  0  0  0
   34.1508   29.4971   33.7234 H   0  0  0  0  0  0  0  0  0  0  0  0
   38.2532   28.6410   34.0599 H   0  0  0  0  0  0  0  0  0  0  0  0
   40.8960   34.8636   40.2172 H   0  0  0  0  0  0  0  0  0  0  0  0
   41.6747   33.7899   41.4103 H   0  0  0  0  0  0  0  0  0  0  0  0
  1  5  1  0
  1  2  1  0
  2  3  2  0
  4  3  1  0
  5  4  2  0
  6  5  1  0
  6  7  1  0
  8  7  2  0
  9  8  1  0
 10 29  1  0
 10  9  2  0
 11 10  1  0
 12 11  2  0
 12 13  1  0
 13 14  2  0
 14  9  1  0
 14  6  1  0
 15 16  2  0
 16  1  1  0
 17 16  1  0
 18 17  2  0
 19 18  1  0
 19 20  2  0
 20 15  1  0
 21 19  1  0
 22 21  1  0
 23 22  2  0
 24 23  1  0
 24 26  1  0
 25 24  2  0
 26 27  1  0
 27 28  2  0
 27 21  1  0
  2 30  1  0
  3 31  1  0
  7 32  1  0
 12 33  1  0
 15 34  1  0
 17 35  1  0
 22 36  1  0
 23 37  1  0
 26 38  1  0
 29 39  1  0
 29 40  1  0
M  ISO  8  30  14  31  14  32  14  33  14  34  14  35  14  36  14  37  14
M  ISO  1  38   9
M  END
>  <minimizedAffinity>  (1) 
-6.81402016

>  <minimizedRMSD>  (1) 
1.42756951

$$$$
