
     RDKit          3D

 44 49  0  0  0  0  0  0  0  0999 V2000
   37.3140   28.2870   41.7750 N   0  0  0  0  0  0  0  0  0  0  0  0
   37.1630   27.3010   42.6920 C   0  0  0  0  0  0  0  0  0  0  0  0
   38.1710   27.5430   43.5970 C   0  0  0  0  0  0  0  0  0  0  0  0
   38.8990   28.6340   43.2350 N   0  0  0  0  0  0  0  0  0  0  0  0
   38.3510   29.0790   42.1040 C   0  0  0  0  0  0  0  0  0  0  0  0
   38.9530   30.2290   41.5310 N   0  0  0  0  0  0  0  0  0  0  0  0
   40.3020   30.4310   41.5820 C   0  0  0  0  0  0  0  0  0  0  0  0
   40.6390   31.6060   40.9630 N   0  0  0  0  0  0  0  0  0  0  0  0
   39.4920   32.1540   40.5150 C   0  0  0  0  0  0  0  0  0  0  0  0
   39.2200   33.3120   39.8320 C   0  0  0  0  0  0  0  0  0  0  0  0
   37.9330   33.5390   39.5480 N   0  0  0  0  0  0  0  0  0  0  0  0
   36.9330   32.7120   39.8910 C   0  0  0  0  0  0  0  0  0  0  0  0
   37.1950   31.5680   40.5650 N   0  0  0  0  0  0  0  0  0  0  0  0
   38.4660   31.3120   40.8640 C   0  0  0  0  0  0  0  0  0  0  0  0
   35.2200   28.9920   40.6860 C   0  0  0  0  0  0  0  0  0  0  0  0
   36.5090   28.4670   40.6400 C   0  0  0  0  0  0  0  0  0  0  0  0
   37.0120   28.0990   39.3680 C   0  0  0  0  0  0  0  0  0  0  0  0
   36.2260   28.2760   38.2800 N   0  0  0  0  0  0  0  0  0  0  0  0
   34.9680   28.7960   38.3750 C   0  0  0  0  0  0  0  0  0  0  0  0
   34.4650   29.1550   39.5850 N   0  0  0  0  0  0  0  0  0  0  0  0
   34.1890   28.9550   37.1680 C   0  0  0  0  0  0  0  0  0  0  0  0
   34.6600   28.7420   35.8960 C   0  0  0  0  0  0  0  0  0  0  0  0
   33.6200   28.9990   35.0530 N   0  0  0  0  0  0  0  0  0  0  0  0
   32.5480   29.3570   35.7850 C   0  0  0  0  0  0  0  0  0  0  0  0
   31.2710   29.7110   35.4040 C   0  0  0  0  0  0  0  0  0  0  0  0
   30.3550   30.0390   36.3860 C   0  0  0  0  0  0  0  0  0  0  0  0
   30.6360   30.0370   37.7570 C   0  0  0  0  0  0  0  0  0  0  0  0
   31.9260   29.6750   38.0810 C   0  0  0  0  0  0  0  0  0  0  0  0
   32.8580   29.3440   37.1240 C   0  0  0  0  0  0  0  0  0  0  0  0
   40.2550   34.2270   39.4440 N   0  0  0  0  0  0  0  0  0  0  0  0
   36.4122   26.4972   42.7090 H   0  0  0  0  0  0  0  0  0  0  0  0
   38.3627   26.9353   44.4937 H   0  0  0  0  0  0  0  0  0  0  0  0
   41.0199   29.7448   42.0550 H   0  0  0  0  0  0  0  0  0  0  0  0
   35.8965   32.9650   39.6233 H   0  0  0  0  0  0  0  0  0  0  0  0
   34.8031   29.2848   41.6609 H   0  0  0  0  0  0  0  0  0  0  0  0
   38.0228   27.6771   39.2661 H   0  0  0  0  0  0  0  0  0  0  0  0
   35.6752   28.4266   35.6133 H   0  0  0  0  0  0  0  0  0  0  0  0
   33.6494   28.9306   34.0257 H   0  0  0  0  0  0  0  0  0  0  0  0
   30.9872   29.7320   34.3414 H   0  0  0  0  0  0  0  0  0  0  0  0
   29.3396   30.3197   36.0694 H   0  0  0  0  0  0  0  0  0  0  0  0
   29.8862   30.3034   38.5165 H   0  0  0  0  0  0  0  0  0  0  0  0
   32.2205   29.6498   39.1405 H   0  0  0  0  0  0  0  0  0  0  0  0
   40.0158   35.0880   38.9317 H   0  0  0  0  0  0  0  0  0  0  0  0
   41.2371   34.0228   39.6778 H   0  0  0  0  0  0  0  0  0  0  0  0
  1  5  1  0
  1  2  1  0
  2  3  2  0
  4  3  1  0
  5  4  2  0
  6  7  1  0
  6  5  1  0
  8  7  2  0
  9 14  2  0
  9  8  1  0
 10  9  1  0
 11 10  2  0
 11 12  1  0
 12 13  2  0
 13 14  1  0
 14  6  1  0
 16 15  2  0
 16  1  1  0
 17 16  1  0
 18 19  1  0
 18 17  2  0
 19 20  2  0
 20 15  1  0
 21 19  1  0
 22 21  2  0
 23 24  1  0
 23 22  1  0
 24 29  2  0
 25 24  1  0
 25 26  2  0
 26 27  1  0
 27 28  2  0
 29 21  1  0
 29 28  1  0
 30 10  1  0
  2 31  1  0
  3 32  1  0
  7 33  1  0
 12 34  1  0
 15 35  1  0
 17 36  1  0
 22 37  1  0
 23 38  1  0
 25 39  1  0
 26 40  1  0
 27 41  1  0
 28 42  1  0
 30 43  1  0
 30 44  1  0
M  ISO  8  31  14  32  14  33  14  34  14  35  14  36  14  37  14  38   9
M  ISO  4  39  14  40  14  41  14  42  14
M  END
>  <minimizedAffinity>  (1) 
-6.80497932

>  <minimizedRMSD>  (1) 
2.52035475

$$$$
