
     RDKit          3D

 36 37  0  0  0  0  0  0  0  0999 V2000
   38.2000   29.6930   40.9340 C   0  0  0  0  0  0  0  0  0  0  0  0
   38.7940   29.2120   42.1570 C   0  0  0  0  0  0  0  0  0  0  0  0
   39.8090   30.0130   42.6290 C   0  0  0  0  0  0  0  0  0  0  0  0
   40.2070   31.1350   42.0070 N   0  0  0  0  0  0  0  0  0  0  0  0
   39.6210   31.5460   40.8630 C   0  0  0  0  0  0  0  0  0  0  0  0
   38.6290   30.8200   40.3460 N   0  0  0  0  0  0  0  0  0  0  0  0
   38.2780   28.0160   42.7050 N   0  0  0  0  0  0  0  0  0  0  0  0
   37.1190   27.9320   43.5110 C   0  0  0  0  0  0  0  0  0  0  0  0
   36.8820   28.9480   44.3250 N   0  0  0  0  0  0  0  0  0  0  0  0
   36.3630   26.7180   43.3090 N   0  0  0  0  0  0  0  0  0  0  0  0
   36.0620   28.9430   44.9290 H   0  0  0  0  0  0  0  0  0  0  0  0
   40.1660   32.7820   40.3130 C   0  0  0  0  0  0  0  0  0  0  0  0
   39.8600   34.0900   40.6370 C   0  0  0  0  0  0  0  0  0  0  0  0
   40.6310   34.9500   39.8500 C   0  0  0  0  0  0  0  0  0  0  0  0
   41.3780   34.0820   39.0780 C   0  0  0  0  0  0  0  0  0  0  0  0
   41.0740   32.8710   39.3810 O   0  0  0  0  0  0  0  0  0  0  0  0
   42.3640   34.5350   38.0690 C   0  0  0  0  0  0  0  0  0  0  0  0
   42.2660   33.7390   36.9200 F   0  0  0  0  0  0  0  0  0  0  0  0
   42.1420   35.8530   37.7590 F   0  0  0  0  0  0  0  0  0  0  0  0
   43.6600   34.3550   38.5290 F   0  0  0  0  0  0  0  0  0  0  0  0
   40.5800   36.4110   39.9130 C   0  0  0  0  0  0  0  0  0  0  0  0
   39.1240   36.8570   39.9200 C   0  0  0  0  0  0  0  0  0  0  0  0
   41.2570   36.9800   41.1330 C   0  0  0  0  0  0  0  0  0  0  0  0
   37.3785   29.1243   40.4739 H   0  0  0  0  0  0  0  0  0  0  0  0
   40.3181   29.7206   43.5592 H   0  0  0  0  0  0  0  0  0  0  0  0
   38.7830   27.1414   42.5026 H   0  0  0  0  0  0  0  0  0  0  0  0
   35.4994   26.5538   43.8458 H   0  0  0  0  0  0  0  0  0  0  0  0
   36.6875   26.0165   42.6282 H   0  0  0  0  0  0  0  0  0  0  0  0
   39.1263   34.4044   41.3939 H   0  0  0  0  0  0  0  0  0  0  0  0
   41.1198   36.7861   39.0310 H   0  0  0  0  0  0  0  0  0  0  0  0
   38.7780   36.9630   40.9588 H   0  0  0  0  0  0  0  0  0  0  0  0
   39.0342   37.8238   39.4031 H   0  0  0  0  0  0  0  0  0  0  0  0
   38.5081   36.1063   39.4031 H   0  0  0  0  0  0  0  0  0  0  0  0
   40.7789   36.5782   42.0385 H   0  0  0  0  0  0  0  0  0  0  0  0
   42.3210   36.7010   41.1255 H   0  0  0  0  0  0  0  0  0  0  0  0
   41.1653   38.0761   41.1255 H   0  0  0  0  0  0  0  0  0  0  0  0
  1  2  2  0
  2  3  1  0
  2  7  1  0
  4  3  2  0
  5  4  1  0
  6  5  2  0
  6  1  1  0
  7  8  1  0
  8  9  2  0
  9 11  1  0
 10  8  1  0
 12 13  2  0
 12  5  1  0
 14 21  1  0
 14 13  1  0
 15 16  1  0
 15 14  2  0
 16 12  1  0
 17 20  1  0
 17 15  1  0
 18 17  1  0
 19 17  1  0
 21 22  1  0
 21 23  1  0
  1 24  1  0
  3 25  1  0
  7 26  1  0
 10 27  1  0
 10 28  1  0
 13 29  1  0
 21 30  1  0
 22 31  1  0
 22 32  1  0
 22 33  1  0
 23 34  1  0
 23 35  1  0
 23 36  1  0
M  ISO  8  24  14  25  14  29  14  30   8  31   8  32   8  33   8  34   8
M  ISO  2  35   8  36   8
M  END
>  <minimizedAffinity>  (1) 
-5.59089518

>  <minimizedRMSD>  (1) 
2.2981708

$$$$
