
     RDKit          3D

 37 41  0  0  0  0  0  0  0  0999 V2000
   36.8660   28.4780   41.9580 N   0  0  0  0  0  0  0  0  0  0  0  0
   36.4970   27.5550   42.8690 C   0  0  0  0  0  0  0  0  0  0  0  0
   37.2930   27.8200   43.9520 C   0  0  0  0  0  0  0  0  0  0  0  0
   38.1240   28.8780   43.7040 N   0  0  0  0  0  0  0  0  0  0  0  0
   37.8370   29.2650   42.4580 C   0  0  0  0  0  0  0  0  0  0  0  0
   38.5940   30.3730   41.9760 N   0  0  0  0  0  0  0  0  0  0  0  0
   39.9080   30.5490   42.3040 C   0  0  0  0  0  0  0  0  0  0  0  0
   40.4000   31.6800   41.7160 N   0  0  0  0  0  0  0  0  0  0  0  0
   39.4020   32.2310   41.0100 C   0  0  0  0  0  0  0  0  0  0  0  0
   39.3260   33.3590   40.2320 C   0  0  0  0  0  0  0  0  0  0  0  0
   38.1330   33.5970   39.6700 N   0  0  0  0  0  0  0  0  0  0  0  0
   37.0560   32.8120   39.8290 C   0  0  0  0  0  0  0  0  0  0  0  0
   37.1230   31.6940   40.5970 N   0  0  0  0  0  0  0  0  0  0  0  0
   38.2950   31.4260   41.1730 C   0  0  0  0  0  0  0  0  0  0  0  0
   35.0450   29.0640   40.4100 C   0  0  0  0  0  0  0  0  0  0  0  0
   36.3270   28.6160   40.6640 C   0  0  0  0  0  0  0  0  0  0  0  0
   37.1370   28.2800   39.5450 C   0  0  0  0  0  0  0  0  0  0  0  0
   36.6020   28.4190   38.3020 N   0  0  0  0  0  0  0  0  0  0  0  0
   35.3270   28.8670   38.1150 C   0  0  0  0  0  0  0  0  0  0  0  0
   34.5350   29.1940   39.1710 N   0  0  0  0  0  0  0  0  0  0  0  0
   34.7840   29.0050   36.8080 N   0  0  0  0  0  0  0  0  0  0  0  0
   33.5230   28.9610   36.3460 C   0  0  0  0  0  0  0  0  0  0  0  0
   33.6100   29.1650   34.9680 C   0  0  0  0  0  0  0  0  0  0  0  0
   34.9080   29.3270   34.6320 N   0  0  0  0  0  0  0  0  0  0  0  0
   35.6290   29.2260   35.7840 C   0  0  0  0  0  0  0  0  0  0  0  0
   40.4420   34.2220   40.0340 N   0  0  0  0  0  0  0  0  0  0  0  0
   35.7330   26.7703   42.7663 H   0  0  0  0  0  0  0  0  0  0  0  0
   37.2673   27.2565   44.8963 H   0  0  0  0  0  0  0  0  0  0  0  0
   40.4887   29.8749   42.9508 H   0  0  0  0  0  0  0  0  0  0  0  0
   36.1106   33.0766   39.3328 H   0  0  0  0  0  0  0  0  0  0  0  0
   34.4069   29.3286   41.2660 H   0  0  0  0  0  0  0  0  0  0  0  0
   38.1669   27.9180   39.6804 H   0  0  0  0  0  0  0  0  0  0  0  0
   32.6080   28.7974   36.9343 H   0  0  0  0  0  0  0  0  0  0  0  0
   32.7603   29.1898   34.2698 H   0  0  0  0  0  0  0  0  0  0  0  0
   36.7228   29.3112   35.8639 H   0  0  0  0  0  0  0  0  0  0  0  0
   40.3465   35.0600   39.4428 H   0  0  0  0  0  0  0  0  0  0  0  0
   41.3444   34.0080   40.4820 H   0  0  0  0  0  0  0  0  0  0  0  0
  1  5  1  0
  1  2  1  0
  2  3  2  0
  4  3  1  0
  5  4  2  0
  6  7  1  0
  6  5  1  0
  8  7  2  0
  9 14  2  0
  9  8  1  0
 10  9  1  0
 11 12  1  0
 11 10  2  0
 12 13  2  0
 13 14  1  0
 14  6  1  0
 15 16  2  0
 16  1  1  0
 17 16  1  0
 18 17  2  0
 19 18  1  0
 19 20  2  0
 20 15  1  0
 21 19  1  0
 22 21  1  0
 23 22  2  0
 24 23  1  0
 24 25  2  0
 25 21  1  0
 26 10  1  0
  2 27  1  0
  3 28  1  0
  7 29  1  0
 12 30  1  0
 15 31  1  0
 17 32  1  0
 22 33  1  0
 23 34  1  0
 25 35  1  0
 26 36  1  0
 26 37  1  0
M  ISO  8  27  14  28  14  29  14  30  14  31  14  32  14  33  14  34  14
M  ISO  1  35  14
M  END
>  <minimizedAffinity>  (1) 
-6.43034315

>  <minimizedRMSD>  (1) 
1.66426718

$$$$
