
     RDKit          3D

 39 43  0  0  0  0  0  0  0  0999 V2000
   37.3550   28.2920   41.7890 N   0  0  0  0  0  0  0  0  0  0  0  0
   37.2210   27.3150   42.7100 C   0  0  0  0  0  0  0  0  0  0  0  0
   38.2280   27.5400   43.6050 C   0  0  0  0  0  0  0  0  0  0  0  0
   38.9630   28.6350   43.2380 N   0  0  0  0  0  0  0  0  0  0  0  0
   38.3980   29.0750   42.1140 C   0  0  0  0  0  0  0  0  0  0  0  0
   39.0080   30.2290   41.5400 N   0  0  0  0  0  0  0  0  0  0  0  0
   40.3610   30.4230   41.5740 C   0  0  0  0  0  0  0  0  0  0  0  0
   40.6970   31.5930   40.9630 N   0  0  0  0  0  0  0  0  0  0  0  0
   39.5550   32.1530   40.5330 C   0  0  0  0  0  0  0  0  0  0  0  0
   39.2830   33.3250   39.8570 C   0  0  0  0  0  0  0  0  0  0  0  0
   37.9800   33.5630   39.5900 N   0  0  0  0  0  0  0  0  0  0  0  0
   36.9830   32.7400   39.9400 C   0  0  0  0  0  0  0  0  0  0  0  0
   37.2330   31.5830   40.6060 N   0  0  0  0  0  0  0  0  0  0  0  0
   38.5120   31.3180   40.8860 C   0  0  0  0  0  0  0  0  0  0  0  0
   35.2440   28.9800   40.7250 C   0  0  0  0  0  0  0  0  0  0  0  0
   36.5450   28.4810   40.6610 C   0  0  0  0  0  0  0  0  0  0  0  0
   37.0520   28.1550   39.3780 C   0  0  0  0  0  0  0  0  0  0  0  0
   36.2360   28.3510   38.3010 N   0  0  0  0  0  0  0  0  0  0  0  0
   34.9700   28.8430   38.4250 C   0  0  0  0  0  0  0  0  0  0  0  0
   34.4730   29.1590   39.6480 N   0  0  0  0  0  0  0  0  0  0  0  0
   34.1630   29.0230   37.2240 C   0  0  0  0  0  0  0  0  0  0  0  0
   32.7970   29.1670   37.3520 C   0  0  0  0  0  0  0  0  0  0  0  0
   32.1090   29.3340   36.1520 C   0  0  0  0  0  0  0  0  0  0  0  0
   32.7260   29.3570   34.9130 C   0  0  0  0  0  0  0  0  0  0  0  0
   34.1170   29.2040   34.8670 C   0  0  0  0  0  0  0  0  0  0  0  0
   34.7960   29.0400   36.0380 N   0  0  0  0  0  0  0  0  0  0  0  0
   40.3000   34.2290   39.4630 N   0  0  0  0  0  0  0  0  0  0  0  0
   36.4673   26.5142   42.7346 H   0  0  0  0  0  0  0  0  0  0  0  0
   38.4215   26.9263   44.4971 H   0  0  0  0  0  0  0  0  0  0  0  0
   41.0804   29.7285   42.0325 H   0  0  0  0  0  0  0  0  0  0  0  0
   35.9465   33.0050   39.6843 H   0  0  0  0  0  0  0  0  0  0  0  0
   34.8319   29.2392   41.7114 H   0  0  0  0  0  0  0  0  0  0  0  0
   38.0700   27.7570   39.2541 H   0  0  0  0  0  0  0  0  0  0  0  0
   32.2893   29.1512   38.3277 H   0  0  0  0  0  0  0  0  0  0  0  0
   31.0163   29.4541   36.1913 H   0  0  0  0  0  0  0  0  0  0  0  0
   32.1406   29.4916   33.9915 H   0  0  0  0  0  0  0  0  0  0  0  0
   34.6513   29.2159   33.9055 H   0  0  0  0  0  0  0  0  0  0  0  0
   40.0541   35.0934   38.9597 H   0  0  0  0  0  0  0  0  0  0  0  0
   41.2854   34.0219   39.6798 H   0  0  0  0  0  0  0  0  0  0  0  0
  1  5  1  0
  1  2  1  0
  2  3  2  0
  4  3  1  0
  5  4  2  0
  6  7  1  0
  6  5  1  0
  8  7  2  0
  9 14  2  0
  9  8  1  0
 10  9  1  0
 11 10  2  0
 11 12  1  0
 12 13  2  0
 13 14  1  0
 14  6  1  0
 16 15  2  0
 16  1  1  0
 17 16  1  0
 18 19  1  0
 18 17  2  0
 19 20  2  0
 20 15  1  0
 21 22  2  0
 21 19  1  0
 23 22  1  0
 24 23  2  0
 25 24  1  0
 25 26  2  0
 26 21  1  0
 27 10  1  0
  2 28  1  0
  3 29  1  0
  7 30  1  0
 12 31  1  0
 15 32  1  0
 17 33  1  0
 22 34  1  0
 23 35  1  0
 24 36  1  0
 25 37  1  0
 27 38  1  0
 27 39  1  0
M  ISO  8  28  14  29  14  30  14  31  14  32  14  33  14  34  14  35  14
M  ISO  2  36  14  37  14
M  END
>  <minimizedAffinity>  (1) 
-6.25411177

>  <minimizedRMSD>  (1) 
2.22263479

$$$$
