
     RDKit          3D

 37 41  0  0  0  0  0  0  0  0999 V2000
   37.0750   28.3660   40.3740 N   0  0  0  0  0  0  0  0  0  0  0  0
   36.6130   27.2020   40.8720 C   0  0  0  0  0  0  0  0  0  0  0  0
   36.9650   27.2400   42.1960 C   0  0  0  0  0  0  0  0  0  0  0  0
   37.6240   28.3990   42.4840 N   0  0  0  0  0  0  0  0  0  0  0  0
   37.6730   29.0710   41.3320 C   0  0  0  0  0  0  0  0  0  0  0  0
   38.3290   30.3370   41.3950 N   0  0  0  0  0  0  0  0  0  0  0  0
   39.4250   30.5480   42.1890 C   0  0  0  0  0  0  0  0  0  0  0  0
   39.8620   31.8380   42.0690 N   0  0  0  0  0  0  0  0  0  0  0  0
   39.0440   32.4540   41.1980 C   0  0  0  0  0  0  0  0  0  0  0  0
   39.0110   33.7350   40.7090 C   0  0  0  0  0  0  0  0  0  0  0  0
   38.0200   33.9990   39.8280 N   0  0  0  0  0  0  0  0  0  0  0  0
   37.1130   33.0960   39.4340 C   0  0  0  0  0  0  0  0  0  0  0  0
   37.1400   31.8280   39.9130 N   0  0  0  0  0  0  0  0  0  0  0  0
   38.1030   31.5340   40.7830 C   0  0  0  0  0  0  0  0  0  0  0  0
   35.7470   29.1590   38.4570 C   0  0  0  0  0  0  0  0  0  0  0  0
   36.9510   28.7850   39.0390 C   0  0  0  0  0  0  0  0  0  0  0  0
   38.0990   28.8370   38.2140 C   0  0  0  0  0  0  0  0  0  0  0  0
   37.9900   29.2380   36.9270 N   0  0  0  0  0  0  0  0  0  0  0  0
   36.7660   29.5990   36.4000 C   0  0  0  0  0  0  0  0  0  0  0  0
   35.6460   29.5580   37.1680 N   0  0  0  0  0  0  0  0  0  0  0  0
   36.6750   30.0280   35.0090 C   0  0  0  0  0  0  0  0  0  0  0  0
   36.5270   29.1980   33.9280 C   0  0  0  0  0  0  0  0  0  0  0  0
   36.4760   29.9230   32.7750 N   0  0  0  0  0  0  0  0  0  0  0  0
   36.5940   31.2260   33.1470 C   0  0  0  0  0  0  0  0  0  0  0  0
   36.7130   31.2660   34.4880 N   0  0  0  0  0  0  0  0  0  0  0  0
   39.9460   34.7310   41.0920 N   0  0  0  0  0  0  0  0  0  0  0  0
   36.0762   26.4041   40.3380 H   0  0  0  0  0  0  0  0  0  0  0  0
   36.7464   26.4460   42.9252 H   0  0  0  0  0  0  0  0  0  0  0  0
   39.8887   29.7863   42.8330 H   0  0  0  0  0  0  0  0  0  0  0  0
   36.3357   33.3870   38.7121 H   0  0  0  0  0  0  0  0  0  0  0  0
   34.8348   29.1296   39.0711 H   0  0  0  0  0  0  0  0  0  0  0  0
   39.0808   28.5511   38.6195 H   0  0  0  0  0  0  0  0  0  0  0  0
   36.4590   28.1015   33.9834 H   0  0  0  0  0  0  0  0  0  0  0  0
   36.5925   32.0942   32.4716 H   0  0  0  0  0  0  0  0  0  0  0  0
   36.8189   32.1293   35.0398 H   0  0  0  0  0  0  0  0  0  0  0  0
   39.8791   35.6796   40.6962 H   0  0  0  0  0  0  0  0  0  0  0  0
   40.6916   34.5055   41.7658 H   0  0  0  0  0  0  0  0  0  0  0  0
  1  2  1  0
  1  5  1  0
  2  3  2  0
  3  4  1  0
  5  6  1  0
  5  4  2  0
  6  7  1  0
  8  7  2  0
  9  8  1  0
 10 26  1  0
 10  9  2  0
 11 10  1  0
 12 11  2  0
 12 13  1  0
 13 14  2  0
 14  9  1  0
 14  6  1  0
 15 16  2  0
 16  1  1  0
 17 16  1  0
 18 17  2  0
 19 18  1  0
 19 20  2  0
 20 15  1  0
 21 19  1  0
 22 21  2  0
 23 24  2  0
 23 22  1  0
 24 25  1  0
 25 21  1  0
  2 27  1  0
  3 28  1  0
  7 29  1  0
 12 30  1  0
 15 31  1  0
 17 32  1  0
 22 33  1  0
 24 34  1  0
 25 35  1  0
 26 36  1  0
 26 37  1  0
M  ISO  8  27  14  28  14  29  14  30  14  31  14  32  14  33  14  34  14
M  ISO  1  35   9
M  END
>  <minimizedAffinity>  (1) 
-6.17595005

>  <minimizedRMSD>  (1) 
0.343865931

$$$$
