
     RDKit          3D

 37 41  0  0  0  0  0  0  0  0999 V2000
   36.8760   28.4550   41.9780 N   0  0  0  0  0  0  0  0  0  0  0  0
   36.5420   27.5340   42.9020 C   0  0  0  0  0  0  0  0  0  0  0  0
   37.3610   27.7940   43.9700 C   0  0  0  0  0  0  0  0  0  0  0  0
   38.1810   28.8530   43.7020 N   0  0  0  0  0  0  0  0  0  0  0  0
   37.8550   29.2440   42.4540 C   0  0  0  0  0  0  0  0  0  0  0  0
   38.5980   30.3560   41.9570 N   0  0  0  0  0  0  0  0  0  0  0  0
   39.9210   30.5380   42.2450 C   0  0  0  0  0  0  0  0  0  0  0  0
   40.3990   31.6660   41.6560 N   0  0  0  0  0  0  0  0  0  0  0  0
   39.3750   32.2180   40.9840 C   0  0  0  0  0  0  0  0  0  0  0  0
   39.2620   33.3560   40.2070 C   0  0  0  0  0  0  0  0  0  0  0  0
   38.0470   33.5900   39.6830 N   0  0  0  0  0  0  0  0  0  0  0  0
   36.9890   32.8000   39.8730 C   0  0  0  0  0  0  0  0  0  0  0  0
   37.0790   31.6790   40.6310 N   0  0  0  0  0  0  0  0  0  0  0  0
   38.2730   31.4140   41.1690 C   0  0  0  0  0  0  0  0  0  0  0  0
   35.0190   29.0450   40.4840 C   0  0  0  0  0  0  0  0  0  0  0  0
   36.3070   28.5930   40.7070 C   0  0  0  0  0  0  0  0  0  0  0  0
   37.0810   28.2550   39.5710 C   0  0  0  0  0  0  0  0  0  0  0  0
   36.5120   28.3950   38.3420 N   0  0  0  0  0  0  0  0  0  0  0  0
   35.2360   28.8460   38.1740 C   0  0  0  0  0  0  0  0  0  0  0  0
   34.4740   29.1770   39.2620 N   0  0  0  0  0  0  0  0  0  0  0  0
   34.6790   28.9770   36.8340 C   0  0  0  0  0  0  0  0  0  0  0  0
   33.2890   29.0870   36.7560 C   0  0  0  0  0  0  0  0  0  0  0  0
   32.9540   29.2010   35.4100 C   0  0  0  0  0  0  0  0  0  0  0  0
   34.1780   29.1510   34.7470 C   0  0  0  0  0  0  0  0  0  0  0  0
   35.1530   29.0200   35.6100 O   0  0  0  0  0  0  0  0  0  0  0  0
   40.3690   34.2230   39.9810 N   0  0  0  0  0  0  0  0  0  0  0  0
   35.7792   26.7459   42.8181 H   0  0  0  0  0  0  0  0  0  0  0  0
   37.3582   27.2277   44.9131 H   0  0  0  0  0  0  0  0  0  0  0  0
   40.5205   29.8609   42.8711 H   0  0  0  0  0  0  0  0  0  0  0  0
   36.0276   33.0622   39.4071 H   0  0  0  0  0  0  0  0  0  0  0  0
   34.4051   29.3119   41.3568 H   0  0  0  0  0  0  0  0  0  0  0  0
   38.1130   27.8896   39.6781 H   0  0  0  0  0  0  0  0  0  0  0  0
   32.5874   29.0841   37.6032 H   0  0  0  0  0  0  0  0  0  0  0  0
   31.9513   29.3065   34.9701 H   0  0  0  0  0  0  0  0  0  0  0  0
   34.3064   29.2127   33.6563 H   0  0  0  0  0  0  0  0  0  0  0  0
   40.2539   35.0638   39.3972 H   0  0  0  0  0  0  0  0  0  0  0  0
   41.2847   34.0093   40.4013 H   0  0  0  0  0  0  0  0  0  0  0  0
  1  5  1  0
  1  2  1  0
  2  3  2  0
  4  3  1  0
  5  4  2  0
  6  7  1  0
  6  5  1  0
  8  7  2  0
  9 14  2  0
  9  8  1  0
 10  9  1  0
 11 12  1  0
 11 10  2  0
 12 13  2  0
 13 14  1  0
 14  6  1  0
 15 16  2  0
 16  1  1  0
 17 16  1  0
 18 17  2  0
 19 18  1  0
 19 20  2  0
 20 15  1  0
 21 19  1  0
 22 21  2  0
 23 22  1  0
 24 23  2  0
 24 25  1  0
 25 21  1  0
 26 10  1  0
  2 27  1  0
  3 28  1  0
  7 29  1  0
 12 30  1  0
 15 31  1  0
 17 32  1  0
 22 33  1  0
 23 34  1  0
 24 35  1  0
 26 36  1  0
 26 37  1  0
M  ISO  8  27  14  28  14  29  14  30  14  31  14  32  14  33  14  34  14
M  ISO  1  35  14
M  END
>  <minimizedAffinity>  (1) 
-6.14883327

>  <minimizedRMSD>  (1) 
1.75947618

$$$$
