
     RDKit          3D

 35 39  0  0  0  0  0  0  0  0999 V2000
   36.8770   28.5050   41.9220 N   0  0  0  0  0  0  0  0  0  0  0  0
   36.4960   27.5780   42.8100 C   0  0  0  0  0  0  0  0  0  0  0  0
   37.2710   27.8310   43.9120 C   0  0  0  0  0  0  0  0  0  0  0  0
   38.1040   28.8940   43.6910 N   0  0  0  0  0  0  0  0  0  0  0  0
   37.8370   29.2920   42.4450 C   0  0  0  0  0  0  0  0  0  0  0  0
   38.5940   30.4040   41.9820 N   0  0  0  0  0  0  0  0  0  0  0  0
   39.9080   30.5820   42.3370 C   0  0  0  0  0  0  0  0  0  0  0  0
   40.4050   31.7190   41.7630 N   0  0  0  0  0  0  0  0  0  0  0  0
   39.4190   32.2710   41.0430 C   0  0  0  0  0  0  0  0  0  0  0  0
   39.3500   33.4070   40.2650 C   0  0  0  0  0  0  0  0  0  0  0  0
   38.1670   33.6390   39.6870 N   0  0  0  0  0  0  0  0  0  0  0  0
   37.0890   32.8540   39.8180 C   0  0  0  0  0  0  0  0  0  0  0  0
   37.1370   31.7330   40.5780 N   0  0  0  0  0  0  0  0  0  0  0  0
   38.3080   31.4640   41.1780 C   0  0  0  0  0  0  0  0  0  0  0  0
   35.0710   29.0640   40.3380 C   0  0  0  0  0  0  0  0  0  0  0  0
   36.3600   28.6530   40.6200 C   0  0  0  0  0  0  0  0  0  0  0  0
   37.2020   28.3640   39.5070 C   0  0  0  0  0  0  0  0  0  0  0  0
   36.7060   28.5060   38.2540 N   0  0  0  0  0  0  0  0  0  0  0  0
   35.4220   28.9170   38.0350 C   0  0  0  0  0  0  0  0  0  0  0  0
   34.5980   29.1990   39.0910 N   0  0  0  0  0  0  0  0  0  0  0  0
   34.9510   29.0500   36.6750 C   0  0  0  0  0  0  0  0  0  0  0  0
   35.5880   29.1770   35.4860 N   0  0  0  0  0  0  0  0  0  0  0  0
   34.6910   29.2590   34.5640 O   0  0  0  0  0  0  0  0  0  0  0  0
   33.4940   29.1940   35.0790 C   0  0  0  0  0  0  0  0  0  0  0  0
   33.6250   29.0610   36.4140 N   0  0  0  0  0  0  0  0  0  0  0  0
   40.4630   34.2660   40.0960 N   0  0  0  0  0  0  0  0  0  0  0  0
   35.7355   26.7933   42.6840 H   0  0  0  0  0  0  0  0  0  0  0  0
   37.2289   27.2562   44.8490 H   0  0  0  0  0  0  0  0  0  0  0  0
   40.4796   29.9062   42.9902 H   0  0  0  0  0  0  0  0  0  0  0  0
   36.1548   33.1224   39.3030 H   0  0  0  0  0  0  0  0  0  0  0  0
   34.3995   29.2918   41.1790 H   0  0  0  0  0  0  0  0  0  0  0  0
   38.2387   28.0308   39.6627 H   0  0  0  0  0  0  0  0  0  0  0  0
   32.5462   29.2396   34.5226 H   0  0  0  0  0  0  0  0  0  0  0  0
   40.3795   35.1075   39.5080 H   0  0  0  0  0  0  0  0  0  0  0  0
   41.3561   34.0493   40.5611 H   0  0  0  0  0  0  0  0  0  0  0  0
  1  5  1  0
  1  2  1  0
  2  3  2  0
  4  3  1  0
  5  4  2  0
  6  7  1  0
  6  5  1  0
  8  7  2  0
  9 14  2  0
  9  8  1  0
 10  9  1  0
 11 12  1  0
 11 10  2  0
 12 13  2  0
 13 14  1  0
 14  6  1  0
 15 16  2  0
 16  1  1  0
 17 16  1  0
 18 17  2  0
 19 18  1  0
 19 20  2  0
 20 15  1  0
 21 19  1  0
 22 21  2  0
 23 24  1  0
 23 22  1  0
 24 25  2  0
 25 21  1  0
 26 10  1  0
  2 27  1  0
  3 28  1  0
  7 29  1  0
 12 30  1  0
 15 31  1  0
 17 32  1  0
 24 33  1  0
 26 34  1  0
 26 35  1  0
M  ISO  7  27  14  28  14  29  14  30  14  31  14  32  14  33  14
M  END
>  <minimizedAffinity>  (1) 
-6.08658123

>  <minimizedRMSD>  (1) 
1.58495891

$$$$
