
     RDKit          3D

 36 40  0  0  0  0  0  0  0  0999 V2000
   36.8400   28.4440   42.0190 N   0  0  0  0  0  0  0  0  0  0  0  0
   36.3680   27.5460   42.8990 C   0  0  0  0  0  0  0  0  0  0  0  0
   37.0810   27.7810   44.0480 C   0  0  0  0  0  0  0  0  0  0  0  0
   37.9680   28.8030   43.8610 N   0  0  0  0  0  0  0  0  0  0  0  0
   37.7910   29.1950   42.5890 C   0  0  0  0  0  0  0  0  0  0  0  0
   38.6250   30.2690   42.1660 N   0  0  0  0  0  0  0  0  0  0  0  0
   39.9160   30.3990   42.5960 C   0  0  0  0  0  0  0  0  0  0  0  0
   40.4970   31.5080   42.0470 N   0  0  0  0  0  0  0  0  0  0  0  0
   39.5720   32.0930   41.2600 C   0  0  0  0  0  0  0  0  0  0  0  0
   39.5950   33.2200   40.4740 C   0  0  0  0  0  0  0  0  0  0  0  0
   38.4590   33.4980   39.8170 N   0  0  0  0  0  0  0  0  0  0  0  0
   37.3470   32.7530   39.8940 C   0  0  0  0  0  0  0  0  0  0  0  0
   37.3080   31.6380   40.6660 N   0  0  0  0  0  0  0  0  0  0  0  0
   38.4210   31.3340   41.3300 C   0  0  0  0  0  0  0  0  0  0  0  0
   35.1480   29.0610   40.3260 C   0  0  0  0  0  0  0  0  0  0  0  0
   36.4070   28.5890   40.6880 C   0  0  0  0  0  0  0  0  0  0  0  0
   37.2980   28.2390   39.6430 C   0  0  0  0  0  0  0  0  0  0  0  0
   36.8790   28.3810   38.3620 N   0  0  0  0  0  0  0  0  0  0  0  0
   35.6280   28.8500   38.0640 C   0  0  0  0  0  0  0  0  0  0  0  0
   34.7520   29.1930   39.0440 N   0  0  0  0  0  0  0  0  0  0  0  0
   35.3730   28.9260   36.6080 C   0  0  0  0  0  0  0  0  0  0  0  0
   36.5270   29.2730   35.9260 C   0  0  0  0  0  0  0  0  0  0  0  0
   36.0160   29.3160   34.1680 S   0  0  0  0  0  0  0  0  0  0  0  0
   34.2390   28.8340   34.6820 C   0  0  0  0  0  0  0  0  0  0  0  0
   34.3500   28.7550   35.7940 N   0  0  0  0  0  0  0  0  0  0  0  0
   40.7500   34.0410   40.3590 N   0  0  0  0  0  0  0  0  0  0  0  0
   35.5850   26.7909   42.7355 H   0  0  0  0  0  0  0  0  0  0  0  0
   36.9557   27.2241   44.9883 H   0  0  0  0  0  0  0  0  0  0  0  0
   40.4180   29.7069   43.2881 H   0  0  0  0  0  0  0  0  0  0  0  0
   36.4544   33.0497   39.3237 H   0  0  0  0  0  0  0  0  0  0  0  0
   34.4433   29.3393   41.1235 H   0  0  0  0  0  0  0  0  0  0  0  0
   38.3065   27.8608   39.8665 H   0  0  0  0  0  0  0  0  0  0  0  0
   37.5236   29.4765   36.3448 H   0  0  0  0  0  0  0  0  0  0  0  0
   33.3486   28.6768   34.0556 H   0  0  0  0  0  0  0  0  0  0  0  0
   40.7290   34.8784   39.7597 H   0  0  0  0  0  0  0  0  0  0  0  0
   41.6078   33.7984   40.8750 H   0  0  0  0  0  0  0  0  0  0  0  0
  1  5  1  0
  1  2  1  0
  2  3  2  0
  4  3  1  0
  5  4  2  0
  6  5  1  0
  6  7  1  0
  8  7  2  0
  9 14  2  0
  9  8  1  0
 10  9  1  0
 11 12  1  0
 11 10  2  0
 12 13  2  0
 13 14  1  0
 14  6  1  0
 15 16  2  0
 16  1  1  0
 17 16  1  0
 18 17  2  0
 19 18  1  0
 19 20  2  0
 20 15  1  0
 21 19  1  0
 22 21  2  0
 23 24  1  0
 23 22  1  0
 24 25  2  0
 25 21  1  0
 26 10  1  0
  2 27  1  0
  3 28  1  0
  7 29  1  0
 12 30  1  0
 15 31  1  0
 17 32  1  0
 22 33  1  0
 24 34  1  0
 26 35  1  0
 26 36  1  0
M  ISO  8  27  14  28  14  29  14  30  14  31  14  32  14  33  14  34  14
M  END
>  <minimizedAffinity>  (1) 
-5.99708223

>  <minimizedRMSD>  (1) 
1.56131673

$$$$
