
     RDKit          3D

 33 36  0  0  0  0  0  0  0  0999 V2000
   37.1720   28.2610   40.5430 N   0  0  0  0  0  0  0  0  0  0  0  0
   36.7620   27.0910   41.0990 C   0  0  0  0  0  0  0  0  0  0  0  0
   37.1930   27.1660   42.3970 C   0  0  0  0  0  0  0  0  0  0  0  0
   37.8400   28.3380   42.6250 N   0  0  0  0  0  0  0  0  0  0  0  0
   37.8130   28.9970   41.4640 C   0  0  0  0  0  0  0  0  0  0  0  0
   38.4390   30.2660   41.4620 N   0  0  0  0  0  0  0  0  0  0  0  0
   39.5760   30.5170   42.1900 C   0  0  0  0  0  0  0  0  0  0  0  0
   39.9890   31.7980   42.0310 N   0  0  0  0  0  0  0  0  0  0  0  0
   39.1140   32.3930   41.1910 C   0  0  0  0  0  0  0  0  0  0  0  0
   39.0260   33.6630   40.6760 C   0  0  0  0  0  0  0  0  0  0  0  0
   37.9970   33.8950   39.8540 N   0  0  0  0  0  0  0  0  0  0  0  0
   37.0810   32.9710   39.5240 C   0  0  0  0  0  0  0  0  0  0  0  0
   37.1460   31.7150   40.0180 N   0  0  0  0  0  0  0  0  0  0  0  0
   38.1710   31.4560   40.8460 C   0  0  0  0  0  0  0  0  0  0  0  0
   35.7230   29.0020   38.6960 C   0  0  0  0  0  0  0  0  0  0  0  0
   36.9610   28.6500   39.2110 C   0  0  0  0  0  0  0  0  0  0  0  0
   38.0710   28.6900   38.3250 C   0  0  0  0  0  0  0  0  0  0  0  0
   37.8680   29.0650   37.0410 N   0  0  0  0  0  0  0  0  0  0  0  0
   36.6070   29.4050   36.5870 C   0  0  0  0  0  0  0  0  0  0  0  0
   35.5270   29.3730   37.4220 N   0  0  0  0  0  0  0  0  0  0  0  0
   36.3360   29.8210   35.1950 C   0  0  0  0  0  0  0  0  0  0  0  0
   35.0000   29.7910   34.8890 F   0  0  0  0  0  0  0  0  0  0  0  0
   37.0850   29.0320   34.3440 F   0  0  0  0  0  0  0  0  0  0  0  0
   36.7790   31.1370   35.0220 F   0  0  0  0  0  0  0  0  0  0  0  0
   39.9790   34.6780   41.0000 N   0  0  0  0  0  0  0  0  0  0  0  0
   36.2100   26.2708   40.6168 H   0  0  0  0  0  0  0  0  0  0  0  0
   37.0362   26.3824   43.1529 H   0  0  0  0  0  0  0  0  0  0  0  0
   40.0859   29.7741   42.8209 H   0  0  0  0  0  0  0  0  0  0  0  0
   36.2633   33.2409   38.8396 H   0  0  0  0  0  0  0  0  0  0  0  0
   34.8535   28.9756   39.3692 H   0  0  0  0  0  0  0  0  0  0  0  0
   39.0778   28.4208   38.6768 H   0  0  0  0  0  0  0  0  0  0  0  0
   39.8843   35.6210   40.5965 H   0  0  0  0  0  0  0  0  0  0  0  0
   40.7603   34.4664   41.6369 H   0  0  0  0  0  0  0  0  0  0  0  0
  1  2  1  0
  1  5  1  0
  2  3  2  0
  3  4  1  0
  5  4  2  0
  6  5  1  0
  6  7  1  0
  8  7  2  0
  9  8  1  0
 10 25  1  0
 10  9  2  0
 11 10  1  0
 12 11  2  0
 12 13  1  0
 13 14  2  0
 14  9  1  0
 14  6  1  0
 15 16  2  0
 16  1  1  0
 17 16  1  0
 18 17  2  0
 19 18  1  0
 19 20  2  0
 20 15  1  0
 21 19  1  0
 22 21  1  0
 23 21  1  0
 24 21  1  0
  2 26  1  0
  3 27  1  0
  7 28  1  0
 12 29  1  0
 15 30  1  0
 17 31  1  0
 25 32  1  0
 25 33  1  0
M  ISO  6  26  14  27  14  28  14  29  14  30  14  31  14
M  END
>  <minimizedAffinity>  (1) 
-5.8986721

>  <minimizedRMSD>  (1) 
0.214633808

$$$$
