
     RDKit          3D

 36 39  0  0  0  0  0  0  0  0999 V2000
   36.8700   28.5050   41.8900 N   0  0  0  0  0  0  0  0  0  0  0  0
   36.4770   27.5790   42.7870 C   0  0  0  0  0  0  0  0  0  0  0  0
   37.2250   27.8480   43.9070 C   0  0  0  0  0  0  0  0  0  0  0  0
   38.0480   28.9140   43.6800 N   0  0  0  0  0  0  0  0  0  0  0  0
   37.8030   29.2930   42.4280 C   0  0  0  0  0  0  0  0  0  0  0  0
   38.5650   30.4140   41.9680 N   0  0  0  0  0  0  0  0  0  0  0  0
   39.8660   30.6030   42.3360 C   0  0  0  0  0  0  0  0  0  0  0  0
   40.3710   31.7360   41.7690 N   0  0  0  0  0  0  0  0  0  0  0  0
   39.3870   32.2770   41.0320 C   0  0  0  0  0  0  0  0  0  0  0  0
   39.3320   33.4100   40.2530 C   0  0  0  0  0  0  0  0  0  0  0  0
   38.1410   33.6380   39.6470 N   0  0  0  0  0  0  0  0  0  0  0  0
   37.0710   32.8430   39.7740 C   0  0  0  0  0  0  0  0  0  0  0  0
   37.1190   31.7230   40.5410 N   0  0  0  0  0  0  0  0  0  0  0  0
   38.2850   31.4650   41.1580 C   0  0  0  0  0  0  0  0  0  0  0  0
   35.0770   29.0420   40.2880 C   0  0  0  0  0  0  0  0  0  0  0  0
   36.3810   28.6340   40.5820 C   0  0  0  0  0  0  0  0  0  0  0  0
   37.2260   28.3440   39.4870 C   0  0  0  0  0  0  0  0  0  0  0  0
   36.7420   28.4720   38.2260 N   0  0  0  0  0  0  0  0  0  0  0  0
   35.4470   28.8790   37.9910 C   0  0  0  0  0  0  0  0  0  0  0  0
   34.6060   29.1680   39.0410 N   0  0  0  0  0  0  0  0  0  0  0  0
   34.9550   29.0070   36.5980 C   0  0  0  0  0  0  0  0  0  0  0  0
   36.0640   29.4470   35.6730 C   0  0  0  0  0  0  0  0  0  0  0  0
   40.4330   34.2860   40.0840 N   0  0  0  0  0  0  0  0  0  0  0  0
   35.7263   26.7864   42.6524 H   0  0  0  0  0  0  0  0  0  0  0  0
   37.1693   27.2859   44.8509 H   0  0  0  0  0  0  0  0  0  0  0  0
   40.4307   29.9321   43.0001 H   0  0  0  0  0  0  0  0  0  0  0  0
   36.1392   33.1008   39.2493 H   0  0  0  0  0  0  0  0  0  0  0  0
   34.4018   29.2718   41.1255 H   0  0  0  0  0  0  0  0  0  0  0  0
   38.2632   28.0185   39.6550 H   0  0  0  0  0  0  0  0  0  0  0  0
   34.5702   28.0331   36.2611 H   0  0  0  0  0  0  0  0  0  0  0  0
   34.1574   29.7642   36.5753 H   0  0  0  0  0  0  0  0  0  0  0  0
   36.9240   29.7882   36.2680 H   0  0  0  0  0  0  0  0  0  0  0  0
   36.3693   28.6019   35.0385 H   0  0  0  0  0  0  0  0  0  0  0  0
   35.7068   30.2715   35.0385 H   0  0  0  0  0  0  0  0  0  0  0  0
   40.3396   35.1218   39.4893 H   0  0  0  0  0  0  0  0  0  0  0  0
   41.3267   34.0869   40.5558 H   0  0  0  0  0  0  0  0  0  0  0  0
  1  5  1  0
  1  2  1  0
  2  3  2  0
  4  3  1  0
  5  4  2  0
  6  7  1  0
  6  5  1  0
  8  7  2  0
  9 14  2  0
  9  8  1  0
 10  9  1  0
 11 12  1  0
 11 10  2  0
 12 13  2  0
 13 14  1  0
 14  6  1  0
 15 16  2  0
 16  1  1  0
 17 16  1  0
 18 17  2  0
 19 18  1  0
 19 20  2  0
 20 15  1  0
 21 19  1  0
 22 21  1  0
 23 10  1  0
  2 24  1  0
  3 25  1  0
  7 26  1  0
 12 27  1  0
 15 28  1  0
 17 29  1  0
 21 30  1  0
 21 31  1  0
 22 32  1  0
 22 33  1  0
 22 34  1  0
 23 35  1  0
 23 36  1  0
M  ISO  8  24  14  25  14  26  14  27  14  28  14  29  14  30   8  31   8
M  ISO  3  32   8  33   8  34   8
M  END
>  <minimizedAffinity>  (1) 
-5.73854923

>  <minimizedRMSD>  (1) 
1.33540881

$$$$
