
     RDKit          3D

 33 36  0  0  0  0  0  0  0  0999 V2000
   37.1750   28.2690   40.5350 N   0  0  0  0  0  0  0  0  0  0  0  0
   36.7550   27.0980   41.0760 C   0  0  0  0  0  0  0  0  0  0  0  0
   37.1870   27.1720   42.3890 C   0  0  0  0  0  0  0  0  0  0  0  0
   37.8420   28.3410   42.6220 N   0  0  0  0  0  0  0  0  0  0  0  0
   37.8200   29.0020   41.4580 C   0  0  0  0  0  0  0  0  0  0  0  0
   38.4560   30.2750   41.4650 N   0  0  0  0  0  0  0  0  0  0  0  0
   39.5940   30.5140   42.1920 C   0  0  0  0  0  0  0  0  0  0  0  0
   39.9970   31.8050   42.0260 N   0  0  0  0  0  0  0  0  0  0  0  0
   39.1320   32.3920   41.2030 C   0  0  0  0  0  0  0  0  0  0  0  0
   39.0450   33.6720   40.6920 C   0  0  0  0  0  0  0  0  0  0  0  0
   38.0130   33.9080   39.8730 N   0  0  0  0  0  0  0  0  0  0  0  0
   37.0950   32.9900   39.5420 C   0  0  0  0  0  0  0  0  0  0  0  0
   37.1550   31.7230   40.0290 N   0  0  0  0  0  0  0  0  0  0  0  0
   38.1750   31.4610   40.8480 C   0  0  0  0  0  0  0  0  0  0  0  0
   35.7290   29.0230   38.6910 C   0  0  0  0  0  0  0  0  0  0  0  0
   36.9710   28.6640   39.2070 C   0  0  0  0  0  0  0  0  0  0  0  0
   38.0740   28.7080   38.3260 C   0  0  0  0  0  0  0  0  0  0  0  0
   37.8770   29.0920   37.0400 N   0  0  0  0  0  0  0  0  0  0  0  0
   36.6190   29.4360   36.5880 C   0  0  0  0  0  0  0  0  0  0  0  0
   35.5420   29.4000   37.4210 N   0  0  0  0  0  0  0  0  0  0  0  0
   36.3890   29.8580   35.1760 C   0  0  0  0  0  0  0  0  0  0  0  0
   39.9990   34.6800   41.0190 N   0  0  0  0  0  0  0  0  0  0  0  0
   36.2019   26.2825   40.5869 H   0  0  0  0  0  0  0  0  0  0  0  0
   37.0224   26.3891   43.1439 H   0  0  0  0  0  0  0  0  0  0  0  0
   40.1076   29.7704   42.8190 H   0  0  0  0  0  0  0  0  0  0  0  0
   36.2761   33.2677   38.8621 H   0  0  0  0  0  0  0  0  0  0  0  0
   34.8572   28.9953   39.3613 H   0  0  0  0  0  0  0  0  0  0  0  0
   39.0796   28.4345   38.6780 H   0  0  0  0  0  0  0  0  0  0  0  0
   35.8626   30.8238   35.1631 H   0  0  0  0  0  0  0  0  0  0  0  0
   37.3560   29.9605   34.6618 H   0  0  0  0  0  0  0  0  0  0  0  0
   35.7788   29.1009   34.6618 H   0  0  0  0  0  0  0  0  0  0  0  0
   39.9061   35.6255   40.6211 H   0  0  0  0  0  0  0  0  0  0  0  0
   40.7810   34.4627   41.6531 H   0  0  0  0  0  0  0  0  0  0  0  0
  1  2  1  0
  1  5  1  0
  2  3  2  0
  3  4  1  0
  5  6  1  0
  5  4  2  0
  6  7  1  0
  8  7  2  0
  9  8  1  0
 10 22  1  0
 10  9  2  0
 11 10  1  0
 12 11  2  0
 12 13  1  0
 13 14  2  0
 14  9  1  0
 14  6  1  0
 15 16  2  0
 16  1  1  0
 17 16  1  0
 18 17  2  0
 19 18  1  0
 19 20  2  0
 20 15  1  0
 21 19  1  0
  2 23  1  0
  3 24  1  0
  7 25  1  0
 12 26  1  0
 15 27  1  0
 17 28  1  0
 21 29  1  0
 21 30  1  0
 21 31  1  0
 22 32  1  0
 22 33  1  0
M  ISO  8  23  14  24  14  25  14  26  14  27  14  28  14  29   8  30   8
M  ISO  1  31   8
M  END
>  <minimizedAffinity>  (1) 
-5.50042629

>  <minimizedRMSD>  (1) 
0.0128897931

$$$$
