
     RDKit          3D

 31 34  0  0  0  0  0  0  0  0999 V2000
   37.1410   28.2350   40.7160 N   0  0  0  0  0  0  0  0  0  0  0  0
   36.7450   27.0800   41.2910 C   0  0  0  0  0  0  0  0  0  0  0  0
   37.2540   27.1630   42.5750 C   0  0  0  0  0  0  0  0  0  0  0  0
   37.9300   28.3310   42.7530 N   0  0  0  0  0  0  0  0  0  0  0  0
   37.8450   28.9770   41.5830 C   0  0  0  0  0  0  0  0  0  0  0  0
   38.4940   30.2440   41.5440 N   0  0  0  0  0  0  0  0  0  0  0  0
   39.6590   30.4740   42.2050 C   0  0  0  0  0  0  0  0  0  0  0  0
   40.0790   31.7680   42.0090 N   0  0  0  0  0  0  0  0  0  0  0  0
   39.1690   32.3590   41.2170 C   0  0  0  0  0  0  0  0  0  0  0  0
   39.0600   33.6230   40.6960 C   0  0  0  0  0  0  0  0  0  0  0  0
   37.9880   33.8660   39.9250 N   0  0  0  0  0  0  0  0  0  0  0  0
   37.0490   32.9420   39.6570 C   0  0  0  0  0  0  0  0  0  0  0  0
   37.1370   31.6910   40.1610 N   0  0  0  0  0  0  0  0  0  0  0  0
   38.1950   31.4280   40.9290 C   0  0  0  0  0  0  0  0  0  0  0  0
   35.6140   29.0010   38.9350 C   0  0  0  0  0  0  0  0  0  0  0  0
   36.8630   28.6200   39.3910 C   0  0  0  0  0  0  0  0  0  0  0  0
   37.9240   28.6260   38.4420 C   0  0  0  0  0  0  0  0  0  0  0  0
   37.6560   28.9970   37.1630 N   0  0  0  0  0  0  0  0  0  0  0  0
   36.3910   29.3640   36.7790 C   0  0  0  0  0  0  0  0  0  0  0  0
   35.3570   29.3680   37.6700 N   0  0  0  0  0  0  0  0  0  0  0  0
   36.3250   29.8030   35.0460 S   0  0  0  0  0  0  0  0  0  0  0  0
   40.0330   34.6340   40.9540 N   0  0  0  0  0  0  0  0  0  0  0  0
   36.1565   26.2650   40.8443 H   0  0  0  0  0  0  0  0  0  0  0  0
   37.1292   26.3898   43.3474 H   0  0  0  0  0  0  0  0  0  0  0  0
   40.1920   29.7279   42.8127 H   0  0  0  0  0  0  0  0  0  0  0  0
   36.1950   33.2085   39.0170 H   0  0  0  0  0  0  0  0  0  0  0  0
   34.7806   29.0033   39.6529 H   0  0  0  0  0  0  0  0  0  0  0  0
   38.9425   28.3355   38.7390 H   0  0  0  0  0  0  0  0  0  0  0  0
   36.1221   31.1524   34.9241 H   0  0  0  0  0  0  0  0  0  0  0  0
   39.9202   35.5733   40.5466 H   0  0  0  0  0  0  0  0  0  0  0  0
   40.8483   34.4246   41.5477 H   0  0  0  0  0  0  0  0  0  0  0  0
  1  2  1  0
  1  5  1  0
  2  3  2  0
  3  4  1  0
  5  4  2  0
  6  5  1  0
  6  7  1  0
  8  7  2  0
  9  8  1  0
 10 22  1  0
 10  9  2  0
 11 10  1  0
 12 11  2  0
 12 13  1  0
 13 14  2  0
 14  9  1  0
 14  6  1  0
 15 16  2  0
 16  1  1  0
 17 16  1  0
 18 17  2  0
 19 18  1  0
 19 20  2  0
 20 15  1  0
 21 19  1  0
  2 23  1  0
  3 24  1  0
  7 25  1  0
 12 26  1  0
 15 27  1  0
 17 28  1  0
 21 29  1  0
 22 30  1  0
 22 31  1  0
M  ISO  7  23  14  24  14  25  14  26  14  27  14  28  14  29  11
M  END
>  <minimizedAffinity>  (1) 
-5.42189455

>  <minimizedRMSD>  (1) 
0.195431843

$$$$
