
     RDKit          3D

 37 39  0  0  0  0  0  0  0  0999 V2000
   41.4650   30.9660   41.5740 C   0  0  0  0  0  0  0  0  0  0  0  0
   40.4050   30.4790   42.3190 C   0  0  0  0  0  0  0  0  0  0  0  0
   39.9530   29.2740   41.7540 C   0  0  0  0  0  0  0  0  0  0  0  0
   40.7910   29.1170   40.6830 C   0  0  0  0  0  0  0  0  0  0  0  0
   41.6310   30.0940   40.6160 O   0  0  0  0  0  0  0  0  0  0  0  0
   38.8300   28.6000   42.3660 C   0  0  0  0  0  0  0  0  0  0  0  0
   38.6860   27.9000   43.5410 C   0  0  0  0  0  0  0  0  0  0  0  0
   37.4930   27.3510   43.9460 C   0  0  0  0  0  0  0  0  0  0  0  0
   36.3710   27.4750   43.1870 C   0  0  0  0  0  0  0  0  0  0  0  0
   36.4310   28.1620   41.9970 C   0  0  0  0  0  0  0  0  0  0  0  0
   37.6430   28.6990   41.6220 C   0  0  0  0  0  0  0  0  0  0  0  0
   43.8910   33.5120   42.7340 C   0  0  0  0  0  0  0  0  0  0  0  0
   43.4950   34.6540   41.9760 C   0  0  0  0  0  0  0  0  0  0  0  0
   42.4240   34.4300   41.1350 C   0  0  0  0  0  0  0  0  0  0  0  0
   41.8130   33.2310   41.0460 N   0  0  0  0  0  0  0  0  0  0  0  0
   42.2320   32.1740   41.7930 C   0  0  0  0  0  0  0  0  0  0  0  0
   43.2600   32.3340   42.6210 N   0  0  0  0  0  0  0  0  0  0  0  0
   44.2200   35.8600   42.1610 N   0  0  0  0  0  0  0  0  0  0  0  0
   44.2010   36.6360   43.3300 C   0  0  0  0  0  0  0  0  0  0  0  0
   43.0610   36.6860   43.9990 N   0  0  0  0  0  0  0  0  0  0  0  0
   45.4470   37.2790   43.6420 N   0  0  0  0  0  0  0  0  0  0  0  0
   42.9710   37.2350   44.8600 H   0  0  0  0  0  0  0  0  0  0  0  0
   40.6960   27.9600   39.7690 C   0  0  0  0  0  0  0  0  0  0  0  0
   41.7710   27.9880   38.8640 F   0  0  0  0  0  0  0  0  0  0  0  0
   40.7650   26.7750   40.4920 F   0  0  0  0  0  0  0  0  0  0  0  0
   39.5720   27.9960   38.9960 F   0  0  0  0  0  0  0  0  0  0  0  0
   39.9824   30.9599   43.2135 H   0  0  0  0  0  0  0  0  0  0  0  0
   39.5672   27.7736   44.1871 H   0  0  0  0  0  0  0  0  0  0  0  0
   37.4447   26.8029   44.8985 H   0  0  0  0  0  0  0  0  0  0  0  0
   35.4229   27.0292   43.5224 H   0  0  0  0  0  0  0  0  0  0  0  0
   35.5389   28.2791   41.3643 H   0  0  0  0  0  0  0  0  0  0  0  0
   37.6841   29.2462   40.6686 H   0  0  0  0  0  0  0  0  0  0  0  0
   44.7377   33.6002   43.4307 H   0  0  0  0  0  0  0  0  0  0  0  0
   42.0551   35.2599   40.5144 H   0  0  0  0  0  0  0  0  0  0  0  0
   44.8035   36.1902   41.3791 H   0  0  0  0  0  0  0  0  0  0  0  0
   45.5257   37.8691   44.4825 H   0  0  0  0  0  0  0  0  0  0  0  0
   46.2617   37.1499   43.0252 H   0  0  0  0  0  0  0  0  0  0  0  0
  1 16  1  0
  1  2  2  0
  3  2  1  0
  3  6  1  0
  4  3  2  0
  5  4  1  0
  5  1  1  0
  6  7  2  0
  7  8  1  0
  9  8  2  0
 10  9  1  0
 11 10  2  0
 11  6  1  0
 13 18  1  0
 13 12  2  0
 14 13  1  0
 15 14  2  0
 15 16  1  0
 16 17  2  0
 17 12  1  0
 18 19  1  0
 19 21  1  0
 19 20  2  0
 20 22  1  0
 23 25  1  0
 23  4  1  0
 24 23  1  0
 26 23  1  0
  2 27  1  0
  7 28  1  0
  8 29  1  0
  9 30  1  0
 10 31  1  0
 11 32  1  0
 12 33  1  0
 14 34  1  0
 18 35  1  0
 21 36  1  0
 21 37  1  0
M  ISO  8  27  14  28  14  29  14  30  14  31  14  32  14  33  14  34  14
M  END
>  <minimizedAffinity>  (1) 
-5.55770206

>  <minimizedRMSD>  (1) 
8.64252758

$$$$
