
     RDKit          3D

 50 54  0  0  0  0  0  0  0  0999 V2000
   35.1370   29.1550   40.5160 C   0  0  0  0  0  0  0  0  0  0  0  0
   36.1360   28.2920   40.9530 C   0  0  0  0  0  0  0  0  0  0  0  0
   36.6330   27.3860   39.9920 C   0  0  0  0  0  0  0  0  0  0  0  0
   36.1410   27.3910   38.7350 N   0  0  0  0  0  0  0  0  0  0  0  0
   35.1570   28.2600   38.3570 C   0  0  0  0  0  0  0  0  0  0  0  0
   34.6460   29.1560   39.2540 N   0  0  0  0  0  0  0  0  0  0  0  0
   36.6430   28.2850   42.2420 N   0  0  0  0  0  0  0  0  0  0  0  0
   36.2640   27.4890   43.2500 C   0  0  0  0  0  0  0  0  0  0  0  0
   37.0440   27.8520   44.3120 C   0  0  0  0  0  0  0  0  0  0  0  0
   37.8910   28.8620   43.9540 N   0  0  0  0  0  0  0  0  0  0  0  0
   37.6220   29.1070   42.6770 C   0  0  0  0  0  0  0  0  0  0  0  0
   38.4060   30.1480   42.0850 N   0  0  0  0  0  0  0  0  0  0  0  0
   39.7240   30.3410   42.4070 C   0  0  0  0  0  0  0  0  0  0  0  0
   40.2390   31.3990   41.7010 N   0  0  0  0  0  0  0  0  0  0  0  0
   39.2540   31.8820   40.9290 C   0  0  0  0  0  0  0  0  0  0  0  0
   39.2050   32.9220   40.0300 C   0  0  0  0  0  0  0  0  0  0  0  0
   38.0150   33.1140   39.4290 N   0  0  0  0  0  0  0  0  0  0  0  0
   36.9360   32.3640   39.6660 C   0  0  0  0  0  0  0  0  0  0  0  0
   36.9690   31.3350   40.5500 N   0  0  0  0  0  0  0  0  0  0  0  0
   38.1360   31.1180   41.1630 C   0  0  0  0  0  0  0  0  0  0  0  0
   40.3420   33.7390   39.7580 N   0  0  0  0  0  0  0  0  0  0  0  0
   34.5640   28.3400   37.0270 C   0  0  0  0  0  0  0  0  0  0  0  0
   33.1870   28.9350   37.0040 C   0  0  0  0  0  0  0  0  0  0  0  0
   34.4430   26.9360   36.4450 C   0  0  0  0  0  0  0  0  0  0  0  0
   35.4680   29.1180   36.0710 C   0  0  0  0  0  0  0  0  0  0  0  0
   36.8760   29.0790   36.4760 C   0  0  0  0  0  0  0  0  0  0  0  0
   37.6630   28.0320   35.9820 C   0  0  0  0  0  0  0  0  0  0  0  0
   39.0020   27.9330   36.3250 C   0  0  0  0  0  0  0  0  0  0  0  0
   39.5980   28.8370   37.1440 N   0  0  0  0  0  0  0  0  0  0  0  0
   38.8110   29.8400   37.6060 C   0  0  0  0  0  0  0  0  0  0  0  0
   37.5000   29.9560   37.2830 N   0  0  0  0  0  0  0  0  0  0  0  0
   34.7227   29.8768   41.2353 H   0  0  0  0  0  0  0  0  0  0  0  0
   37.4240   26.6733   40.2682 H   0  0  0  0  0  0  0  0  0  0  0  0
   35.4892   26.7085   43.2279 H   0  0  0  0  0  0  0  0  0  0  0  0
   36.9965   27.3960   45.3119 H   0  0  0  0  0  0  0  0  0  0  0  0
   40.2892   29.7337   43.1293 H   0  0  0  0  0  0  0  0  0  0  0  0
   35.9996   32.5852   39.1328 H   0  0  0  0  0  0  0  0  0  0  0  0
   40.2715   34.5101   39.0788 H   0  0  0  0  0  0  0  0  0  0  0  0
   41.2336   33.5579   40.2408 H   0  0  0  0  0  0  0  0  0  0  0  0
   32.8359   29.0867   38.0353 H   0  0  0  0  0  0  0  0  0  0  0  0
   33.2140   29.9017   36.4799 H   0  0  0  0  0  0  0  0  0  0  0  0
   32.5015   28.2528   36.4799 H   0  0  0  0  0  0  0  0  0  0  0  0
   34.3799   26.2039   37.2636 H   0  0  0  0  0  0  0  0  0  0  0  0
   33.5361   26.8727   35.8258 H   0  0  0  0  0  0  0  0  0  0  0  0
   35.3257   26.7184   35.8258 H   0  0  0  0  0  0  0  0  0  0  0  0
   35.1366   30.1666   36.0464 H   0  0  0  0  0  0  0  0  0  0  0  0
   35.3914   28.6472   35.0798 H   0  0  0  0  0  0  0  0  0  0  0  0
   37.2144   27.2808   35.3153 H   0  0  0  0  0  0  0  0  0  0  0  0
   39.5976   27.1001   35.9231 H   0  0  0  0  0  0  0  0  0  0  0  0
   39.2566   30.5930   38.2727 H   0  0  0  0  0  0  0  0  0  0  0  0
  1  2  2  0
  2  7  1  0
  3  2  1  0
  4  3  2  0
  5  4  1  0
  5  6  2  0
  6  1  1  0
  7 11  1  0
  7  8  1  0
  8  9  2  0
 10  9  1  0
 11 10  2  0
 12 13  1  0
 12 11  1  0
 14 13  2  0
 15 20  2  0
 15 14  1  0
 16 15  1  0
 17 18  1  0
 17 16  2  0
 18 19  2  0
 19 20  1  0
 20 12  1  0
 21 16  1  0
 22  5  1  0
 23 22  1  0
 24 22  1  0
 25 26  1  0
 25 22  1  0
 26 31  2  0
 27 28  2  0
 27 26  1  0
 28 29  1  0
 29 30  2  0
 31 30  1  0
  1 32  1  0
  3 33  1  0
  8 34  1  0
  9 35  1  0
 13 36  1  0
 18 37  1  0
 21 38  1  0
 21 39  1  0
 23 40  1  0
 23 41  1  0
 23 42  1  0
 24 43  1  0
 24 44  1  0
 24 45  1  0
 25 46  1  0
 25 47  1  0
 27 48  1  0
 28 49  1  0
 30 50  1  0
M  ISO  8  32  14  33  14  34  14  35  14  36  14  37  14  40   8  41   8
M  ISO  8  42   8  43   8  44   8  45   8  46   8  47   8  48  14  49  14
M  ISO  1  50  14
M  END
>  <minimizedAffinity>  (1) 
-6.48400688

>  <minimizedRMSD>  (1) 
0.783908308

$$$$
