
     RDKit          3D

 49 53  0  0  0  0  0  0  0  0999 V2000
   35.3150   28.8700   39.9640 C   0  0  0  0  0  0  0  0  0  0  0  0
   36.5610   28.4520   40.4510 C   0  0  0  0  0  0  0  0  0  0  0  0
   37.5270   28.0970   39.4840 C   0  0  0  0  0  0  0  0  0  0  0  0
   37.2240   28.1700   38.1550 N   0  0  0  0  0  0  0  0  0  0  0  0
   35.9720   28.5920   37.7430 C   0  0  0  0  0  0  0  0  0  0  0  0
   35.0250   28.9390   38.6460 N   0  0  0  0  0  0  0  0  0  0  0  0
   36.8840   28.3730   41.8020 N   0  0  0  0  0  0  0  0  0  0  0  0
   36.4250   27.4530   42.6730 C   0  0  0  0  0  0  0  0  0  0  0  0
   37.0130   27.7800   43.8690 C   0  0  0  0  0  0  0  0  0  0  0  0
   37.8050   28.8720   43.7160 N   0  0  0  0  0  0  0  0  0  0  0  0
   37.7100   29.2210   42.4330 C   0  0  0  0  0  0  0  0  0  0  0  0
   38.4770   30.3640   42.0490 N   0  0  0  0  0  0  0  0  0  0  0  0
   39.7110   30.6250   42.5810 C   0  0  0  0  0  0  0  0  0  0  0  0
   40.2220   31.7800   42.0390 N   0  0  0  0  0  0  0  0  0  0  0  0
   39.3250   32.2460   41.1730 C   0  0  0  0  0  0  0  0  0  0  0  0
   39.3120   33.3530   40.3580 C   0  0  0  0  0  0  0  0  0  0  0  0
   38.2110   33.5090   39.6000 N   0  0  0  0  0  0  0  0  0  0  0  0
   37.1730   32.6600   39.6110 C   0  0  0  0  0  0  0  0  0  0  0  0
   37.1660   31.5650   40.4060 N   0  0  0  0  0  0  0  0  0  0  0  0
   38.2530   31.3870   41.1720 C   0  0  0  0  0  0  0  0  0  0  0  0
   40.3940   34.2830   40.3140 N   0  0  0  0  0  0  0  0  0  0  0  0
   35.5700   28.6980   36.3440 C   0  0  0  0  0  0  0  0  0  0  0  0
   34.1100   29.0740   36.1770 C   0  0  0  0  0  0  0  0  0  0  0  0
   35.7860   27.3680   35.6450 C   0  0  0  0  0  0  0  0  0  0  0  0
   36.4410   29.7250   35.6080 C   0  0  0  0  0  0  0  0  0  0  0  0
   35.7680   29.9640   34.2620 C   0  0  0  0  0  0  0  0  0  0  0  0
   36.0610   31.2300   33.5180 C   0  0  0  0  0  0  0  0  0  0  0  0
   36.6090   29.9440   33.0220 C   0  0  0  0  0  0  0  0  0  0  0  0
   34.5374   29.1550   40.6880 H   0  0  0  0  0  0  0  0  0  0  0  0
   38.5250   27.7612   39.8022 H   0  0  0  0  0  0  0  0  0  0  0  0
   35.7320   26.6232   42.4701 H   0  0  0  0  0  0  0  0  0  0  0  0
   36.8643   27.2366   44.8138 H   0  0  0  0  0  0  0  0  0  0  0  0
   40.2189   30.0019   43.3319 H   0  0  0  0  0  0  0  0  0  0  0  0
   36.3088   32.8579   38.9599 H   0  0  0  0  0  0  0  0  0  0  0  0
   40.3454   35.1005   39.6893 H   0  0  0  0  0  0  0  0  0  0  0  0
   41.2234   34.1366   40.9070 H   0  0  0  0  0  0  0  0  0  0  0  0
   33.6465   29.1934   37.1674 H   0  0  0  0  0  0  0  0  0  0  0  0
   34.0364   30.0204   35.6212 H   0  0  0  0  0  0  0  0  0  0  0  0
   33.5884   28.2809   35.6212 H   0  0  0  0  0  0  0  0  0  0  0  0
   35.9147   26.5753   36.3967 H   0  0  0  0  0  0  0  0  0  0  0  0
   34.9134   27.1385   35.0159 H   0  0  0  0  0  0  0  0  0  0  0  0
   36.6864   27.4264   35.0159 H   0  0  0  0  0  0  0  0  0  0  0  0
   36.4920   30.6626   36.1810 H   0  0  0  0  0  0  0  0  0  0  0  0
   37.4715   29.3611   35.4826 H   0  0  0  0  0  0  0  0  0  0  0  0
   34.8554   29.4498   34.5978 H   0  0  0  0  0  0  0  0  0  0  0  0
   35.2598   31.7370   32.9602 H   0  0  0  0  0  0  0  0  0  0  0  0
   36.4931   32.2053   33.7865 H   0  0  0  0  0  0  0  0  0  0  0  0
   36.2134   29.4987   32.0972 H   0  0  0  0  0  0  0  0  0  0  0  0
   37.6141   29.5736   32.7718 H   0  0  0  0  0  0  0  0  0  0  0  0
  1  2  2  0
  2  7  1  0
  3  2  1  0
  4  3  2  0
  5  4  1  0
  5  6  2  0
  6  1  1  0
  7 11  1  0
  7  8  1  0
  8  9  2  0
 10  9  1  0
 11 10  2  0
 12 11  1  0
 12 13  1  0
 14 13  2  0
 15 14  1  0
 16 15  2  0
 17 18  2  0
 17 16  1  0
 18 19  1  0
 19 20  2  0
 20 15  1  0
 20 12  1  0
 21 16  1  0
 22  5  1  0
 23 22  1  0
 24 22  1  0
 25 22  1  0
 26 25  1  0
 27 26  1  0
 28 27  1  0
 28 26  1  0
  1 29  1  0
  3 30  1  0
  8 31  1  0
  9 32  1  0
 13 33  1  0
 18 34  1  0
 21 35  1  0
 21 36  1  0
 23 37  1  0
 23 38  1  0
 23 39  1  0
 24 40  1  0
 24 41  1  0
 24 42  1  0
 25 43  1  0
 25 44  1  0
 26 45  1  0
 27 46  1  0
 27 47  1  0
 28 48  1  0
 28 49  1  0
M  ISO  8  29  14  30  14  31  14  32  14  33  14  34  14  37   8  38   8
M  ISO  8  39   8  40   8  41   8  42   8  43   8  44   8  45  13  46  13
M  ISO  3  47  13  48  13  49  13
M  END
>  <minimizedAffinity>  (1) 
-6.21985865

>  <minimizedRMSD>  (1) 
1.35220098

$$$$
