
     RDKit          3D

 43 46  0  0  0  0  0  0  0  0999 V2000
   35.0520   28.9540   40.4260 C   0  0  0  0  0  0  0  0  0  0  0  0
   36.2870   28.3980   40.7790 C   0  0  0  0  0  0  0  0  0  0  0  0
   37.0660   27.8640   39.7290 C   0  0  0  0  0  0  0  0  0  0  0  0
   36.6070   27.9080   38.4540 N   0  0  0  0  0  0  0  0  0  0  0  0
   35.3910   28.4620   38.1610 C   0  0  0  0  0  0  0  0  0  0  0  0
   34.6060   28.9900   39.1510 N   0  0  0  0  0  0  0  0  0  0  0  0
   36.7580   28.3550   42.0860 N   0  0  0  0  0  0  0  0  0  0  0  0
   36.3620   27.5020   43.0510 C   0  0  0  0  0  0  0  0  0  0  0  0
   37.1030   27.8440   44.1600 C   0  0  0  0  0  0  0  0  0  0  0  0
   37.9310   28.8860   43.8620 N   0  0  0  0  0  0  0  0  0  0  0  0
   37.7060   29.1870   42.5890 C   0  0  0  0  0  0  0  0  0  0  0  0
   38.4710   30.2560   42.0650 N   0  0  0  0  0  0  0  0  0  0  0  0
   39.7840   30.4710   42.4350 C   0  0  0  0  0  0  0  0  0  0  0  0
   40.2890   31.5740   41.7790 N   0  0  0  0  0  0  0  0  0  0  0  0
   39.3150   32.0520   41.0040 C   0  0  0  0  0  0  0  0  0  0  0  0
   39.2710   33.1200   40.1490 C   0  0  0  0  0  0  0  0  0  0  0  0
   38.0970   33.3130   39.5150 N   0  0  0  0  0  0  0  0  0  0  0  0
   37.0220   32.5340   39.6830 C   0  0  0  0  0  0  0  0  0  0  0  0
   37.0570   31.4760   40.5290 N   0  0  0  0  0  0  0  0  0  0  0  0
   38.2000   31.2540   41.1710 C   0  0  0  0  0  0  0  0  0  0  0  0
   40.3900   33.9850   39.9320 N   0  0  0  0  0  0  0  0  0  0  0  0
   34.8270   28.5460   36.8090 C   0  0  0  0  0  0  0  0  0  0  0  0
   33.4250   29.1280   36.7940 C   0  0  0  0  0  0  0  0  0  0  0  0
   34.7650   27.1710   36.2010 C   0  0  0  0  0  0  0  0  0  0  0  0
   35.7400   29.3900   35.9070 C   0  0  0  0  0  0  0  0  0  0  0  0
   35.8060   28.4960   34.3170 S   0  0  0  0  0  0  0  0  0  0  0  0
   34.4187   29.3789   41.2187 H   0  0  0  0  0  0  0  0  0  0  0  0
   38.0453   27.4123   39.9456 H   0  0  0  0  0  0  0  0  0  0  0  0
   35.6090   26.7043   42.9702 H   0  0  0  0  0  0  0  0  0  0  0  0
   37.0370   27.3501   45.1407 H   0  0  0  0  0  0  0  0  0  0  0  0
   40.3459   29.8519   43.1498 H   0  0  0  0  0  0  0  0  0  0  0  0
   36.0986   32.7552   39.1276 H   0  0  0  0  0  0  0  0  0  0  0  0
   40.3096   34.7769   39.2783 H   0  0  0  0  0  0  0  0  0  0  0  0
   41.2759   33.8157   40.4295 H   0  0  0  0  0  0  0  0  0  0  0  0
   33.0769   29.2725   37.8274 H   0  0  0  0  0  0  0  0  0  0  0  0
   33.4354   30.0961   36.2719 H   0  0  0  0  0  0  0  0  0  0  0  0
   32.7468   28.4371   36.2719 H   0  0  0  0  0  0  0  0  0  0  0  0
   34.7310   26.4173   37.0015 H   0  0  0  0  0  0  0  0  0  0  0  0
   33.8621   27.0857   35.5785 H   0  0  0  0  0  0  0  0  0  0  0  0
   35.6566   27.0048   35.5785 H   0  0  0  0  0  0  0  0  0  0  0  0
   35.3187   30.3963   35.7660 H   0  0  0  0  0  0  0  0  0  0  0  0
   36.7404   29.5222   36.3449 H   0  0  0  0  0  0  0  0  0  0  0  0
   35.9054   27.1502   34.5536 H   0  0  0  0  0  0  0  0  0  0  0  0
  1  2  2  0
  2  7  1  0
  3  2  1  0
  4  3  2  0
  5  4  1  0
  5  6  2  0
  6  1  1  0
  7 11  1  0
  7  8  1  0
  8  9  2  0
 10  9  1  0
 11 10  2  0
 12 13  1  0
 12 11  1  0
 14 13  2  0
 15 20  2  0
 15 14  1  0
 16 15  1  0
 17 18  1  0
 17 16  2  0
 18 19  2  0
 19 20  1  0
 20 12  1  0
 21 16  1  0
 22  5  1  0
 23 22  1  0
 24 22  1  0
 25 22  1  0
 26 25  1  0
  1 27  1  0
  3 28  1  0
  8 29  1  0
  9 30  1  0
 13 31  1  0
 18 32  1  0
 21 33  1  0
 21 34  1  0
 23 35  1  0
 23 36  1  0
 23 37  1  0
 24 38  1  0
 24 39  1  0
 24 40  1  0
 25 41  1  0
 25 42  1  0
 26 43  1  0
M  ISO  8  27  14  28  14  29  14  30  14  31  14  32  14  35   8  36   8
M  ISO  7  37   8  38   8  39   8  40   8  41   8  42   8  43  11
M  END
>  <minimizedAffinity>  (1) 
-5.84175587

>  <minimizedRMSD>  (1) 
0.431917191

$$$$
