
     RDKit          3D

 13 13  0  0  0  0  0  0  0  0999 V2000
   37.8450   28.8480   43.4160 C   0  0  0  0  0  0  0  0  0  0  0  0
   37.7990   27.4270   43.3890 C   0  0  0  0  0  0  0  0  0  0  0  0
   37.1710   26.8110   42.3040 C   0  0  0  0  0  0  0  0  0  0  0  0
   36.6400   27.6050   41.3380 N   0  0  0  0  0  0  0  0  0  0  0  0
   36.6980   28.9550   41.3920 C   0  0  0  0  0  0  0  0  0  0  0  0
   37.2970   29.5600   42.4270 N   0  0  0  0  0  0  0  0  0  0  0  0
   37.0890   25.3140   42.2140 C   0  0  0  0  0  0  0  0  0  0  0  0
   38.3343   29.3637   44.2554 H   0  0  0  0  0  0  0  0  0  0  0  0
   38.2448   26.8305   44.1986 H   0  0  0  0  0  0  0  0  0  0  0  0
   36.2532   29.5569   40.5859 H   0  0  0  0  0  0  0  0  0  0  0  0
   37.0656   24.8865   43.2273 H   0  0  0  0  0  0  0  0  0  0  0  0
   36.1739   25.0287   41.6744 H   0  0  0  0  0  0  0  0  0  0  0  0
   37.9675   24.9304   41.6744 H   0  0  0  0  0  0  0  0  0  0  0  0
  2  1  2  0
  3  2  1  0
  4  5  1  0
  4  3  2  0
  5  6  2  0
  6  1  1  0
  7  3  1  0
  1  8  1  0
  2  9  1  0
  5 10  1  0
  7 11  1  0
  7 12  1  0
  7 13  1  0
M  ISO  6   8  14   9  14  10  14  11   8  12   8  13   8
M  END
>  <minimizedAffinity>  (1) 
-2.674757

>  <minimizedRMSD>  (1) 
0.950875461

$$$$
