
     RDKit          3D

 28 29  0  0  0  0  0  0  0  0999 V2000
   37.3910   30.0100   41.3920 C   0  0  0  0  0  0  0  0  0  0  0  0
   38.3160   29.3870   42.2840 C   0  0  0  0  0  0  0  0  0  0  0  0
   39.4220   30.1770   42.5920 C   0  0  0  0  0  0  0  0  0  0  0  0
   39.5760   31.4100   42.0810 N   0  0  0  0  0  0  0  0  0  0  0  0
   38.6550   31.9520   41.2310 C   0  0  0  0  0  0  0  0  0  0  0  0
   37.5870   31.2410   40.9060 N   0  0  0  0  0  0  0  0  0  0  0  0
   38.0500   28.0820   42.7610 N   0  0  0  0  0  0  0  0  0  0  0  0
   37.0130   27.7580   43.6450 C   0  0  0  0  0  0  0  0  0  0  0  0
   36.7560   28.6330   44.5920 N   0  0  0  0  0  0  0  0  0  0  0  0
   36.3510   26.5080   43.4170 N   0  0  0  0  0  0  0  0  0  0  0  0
   36.0530   28.4670   45.3190 H   0  0  0  0  0  0  0  0  0  0  0  0
   38.9910   33.2990   40.7780 C   0  0  0  0  0  0  0  0  0  0  0  0
   38.1440   34.2970   40.3480 C   0  0  0  0  0  0  0  0  0  0  0  0
   38.8870   35.4170   40.0120 C   0  0  0  0  0  0  0  0  0  0  0  0
   40.1740   35.0180   40.2650 C   0  0  0  0  0  0  0  0  0  0  0  0
   40.2140   33.7940   40.7060 O   0  0  0  0  0  0  0  0  0  0  0  0
   41.3600   35.8940   40.0540 C   0  0  0  0  0  0  0  0  0  0  0  0
   42.5190   35.2550   40.5130 F   0  0  0  0  0  0  0  0  0  0  0  0
   41.4700   36.2210   38.7260 F   0  0  0  0  0  0  0  0  0  0  0  0
   41.2610   37.0440   40.8330 F   0  0  0  0  0  0  0  0  0  0  0  0
   38.4600   36.6490   39.5350 O   0  0  0  0  0  0  0  0  0  0  0  0
   36.4866   29.4590   41.0944 H   0  0  0  0  0  0  0  0  0  0  0  0
   40.1900   29.7801   43.2722 H   0  0  0  0  0  0  0  0  0  0  0  0
   38.6602   27.3184   42.4362 H   0  0  0  0  0  0  0  0  0  0  0  0
   35.5801   26.2135   44.0334 H   0  0  0  0  0  0  0  0  0  0  0  0
   36.6460   25.9038   42.6367 H   0  0  0  0  0  0  0  0  0  0  0  0
   37.0489   34.2170   40.2818 H   0  0  0  0  0  0  0  0  0  0  0  0
   37.4949   36.8170   39.3922 H   0  0  0  0  0  0  0  0  0  0  0  0
  1  2  2  0
  2  3  1  0
  2  7  1  0
  4  3  2  0
  5  4  1  0
  6  5  2  0
  6  1  1  0
  7  8  1  0
  8  9  2  0
  9 11  1  0
 10  8  1  0
 12  5  1  0
 13 12  2  0
 14 15  2  0
 14 13  1  0
 15 16  1  0
 16 12  1  0
 17 15  1  0
 17 18  1  0
 17 20  1  0
 19 17  1  0
 21 14  1  0
  1 22  1  0
  3 23  1  0
  7 24  1  0
 10 25  1  0
 10 26  1  0
 13 27  1  0
 21 28  1  0
M  ISO  4  22  14  23  14  27  14  28   3
M  END
>  <minimizedAffinity>  (1) 
-5.49814224

>  <minimizedRMSD>  (1) 
0.445968211

$$$$
