
     RDKit          3D

 23 24  0  0  0  0  0  0  0  0999 V2000
   37.5460   28.4820   43.8010 C   0  0  0  0  0  0  0  0  0  0  0  0
   39.3850   31.0370   41.6970 C   0  0  0  0  0  0  0  0  0  0  0  0
   39.1470   30.0780   42.7060 C   0  0  0  0  0  0  0  0  0  0  0  0
   37.8660   29.5070   42.7550 C   0  0  0  0  0  0  0  0  0  0  0  0
   36.9510   29.9100   41.8400 N   0  0  0  0  0  0  0  0  0  0  0  0
   37.2050   30.8250   40.8920 C   0  0  0  0  0  0  0  0  0  0  0  0
   38.4280   31.3800   40.8340 N   0  0  0  0  0  0  0  0  0  0  0  0
   38.1130   27.1640   43.4080 C   0  0  0  0  0  0  0  0  0  0  0  0
   39.3490   26.6500   43.7760 C   0  0  0  0  0  0  0  0  0  0  0  0
   39.7110   25.4060   43.3160 C   0  0  0  0  0  0  0  0  0  0  0  0
   38.9070   24.6290   42.4990 C   0  0  0  0  0  0  0  0  0  0  0  0
   37.6710   25.1110   42.1160 C   0  0  0  0  0  0  0  0  0  0  0  0
   37.3360   26.3530   42.5880 C   0  0  0  0  0  0  0  0  0  0  0  0
   37.9802   28.7939   44.7623 H   0  0  0  0  0  0  0  0  0  0  0  0
   36.4540   28.3922   43.8982 H   0  0  0  0  0  0  0  0  0  0  0  0
   40.3759   31.5087   41.6217 H   0  0  0  0  0  0  0  0  0  0  0  0
   39.9312   29.7912   43.4220 H   0  0  0  0  0  0  0  0  0  0  0  0
   36.4247   31.1164   40.1735 H   0  0  0  0  0  0  0  0  0  0  0  0
   40.0258   27.2270   44.4233 H   0  0  0  0  0  0  0  0  0  0  0  0
   40.6919   25.0064   43.6129 H   0  0  0  0  0  0  0  0  0  0  0  0
   39.2487   23.6401   42.1594 H   0  0  0  0  0  0  0  0  0  0  0  0
   36.9949   24.5319   41.4698 H   0  0  0  0  0  0  0  0  0  0  0  0
   36.3541   26.7481   42.2883 H   0  0  0  0  0  0  0  0  0  0  0  0
  2  3  2  0
  3  4  1  0
  4  1  1  0
  5  4  2  0
  6  5  1  0
  7  6  2  0
  7  2  1  0
  8  9  2  0
  8  1  1  0
 10  9  1  0
 11 10  2  0
 12 11  1  0
 12 13  2  0
 13  8  1  0
  1 14  1  0
  1 15  1  0
  2 16  1  0
  3 17  1  0
  6 18  1  0
  9 19  1  0
 10 20  1  0
 11 21  1  0
 12 22  1  0
 13 23  1  0
M  ISO  8  14   8  15   8  16  14  17  14  18  14  19  14  20  14  21  14
M  ISO  2  22  14  23  14
M  END
>  <minimizedAffinity>  (1) 
-4.51527357

>  <minimizedRMSD>  (1) 
3.03708839

$$$$
