
     RDKit          3D

 23 24  0  0  0  0  0  0  0  0999 V2000
   37.1790   27.5390   43.4060 C   0  0  0  0  0  0  0  0  0  0  0  0
   40.8170   28.5370   42.8900 C   0  0  0  0  0  0  0  0  0  0  0  0
   39.6820   27.7220   43.1550 C   0  0  0  0  0  0  0  0  0  0  0  0
   38.4320   28.3350   43.1350 C   0  0  0  0  0  0  0  0  0  0  0  0
   38.3610   29.6640   42.8660 N   0  0  0  0  0  0  0  0  0  0  0  0
   39.4710   30.4130   42.6150 C   0  0  0  0  0  0  0  0  0  0  0  0
   40.6720   29.8340   42.6330 N   0  0  0  0  0  0  0  0  0  0  0  0
   37.0030   26.5720   42.2950 C   0  0  0  0  0  0  0  0  0  0  0  0
   36.9970   25.2040   42.4430 C   0  0  0  0  0  0  0  0  0  0  0  0
   36.8260   24.3840   41.3480 C   0  0  0  0  0  0  0  0  0  0  0  0
   36.6550   24.8880   40.0750 C   0  0  0  0  0  0  0  0  0  0  0  0
   36.6510   26.2700   39.8570 C   0  0  0  0  0  0  0  0  0  0  0  0
   36.8280   27.0370   41.0000 C   0  0  0  0  0  0  0  0  0  0  0  0
   37.2783   26.9989   44.3591 H   0  0  0  0  0  0  0  0  0  0  0  0
   36.3079   28.2074   43.4734 H   0  0  0  0  0  0  0  0  0  0  0  0
   41.8226   28.0913   42.8976 H   0  0  0  0  0  0  0  0  0  0  0  0
   39.7877   26.6480   43.3677 H   0  0  0  0  0  0  0  0  0  0  0  0
   39.3771   31.4875   42.3991 H   0  0  0  0  0  0  0  0  0  0  0  0
   37.1295   24.7618   43.4415 H   0  0  0  0  0  0  0  0  0  0  0  0
   36.8259   23.2937   41.4938 H   0  0  0  0  0  0  0  0  0  0  0  0
   36.5212   24.1998   39.2273 H   0  0  0  0  0  0  0  0  0  0  0  0
   36.5181   26.7133   38.8591 H   0  0  0  0  0  0  0  0  0  0  0  0
   36.8297   28.1286   40.8647 H   0  0  0  0  0  0  0  0  0  0  0  0
  2  3  2  0
  4  3  1  0
  4  1  1  0
  5  4  2  0
  6  7  2  0
  6  5  1  0
  7  2  1  0
  8  9  2  0
  8  1  1  0
 10  9  1  0
 11 10  2  0
 12 11  1  0
 12 13  2  0
 13  8  1  0
  1 14  1  0
  1 15  1  0
  2 16  1  0
  3 17  1  0
  6 18  1  0
  9 19  1  0
 10 20  1  0
 11 21  1  0
 12 22  1  0
 13 23  1  0
M  ISO  8  14   8  15   8  16  14  17  14  18  14  19  14  20  14  21  14
M  ISO  2  22  14  23  14
M  END
>  <minimizedAffinity>  (1) 
-4.20650434

>  <minimizedRMSD>  (1) 
2.96414304

$$$$
