
     RDKit          3D

 35 37  0  0  0  0  0  0  0  0999 V2000
   42.7620   32.8390   41.1720 C   0  0  0  0  0  0  0  0  0  0  0  0
   41.4510   32.5120   40.8720 C   0  0  0  0  0  0  0  0  0  0  0  0
   41.1600   32.9160   39.5670 C   0  0  0  0  0  0  0  0  0  0  0  0
   42.3300   33.4720   39.1480 C   0  0  0  0  0  0  0  0  0  0  0  0
   43.2250   33.4100   40.0950 O   0  0  0  0  0  0  0  0  0  0  0  0
   44.1890   31.3900   44.2660 C   0  0  0  0  0  0  0  0  0  0  0  0
   45.0220   32.4660   44.7310 C   0  0  0  0  0  0  0  0  0  0  0  0
   44.9980   33.5820   43.9190 C   0  0  0  0  0  0  0  0  0  0  0  0
   44.2580   33.6490   42.7950 N   0  0  0  0  0  0  0  0  0  0  0  0
   43.4950   32.6090   42.4070 C   0  0  0  0  0  0  0  0  0  0  0  0
   43.4650   31.4900   43.1420 N   0  0  0  0  0  0  0  0  0  0  0  0
   45.7590   32.2830   45.9290 N   0  0  0  0  0  0  0  0  0  0  0  0
   45.2030   31.9100   47.1540 C   0  0  0  0  0  0  0  0  0  0  0  0
   44.0140   32.4080   47.4350 N   0  0  0  0  0  0  0  0  0  0  0  0
   46.0150   31.0240   47.9460 N   0  0  0  0  0  0  0  0  0  0  0  0
   43.5410   32.2070   48.3230 H   0  0  0  0  0  0  0  0  0  0  0  0
   39.8360   32.6730   39.0830 C   0  0  0  0  0  0  0  0  0  0  0  0
   39.4350   31.8760   38.0480 C   0  0  0  0  0  0  0  0  0  0  0  0
   38.1590   31.6250   37.6020 C   0  0  0  0  0  0  0  0  0  0  0  0
   37.1590   32.2570   38.2850 N   0  0  0  0  0  0  0  0  0  0  0  0
   37.4950   33.0540   39.3150 C   0  0  0  0  0  0  0  0  0  0  0  0
   38.7650   33.2340   39.6720 N   0  0  0  0  0  0  0  0  0  0  0  0
   42.5100   34.0550   37.8030 C   0  0  0  0  0  0  0  0  0  0  0  0
   43.8870   34.3160   37.5840 F   0  0  0  0  0  0  0  0  0  0  0  0
   42.0780   33.1930   36.8370 F   0  0  0  0  0  0  0  0  0  0  0  0
   41.9290   35.3010   37.7010 F   0  0  0  0  0  0  0  0  0  0  0  0
   40.7481   32.0121   41.5546 H   0  0  0  0  0  0  0  0  0  0  0  0
   44.1445   30.4583   44.8491 H   0  0  0  0  0  0  0  0  0  0  0  0
   45.6082   34.4526   44.2012 H   0  0  0  0  0  0  0  0  0  0  0  0
   46.7769   32.4362   45.8925 H   0  0  0  0  0  0  0  0  0  0  0  0
   45.6789   30.7001   48.8641 H   0  0  0  0  0  0  0  0  0  0  0  0
   46.9322   30.7139   47.5946 H   0  0  0  0  0  0  0  0  0  0  0  0
   40.2407   31.3674   37.4983 H   0  0  0  0  0  0  0  0  0  0  0  0
   37.9565   30.9586   36.7506 H   0  0  0  0  0  0  0  0  0  0  0  0
   36.7015   33.5695   39.8759 H   0  0  0  0  0  0  0  0  0  0  0  0
  1 10  1  0
  2  1  2  0
  3  2  1  0
  4  3  2  0
  4  5  1  0
  5  1  1  0
  6  7  2  0
  7 12  1  0
  8  7  1  0
  9  8  2  0
 10  9  1  0
 10 11  2  0
 11  6  1  0
 12 13  1  0
 13 14  2  0
 13 15  1  0
 14 16  1  0
 17  3  1  0
 17 22  1  0
 18 17  2  0
 19 18  1  0
 19 20  2  0
 20 21  1  0
 21 22  2  0
 23  4  1  0
 24 23  1  0
 25 23  1  0
 26 23  1  0
  2 27  1  0
  6 28  1  0
  8 29  1  0
 12 30  1  0
 15 31  1  0
 15 32  1  0
 18 33  1  0
 19 34  1  0
 21 35  1  0
M  ISO  6  27  14  28  14  29  14  33  14  34  14  35  14
M  END
>  <minimizedAffinity>  (1) 
-5.46117973

>  <minimizedRMSD>  (1) 
6.21531153

$$$$
