
     RDKit          3D

 20 21  0  0  0  0  0  0  0  0999 V2000
   38.3650   29.1880   43.1570 C   0  0  0  0  0  0  0  0  0  0  0  0
   38.0310   27.8490   43.4530 C   0  0  0  0  0  0  0  0  0  0  0  0
   37.0190   27.2530   42.6950 C   0  0  0  0  0  0  0  0  0  0  0  0
   36.4220   28.0010   41.7230 N   0  0  0  0  0  0  0  0  0  0  0  0
   36.7650   29.2790   41.4640 C   0  0  0  0  0  0  0  0  0  0  0  0
   37.7400   29.8600   42.1910 N   0  0  0  0  0  0  0  0  0  0  0  0
   36.5980   25.8370   42.9380 C   0  0  0  0  0  0  0  0  0  0  0  0
   37.2670   24.8680   42.0570 C   0  0  0  0  0  0  0  0  0  0  0  0
   36.5990   24.1170   41.1020 C   0  0  0  0  0  0  0  0  0  0  0  0
   37.5220   23.3130   40.4550 C   0  0  0  0  0  0  0  0  0  0  0  0
   38.7240   23.6250   41.0590 C   0  0  0  0  0  0  0  0  0  0  0  0
   38.5350   24.5360   41.9900 O   0  0  0  0  0  0  0  0  0  0  0  0
   39.1569   29.6866   43.7352 H   0  0  0  0  0  0  0  0  0  0  0  0
   38.5478   27.2951   44.2505 H   0  0  0  0  0  0  0  0  0  0  0  0
   36.2547   29.8413   40.6681 H   0  0  0  0  0  0  0  0  0  0  0  0
   36.8314   25.5783   43.9814 H   0  0  0  0  0  0  0  0  0  0  0  0
   35.5204   25.7782   42.7253 H   0  0  0  0  0  0  0  0  0  0  0  0
   35.5195   24.1537   40.8938 H   0  0  0  0  0  0  0  0  0  0  0  0
   37.3396   22.5911   39.6453 H   0  0  0  0  0  0  0  0  0  0  0  0
   39.6954   23.1784   40.8004 H   0  0  0  0  0  0  0  0  0  0  0  0
  1  2  2  0
  3  7  1  0
  3  2  1  0
  4  3  2  0
  5  4  1  0
  5  6  2  0
  6  1  1  0
  8  7  1  0
  9  8  2  0
 10 11  2  0
 10  9  1  0
 11 12  1  0
 12  8  1  0
  1 13  1  0
  2 14  1  0
  5 15  1  0
  7 16  1  0
  7 17  1  0
  9 18  1  0
 10 19  1  0
 11 20  1  0
M  ISO  8  13  14  14  14  15  14  16   8  17   8  18  14  19  14  20  14
M  END
>  <minimizedAffinity>  (1) 
-3.525774

>  <minimizedRMSD>  (1) 
1.22181332

$$$$
