
     RDKit          3D

 20 20  0  0  0  0  0  0  0  0999 V2000
   37.8860   26.6270   42.8940 C   0  0  0  0  0  0  0  0  0  0  0  0
   35.6560   28.8360   40.7620 C   0  0  0  0  0  0  0  0  0  0  0  0
   36.3720   28.3580   41.8900 C   0  0  0  0  0  0  0  0  0  0  0  0
   37.1110   27.1840   41.7420 C   0  0  0  0  0  0  0  0  0  0  0  0
   37.1000   26.5720   40.5260 N   0  0  0  0  0  0  0  0  0  0  0  0
   36.4110   27.0560   39.4810 C   0  0  0  0  0  0  0  0  0  0  0  0
   35.6970   28.1760   39.5970 N   0  0  0  0  0  0  0  0  0  0  0  0
   38.9980   25.8110   42.4880 N   0  0  0  0  0  0  0  0  0  0  0  0
   40.1420   25.6390   43.3330 C   0  0  0  0  0  0  0  0  0  0  0  0
   40.1710   26.3700   44.3760 N   0  0  0  0  0  0  0  0  0  0  0  0
   41.2030   24.7120   43.0510 N   0  0  0  0  0  0  0  0  0  0  0  0
   40.9630   26.3170   45.0510 H   0  0  0  0  0  0  0  0  0  0  0  0
   38.2686   27.4648   43.4955 H   0  0  0  0  0  0  0  0  0  0  0  0
   37.2018   25.9845   43.4676 H   0  0  0  0  0  0  0  0  0  0  0  0
   35.0614   29.7577   40.8450 H   0  0  0  0  0  0  0  0  0  0  0  0
   36.3452   28.8954   42.8494 H   0  0  0  0  0  0  0  0  0  0  0  0
   36.4356   26.5232   38.5189 H   0  0  0  0  0  0  0  0  0  0  0  0
   38.9716   25.3410   41.5719 H   0  0  0  0  0  0  0  0  0  0  0  0
   42.0018   24.6317   43.6963 H   0  0  0  0  0  0  0  0  0  0  0  0
   41.1648   24.1278   42.2036 H   0  0  0  0  0  0  0  0  0  0  0  0
  2  3  2  0
  4  3  1  0
  4  1  1  0
  5  4  2  0
  6  7  2  0
  6  5  1  0
  7  2  1  0
  8  1  1  0
  8  9  1  0
  9 10  2  0
 10 12  1  0
 11  9  1  0
  1 13  1  0
  1 14  1  0
  2 15  1  0
  3 16  1  0
  6 17  1  0
  8 18  1  0
 11 19  1  0
 11 20  1  0
M  ISO  5  13   8  14   8  15  14  16  14  17  14
M  END
>  <minimizedAffinity>  (1) 
-3.27190304

>  <minimizedRMSD>  (1) 
2.20553517

$$$$
