
     RDKit          3D

 19 20  0  0  0  0  0  0  0  0999 V2000
   38.0110   28.9890   43.3600 C   0  0  0  0  0  0  0  0  0  0  0  0
   37.8630   27.5880   43.4600 C   0  0  0  0  0  0  0  0  0  0  0  0
   37.1110   26.9410   42.4760 C   0  0  0  0  0  0  0  0  0  0  0  0
   36.5700   27.7000   41.4840 N   0  0  0  0  0  0  0  0  0  0  0  0
   36.7350   29.0320   41.4240 C   0  0  0  0  0  0  0  0  0  0  0  0
   37.4500   29.6640   42.3570 N   0  0  0  0  0  0  0  0  0  0  0  0
   36.9160   25.4580   42.5240 C   0  0  0  0  0  0  0  0  0  0  0  0
   37.8100   24.7830   41.6120 N   0  0  0  0  0  0  0  0  0  0  0  0
   38.9660   25.1540   41.0360 C   0  0  0  0  0  0  0  0  0  0  0  0
   39.4030   24.1360   40.2570 N   0  0  0  0  0  0  0  0  0  0  0  0
   38.5230   23.1280   40.3440 C   0  0  0  0  0  0  0  0  0  0  0  0
   37.5520   23.5620   41.1880 N   0  0  0  0  0  0  0  0  0  0  0  0
   38.5961   29.5294   44.1187 H   0  0  0  0  0  0  0  0  0  0  0  0
   38.3243   27.0251   44.2848 H   0  0  0  0  0  0  0  0  0  0  0  0
   36.2789   29.6040   40.6025 H   0  0  0  0  0  0  0  0  0  0  0  0
   37.1120   25.1034   43.5467 H   0  0  0  0  0  0  0  0  0  0  0  0
   35.8810   25.2333   42.2268 H   0  0  0  0  0  0  0  0  0  0  0  0
   39.4718   26.1210   41.1739 H   0  0  0  0  0  0  0  0  0  0  0  0
   38.5766   22.1531   39.8374 H   0  0  0  0  0  0  0  0  0  0  0  0
  1  2  2  0
  3  7  1  0
  3  2  1  0
  4  3  2  0
  5  4  1  0
  5  6  2  0
  6  1  1  0
  8  7  1  0
  9  8  1  0
 10 11  1  0
 10  9  2  0
 11 12  2  0
 12  8  1  0
  1 13  1  0
  2 14  1  0
  5 15  1  0
  7 16  1  0
  7 17  1  0
  9 18  1  0
 11 19  1  0
M  ISO  7  13  14  14  14  15  14  16   8  17   8  18  14  19  14
M  END
>  <minimizedAffinity>  (1) 
-3.19840121

>  <minimizedRMSD>  (1) 
0.503599524

$$$$
