
     RDKit          3D

 14 14  0  0  0  0  0  0  0  0999 V2000
   37.8760   28.8210   43.4090 C   0  0  0  0  0  0  0  0  0  0  0  0
   37.8550   27.4040   43.3550 C   0  0  0  0  0  0  0  0  0  0  0  0
   37.2240   26.7980   42.2770 C   0  0  0  0  0  0  0  0  0  0  0  0
   36.6640   27.5940   41.3380 N   0  0  0  0  0  0  0  0  0  0  0  0
   36.7010   28.9470   41.4160 C   0  0  0  0  0  0  0  0  0  0  0  0
   37.3040   29.5360   42.4490 N   0  0  0  0  0  0  0  0  0  0  0  0
   37.1690   25.3080   42.1640 C   0  0  0  0  0  0  0  0  0  0  0  0
   38.7890   24.5370   42.2880 S   0  0  0  0  0  0  0  0  0  0  0  0
   38.3688   29.3296   44.2507 H   0  0  0  0  0  0  0  0  0  0  0  0
   38.3259   26.8015   44.1457 H   0  0  0  0  0  0  0  0  0  0  0  0
   36.2346   29.5575   40.6288 H   0  0  0  0  0  0  0  0  0  0  0  0
   36.5318   24.9180   42.9714 H   0  0  0  0  0  0  0  0  0  0  0  0
   36.7636   25.0669   41.1702 H   0  0  0  0  0  0  0  0  0  0  0  0
   39.1199   24.3795   43.6081 H   0  0  0  0  0  0  0  0  0  0  0  0
  2  1  2  0
  3  2  1  0
  4  5  1  0
  4  3  2  0
  5  6  2  0
  6  1  1  0
  7  3  1  0
  7  8  1  0
  1  9  1  0
  2 10  1  0
  5 11  1  0
  7 12  1  0
  7 13  1  0
  8 14  1  0
M  ISO  6   9  14  10  14  11  14  12   8  13   8  14  11
M  END
>  <minimizedAffinity>  (1) 
-2.64787006

>  <minimizedRMSD>  (1) 
0.348876923

$$$$
