
     RDKit          3D

 34 37  0  0  0  0  0  0  0  0999 V2000
   38.2540   27.1480   43.1510 C   0  0  0  0  0  0  0  0  0  0  0  0
   39.2670   26.3440   43.5130 C   0  0  0  0  0  0  0  0  0  0  0  0
   39.6620   25.2210   42.8430 C   0  0  0  0  0  0  0  0  0  0  0  0
   38.8330   25.0140   41.6760 C   0  0  0  0  0  0  0  0  0  0  0  0
   37.6870   26.3420   41.6920 S   0  0  0  0  0  0  0  0  0  0  0  0
   38.7710   23.9550   40.6690 C   0  0  0  0  0  0  0  0  0  0  0  0
   37.8920   22.9610   40.9120 N   0  0  0  0  0  0  0  0  0  0  0  0
   37.7950   21.8670   40.1480 C   0  0  0  0  0  0  0  0  0  0  0  0
   38.5660   21.6620   39.0690 N   0  0  0  0  0  0  0  0  0  0  0  0
   39.4600   22.6210   38.7760 C   0  0  0  0  0  0  0  0  0  0  0  0
   40.2680   22.5010   37.6660 C   0  0  0  0  0  0  0  0  0  0  0  0
   41.1900   23.4900   37.3040 C   0  0  0  0  0  0  0  0  0  0  0  0
   41.2420   24.6150   38.1390 C   0  0  0  0  0  0  0  0  0  0  0  0
   40.4240   24.6810   39.2190 C   0  0  0  0  0  0  0  0  0  0  0  0
   39.5270   23.7280   39.5860 C   0  0  0  0  0  0  0  0  0  0  0  0
   37.6580   28.3540   43.6700 C   0  0  0  0  0  0  0  0  0  0  0  0
   39.2950   31.1600   41.6820 C   0  0  0  0  0  0  0  0  0  0  0  0
   39.1380   30.1050   42.6220 C   0  0  0  0  0  0  0  0  0  0  0  0
   37.9100   29.4840   42.7010 C   0  0  0  0  0  0  0  0  0  0  0  0
   36.9120   29.9270   41.8620 N   0  0  0  0  0  0  0  0  0  0  0  0
   37.0900   30.9250   40.9850 C   0  0  0  0  0  0  0  0  0  0  0  0
   38.2610   31.5300   40.8980 N   0  0  0  0  0  0  0  0  0  0  0  0
   39.8240   26.6115   44.4231 H   0  0  0  0  0  0  0  0  0  0  0  0
   40.4924   24.5671   43.1477 H   0  0  0  0  0  0  0  0  0  0  0  0
   37.0510   21.1024   40.4160 H   0  0  0  0  0  0  0  0  0  0  0  0
   40.1856   21.5977   37.0437 H   0  0  0  0  0  0  0  0  0  0  0  0
   41.8346   23.3906   36.4182 H   0  0  0  0  0  0  0  0  0  0  0  0
   41.9398   25.4367   37.9203 H   0  0  0  0  0  0  0  0  0  0  0  0
   40.4922   25.5797   39.8497 H   0  0  0  0  0  0  0  0  0  0  0  0
   36.5746   28.2071   43.7914 H   0  0  0  0  0  0  0  0  0  0  0  0
   38.1015   28.5967   44.6470 H   0  0  0  0  0  0  0  0  0  0  0  0
   40.2623   31.6762   41.5936 H   0  0  0  0  0  0  0  0  0  0  0  0
   39.9724   29.7934   43.2675 H   0  0  0  0  0  0  0  0  0  0  0  0
   36.2594   31.2407   40.3366 H   0  0  0  0  0  0  0  0  0  0  0  0
  1  2  2  0
  1 16  1  0
  3  2  1  0
  4  5  1  0
  4  3  2  0
  5  1  1  0
  6  7  2  0
  6  4  1  0
  8  7  1  0
  9  8  2  0
 10  9  1  0
 10 15  2  0
 11 10  1  0
 12 11  2  0
 12 13  1  0
 13 14  2  0
 14 15  1  0
 15  6  1  0
 17 18  2  0
 18 19  1  0
 19 16  1  0
 20 19  2  0
 21 20  1  0
 22 21  2  0
 22 17  1  0
  2 23  1  0
  3 24  1  0
  8 25  1  0
 11 26  1  0
 12 27  1  0
 13 28  1  0
 14 29  1  0
 16 30  1  0
 16 31  1  0
 17 32  1  0
 18 33  1  0
 21 34  1  0
M  ISO  8  23  14  24  14  25  14  26  14  27  14  28  14  29  14  30   8
M  ISO  4  31   8  32  14  33  14  34  14
M  END
>  <minimizedAffinity>  (1) 
-4.85350084

>  <minimizedRMSD>  (1) 
2.53845263

$$$$
