
     RDKit          3D

 36 38  0  0  0  0  0  0  0  0999 V2000
   37.8560   27.1660   42.6760 C   0  0  0  0  0  0  0  0  0  0  0  0
   38.6830   26.1150   42.8470 C   0  0  0  0  0  0  0  0  0  0  0  0
   38.7370   25.0760   41.9960 C   0  0  0  0  0  0  0  0  0  0  0  0
   37.8030   25.2290   40.8840 C   0  0  0  0  0  0  0  0  0  0  0  0
   36.9970   26.7610   41.1680 S   0  0  0  0  0  0  0  0  0  0  0  0
   37.5980   24.2750   39.7630 C   0  0  0  0  0  0  0  0  0  0  0  0
   38.6030   23.1540   39.8300 C   0  0  0  0  0  0  0  0  0  0  0  0
   38.0040   21.8570   40.2630 C   0  0  0  0  0  0  0  0  0  0  0  0
   36.9450   21.5160   39.2270 C   0  0  0  0  0  0  0  0  0  0  0  0
   35.8520   22.5350   39.1800 C   0  0  0  0  0  0  0  0  0  0  0  0
   36.1750   23.8650   39.7610 C   0  0  0  0  0  0  0  0  0  0  0  0
   37.5730   28.4080   43.4040 C   0  0  0  0  0  0  0  0  0  0  0  0
   39.4100   31.2670   41.7040 C   0  0  0  0  0  0  0  0  0  0  0  0
   39.1580   30.1540   42.5390 C   0  0  0  0  0  0  0  0  0  0  0  0
   37.8990   29.5810   42.5450 C   0  0  0  0  0  0  0  0  0  0  0  0
   36.9500   30.1380   41.7220 N   0  0  0  0  0  0  0  0  0  0  0  0
   37.2060   31.1960   40.9350 C   0  0  0  0  0  0  0  0  0  0  0  0
   38.4250   31.7530   40.9270 N   0  0  0  0  0  0  0  0  0  0  0  0
   39.3454   26.1075   43.7252 H   0  0  0  0  0  0  0  0  0  0  0  0
   39.4061   24.2121   42.1224 H   0  0  0  0  0  0  0  0  0  0  0  0
   37.7895   24.7398   38.7846 H   0  0  0  0  0  0  0  0  0  0  0  0
   39.0451   23.0197   38.8317 H   0  0  0  0  0  0  0  0  0  0  0  0
   39.3577   23.4338   40.5798 H   0  0  0  0  0  0  0  0  0  0  0  0
   38.7742   21.0722   40.2945 H   0  0  0  0  0  0  0  0  0  0  0  0
   37.5710   21.9307   41.2715 H   0  0  0  0  0  0  0  0  0  0  0  0
   37.4220   21.4623   38.2373 H   0  0  0  0  0  0  0  0  0  0  0  0
   36.4960   20.5519   39.5079 H   0  0  0  0  0  0  0  0  0  0  0  0
   35.5779   22.6861   38.1255 H   0  0  0  0  0  0  0  0  0  0  0  0
   35.0410   22.1287   39.8023 H   0  0  0  0  0  0  0  0  0  0  0  0
   35.6138   24.6202   39.1911 H   0  0  0  0  0  0  0  0  0  0  0  0
   35.9016   23.7843   40.8234 H   0  0  0  0  0  0  0  0  0  0  0  0
   36.5072   28.4382   43.6745 H   0  0  0  0  0  0  0  0  0  0  0  0
   38.1874   28.4431   44.3157 H   0  0  0  0  0  0  0  0  0  0  0  0
   40.4063   31.7331   41.6898 H   0  0  0  0  0  0  0  0  0  0  0  0
   39.9558   29.7476   43.1779 H   0  0  0  0  0  0  0  0  0  0  0  0
   36.4118   31.6070   40.2944 H   0  0  0  0  0  0  0  0  0  0  0  0
  1  2  2  0
  1 12  1  0
  3  2  1  0
  4  5  1  0
  4  3  2  0
  5  1  1  0
  6  7  1  0
  6  4  1  0
  7  8  1  0
  9  8  1  0
 10  9  1  0
 10 11  1  0
 11  6  1  0
 13 14  2  0
 14 15  1  0
 15 12  1  0
 16 15  2  0
 17 16  1  0
 18 17  2  0
 18 13  1  0
  2 19  1  0
  3 20  1  0
  6 21  1  0
  7 22  1  0
  7 23  1  0
  8 24  1  0
  8 25  1  0
  9 26  1  0
  9 27  1  0
 10 28  1  0
 10 29  1  0
 11 30  1  0
 11 31  1  0
 12 32  1  0
 12 33  1  0
 13 34  1  0
 14 35  1  0
 17 36  1  0
M  ISO  8  19  14  20  14  21  13  22  13  23  13  24  13  25  13  26  13
M  ISO  8  27  13  28  13  29  13  30  13  31  13  32   8  33   8  34  14
M  ISO  2  35  14  36  14
M  END
>  <minimizedAffinity>  (1) 
-4.49067307

>  <minimizedRMSD>  (1) 
1.81991637

$$$$
