
     RDKit          3D

 33 35  0  0  0  0  0  0  0  0999 V2000
   37.0840   26.1360   42.2510 C   0  0  0  0  0  0  0  0  0  0  0  0
   36.9730   24.7930   42.3120 C   0  0  0  0  0  0  0  0  0  0  0  0
   37.4850   23.9540   41.3830 C   0  0  0  0  0  0  0  0  0  0  0  0
   38.1660   24.6860   40.3190 C   0  0  0  0  0  0  0  0  0  0  0  0
   38.0040   26.3820   40.7450 S   0  0  0  0  0  0  0  0  0  0  0  0
   40.0710   23.1440   36.9870 C   0  0  0  0  0  0  0  0  0  0  0  0
   39.8330   24.5110   37.0670 C   0  0  0  0  0  0  0  0  0  0  0  0
   39.1880   25.0340   38.1950 C   0  0  0  0  0  0  0  0  0  0  0  0
   38.8290   24.1260   39.1650 C   0  0  0  0  0  0  0  0  0  0  0  0
   39.0350   22.7650   39.1480 C   0  0  0  0  0  0  0  0  0  0  0  0
   39.6810   22.2710   38.0090 C   0  0  0  0  0  0  0  0  0  0  0  0
   40.8860   22.5180   35.5520 S   0  0  0  0  0  0  0  0  0  0  0  0
   41.9920   23.3930   35.0940 O   0  0  0  0  0  0  0  0  0  0  0  0
   41.4500   21.1420   35.8370 O   0  0  0  0  0  0  0  0  0  0  0  0
   36.6490   27.2610   43.0750 C   0  0  0  0  0  0  0  0  0  0  0  0
   39.1940   30.0530   42.6880 C   0  0  0  0  0  0  0  0  0  0  0  0
   38.5820   28.8520   43.1470 C   0  0  0  0  0  0  0  0  0  0  0  0
   37.3510   28.5030   42.6400 C   0  0  0  0  0  0  0  0  0  0  0  0
   36.7850   29.3430   41.7170 N   0  0  0  0  0  0  0  0  0  0  0  0
   37.3820   30.4710   41.2990 C   0  0  0  0  0  0  0  0  0  0  0  0
   38.5710   30.8150   41.7830 N   0  0  0  0  0  0  0  0  0  0  0  0
   36.4354   24.3553   43.1660 H   0  0  0  0  0  0  0  0  0  0  0  0
   37.3992   22.8581   41.4239 H   0  0  0  0  0  0  0  0  0  0  0  0
   40.1488   25.1772   36.2506 H   0  0  0  0  0  0  0  0  0  0  0  0
   38.9802   26.1091   38.2996 H   0  0  0  0  0  0  0  0  0  0  0  0
   38.7142   22.1112   39.9724 H   0  0  0  0  0  0  0  0  0  0  0  0
   39.8828   21.1936   37.9168 H   0  0  0  0  0  0  0  0  0  0  0  0
   39.9439   22.4663   34.5587 H   0  0  0  0  0  0  0  0  0  0  0  0
   35.5630   27.3969   42.9646 H   0  0  0  0  0  0  0  0  0  0  0  0
   36.8901   27.0559   44.1285 H   0  0  0  0  0  0  0  0  0  0  0  0
   40.1779   30.3535   43.0774 H   0  0  0  0  0  0  0  0  0  0  0  0
   39.0830   28.2160   43.8917 H   0  0  0  0  0  0  0  0  0  0  0  0
   36.8860   31.1113   40.5547 H   0  0  0  0  0  0  0  0  0  0  0  0
  1  2  2  0
  1 15  1  0
  3  2  1  0
  4  5  1  0
  4  3  2  0
  5  1  1  0
  6  7  2  0
  6 11  1  0
  7  8  1  0
  8  9  2  0
  9  4  1  0
 10  9  1  0
 11 10  2  0
 12 14  2  0
 12  6  1  0
 13 12  2  0
 16 17  2  0
 18 15  1  0
 18 17  1  0
 19 18  2  0
 20 19  1  0
 20 21  2  0
 21 16  1  0
  2 22  1  0
  3 23  1  0
  7 24  1  0
  8 25  1  0
 10 26  1  0
 11 27  1  0
 12 28  1  0
 15 29  1  0
 15 30  1  0
 16 31  1  0
 17 32  1  0
 20 33  1  0
M  ISO  8  22  14  23  14  24  14  25  14  26  14  27  14  28  11  29   8
M  ISO  4  30   8  31  14  32  14  33  14
M  END
>  <minimizedAffinity>  (1) 
-4.1100421

>  <minimizedRMSD>  (1) 
1.49416125

$$$$
