
     RDKit          3D

 34 36  0  0  0  0  0  0  0  0999 V2000
   40.0890   31.6010   40.6030 C   0  0  0  0  0  0  0  0  0  0  0  0
   39.6910   32.8600   40.9690 C   0  0  0  0  0  0  0  0  0  0  0  0
   40.4670   33.8150   40.3190 C   0  0  0  0  0  0  0  0  0  0  0  0
   41.3220   33.0490   39.5710 C   0  0  0  0  0  0  0  0  0  0  0  0
   41.0830   31.7790   39.7520 O   0  0  0  0  0  0  0  0  0  0  0  0
   38.4180   28.3030   40.7510 C   0  0  0  0  0  0  0  0  0  0  0  0
   38.7110   27.8760   42.0900 C   0  0  0  0  0  0  0  0  0  0  0  0
   39.4690   28.7850   42.8140 C   0  0  0  0  0  0  0  0  0  0  0  0
   39.8860   29.9590   42.3020 N   0  0  0  0  0  0  0  0  0  0  0  0
   39.5730   30.3070   41.0220 C   0  0  0  0  0  0  0  0  0  0  0  0
   38.8480   29.4780   40.2720 N   0  0  0  0  0  0  0  0  0  0  0  0
   38.2260   26.6210   42.5330 N   0  0  0  0  0  0  0  0  0  0  0  0
   36.8870   26.3640   42.8710 C   0  0  0  0  0  0  0  0  0  0  0  0
   36.2360   27.3280   43.4700 N   0  0  0  0  0  0  0  0  0  0  0  0
   36.4280   25.0410   42.4930 N   0  0  0  0  0  0  0  0  0  0  0  0
   35.2550   27.2060   43.7480 H   0  0  0  0  0  0  0  0  0  0  0  0
   40.3600   35.2420   40.4370 C   0  0  0  0  0  0  0  0  0  0  0  0
   39.3550   36.0210   39.9060 C   0  0  0  0  0  0  0  0  0  0  0  0
   39.6420   37.3430   40.2590 C   0  0  0  0  0  0  0  0  0  0  0  0
   40.7820   37.3320   40.9750 N   0  0  0  0  0  0  0  0  0  0  0  0
   41.1970   36.0830   41.0730 N   0  0  0  0  0  0  0  0  0  0  0  0
   42.3800   33.5970   38.6700 C   0  0  0  0  0  0  0  0  0  0  0  0
   43.0900   32.5760   38.0660 F   0  0  0  0  0  0  0  0  0  0  0  0
   41.7800   34.4050   37.7190 F   0  0  0  0  0  0  0  0  0  0  0  0
   43.2880   34.3330   39.3930 F   0  0  0  0  0  0  0  0  0  0  0  0
   38.8767   33.0834   41.6740 H   0  0  0  0  0  0  0  0  0  0  0  0
   37.8231   27.6462   40.0993 H   0  0  0  0  0  0  0  0  0  0  0  0
   39.7410   28.5363   43.8504 H   0  0  0  0  0  0  0  0  0  0  0  0
   38.8995   25.8458   42.6125 H   0  0  0  0  0  0  0  0  0  0  0  0
   35.4600   24.7540   42.6968 H   0  0  0  0  0  0  0  0  0  0  0  0
   37.0700   24.3886   42.0207 H   0  0  0  0  0  0  0  0  0  0  0  0
   38.4938   35.6706   39.3182 H   0  0  0  0  0  0  0  0  0  0  0  0
   39.0454   38.2299   39.9992 H   0  0  0  0  0  0  0  0  0  0  0  0
   41.2500   38.1567   41.3772 H   0  0  0  0  0  0  0  0  0  0  0  0
  1  2  2  0
  1 10  1  0
  3 17  1  0
  3  2  1  0
  4  5  1  0
  4  3  2  0
  5  1  1  0
  6  7  2  0
  7 12  1  0
  7  8  1  0
  9  8  2  0
 10  9  1  0
 11  6  1  0
 11 10  2  0
 12 13  1  0
 13 14  2  0
 14 16  1  0
 15 13  1  0
 17 21  2  0
 18 19  2  0
 18 17  1  0
 19 20  1  0
 20 21  1  0
 22 25  1  0
 22  4  1  0
 23 22  1  0
 24 22  1  0
  2 26  1  0
  6 27  1  0
  8 28  1  0
 12 29  1  0
 15 30  1  0
 15 31  1  0
 18 32  1  0
 19 33  1  0
 20 34  1  0
M  ISO  6  26  14  27  14  28  14  32  14  33  14  34   9
M  END
>  <minimizedAffinity>  (1) 
-5.38247633

>  <minimizedRMSD>  (1) 
2.83407187

$$$$
