
     RDKit          3D

 27 28  0  0  0  0  0  0  0  0999 V2000
   38.1330   27.3320   42.5040 C   0  0  0  0  0  0  0  0  0  0  0  0
   39.1880   26.5390   42.7680 C   0  0  0  0  0  0  0  0  0  0  0  0
   39.5670   25.5130   41.9870 C   0  0  0  0  0  0  0  0  0  0  0  0
   38.6970   25.3700   40.8280 C   0  0  0  0  0  0  0  0  0  0  0  0
   37.5100   26.6490   40.9880 S   0  0  0  0  0  0  0  0  0  0  0  0
   38.7870   24.4000   39.7880 N   0  0  0  0  0  0  0  0  0  0  0  0
   38.5010   23.0390   40.0880 C   0  0  0  0  0  0  0  0  0  0  0  0
   37.7050   22.8460   41.1080 N   0  0  0  0  0  0  0  0  0  0  0  0
   39.1210   22.0530   39.2350 N   0  0  0  0  0  0  0  0  0  0  0  0
   37.5160   21.8310   41.3020 H   0  0  0  0  0  0  0  0  0  0  0  0
   37.5030   28.4800   43.1420 C   0  0  0  0  0  0  0  0  0  0  0  0
   38.9500   31.4780   41.3120 C   0  0  0  0  0  0  0  0  0  0  0  0
   38.8690   30.3450   42.1390 C   0  0  0  0  0  0  0  0  0  0  0  0
   37.6510   29.6880   42.2780 C   0  0  0  0  0  0  0  0  0  0  0  0
   36.5820   30.1880   41.5900 N   0  0  0  0  0  0  0  0  0  0  0  0
   36.6950   31.2830   40.8000 C   0  0  0  0  0  0  0  0  0  0  0  0
   37.8480   31.9100   40.6660 N   0  0  0  0  0  0  0  0  0  0  0  0
   39.7744   26.7426   43.6762 H   0  0  0  0  0  0  0  0  0  0  0  0
   40.4281   24.8616   42.1973 H   0  0  0  0  0  0  0  0  0  0  0  0
   39.0550   24.6799   38.8337 H   0  0  0  0  0  0  0  0  0  0  0  0
   38.9532   21.0503   39.4005 H   0  0  0  0  0  0  0  0  0  0  0  0
   39.7311   22.3522   38.4610 H   0  0  0  0  0  0  0  0  0  0  0  0
   36.4341   28.2705   43.2955 H   0  0  0  0  0  0  0  0  0  0  0  0
   37.9890   28.6669   44.1109 H   0  0  0  0  0  0  0  0  0  0  0  0
   39.9059   32.0090   41.1923 H   0  0  0  0  0  0  0  0  0  0  0  0
   39.7602   29.9811   42.6713 H   0  0  0  0  0  0  0  0  0  0  0  0
   35.8110   31.6553   40.2616 H   0  0  0  0  0  0  0  0  0  0  0  0
  1  2  2  0
  1 11  1  0
  3  2  1  0
  4  5  1  0
  4  3  2  0
  5  1  1  0
  6  7  1  0
  6  4  1  0
  7  8  2  0
  8 10  1  0
  9  7  1  0
 12 13  2  0
 13 14  1  0
 14 11  1  0
 15 14  2  0
 16 15  1  0
 17 16  2  0
 17 12  1  0
  2 18  1  0
  3 19  1  0
  6 20  1  0
  9 21  1  0
  9 22  1  0
 11 23  1  0
 11 24  1  0
 12 25  1  0
 13 26  1  0
 16 27  1  0
M  ISO  7  18  14  19  14  23   8  24   8  25  14  26  14  27  14
M  END
>  <minimizedAffinity>  (1) 
-3.95888186

>  <minimizedRMSD>  (1) 
1.97739863

$$$$
