
     RDKit          3D

 35 37  0  0  0  0  0  0  0  0999 V2000
   37.0260   26.0600   42.2650 C   0  0  0  0  0  0  0  0  0  0  0  0
   37.3970   24.7940   42.5500 C   0  0  0  0  0  0  0  0  0  0  0  0
   37.7620   23.9050   41.6090 C   0  0  0  0  0  0  0  0  0  0  0  0
   37.7090   24.4740   40.2650 C   0  0  0  0  0  0  0  0  0  0  0  0
   37.1640   26.1470   40.4940 S   0  0  0  0  0  0  0  0  0  0  0  0
   38.0540   23.7210   39.1000 N   0  0  0  0  0  0  0  0  0  0  0  0
   37.8750   24.1430   37.7150 C   0  0  0  0  0  0  0  0  0  0  0  0
   37.5890   22.9100   36.9050 C   0  0  0  0  0  0  0  0  0  0  0  0
   38.7970   21.9820   36.8870 C   0  0  0  0  0  0  0  0  0  0  0  0
   39.5690   22.0340   38.1700 C   0  0  0  0  0  0  0  0  0  0  0  0
   38.6390   22.4130   39.2980 C   0  0  0  0  0  0  0  0  0  0  0  0
   36.5870   27.2260   43.0390 C   0  0  0  0  0  0  0  0  0  0  0  0
   39.3320   29.8250   42.6190 C   0  0  0  0  0  0  0  0  0  0  0  0
   38.6480   28.6660   43.0510 C   0  0  0  0  0  0  0  0  0  0  0  0
   37.3630   28.4320   42.6200 C   0  0  0  0  0  0  0  0  0  0  0  0
   36.8250   29.3600   41.7840 N   0  0  0  0  0  0  0  0  0  0  0  0
   37.4810   30.4590   41.3770 C   0  0  0  0  0  0  0  0  0  0  0  0
   38.7210   30.6750   41.7990 N   0  0  0  0  0  0  0  0  0  0  0  0
   37.4011   24.4739   43.6024 H   0  0  0  0  0  0  0  0  0  0  0  0
   38.0651   22.8701   41.8263 H   0  0  0  0  0  0  0  0  0  0  0  0
   37.0317   24.8455   37.6416 H   0  0  0  0  0  0  0  0  0  0  0  0
   38.7766   24.6522   37.3436 H   0  0  0  0  0  0  0  0  0  0  0  0
   36.7329   22.3790   37.3467 H   0  0  0  0  0  0  0  0  0  0  0  0
   37.3610   23.2119   35.8721 H   0  0  0  0  0  0  0  0  0  0  0  0
   38.4495   20.9511   36.7240 H   0  0  0  0  0  0  0  0  0  0  0  0
   39.4645   22.3118   36.0773 H   0  0  0  0  0  0  0  0  0  0  0  0
   40.0101   21.0471   38.3735 H   0  0  0  0  0  0  0  0  0  0  0  0
   40.3711   22.7822   38.0870 H   0  0  0  0  0  0  0  0  0  0  0  0
   39.2063   22.4164   40.2404 H   0  0  0  0  0  0  0  0  0  0  0  0
   37.8228   21.6762   39.3283 H   0  0  0  0  0  0  0  0  0  0  0  0
   35.5157   27.4007   42.8605 H   0  0  0  0  0  0  0  0  0  0  0  0
   36.7581   27.0374   44.1091 H   0  0  0  0  0  0  0  0  0  0  0  0
   40.3598   30.0219   42.9578 H   0  0  0  0  0  0  0  0  0  0  0  0
   39.1413   27.9541   43.7291 H   0  0  0  0  0  0  0  0  0  0  0  0
   36.9942   31.1752   40.6987 H   0  0  0  0  0  0  0  0  0  0  0  0
  1  2  2  0
  1 12  1  0
  3  2  1  0
  4  5  1  0
  4  3  2  0
  5  1  1  0
  6 11  1  0
  6  4  1  0
  7  6  1  0
  8  7  1  0
  9  8  1  0
  9 10  1  0
 10 11  1  0
 13 14  2  0
 15 12  1  0
 15 14  1  0
 16 15  2  0
 17 16  1  0
 17 18  2  0
 18 13  1  0
  2 19  1  0
  3 20  1  0
  7 21  1  0
  7 22  1  0
  8 23  1  0
  8 24  1  0
  9 25  1  0
  9 26  1  0
 10 27  1  0
 10 28  1  0
 11 29  1  0
 11 30  1  0
 12 31  1  0
 12 32  1  0
 13 33  1  0
 14 34  1  0
 17 35  1  0
M  ISO  8  19  14  20  14  21  13  22  13  23  13  24  13  25  13  26  13
M  ISO  8  27  13  28  13  29  13  30  13  31   8  32   8  33  14  34  14
M  ISO  1  35  14
M  END
>  <minimizedAffinity>  (1) 
-3.93658161

>  <minimizedRMSD>  (1) 
0.887282014

$$$$
