
     RDKit          3D

 27 29  0  0  0  0  0  0  0  0999 V2000
   37.1050   25.8110   42.1300 C   0  0  0  0  0  0  0  0  0  0  0  0
   37.5400   24.5510   42.3750 C   0  0  0  0  0  0  0  0  0  0  0  0
   37.8710   23.7060   41.3840 C   0  0  0  0  0  0  0  0  0  0  0  0
   37.7130   24.2810   40.0450 C   0  0  0  0  0  0  0  0  0  0  0  0
   37.1280   25.9130   40.3540 S   0  0  0  0  0  0  0  0  0  0  0  0
   38.0000   23.5810   38.8540 N   0  0  0  0  0  0  0  0  0  0  0  0
   37.6540   23.9430   37.6480 N   0  0  0  0  0  0  0  0  0  0  0  0
   38.1110   23.0120   36.7670 C   0  0  0  0  0  0  0  0  0  0  0  0
   38.7730   22.0320   37.5120 C   0  0  0  0  0  0  0  0  0  0  0  0
   38.6880   22.4190   38.8480 C   0  0  0  0  0  0  0  0  0  0  0  0
   36.6790   26.9360   42.9690 C   0  0  0  0  0  0  0  0  0  0  0  0
   39.5250   29.4290   42.6270 C   0  0  0  0  0  0  0  0  0  0  0  0
   38.8070   28.2640   42.9790 C   0  0  0  0  0  0  0  0  0  0  0  0
   37.4710   28.1460   42.6160 C   0  0  0  0  0  0  0  0  0  0  0  0
   36.9180   29.1810   41.9280 N   0  0  0  0  0  0  0  0  0  0  0  0
   37.6250   30.2870   41.6010 C   0  0  0  0  0  0  0  0  0  0  0  0
   38.8940   30.4060   41.9430 N   0  0  0  0  0  0  0  0  0  0  0  0
   37.6247   24.2095   43.4172 H   0  0  0  0  0  0  0  0  0  0  0  0
   38.2267   22.6802   41.5608 H   0  0  0  0  0  0  0  0  0  0  0  0
   37.9835   23.0277   35.6745 H   0  0  0  0  0  0  0  0  0  0  0  0
   39.2656   21.1301   37.1197 H   0  0  0  0  0  0  0  0  0  0  0  0
   39.0975   21.8869   39.7193 H   0  0  0  0  0  0  0  0  0  0  0  0
   35.6104   27.1351   42.8004 H   0  0  0  0  0  0  0  0  0  0  0  0
   36.8428   26.6865   44.0277 H   0  0  0  0  0  0  0  0  0  0  0  0
   40.5833   29.5379   42.9066 H   0  0  0  0  0  0  0  0  0  0  0  0
   39.3025   27.4557   43.5368 H   0  0  0  0  0  0  0  0  0  0  0  0
   37.1354   31.0983   41.0424 H   0  0  0  0  0  0  0  0  0  0  0  0
  1  2  2  0
  1 11  1  0
  3  2  1  0
  4  5  1  0
  4  3  2  0
  5  1  1  0
  6  4  1  0
  7  6  1  0
  8  9  1  0
  8  7  2  0
  9 10  2  0
 10  6  1  0
 12 13  2  0
 14 11  1  0
 14 13  1  0
 15 14  2  0
 16 15  1  0
 16 17  2  0
 17 12  1  0
  2 18  1  0
  3 19  1  0
  8 20  1  0
  9 21  1  0
 10 22  1  0
 11 23  1  0
 11 24  1  0
 12 25  1  0
 13 26  1  0
 16 27  1  0
M  ISO  8  18  14  19  14  20  14  21  14  22  14  23   8  24   8  25  14
M  ISO  2  26  14  27  14
M  END
>  <minimizedAffinity>  (1) 
-3.76071405

>  <minimizedRMSD>  (1) 
0.152949229

$$$$
