
     RDKit          3D

 27 29  0  0  0  0  0  0  0  0999 V2000
   36.5810   27.2560   43.0440 C   0  0  0  0  0  0  0  0  0  0  0  0
   39.3340   29.8430   42.6330 C   0  0  0  0  0  0  0  0  0  0  0  0
   38.6460   28.6840   43.0780 C   0  0  0  0  0  0  0  0  0  0  0  0
   37.3700   28.4490   42.6260 C   0  0  0  0  0  0  0  0  0  0  0  0
   36.8290   29.3670   41.7570 N   0  0  0  0  0  0  0  0  0  0  0  0
   37.4980   30.4610   41.3470 C   0  0  0  0  0  0  0  0  0  0  0  0
   38.7400   30.6830   41.7900 N   0  0  0  0  0  0  0  0  0  0  0  0
   37.0000   26.0890   42.2650 C   0  0  0  0  0  0  0  0  0  0  0  0
   37.1740   24.7730   42.5020 C   0  0  0  0  0  0  0  0  0  0  0  0
   37.5800   23.8930   41.5720 C   0  0  0  0  0  0  0  0  0  0  0  0
   37.8080   24.5380   40.2810 C   0  0  0  0  0  0  0  0  0  0  0  0
   37.4310   26.2370   40.5450 S   0  0  0  0  0  0  0  0  0  0  0  0
   38.2580   23.9030   39.0190 C   0  0  0  0  0  0  0  0  0  0  0  0
   38.9690   24.6850   37.9850 C   0  0  0  0  0  0  0  0  0  0  0  0
   39.7840   23.7520   38.8380 C   0  0  0  0  0  0  0  0  0  0  0  0
   36.7507   27.0618   44.1133 H   0  0  0  0  0  0  0  0  0  0  0  0
   35.5120   27.4465   42.8680 H   0  0  0  0  0  0  0  0  0  0  0  0
   40.3563   30.0461   42.9846 H   0  0  0  0  0  0  0  0  0  0  0  0
   39.1280   27.9832   43.7755 H   0  0  0  0  0  0  0  0  0  0  0  0
   37.0250   31.1691   40.6507 H   0  0  0  0  0  0  0  0  0  0  0  0
   36.9716   24.3983   43.5162 H   0  0  0  0  0  0  0  0  0  0  0  0
   37.7233   22.8186   41.7593 H   0  0  0  0  0  0  0  0  0  0  0  0
   37.3729   23.2504   38.9927 H   0  0  0  0  0  0  0  0  0  0  0  0
   39.0821   25.7722   38.1080 H   0  0  0  0  0  0  0  0  0  0  0  0
   38.8401   24.8116   36.8999 H   0  0  0  0  0  0  0  0  0  0  0  0
   40.2039   22.8305   38.4083 H   0  0  0  0  0  0  0  0  0  0  0  0
   40.6685   23.8441   39.4854 H   0  0  0  0  0  0  0  0  0  0  0  0
  2  3  2  0
  4  1  1  0
  4  3  1  0
  5  4  2  0
  6  5  1  0
  6  7  2  0
  7  2  1  0
  8  9  2  0
  8  1  1  0
 10  9  1  0
 11 12  1  0
 11 10  2  0
 12  8  1  0
 13 11  1  0
 14 15  1  0
 14 13  1  0
 15 13  1  0
  1 16  1  0
  1 17  1  0
  2 18  1  0
  3 19  1  0
  6 20  1  0
  9 21  1  0
 10 22  1  0
 13 23  1  0
 14 24  1  0
 14 25  1  0
 15 26  1  0
 15 27  1  0
M  ISO  8  16   8  17   8  18  14  19  14  20  14  21  14  22  14  23  13
M  ISO  4  24  13  25  13  26  13  27  13
M  END
>  <minimizedAffinity>  (1) 
-3.75829864

>  <minimizedRMSD>  (1) 
0.72594738

$$$$
