
     RDKit          3D

 26 27  0  0  0  0  0  0  0  0999 V2000
   36.6120   27.1820   43.0150 C   0  0  0  0  0  0  0  0  0  0  0  0
   39.3200   29.8370   42.6200 C   0  0  0  0  0  0  0  0  0  0  0  0
   38.6470   28.6580   43.0380 C   0  0  0  0  0  0  0  0  0  0  0  0
   37.3640   28.4070   42.6050 C   0  0  0  0  0  0  0  0  0  0  0  0
   36.8020   29.3280   41.7830 N   0  0  0  0  0  0  0  0  0  0  0  0
   37.4440   30.4470   41.3900 C   0  0  0  0  0  0  0  0  0  0  0  0
   38.6750   30.6870   41.8040 N   0  0  0  0  0  0  0  0  0  0  0  0
   37.0220   26.0530   42.1780 C   0  0  0  0  0  0  0  0  0  0  0  0
   37.2980   24.7480   42.3910 C   0  0  0  0  0  0  0  0  0  0  0  0
   37.6640   23.9050   41.4080 C   0  0  0  0  0  0  0  0  0  0  0  0
   37.7220   24.5640   40.1040 C   0  0  0  0  0  0  0  0  0  0  0  0
   37.2670   26.2440   40.4300 S   0  0  0  0  0  0  0  0  0  0  0  0
   38.0940   23.8960   38.8340 C   0  0  0  0  0  0  0  0  0  0  0  0
   39.4830   23.3800   38.9250 C   0  0  0  0  0  0  0  0  0  0  0  0
   36.8290   26.9545   44.0691 H   0  0  0  0  0  0  0  0  0  0  0  0
   35.5330   27.3564   42.8915 H   0  0  0  0  0  0  0  0  0  0  0  0
   40.3455   30.0490   42.9567 H   0  0  0  0  0  0  0  0  0  0  0  0
   39.1507   27.9454   43.7077 H   0  0  0  0  0  0  0  0  0  0  0  0
   36.9408   31.1621   40.7226 H   0  0  0  0  0  0  0  0  0  0  0  0
   37.2199   24.3561   43.4158 H   0  0  0  0  0  0  0  0  0  0  0  0
   37.8935   22.8411   41.5673 H   0  0  0  0  0  0  0  0  0  0  0  0
   38.0265   24.6190   38.0077 H   0  0  0  0  0  0  0  0  0  0  0  0
   37.4064   23.0573   38.6499 H   0  0  0  0  0  0  0  0  0  0  0  0
   39.7665   23.2747   39.9826 H   0  0  0  0  0  0  0  0  0  0  0  0
   39.5431   22.3996   38.4299 H   0  0  0  0  0  0  0  0  0  0  0  0
   40.1686   24.0834   38.4299 H   0  0  0  0  0  0  0  0  0  0  0  0
  2  3  2  0
  4  1  1  0
  4  3  1  0
  5  4  2  0
  6  5  1  0
  6  7  2  0
  7  2  1  0
  8  9  2  0
  8  1  1  0
 10  9  1  0
 11 12  1  0
 11 10  2  0
 12  8  1  0
 13 14  1  0
 13 11  1  0
  1 15  1  0
  1 16  1  0
  2 17  1  0
  3 18  1  0
  6 19  1  0
  9 20  1  0
 10 21  1  0
 13 22  1  0
 13 23  1  0
 14 24  1  0
 14 25  1  0
 14 26  1  0
M  ISO  8  15   8  16   8  17  14  18  14  19  14  20  14  21  14  22   8
M  ISO  4  23   8  24   8  25   8  26   8
M  END
>  <minimizedAffinity>  (1) 
-3.69267416

>  <minimizedRMSD>  (1) 
0.590662003

$$$$
