
     RDKit          3D

 23 24  0  0  0  0  0  0  0  0999 V2000
   36.7100   26.8930   43.0130 C   0  0  0  0  0  0  0  0  0  0  0  0
   39.5430   29.4020   42.6270 C   0  0  0  0  0  0  0  0  0  0  0  0
   38.8460   28.2360   42.9850 C   0  0  0  0  0  0  0  0  0  0  0  0
   37.5130   28.1120   42.6600 C   0  0  0  0  0  0  0  0  0  0  0  0
   36.9420   29.1540   41.9960 N   0  0  0  0  0  0  0  0  0  0  0  0
   37.6200   30.2610   41.6600 C   0  0  0  0  0  0  0  0  0  0  0  0
   38.9120   30.3830   41.9740 N   0  0  0  0  0  0  0  0  0  0  0  0
   37.0990   25.7790   42.1410 C   0  0  0  0  0  0  0  0  0  0  0  0
   37.5270   24.5110   42.3030 C   0  0  0  0  0  0  0  0  0  0  0  0
   37.8200   23.6830   41.2830 C   0  0  0  0  0  0  0  0  0  0  0  0
   37.6180   24.3310   39.9970 C   0  0  0  0  0  0  0  0  0  0  0  0
   37.0630   25.9530   40.3650 S   0  0  0  0  0  0  0  0  0  0  0  0
   37.8390   23.7290   38.6760 C   0  0  0  0  0  0  0  0  0  0  0  0
   38.5610   24.3200   37.8770 O   0  0  0  0  0  0  0  0  0  0  0  0
   37.2190   22.5330   38.4140 O   0  0  0  0  0  0  0  0  0  0  0  0
   36.8995   26.6206   44.0618 H   0  0  0  0  0  0  0  0  0  0  0  0
   35.6399   27.1079   42.8765 H   0  0  0  0  0  0  0  0  0  0  0  0
   40.6074   29.5077   42.8839 H   0  0  0  0  0  0  0  0  0  0  0  0
   39.3618   27.4263   43.5220 H   0  0  0  0  0  0  0  0  0  0  0  0
   37.1088   31.0733   41.1226 H   0  0  0  0  0  0  0  0  0  0  0  0
   37.6436   24.1308   43.3286 H   0  0  0  0  0  0  0  0  0  0  0  0
   38.1683   22.6469   41.4067 H   0  0  0  0  0  0  0  0  0  0  0  0
   37.3420   22.0937   37.5354 H   0  0  0  0  0  0  0  0  0  0  0  0
  2  3  2  0
  4  3  1  0
  4  1  1  0
  5  4  2  0
  6  7  2  0
  6  5  1  0
  7  2  1  0
  8  9  2  0
  8  1  1  0
 10  9  1  0
 11 12  1  0
 11 10  2  0
 12  8  1  0
 13 11  1  0
 14 13  2  0
 15 13  1  0
  1 16  1  0
  1 17  1  0
  2 18  1  0
  3 19  1  0
  6 20  1  0
  9 21  1  0
 10 22  1  0
 15 23  1  0
M  ISO  8  16   8  17   8  18  14  19  14  20  14  21  14  22  14  23   3
M  END
>  <minimizedAffinity>  (1) 
-3.63211179

>  <minimizedRMSD>  (1) 
0.108278476

$$$$
