
     RDKit          3D

 22 23  0  0  0  0  0  0  0  0999 V2000
   36.7650   26.8010   42.9970 C   0  0  0  0  0  0  0  0  0  0  0  0
   39.5310   29.3800   42.6390 C   0  0  0  0  0  0  0  0  0  0  0  0
   38.8550   28.1920   42.9810 C   0  0  0  0  0  0  0  0  0  0  0  0
   37.5200   28.0410   42.6550 C   0  0  0  0  0  0  0  0  0  0  0  0
   36.9190   29.0720   42.0060 N   0  0  0  0  0  0  0  0  0  0  0  0
   37.5730   30.2110   41.6800 C   0  0  0  0  0  0  0  0  0  0  0  0
   38.8600   30.3570   41.9940 N   0  0  0  0  0  0  0  0  0  0  0  0
   37.1860   25.7070   42.1200 C   0  0  0  0  0  0  0  0  0  0  0  0
   37.6870   24.4670   42.2930 C   0  0  0  0  0  0  0  0  0  0  0  0
   37.9960   23.6400   41.2700 C   0  0  0  0  0  0  0  0  0  0  0  0
   37.7190   24.2550   39.9740 C   0  0  0  0  0  0  0  0  0  0  0  0
   37.0840   25.8600   40.3480 S   0  0  0  0  0  0  0  0  0  0  0  0
   37.9670   23.5690   38.7450 N   0  0  0  0  0  0  0  0  0  0  0  0
   36.9657   26.5281   44.0435 H   0  0  0  0  0  0  0  0  0  0  0  0
   35.6885   26.9819   42.8613 H   0  0  0  0  0  0  0  0  0  0  0  0
   40.5930   29.5095   42.8947 H   0  0  0  0  0  0  0  0  0  0  0  0
   39.3885   27.3862   43.5064 H   0  0  0  0  0  0  0  0  0  0  0  0
   37.0413   31.0181   41.1547 H   0  0  0  0  0  0  0  0  0  0  0  0
   37.8527   24.1102   43.3202 H   0  0  0  0  0  0  0  0  0  0  0  0
   38.4061   22.6273   41.3974 H   0  0  0  0  0  0  0  0  0  0  0  0
   38.3503   22.6131   38.7571 H   0  0  0  0  0  0  0  0  0  0  0  0
   37.7624   24.0305   37.8472 H   0  0  0  0  0  0  0  0  0  0  0  0
  2  3  2  0
  4  3  1  0
  4  1  1  0
  5  4  2  0
  6  7  2  0
  6  5  1  0
  7  2  1  0
  8  9  2  0
  8  1  1  0
 10  9  1  0
 11 12  1  0
 11 10  2  0
 12  8  1  0
 13 11  1  0
  1 14  1  0
  1 15  1  0
  2 16  1  0
  3 17  1  0
  6 18  1  0
  9 19  1  0
 10 20  1  0
 13 21  1  0
 13 22  1  0
M  ISO  7  14   8  15   8  16  14  17  14  18  14  19  14  20  14
M  END
>  <minimizedAffinity>  (1) 
-3.60464072

>  <minimizedRMSD>  (1) 
0.0141596738

$$$$
