
     RDKit          3D

 34 35  0  0  0  0  0  0  0  0999 V2000
   39.8800   32.5940   40.4840 C   0  0  0  0  0  0  0  0  0  0  0  0
   39.4140   33.8810   40.3770 C   0  0  0  0  0  0  0  0  0  0  0  0
   40.3480   34.6900   39.7610 C   0  0  0  0  0  0  0  0  0  0  0  0
   41.3790   33.7950   39.5190 C   0  0  0  0  0  0  0  0  0  0  0  0
   41.0770   32.6170   39.9430 O   0  0  0  0  0  0  0  0  0  0  0  0
   37.4350   30.0130   41.5350 C   0  0  0  0  0  0  0  0  0  0  0  0
   38.2740   29.1160   42.2910 C   0  0  0  0  0  0  0  0  0  0  0  0
   39.6020   29.5040   42.3560 C   0  0  0  0  0  0  0  0  0  0  0  0
   40.0600   30.6210   41.7620 N   0  0  0  0  0  0  0  0  0  0  0  0
   39.2250   31.4270   41.0630 C   0  0  0  0  0  0  0  0  0  0  0  0
   37.9250   31.1190   40.9550 N   0  0  0  0  0  0  0  0  0  0  0  0
   37.6860   27.9660   42.8750 N   0  0  0  0  0  0  0  0  0  0  0  0
   36.8180   28.0000   43.9860 C   0  0  0  0  0  0  0  0  0  0  0  0
   37.0660   28.8940   44.9130 N   0  0  0  0  0  0  0  0  0  0  0  0
   35.7570   27.0140   43.9330 N   0  0  0  0  0  0  0  0  0  0  0  0
   36.4950   28.9580   45.7580 H   0  0  0  0  0  0  0  0  0  0  0  0
   40.3270   36.0490   39.4270 N   0  0  0  0  0  0  0  0  0  0  0  0
   40.1690   37.0670   40.3940 C   0  0  0  0  0  0  0  0  0  0  0  0
   40.8510   36.9960   41.4600 N   0  0  0  0  0  0  0  0  0  0  0  0
   39.2630   38.1480   40.1600 N   0  0  0  0  0  0  0  0  0  0  0  0
   41.5280   36.2840   41.7340 H   0  0  0  0  0  0  0  0  0  0  0  0
   42.6640   34.1810   38.8500 C   0  0  0  0  0  0  0  0  0  0  0  0
   43.3110   33.0640   38.3580 F   0  0  0  0  0  0  0  0  0  0  0  0
   42.3860   35.0750   37.8250 F   0  0  0  0  0  0  0  0  0  0  0  0
   43.5210   34.7770   39.7460 F   0  0  0  0  0  0  0  0  0  0  0  0
   38.4306   34.2212   40.7335 H   0  0  0  0  0  0  0  0  0  0  0  0
   36.3641   29.7840   41.4311 H   0  0  0  0  0  0  0  0  0  0  0  0
   40.3099   28.8744   42.9150 H   0  0  0  0  0  0  0  0  0  0  0  0
   37.9064   27.0484   42.4622 H   0  0  0  0  0  0  0  0  0  0  0  0
   35.0690   26.9562   44.6973 H   0  0  0  0  0  0  0  0  0  0  0  0
   35.6910   26.3711   43.1310 H   0  0  0  0  0  0  0  0  0  0  0  0
   40.4307   36.3174   38.4380 H   0  0  0  0  0  0  0  0  0  0  0  0
   39.1507   38.8881   40.8674 H   0  0  0  0  0  0  0  0  0  0  0  0
   38.7226   38.1866   39.2840 H   0  0  0  0  0  0  0  0  0  0  0  0
  1 10  1  0
  2  1  2  0
  3  2  1  0
  4  3  2  0
  4  5  1  0
  5  1  1  0
  6  7  2  0
  7  8  1  0
  7 12  1  0
  9  8  2  0
 10  9  1  0
 11 10  2  0
 11  6  1  0
 12 13  1  0
 13 14  2  0
 14 16  1  0
 15 13  1  0
 17  3  1  0
 17 18  1  0
 18 19  2  0
 19 21  1  0
 20 18  1  0
 22  4  1  0
 22 25  1  0
 23 22  1  0
 24 22  1  0
  2 26  1  0
  6 27  1  0
  8 28  1  0
 12 29  1  0
 15 30  1  0
 15 31  1  0
 17 32  1  0
 20 33  1  0
 20 34  1  0
M  ISO  3  26  14  27  14  28  14
M  END
>  <minimizedAffinity>  (1) 
-5.34969234

>  <minimizedRMSD>  (1) 
2.06430054

$$$$
