
     RDKit          3D

 27 29  0  0  0  0  0  0  0  0999 V2000
   37.0090   26.0680   42.2730 C   0  0  0  0  0  0  0  0  0  0  0  0
   37.4060   24.8070   42.5400 C   0  0  0  0  0  0  0  0  0  0  0  0
   37.7400   23.9070   41.5860 C   0  0  0  0  0  0  0  0  0  0  0  0
   37.6170   24.4780   40.2510 C   0  0  0  0  0  0  0  0  0  0  0  0
   37.0720   26.1250   40.4910 S   0  0  0  0  0  0  0  0  0  0  0  0
   37.8920   23.8060   38.9950 C   0  0  0  0  0  0  0  0  0  0  0  0
   39.1020   23.3190   38.6270 C   0  0  0  0  0  0  0  0  0  0  0  0
   38.8530   22.7780   37.3610 C   0  0  0  0  0  0  0  0  0  0  0  0
   37.5410   22.9560   37.0230 N   0  0  0  0  0  0  0  0  0  0  0  0
   36.9700   23.5920   38.0450 N   0  0  0  0  0  0  0  0  0  0  0  0
   36.5970   27.2250   43.0640 C   0  0  0  0  0  0  0  0  0  0  0  0
   39.3360   29.8260   42.6100 C   0  0  0  0  0  0  0  0  0  0  0  0
   38.6540   28.6590   43.0550 C   0  0  0  0  0  0  0  0  0  0  0  0
   37.3620   28.4300   42.6290 C   0  0  0  0  0  0  0  0  0  0  0  0
   36.8000   29.3480   41.7900 N   0  0  0  0  0  0  0  0  0  0  0  0
   37.4610   30.4560   41.3730 C   0  0  0  0  0  0  0  0  0  0  0  0
   38.6980   30.6780   41.7800 N   0  0  0  0  0  0  0  0  0  0  0  0
   37.4615   24.4923   43.5926 H   0  0  0  0  0  0  0  0  0  0  0  0
   38.0631   22.8759   41.7921 H   0  0  0  0  0  0  0  0  0  0  0  0
   40.0486   23.3432   39.1869 H   0  0  0  0  0  0  0  0  0  0  0  0
   39.6043   22.2814   36.7294 H   0  0  0  0  0  0  0  0  0  0  0  0
   37.0835   22.6572   36.1499 H   0  0  0  0  0  0  0  0  0  0  0  0
   35.5212   27.4028   42.9188 H   0  0  0  0  0  0  0  0  0  0  0  0
   36.7990   27.0297   44.1275 H   0  0  0  0  0  0  0  0  0  0  0  0
   40.3662   30.0304   42.9371 H   0  0  0  0  0  0  0  0  0  0  0  0
   39.1513   27.9477   43.7309 H   0  0  0  0  0  0  0  0  0  0  0  0
   36.9677   31.1694   40.6964 H   0  0  0  0  0  0  0  0  0  0  0  0
  1  2  2  0
  1 11  1  0
  3  2  1  0
  4  5  1  0
  4  3  2  0
  5  1  1  0
  6  4  1  0
  7  6  1  0
  8  7  2  0
  9  8  1  0
  9 10  1  0
 10  6  2  0
 12 13  2  0
 14 13  1  0
 14 11  1  0
 15 14  2  0
 16 17  2  0
 16 15  1  0
 17 12  1  0
  2 18  1  0
  3 19  1  0
  7 20  1  0
  8 21  1  0
  9 22  1  0
 11 23  1  0
 11 24  1  0
 12 25  1  0
 13 26  1  0
 16 27  1  0
M  ISO  8  18  14  19  14  20  14  21  14  22   9  23   8  24   8  25  14
M  ISO  2  26  14  27  14
M  END
>  <minimizedAffinity>  (1) 
-3.84989595

>  <minimizedRMSD>  (1) 
0.448543906

$$$$
