
     RDKit          3D

 41 45  0  0  0  0  0  0  0  0999 V2000
   40.2530   29.5570   42.1830 C   0  0  0  0  0  0  0  0  0  0  0  0
   39.0130   28.8550   42.1290 C   0  0  0  0  0  0  0  0  0  0  0  0
   37.9040   29.5010   41.6410 C   0  0  0  0  0  0  0  0  0  0  0  0
   38.0530   30.7850   41.2330 N   0  0  0  0  0  0  0  0  0  0  0  0
   39.2310   31.4480   41.2870 C   0  0  0  0  0  0  0  0  0  0  0  0
   40.2990   30.8340   41.7540 N   0  0  0  0  0  0  0  0  0  0  0  0
   39.1260   32.7880   40.7990 N   0  0  0  0  0  0  0  0  0  0  0  0
   38.0840   33.5510   40.4420 C   0  0  0  0  0  0  0  0  0  0  0  0
   38.5760   34.7530   40.0520 N   0  0  0  0  0  0  0  0  0  0  0  0
   39.9060   34.7320   40.1690 C   0  0  0  0  0  0  0  0  0  0  0  0
   40.8780   35.6980   39.9030 C   0  0  0  0  0  0  0  0  0  0  0  0
   40.5520   36.8310   39.4720 O   0  0  0  0  0  0  0  0  0  0  0  0
   42.1830   35.4700   40.0920 N   0  0  0  0  0  0  0  0  0  0  0  0
   42.5120   34.2340   40.5600 C   0  0  0  0  0  0  0  0  0  0  0  0
   43.8320   33.7780   40.8300 N   0  0  0  0  0  0  0  0  0  0  0  0
   41.6030   33.2970   40.8200 N   0  0  0  0  0  0  0  0  0  0  0  0
   40.2730   33.4830   40.6450 C   0  0  0  0  0  0  0  0  0  0  0  0
   36.5840   28.8210   41.5600 C   0  0  0  0  0  0  0  0  0  0  0  0
   36.7580   27.3630   41.6440 C   0  0  0  0  0  0  0  0  0  0  0  0
   36.8630   26.4660   42.6370 C   0  0  0  0  0  0  0  0  0  0  0  0
   37.0220   25.1350   42.4070 C   0  0  0  0  0  0  0  0  0  0  0  0
   37.0620   24.8370   41.0020 C   0  0  0  0  0  0  0  0  0  0  0  0
   36.8800   26.3790   40.1750 S   0  0  0  0  0  0  0  0  0  0  0  0
   37.2190   23.5290   40.3880 C   0  0  0  0  0  0  0  0  0  0  0  0
   38.3330   22.7500   40.5140 C   0  0  0  0  0  0  0  0  0  0  0  0
   38.0330   21.6160   39.7710 C   0  0  0  0  0  0  0  0  0  0  0  0
   36.7920   21.7430   39.2390 N   0  0  0  0  0  0  0  0  0  0  0  0
   36.3080   22.9250   39.6300 N   0  0  0  0  0  0  0  0  0  0  0  0
   41.1577   29.0642   42.5686 H   0  0  0  0  0  0  0  0  0  0  0  0
   38.9459   27.8123   42.4729 H   0  0  0  0  0  0  0  0  0  0  0  0
   37.0243   33.2565   40.4617 H   0  0  0  0  0  0  0  0  0  0  0  0
   42.8962   36.1866   39.8953 H   0  0  0  0  0  0  0  0  0  0  0  0
   43.9846   32.8227   41.1835 H   0  0  0  0  0  0  0  0  0  0  0  0
   44.6352   34.4031   40.6720 H   0  0  0  0  0  0  0  0  0  0  0  0
   35.9491   29.1597   42.3919 H   0  0  0  0  0  0  0  0  0  0  0  0
   36.1096   29.0712   40.5996 H   0  0  0  0  0  0  0  0  0  0  0  0
   36.8187   26.8212   43.6771 H   0  0  0  0  0  0  0  0  0  0  0  0
   37.1094   24.3783   43.2005 H   0  0  0  0  0  0  0  0  0  0  0  0
   39.2540   22.9696   41.0739 H   0  0  0  0  0  0  0  0  0  0  0  0
   38.6978   20.7502   39.6352 H   0  0  0  0  0  0  0  0  0  0  0  0
   36.3110   21.0544   38.6429 H   0  0  0  0  0  0  0  0  0  0  0  0
  2  1  2  0
  3  2  1  0
  4  5  1  0
  4  3  2  0
  5  6  2  0
  6  1  1  0
  7  5  1  0
  8  7  1  0
  9 10  1  0
  9  8  2  0
 10 17  2  0
 11 13  1  0
 11 10  1  0
 12 11  2  0
 13 14  1  0
 14 16  2  0
 14 15  1  0
 17  7  1  0
 17 16  1  0
 18  3  1  0
 18 19  1  0
 19 20  2  0
 21 20  1  0
 22 21  2  0
 23 22  1  0
 23 19  1  0
 24 25  1  0
 24 22  1  0
 26 25  2  0
 27 28  1  0
 27 26  1  0
 28 24  2  0
  1 29  1  0
  2 30  1  0
  8 31  1  0
 13 32  1  0
 15 33  1  0
 15 34  1  0
 18 35  1  0
 18 36  1  0
 20 37  1  0
 21 38  1  0
 25 39  1  0
 26 40  1  0
 27 41  1  0
M  ISO  8  29  14  30  14  31  14  32   9  35   8  36   8  37  14  38  14
M  ISO  3  39  14  40  14  41   9
M  END
>  <minimizedAffinity>  (1) 
-6.89876652

>  <minimizedRMSD>  (1) 
2.94692755

$$$$
