
     RDKit          3D

 40 44  0  0  0  0  0  0  0  0999 V2000
   39.4960   30.4240   42.8660 C   0  0  0  0  0  0  0  0  0  0  0  0
   38.2820   29.7030   42.6520 C   0  0  0  0  0  0  0  0  0  0  0  0
   37.7960   29.5690   41.3670 C   0  0  0  0  0  0  0  0  0  0  0  0
   38.5030   30.1360   40.3510 N   0  0  0  0  0  0  0  0  0  0  0  0
   39.6580   30.8200   40.5760 C   0  0  0  0  0  0  0  0  0  0  0  0
   40.1290   30.9520   41.7980 N   0  0  0  0  0  0  0  0  0  0  0  0
   40.2720   31.3510   39.3910 N   0  0  0  0  0  0  0  0  0  0  0  0
   40.3930   30.8680   38.1240 C   0  0  0  0  0  0  0  0  0  0  0  0
   41.0680   31.7790   37.3950 N   0  0  0  0  0  0  0  0  0  0  0  0
   41.3750   32.8340   38.1880 C   0  0  0  0  0  0  0  0  0  0  0  0
   42.0500   34.0080   37.9220 C   0  0  0  0  0  0  0  0  0  0  0  0
   42.1930   34.8660   38.9350 N   0  0  0  0  0  0  0  0  0  0  0  0
   41.7240   34.6460   40.1690 C   0  0  0  0  0  0  0  0  0  0  0  0
   41.0730   33.4910   40.3850 N   0  0  0  0  0  0  0  0  0  0  0  0
   40.8760   32.5680   39.4430 C   0  0  0  0  0  0  0  0  0  0  0  0
   36.5400   28.8290   41.0920 C   0  0  0  0  0  0  0  0  0  0  0  0
   36.7530   27.3840   41.2730 C   0  0  0  0  0  0  0  0  0  0  0  0
   36.9390   26.5720   42.3260 C   0  0  0  0  0  0  0  0  0  0  0  0
   37.1130   25.2450   42.1910 C   0  0  0  0  0  0  0  0  0  0  0  0
   37.0740   24.8200   40.8130 C   0  0  0  0  0  0  0  0  0  0  0  0
   36.8080   26.2750   39.8780 S   0  0  0  0  0  0  0  0  0  0  0  0
   37.2280   23.4590   40.3080 C   0  0  0  0  0  0  0  0  0  0  0  0
   38.3010   22.6770   40.5170 C   0  0  0  0  0  0  0  0  0  0  0  0
   37.9900   21.4940   39.8520 C   0  0  0  0  0  0  0  0  0  0  0  0
   36.7500   21.6080   39.2730 N   0  0  0  0  0  0  0  0  0  0  0  0
   36.3110   22.8240   39.5720 N   0  0  0  0  0  0  0  0  0  0  0  0
   42.5830   34.3260   36.6410 N   0  0  0  0  0  0  0  0  0  0  0  0
   39.9060   30.5462   43.8794 H   0  0  0  0  0  0  0  0  0  0  0  0
   37.7408   29.2598   43.5009 H   0  0  0  0  0  0  0  0  0  0  0  0
   40.0079   29.9043   37.7594 H   0  0  0  0  0  0  0  0  0  0  0  0
   41.8660   35.3817   40.9743 H   0  0  0  0  0  0  0  0  0  0  0  0
   36.2230   29.0229   40.0567 H   0  0  0  0  0  0  0  0  0  0  0  0
   35.7622   29.1682   41.7920 H   0  0  0  0  0  0  0  0  0  0  0  0
   36.9495   27.0078   43.3359 H   0  0  0  0  0  0  0  0  0  0  0  0
   37.2679   24.5599   43.0375 H   0  0  0  0  0  0  0  0  0  0  0  0
   39.2136   22.9163   41.0825 H   0  0  0  0  0  0  0  0  0  0  0  0
   38.6370   20.6060   39.7987 H   0  0  0  0  0  0  0  0  0  0  0  0
   36.2590   20.8928   38.7178 H   0  0  0  0  0  0  0  0  0  0  0  0
   43.0788   35.2171   36.4963 H   0  0  0  0  0  0  0  0  0  0  0  0
   42.4729   33.6650   35.8588 H   0  0  0  0  0  0  0  0  0  0  0  0
  2  1  2  0
  3  2  1  0
  4  5  1  0
  4  3  2  0
  5  6  2  0
  6  1  1  0
  7 15  1  0
  7  5  1  0
  8  7  1  0
  9  8  2  0
  9 10  1  0
 10 15  2  0
 11 10  1  0
 11 12  2  0
 12 13  1  0
 13 14  2  0
 15 14  1  0
 16 17  1  0
 16  3  1  0
 17 18  2  0
 19 18  1  0
 20 19  2  0
 21 20  1  0
 21 17  1  0
 22 23  1  0
 22 20  1  0
 24 23  2  0
 25 26  1  0
 25 24  1  0
 26 22  2  0
 27 11  1  0
  1 28  1  0
  2 29  1  0
  8 30  1  0
 13 31  1  0
 16 32  1  0
 16 33  1  0
 18 34  1  0
 19 35  1  0
 23 36  1  0
 24 37  1  0
 25 38  1  0
 27 39  1  0
 27 40  1  0
M  ISO  8  28  14  29  14  30  14  31  14  32   8  33   8  34  14  35  14
M  ISO  3  36  14  37  14  38   9
M  END
>  <minimizedAffinity>  (1) 
-6.75400591

>  <minimizedRMSD>  (1) 
3.59518838

$$$$
