
     RDKit          3D

 41 45  0  0  0  0  0  0  0  0999 V2000
   37.8840   29.1210   43.3070 C   0  0  0  0  0  0  0  0  0  0  0  0
   36.2480   30.8930   40.3760 C   0  0  0  0  0  0  0  0  0  0  0  0
   36.4210   30.0530   41.5080 C   0  0  0  0  0  0  0  0  0  0  0  0
   37.6540   29.9830   42.1230 C   0  0  0  0  0  0  0  0  0  0  0  0
   38.6720   30.7350   41.6080 N   0  0  0  0  0  0  0  0  0  0  0  0
   38.4880   31.5350   40.5210 C   0  0  0  0  0  0  0  0  0  0  0  0
   37.2970   31.6000   39.9310 N   0  0  0  0  0  0  0  0  0  0  0  0
   39.6580   32.3040   40.0490 C   0  0  0  0  0  0  0  0  0  0  0  0
   40.8570   31.8130   39.5700 C   0  0  0  0  0  0  0  0  0  0  0  0
   41.6100   32.8810   39.2630 N   0  0  0  0  0  0  0  0  0  0  0  0
   40.9330   34.0110   39.5310 C   0  0  0  0  0  0  0  0  0  0  0  0
   41.3680   35.3090   39.3520 C   0  0  0  0  0  0  0  0  0  0  0  0
   40.4690   36.3180   39.7090 C   0  0  0  0  0  0  0  0  0  0  0  0
   39.2080   36.0580   40.2160 C   0  0  0  0  0  0  0  0  0  0  0  0
   38.8620   34.7310   40.3590 C   0  0  0  0  0  0  0  0  0  0  0  0
   39.6810   33.6860   40.0340 C   0  0  0  0  0  0  0  0  0  0  0  0
   38.1750   27.7410   42.8860 C   0  0  0  0  0  0  0  0  0  0  0  0
   39.1490   26.8480   43.1230 C   0  0  0  0  0  0  0  0  0  0  0  0
   39.1460   25.6170   42.5780 C   0  0  0  0  0  0  0  0  0  0  0  0
   37.9970   25.3900   41.7360 C   0  0  0  0  0  0  0  0  0  0  0  0
   37.0700   26.8720   41.7890 S   0  0  0  0  0  0  0  0  0  0  0  0
   37.6820   24.1730   40.9950 C   0  0  0  0  0  0  0  0  0  0  0  0
   38.5160   23.1320   40.8170 C   0  0  0  0  0  0  0  0  0  0  0  0
   37.7620   22.2390   40.0600 C   0  0  0  0  0  0  0  0  0  0  0  0
   36.5230   22.7600   39.8100 N   0  0  0  0  0  0  0  0  0  0  0  0
   36.5060   23.9460   40.3970 N   0  0  0  0  0  0  0  0  0  0  0  0
   38.7368   29.5127   43.8808 H   0  0  0  0  0  0  0  0  0  0  0  0
   36.9780   29.1210   43.9308 H   0  0  0  0  0  0  0  0  0  0  0  0
   35.2719   30.9624   39.8737 H   0  0  0  0  0  0  0  0  0  0  0  0
   35.5768   29.4616   41.8922 H   0  0  0  0  0  0  0  0  0  0  0  0
   41.1391   30.7553   39.4615 H   0  0  0  0  0  0  0  0  0  0  0  0
   42.5649   32.8407   38.8790 H   0  0  0  0  0  0  0  0  0  0  0  0
   42.3666   35.5365   38.9507 H   0  0  0  0  0  0  0  0  0  0  0  0
   40.7779   37.3660   39.5812 H   0  0  0  0  0  0  0  0  0  0  0  0
   38.5170   36.8685   40.4909 H   0  0  0  0  0  0  0  0  0  0  0  0
   37.8643   34.4987   40.7598 H   0  0  0  0  0  0  0  0  0  0  0  0
   39.9792   27.1323   43.7862 H   0  0  0  0  0  0  0  0  0  0  0  0
   39.9319   24.8680   42.7550 H   0  0  0  0  0  0  0  0  0  0  0  0
   39.5469   23.0146   41.1822 H   0  0  0  0  0  0  0  0  0  0  0  0
   38.1128   21.2558   39.7131 H   0  0  0  0  0  0  0  0  0  0  0  0
   35.7603   22.3203   39.2753 H   0  0  0  0  0  0  0  0  0  0  0  0
  2  3  2  0
  3  4  1  0
  4  1  1  0
  5  4  2  0
  6  5  1  0
  7  2  1  0
  7  6  2  0
  8  6  1  0
  9  8  2  0
 10 11  1  0
 10  9  1  0
 11 16  2  0
 12 11  1  0
 12 13  2  0
 13 14  1  0
 14 15  2  0
 16  8  1  0
 16 15  1  0
 17 18  2  0
 17  1  1  0
 19 18  1  0
 20 21  1  0
 20 19  2  0
 21 17  1  0
 22 20  1  0
 23 22  1  0
 24 23  2  0
 25 24  1  0
 25 26  1  0
 26 22  2  0
  1 27  1  0
  1 28  1  0
  2 29  1  0
  3 30  1  0
  9 31  1  0
 10 32  1  0
 12 33  1  0
 13 34  1  0
 14 35  1  0
 15 36  1  0
 18 37  1  0
 19 38  1  0
 23 39  1  0
 24 40  1  0
 25 41  1  0
M  ISO  8  27   8  28   8  29  14  30  14  31  14  32   9  33  14  34  14
M  ISO  7  35  14  36  14  37  14  38  14  39  14  40  14  41   9
M  END
>  <minimizedAffinity>  (1) 
-6.52253819

>  <minimizedRMSD>  (1) 
3.16186094

$$$$
