
     RDKit          3D

 34 36  0  0  0  0  0  0  0  0999 V2000
   36.4450   28.1330   42.4340 C   0  0  0  0  0  0  0  0  0  0  0  0
   39.3720   30.4480   41.7320 C   0  0  0  0  0  0  0  0  0  0  0  0
   38.6290   29.3230   42.1750 C   0  0  0  0  0  0  0  0  0  0  0  0
   37.2670   29.2900   41.9870 C   0  0  0  0  0  0  0  0  0  0  0  0
   36.7010   30.3570   41.3750 N   0  0  0  0  0  0  0  0  0  0  0  0
   37.4070   31.4280   40.9520 C   0  0  0  0  0  0  0  0  0  0  0  0
   38.7080   31.4630   41.1310 N   0  0  0  0  0  0  0  0  0  0  0  0
   36.7230   32.5060   40.3170 N   0  0  0  0  0  0  0  0  0  0  0  0
   37.5090   33.4510   39.6010 C   0  0  0  0  0  0  0  0  0  0  0  0
   38.7770   33.4110   39.4480 N   0  0  0  0  0  0  0  0  0  0  0  0
   36.7780   34.5230   39.0190 N   0  0  0  0  0  0  0  0  0  0  0  0
   39.3610   34.0790   38.9380 H   0  0  0  0  0  0  0  0  0  0  0  0
   37.0550   26.8730   41.9790 C   0  0  0  0  0  0  0  0  0  0  0  0
   37.7080   25.8550   42.5580 C   0  0  0  0  0  0  0  0  0  0  0  0
   38.1660   24.7990   41.8610 C   0  0  0  0  0  0  0  0  0  0  0  0
   37.8730   24.9050   40.4520 C   0  0  0  0  0  0  0  0  0  0  0  0
   37.0140   26.4200   40.2570 S   0  0  0  0  0  0  0  0  0  0  0  0
   38.2230   23.9410   39.4130 C   0  0  0  0  0  0  0  0  0  0  0  0
   39.4740   23.5400   39.1240 C   0  0  0  0  0  0  0  0  0  0  0  0
   39.3080   22.6340   38.0820 C   0  0  0  0  0  0  0  0  0  0  0  0
   37.9890   22.5260   37.7870 N   0  0  0  0  0  0  0  0  0  0  0  0
   37.3350   23.3380   38.6160 N   0  0  0  0  0  0  0  0  0  0  0  0
   36.3848   28.1322   43.5324 H   0  0  0  0  0  0  0  0  0  0  0  0
   35.4364   28.2205   42.0039 H   0  0  0  0  0  0  0  0  0  0  0  0
   40.4619   30.4941   41.8737 H   0  0  0  0  0  0  0  0  0  0  0  0
   39.1398   28.4817   42.6662 H   0  0  0  0  0  0  0  0  0  0  0  0
   35.6986   32.5970   40.3746 H   0  0  0  0  0  0  0  0  0  0  0  0
   37.2710   35.2514   38.4831 H   0  0  0  0  0  0  0  0  0  0  0  0
   35.7555   34.5710   39.1334 H   0  0  0  0  0  0  0  0  0  0  0  0
   37.8758   25.8843   43.6447 H   0  0  0  0  0  0  0  0  0  0  0  0
   38.7024   23.9519   42.3135 H   0  0  0  0  0  0  0  0  0  0  0  0
   40.4129   23.8561   39.6021 H   0  0  0  0  0  0  0  0  0  0  0  0
   40.1196   22.0902   37.5764 H   0  0  0  0  0  0  0  0  0  0  0  0
   37.5715   21.9287   37.0591 H   0  0  0  0  0  0  0  0  0  0  0  0
  2  3  2  0
  4  3  1  0
  4  1  1  0
  5  4  2  0
  6  7  2  0
  6  5  1  0
  7  2  1  0
  8  6  1  0
  9  8  1  0
 10  9  2  0
 11  9  1  0
 12 10  1  0
 13  1  1  0
 13 14  2  0
 15 14  1  0
 16 15  2  0
 17 16  1  0
 17 13  1  0
 18 16  1  0
 19 18  1  0
 20 19  2  0
 21 20  1  0
 21 22  1  0
 22 18  2  0
  1 23  1  0
  1 24  1  0
  2 25  1  0
  3 26  1  0
  8 27  1  0
 11 28  1  0
 11 29  1  0
 14 30  1  0
 15 31  1  0
 19 32  1  0
 20 33  1  0
 21 34  1  0
M  ISO  8  23   8  24   8  25  14  26  14  30  14  31  14  32  14  33  14
M  ISO  1  34   9
M  END
>  <minimizedAffinity>  (1) 
-5.57444668

>  <minimizedRMSD>  (1) 
0.977659464

$$$$
