
     RDKit          3D

 37 40  0  0  0  0  0  0  0  0999 V2000
   36.8430   27.3830   42.9840 C   0  0  0  0  0  0  0  0  0  0  0  0
   40.2700   28.9960   42.7790 C   0  0  0  0  0  0  0  0  0  0  0  0
   39.2500   28.0560   43.0890 C   0  0  0  0  0  0  0  0  0  0  0  0
   37.9500   28.3240   42.6910 C   0  0  0  0  0  0  0  0  0  0  0  0
   37.7030   29.4900   42.0090 N   0  0  0  0  0  0  0  0  0  0  0  0
   38.7040   30.3710   41.7270 C   0  0  0  0  0  0  0  0  0  0  0  0
   39.9480   30.1180   42.1070 N   0  0  0  0  0  0  0  0  0  0  0  0
   38.3610   31.5880   40.9990 C   0  0  0  0  0  0  0  0  0  0  0  0
   37.2950   31.5720   40.1260 C   0  0  0  0  0  0  0  0  0  0  0  0
   37.0200   32.7440   39.4700 C   0  0  0  0  0  0  0  0  0  0  0  0
   37.7200   33.9110   39.6240 C   0  0  0  0  0  0  0  0  0  0  0  0
   38.7960   33.9270   40.5060 C   0  0  0  0  0  0  0  0  0  0  0  0
   39.0930   32.7440   41.1830 C   0  0  0  0  0  0  0  0  0  0  0  0
   36.9510   26.1880   42.1320 C   0  0  0  0  0  0  0  0  0  0  0  0
   37.0110   24.8620   42.3340 C   0  0  0  0  0  0  0  0  0  0  0  0
   37.1110   23.9800   41.3200 C   0  0  0  0  0  0  0  0  0  0  0  0
   37.1440   24.6260   40.0300 C   0  0  0  0  0  0  0  0  0  0  0  0
   37.0350   26.3390   40.3560 S   0  0  0  0  0  0  0  0  0  0  0  0
   37.2450   23.9750   38.7310 C   0  0  0  0  0  0  0  0  0  0  0  0
   38.2590   23.1800   38.3400 C   0  0  0  0  0  0  0  0  0  0  0  0
   37.8970   22.8130   37.0440 C   0  0  0  0  0  0  0  0  0  0  0  0
   36.7120   23.3800   36.7010 N   0  0  0  0  0  0  0  0  0  0  0  0
   36.3270   24.0920   37.7520 N   0  0  0  0  0  0  0  0  0  0  0  0
   36.8930   27.0813   44.0406 H   0  0  0  0  0  0  0  0  0  0  0  0
   35.8845   27.8828   42.7804 H   0  0  0  0  0  0  0  0  0  0  0  0
   41.3102   28.8094   43.0843 H   0  0  0  0  0  0  0  0  0  0  0  0
   39.4884   27.1316   43.6355 H   0  0  0  0  0  0  0  0  0  0  0  0
   36.6949   30.6645   39.9636 H   0  0  0  0  0  0  0  0  0  0  0  0
   36.1737   32.7473   38.7673 H   0  0  0  0  0  0  0  0  0  0  0  0
   37.4382   34.8146   39.0635 H   0  0  0  0  0  0  0  0  0  0  0  0
   39.3906   34.8389   40.6637 H   0  0  0  0  0  0  0  0  0  0  0  0
   39.9384   32.7318   41.8867 H   0  0  0  0  0  0  0  0  0  0  0  0
   36.9773   24.4814   43.3655 H   0  0  0  0  0  0  0  0  0  0  0  0
   37.1618   22.8901   41.4599 H   0  0  0  0  0  0  0  0  0  0  0  0
   39.1564   22.8899   38.9061 H   0  0  0  0  0  0  0  0  0  0  0  0
   38.4893   22.1555   36.3906 H   0  0  0  0  0  0  0  0  0  0  0  0
   36.2129   23.2780   35.8058 H   0  0  0  0  0  0  0  0  0  0  0  0
  2  3  2  0
  4  1  1  0
  4  3  1  0
  5  4  2  0
  6  5  1  0
  6  7  2  0
  7  2  1  0
  8 13  1  0
  8  6  1  0
  9  8  2  0
 10 11  2  0
 10  9  1  0
 11 12  1  0
 12 13  2  0
 14 15  2  0
 14  1  1  0
 16 15  1  0
 17 18  1  0
 17 16  2  0
 18 14  1  0
 19 17  1  0
 20 19  1  0
 21 20  2  0
 22 21  1  0
 22 23  1  0
 23 19  2  0
  1 24  1  0
  1 25  1  0
  2 26  1  0
  3 27  1  0
  9 28  1  0
 10 29  1  0
 11 30  1  0
 12 31  1  0
 13 32  1  0
 15 33  1  0
 16 34  1  0
 20 35  1  0
 21 36  1  0
 22 37  1  0
M  ISO  8  24   8  25   8  26  14  27  14  28  14  29  14  30  14  31  14
M  ISO  6  32  14  33  14  34  14  35  14  36  14  37   9
M  END
>  <minimizedAffinity>  (1) 
-5.30881548

>  <minimizedRMSD>  (1) 
1.31615031

$$$$
