
     RDKit          3D

 33 36  0  0  0  0  0  0  0  0999 V2000
   37.0690   28.1220   43.1870 C   0  0  0  0  0  0  0  0  0  0  0  0
   40.4200   29.6150   42.2190 C   0  0  0  0  0  0  0  0  0  0  0  0
   39.4490   28.7310   42.7750 C   0  0  0  0  0  0  0  0  0  0  0  0
   38.1120   29.0130   42.6250 C   0  0  0  0  0  0  0  0  0  0  0  0
   37.7700   30.1450   41.9380 N   0  0  0  0  0  0  0  0  0  0  0  0
   38.7050   30.9760   41.4140 C   0  0  0  0  0  0  0  0  0  0  0  0
   39.9930   30.7090   41.5560 N   0  0  0  0  0  0  0  0  0  0  0  0
   38.2370   32.1270   40.7190 N   0  0  0  0  0  0  0  0  0  0  0  0
   37.2570   32.4570   39.8600 C   0  0  0  0  0  0  0  0  0  0  0  0
   37.3490   33.7640   39.5540 N   0  0  0  0  0  0  0  0  0  0  0  0
   38.4010   34.2570   40.2310 C   0  0  0  0  0  0  0  0  0  0  0  0
   38.9380   33.2250   40.9460 N   0  0  0  0  0  0  0  0  0  0  0  0
   37.0210   26.8590   42.4350 C   0  0  0  0  0  0  0  0  0  0  0  0
   37.0350   25.5550   42.7520 C   0  0  0  0  0  0  0  0  0  0  0  0
   36.9780   24.5840   41.8210 C   0  0  0  0  0  0  0  0  0  0  0  0
   36.9000   25.1130   40.4810 C   0  0  0  0  0  0  0  0  0  0  0  0
   36.9160   26.8450   40.6570 S   0  0  0  0  0  0  0  0  0  0  0  0
   36.8250   24.3450   39.2500 C   0  0  0  0  0  0  0  0  0  0  0  0
   37.7180   23.4180   38.8570 C   0  0  0  0  0  0  0  0  0  0  0  0
   37.2110   22.9740   37.6280 C   0  0  0  0  0  0  0  0  0  0  0  0
   36.0600   23.6330   37.3370 N   0  0  0  0  0  0  0  0  0  0  0  0
   35.8300   24.4800   38.3470 N   0  0  0  0  0  0  0  0  0  0  0  0
   37.3023   27.9089   44.2406 H   0  0  0  0  0  0  0  0  0  0  0  0
   36.0918   28.6216   43.1124 H   0  0  0  0  0  0  0  0  0  0  0  0
   41.4949   29.4089   42.3286 H   0  0  0  0  0  0  0  0  0  0  0  0
   39.7675   27.8301   43.3199 H   0  0  0  0  0  0  0  0  0  0  0  0
   36.4971   31.7652   39.4678 H   0  0  0  0  0  0  0  0  0  0  0  0
   38.7612   35.2962   40.2124 H   0  0  0  0  0  0  0  0  0  0  0  0
   37.0953   25.2687   43.8124 H   0  0  0  0  0  0  0  0  0  0  0  0
   36.9896   23.5093   42.0554 H   0  0  0  0  0  0  0  0  0  0  0  0
   38.6293   23.0873   39.3768 H   0  0  0  0  0  0  0  0  0  0  0  0
   37.6765   22.2056   36.9933 H   0  0  0  0  0  0  0  0  0  0  0  0
   35.4754   23.5052   36.4986 H   0  0  0  0  0  0  0  0  0  0  0  0
  2  3  2  0
  4  3  1  0
  4  1  1  0
  5  4  2  0
  6  7  2  0
  6  5  1  0
  7  2  1  0
  8 12  1  0
  8  6  1  0
  9  8  1  0
 10  9  2  0
 10 11  1  0
 11 12  2  0
 13 14  2  0
 13  1  1  0
 15 14  1  0
 16 17  1  0
 16 15  2  0
 17 13  1  0
 18 16  1  0
 19 18  1  0
 20 19  2  0
 21 20  1  0
 21 22  1  0
 22 18  2  0
  1 23  1  0
  1 24  1  0
  2 25  1  0
  3 26  1  0
  9 27  1  0
 11 28  1  0
 14 29  1  0
 15 30  1  0
 19 31  1  0
 20 32  1  0
 21 33  1  0
M  ISO  8  23   8  24   8  25  14  26  14  27  14  28  14  29  14  30  14
M  ISO  3  31  14  32  14  33   9
M  END
>  <minimizedAffinity>  (1) 
-5.21843529

>  <minimizedRMSD>  (1) 
1.43105173

$$$$
