
     RDKit          3D

 34 37  0  0  0  0  0  0  0  0999 V2000
   36.6860   27.7120   42.8410 C   0  0  0  0  0  0  0  0  0  0  0  0
   40.0830   29.4020   42.6240 C   0  0  0  0  0  0  0  0  0  0  0  0
   39.0800   28.4450   42.9420 C   0  0  0  0  0  0  0  0  0  0  0  0
   37.7790   28.6680   42.5420 C   0  0  0  0  0  0  0  0  0  0  0  0
   37.4990   29.8190   41.8430 N   0  0  0  0  0  0  0  0  0  0  0  0
   38.4790   30.7210   41.5500 C   0  0  0  0  0  0  0  0  0  0  0  0
   39.7280   30.5090   41.9320 N   0  0  0  0  0  0  0  0  0  0  0  0
   38.1860   31.9370   40.8120 C   0  0  0  0  0  0  0  0  0  0  0  0
   37.1710   32.1500   39.9050 C   0  0  0  0  0  0  0  0  0  0  0  0
   37.2750   33.4580   39.4480 C   0  0  0  0  0  0  0  0  0  0  0  0
   38.3810   33.9400   40.1450 C   0  0  0  0  0  0  0  0  0  0  0  0
   38.8960   33.0520   40.9280 O   0  0  0  0  0  0  0  0  0  0  0  0
   36.9240   26.4340   42.1490 C   0  0  0  0  0  0  0  0  0  0  0  0
   37.0450   25.1480   42.5120 C   0  0  0  0  0  0  0  0  0  0  0  0
   37.2680   24.1620   41.6210 C   0  0  0  0  0  0  0  0  0  0  0  0
   37.3570   24.6560   40.2670 C   0  0  0  0  0  0  0  0  0  0  0  0
   37.1280   26.3830   40.3760 S   0  0  0  0  0  0  0  0  0  0  0  0
   37.5910   23.8570   39.0680 C   0  0  0  0  0  0  0  0  0  0  0  0
   38.5830   22.9580   38.9190 C   0  0  0  0  0  0  0  0  0  0  0  0
   38.3690   22.4780   37.6160 C   0  0  0  0  0  0  0  0  0  0  0  0
   37.2940   23.0910   37.0580 N   0  0  0  0  0  0  0  0  0  0  0  0
   36.8180   23.9420   37.9620 N   0  0  0  0  0  0  0  0  0  0  0  0
   36.6445   27.5354   43.9259 H   0  0  0  0  0  0  0  0  0  0  0  0
   35.7329   28.1365   42.4926 H   0  0  0  0  0  0  0  0  0  0  0  0
   41.1265   29.2452   42.9345 H   0  0  0  0  0  0  0  0  0  0  0  0
   39.3397   27.5347   43.5022 H   0  0  0  0  0  0  0  0  0  0  0  0
   36.4128   31.4149   39.5972 H   0  0  0  0  0  0  0  0  0  0  0  0
   36.6416   33.9826   38.7175 H   0  0  0  0  0  0  0  0  0  0  0  0
   38.7717   34.9629   40.0399 H   0  0  0  0  0  0  0  0  0  0  0  0
   36.9589   24.8887   43.5775 H   0  0  0  0  0  0  0  0  0  0  0  0
   37.3706   23.1014   41.8940 H   0  0  0  0  0  0  0  0  0  0  0  0
   39.3649   22.6714   39.6376 H   0  0  0  0  0  0  0  0  0  0  0  0
   38.9849   21.7142   37.1188 H   0  0  0  0  0  0  0  0  0  0  0  0
   36.9181   22.9278   36.1130 H   0  0  0  0  0  0  0  0  0  0  0  0
  2  3  2  0
  4  1  1  0
  4  3  1  0
  5  4  2  0
  6  5  1  0
  6  7  2  0
  7  2  1  0
  8 12  1  0
  8  6  1  0
  9  8  2  0
 10  9  1  0
 10 11  2  0
 11 12  1  0
 13 14  2  0
 13  1  1  0
 15 14  1  0
 16 17  1  0
 16 15  2  0
 17 13  1  0
 18 16  1  0
 19 18  1  0
 20 19  2  0
 21 20  1  0
 21 22  1  0
 22 18  2  0
  1 23  1  0
  1 24  1  0
  2 25  1  0
  3 26  1  0
  9 27  1  0
 10 28  1  0
 11 29  1  0
 14 30  1  0
 15 31  1  0
 19 32  1  0
 20 33  1  0
 21 34  1  0
M  ISO  8  23   8  24   8  25  14  26  14  27  14  28  14  29  14  30  14
M  ISO  4  31  14  32  14  33  14  34   9
M  END
>  <minimizedAffinity>  (1) 
-5.11740351

>  <minimizedRMSD>  (1) 
1.12446928

$$$$
