
     RDKit          3D

 34 37  0  0  0  0  0  0  0  0999 V2000
   36.8380   27.4650   42.9410 C   0  0  0  0  0  0  0  0  0  0  0  0
   40.3380   28.9320   42.8130 C   0  0  0  0  0  0  0  0  0  0  0  0
   39.2530   28.0550   43.0770 C   0  0  0  0  0  0  0  0  0  0  0  0
   37.9830   28.3680   42.6750 C   0  0  0  0  0  0  0  0  0  0  0  0
   37.8040   29.5490   42.0140 N   0  0  0  0  0  0  0  0  0  0  0  0
   38.8560   30.3840   41.7660 C   0  0  0  0  0  0  0  0  0  0  0  0
   40.0730   30.0820   42.1530 N   0  0  0  0  0  0  0  0  0  0  0  0
   38.4940   31.5950   41.0550 C   0  0  0  0  0  0  0  0  0  0  0  0
   39.0100   32.8230   40.9640 C   0  0  0  0  0  0  0  0  0  0  0  0
   38.4420   33.8030   40.1930 C   0  0  0  0  0  0  0  0  0  0  0  0
   37.2550   33.3740   39.5060 C   0  0  0  0  0  0  0  0  0  0  0  0
   37.0580   31.6270   40.0190 S   0  0  0  0  0  0  0  0  0  0  0  0
   36.9360   26.2580   42.1040 C   0  0  0  0  0  0  0  0  0  0  0  0
   36.9870   24.9350   42.3270 C   0  0  0  0  0  0  0  0  0  0  0  0
   37.0770   24.0340   41.3320 C   0  0  0  0  0  0  0  0  0  0  0  0
   37.1120   24.6540   40.0310 C   0  0  0  0  0  0  0  0  0  0  0  0
   37.0170   26.3850   40.3250 S   0  0  0  0  0  0  0  0  0  0  0  0
   37.2060   23.9900   38.7400 C   0  0  0  0  0  0  0  0  0  0  0  0
   38.2240   23.1700   38.3700 C   0  0  0  0  0  0  0  0  0  0  0  0
   37.8870   22.7810   37.0800 C   0  0  0  0  0  0  0  0  0  0  0  0
   36.7070   23.3630   36.7230 N   0  0  0  0  0  0  0  0  0  0  0  0
   36.3060   24.1050   37.7640 N   0  0  0  0  0  0  0  0  0  0  0  0
   36.8445   27.1730   44.0015 H   0  0  0  0  0  0  0  0  0  0  0  0
   35.9026   27.9921   42.7018 H   0  0  0  0  0  0  0  0  0  0  0  0
   41.3603   28.6841   43.1347 H   0  0  0  0  0  0  0  0  0  0  0  0
   39.4358   27.1113   43.6118 H   0  0  0  0  0  0  0  0  0  0  0  0
   39.9246   33.0566   41.5287 H   0  0  0  0  0  0  0  0  0  0  0  0
   38.8545   34.8192   40.1082 H   0  0  0  0  0  0  0  0  0  0  0  0
   36.6141   33.9586   38.8297 H   0  0  0  0  0  0  0  0  0  0  0  0
   36.9539   24.5731   43.3652 H   0  0  0  0  0  0  0  0  0  0  0  0
   37.1191   22.9467   41.4930 H   0  0  0  0  0  0  0  0  0  0  0  0
   39.1092   22.8813   38.9558 H   0  0  0  0  0  0  0  0  0  0  0  0
   38.4806   22.1073   36.4445 H   0  0  0  0  0  0  0  0  0  0  0  0
   36.2169   23.2531   35.8238 H   0  0  0  0  0  0  0  0  0  0  0  0
  2  3  2  0
  4  1  1  0
  4  3  1  0
  5  4  2  0
  6  5  1  0
  6  7  2  0
  7  2  1  0
  8  6  1  0
  9  8  2  0
 10  9  1  0
 11 12  1  0
 11 10  2  0
 12  8  1  0
 13 14  2  0
 13  1  1  0
 15 14  1  0
 16 17  1  0
 16 15  2  0
 17 13  1  0
 18 16  1  0
 19 18  1  0
 20 19  2  0
 21 20  1  0
 21 22  1  0
 22 18  2  0
  1 23  1  0
  1 24  1  0
  2 25  1  0
  3 26  1  0
  9 27  1  0
 10 28  1  0
 11 29  1  0
 14 30  1  0
 15 31  1  0
 19 32  1  0
 20 33  1  0
 21 34  1  0
M  ISO  8  23   8  24   8  25  14  26  14  27  14  28  14  29  14  30  14
M  ISO  4  31  14  32  14  33  14  34   9
M  END
>  <minimizedAffinity>  (1) 
-4.94783735

>  <minimizedRMSD>  (1) 
1.40040851

$$$$
