
     RDKit          3D

 34 37  0  0  0  0  0  0  0  0999 V2000
   36.7510   27.6870   41.7520 C   0  0  0  0  0  0  0  0  0  0  0  0
   36.8440   26.7150   42.6730 C   0  0  0  0  0  0  0  0  0  0  0  0
   37.2820   25.4780   42.3730 C   0  0  0  0  0  0  0  0  0  0  0  0
   37.6290   25.3370   40.9800 C   0  0  0  0  0  0  0  0  0  0  0  0
   37.3170   26.8990   40.2530 S   0  0  0  0  0  0  0  0  0  0  0  0
   38.1330   24.1430   40.3210 C   0  0  0  0  0  0  0  0  0  0  0  0
   37.7220   22.8810   40.5850 C   0  0  0  0  0  0  0  0  0  0  0  0
   38.4910   22.1080   39.7100 C   0  0  0  0  0  0  0  0  0  0  0  0
   39.3120   22.9040   38.9730 N   0  0  0  0  0  0  0  0  0  0  0  0
   39.0730   24.1500   39.3680 N   0  0  0  0  0  0  0  0  0  0  0  0
   36.3240   29.0960   41.7600 C   0  0  0  0  0  0  0  0  0  0  0  0
   39.6730   30.6880   42.5720 C   0  0  0  0  0  0  0  0  0  0  0  0
   38.5600   29.8080   42.6200 C   0  0  0  0  0  0  0  0  0  0  0  0
   37.5100   29.9870   41.7510 C   0  0  0  0  0  0  0  0  0  0  0  0
   37.5870   31.0270   40.8620 N   0  0  0  0  0  0  0  0  0  0  0  0
   38.6610   31.8600   40.8300 C   0  0  0  0  0  0  0  0  0  0  0  0
   39.6660   31.6900   41.6590 N   0  0  0  0  0  0  0  0  0  0  0  0
   38.6830   32.9760   39.8350 C   0  0  0  0  0  0  0  0  0  0  0  0
   38.5140   34.3840   40.3230 C   0  0  0  0  0  0  0  0  0  0  0  0
   37.4290   33.7200   39.5330 C   0  0  0  0  0  0  0  0  0  0  0  0
   36.5519   26.9372   43.7100 H   0  0  0  0  0  0  0  0  0  0  0  0
   37.3660   24.6646   43.1088 H   0  0  0  0  0  0  0  0  0  0  0  0
   36.9669   22.5452   41.3110 H   0  0  0  0  0  0  0  0  0  0  0  0
   38.4396   21.0122   39.6290 H   0  0  0  0  0  0  0  0  0  0  0  0
   39.9839   22.6015   38.2533 H   0  0  0  0  0  0  0  0  0  0  0  0
   35.7117   29.2959   40.8683 H   0  0  0  0  0  0  0  0  0  0  0  0
   35.7350   29.2890   42.6687 H   0  0  0  0  0  0  0  0  0  0  0  0
   40.5217   30.5597   43.2600 H   0  0  0  0  0  0  0  0  0  0  0  0
   38.5379   28.9856   43.3502 H   0  0  0  0  0  0  0  0  0  0  0  0
   39.4297   32.4429   39.2281 H   0  0  0  0  0  0  0  0  0  0  0  0
   38.3723   34.5823   41.3957 H   0  0  0  0  0  0  0  0  0  0  0  0
   39.0889   35.3170   40.2282 H   0  0  0  0  0  0  0  0  0  0  0  0
   37.2193   34.0481   38.5042 H   0  0  0  0  0  0  0  0  0  0  0  0
   36.3571   33.5314   39.6926 H   0  0  0  0  0  0  0  0  0  0  0  0
  1 11  1  0
  1  2  2  0
  3  2  1  0
  4  3  2  0
  5  4  1  0
  5  1  1  0
  6  7  1  0
  6  4  1  0
  8  7  2  0
  9 10  1  0
  9  8  1  0
 10  6  2  0
 12 13  2  0
 14 11  1  0
 14 13  1  0
 15 14  2  0
 16 15  1  0
 16 17  2  0
 17 12  1  0
 18 19  1  0
 18 16  1  0
 20 18  1  0
 20 19  1  0
  2 21  1  0
  3 22  1  0
  7 23  1  0
  8 24  1  0
  9 25  1  0
 11 26  1  0
 11 27  1  0
 12 28  1  0
 13 29  1  0
 18 30  1  0
 19 31  1  0
 19 32  1  0
 20 33  1  0
 20 34  1  0
M  ISO  8  21  14  22  14  23  14  24  14  25   9  26   8  27   8  28  14
M  ISO  6  29  14  30  13  31  13  32  13  33  13  34  13
M  END
>  <minimizedAffinity>  (1) 
-4.89803934

>  <minimizedRMSD>  (1) 
1.96269548

$$$$
