
     RDKit          3D

 28 30  0  0  0  0  0  0  0  0999 V2000
   37.0740   26.0110   42.2340 C   0  0  0  0  0  0  0  0  0  0  0  0
   37.5570   24.7890   42.5070 C   0  0  0  0  0  0  0  0  0  0  0  0
   37.8790   23.9100   41.5390 C   0  0  0  0  0  0  0  0  0  0  0  0
   37.6460   24.4350   40.2160 C   0  0  0  0  0  0  0  0  0  0  0  0
   37.0230   26.0430   40.4510 S   0  0  0  0  0  0  0  0  0  0  0  0
   37.8870   23.7450   38.9510 C   0  0  0  0  0  0  0  0  0  0  0  0
   39.0810   23.2400   38.5590 C   0  0  0  0  0  0  0  0  0  0  0  0
   38.8090   22.6940   37.3100 C   0  0  0  0  0  0  0  0  0  0  0  0
   37.4840   22.8850   36.9960 N   0  0  0  0  0  0  0  0  0  0  0  0
   36.9350   23.5380   38.0250 N   0  0  0  0  0  0  0  0  0  0  0  0
   36.6400   27.1660   43.0360 C   0  0  0  0  0  0  0  0  0  0  0  0
   39.2020   29.8430   42.2110 C   0  0  0  0  0  0  0  0  0  0  0  0
   38.6320   28.6420   42.7110 C   0  0  0  0  0  0  0  0  0  0  0  0
   37.2860   28.4030   42.5350 C   0  0  0  0  0  0  0  0  0  0  0  0
   36.5460   29.3510   41.8750 N   0  0  0  0  0  0  0  0  0  0  0  0
   37.1170   30.4950   41.4050 C   0  0  0  0  0  0  0  0  0  0  0  0
   38.3960   30.7250   41.5710 N   0  0  0  0  0  0  0  0  0  0  0  0
   36.2640   31.3850   40.7500 O   0  0  0  0  0  0  0  0  0  0  0  0
   37.6946   24.4952   43.5581 H   0  0  0  0  0  0  0  0  0  0  0  0
   38.2758   22.9031   41.7355 H   0  0  0  0  0  0  0  0  0  0  0  0
   40.0384   23.2577   39.1004 H   0  0  0  0  0  0  0  0  0  0  0  0
   39.5438   22.1852   36.6687 H   0  0  0  0  0  0  0  0  0  0  0  0
   37.0068   22.5833   36.1345 H   0  0  0  0  0  0  0  0  0  0  0  0
   35.5474   27.2703   42.9628 H   0  0  0  0  0  0  0  0  0  0  0  0
   36.9302   27.0066   44.0850 H   0  0  0  0  0  0  0  0  0  0  0  0
   40.2740   30.0527   42.3403 H   0  0  0  0  0  0  0  0  0  0  0  0
   39.2607   27.9073   43.2353 H   0  0  0  0  0  0  0  0  0  0  0  0
   35.3036   31.1667   40.6491 H   0  0  0  0  0  0  0  0  0  0  0  0
  1  2  2  0
  1 11  1  0
  3  2  1  0
  4  5  1  0
  4  3  2  0
  5  1  1  0
  6  4  1  0
  7  6  1  0
  8  7  2  0
  9  8  1  0
  9 10  1  0
 10  6  2  0
 12 13  2  0
 14 13  1  0
 14 11  1  0
 15 14  2  0
 16 17  2  0
 16 15  1  0
 17 12  1  0
 18 16  1  0
  2 19  1  0
  3 20  1  0
  7 21  1  0
  8 22  1  0
  9 23  1  0
 11 24  1  0
 11 25  1  0
 12 26  1  0
 13 27  1  0
 18 28  1  0
M  ISO  8  19  14  20  14  21  14  22  14  23   9  24   8  25   8  26  14
M  ISO  2  27  14  28   3
M  END
>  <minimizedAffinity>  (1) 
-4.23143101

>  <minimizedRMSD>  (1) 
0.242526874

$$$$
