
     RDKit          3D

 28 29  0  0  0  0  0  0  0  0999 V2000
   38.3470   29.6090   42.5010 C   0  0  0  0  0  0  0  0  0  0  0  0
   38.2100   29.5310   41.0810 C   0  0  0  0  0  0  0  0  0  0  0  0
   38.4030   28.2650   40.5710 C   0  0  0  0  0  0  0  0  0  0  0  0
   38.6950   27.2000   41.3590 N   0  0  0  0  0  0  0  0  0  0  0  0
   38.8130   27.3340   42.7030 C   0  0  0  0  0  0  0  0  0  0  0  0
   38.6350   28.5400   43.2530 N   0  0  0  0  0  0  0  0  0  0  0  0
   38.2800   28.1260   39.1610 N   0  0  0  0  0  0  0  0  0  0  0  0
   39.2000   28.2420   38.1890 C   0  0  0  0  0  0  0  0  0  0  0  0
   38.8070   28.0540   36.8830 C   0  0  0  0  0  0  0  0  0  0  0  0
   37.5030   27.7510   36.5480 C   0  0  0  0  0  0  0  0  0  0  0  0
   37.1620   27.5690   35.1750 N   0  0  0  0  0  0  0  0  0  0  0  0
   36.5990   27.6400   37.5410 N   0  0  0  0  0  0  0  0  0  0  0  0
   36.9920   27.8260   38.8240 C   0  0  0  0  0  0  0  0  0  0  0  0
   36.0180   27.6860   39.6280 O   0  0  0  0  0  0  0  0  0  0  0  0
   37.9040   30.6990   40.3550 N   0  0  0  0  0  0  0  0  0  0  0  0
   36.8400   31.5850   40.6700 C   0  0  0  0  0  0  0  0  0  0  0  0
   35.7280   31.0180   41.0830 N   0  0  0  0  0  0  0  0  0  0  0  0
   37.1170   32.9970   40.4950 N   0  0  0  0  0  0  0  0  0  0  0  0
   34.9020   31.5800   41.3320 H   0  0  0  0  0  0  0  0  0  0  0  0
   38.2109   30.5829   42.9940 H   0  0  0  0  0  0  0  0  0  0  0  0
   39.0516   26.4636   43.3318 H   0  0  0  0  0  0  0  0  0  0  0  0
   40.2457   28.4822   38.4315 H   0  0  0  0  0  0  0  0  0  0  0  0
   39.5552   28.1482   36.0822 H   0  0  0  0  0  0  0  0  0  0  0  0
   36.1926   27.3425   34.9108 H   0  0  0  0  0  0  0  0  0  0  0  0
   37.8852   27.6640   34.4478 H   0  0  0  0  0  0  0  0  0  0  0  0
   38.4921   30.9256   39.5403 H   0  0  0  0  0  0  0  0  0  0  0  0
   36.3890   33.6946   40.7054 H   0  0  0  0  0  0  0  0  0  0  0  0
   38.0419   33.3028   40.1603 H   0  0  0  0  0  0  0  0  0  0  0  0
  1  6  2  0
  2  1  1  0
  3  2  2  0
  3  4  1  0
  4  5  2  0
  5  6  1  0
  7  3  1  0
  8  7  1  0
  9  8  2  0
 10  9  1  0
 10 12  2  0
 11 10  1  0
 12 13  1  0
 13  7  1  0
 13 14  2  0
 15 16  1  0
 15  2  1  0
 16 17  2  0
 17 19  1  0
 18 16  1  0
  1 20  1  0
  5 21  1  0
  8 22  1  0
  9 23  1  0
 11 24  1  0
 11 25  1  0
 15 26  1  0
 18 27  1  0
 18 28  1  0
M  ISO  4  20  14  21  14  22  14  23  14
M  END
>  <minimizedAffinity>  (1) 
-4.91783237

>  <minimizedRMSD>  (1) 
1.88266587

$$$$
