
     RDKit          3D

 20 20  0  0  0  0  0  0  0  0999 V2000
   38.6080   29.3120   42.5220 C   0  0  0  0  0  0  0  0  0  0  0  0
   37.8530   29.1510   41.3160 C   0  0  0  0  0  0  0  0  0  0  0  0
   37.3970   27.8610   41.0760 C   0  0  0  0  0  0  0  0  0  0  0  0
   37.6860   26.8680   41.9770 N   0  0  0  0  0  0  0  0  0  0  0  0
   38.3950   27.0770   43.0870 C   0  0  0  0  0  0  0  0  0  0  0  0
   38.8560   28.2960   43.3610 N   0  0  0  0  0  0  0  0  0  0  0  0
   37.6170   30.2490   40.4640 N   0  0  0  0  0  0  0  0  0  0  0  0
   36.7370   31.3200   40.7760 C   0  0  0  0  0  0  0  0  0  0  0  0
   35.6140   30.9820   41.3630 N   0  0  0  0  0  0  0  0  0  0  0  0
   37.1730   32.6530   40.4150 N   0  0  0  0  0  0  0  0  0  0  0  0
   34.9010   31.6790   41.6080 H   0  0  0  0  0  0  0  0  0  0  0  0
   36.6130   27.5810   39.8570 C   0  0  0  0  0  0  0  0  0  0  0  0
   36.3000   26.2370   39.7650 F   0  0  0  0  0  0  0  0  0  0  0  0
   37.2580   27.9540   38.7200 F   0  0  0  0  0  0  0  0  0  0  0  0
   35.3850   28.2300   39.9880 F   0  0  0  0  0  0  0  0  0  0  0  0
   39.0003   30.3093   42.7701 H   0  0  0  0  0  0  0  0  0  0  0  0
   38.5988   26.2436   43.7754 H   0  0  0  0  0  0  0  0  0  0  0  0
   38.1121   30.2765   39.5612 H   0  0  0  0  0  0  0  0  0  0  0  0
   36.5722   33.4643   40.6191 H   0  0  0  0  0  0  0  0  0  0  0  0
   38.0839   32.7897   39.9541 H   0  0  0  0  0  0  0  0  0  0  0  0
  1  6  2  0
  2  1  1  0
  3  2  2  0
  3  4  1  0
  4  5  2  0
  5  6  1  0
  7  8  1  0
  7  2  1  0
  8  9  2  0
  9 11  1  0
 10  8  1  0
 12 15  1  0
 12  3  1  0
 13 12  1  0
 14 12  1  0
  1 16  1  0
  5 17  1  0
  7 18  1  0
 10 19  1  0
 10 20  1  0
M  ISO  2  16  14  17  14
M  END
>  <minimizedAffinity>  (1) 
-4.57973528

>  <minimizedRMSD>  (1) 
0.479459614

$$$$
