
     RDKit          3D

 24 25  0  0  0  0  0  0  0  0999 V2000
   38.7340   29.5010   42.4760 C   0  0  0  0  0  0  0  0  0  0  0  0
   38.0330   29.3050   41.2410 C   0  0  0  0  0  0  0  0  0  0  0  0
   37.7310   27.9940   40.9720 C   0  0  0  0  0  0  0  0  0  0  0  0
   38.0860   27.0030   41.8310 N   0  0  0  0  0  0  0  0  0  0  0  0
   38.7380   27.2400   42.9680 C   0  0  0  0  0  0  0  0  0  0  0  0
   39.0580   28.4850   43.2820 N   0  0  0  0  0  0  0  0  0  0  0  0
   37.7370   30.4270   40.4520 N   0  0  0  0  0  0  0  0  0  0  0  0
   36.7370   31.3980   40.7590 C   0  0  0  0  0  0  0  0  0  0  0  0
   35.6520   30.9300   41.2920 N   0  0  0  0  0  0  0  0  0  0  0  0
   37.0730   32.7610   40.4350 N   0  0  0  0  0  0  0  0  0  0  0  0
   34.8700   31.5580   41.5750 H   0  0  0  0  0  0  0  0  0  0  0  0
   37.0040   27.6470   39.7400 C   0  0  0  0  0  0  0  0  0  0  0  0
   35.7460   27.8820   39.2910 C   0  0  0  0  0  0  0  0  0  0  0  0
   35.3900   27.4020   38.0700 C   0  0  0  0  0  0  0  0  0  0  0  0
   36.3480   26.6740   37.3110 C   0  0  0  0  0  0  0  0  0  0  0  0
   37.7560   26.7370   38.4650 S   0  0  0  0  0  0  0  0  0  0  0  0
   39.0150   30.5229   42.7706 H   0  0  0  0  0  0  0  0  0  0  0  0
   39.0073   26.4104   43.6382 H   0  0  0  0  0  0  0  0  0  0  0  0
   38.2814   30.5596   39.5878 H   0  0  0  0  0  0  0  0  0  0  0  0
   36.4006   33.5170   40.6280 H   0  0  0  0  0  0  0  0  0  0  0  0
   37.9856   32.9795   40.0104 H   0  0  0  0  0  0  0  0  0  0  0  0
   35.0286   28.4493   39.9022 H   0  0  0  0  0  0  0  0  0  0  0  0
   34.3777   27.5737   37.6753 H   0  0  0  0  0  0  0  0  0  0  0  0
   36.2633   26.2090   36.3177 H   0  0  0  0  0  0  0  0  0  0  0  0
  1  6  2  0
  2  1  1  0
  3  2  2  0
  3  4  1  0
  4  5  2  0
  5  6  1  0
  7  8  1  0
  7  2  1  0
  8  9  2  0
  9 11  1  0
 10  8  1  0
 12  3  1  0
 13 12  2  0
 14 13  1  0
 15 14  2  0
 15 16  1  0
 16 12  1  0
  1 17  1  0
  5 18  1  0
  7 19  1  0
 10 20  1  0
 10 21  1  0
 13 22  1  0
 14 23  1  0
 15 24  1  0
M  ISO  5  17  14  18  14  22  14  23  14  24  14
M  END
>  <minimizedAffinity>  (1) 
-4.53856421

>  <minimizedRMSD>  (1) 
0.826115608

$$$$
