
     RDKit          3D

 23 24  0  0  0  0  0  0  0  0999 V2000
   38.6280   29.3390   42.5730 C   0  0  0  0  0  0  0  0  0  0  0  0
   37.9090   29.1980   41.3440 C   0  0  0  0  0  0  0  0  0  0  0  0
   37.4670   27.9160   41.0950 C   0  0  0  0  0  0  0  0  0  0  0  0
   37.7090   26.9010   41.9550 N   0  0  0  0  0  0  0  0  0  0  0  0
   38.3930   27.0830   43.1040 C   0  0  0  0  0  0  0  0  0  0  0  0
   38.8420   28.3090   43.3920 N   0  0  0  0  0  0  0  0  0  0  0  0
   37.7170   30.3310   40.5230 N   0  0  0  0  0  0  0  0  0  0  0  0
   36.7710   31.3570   40.7810 C   0  0  0  0  0  0  0  0  0  0  0  0
   35.6150   30.9600   41.2710 N   0  0  0  0  0  0  0  0  0  0  0  0
   37.1850   32.7020   40.4780 N   0  0  0  0  0  0  0  0  0  0  0  0
   34.8710   31.6370   41.4960 H   0  0  0  0  0  0  0  0  0  0  0  0
   36.7530   27.7090   39.9030 N   0  0  0  0  0  0  0  0  0  0  0  0
   37.1270   26.8760   38.8990 C   0  0  0  0  0  0  0  0  0  0  0  0
   36.2210   26.9140   37.9080 N   0  0  0  0  0  0  0  0  0  0  0  0
   35.2780   27.7930   38.3240 C   0  0  0  0  0  0  0  0  0  0  0  0
   35.6280   28.2570   39.5360 N   0  0  0  0  0  0  0  0  0  0  0  0
   39.0169   30.3296   42.8512 H   0  0  0  0  0  0  0  0  0  0  0  0
   38.5770   26.2416   43.7882 H   0  0  0  0  0  0  0  0  0  0  0  0
   38.3029   30.4186   39.6804 H   0  0  0  0  0  0  0  0  0  0  0  0
   36.5413   33.4888   40.6442 H   0  0  0  0  0  0  0  0  0  0  0  0
   38.1249   32.8776   40.0950 H   0  0  0  0  0  0  0  0  0  0  0  0
   38.0384   26.2601   38.8970 H   0  0  0  0  0  0  0  0  0  0  0  0
   34.3760   28.0794   37.7633 H   0  0  0  0  0  0  0  0  0  0  0  0
  1  6  2  0
  2  1  1  0
  3  2  2  0
  3  4  1  0
  4  5  2  0
  5  6  1  0
  7  8  1  0
  7  2  1  0
  8  9  2  0
  9 11  1  0
 10  8  1  0
 12  3  1  0
 13 12  1  0
 14 15  1  0
 14 13  2  0
 15 16  2  0
 16 12  1  0
  1 17  1  0
  5 18  1  0
  7 19  1  0
 10 20  1  0
 10 21  1  0
 13 22  1  0
 15 23  1  0
M  ISO  4  17  14  18  14  22  14  23  14
M  END
>  <minimizedAffinity>  (1) 
-4.53817749

>  <minimizedRMSD>  (1) 
0.244303733

$$$$
