
     RDKit          3D

 23 24  0  0  0  0  0  0  0  0999 V2000
   38.7820   29.5320   42.5150 C   0  0  0  0  0  0  0  0  0  0  0  0
   38.0770   29.3350   41.2840 C   0  0  0  0  0  0  0  0  0  0  0  0
   37.7470   28.0210   40.9560 C   0  0  0  0  0  0  0  0  0  0  0  0
   38.1150   27.0230   41.8170 N   0  0  0  0  0  0  0  0  0  0  0  0
   38.7730   27.2420   42.9570 C   0  0  0  0  0  0  0  0  0  0  0  0
   39.0850   28.4910   43.2700 N   0  0  0  0  0  0  0  0  0  0  0  0
   37.7390   30.4360   40.4380 N   0  0  0  0  0  0  0  0  0  0  0  0
   36.7440   31.3910   40.7440 C   0  0  0  0  0  0  0  0  0  0  0  0
   35.6390   30.8920   41.2510 N   0  0  0  0  0  0  0  0  0  0  0  0
   37.0590   32.7750   40.4670 N   0  0  0  0  0  0  0  0  0  0  0  0
   34.8300   31.4850   41.4720 H   0  0  0  0  0  0  0  0  0  0  0  0
   37.0160   27.7210   39.7030 C   0  0  0  0  0  0  0  0  0  0  0  0
   36.4820   26.3890   39.5340 C   0  0  0  0  0  0  0  0  0  0  0  0
   35.6690   26.6170   37.8950 S   0  0  0  0  0  0  0  0  0  0  0  0
   36.1900   28.4430   37.7390 C   0  0  0  0  0  0  0  0  0  0  0  0
   36.8820   28.7240   38.8410 N   0  0  0  0  0  0  0  0  0  0  0  0
   39.0700   30.5457   42.8305 H   0  0  0  0  0  0  0  0  0  0  0  0
   39.0490   26.4080   43.6191 H   0  0  0  0  0  0  0  0  0  0  0  0
   38.2522   30.5396   39.5510 H   0  0  0  0  0  0  0  0  0  0  0  0
   36.3684   33.5113   40.6716 H   0  0  0  0  0  0  0  0  0  0  0  0
   37.9740   33.0245   40.0652 H   0  0  0  0  0  0  0  0  0  0  0  0
   36.5423   25.5054   40.1864 H   0  0  0  0  0  0  0  0  0  0  0  0
   35.9647   29.1265   36.9071 H   0  0  0  0  0  0  0  0  0  0  0  0
  1  6  2  0
  2  1  1  0
  3  2  2  0
  3  4  1  0
  4  5  2  0
  5  6  1  0
  7  8  1  0
  7  2  1  0
  8  9  2  0
  9 11  1  0
 10  8  1  0
 12  3  1  0
 13 12  2  0
 14 13  1  0
 15 14  1  0
 15 16  2  0
 16 12  1  0
  1 17  1  0
  5 18  1  0
  7 19  1  0
 10 20  1  0
 10 21  1  0
 13 22  1  0
 15 23  1  0
M  ISO  4  17  14  18  14  22  14  23  14
M  END
>  <minimizedAffinity>  (1) 
-4.53111362

>  <minimizedRMSD>  (1) 
0.36786595

$$$$
