
     RDKit          3D

 34 36  0  0  0  0  0  0  0  0999 V2000
   39.6010   27.9020   42.0600 C   0  0  0  0  0  0  0  0  0  0  0  0
   38.3590   27.4470   41.4820 C   0  0  0  0  0  0  0  0  0  0  0  0
   37.8350   28.3050   40.5370 C   0  0  0  0  0  0  0  0  0  0  0  0
   38.4320   29.4610   40.1890 N   0  0  0  0  0  0  0  0  0  0  0  0
   39.5920   29.8400   40.7590 C   0  0  0  0  0  0  0  0  0  0  0  0
   40.1650   29.0580   41.6880 N   0  0  0  0  0  0  0  0  0  0  0  0
   37.8290   26.2130   41.9310 N   0  0  0  0  0  0  0  0  0  0  0  0
   38.2950   24.9520   41.5180 C   0  0  0  0  0  0  0  0  0  0  0  0
   38.6820   24.8480   40.2640 N   0  0  0  0  0  0  0  0  0  0  0  0
   38.2820   23.9380   42.5460 N   0  0  0  0  0  0  0  0  0  0  0  0
   39.0120   23.9550   39.8770 H   0  0  0  0  0  0  0  0  0  0  0  0
   40.1040   31.1230   40.2890 C   0  0  0  0  0  0  0  0  0  0  0  0
   39.6980   32.3860   40.6320 C   0  0  0  0  0  0  0  0  0  0  0  0
   40.4580   33.3330   39.9380 C   0  0  0  0  0  0  0  0  0  0  0  0
   41.2980   32.5530   39.2030 C   0  0  0  0  0  0  0  0  0  0  0  0
   41.0740   31.2870   39.4230 O   0  0  0  0  0  0  0  0  0  0  0  0
   40.2200   34.7470   40.1190 C   0  0  0  0  0  0  0  0  0  0  0  0
   41.0920   35.6460   40.7170 C   0  0  0  0  0  0  0  0  0  0  0  0
   40.6080   36.8850   40.7160 N   0  0  0  0  0  0  0  0  0  0  0  0
   39.4100   36.8540   40.1240 C   0  0  0  0  0  0  0  0  0  0  0  0
   39.2210   35.5690   39.7870 N   0  0  0  0  0  0  0  0  0  0  0  0
   42.3230   33.1080   38.2850 C   0  0  0  0  0  0  0  0  0  0  0  0
   43.0260   32.0540   37.6650 F   0  0  0  0  0  0  0  0  0  0  0  0
   41.7280   33.8790   37.3280 F   0  0  0  0  0  0  0  0  0  0  0  0
   43.2980   33.8000   38.9760 F   0  0  0  0  0  0  0  0  0  0  0  0
   40.0958   27.2845   42.8241 H   0  0  0  0  0  0  0  0  0  0  0  0
   36.8887   28.0331   40.0466 H   0  0  0  0  0  0  0  0  0  0  0  0
   37.0505   26.2408   42.6048 H   0  0  0  0  0  0  0  0  0  0  0  0
   38.6063   22.9840   42.3325 H   0  0  0  0  0  0  0  0  0  0  0  0
   37.9484   24.1687   43.4928 H   0  0  0  0  0  0  0  0  0  0  0  0
   38.8947   32.6200   41.3461 H   0  0  0  0  0  0  0  0  0  0  0  0
   42.0677   35.3670   41.1415 H   0  0  0  0  0  0  0  0  0  0  0  0
   38.7271   37.6987   39.9507 H   0  0  0  0  0  0  0  0  0  0  0  0
   38.3698   35.2413   39.3084 H   0  0  0  0  0  0  0  0  0  0  0  0
  2  7  1  0
  2  1  2  0
  3  2  1  0
  4  3  2  0
  4  5  1  0
  5  6  2  0
  6  1  1  0
  8  7  1  0
  8 10  1  0
  9  8  2  0
 11  9  1  0
 12 13  2  0
 12  5  1  0
 14 17  1  0
 14 13  1  0
 15 16  1  0
 15 14  2  0
 16 12  1  0
 17 18  2  0
 19 18  1  0
 20 19  2  0
 21 17  1  0
 21 20  1  0
 22 25  1  0
 22 15  1  0
 23 22  1  0
 24 22  1  0
  1 26  1  0
  3 27  1  0
  7 28  1  0
 10 29  1  0
 10 30  1  0
 13 31  1  0
 18 32  1  0
 20 33  1  0
 21 34  1  0
M  ISO  6  26  14  27  14  31  14  32  14  33  14  34   9
M  END
>  <minimizedAffinity>  (1) 
-5.12164068

>  <minimizedRMSD>  (1) 
3.59068418

$$$$
