
     RDKit          3D

 26 26  0  0  0  0  0  0  0  0999 V2000
   38.2410   29.4020   42.7310 C   0  0  0  0  0  0  0  0  0  0  0  0
   37.8990   29.2050   41.3690 C   0  0  0  0  0  0  0  0  0  0  0  0
   37.7850   27.8760   40.9940 C   0  0  0  0  0  0  0  0  0  0  0  0
   37.9910   26.8780   41.8890 N   0  0  0  0  0  0  0  0  0  0  0  0
   38.3150   27.1220   43.1770 C   0  0  0  0  0  0  0  0  0  0  0  0
   38.4370   28.3900   43.5850 N   0  0  0  0  0  0  0  0  0  0  0  0
   37.7070   30.3240   40.5310 N   0  0  0  0  0  0  0  0  0  0  0  0
   36.7640   31.3570   40.7760 C   0  0  0  0  0  0  0  0  0  0  0  0
   35.6040   30.9680   41.2610 N   0  0  0  0  0  0  0  0  0  0  0  0
   37.1890   32.6890   40.4670 N   0  0  0  0  0  0  0  0  0  0  0  0
   34.8690   31.6510   41.4950 H   0  0  0  0  0  0  0  0  0  0  0  0
   37.4250   27.6150   39.5670 C   0  0  0  0  0  0  0  0  0  0  0  0
   38.2010   28.4920   38.6210 C   0  0  0  0  0  0  0  0  0  0  0  0
   35.9450   27.9680   39.3570 C   0  0  0  0  0  0  0  0  0  0  0  0
   38.3500   30.4318   43.1021 H   0  0  0  0  0  0  0  0  0  0  0  0
   38.4761   26.2911   43.8796 H   0  0  0  0  0  0  0  0  0  0  0  0
   38.2899   30.3963   39.6849 H   0  0  0  0  0  0  0  0  0  0  0  0
   36.5507   33.4823   40.6224 H   0  0  0  0  0  0  0  0  0  0  0  0
   38.1330   32.8538   40.0893 H   0  0  0  0  0  0  0  0  0  0  0  0
   37.6471   26.5570   39.3638 H   0  0  0  0  0  0  0  0  0  0  0  0
   38.8219   29.1937   39.1973 H   0  0  0  0  0  0  0  0  0  0  0  0
   38.8467   27.8664   37.9872 H   0  0  0  0  0  0  0  0  0  0  0  0
   37.5014   29.0567   37.9872 H   0  0  0  0  0  0  0  0  0  0  0  0
   35.4538   28.0852   40.3342 H   0  0  0  0  0  0  0  0  0  0  0  0
   35.8690   28.9095   38.7932 H   0  0  0  0  0  0  0  0  0  0  0  0
   35.4523   27.1622   38.7932 H   0  0  0  0  0  0  0  0  0  0  0  0
  1  6  2  0
  2  1  1  0
  3  2  2  0
  3  4  1  0
  4  5  2  0
  5  6  1  0
  7  8  1  0
  7  2  1  0
  8  9  2  0
  9 11  1  0
 10  8  1  0
 12  3  1  0
 13 12  1  0
 14 12  1  0
  1 15  1  0
  5 16  1  0
  7 17  1  0
 10 18  1  0
 10 19  1  0
 12 20  1  0
 13 21  1  0
 13 22  1  0
 13 23  1  0
 14 24  1  0
 14 25  1  0
 14 26  1  0
M  ISO  8  15  14  16  14  20   8  21   8  22   8  23   8  24   8  25   8
M  ISO  1  26   8
M  END
>  <minimizedAffinity>  (1) 
-4.33227301

>  <minimizedRMSD>  (1) 
0.5454337

$$$$
