
     RDKit          3D

 20 20  0  0  0  0  0  0  0  0999 V2000
   38.6580   29.2910   42.5280 C   0  0  0  0  0  0  0  0  0  0  0  0
   37.8750   29.1470   41.3370 C   0  0  0  0  0  0  0  0  0  0  0  0
   37.3990   27.8720   41.1290 C   0  0  0  0  0  0  0  0  0  0  0  0
   37.6770   26.8690   42.0120 N   0  0  0  0  0  0  0  0  0  0  0  0
   38.4140   27.0570   43.1120 C   0  0  0  0  0  0  0  0  0  0  0  0
   38.8940   28.2700   43.3530 N   0  0  0  0  0  0  0  0  0  0  0  0
   37.6660   30.2690   40.5130 N   0  0  0  0  0  0  0  0  0  0  0  0
   36.7430   31.3120   40.7900 C   0  0  0  0  0  0  0  0  0  0  0  0
   35.6040   30.9420   41.3210 N   0  0  0  0  0  0  0  0  0  0  0  0
   37.1860   32.6490   40.4470 N   0  0  0  0  0  0  0  0  0  0  0  0
   34.8750   31.6280   41.5660 H   0  0  0  0  0  0  0  0  0  0  0  0
   36.5830   27.6520   39.9200 C   0  0  0  0  0  0  0  0  0  0  0  0
   39.0792   30.2778   42.7705 H   0  0  0  0  0  0  0  0  0  0  0  0
   38.6176   26.2245   43.8015 H   0  0  0  0  0  0  0  0  0  0  0  0
   38.2216   30.3383   39.6485 H   0  0  0  0  0  0  0  0  0  0  0  0
   36.5695   33.4559   40.6194 H   0  0  0  0  0  0  0  0  0  0  0  0
   38.1173   32.7921   40.0309 H   0  0  0  0  0  0  0  0  0  0  0  0
   35.5595   27.3760   40.2137 H   0  0  0  0  0  0  0  0  0  0  0  0
   36.5567   28.5751   39.3224 H   0  0  0  0  0  0  0  0  0  0  0  0
   37.0243   26.8408   39.3224 H   0  0  0  0  0  0  0  0  0  0  0  0
  1  6  2  0
  2  1  1  0
  3  2  2  0
  3  4  1  0
  4  5  2  0
  5  6  1  0
  7  8  1  0
  7  2  1  0
  8  9  2  0
  9 11  1  0
 10  8  1  0
 12  3  1  0
  1 13  1  0
  5 14  1  0
  7 15  1  0
 10 16  1  0
 10 17  1  0
 12 18  1  0
 12 19  1  0
 12 20  1  0
M  ISO  5  13  14  14  14  18   8  19   8  20   8
M  END
>  <minimizedAffinity>  (1) 
-4.21781158

>  <minimizedRMSD>  (1) 
0.0444316082

$$$$
