
     RDKit          3D

 19 19  0  0  0  0  0  0  0  0999 V2000
   38.6610   29.2980   42.5140 C   0  0  0  0  0  0  0  0  0  0  0  0
   37.8790   29.1490   41.3290 C   0  0  0  0  0  0  0  0  0  0  0  0
   37.4000   27.8730   41.1220 C   0  0  0  0  0  0  0  0  0  0  0  0
   37.6680   26.8690   41.9890 N   0  0  0  0  0  0  0  0  0  0  0  0
   38.4100   27.0620   43.0920 C   0  0  0  0  0  0  0  0  0  0  0  0
   38.9040   28.2870   43.3470 N   0  0  0  0  0  0  0  0  0  0  0  0
   37.6580   30.2740   40.4820 N   0  0  0  0  0  0  0  0  0  0  0  0
   36.7390   31.3180   40.7770 C   0  0  0  0  0  0  0  0  0  0  0  0
   35.6070   30.9410   41.3270 N   0  0  0  0  0  0  0  0  0  0  0  0
   37.1690   32.6480   40.4340 N   0  0  0  0  0  0  0  0  0  0  0  0
   34.8620   31.6200   41.5410 H   0  0  0  0  0  0  0  0  0  0  0  0
   36.5980   27.6540   39.9340 C   0  0  0  0  0  0  0  0  0  0  0  0
   36.3500   26.4900   39.5650 O   0  0  0  0  0  0  0  0  0  0  0  0
   39.0799   30.2876   42.7489 H   0  0  0  0  0  0  0  0  0  0  0  0
   38.6115   26.2272   43.7794 H   0  0  0  0  0  0  0  0  0  0  0  0
   38.1953   30.3341   39.6053 H   0  0  0  0  0  0  0  0  0  0  0  0
   36.5531   33.4524   40.6199 H   0  0  0  0  0  0  0  0  0  0  0  0
   38.0926   32.7954   40.0026 H   0  0  0  0  0  0  0  0  0  0  0  0
   36.2109   28.5102   39.3620 H   0  0  0  0  0  0  0  0  0  0  0  0
  1  6  2  0
  2  1  1  0
  3  2  2  0
  3  4  1  0
  4  5  2  0
  5  6  1  0
  7  8  1  0
  7  2  1  0
  8  9  2  0
  9 11  1  0
 10  8  1  0
 12  3  1  0
 13 12  2  0
  1 14  1  0
  5 15  1  0
  7 16  1  0
 10 17  1  0
 10 18  1  0
 12 19  1  0
M  ISO  3  14  14  15  14  19   6
M  END
>  <minimizedAffinity>  (1) 
-4.14456415

>  <minimizedRMSD>  (1) 
0.0506524146

$$$$
