
     RDKit          3D

 19 19  0  0  0  0  0  0  0  0999 V2000
   38.6560   29.2900   42.5020 C   0  0  0  0  0  0  0  0  0  0  0  0
   37.8800   29.1490   41.3180 C   0  0  0  0  0  0  0  0  0  0  0  0
   37.4080   27.8680   41.1140 C   0  0  0  0  0  0  0  0  0  0  0  0
   37.6720   26.8570   41.9720 N   0  0  0  0  0  0  0  0  0  0  0  0
   38.4190   27.0570   43.0850 C   0  0  0  0  0  0  0  0  0  0  0  0
   38.9070   28.2850   43.3380 N   0  0  0  0  0  0  0  0  0  0  0  0
   37.6620   30.2700   40.4850 N   0  0  0  0  0  0  0  0  0  0  0  0
   36.7470   31.3150   40.7800 C   0  0  0  0  0  0  0  0  0  0  0  0
   35.6050   30.9440   41.3180 N   0  0  0  0  0  0  0  0  0  0  0  0
   37.1870   32.6470   40.4520 N   0  0  0  0  0  0  0  0  0  0  0  0
   34.8870   31.6350   41.5820 H   0  0  0  0  0  0  0  0  0  0  0  0
   36.6370   27.6490   39.9710 N   0  0  0  0  0  0  0  0  0  0  0  0
   39.0702   30.2811   42.7390 H   0  0  0  0  0  0  0  0  0  0  0  0
   38.6241   26.2244   43.7740 H   0  0  0  0  0  0  0  0  0  0  0  0
   38.2005   30.3328   39.6093 H   0  0  0  0  0  0  0  0  0  0  0  0
   36.5734   33.4528   40.6392 H   0  0  0  0  0  0  0  0  0  0  0  0
   38.1152   32.7935   40.0303 H   0  0  0  0  0  0  0  0  0  0  0  0
   36.2620   26.7100   39.7749 H   0  0  0  0  0  0  0  0  0  0  0  0
   36.4432   28.4265   39.3238 H   0  0  0  0  0  0  0  0  0  0  0  0
  1  6  2  0
  2  1  1  0
  3  2  2  0
  3  4  1  0
  4  5  2  0
  5  6  1  0
  7  8  1  0
  7  2  1  0
  8  9  2  0
  9 11  1  0
 10  8  1  0
 12  3  1  0
  1 13  1  0
  5 14  1  0
  7 15  1  0
 10 16  1  0
 10 17  1  0
 12 18  1  0
 12 19  1  0
M  ISO  2  13  14  14  14
M  END
>  <minimizedAffinity>  (1) 
-4.13111019

>  <minimizedRMSD>  (1) 
0.0320976004

$$$$
