
     RDKit          3D

 40 42  0  0  0  0  0  0  0  0999 V2000
   38.7510   28.0960   40.6970 C   0  0  0  0  0  0  0  0  0  0  0  0
   38.9340   27.8020   42.0890 C   0  0  0  0  0  0  0  0  0  0  0  0
   39.7170   28.7200   42.7500 C   0  0  0  0  0  0  0  0  0  0  0  0
   40.2570   29.7930   42.1420 N   0  0  0  0  0  0  0  0  0  0  0  0
   40.0500   30.0220   40.8150 C   0  0  0  0  0  0  0  0  0  0  0  0
   39.3050   29.1770   40.1180 N   0  0  0  0  0  0  0  0  0  0  0  0
   38.3060   26.6400   42.5940 N   0  0  0  0  0  0  0  0  0  0  0  0
   36.9170   26.5140   42.8330 C   0  0  0  0  0  0  0  0  0  0  0  0
   36.2880   27.6000   43.2520 N   0  0  0  0  0  0  0  0  0  0  0  0
   36.3790   25.2070   42.5850 N   0  0  0  0  0  0  0  0  0  0  0  0
   35.2860   27.5740   43.4590 H   0  0  0  0  0  0  0  0  0  0  0  0
   40.7100   31.2310   40.3180 C   0  0  0  0  0  0  0  0  0  0  0  0
   40.8240   32.4600   40.9270 C   0  0  0  0  0  0  0  0  0  0  0  0
   41.5300   33.3160   40.0970 C   0  0  0  0  0  0  0  0  0  0  0  0
   41.8110   32.5350   39.0040 C   0  0  0  0  0  0  0  0  0  0  0  0
   41.3290   31.3480   39.1610 O   0  0  0  0  0  0  0  0  0  0  0  0
   41.8290   34.6690   40.4220 N   0  0  0  0  0  0  0  0  0  0  0  0
   42.9100   35.2210   41.2210 C   0  0  0  0  0  0  0  0  0  0  0  0
   42.3450   36.1820   42.2510 C   0  0  0  0  0  0  0  0  0  0  0  0
   41.6200   37.1770   41.6070 O   0  0  0  0  0  0  0  0  0  0  0  0
   40.5040   36.6630   40.9680 C   0  0  0  0  0  0  0  0  0  0  0  0
   40.9400   35.6860   39.8910 C   0  0  0  0  0  0  0  0  0  0  0  0
   42.5690   33.0380   37.8300 C   0  0  0  0  0  0  0  0  0  0  0  0
   42.7480   31.9990   36.9060 F   0  0  0  0  0  0  0  0  0  0  0  0
   41.8630   34.0620   37.2300 F   0  0  0  0  0  0  0  0  0  0  0  0
   43.8320   33.4420   38.1810 F   0  0  0  0  0  0  0  0  0  0  0  0
   38.1394   27.4173   40.0844 H   0  0  0  0  0  0  0  0  0  0  0  0
   39.9104   28.5707   43.8225 H   0  0  0  0  0  0  0  0  0  0  0  0
   38.9026   25.8268   42.8029 H   0  0  0  0  0  0  0  0  0  0  0  0
   35.3759   25.0263   42.7333 H   0  0  0  0  0  0  0  0  0  0  0  0
   36.9960   24.4495   42.2587 H   0  0  0  0  0  0  0  0  0  0  0  0
   40.4189   32.7213   41.9158 H   0  0  0  0  0  0  0  0  0  0  0  0
   43.4393   34.4046   41.7341 H   0  0  0  0  0  0  0  0  0  0  0  0
   43.6097   35.7597   40.5651 H   0  0  0  0  0  0  0  0  0  0  0  0
   41.6848   35.6347   42.9399 H   0  0  0  0  0  0  0  0  0  0  0  0
   43.1697   36.6380   42.8184 H   0  0  0  0  0  0  0  0  0  0  0  0
   39.8701   36.1418   41.7005 H   0  0  0  0  0  0  0  0  0  0  0  0
   39.9351   37.4845   40.5080 H   0  0  0  0  0  0  0  0  0  0  0  0
   41.4637   36.2393   39.0976 H   0  0  0  0  0  0  0  0  0  0  0  0
   40.0433   35.1871   39.4949 H   0  0  0  0  0  0  0  0  0  0  0  0
  1  2  2  0
  2  7  1  0
  2  3  1  0
  4  3  2  0
  5  4  1  0
  6  1  1  0
  6  5  2  0
  7  8  1  0
  8  9  2  0
  9 11  1  0
 10  8  1  0
 12  5  1  0
 12 13  2  0
 14 17  1  0
 14 13  1  0
 15 16  1  0
 15 14  2  0
 16 12  1  0
 17 18  1  0
 18 19  1  0
 20 19  1  0
 21 20  1  0
 22 17  1  0
 22 21  1  0
 23 26  1  0
 23 15  1  0
 24 23  1  0
 25 23  1  0
  1 27  1  0
  3 28  1  0
  7 29  1  0
 10 30  1  0
 10 31  1  0
 13 32  1  0
 18 33  1  0
 18 34  1  0
 19 35  1  0
 19 36  1  0
 21 37  1  0
 21 38  1  0
 22 39  1  0
 22 40  1  0
M  ISO  8  27  14  28  14  32  14  33  13  34  13  35  13  36  13  37  13
M  ISO  3  38  13  39  13  40  13
M  END
>  <minimizedAffinity>  (1) 
-5.08256865

>  <minimizedRMSD>  (1) 
3.96883345

$$$$
