
     RDKit          3D

 40 42  0  0  1  0  0  0  0  0999 V2000
   36.7790   27.5680   39.8990 C   0  0  2  0  0  0  0  0  0  0  0  0
   36.7510   26.0780   39.7370 C   0  0  0  0  0  0  0  0  0  0  0  0
   35.9720   25.9300   38.4430 C   0  0  0  0  0  0  0  0  0  0  0  0
   36.1890   27.2160   37.6830 C   0  0  0  0  0  0  0  0  0  0  0  0
   37.1970   28.0270   38.5560 C   0  0  2  0  0  0  0  0  0  0  0  0
   38.4640   27.9100   38.0280 N   0  0  0  0  0  0  0  0  0  0  0  0
   39.3920   26.9640   37.8280 C   0  0  0  0  0  0  0  0  0  0  0  0
   40.6380   27.0660   37.2570 C   0  0  0  0  0  0  0  0  0  0  0  0
   40.9650   28.3350   36.8320 C   0  0  0  0  0  0  0  0  0  0  0  0
   42.1050   28.4660   36.3000 O   0  0  0  0  0  0  0  0  0  0  0  0
   40.0890   29.3400   36.9960 N   0  0  0  0  0  0  0  0  0  0  0  0
   38.8890   29.1390   37.5690 C   0  0  0  0  0  0  0  0  0  0  0  0
   38.2500   30.2490   37.6060 O   0  0  0  0  0  0  0  0  0  0  0  0
   38.5270   29.3360   42.6930 C   0  0  0  0  0  0  0  0  0  0  0  0
   37.8970   29.2310   41.4090 C   0  0  0  0  0  0  0  0  0  0  0  0
   37.5160   27.9670   41.0520 C   0  0  0  0  0  0  0  0  0  0  0  0
   37.7620   26.9420   41.9330 N   0  0  0  0  0  0  0  0  0  0  0  0
   38.3460   27.0810   43.1100 C   0  0  0  0  0  0  0  0  0  0  0  0
   38.7300   28.3080   43.4840 N   0  0  0  0  0  0  0  0  0  0  0  0
   37.7060   30.3640   40.5770 N   0  0  0  0  0  0  0  0  0  0  0  0
   36.7650   31.3810   40.8130 C   0  0  0  0  0  0  0  0  0  0  0  0
   35.6000   30.9620   41.2570 N   0  0  0  0  0  0  0  0  0  0  0  0
   37.1870   32.7390   40.5450 N   0  0  0  0  0  0  0  0  0  0  0  0
   34.8300   31.6190   41.4480 H   0  0  0  0  0  0  0  0  0  0  0  0
   35.8279   28.0598   40.1510 H   0  0  0  0  0  0  0  0  0  0  0  0
   37.7661   25.6645   39.6446 H   0  0  0  0  0  0  0  0  0  0  0  0
   36.3100   25.5419   40.5903 H   0  0  0  0  0  0  0  0  0  0  0  0
   36.3500   25.0745   37.8641 H   0  0  0  0  0  0  0  0  0  0  0  0
   34.9040   25.7467   38.6321 H   0  0  0  0  0  0  0  0  0  0  0  0
   36.6134   27.0122   36.6889 H   0  0  0  0  0  0  0  0  0  0  0  0
   35.2499   27.7635   37.5148 H   0  0  0  0  0  0  0  0  0  0  0  0
   37.2074   29.1262   38.5980 H   0  0  0  0  0  0  0  0  0  0  0  0
   39.1154   25.9564   38.1719 H   0  0  0  0  0  0  0  0  0  0  0  0
   41.3167   26.2071   37.1485 H   0  0  0  0  0  0  0  0  0  0  0  0
   40.3420   30.2857   36.6758 H   0  0  0  0  0  0  0  0  0  0  0  0
   38.8571   30.3288   43.0326 H   0  0  0  0  0  0  0  0  0  0  0  0
   38.5122   26.2127   43.7646 H   0  0  0  0  0  0  0  0  0  0  0  0
   38.2998   30.4474   39.7395 H   0  0  0  0  0  0  0  0  0  0  0  0
   36.5354   33.5212   40.7015 H   0  0  0  0  0  0  0  0  0  0  0  0
   38.1390   32.9234   40.1978 H   0  0  0  0  0  0  0  0  0  0  0  0
  1 16  1  0
  2  1  1  0
  3  2  1  0
  4  3  1  0
  4  5  1  0
  5  1  1  0
  6  5  1  0
  7  6  1  0
  8  7  2  0
  9 11  1  0
  9  8  1  0
 10  9  2  0
 11 12  1  0
 12 13  2  0
 12  6  1  0
 14 19  2  0
 15 14  1  0
 16 15  2  0
 16 17  1  0
 17 18  2  0
 18 19  1  0
 20 21  1  0
 20 15  1  0
 21 22  2  0
 22 24  1  0
 23 21  1  0
  1 25  1  1
  2 26  1  0
  2 27  1  0
  3 28  1  0
  3 29  1  0
  4 30  1  0
  4 31  1  0
  5 32  1  1
  7 33  1  0
  8 34  1  0
 11 35  1  0
 14 36  1  0
 18 37  1  0
 20 38  1  0
 23 39  1  0
 23 40  1  0
M  ISO  8  25  13  26  13  27  13  28  13  29  13  30  13  31  13  32  13
M  ISO  5  33  14  34  14  35   9  36  14  37  14
M  END
>  <minimizedAffinity>  (1) 
-5.71845818

>  <minimizedRMSD>  (1) 
1.66045105

$$$$
