
     RDKit          3D

 41 44  0  0  1  0  0  0  0  0999 V2000
   36.8840   27.5680   39.8290 C   0  0  2  0  0  0  0  0  0  0  0  0
   36.5550   26.0970   39.7630 C   0  0  0  0  0  0  0  0  0  0  0  0
   36.0250   25.9880   38.3440 C   0  0  0  0  0  0  0  0  0  0  0  0
   36.7040   27.0610   37.5730 C   0  0  0  0  0  0  0  0  0  0  0  0
   37.7270   27.7070   38.5800 C   0  0  1  0  0  0  0  0  0  0  0  0
   37.8730   29.0180   38.0380 N   0  0  0  0  0  0  0  0  0  0  0  0
   36.9370   29.7000   37.3360 C   0  0  0  0  0  0  0  0  0  0  0  0
   37.4520   30.8920   36.9670 N   0  0  0  0  0  0  0  0  0  0  0  0
   38.7040   30.9150   37.4560 C   0  0  0  0  0  0  0  0  0  0  0  0
   39.6740   31.9100   37.3650 C   0  0  0  0  0  0  0  0  0  0  0  0
   40.9000   31.7400   37.9370 N   0  0  0  0  0  0  0  0  0  0  0  0
   41.1270   30.5870   38.5840 C   0  0  0  0  0  0  0  0  0  0  0  0
   40.2270   29.5680   38.7150 N   0  0  0  0  0  0  0  0  0  0  0  0
   39.0220   29.7420   38.1500 C   0  0  0  0  0  0  0  0  0  0  0  0
   38.3460   29.1990   42.8670 C   0  0  0  0  0  0  0  0  0  0  0  0
   37.8430   29.1370   41.5090 C   0  0  0  0  0  0  0  0  0  0  0  0
   37.5230   27.8920   41.0720 C   0  0  0  0  0  0  0  0  0  0  0  0
   37.7020   26.8240   41.9340 N   0  0  0  0  0  0  0  0  0  0  0  0
   38.1630   26.9220   43.1650 C   0  0  0  0  0  0  0  0  0  0  0  0
   38.4920   28.1440   43.6410 N   0  0  0  0  0  0  0  0  0  0  0  0
   37.7800   30.3110   40.7630 N   0  0  0  0  0  0  0  0  0  0  0  0
   36.7250   31.2710   40.8590 C   0  0  0  0  0  0  0  0  0  0  0  0
   35.5370   30.8010   41.0790 N   0  0  0  0  0  0  0  0  0  0  0  0
   37.1220   32.6660   40.7140 N   0  0  0  0  0  0  0  0  0  0  0  0
   34.7200   31.4210   41.1700 H   0  0  0  0  0  0  0  0  0  0  0  0
   36.0409   28.2745   39.8319 H   0  0  0  0  0  0  0  0  0  0  0  0
   37.4502   25.4749   39.9098 H   0  0  0  0  0  0  0  0  0  0  0  0
   35.8556   25.7512   40.5385 H   0  0  0  0  0  0  0  0  0  0  0  0
   36.2653   25.0017   37.9204 H   0  0  0  0  0  0  0  0  0  0  0  0
   34.9309   26.0975   38.3117 H   0  0  0  0  0  0  0  0  0  0  0  0
   37.2314   26.6381   36.7053 H   0  0  0  0  0  0  0  0  0  0  0  0
   35.9904   27.8003   37.1804 H   0  0  0  0  0  0  0  0  0  0  0  0
   38.7424   27.3236   38.7587 H   0  0  0  0  0  0  0  0  0  0  0  0
   35.9232   29.3414   37.1044 H   0  0  0  0  0  0  0  0  0  0  0  0
   39.4489   32.8423   36.8263 H   0  0  0  0  0  0  0  0  0  0  0  0
   42.1162   30.4515   39.0456 H   0  0  0  0  0  0  0  0  0  0  0  0
   38.6213   30.1832   43.2739 H   0  0  0  0  0  0  0  0  0  0  0  0
   38.2779   26.0264   43.7932 H   0  0  0  0  0  0  0  0  0  0  0  0
   38.5437   30.5002   40.0983 H   0  0  0  0  0  0  0  0  0  0  0  0
   36.4139   33.4117   40.7722 H   0  0  0  0  0  0  0  0  0  0  0  0
   38.1107   32.9061   40.5534 H   0  0  0  0  0  0  0  0  0  0  0  0
  1 17  1  0
  2  1  1  0
  3  2  1  0
  4  3  1  0
  4  5  1  0
  5  1  1  0
  6 14  1  0
  6  5  1  0
  7  6  1  0
  8  7  2  0
  8  9  1  0
  9 14  2  0
 10  9  1  0
 10 11  2  0
 11 12  1  0
 12 13  2  0
 14 13  1  0
 15 20  2  0
 16 15  1  0
 17 16  2  0
 17 18  1  0
 18 19  2  0
 19 20  1  0
 21 22  1  0
 21 16  1  0
 22 23  2  0
 23 25  1  0
 24 22  1  0
  1 26  1  6
  2 27  1  0
  2 28  1  0
  3 29  1  0
  3 30  1  0
  4 31  1  0
  4 32  1  0
  5 33  1  1
  7 34  1  0
 10 35  1  0
 12 36  1  0
 15 37  1  0
 19 38  1  0
 21 39  1  0
 24 40  1  0
 24 41  1  0
M  ISO  8  26  13  27  13  28  13  29  13  30  13  31  13  32  13  33  13
M  ISO  5  34  14  35  14  36  14  37  14  38  14
M  END
>  <minimizedAffinity>  (1) 
-5.69778585

>  <minimizedRMSD>  (1) 
0.60836488

$$$$
