
     RDKit          3D

 38 40  0  0  1  0  0  0  0  0999 V2000
   36.9290   27.6120   39.8710 C   0  0  2  0  0  0  0  0  0  0  0  0
   36.5760   26.1510   39.8010 C   0  0  0  0  0  0  0  0  0  0  0  0
   36.1020   26.0430   38.3620 C   0  0  0  0  0  0  0  0  0  0  0  0
   36.8730   27.0720   37.6120 C   0  0  0  0  0  0  0  0  0  0  0  0
   37.8440   27.7120   38.6620 C   0  0  1  0  0  0  0  0  0  0  0  0
   38.2650   29.2620   42.9550 C   0  0  0  0  0  0  0  0  0  0  0  0
   37.8250   29.1890   41.5740 C   0  0  0  0  0  0  0  0  0  0  0  0
   37.5120   27.9420   41.1390 C   0  0  0  0  0  0  0  0  0  0  0  0
   37.6340   26.8770   42.0170 N   0  0  0  0  0  0  0  0  0  0  0  0
   38.0420   26.9940   43.2730 C   0  0  0  0  0  0  0  0  0  0  0  0
   38.3630   28.2160   43.7480 N   0  0  0  0  0  0  0  0  0  0  0  0
   37.8160   30.3560   40.8170 N   0  0  0  0  0  0  0  0  0  0  0  0
   36.7860   31.3480   40.8790 C   0  0  0  0  0  0  0  0  0  0  0  0
   35.5820   30.9150   41.0840 N   0  0  0  0  0  0  0  0  0  0  0  0
   37.2080   32.7290   40.7210 N   0  0  0  0  0  0  0  0  0  0  0  0
   34.7780   31.5560   41.1560 H   0  0  0  0  0  0  0  0  0  0  0  0
   38.0350   29.0570   38.1060 C   0  0  0  0  0  0  0  0  0  0  0  0
   36.9450   29.6720   37.5030 C   0  0  0  0  0  0  0  0  0  0  0  0
   37.2180   30.9480   37.0170 C   0  0  0  0  0  0  0  0  0  0  0  0
   38.4320   31.5400   37.1220 N   0  0  0  0  0  0  0  0  0  0  0  0
   39.4160   30.8440   37.7280 C   0  0  0  0  0  0  0  0  0  0  0  0
   39.2830   29.5990   38.2410 N   0  0  0  0  0  0  0  0  0  0  0  0
   36.1007   28.3344   39.8260 H   0  0  0  0  0  0  0  0  0  0  0  0
   37.4525   25.5131   39.9877 H   0  0  0  0  0  0  0  0  0  0  0  0
   35.8395   25.8234   40.5495 H   0  0  0  0  0  0  0  0  0  0  0  0
   36.3104   25.0394   37.9627 H   0  0  0  0  0  0  0  0  0  0  0  0
   35.0170   26.2026   38.2763 H   0  0  0  0  0  0  0  0  0  0  0  0
   37.4430   26.6059   36.7947 H   0  0  0  0  0  0  0  0  0  0  0  0
   36.2135   27.8236   37.1535 H   0  0  0  0  0  0  0  0  0  0  0  0
   38.8408   27.3084   38.8932 H   0  0  0  0  0  0  0  0  0  0  0  0
   38.5320   30.2482   43.3625 H   0  0  0  0  0  0  0  0  0  0  0  0
   38.1179   26.1071   43.9193 H   0  0  0  0  0  0  0  0  0  0  0  0
   38.6012   30.5166   40.1701 H   0  0  0  0  0  0  0  0  0  0  0  0
   36.5120   33.4874   40.7564 H   0  0  0  0  0  0  0  0  0  0  0  0
   38.2032   32.9497   40.5736 H   0  0  0  0  0  0  0  0  0  0  0  0
   35.9575   29.1950   37.4174 H   0  0  0  0  0  0  0  0  0  0  0  0
   36.4071   31.5033   36.5229 H   0  0  0  0  0  0  0  0  0  0  0  0
   40.4016   31.3253   37.8114 H   0  0  0  0  0  0  0  0  0  0  0  0
  1  8  1  0
  2  1  1  0
  3  2  1  0
  4  3  1  0
  4  5  1  0
  5  1  1  0
  6 11  2  0
  7  6  1  0
  8  7  2  0
  8  9  1  0
  9 10  2  0
 10 11  1  0
 12 13  1  0
 12  7  1  0
 13 14  2  0
 14 16  1  0
 15 13  1  0
 17 22  1  0
 17  5  1  0
 18 17  2  0
 19 20  2  0
 19 18  1  0
 20 21  1  0
 21 22  2  0
  1 23  1  6
  2 24  1  0
  2 25  1  0
  3 26  1  0
  3 27  1  0
  4 28  1  0
  4 29  1  0
  5 30  1  1
  6 31  1  0
 10 32  1  0
 12 33  1  0
 15 34  1  0
 15 35  1  0
 18 36  1  0
 19 37  1  0
 21 38  1  0
M  ISO  8  23  13  24  13  25  13  26  13  27  13  28  13  29  13  30  13
M  ISO  5  31  14  32  14  36  14  37  14  38  14
M  END
>  <minimizedAffinity>  (1) 
-5.26351929

>  <minimizedRMSD>  (1) 
0.700327814

$$$$
