
     RDKit          3D

 43 45  0  0  1  0  0  0  0  0999 V2000
   36.9880   27.5180   39.7810 C   0  0  2  0  0  0  0  0  0  0  0  0
   36.5520   26.0800   39.8720 C   0  0  0  0  0  0  0  0  0  0  0  0
   36.0640   25.8260   38.4590 C   0  0  0  0  0  0  0  0  0  0  0  0
   36.7240   26.8400   37.5960 C   0  0  0  0  0  0  0  0  0  0  0  0
   37.8320   27.4590   38.5380 C   0  0  1  0  0  0  0  0  0  0  0  0
   38.4580   29.3400   42.7100 C   0  0  0  0  0  0  0  0  0  0  0  0
   37.9010   29.2020   41.3840 C   0  0  0  0  0  0  0  0  0  0  0  0
   37.6490   27.9250   40.9930 C   0  0  0  0  0  0  0  0  0  0  0  0
   37.9420   26.8960   41.8720 N   0  0  0  0  0  0  0  0  0  0  0  0
   38.4530   27.0640   43.0790 C   0  0  0  0  0  0  0  0  0  0  0  0
   38.7140   28.3160   43.5010 N   0  0  0  0  0  0  0  0  0  0  0  0
   37.7160   30.3380   40.5970 N   0  0  0  0  0  0  0  0  0  0  0  0
   36.7250   31.3380   40.8480 C   0  0  0  0  0  0  0  0  0  0  0  0
   35.5920   30.9110   41.3170 N   0  0  0  0  0  0  0  0  0  0  0  0
   37.1190   32.7100   40.5550 N   0  0  0  0  0  0  0  0  0  0  0  0
   34.8260   31.5560   41.5530 H   0  0  0  0  0  0  0  0  0  0  0  0
   38.3600   28.5970   37.9540 N   0  0  0  0  0  0  0  0  0  0  0  0
   39.5520   29.1500   38.5170 C   0  0  0  0  0  0  0  0  0  0  0  0
   40.0070   30.3560   37.7210 C   0  0  0  0  0  0  0  0  0  0  0  0
   39.0210   31.3070   37.5910 O   0  0  0  0  0  0  0  0  0  0  0  0
   37.8750   30.8100   37.0220 C   0  0  0  0  0  0  0  0  0  0  0  0
   37.3650   29.6410   37.8370 C   0  0  0  0  0  0  0  0  0  0  0  0
   36.2020   28.2833   39.6994 H   0  0  0  0  0  0  0  0  0  0  0  0
   37.3929   25.4202   40.1321 H   0  0  0  0  0  0  0  0  0  0  0  0
   35.7986   25.8866   40.6498 H   0  0  0  0  0  0  0  0  0  0  0  0
   36.3442   24.8123   38.1366 H   0  0  0  0  0  0  0  0  0  0  0  0
   34.9685   25.9030   38.3966 H   0  0  0  0  0  0  0  0  0  0  0  0
   37.1778   26.3687   36.7118 H   0  0  0  0  0  0  0  0  0  0  0  0
   36.0232   27.5928   37.2057 H   0  0  0  0  0  0  0  0  0  0  0  0
   38.7851   26.9504   38.7451 H   0  0  0  0  0  0  0  0  0  0  0  0
   38.6802   30.3521   43.0792 H   0  0  0  0  0  0  0  0  0  0  0  0
   38.6609   26.1989   43.7258 H   0  0  0  0  0  0  0  0  0  0  0  0
   38.3330   30.4652   39.7821 H   0  0  0  0  0  0  0  0  0  0  0  0
   36.4547   33.4813   40.7122 H   0  0  0  0  0  0  0  0  0  0  0  0
   38.0618   32.9085   40.1907 H   0  0  0  0  0  0  0  0  0  0  0  0
   39.3537   29.4556   39.5549 H   0  0  0  0  0  0  0  0  0  0  0  0
   40.3443   28.3874   38.4900 H   0  0  0  0  0  0  0  0  0  0  0  0
   40.8693   30.8100   38.2313 H   0  0  0  0  0  0  0  0  0  0  0  0
   40.2700   30.0086   36.7110 H   0  0  0  0  0  0  0  0  0  0  0  0
   37.1087   31.5987   36.9950 H   0  0  0  0  0  0  0  0  0  0  0  0
   38.0941   30.4719   35.9984 H   0  0  0  0  0  0  0  0  0  0  0  0
   37.1008   29.9964   38.8439 H   0  0  0  0  0  0  0  0  0  0  0  0
   36.4865   29.2222   37.3243 H   0  0  0  0  0  0  0  0  0  0  0  0
  1  2  1  0
  1  8  1  0
  3  2  1  0
  4  3  1  0
  4  5  1  0
  5  1  1  0
  6 11  2  0
  7  6  1  0
  8  7  2  0
  8  9  1  0
  9 10  2  0
 10 11  1  0
 12 13  1  0
 12  7  1  0
 13 14  2  0
 14 16  1  0
 15 13  1  0
 17 18  1  0
 17  5  1  0
 19 18  1  0
 20 19  1  0
 21 20  1  0
 21 22  1  0
 22 17  1  0
  1 23  1  6
  2 24  1  0
  2 25  1  0
  3 26  1  0
  3 27  1  0
  4 28  1  0
  4 29  1  0
  5 30  1  1
  6 31  1  0
 10 32  1  0
 12 33  1  0
 15 34  1  0
 15 35  1  0
 18 36  1  0
 18 37  1  0
 19 38  1  0
 19 39  1  0
 21 40  1  0
 21 41  1  0
 22 42  1  0
 22 43  1  0
M  ISO  8  23  13  24  13  25  13  26  13  27  13  28  13  29  13  30  13
M  ISO  8  31  14  32  14  36  13  37  13  38  13  39  13  40  13  41  13
M  ISO  2  42  13  43  13
M  END
>  <minimizedAffinity>  (1) 
-5.26185083

>  <minimizedRMSD>  (1) 
0.334068537

$$$$
