
     RDKit          3D

 40 42  0  0  1  0  0  0  0  0999 V2000
   36.9270   27.5650   39.8840 C   0  0  2  0  0  0  0  0  0  0  0  0
   36.5740   26.1060   39.7880 C   0  0  0  0  0  0  0  0  0  0  0  0
   36.1180   26.0070   38.3450 C   0  0  0  0  0  0  0  0  0  0  0  0
   36.8890   27.0520   37.6160 C   0  0  0  0  0  0  0  0  0  0  0  0
   37.8290   27.6980   38.6810 C   0  0  1  0  0  0  0  0  0  0  0  0
   38.0810   29.0250   38.1390 C   0  0  0  0  0  0  0  0  0  0  0  0
   37.0110   29.7200   37.5740 C   0  0  0  0  0  0  0  0  0  0  0  0
   37.2030   30.9890   37.0620 C   0  0  0  0  0  0  0  0  0  0  0  0
   38.4590   31.5460   37.1230 C   0  0  0  0  0  0  0  0  0  0  0  0
   39.5410   30.8650   37.6850 C   0  0  0  0  0  0  0  0  0  0  0  0
   39.3520   29.5910   38.1990 C   0  0  0  0  0  0  0  0  0  0  0  0
   38.2070   29.1710   43.0100 C   0  0  0  0  0  0  0  0  0  0  0  0
   37.7880   29.1170   41.6240 C   0  0  0  0  0  0  0  0  0  0  0  0
   37.4890   27.8810   41.1610 C   0  0  0  0  0  0  0  0  0  0  0  0
   37.6040   26.7990   42.0210 N   0  0  0  0  0  0  0  0  0  0  0  0
   37.9920   26.8970   43.2860 C   0  0  0  0  0  0  0  0  0  0  0  0
   38.2990   28.1070   43.7850 N   0  0  0  0  0  0  0  0  0  0  0  0
   37.7850   30.2980   40.8850 N   0  0  0  0  0  0  0  0  0  0  0  0
   36.7240   31.2590   40.9060 C   0  0  0  0  0  0  0  0  0  0  0  0
   35.5220   30.7890   41.0350 N   0  0  0  0  0  0  0  0  0  0  0  0
   37.1200   32.6530   40.7940 N   0  0  0  0  0  0  0  0  0  0  0  0
   34.6990   31.4070   41.0620 H   0  0  0  0  0  0  0  0  0  0  0  0
   36.0994   28.2888   39.8491 H   0  0  0  0  0  0  0  0  0  0  0  0
   37.4483   25.4664   39.9792 H   0  0  0  0  0  0  0  0  0  0  0  0
   35.8249   25.7737   40.5218 H   0  0  0  0  0  0  0  0  0  0  0  0
   36.3410   25.0097   37.9381 H   0  0  0  0  0  0  0  0  0  0  0  0
   35.0325   26.1555   38.2471 H   0  0  0  0  0  0  0  0  0  0  0  0
   37.4800   26.5987   36.8065 H   0  0  0  0  0  0  0  0  0  0  0  0
   36.2266   27.7973   37.1516 H   0  0  0  0  0  0  0  0  0  0  0  0
   38.8240   27.3010   38.9309 H   0  0  0  0  0  0  0  0  0  0  0  0
   36.0138   29.2573   37.5362 H   0  0  0  0  0  0  0  0  0  0  0  0
   36.3659   31.5440   36.6135 H   0  0  0  0  0  0  0  0  0  0  0  0
   38.6158   32.5565   36.7176 H   0  0  0  0  0  0  0  0  0  0  0  0
   40.5348   31.3352   37.7196 H   0  0  0  0  0  0  0  0  0  0  0  0
   40.1909   29.0375   38.6461 H   0  0  0  0  0  0  0  0  0  0  0  0
   38.4620   30.1513   43.4390 H   0  0  0  0  0  0  0  0  0  0  0  0
   38.0616   25.9997   43.9184 H   0  0  0  0  0  0  0  0  0  0  0  0
   38.5990   30.4924   40.2845 H   0  0  0  0  0  0  0  0  0  0  0  0
   36.4045   33.3939   40.8026 H   0  0  0  0  0  0  0  0  0  0  0  0
   38.1161   32.8999   40.7060 H   0  0  0  0  0  0  0  0  0  0  0  0
  1 14  1  0
  2  1  1  0
  3  2  1  0
  4  3  1  0
  4  5  1  0
  5  1  1  0
  6 11  1  0
  6  5  1  0
  7  6  2  0
  8  9  2  0
  8  7  1  0
  9 10  1  0
 10 11  2  0
 12 17  2  0
 13 12  1  0
 14 13  2  0
 14 15  1  0
 15 16  2  0
 16 17  1  0
 18 19  1  0
 18 13  1  0
 19 20  2  0
 20 22  1  0
 21 19  1  0
  1 23  1  6
  2 24  1  0
  2 25  1  0
  3 26  1  0
  3 27  1  0
  4 28  1  0
  4 29  1  0
  5 30  1  1
  7 31  1  0
  8 32  1  0
  9 33  1  0
 10 34  1  0
 11 35  1  0
 12 36  1  0
 16 37  1  0
 18 38  1  0
 21 39  1  0
 21 40  1  0
M  ISO  8  23  13  24  13  25  13  26  13  27  13  28  13  29  13  30  13
M  ISO  7  31  14  32  14  33  14  34  14  35  14  36  14  37  14
M  END
>  <minimizedAffinity>  (1) 
-5.23078871

>  <minimizedRMSD>  (1) 
0.695354164

$$$$
