
     RDKit          3D

 44 46  0  0  1  0  0  0  0  0999 V2000
   36.8420   27.7030   39.8050 C   0  0  2  0  0  0  0  0  0  0  0  0
   36.9410   26.2380   39.5300 C   0  0  0  0  0  0  0  0  0  0  0  0
   36.1550   26.1250   38.2360 C   0  0  0  0  0  0  0  0  0  0  0  0
   36.3690   27.4550   37.5390 C   0  0  0  0  0  0  0  0  0  0  0  0
   37.2420   28.2860   38.4750 C   0  0  2  0  0  0  0  0  0  0  0  0
   38.5780   29.4300   42.6300 C   0  0  0  0  0  0  0  0  0  0  0  0
   37.9430   29.3440   41.3520 C   0  0  0  0  0  0  0  0  0  0  0  0
   37.5730   28.0830   40.9670 C   0  0  0  0  0  0  0  0  0  0  0  0
   37.8410   27.0490   41.8260 N   0  0  0  0  0  0  0  0  0  0  0  0
   38.4280   27.1640   43.0000 C   0  0  0  0  0  0  0  0  0  0  0  0
   38.8010   28.3830   43.4010 N   0  0  0  0  0  0  0  0  0  0  0  0
   37.7370   30.4950   40.5490 N   0  0  0  0  0  0  0  0  0  0  0  0
   36.7710   31.4840   40.8000 C   0  0  0  0  0  0  0  0  0  0  0  0
   35.6130   31.0200   41.2180 N   0  0  0  0  0  0  0  0  0  0  0  0
   37.1630   32.8550   40.5710 N   0  0  0  0  0  0  0  0  0  0  0  0
   34.8190   31.6480   41.4150 H   0  0  0  0  0  0  0  0  0  0  0  0
   38.5580   28.3170   38.0670 N   0  0  0  0  0  0  0  0  0  0  0  0
   39.2450   29.5540   37.9680 C   0  0  0  0  0  0  0  0  0  0  0  0
   40.6250   29.4450   37.3800 C   0  0  0  0  0  0  0  0  0  0  0  0
   40.8810   28.3880   36.4880 N   0  0  0  0  0  0  0  0  0  0  0  0
   40.0130   27.2520   36.5730 C   0  0  0  0  0  0  0  0  0  0  0  0
   38.6200   27.8260   36.6750 C   0  0  0  0  0  0  0  0  0  0  0  0
   35.8534   28.0854   40.0990 H   0  0  0  0  0  0  0  0  0  0  0  0
   37.9863   25.9233   39.3951 H   0  0  0  0  0  0  0  0  0  0  0  0
   36.5643   25.6003   40.3433 H   0  0  0  0  0  0  0  0  0  0  0  0
   36.5383   25.2981   37.6201 H   0  0  0  0  0  0  0  0  0  0  0  0
   35.0900   25.9140   38.4127 H   0  0  0  0  0  0  0  0  0  0  0  0
   36.8780   27.3039   36.5756 H   0  0  0  0  0  0  0  0  0  0  0  0
   35.4133   27.9573   37.3282 H   0  0  0  0  0  0  0  0  0  0  0  0
   37.1013   29.3765   38.5067 H   0  0  0  0  0  0  0  0  0  0  0  0
   38.8969   30.4197   42.9888 H   0  0  0  0  0  0  0  0  0  0  0  0
   38.6060   26.2816   43.6322 H   0  0  0  0  0  0  0  0  0  0  0  0
   38.3392   30.6145   39.7220 H   0  0  0  0  0  0  0  0  0  0  0  0
   36.4917   33.6177   40.7400 H   0  0  0  0  0  0  0  0  0  0  0  0
   38.1139   33.0701   40.2387 H   0  0  0  0  0  0  0  0  0  0  0  0
   38.6516   30.2288   37.3336 H   0  0  0  0  0  0  0  0  0  0  0  0
   39.3664   29.9322   38.9938 H   0  0  0  0  0  0  0  0  0  0  0  0
   40.8264   30.3831   36.8420 H   0  0  0  0  0  0  0  0  0  0  0  0
   41.2759   29.2402   38.2428 H   0  0  0  0  0  0  0  0  0  0  0  0
   41.8422   28.0602   36.6597 H   0  0  0  0  0  0  0  0  0  0  0  0
   40.1075   26.6260   35.6735 H   0  0  0  0  0  0  0  0  0  0  0  0
   40.2577   26.6106   37.4325 H   0  0  0  0  0  0  0  0  0  0  0  0
   38.4795   28.6497   35.9596 H   0  0  0  0  0  0  0  0  0  0  0  0
   37.8335   27.0935   36.4406 H   0  0  0  0  0  0  0  0  0  0  0  0
  1  8  1  0
  2  1  1  0
  3  2  1  0
  4  3  1  0
  4  5  1  0
  5  1  1  0
  6 11  2  0
  7  6  1  0
  8  7  2  0
  8  9  1  0
  9 10  2  0
 10 11  1  0
 12 13  1  0
 12  7  1  0
 13 14  2  0
 14 16  1  0
 15 13  1  0
 17  5  1  0
 18 17  1  0
 19 18  1  0
 20 21  1  0
 20 19  1  0
 21 22  1  0
 22 17  1  0
  1 23  1  1
  2 24  1  0
  2 25  1  0
  3 26  1  0
  3 27  1  0
  4 28  1  0
  4 29  1  0
  5 30  1  1
  6 31  1  0
 10 32  1  0
 12 33  1  0
 15 34  1  0
 15 35  1  0
 18 36  1  0
 18 37  1  0
 19 38  1  0
 19 39  1  0
 20 40  1  0
 21 41  1  0
 21 42  1  0
 22 43  1  0
 22 44  1  0
M  ISO  8  23  13  24  13  25  13  26  13  27  13  28  13  29  13  30  13
M  ISO  8  31  14  32  14  36  13  37  13  38  13  39  13  40   5  41  13
M  ISO  3  42  13  43  13  44  13
M  END
>  <minimizedAffinity>  (1) 
-5.21107674

>  <minimizedRMSD>  (1) 
1.80097711

$$$$
