
     RDKit          3D

 45 47  0  0  1  0  0  0  0  0999 V2000
   36.8640   27.5100   39.8270 C   0  0  2  0  0  0  0  0  0  0  0  0
   36.6130   26.0380   39.8250 C   0  0  0  0  0  0  0  0  0  0  0  0
   35.9680   25.8360   38.4720 C   0  0  0  0  0  0  0  0  0  0  0  0
   36.5210   26.9390   37.5940 C   0  0  0  0  0  0  0  0  0  0  0  0
   37.4880   27.7300   38.4890 C   0  0  2  0  0  0  0  0  0  0  0  0
   38.5010   29.3390   42.6530 C   0  0  0  0  0  0  0  0  0  0  0  0
   37.8970   29.2070   41.3600 C   0  0  0  0  0  0  0  0  0  0  0  0
   37.5660   27.9310   40.9950 C   0  0  0  0  0  0  0  0  0  0  0  0
   37.8340   26.9240   41.8830 N   0  0  0  0  0  0  0  0  0  0  0  0
   38.3910   27.0740   43.0680 C   0  0  0  0  0  0  0  0  0  0  0  0
   38.7280   28.3110   43.4510 N   0  0  0  0  0  0  0  0  0  0  0  0
   37.6830   30.3360   40.5280 N   0  0  0  0  0  0  0  0  0  0  0  0
   36.7530   31.3580   40.7850 C   0  0  0  0  0  0  0  0  0  0  0  0
   35.6050   30.9380   41.2710 N   0  0  0  0  0  0  0  0  0  0  0  0
   37.1670   32.7110   40.4920 N   0  0  0  0  0  0  0  0  0  0  0  0
   34.8370   31.5920   41.4840 H   0  0  0  0  0  0  0  0  0  0  0  0
   38.7780   27.3690   38.1840 N   0  0  0  0  0  0  0  0  0  0  0  0
   38.8030   26.9910   36.7560 C   0  0  0  0  0  0  0  0  0  0  0  0
   39.9330   26.0480   36.4940 C   0  0  0  0  0  0  0  0  0  0  0  0
   41.1930   26.8800   36.6810 C   0  0  0  0  0  0  0  0  0  0  0  0
   41.1700   27.6380   37.9540 C   0  0  0  0  0  0  0  0  0  0  0  0
   39.8510   28.2860   38.3080 C   0  0  0  0  0  0  0  0  0  0  0  0
   35.9796   28.1573   39.9209 H   0  0  0  0  0  0  0  0  0  0  0  0
   37.5521   25.4715   39.9096 H   0  0  0  0  0  0  0  0  0  0  0  0
   35.9982   25.6898   40.6681 H   0  0  0  0  0  0  0  0  0  0  0  0
   36.2323   24.8496   38.0631 H   0  0  0  0  0  0  0  0  0  0  0  0
   34.8703   25.8730   38.5326 H   0  0  0  0  0  0  0  0  0  0  0  0
   37.0559   26.5129   36.7325 H   0  0  0  0  0  0  0  0  0  0  0  0
   35.7223   27.5788   37.1906 H   0  0  0  0  0  0  0  0  0  0  0  0
   37.6153   28.8172   38.3808 H   0  0  0  0  0  0  0  0  0  0  0  0
   38.7890   30.3433   42.9970 H   0  0  0  0  0  0  0  0  0  0  0  0
   38.5733   26.2087   43.7222 H   0  0  0  0  0  0  0  0  0  0  0  0
   38.2512   30.4124   39.6723 H   0  0  0  0  0  0  0  0  0  0  0  0
   36.5217   33.4954   40.6629 H   0  0  0  0  0  0  0  0  0  0  0  0
   38.1074   32.8910   40.1123 H   0  0  0  0  0  0  0  0  0  0  0  0
   37.8532   26.5029   36.4921 H   0  0  0  0  0  0  0  0  0  0  0  0
   38.9407   27.8962   36.1463 H   0  0  0  0  0  0  0  0  0  0  0  0
   39.8783   25.6548   35.4681 H   0  0  0  0  0  0  0  0  0  0  0  0
   39.9091   25.1781   37.1669 H   0  0  0  0  0  0  0  0  0  0  0  0
   42.0651   26.2096   36.6819 H   0  0  0  0  0  0  0  0  0  0  0  0
   41.2501   27.6033   35.8542 H   0  0  0  0  0  0  0  0  0  0  0  0
   41.4339   26.9437   38.7654 H   0  0  0  0  0  0  0  0  0  0  0  0
   41.8843   28.4643   37.8236 H   0  0  0  0  0  0  0  0  0  0  0  0
   39.6762   29.1358   37.6318 H   0  0  0  0  0  0  0  0  0  0  0  0
   39.8997   28.6246   39.3535 H   0  0  0  0  0  0  0  0  0  0  0  0
  1  8  1  0
  2  1  1  0
  3  2  1  0
  4  3  1  0
  4  5  1  0
  5  1  1  0
  6 11  2  0
  7  6  1  0
  8  7  2  0
  8  9  1  0
  9 10  2  0
 10 11  1  0
 12 13  1  0
 12  7  1  0
 13 14  2  0
 14 16  1  0
 15 13  1  0
 17 22  1  0
 17  5  1  0
 18 17  1  0
 19 20  1  0
 19 18  1  0
 20 21  1  0
 21 22  1  0
  1 23  1  6
  2 24  1  0
  2 25  1  0
  3 26  1  0
  3 27  1  0
  4 28  1  0
  4 29  1  0
  5 30  1  6
  6 31  1  0
 10 32  1  0
 12 33  1  0
 15 34  1  0
 15 35  1  0
 18 36  1  0
 18 37  1  0
 19 38  1  0
 19 39  1  0
 20 40  1  0
 20 41  1  0
 21 42  1  0
 21 43  1  0
 22 44  1  0
 22 45  1  0
M  ISO  8  23  13  24  13  25  13  26  13  27  13  28  13  29  13  30  13
M  ISO  8  31  14  32  14  36  13  37  13  38  13  39  13  40  13  41  13
M  ISO  4  42  13  43  13  44  13  45  13
M  END
>  <minimizedAffinity>  (1) 
-5.19893265

>  <minimizedRMSD>  (1) 
1.4023608

$$$$
