
     RDKit          3D

 36 38  0  0  1  0  0  0  0  0999 V2000
   36.9080   27.5470   39.8960 C   0  0  2  0  0  0  0  0  0  0  0  0
   36.6030   26.0740   39.8930 C   0  0  0  0  0  0  0  0  0  0  0  0
   35.9950   25.9010   38.5140 C   0  0  0  0  0  0  0  0  0  0  0  0
   36.6100   26.9560   37.6700 C   0  0  0  0  0  0  0  0  0  0  0  0
   37.6620   27.6640   38.5920 C   0  0  1  0  0  0  0  0  0  0  0  0
   38.4930   29.3210   42.7900 C   0  0  0  0  0  0  0  0  0  0  0  0
   37.9230   29.1930   41.4640 C   0  0  0  0  0  0  0  0  0  0  0  0
   37.6040   27.9290   41.0840 C   0  0  0  0  0  0  0  0  0  0  0  0
   37.8420   26.8860   41.9700 N   0  0  0  0  0  0  0  0  0  0  0  0
   38.3670   27.0580   43.1790 C   0  0  0  0  0  0  0  0  0  0  0  0
   38.6950   28.2850   43.5910 N   0  0  0  0  0  0  0  0  0  0  0  0
   37.7890   30.3400   40.6810 N   0  0  0  0  0  0  0  0  0  0  0  0
   36.7350   31.2970   40.8280 C   0  0  0  0  0  0  0  0  0  0  0  0
   35.5660   30.8250   41.1620 N   0  0  0  0  0  0  0  0  0  0  0  0
   37.1030   32.6880   40.5980 N   0  0  0  0  0  0  0  0  0  0  0  0
   34.7600   31.4450   41.3060 H   0  0  0  0  0  0  0  0  0  0  0  0
   37.7690   28.9540   38.0020 N   0  0  0  0  0  0  0  0  0  0  0  0
   36.7490   29.5760   37.3380 C   0  0  0  0  0  0  0  0  0  0  0  0
   37.1890   30.7790   36.8880 N   0  0  0  0  0  0  0  0  0  0  0  0
   38.4690   30.8520   37.2970 C   0  0  0  0  0  0  0  0  0  0  0  0
   38.8490   29.7530   37.9770 N   0  0  0  0  0  0  0  0  0  0  0  0
   36.0536   28.2389   39.9327 H   0  0  0  0  0  0  0  0  0  0  0  0
   37.5170   25.4730   40.0087 H   0  0  0  0  0  0  0  0  0  0  0  0
   35.9524   25.7463   40.7172 H   0  0  0  0  0  0  0  0  0  0  0  0
   36.2297   24.9038   38.1135 H   0  0  0  0  0  0  0  0  0  0  0  0
   34.8988   25.9882   38.5392 H   0  0  0  0  0  0  0  0  0  0  0  0
   37.1039   26.5095   36.7944 H   0  0  0  0  0  0  0  0  0  0  0  0
   35.8597   27.6631   37.2865 H   0  0  0  0  0  0  0  0  0  0  0  0
   38.6943   27.3078   38.7238 H   0  0  0  0  0  0  0  0  0  0  0  0
   38.7705   30.3235   43.1478 H   0  0  0  0  0  0  0  0  0  0  0  0
   38.5307   26.1925   43.8378 H   0  0  0  0  0  0  0  0  0  0  0  0
   38.4944   30.5090   39.9497 H   0  0  0  0  0  0  0  0  0  0  0  0
   36.3939   33.4298   40.6868 H   0  0  0  0  0  0  0  0  0  0  0  0
   38.0722   32.9295   40.3467 H   0  0  0  0  0  0  0  0  0  0  0  0
   35.7376   29.1688   37.1921 H   0  0  0  0  0  0  0  0  0  0  0  0
   39.1286   31.7098   37.0990 H   0  0  0  0  0  0  0  0  0  0  0  0
  1  8  1  0
  2  1  1  0
  3  2  1  0
  4  3  1  0
  4  5  1  0
  5  1  1  0
  6 11  2  0
  7  6  1  0
  8  7  2  0
  8  9  1  0
  9 10  2  0
 10 11  1  0
 12 13  1  0
 12  7  1  0
 13 14  2  0
 14 16  1  0
 15 13  1  0
 17  5  1  0
 18 17  1  0
 19 20  1  0
 19 18  2  0
 20 21  2  0
 21 17  1  0
  1 22  1  6
  2 23  1  0
  2 24  1  0
  3 25  1  0
  3 26  1  0
  4 27  1  0
  4 28  1  0
  5 29  1  1
  6 30  1  0
 10 31  1  0
 12 32  1  0
 15 33  1  0
 15 34  1  0
 18 35  1  0
 20 36  1  0
M  ISO  8  22  13  23  13  24  13  25  13  26  13  27  13  28  13  29  13
M  ISO  4  30  14  31  14  35  14  36  14
M  END
>  <minimizedAffinity>  (1) 
-5.19017124

>  <minimizedRMSD>  (1) 
0.313502848

$$$$
