
     RDKit          3D

 37 39  0  0  1  0  0  0  0  0999 V2000
   36.9370   27.6040   39.8230 C   0  0  2  0  0  0  0  0  0  0  0  0
   36.5650   26.1420   39.7680 C   0  0  0  0  0  0  0  0  0  0  0  0
   36.0680   26.0270   38.3400 C   0  0  0  0  0  0  0  0  0  0  0  0
   36.8080   27.0600   37.5720 C   0  0  0  0  0  0  0  0  0  0  0  0
   37.7960   27.7160   38.5890 C   0  0  1  0  0  0  0  0  0  0  0  0
   38.3370   29.2360   42.8910 C   0  0  0  0  0  0  0  0  0  0  0  0
   37.8590   29.1700   41.5220 C   0  0  0  0  0  0  0  0  0  0  0  0
   37.5520   27.9260   41.0780 C   0  0  0  0  0  0  0  0  0  0  0  0
   37.7150   26.8520   41.9400 N   0  0  0  0  0  0  0  0  0  0  0  0
   38.1550   26.9610   43.1830 C   0  0  0  0  0  0  0  0  0  0  0  0
   38.4700   28.1750   43.6630 N   0  0  0  0  0  0  0  0  0  0  0  0
   37.8080   30.3500   40.7840 N   0  0  0  0  0  0  0  0  0  0  0  0
   36.7580   31.3190   40.8820 C   0  0  0  0  0  0  0  0  0  0  0  0
   35.5650   30.8610   41.1120 N   0  0  0  0  0  0  0  0  0  0  0  0
   37.1500   32.7090   40.7300 N   0  0  0  0  0  0  0  0  0  0  0  0
   34.7560   31.4870   41.2210 H   0  0  0  0  0  0  0  0  0  0  0  0
   37.9490   29.0490   38.0380 C   0  0  0  0  0  0  0  0  0  0  0  0
   36.9170   29.8950   37.4760 C   0  0  0  0  0  0  0  0  0  0  0  0
   37.3570   31.1080   37.0080 C   0  0  0  0  0  0  0  0  0  0  0  0
   38.7180   31.4150   37.1090 C   0  0  0  0  0  0  0  0  0  0  0  0
   39.4390   29.9250   37.9070 S   0  0  0  0  0  0  0  0  0  0  0  0
   36.1156   28.3353   39.8010 H   0  0  0  0  0  0  0  0  0  0  0  0
   37.4371   25.4957   39.9461 H   0  0  0  0  0  0  0  0  0  0  0  0
   35.8358   25.8293   40.5299 H   0  0  0  0  0  0  0  0  0  0  0  0
   36.2814   25.0251   37.9393 H   0  0  0  0  0  0  0  0  0  0  0  0
   34.9800   26.1755   38.2759 H   0  0  0  0  0  0  0  0  0  0  0  0
   37.3627   26.5972   36.7425 H   0  0  0  0  0  0  0  0  0  0  0  0
   36.1274   27.8028   37.1304 H   0  0  0  0  0  0  0  0  0  0  0  0
   38.8054   27.3250   38.7845 H   0  0  0  0  0  0  0  0  0  0  0  0
   38.6015   30.2201   43.3052 H   0  0  0  0  0  0  0  0  0  0  0  0
   38.2616   26.0676   43.8159 H   0  0  0  0  0  0  0  0  0  0  0  0
   38.5762   30.5382   40.1241 H   0  0  0  0  0  0  0  0  0  0  0  0
   36.4409   33.4536   40.7902 H   0  0  0  0  0  0  0  0  0  0  0  0
   38.1371   32.9503   40.5620 H   0  0  0  0  0  0  0  0  0  0  0  0
   35.8615   29.5891   37.4278 H   0  0  0  0  0  0  0  0  0  0  0  0
   36.6525   31.8253   36.5618 H   0  0  0  0  0  0  0  0  0  0  0  0
   39.2344   32.3313   36.7870 H   0  0  0  0  0  0  0  0  0  0  0  0
  1  8  1  0
  2  1  1  0
  3  2  1  0
  4  3  1  0
  4  5  1  0
  5  1  1  0
  6 11  2  0
  7  6  1  0
  8  7  2  0
  8  9  1  0
  9 10  2  0
 10 11  1  0
 12 13  1  0
 12  7  1  0
 13 14  2  0
 14 16  1  0
 15 13  1  0
 17  5  1  0
 18 17  2  0
 19 20  2  0
 19 18  1  0
 20 21  1  0
 21 17  1  0
  1 22  1  6
  2 23  1  0
  2 24  1  0
  3 25  1  0
  3 26  1  0
  4 27  1  0
  4 28  1  0
  5 29  1  1
  6 30  1  0
 10 31  1  0
 12 32  1  0
 15 33  1  0
 15 34  1  0
 18 35  1  0
 19 36  1  0
 20 37  1  0
M  ISO  8  22  13  23  13  24  13  25  13  26  13  27  13  28  13  29  13
M  ISO  5  30  14  31  14  35  14  36  14  37  14
M  END
>  <minimizedAffinity>  (1) 
-5.14942312

>  <minimizedRMSD>  (1) 
0.405749887

$$$$
