
     RDKit          3D

 31 32  0  0  1  0  0  0  0  0999 V2000
   38.4750   29.3310   42.6950 C   0  0  0  0  0  0  0  0  0  0  0  0
   37.8760   29.1760   41.4040 C   0  0  0  0  0  0  0  0  0  0  0  0
   37.5590   27.8990   41.0330 C   0  0  0  0  0  0  0  0  0  0  0  0
   37.8390   26.8750   41.9210 N   0  0  0  0  0  0  0  0  0  0  0  0
   38.3980   27.0710   43.1120 C   0  0  0  0  0  0  0  0  0  0  0  0
   38.7150   28.3160   43.4930 N   0  0  0  0  0  0  0  0  0  0  0  0
   36.8310   27.4780   39.8760 C   0  0  2  0  0  0  0  0  0  0  0  0
   36.6150   26.0040   39.8470 C   0  0  0  0  0  0  0  0  0  0  0  0
   35.9760   25.8250   38.4710 C   0  0  0  0  0  0  0  0  0  0  0  0
   36.5450   26.9390   37.6200 C   0  0  0  0  0  0  0  0  0  0  0  0
   37.5360   27.6770   38.5330 C   0  0  2  0  0  0  0  0  0  0  0  0
   39.1860   27.0260   38.4770 S   0  0  0  0  0  0  0  0  0  0  0  0
   37.6720   30.2970   40.5660 N   0  0  0  0  0  0  0  0  0  0  0  0
   36.7490   31.3320   40.7920 C   0  0  0  0  0  0  0  0  0  0  0  0
   35.6010   30.9280   41.2690 N   0  0  0  0  0  0  0  0  0  0  0  0
   37.1630   32.6800   40.4810 N   0  0  0  0  0  0  0  0  0  0  0  0
   34.8340   31.5880   41.4830 H   0  0  0  0  0  0  0  0  0  0  0  0
   38.7455   30.3424   43.0326 H   0  0  0  0  0  0  0  0  0  0  0  0
   38.5982   26.2188   43.7781 H   0  0  0  0  0  0  0  0  0  0  0  0
   35.9269   28.0971   39.9730 H   0  0  0  0  0  0  0  0  0  0  0  0
   37.5654   25.4557   39.9245 H   0  0  0  0  0  0  0  0  0  0  0  0
   36.0080   25.6201   40.6802 H   0  0  0  0  0  0  0  0  0  0  0  0
   36.2392   24.8441   38.0484 H   0  0  0  0  0  0  0  0  0  0  0  0
   34.8778   25.8656   38.5198 H   0  0  0  0  0  0  0  0  0  0  0  0
   37.0631   26.5271   36.7414 H   0  0  0  0  0  0  0  0  0  0  0  0
   35.7593   27.6084   37.2398 H   0  0  0  0  0  0  0  0  0  0  0  0
   37.7251   28.7263   38.2624 H   0  0  0  0  0  0  0  0  0  0  0  0
   39.6485   26.8435   39.7536 H   0  0  0  0  0  0  0  0  0  0  0  0
   38.2504   30.3601   39.7161 H   0  0  0  0  0  0  0  0  0  0  0  0
   36.5147   33.4658   40.6329 H   0  0  0  0  0  0  0  0  0  0  0  0
   38.1066   32.8557   40.1072 H   0  0  0  0  0  0  0  0  0  0  0  0
  1  6  2  0
  2  1  1  0
  3  2  2  0
  3  4  1  0
  4  5  2  0
  5  6  1  0
  7  3  1  0
  8  7  1  0
  9  8  1  0
 10  9  1  0
 10 11  1  0
 11  7  1  0
 12 11  1  0
 13 14  1  0
 13  2  1  0
 14 15  2  0
 15 17  1  0
 16 14  1  0
  1 18  1  0
  5 19  1  0
  7 20  1  6
  8 21  1  0
  8 22  1  0
  9 23  1  0
  9 24  1  0
 10 25  1  0
 10 26  1  0
 11 27  1  6
 12 28  1  0
 13 29  1  0
 16 30  1  0
 16 31  1  0
M  ISO  8  18  14  19  14  20  13  21  13  22  13  23  13  24  13  25  13
M  ISO  3  26  13  27  13  28  11
M  END
>  <minimizedAffinity>  (1) 
-4.81167746

>  <minimizedRMSD>  (1) 
0.179961786

$$$$
