
     RDKit          3D

 36 37  0  0  1  0  0  0  0  0999 V2000
   38.7560   29.4860   42.4590 C   0  0  0  0  0  0  0  0  0  0  0  0
   38.0150   29.3170   41.2490 C   0  0  0  0  0  0  0  0  0  0  0  0
   37.6930   28.0340   40.9130 C   0  0  0  0  0  0  0  0  0  0  0  0
   38.1050   27.0190   41.7590 N   0  0  0  0  0  0  0  0  0  0  0  0
   38.7930   27.2250   42.8760 C   0  0  0  0  0  0  0  0  0  0  0  0
   39.1180   28.4790   43.2230 N   0  0  0  0  0  0  0  0  0  0  0  0
   36.8480   27.5900   39.8480 C   0  0  2  0  0  0  0  0  0  0  0  0
   36.6810   26.1080   39.8330 C   0  0  0  0  0  0  0  0  0  0  0  0
   35.9190   25.9070   38.5270 C   0  0  0  0  0  0  0  0  0  0  0  0
   36.3260   27.0560   37.6320 C   0  0  0  0  0  0  0  0  0  0  0  0
   37.3690   27.8260   38.4330 C   0  0  2  0  0  0  0  0  0  0  0  0
   38.7500   27.3630   38.1960 C   0  0  0  0  0  0  0  0  0  0  0  0
   39.0240   27.5650   36.6970 C   0  0  0  0  0  0  0  0  0  0  0  0
   37.6860   30.4350   40.4400 N   0  0  0  0  0  0  0  0  0  0  0  0
   36.7210   31.4080   40.7510 C   0  0  0  0  0  0  0  0  0  0  0  0
   35.6410   30.9350   41.3040 N   0  0  0  0  0  0  0  0  0  0  0  0
   37.0420   32.7800   40.4260 N   0  0  0  0  0  0  0  0  0  0  0  0
   34.8480   31.5420   41.5730 H   0  0  0  0  0  0  0  0  0  0  0  0
   39.0363   30.5047   42.7652 H   0  0  0  0  0  0  0  0  0  0  0  0
   39.0928   26.3770   43.5092 H   0  0  0  0  0  0  0  0  0  0  0  0
   35.9408   28.1746   40.0609 H   0  0  0  0  0  0  0  0  0  0  0  0
   37.6530   25.5933   39.8155 H   0  0  0  0  0  0  0  0  0  0  0  0
   36.1709   25.7029   40.7194 H   0  0  0  0  0  0  0  0  0  0  0  0
   36.1944   24.9467   38.0667 H   0  0  0  0  0  0  0  0  0  0  0  0
   34.8315   25.8872   38.6915 H   0  0  0  0  0  0  0  0  0  0  0  0
   35.4606   27.6965   37.4067 H   0  0  0  0  0  0  0  0  0  0  0  0
   36.7195   26.7088   36.6652 H   0  0  0  0  0  0  0  0  0  0  0  0
   37.4673   28.8895   38.1699 H   0  0  0  0  0  0  0  0  0  0  0  0
   39.4577   27.9546   38.7952 H   0  0  0  0  0  0  0  0  0  0  0  0
   38.8724   26.3088   38.4853 H   0  0  0  0  0  0  0  0  0  0  0  0
   39.9034   28.2133   36.5691 H   0  0  0  0  0  0  0  0  0  0  0  0
   39.2153   26.5902   36.2246 H   0  0  0  0  0  0  0  0  0  0  0  0
   38.1494   28.0360   36.2246 H   0  0  0  0  0  0  0  0  0  0  0  0
   38.1963   30.5423   39.5518 H   0  0  0  0  0  0  0  0  0  0  0  0
   36.3674   33.5300   40.6343 H   0  0  0  0  0  0  0  0  0  0  0  0
   37.9452   33.0073   39.9862 H   0  0  0  0  0  0  0  0  0  0  0  0
  1  6  2  0
  2  1  1  0
  3  2  2  0
  3  4  1  0
  4  5  2  0
  5  6  1  0
  7  3  1  0
  8  7  1  0
  9  8  1  0
 10 11  1  0
 10  9  1  0
 11  7  1  0
 12 11  1  0
 13 12  1  0
 14 15  1  0
 14  2  1  0
 15 16  2  0
 16 18  1  0
 17 15  1  0
  1 19  1  0
  5 20  1  0
  7 21  1  6
  8 22  1  0
  8 23  1  0
  9 24  1  0
  9 25  1  0
 10 26  1  0
 10 27  1  0
 11 28  1  6
 12 29  1  0
 12 30  1  0
 13 31  1  0
 13 32  1  0
 13 33  1  0
 14 34  1  0
 17 35  1  0
 17 36  1  0
M  ISO  8  19  14  20  14  21  13  22  13  23  13  24  13  25  13  26  13
M  ISO  7  27  13  28  13  29   8  30   8  31   8  32   8  33   8
M  END
>  <minimizedAffinity>  (1) 
-4.76092482

>  <minimizedRMSD>  (1) 
0.492399335

$$$$
