
     RDKit          3D

 33 34  0  0  1  0  0  0  0  0999 V2000
   36.8360   27.4830   39.8850 C   0  0  2  0  0  0  0  0  0  0  0  0
   36.5980   26.0090   39.8770 C   0  0  0  0  0  0  0  0  0  0  0  0
   36.0100   25.8140   38.4790 C   0  0  0  0  0  0  0  0  0  0  0  0
   36.5640   26.9330   37.6310 C   0  0  0  0  0  0  0  0  0  0  0  0
   37.5720   27.6470   38.5470 C   0  0  2  0  0  0  0  0  0  0  0  0
   38.4810   29.3430   42.6980 C   0  0  0  0  0  0  0  0  0  0  0  0
   37.8840   29.1860   41.4070 C   0  0  0  0  0  0  0  0  0  0  0  0
   37.5590   27.9080   41.0430 C   0  0  0  0  0  0  0  0  0  0  0  0
   37.8330   26.8860   41.9410 N   0  0  0  0  0  0  0  0  0  0  0  0
   38.3910   27.0890   43.1310 C   0  0  0  0  0  0  0  0  0  0  0  0
   38.7150   28.3310   43.5060 N   0  0  0  0  0  0  0  0  0  0  0  0
   37.6780   30.3050   40.5610 N   0  0  0  0  0  0  0  0  0  0  0  0
   36.7520   31.3370   40.7900 C   0  0  0  0  0  0  0  0  0  0  0  0
   35.6010   30.9310   41.2710 N   0  0  0  0  0  0  0  0  0  0  0  0
   37.1680   32.6850   40.4800 N   0  0  0  0  0  0  0  0  0  0  0  0
   34.8280   31.5890   41.4660 H   0  0  0  0  0  0  0  0  0  0  0  0
   38.9010   27.0590   38.5290 C   0  0  0  0  0  0  0  0  0  0  0  0
   39.9690   27.6720   38.8700 O   0  0  0  0  0  0  0  0  0  0  0  0
   39.4000   25.8180   38.1860 O   0  0  0  0  0  0  0  0  0  0  0  0
   35.9395   28.1163   39.9574 H   0  0  0  0  0  0  0  0  0  0  0  0
   37.5359   25.4480   40.0023 H   0  0  0  0  0  0  0  0  0  0  0  0
   35.9538   25.6500   40.6932 H   0  0  0  0  0  0  0  0  0  0  0  0
   36.3135   24.8390   38.0700 H   0  0  0  0  0  0  0  0  0  0  0  0
   34.9104   25.8327   38.4998 H   0  0  0  0  0  0  0  0  0  0  0  0
   37.0660   26.5323   36.7380 H   0  0  0  0  0  0  0  0  0  0  0  0
   35.7777   27.6101   37.2660 H   0  0  0  0  0  0  0  0  0  0  0  0
   37.8063   28.6847   38.2671 H   0  0  0  0  0  0  0  0  0  0  0  0
   38.7566   30.3549   43.0298 H   0  0  0  0  0  0  0  0  0  0  0  0
   38.5849   26.2400   43.8030 H   0  0  0  0  0  0  0  0  0  0  0  0
   38.2539   30.3665   39.7093 H   0  0  0  0  0  0  0  0  0  0  0  0
   36.5208   33.4716   40.6326 H   0  0  0  0  0  0  0  0  0  0  0  0
   38.1118   32.8596   40.1064 H   0  0  0  0  0  0  0  0  0  0  0  0
   40.3711   25.6385   38.2553 H   0  0  0  0  0  0  0  0  0  0  0  0
  1  8  1  0
  2  1  1  0
  3  2  1  0
  4  3  1  0
  4  5  1  0
  5  1  1  0
  6 11  2  0
  7  6  1  0
  8  7  2  0
  8  9  1  0
  9 10  2  0
 10 11  1  0
 12 13  1  0
 12  7  1  0
 13 14  2  0
 14 16  1  0
 15 13  1  0
 17  5  1  0
 17 18  2  0
 19 17  1  0
  1 20  1  6
  2 21  1  0
  2 22  1  0
  3 23  1  0
  3 24  1  0
  4 25  1  0
  4 26  1  0
  5 27  1  6
  6 28  1  0
 10 29  1  0
 12 30  1  0
 15 31  1  0
 15 32  1  0
 19 33  1  0
M  ISO  8  20  13  21  13  22  13  23  13  24  13  25  13  26  13  27  13
M  ISO  3  28  14  29  14  33   3
M  END
>  <minimizedAffinity>  (1) 
-4.70022869

>  <minimizedRMSD>  (1) 
0.278016746

$$$$
