
     RDKit          3D

 18 19  0  0  0  0  0  0  0  0999 V2000
   38.8090   27.9130   43.3470 C   0  0  0  0  0  0  0  0  0  0  0  0
   37.5560   27.2450   43.2010 C   0  0  0  0  0  0  0  0  0  0  0  0
   36.5490   27.8450   42.4330 C   0  0  0  0  0  0  0  0  0  0  0  0
   36.8290   29.0450   41.8640 N   0  0  0  0  0  0  0  0  0  0  0  0
   38.0120   29.6540   42.0130 C   0  0  0  0  0  0  0  0  0  0  0  0
   38.9960   29.0940   42.7490 N   0  0  0  0  0  0  0  0  0  0  0  0
   38.3390   30.9210   41.4260 N   0  0  0  0  0  0  0  0  0  0  0  0
   39.6190   31.2900   41.4880 N   0  0  0  0  0  0  0  0  0  0  0  0
   39.7490   32.4960   40.8920 C   0  0  0  0  0  0  0  0  0  0  0  0
   38.4770   32.8150   40.4760 C   0  0  0  0  0  0  0  0  0  0  0  0
   37.5650   31.8270   40.8060 C   0  0  0  0  0  0  0  0  0  0  0  0
   36.1990   31.6840   40.6110 O   0  0  0  0  0  0  0  0  0  0  0  0
   39.6131   27.4604   43.9458 H   0  0  0  0  0  0  0  0  0  0  0  0
   37.3832   26.2723   43.6848 H   0  0  0  0  0  0  0  0  0  0  0  0
   35.5700   27.3623   42.2967 H   0  0  0  0  0  0  0  0  0  0  0  0
   40.6666   33.0897   40.7674 H   0  0  0  0  0  0  0  0  0  0  0  0
   38.2162   33.7426   39.9455 H   0  0  0  0  0  0  0  0  0  0  0  0
   35.7346   30.8731   40.9378 H   0  0  0  0  0  0  0  0  0  0  0  0
  2  1  2  0
  3  2  1  0
  4  5  1  0
  4  3  2  0
  5  6  2  0
  6  1  1  0
  7  8  1  0
  7  5  1  0
  9  8  2  0
 10 11  2  0
 10  9  1  0
 11  7  1  0
 12 11  1  0
  1 13  1  0
  2 14  1  0
  3 15  1  0
  9 16  1  0
 10 17  1  0
 12 18  1  0
M  ISO  6  13  14  14  14  15  14  16  14  17  14  18   3
M  END
>  <minimizedAffinity>  (1) 
-4.06611967

>  <minimizedRMSD>  (1) 
0.882736742

$$$$
