
     RDKit          3D

 39 42  0  0  0  0  0  0  0  0999 V2000
   39.6910   27.7480   43.4750 C   0  0  0  0  0  0  0  0  0  0  0  0
   39.0420   26.4900   43.4230 C   0  0  0  0  0  0  0  0  0  0  0  0
   38.0740   26.3070   42.4260 C   0  0  0  0  0  0  0  0  0  0  0  0
   37.8140   27.3170   41.5820 N   0  0  0  0  0  0  0  0  0  0  0  0
   38.4430   28.5060   41.6480 C   0  0  0  0  0  0  0  0  0  0  0  0
   39.3830   28.7180   42.5970 N   0  0  0  0  0  0  0  0  0  0  0  0
   37.3460   25.1170   42.2480 N   0  0  0  0  0  0  0  0  0  0  0  0
   38.1710   29.5830   40.7550 N   0  0  0  0  0  0  0  0  0  0  0  0
   37.3220   29.3240   39.7450 C   0  0  0  0  0  0  0  0  0  0  0  0
   36.9500   30.2550   38.7870 C   0  0  0  0  0  0  0  0  0  0  0  0
   37.4950   31.5140   38.9000 C   0  0  0  0  0  0  0  0  0  0  0  0
   37.2070   32.4150   38.0710 O   0  0  0  0  0  0  0  0  0  0  0  0
   38.3500   31.7460   39.9300 N   0  0  0  0  0  0  0  0  0  0  0  0
   38.6910   30.8290   40.8390 C   0  0  0  0  0  0  0  0  0  0  0  0
   39.4730   31.0430   41.7810 O   0  0  0  0  0  0  0  0  0  0  0  0
   38.9490   33.0100   40.1130 C   0  0  0  0  0  0  0  0  0  0  0  0
   38.2610   34.1700   40.0850 N   0  0  0  0  0  0  0  0  0  0  0  0
   38.9020   35.3490   40.2680 C   0  0  0  0  0  0  0  0  0  0  0  0
   40.2500   35.3660   40.4820 N   0  0  0  0  0  0  0  0  0  0  0  0
   40.9710   34.2430   40.5170 C   0  0  0  0  0  0  0  0  0  0  0  0
   42.3300   34.3390   40.7380 C   0  0  0  0  0  0  0  0  0  0  0  0
   43.0250   33.1460   40.7640 C   0  0  0  0  0  0  0  0  0  0  0  0
   42.4500   31.8910   40.5850 C   0  0  0  0  0  0  0  0  0  0  0  0
   41.0700   31.9020   40.3690 C   0  0  0  0  0  0  0  0  0  0  0  0
   40.3180   33.0420   40.3310 C   0  0  0  0  0  0  0  0  0  0  0  0
   36.0070   29.9020   37.6990 C   0  0  0  0  0  0  0  0  0  0  0  0
   40.4562   27.9333   44.2432 H   0  0  0  0  0  0  0  0  0  0  0  0
   39.2877   25.6893   44.1361 H   0  0  0  0  0  0  0  0  0  0  0  0
   36.6475   25.0484   41.4941 H   0  0  0  0  0  0  0  0  0  0  0  0
   37.5113   24.3140   42.8715 H   0  0  0  0  0  0  0  0  0  0  0  0
   36.8967   28.3120   39.6744 H   0  0  0  0  0  0  0  0  0  0  0  0
   38.3366   36.2923   40.2442 H   0  0  0  0  0  0  0  0  0  0  0  0
   42.8296   35.3079   40.8847 H   0  0  0  0  0  0  0  0  0  0  0  0
   44.1101   33.1906   40.9386 H   0  0  0  0  0  0  0  0  0  0  0  0
   43.0376   30.9615   40.6116 H   0  0  0  0  0  0  0  0  0  0  0  0
   40.5601   30.9386   40.2212 H   0  0  0  0  0  0  0  0  0  0  0  0
   35.0609   29.5478   38.1343 H   0  0  0  0  0  0  0  0  0  0  0  0
   35.8153   30.7893   37.0777 H   0  0  0  0  0  0  0  0  0  0  0  0
   36.4450   29.1070   37.0777 H   0  0  0  0  0  0  0  0  0  0  0  0
  2  1  2  0
  3  2  1  0
  4  5  1  0
  4  3  2  0
  5  6  2  0
  6  1  1  0
  7  3  1  0
  8 14  1  0
  8  5  1  0
  9  8  1  0
 10 11  1  0
 10  9  2  0
 11 13  1  0
 12 11  2  0
 13 16  1  0
 13 14  1  0
 14 15  2  0
 16 25  1  0
 17 16  2  0
 17 18  1  0
 18 19  2  0
 19 20  1  0
 20 21  2  0
 21 22  1  0
 23 22  2  0
 24 23  1  0
 25 24  2  0
 25 20  1  0
 26 10  1  0
  1 27  1  0
  2 28  1  0
  7 29  1  0
  7 30  1  0
  9 31  1  0
 18 32  1  0
 21 33  1  0
 22 34  1  0
 23 35  1  0
 24 36  1  0
 26 37  1  0
 26 38  1  0
 26 39  1  0
M  ISO  8  27  14  28  14  31  14  32  14  33  14  34  14  35  14  36  14
M  ISO  3  37   8  38   8  39   8
M  END
>  <minimizedAffinity>  (1) 
-7.00819683

>  <minimizedRMSD>  (1) 
1.84091461

$$$$
