
     RDKit          3D

 34 36  0  0  0  0  0  0  0  0999 V2000
   39.6620   27.8710   43.3040 C   0  0  0  0  0  0  0  0  0  0  0  0
   38.8950   26.6810   43.3590 C   0  0  0  0  0  0  0  0  0  0  0  0
   37.8910   26.5180   42.3960 C   0  0  0  0  0  0  0  0  0  0  0  0
   37.7040   27.4870   41.4730 N   0  0  0  0  0  0  0  0  0  0  0  0
   38.4530   28.6120   41.4470 C   0  0  0  0  0  0  0  0  0  0  0  0
   39.4290   28.8110   42.3520 N   0  0  0  0  0  0  0  0  0  0  0  0
   37.0650   25.3840   42.3460 N   0  0  0  0  0  0  0  0  0  0  0  0
   38.2770   29.6510   40.4850 N   0  0  0  0  0  0  0  0  0  0  0  0
   37.4530   29.3460   39.4470 C   0  0  0  0  0  0  0  0  0  0  0  0
   37.1520   30.2130   38.4130 C   0  0  0  0  0  0  0  0  0  0  0  0
   37.7400   31.4550   38.4650 C   0  0  0  0  0  0  0  0  0  0  0  0
   37.5120   32.2940   37.5600 O   0  0  0  0  0  0  0  0  0  0  0  0
   38.5490   31.7310   39.5010 N   0  0  0  0  0  0  0  0  0  0  0  0
   38.8280   30.8730   40.4960 C   0  0  0  0  0  0  0  0  0  0  0  0
   39.5810   31.1110   41.4720 O   0  0  0  0  0  0  0  0  0  0  0  0
   39.1810   33.0040   39.5990 C   0  0  0  0  0  0  0  0  0  0  0  0
   38.4200   33.9920   40.2290 C   0  0  0  0  0  0  0  0  0  0  0  0
   38.9880   35.2600   40.3550 C   0  0  0  0  0  0  0  0  0  0  0  0
   40.2550   35.4040   39.8400 C   0  0  0  0  0  0  0  0  0  0  0  0
   41.0190   34.4380   39.2170 C   0  0  0  0  0  0  0  0  0  0  0  0
   40.4240   33.2270   39.1190 N   0  0  0  0  0  0  0  0  0  0  0  0
   36.2350   29.8010   37.3060 C   0  0  0  0  0  0  0  0  0  0  0  0
   40.4588   28.0361   44.0441 H   0  0  0  0  0  0  0  0  0  0  0  0
   39.0805   25.9158   44.1272 H   0  0  0  0  0  0  0  0  0  0  0  0
   36.3391   25.3072   41.6193 H   0  0  0  0  0  0  0  0  0  0  0  0
   37.1848   24.6288   43.0360 H   0  0  0  0  0  0  0  0  0  0  0  0
   36.9967   28.3453   39.4289 H   0  0  0  0  0  0  0  0  0  0  0  0
   37.4110   33.7781   40.6113 H   0  0  0  0  0  0  0  0  0  0  0  0
   38.4553   36.0932   40.8366 H   0  0  0  0  0  0  0  0  0  0  0  0
   40.7106   36.4007   39.9353 H   0  0  0  0  0  0  0  0  0  0  0  0
   42.0299   34.6367   38.8314 H   0  0  0  0  0  0  0  0  0  0  0  0
   35.3098   29.3853   37.7318 H   0  0  0  0  0  0  0  0  0  0  0  0
   35.9922   30.6766   36.6859 H   0  0  0  0  0  0  0  0  0  0  0  0
   36.7284   29.0380   36.6859 H   0  0  0  0  0  0  0  0  0  0  0  0
  1  2  2  0
  3  2  1  0
  4  3  2  0
  5  4  1  0
  5  6  2  0
  6  1  1  0
  7  3  1  0
  8 14  1  0
  8  5  1  0
  9  8  1  0
 10 11  1  0
 10  9  2  0
 11 13  1  0
 12 11  2  0
 13 16  1  0
 13 14  1  0
 14 15  2  0
 16 17  2  0
 17 18  1  0
 19 18  2  0
 20 19  1  0
 21 20  2  0
 21 16  1  0
 22 10  1  0
  1 23  1  0
  2 24  1  0
  7 25  1  0
  7 26  1  0
  9 27  1  0
 17 28  1  0
 18 29  1  0
 19 30  1  0
 20 31  1  0
 22 32  1  0
 22 33  1  0
 22 34  1  0
M  ISO  8  23  14  24  14  27  14  28  14  29  14  30  14  31  14  32   8
M  ISO  2  33   8  34   8
M  END
>  <minimizedAffinity>  (1) 
-6.07505035

>  <minimizedRMSD>  (1) 
1.76357758

$$$$
