
     RDKit          3D

 37 39  0  0  1  0  0  0  0  0999 V2000
   38.2950   28.3030   43.5910 C   0  0  0  0  0  0  0  0  0  0  0  0
   37.8140   26.9800   43.4910 C   0  0  0  0  0  0  0  0  0  0  0  0
   37.3000   26.5810   42.2500 C   0  0  0  0  0  0  0  0  0  0  0  0
   37.2950   27.4680   41.2430 N   0  0  0  0  0  0  0  0  0  0  0  0
   37.7600   28.7300   41.3600 C   0  0  0  0  0  0  0  0  0  0  0  0
   38.2610   29.1430   42.5400 N   0  0  0  0  0  0  0  0  0  0  0  0
   36.7900   25.3000   42.0070 N   0  0  0  0  0  0  0  0  0  0  0  0
   37.7590   29.6800   40.2970 N   0  0  0  0  0  0  0  0  0  0  0  0
   37.2750   29.2450   39.1170 C   0  0  0  0  0  0  0  0  0  0  0  0
   37.1940   30.0130   37.9800 C   0  0  0  0  0  0  0  0  0  0  0  0
   37.6440   31.3130   38.0840 C   0  0  0  0  0  0  0  0  0  0  0  0
   37.6040   32.0840   37.0840 O   0  0  0  0  0  0  0  0  0  0  0  0
   38.1290   31.7300   39.2850 N   0  0  0  0  0  0  0  0  0  0  0  0
   38.1890   30.9490   40.3670 C   0  0  0  0  0  0  0  0  0  0  0  0
   38.6300   31.3220   41.4660 O   0  0  0  0  0  0  0  0  0  0  0  0
   38.0000   33.8230   40.4600 N   0  0  0  0  0  0  0  0  0  0  0  0
   38.7600   35.0730   40.4420 C   0  0  0  0  0  0  0  0  0  0  0  0
   40.0990   34.7700   39.8640 C   0  0  0  0  0  0  0  0  0  0  0  0
   40.0460   33.2480   39.6750 C   0  0  0  0  0  0  0  0  0  0  0  0
   38.5810   33.0830   39.3320 C   0  0  1  0  0  0  0  0  0  0  0  0
   36.6490   29.4700   36.7110 C   0  0  0  0  0  0  0  0  0  0  0  0
   38.7065   28.6552   44.5484 H   0  0  0  0  0  0  0  0  0  0  0  0
   37.8414   26.2925   44.3492 H   0  0  0  0  0  0  0  0  0  0  0  0
   36.4241   25.0597   41.0747 H   0  0  0  0  0  0  0  0  0  0  0  0
   36.7807   24.5979   42.7606 H   0  0  0  0  0  0  0  0  0  0  0  0
   36.9209   28.2051   39.0599 H   0  0  0  0  0  0  0  0  0  0  0  0
   38.1360   33.3172   41.3469 H   0  0  0  0  0  0  0  0  0  0  0  0
   38.2423   35.8192   39.8213 H   0  0  0  0  0  0  0  0  0  0  0  0
   38.8585   35.4831   41.4579 H   0  0  0  0  0  0  0  0  0  0  0  0
   40.2420   35.2847   38.9024 H   0  0  0  0  0  0  0  0  0  0  0  0
   40.9343   35.1032   40.4975 H   0  0  0  0  0  0  0  0  0  0  0  0
   40.6985   32.9145   38.8546 H   0  0  0  0  0  0  0  0  0  0  0  0
   40.3915   32.6593   40.5376 H   0  0  0  0  0  0  0  0  0  0  0  0
   38.3132   33.4341   38.3245 H   0  0  0  0  0  0  0  0  0  0  0  0
   35.8861   28.7099   36.9351 H   0  0  0  0  0  0  0  0  0  0  0  0
   36.1945   30.2851   36.1286 H   0  0  0  0  0  0  0  0  0  0  0  0
   37.4624   29.0126   36.1286 H   0  0  0  0  0  0  0  0  0  0  0  0
  2  1  2  0
  3  2  1  0
  4  5  1  0
  4  3  2  0
  5  6  2  0
  6  1  1  0
  7  3  1  0
  8 14  1  0
  8  5  1  0
  9  8  1  0
 10 11  1  0
 10  9  2  0
 11 13  1  0
 12 11  2  0
 13 14  1  0
 14 15  2  0
 17 16  1  0
 18 17  1  0
 19 18  1  0
 20 13  1  0
 20 19  1  0
 20 16  1  0
 21 10  1  0
  1 22  1  0
  2 23  1  0
  7 24  1  0
  7 25  1  0
  9 26  1  0
 16 27  1  0
 17 28  1  0
 17 29  1  0
 18 30  1  0
 18 31  1  0
 19 32  1  0
 19 33  1  0
 20 34  1  6
 21 35  1  0
 21 36  1  0
 21 37  1  0
M  ISO  8  22  14  23  14  26  14  27   5  28  13  29  13  30  13  31  13
M  ISO  6  32  13  33  13  34  13  35   8  36   8  37   8
M  END
>  <minimizedAffinity>  (1) 
-5.74243259

>  <minimizedRMSD>  (1) 
1.01366258

$$$$
