
     RDKit          3D

 32 34  0  0  0  0  0  0  0  0999 V2000
   38.5530   27.8090   43.5110 C   0  0  0  0  0  0  0  0  0  0  0  0
   38.0650   26.5150   43.2930 C   0  0  0  0  0  0  0  0  0  0  0  0
   37.4850   26.2520   42.0320 C   0  0  0  0  0  0  0  0  0  0  0  0
   37.4360   27.2460   41.1290 N   0  0  0  0  0  0  0  0  0  0  0  0
   37.9080   28.4720   41.3590 C   0  0  0  0  0  0  0  0  0  0  0  0
   38.4700   28.7610   42.5540 N   0  0  0  0  0  0  0  0  0  0  0  0
   36.9570   25.0050   41.6720 N   0  0  0  0  0  0  0  0  0  0  0  0
   37.8630   29.5340   40.4120 N   0  0  0  0  0  0  0  0  0  0  0  0
   37.2440   29.2740   39.2430 C   0  0  0  0  0  0  0  0  0  0  0  0
   37.0940   30.1580   38.2010 C   0  0  0  0  0  0  0  0  0  0  0  0
   37.6320   31.4190   38.3970 C   0  0  0  0  0  0  0  0  0  0  0  0
   37.5340   32.2870   37.4860 O   0  0  0  0  0  0  0  0  0  0  0  0
   38.2440   31.6590   39.5700 N   0  0  0  0  0  0  0  0  0  0  0  0
   38.3710   30.7710   40.5600 C   0  0  0  0  0  0  0  0  0  0  0  0
   38.9400   31.0060   41.6400 O   0  0  0  0  0  0  0  0  0  0  0  0
   38.7790   32.9680   39.7210 C   0  0  0  0  0  0  0  0  0  0  0  0
   38.2310   34.1080   40.1420 C   0  0  0  0  0  0  0  0  0  0  0  0
   38.9360   35.2760   40.2110 C   0  0  0  0  0  0  0  0  0  0  0  0
   40.3560   35.1040   39.7630 C   0  0  0  0  0  0  0  0  0  0  0  0
   40.4440   33.2850   39.3170 S   0  0  0  0  0  0  0  0  0  0  0  0
   36.3910   29.7760   36.9410 C   0  0  0  0  0  0  0  0  0  0  0  0
   39.0128   28.0561   44.4793 H   0  0  0  0  0  0  0  0  0  0  0  0
   38.1303   25.7379   44.0688 H   0  0  0  0  0  0  0  0  0  0  0  0
   36.5457   24.8703   40.7373 H   0  0  0  0  0  0  0  0  0  0  0  0
   36.9802   24.2231   42.3420 H   0  0  0  0  0  0  0  0  0  0  0  0
   36.8222   28.2667   39.1115 H   0  0  0  0  0  0  0  0  0  0  0  0
   37.1734   34.1081   40.4446 H   0  0  0  0  0  0  0  0  0  0  0  0
   38.5114   36.2307   40.5550 H   0  0  0  0  0  0  0  0  0  0  0  0
   41.1525   35.8607   39.7090 H   0  0  0  0  0  0  0  0  0  0  0  0
   35.4490   29.2642   37.1874 H   0  0  0  0  0  0  0  0  0  0  0  0
   36.1741   30.6803   36.3535 H   0  0  0  0  0  0  0  0  0  0  0  0
   37.0318   29.1020   36.3535 H   0  0  0  0  0  0  0  0  0  0  0  0
  2  1  2  0
  3  2  1  0
  4  5  1  0
  4  3  2  0
  5  6  2  0
  6  1  1  0
  7  3  1  0
  8 14  1  0
  8  5  1  0
  9  8  1  0
 10 11  1  0
 10  9  2  0
 11 13  1  0
 12 11  2  0
 13 16  1  0
 13 14  1  0
 14 15  2  0
 16 17  2  0
 17 18  1  0
 19 18  2  0
 20 16  1  0
 20 19  1  0
 21 10  1  0
  1 22  1  0
  2 23  1  0
  7 24  1  0
  7 25  1  0
  9 26  1  0
 17 27  1  0
 18 28  1  0
 19 29  1  0
 21 30  1  0
 21 31  1  0
 21 32  1  0
M  ISO  8  22  14  23  14  26  14  27  14  28  14  29  14  30   8  31   8
M  ISO  1  32   8
M  END
>  <minimizedAffinity>  (1) 
-5.65008831

>  <minimizedRMSD>  (1) 
1.18598533

$$$$
