
     RDKit          3D

 41 43  0  0  1  0  0  0  0  0999 V2000
   40.4970   32.2790   40.1310 C   0  0  0  0  0  0  0  0  0  0  0  0
   40.6440   33.3500   41.0240 C   0  0  0  0  0  0  0  0  0  0  0  0
   41.3930   34.3560   40.3860 C   0  0  0  0  0  0  0  0  0  0  0  0
   41.6350   33.8080   39.1490 C   0  0  0  0  0  0  0  0  0  0  0  0
   41.1180   32.6430   39.0430 O   0  0  0  0  0  0  0  0  0  0  0  0
   38.1570   29.5900   41.1340 C   0  0  0  0  0  0  0  0  0  0  0  0
   38.7870   28.4180   40.6010 C   0  0  0  0  0  0  0  0  0  0  0  0
   39.9680   28.7060   39.9440 C   0  0  0  0  0  0  0  0  0  0  0  0
   40.4620   29.9480   39.8230 N   0  0  0  0  0  0  0  0  0  0  0  0
   39.8010   31.0270   40.3610 C   0  0  0  0  0  0  0  0  0  0  0  0
   38.6770   30.8220   40.9970 N   0  0  0  0  0  0  0  0  0  0  0  0
   38.1530   27.1810   40.8020 N   0  0  0  0  0  0  0  0  0  0  0  0
   38.1920   26.4510   42.0050 C   0  0  0  0  0  0  0  0  0  0  0  0
   39.3120   26.4940   42.7050 N   0  0  0  0  0  0  0  0  0  0  0  0
   36.9880   25.7290   42.3440 N   0  0  0  0  0  0  0  0  0  0  0  0
   39.4150   25.9750   43.5750 H   0  0  0  0  0  0  0  0  0  0  0  0
   42.4110   34.5540   38.1320 C   0  0  0  0  0  0  0  0  0  0  0  0
   42.3070   33.9120   36.8990 F   0  0  0  0  0  0  0  0  0  0  0  0
   41.9230   35.8450   38.0040 F   0  0  0  0  0  0  0  0  0  0  0  0
   43.7600   34.5450   38.4330 F   0  0  0  0  0  0  0  0  0  0  0  0
   41.7520   35.5720   41.0920 C   0  0  0  0  0  0  0  0  0  0  0  0
   41.0150   36.6670   40.9860 O   0  0  0  0  0  0  0  0  0  0  0  0
   42.8850   35.8590   42.0140 C   0  0  0  0  0  0  0  0  0  0  0  0
   44.1720   35.3880   42.1010 C   0  0  0  0  0  0  0  0  0  0  0  0
   45.0950   35.7320   43.0450 C   0  0  0  0  0  0  0  0  0  0  0  0
   44.7540   36.6430   44.0410 C   0  0  0  0  0  0  0  0  0  0  0  0
   43.5010   37.1560   44.0330 C   0  0  0  0  0  0  0  0  0  0  0  0
   42.6300   36.7690   43.0600 C   0  0  0  0  0  0  0  0  0  0  0  0
   40.2428   33.3959   42.0472 H   0  0  0  0  0  0  0  0  0  0  0  0
   37.2078   29.4765   41.6782 H   0  0  0  0  0  0  0  0  0  0  0  0
   40.5324   27.8743   39.4971 H   0  0  0  0  0  0  0  0  0  0  0  0
   37.6230   26.7803   40.0149 H   0  0  0  0  0  0  0  0  0  0  0  0
   36.9472   25.1738   43.2106 H   0  0  0  0  0  0  0  0  0  0  0  0
   36.1702   25.7693   41.7192 H   0  0  0  0  0  0  0  0  0  0  0  0
   42.3549   35.8943   40.2302 H   0  0  0  0  0  0  0  0  0  0  0  0
   40.7896   37.0019   41.8900 H   0  0  0  0  0  0  0  0  0  0  0  0
   44.4892   34.6638   41.3362 H   0  0  0  0  0  0  0  0  0  0  0  0
   46.1029   35.2921   43.0193 H   0  0  0  0  0  0  0  0  0  0  0  0
   45.4813   36.9374   44.8119 H   0  0  0  0  0  0  0  0  0  0  0  0
   43.1901   37.8770   44.8034 H   0  0  0  0  0  0  0  0  0  0  0  0
   41.6238   37.2122   43.0939 H   0  0  0  0  0  0  0  0  0  0  0  0
  1 10  1  0
  1  2  2  0
  3  2  1  0
  3 21  1  0
  4  3  2  0
  5  4  1  0
  5  1  1  0
  7 12  1  0
  7  6  2  0
  8  7  1  0
  9  8  2  0
  9 10  1  0
 10 11  2  0
 11  6  1  0
 12 13  1  0
 13 15  1  0
 13 14  2  0
 14 16  1  0
 17 20  1  0
 17  4  1  0
 18 17  1  0
 19 17  1  0
 21 22  1  0
 21 23  1  0
 23 24  2  0
 23 28  1  0
 24 25  1  0
 25 26  2  0
 27 26  1  0
 28 27  2  0
  2 29  1  0
  6 30  1  0
  8 31  1  0
 12 32  1  0
 15 33  1  0
 15 34  1  0
 21 35  1  0
 22 36  1  0
 24 37  1  0
 25 38  1  0
 26 39  1  0
 27 40  1  0
 28 41  1  0
M  ISO  8  29  14  30  14  31  14  35   8  36   3  37  14  38  14  39  14
M  ISO  2  40  14  41  14
M  END
>  <minimizedAffinity>  (1) 
-6.01262093

>  <minimizedRMSD>  (1) 
2.31651211

$$$$
