
     RDKit          3D

 49 53  0  0  0  0  0  0  0  0999 V2000
   38.9620   26.2270   43.2470 C   0  0  0  0  0  0  0  0  0  0  0  0
   39.3380   27.5670   43.5590 C   0  0  0  0  0  0  0  0  0  0  0  0
   38.8680   28.5550   42.7100 C   0  0  0  0  0  0  0  0  0  0  0  0
   38.1020   28.2150   41.6630 N   0  0  0  0  0  0  0  0  0  0  0  0
   37.7600   26.9480   41.3890 C   0  0  0  0  0  0  0  0  0  0  0  0
   38.1890   25.9490   42.1790 N   0  0  0  0  0  0  0  0  0  0  0  0
   39.1690   29.8940   42.9130 N   0  0  0  0  0  0  0  0  0  0  0  0
   36.9450   26.5750   40.2810 N   0  0  0  0  0  0  0  0  0  0  0  0
   36.3700   27.5820   39.5940 C   0  0  0  0  0  0  0  0  0  0  0  0
   35.5470   27.4090   38.4790 C   0  0  0  0  0  0  0  0  0  0  0  0
   35.3300   26.1200   38.0810 C   0  0  0  0  0  0  0  0  0  0  0  0
   34.6050   25.8870   37.0960 O   0  0  0  0  0  0  0  0  0  0  0  0
   35.9170   25.1370   38.7840 N   0  0  0  0  0  0  0  0  0  0  0  0
   36.7020   25.3320   39.8520 C   0  0  0  0  0  0  0  0  0  0  0  0
   37.2470   24.4090   40.5040 O   0  0  0  0  0  0  0  0  0  0  0  0
   35.7250   23.7750   38.4140 C   0  0  0  0  0  0  0  0  0  0  0  0
   36.5780   23.2110   37.4940 C   0  0  0  0  0  0  0  0  0  0  0  0
   36.3930   21.8950   37.1340 C   0  0  0  0  0  0  0  0  0  0  0  0
   35.3550   21.1980   37.7110 C   0  0  0  0  0  0  0  0  0  0  0  0
   34.4980   21.7440   38.6260 C   0  0  0  0  0  0  0  0  0  0  0  0
   34.6750   23.0710   38.9990 C   0  0  0  0  0  0  0  0  0  0  0  0
   35.0100   28.6080   37.7790 C   0  0  0  0  0  0  0  0  0  0  0  0
   36.0550   29.6490   37.7850 C   0  0  0  0  0  0  0  0  0  0  0  0
   36.7170   29.8010   36.5520 C   0  0  0  0  0  0  0  0  0  0  0  0
   37.6110   30.8060   36.6000 N   0  0  0  0  0  0  0  0  0  0  0  0
   37.5830   31.3440   37.8260 C   0  0  0  0  0  0  0  0  0  0  0  0
   38.2060   32.3440   38.5410 C   0  0  0  0  0  0  0  0  0  0  0  0
   37.8950   32.6050   39.8710 C   0  0  0  0  0  0  0  0  0  0  0  0
   36.9290   31.8520   40.5410 C   0  0  0  0  0  0  0  0  0  0  0  0
   36.2960   30.8480   39.8420 C   0  0  0  0  0  0  0  0  0  0  0  0
   36.6400   30.6340   38.5280 C   0  0  0  0  0  0  0  0  0  0  0  0
   39.3096   25.4052   43.8903 H   0  0  0  0  0  0  0  0  0  0  0  0
   39.9685   27.8034   44.4288 H   0  0  0  0  0  0  0  0  0  0  0  0
   38.8055   30.6075   42.2652 H   0  0  0  0  0  0  0  0  0  0  0  0
   39.7559   30.1746   43.7115 H   0  0  0  0  0  0  0  0  0  0  0  0
   36.5620   28.6101   39.9347 H   0  0  0  0  0  0  0  0  0  0  0  0
   37.3945   23.8017   37.0531 H   0  0  0  0  0  0  0  0  0  0  0  0
   37.0583   21.4121   36.4031 H   0  0  0  0  0  0  0  0  0  0  0  0
   35.2075   20.1473   37.4207 H   0  0  0  0  0  0  0  0  0  0  0  0
   33.6838   21.1442   39.0587 H   0  0  0  0  0  0  0  0  0  0  0  0
   34.0083   23.5493   39.7316 H   0  0  0  0  0  0  0  0  0  0  0  0
   34.1149   28.9754   38.3022 H   0  0  0  0  0  0  0  0  0  0  0  0
   34.7321   28.3532   36.7456 H   0  0  0  0  0  0  0  0  0  0  0  0
   36.5282   29.1791   35.6645 H   0  0  0  0  0  0  0  0  0  0  0  0
   38.2156   31.1104   35.8236 H   0  0  0  0  0  0  0  0  0  0  0  0
   38.9737   32.9551   38.0438 H   0  0  0  0  0  0  0  0  0  0  0  0
   38.4167   33.4150   40.4019 H   0  0  0  0  0  0  0  0  0  0  0  0
   36.6813   32.0540   41.5935 H   0  0  0  0  0  0  0  0  0  0  0  0
   35.5279   30.2276   40.3270 H   0  0  0  0  0  0  0  0  0  0  0  0
  1  2  2  0
  3  7  1  0
  3  2  1  0
  4  3  2  0
  5  4  1  0
  5  6  2  0
  6  1  1  0
  8  5  1  0
  9  8  1  0
 10  9  2  0
 11 10  1  0
 11 13  1  0
 12 11  2  0
 13 14  1  0
 14  8  1  0
 14 15  2  0
 16 13  1  0
 16 21  1  0
 17 16  2  0
 18 17  1  0
 18 19  2  0
 19 20  1  0
 20 21  2  0
 22 23  1  0
 22 10  1  0
 23 31  1  0
 24 25  1  0
 24 23  2  0
 25 26  1  0
 26 31  2  0
 26 27  1  0
 27 28  2  0
 28 29  1  0
 30 29  2  0
 31 30  1  0
  1 32  1  0
  2 33  1  0
  7 34  1  0
  7 35  1  0
  9 36  1  0
 17 37  1  0
 18 38  1  0
 19 39  1  0
 20 40  1  0
 21 41  1  0
 22 42  1  0
 22 43  1  0
 24 44  1  0
 25 45  1  0
 27 46  1  0
 28 47  1  0
 29 48  1  0
 30 49  1  0
M  ISO  8  32  14  33  14  36  14  37  14  38  14  39  14  40  14  41  14
M  ISO  8  42   8  43   8  44  14  45   9  46  14  47  14  48  14  49  14
M  END
>  <minimizedAffinity>  (1) 
-6.59459114

>  <minimizedRMSD>  (1) 
7.01670265

$$$$
