
     RDKit          3D

 51 54  0  0  0  0  0  0  0  0999 V2000
   39.4570   27.8040   43.3940 C   0  0  0  0  0  0  0  0  0  0  0  0
   38.8710   26.5230   43.3580 C   0  0  0  0  0  0  0  0  0  0  0  0
   38.0660   26.2480   42.2630 C   0  0  0  0  0  0  0  0  0  0  0  0
   37.8820   27.1860   41.3120 N   0  0  0  0  0  0  0  0  0  0  0  0
   38.4580   28.3950   41.3810 C   0  0  0  0  0  0  0  0  0  0  0  0
   39.2450   28.7120   42.4180 N   0  0  0  0  0  0  0  0  0  0  0  0
   37.4130   25.0150   42.0770 N   0  0  0  0  0  0  0  0  0  0  0  0
   38.2880   29.4030   40.3880 N   0  0  0  0  0  0  0  0  0  0  0  0
   37.6120   29.0480   39.2720 C   0  0  0  0  0  0  0  0  0  0  0  0
   37.3550   29.8810   38.2010 C   0  0  0  0  0  0  0  0  0  0  0  0
   37.8330   31.1610   38.3040 C   0  0  0  0  0  0  0  0  0  0  0  0
   37.6450   31.9920   37.3740 O   0  0  0  0  0  0  0  0  0  0  0  0
   38.5030   31.5080   39.4130 N   0  0  0  0  0  0  0  0  0  0  0  0
   38.7350   30.6650   40.4400 C   0  0  0  0  0  0  0  0  0  0  0  0
   39.3550   30.9730   41.4740 O   0  0  0  0  0  0  0  0  0  0  0  0
   39.0270   32.8200   39.5770 C   0  0  0  0  0  0  0  0  0  0  0  0
   38.2290   33.7820   40.1380 C   0  0  0  0  0  0  0  0  0  0  0  0
   38.7570   35.0510   40.2910 C   0  0  0  0  0  0  0  0  0  0  0  0
   40.0620   35.2910   39.8730 C   0  0  0  0  0  0  0  0  0  0  0  0
   40.8570   34.3380   39.3160 C   0  0  0  0  0  0  0  0  0  0  0  0
   40.3360   33.0660   39.1600 C   0  0  0  0  0  0  0  0  0  0  0  0
   36.6230   29.3920   37.0120 C   0  0  0  0  0  0  0  0  0  0  0  0
   35.1380   29.4390   37.1150 C   0  0  0  0  0  0  0  0  0  0  0  0
   34.4940   29.1630   35.7540 C   0  0  0  0  0  0  0  0  0  0  0  0
   35.0550   27.9160   35.1290 C   0  0  0  0  0  0  0  0  0  0  0  0
   34.8270   26.7540   36.0620 C   0  0  0  0  0  0  0  0  0  0  0  0
   34.0990   27.1440   37.3050 C   0  0  0  0  0  0  0  0  0  0  0  0
   34.6400   28.3420   38.0220 C   0  0  0  0  0  0  0  0  0  0  0  0
   40.1055   28.0715   44.2413 H   0  0  0  0  0  0  0  0  0  0  0  0
   39.0425   25.7830   44.1536 H   0  0  0  0  0  0  0  0  0  0  0  0
   36.8260   24.8636   41.2443 H   0  0  0  0  0  0  0  0  0  0  0  0
   37.5222   24.2642   42.7736 H   0  0  0  0  0  0  0  0  0  0  0  0
   37.2377   28.0154   39.2127 H   0  0  0  0  0  0  0  0  0  0  0  0
   37.2014   33.5524   40.4565 H   0  0  0  0  0  0  0  0  0  0  0  0
   38.1551   35.8572   40.7358 H   0  0  0  0  0  0  0  0  0  0  0  0
   40.4722   36.3038   39.9994 H   0  0  0  0  0  0  0  0  0  0  0  0
   41.8840   34.5719   38.9989 H   0  0  0  0  0  0  0  0  0  0  0  0
   40.9424   32.2631   38.7154 H   0  0  0  0  0  0  0  0  0  0  0  0
   36.9186   28.3470   36.8369 H   0  0  0  0  0  0  0  0  0  0  0  0
   36.8924   30.0701   36.1888 H   0  0  0  0  0  0  0  0  0  0  0  0
   34.8763   30.4378   37.4944 H   0  0  0  0  0  0  0  0  0  0  0  0
   33.4093   29.0398   35.8889 H   0  0  0  0  0  0  0  0  0  0  0  0
   34.7086   30.0124   35.0888 H   0  0  0  0  0  0  0  0  0  0  0  0
   34.5498   27.7243   34.1709 H   0  0  0  0  0  0  0  0  0  0  0  0
   36.1329   28.0427   34.9498 H   0  0  0  0  0  0  0  0  0  0  0  0
   34.2370   25.9902   35.5343 H   0  0  0  0  0  0  0  0  0  0  0  0
   35.8139   26.3722   36.3624 H   0  0  0  0  0  0  0  0  0  0  0  0
   33.0542   27.3553   37.0333 H   0  0  0  0  0  0  0  0  0  0  0  0
   34.2153   26.2992   37.9998 H   0  0  0  0  0  0  0  0  0  0  0  0
   35.4765   28.0143   38.6568 H   0  0  0  0  0  0  0  0  0  0  0  0
   33.8047   28.7664   38.5984 H   0  0  0  0  0  0  0  0  0  0  0  0
  2  1  2  0
  3  2  1  0
  4  5  1  0
  4  3  2  0
  5  6  2  0
  6  1  1  0
  7  3  1  0
  8 14  1  0
  8  5  1  0
  9  8  1  0
 10 11  1  0
 10  9  2  0
 11 13  1  0
 12 11  2  0
 13 16  1  0
 13 14  1  0
 14 15  2  0
 16 17  2  0
 17 18  1  0
 19 18  2  0
 20 19  1  0
 21 20  2  0
 21 16  1  0
 22 23  1  0
 22 10  1  0
 23 28  1  0
 24 23  1  0
 25 24  1  0
 25 26  1  0
 26 27  1  0
 27 28  1  0
  1 29  1  0
  2 30  1  0
  7 31  1  0
  7 32  1  0
  9 33  1  0
 17 34  1  0
 18 35  1  0
 19 36  1  0
 20 37  1  0
 21 38  1  0
 22 39  1  0
 22 40  1  0
 23 41  1  0
 24 42  1  0
 24 43  1  0
 25 44  1  0
 25 45  1  0
 26 46  1  0
 26 47  1  0
 27 48  1  0
 27 49  1  0
 28 50  1  0
 28 51  1  0
M  ISO  8  29  14  30  14  33  14  34  14  35  14  36  14  37  14  38  14
M  ISO  8  39   8  40   8  41  13  42  13  43  13  44  13  45  13  46  13
M  ISO  5  47  13  48  13  49  13  50  13  51  13
M  END
>  <minimizedAffinity>  (1) 
-6.39680624

>  <minimizedRMSD>  (1) 
0.699773073

$$$$
