
     RDKit          3D

 43 46  0  0  0  0  0  0  0  0999 V2000
   42.0070   28.8550   43.3880 C   0  0  0  0  0  0  0  0  0  0  0  0
   41.4660   27.6000   43.7380 C   0  0  0  0  0  0  0  0  0  0  0  0
   40.1970   27.3030   43.2140 C   0  0  0  0  0  0  0  0  0  0  0  0
   39.5920   28.1990   42.4350 N   0  0  0  0  0  0  0  0  0  0  0  0
   40.1200   29.3780   42.1140 C   0  0  0  0  0  0  0  0  0  0  0  0
   41.3390   29.7260   42.5870 N   0  0  0  0  0  0  0  0  0  0  0  0
   39.5450   26.0990   43.4790 N   0  0  0  0  0  0  0  0  0  0  0  0
   39.4950   30.3520   41.2820 N   0  0  0  0  0  0  0  0  0  0  0  0
   38.3560   29.9640   40.6780 C   0  0  0  0  0  0  0  0  0  0  0  0
   37.6000   30.7420   39.8320 C   0  0  0  0  0  0  0  0  0  0  0  0
   38.0650   32.0200   39.5980 C   0  0  0  0  0  0  0  0  0  0  0  0
   37.4330   32.7950   38.8380 O   0  0  0  0  0  0  0  0  0  0  0  0
   39.2020   32.3900   40.2100 N   0  0  0  0  0  0  0  0  0  0  0  0
   39.9030   31.5980   41.0240 C   0  0  0  0  0  0  0  0  0  0  0  0
   40.9710   31.9410   41.6000 O   0  0  0  0  0  0  0  0  0  0  0  0
   39.7350   33.6960   40.0190 C   0  0  0  0  0  0  0  0  0  0  0  0
   39.1320   34.7550   40.6970 C   0  0  0  0  0  0  0  0  0  0  0  0
   39.6180   36.0270   40.5400 C   0  0  0  0  0  0  0  0  0  0  0  0
   40.7010   36.1880   39.6990 C   0  0  0  0  0  0  0  0  0  0  0  0
   41.3110   35.1520   39.0210 C   0  0  0  0  0  0  0  0  0  0  0  0
   40.8140   33.8620   39.1830 C   0  0  0  0  0  0  0  0  0  0  0  0
   36.3480   30.2130   39.2010 C   0  0  0  0  0  0  0  0  0  0  0  0
   36.5750   29.6230   37.8820 C   0  0  0  0  0  0  0  0  0  0  0  0
   35.8100   29.5280   36.7500 C   0  0  0  0  0  0  0  0  0  0  0  0
   36.2220   28.9200   35.5870 C   0  0  0  0  0  0  0  0  0  0  0  0
   37.4610   28.3770   35.5420 N   0  0  0  0  0  0  0  0  0  0  0  0
   38.2380   28.4580   36.6470 C   0  0  0  0  0  0  0  0  0  0  0  0
   37.8180   29.0550   37.7740 N   0  0  0  0  0  0  0  0  0  0  0  0
   42.9977   29.1365   43.7745 H   0  0  0  0  0  0  0  0  0  0  0  0
   42.0074   26.8939   44.3848 H   0  0  0  0  0  0  0  0  0  0  0  0
   38.6145   25.9177   43.0762 H   0  0  0  0  0  0  0  0  0  0  0  0
   39.9940   25.3911   44.0775 H   0  0  0  0  0  0  0  0  0  0  0  0
   38.0011   28.9420   40.8771 H   0  0  0  0  0  0  0  0  0  0  0  0
   38.2700   34.5703   41.3550 H   0  0  0  0  0  0  0  0  0  0  0  0
   39.1646   36.8828   41.0617 H   0  0  0  0  0  0  0  0  0  0  0  0
   41.1019   37.2030   39.5610 H   0  0  0  0  0  0  0  0  0  0  0  0
   42.1734   35.3422   38.3652 H   0  0  0  0  0  0  0  0  0  0  0  0
   41.2678   33.0065   38.6613 H   0  0  0  0  0  0  0  0  0  0  0  0
   35.9222   29.4425   39.8605 H   0  0  0  0  0  0  0  0  0  0  0  0
   35.6640   31.0639   39.0663 H   0  0  0  0  0  0  0  0  0  0  0  0
   34.8012   29.9661   36.7723 H   0  0  0  0  0  0  0  0  0  0  0  0
   35.5579   28.8760   34.7112 H   0  0  0  0  0  0  0  0  0  0  0  0
   39.2469   28.0204   36.6211 H   0  0  0  0  0  0  0  0  0  0  0  0
  1  2  2  0
  3  7  1  0
  3  2  1  0
  4  3  2  0
  5  4  1  0
  5  6  2  0
  6  1  1  0
  8  5  1  0
  9  8  1  0
 10  9  2  0
 11 10  1  0
 11 13  1  0
 12 11  2  0
 13 14  1  0
 14  8  1  0
 14 15  2  0
 16 13  1  0
 16 17  2  0
 18 17  1  0
 19 18  2  0
 20 21  2  0
 20 19  1  0
 21 16  1  0
 22 10  1  0
 23 22  1  0
 24 23  2  0
 25 24  1  0
 26 25  2  0
 26 27  1  0
 27 28  2  0
 28 23  1  0
  1 29  1  0
  2 30  1  0
  7 31  1  0
  7 32  1  0
  9 33  1  0
 17 34  1  0
 18 35  1  0
 19 36  1  0
 20 37  1  0
 21 38  1  0
 22 39  1  0
 22 40  1  0
 24 41  1  0
 25 42  1  0
 27 43  1  0
M  ISO  8  29  14  30  14  33  14  34  14  35  14  36  14  37  14  38  14
M  ISO  5  39   8  40   8  41  14  42  14  43  14
M  END
>  <minimizedAffinity>  (1) 
-6.2597537

>  <minimizedRMSD>  (1) 
1.86517966

$$$$
