
     RDKit          3D

 42 45  0  0  0  0  0  0  0  0999 V2000
   40.3120   27.8500   43.3840 C   0  0  0  0  0  0  0  0  0  0  0  0
   39.6200   26.6030   43.4950 C   0  0  0  0  0  0  0  0  0  0  0  0
   38.5160   26.4450   42.6610 C   0  0  0  0  0  0  0  0  0  0  0  0
   38.1680   27.4240   41.8300 N   0  0  0  0  0  0  0  0  0  0  0  0
   38.8370   28.5870   41.7460 C   0  0  0  0  0  0  0  0  0  0  0  0
   39.9050   28.7950   42.5230 N   0  0  0  0  0  0  0  0  0  0  0  0
   37.7500   25.2770   42.6670 N   0  0  0  0  0  0  0  0  0  0  0  0
   38.4700   29.6450   40.8570 N   0  0  0  0  0  0  0  0  0  0  0  0
   37.4830   29.3850   39.9920 C   0  0  0  0  0  0  0  0  0  0  0  0
   36.9890   30.2810   39.0550 C   0  0  0  0  0  0  0  0  0  0  0  0
   37.5740   31.5320   39.0340 C   0  0  0  0  0  0  0  0  0  0  0  0
   37.1910   32.4000   38.2250 O   0  0  0  0  0  0  0  0  0  0  0  0
   38.5640   31.7630   39.9170 N   0  0  0  0  0  0  0  0  0  0  0  0
   39.0170   30.8730   40.8080 C   0  0  0  0  0  0  0  0  0  0  0  0
   39.9340   31.0820   41.6270 O   0  0  0  0  0  0  0  0  0  0  0  0
   39.2130   33.0270   39.9540 C   0  0  0  0  0  0  0  0  0  0  0  0
   38.6470   34.0390   40.7070 C   0  0  0  0  0  0  0  0  0  0  0  0
   39.2680   35.2670   40.7510 C   0  0  0  0  0  0  0  0  0  0  0  0
   40.4380   35.4300   40.0330 C   0  0  0  0  0  0  0  0  0  0  0  0
   41.0200   34.4350   39.2750 C   0  0  0  0  0  0  0  0  0  0  0  0
   40.3780   33.2140   39.2480 C   0  0  0  0  0  0  0  0  0  0  0  0
   35.8900   29.9040   38.1380 C   0  0  0  0  0  0  0  0  0  0  0  0
   36.3510   29.3570   36.8510 C   0  0  0  0  0  0  0  0  0  0  0  0
   35.9780   29.6210   35.5520 C   0  0  0  0  0  0  0  0  0  0  0  0
   36.7210   28.8320   34.7040 C   0  0  0  0  0  0  0  0  0  0  0  0
   37.5350   28.1010   35.5290 C   0  0  0  0  0  0  0  0  0  0  0  0
   37.2830   28.4400   36.7740 O   0  0  0  0  0  0  0  0  0  0  0  0
   41.1930   28.0374   44.0154 H   0  0  0  0  0  0  0  0  0  0  0  0
   39.9400   25.8177   44.1956 H   0  0  0  0  0  0  0  0  0  0  0  0
   36.9389   25.1899   42.0382 H   0  0  0  0  0  0  0  0  0  0  0  0
   37.9963   24.5028   43.3002 H   0  0  0  0  0  0  0  0  0  0  0  0
   37.0283   28.3840   40.0264 H   0  0  0  0  0  0  0  0  0  0  0  0
   37.7139   33.8655   41.2630 H   0  0  0  0  0  0  0  0  0  0  0  0
   38.8455   36.0942   41.3402 H   0  0  0  0  0  0  0  0  0  0  0  0
   40.9343   36.4110   40.0681 H   0  0  0  0  0  0  0  0  0  0  0  0
   41.9527   34.6071   38.7179 H   0  0  0  0  0  0  0  0  0  0  0  0
   40.8001   32.3864   38.6590 H   0  0  0  0  0  0  0  0  0  0  0  0
   35.2688   29.1444   38.6351 H   0  0  0  0  0  0  0  0  0  0  0  0
   35.3306   30.8241   37.9131 H   0  0  0  0  0  0  0  0  0  0  0  0
   35.2103   30.3454   35.2423 H   0  0  0  0  0  0  0  0  0  0  0  0
   36.6722   28.7961   33.6057 H   0  0  0  0  0  0  0  0  0  0  0  0
   38.2754   27.3553   35.2040 H   0  0  0  0  0  0  0  0  0  0  0  0
  1  2  2  0
  3  7  1  0
  3  2  1  0
  4  3  2  0
  5  4  1  0
  5  6  2  0
  6  1  1  0
  8  5  1  0
  9  8  1  0
 10  9  2  0
 11 10  1  0
 11 13  1  0
 12 11  2  0
 13 16  1  0
 13 14  1  0
 14  8  1  0
 14 15  2  0
 16 17  2  0
 17 18  1  0
 19 18  2  0
 20 19  1  0
 21 20  2  0
 21 16  1  0
 22 10  1  0
 23 22  1  0
 24 23  2  0
 25 26  2  0
 25 24  1  0
 26 27  1  0
 27 23  1  0
  1 28  1  0
  2 29  1  0
  7 30  1  0
  7 31  1  0
  9 32  1  0
 17 33  1  0
 18 34  1  0
 19 35  1  0
 20 36  1  0
 21 37  1  0
 22 38  1  0
 22 39  1  0
 24 40  1  0
 25 41  1  0
 26 42  1  0
M  ISO  8  28  14  29  14  32  14  33  14  34  14  35  14  36  14  37  14
M  ISO  5  38   8  39   8  40  14  41  14  42  14
M  END
>  <minimizedAffinity>  (1) 
-6.21450996

>  <minimizedRMSD>  (1) 
0.756724477

$$$$
