
     RDKit          3D

 41 44  0  0  0  0  0  0  0  0999 V2000
   39.5210   27.9330   43.3510 C   0  0  0  0  0  0  0  0  0  0  0  0
   38.8020   26.7140   43.3930 C   0  0  0  0  0  0  0  0  0  0  0  0
   37.8390   26.5290   42.3890 C   0  0  0  0  0  0  0  0  0  0  0  0
   37.6530   27.4790   41.4720 N   0  0  0  0  0  0  0  0  0  0  0  0
   38.3500   28.6260   41.4590 C   0  0  0  0  0  0  0  0  0  0  0  0
   39.2830   28.8520   42.3980 N   0  0  0  0  0  0  0  0  0  0  0  0
   37.0640   25.3710   42.3150 N   0  0  0  0  0  0  0  0  0  0  0  0
   38.1770   29.6590   40.4890 N   0  0  0  0  0  0  0  0  0  0  0  0
   37.3760   29.3570   39.4390 C   0  0  0  0  0  0  0  0  0  0  0  0
   37.0900   30.2100   38.3970 C   0  0  0  0  0  0  0  0  0  0  0  0
   37.6640   31.4530   38.4440 C   0  0  0  0  0  0  0  0  0  0  0  0
   37.4550   32.2930   37.5400 O   0  0  0  0  0  0  0  0  0  0  0  0
   38.4590   31.7330   39.4990 N   0  0  0  0  0  0  0  0  0  0  0  0
   38.7130   30.8780   40.4890 C   0  0  0  0  0  0  0  0  0  0  0  0
   39.4580   31.1340   41.4770 O   0  0  0  0  0  0  0  0  0  0  0  0
   39.0900   33.0020   39.6110 C   0  0  0  0  0  0  0  0  0  0  0  0
   38.4110   34.0370   40.2050 C   0  0  0  0  0  0  0  0  0  0  0  0
   39.0400   35.2630   40.3050 C   0  0  0  0  0  0  0  0  0  0  0  0
   40.3210   35.3910   39.8050 C   0  0  0  0  0  0  0  0  0  0  0  0
   41.0100   34.3750   39.2130 C   0  0  0  0  0  0  0  0  0  0  0  0
   40.3850   33.1450   39.1100 C   0  0  0  0  0  0  0  0  0  0  0  0
   36.2450   29.7740   37.2670 C   0  0  0  0  0  0  0  0  0  0  0  0
   36.6490   28.3710   36.8830 C   0  0  0  0  0  0  0  0  0  0  0  0
   37.9050   28.1190   36.1570 C   0  0  0  0  0  0  0  0  0  0  0  0
   37.7820   26.2630   36.0310 S   0  0  0  0  0  0  0  0  0  0  0  0
   36.1560   26.1880   36.9270 C   0  0  0  0  0  0  0  0  0  0  0  0
   35.8470   27.3670   37.2230 N   0  0  0  0  0  0  0  0  0  0  0  0
   40.2893   28.1324   44.1126 H   0  0  0  0  0  0  0  0  0  0  0  0
   38.9875   25.9556   44.1679 H   0  0  0  0  0  0  0  0  0  0  0  0
   36.3654   25.2659   41.5655 H   0  0  0  0  0  0  0  0  0  0  0  0
   37.1905   24.6213   43.0099 H   0  0  0  0  0  0  0  0  0  0  0  0
   36.9204   28.3560   39.4174 H   0  0  0  0  0  0  0  0  0  0  0  0
   37.3913   33.8936   40.5918 H   0  0  0  0  0  0  0  0  0  0  0  0
   38.5314   36.1188   40.7728 H   0  0  0  0  0  0  0  0  0  0  0  0
   40.8142   36.3706   39.8895 H   0  0  0  0  0  0  0  0  0  0  0  0
   42.0296   34.5279   38.8296 H   0  0  0  0  0  0  0  0  0  0  0  0
   40.9001   32.2937   38.6410 H   0  0  0  0  0  0  0  0  0  0  0  0
   35.1870   29.7867   37.5678 H   0  0  0  0  0  0  0  0  0  0  0  0
   36.3781   30.4529   36.4118 H   0  0  0  0  0  0  0  0  0  0  0  0
   38.6791   28.8135   35.7986 H   0  0  0  0  0  0  0  0  0  0  0  0
   35.5750   25.2821   37.1545 H   0  0  0  0  0  0  0  0  0  0  0  0
  1  2  2  0
  3  2  1  0
  4  3  2  0
  5  4  1  0
  5  6  2  0
  6  1  1  0
  7  3  1  0
  8 14  1  0
  8  5  1  0
  9  8  1  0
 10 11  1  0
 10  9  2  0
 11 13  1  0
 12 11  2  0
 13 16  1  0
 13 14  1  0
 14 15  2  0
 16 17  2  0
 17 18  1  0
 19 18  2  0
 20 19  1  0
 21 20  2  0
 21 16  1  0
 22 10  1  0
 23 27  1  0
 23 22  1  0
 24 23  2  0
 25 24  1  0
 25 26  1  0
 26 27  2  0
  1 28  1  0
  2 29  1  0
  7 30  1  0
  7 31  1  0
  9 32  1  0
 17 33  1  0
 18 34  1  0
 19 35  1  0
 20 36  1  0
 21 37  1  0
 22 38  1  0
 22 39  1  0
 24 40  1  0
 26 41  1  0
M  ISO  8  28  14  29  14  32  14  33  14  34  14  35  14  36  14  37  14
M  ISO  4  38   8  39   8  40  14  41  14
M  END
>  <minimizedAffinity>  (1) 
-6.17090511

>  <minimizedRMSD>  (1) 
1.26440394

$$$$
