
     RDKit          3D

 48 51  0  0  0  0  0  0  0  0999 V2000
   39.2150   27.9570   43.3250 C   0  0  0  0  0  0  0  0  0  0  0  0
   38.5530   26.7150   43.2720 C   0  0  0  0  0  0  0  0  0  0  0  0
   37.7350   26.4930   42.1700 C   0  0  0  0  0  0  0  0  0  0  0  0
   37.6250   27.4530   41.2390 N   0  0  0  0  0  0  0  0  0  0  0  0
   38.2650   28.6270   41.3110 C   0  0  0  0  0  0  0  0  0  0  0  0
   39.0590   28.8830   42.3510 N   0  0  0  0  0  0  0  0  0  0  0  0
   37.0230   25.3090   41.9850 N   0  0  0  0  0  0  0  0  0  0  0  0
   38.1510   29.6490   40.3180 N   0  0  0  0  0  0  0  0  0  0  0  0
   37.4570   29.3420   39.2160 C   0  0  0  0  0  0  0  0  0  0  0  0
   37.2420   30.2100   38.1520 C   0  0  0  0  0  0  0  0  0  0  0  0
   37.7860   31.4640   38.2560 C   0  0  0  0  0  0  0  0  0  0  0  0
   37.6360   32.3020   37.3400 O   0  0  0  0  0  0  0  0  0  0  0  0
   38.4840   31.7540   39.3800 N   0  0  0  0  0  0  0  0  0  0  0  0
   38.6710   30.8800   40.3920 C   0  0  0  0  0  0  0  0  0  0  0  0
   39.3140   31.1490   41.4240 O   0  0  0  0  0  0  0  0  0  0  0  0
   39.0800   33.0310   39.5550 C   0  0  0  0  0  0  0  0  0  0  0  0
   38.3410   34.0300   40.1330 C   0  0  0  0  0  0  0  0  0  0  0  0
   38.9460   35.2640   40.2900 C   0  0  0  0  0  0  0  0  0  0  0  0
   40.2510   35.4410   39.8650 C   0  0  0  0  0  0  0  0  0  0  0  0
   40.9880   34.4500   39.2900 C   0  0  0  0  0  0  0  0  0  0  0  0
   40.3950   33.2090   39.1260 C   0  0  0  0  0  0  0  0  0  0  0  0
   36.4410   29.7630   36.9770 C   0  0  0  0  0  0  0  0  0  0  0  0
   35.6700   25.5690   37.1750 C   0  0  0  0  0  0  0  0  0  0  0  0
   36.8850   26.0670   36.6940 C   0  0  0  0  0  0  0  0  0  0  0  0
   37.0360   27.4360   36.6710 C   0  0  0  0  0  0  0  0  0  0  0  0
   36.0520   28.3370   37.0980 C   0  0  0  0  0  0  0  0  0  0  0  0
   34.8800   27.7810   37.5600 C   0  0  0  0  0  0  0  0  0  0  0  0
   34.6710   26.4200   37.6060 C   0  0  0  0  0  0  0  0  0  0  0  0
   35.4730   23.8280   37.2080 S   0  0  0  0  0  0  0  0  0  0  0  0
   34.9610   23.4110   38.5520 O   0  0  0  0  0  0  0  0  0  0  0  0
   34.4670   23.3820   36.1740 O   0  0  0  0  0  0  0  0  0  0  0  0
   39.8737   28.1792   44.1775 H   0  0  0  0  0  0  0  0  0  0  0  0
   38.6768   25.9595   44.0619 H   0  0  0  0  0  0  0  0  0  0  0  0
   36.4291   25.1900   41.1519 H   0  0  0  0  0  0  0  0  0  0  0  0
   37.0908   24.5531   42.6814 H   0  0  0  0  0  0  0  0  0  0  0  0
   37.0265   28.3321   39.1473 H   0  0  0  0  0  0  0  0  0  0  0  0
   37.3051   33.8569   40.4600 H   0  0  0  0  0  0  0  0  0  0  0  0
   38.3943   36.0977   40.7489 H   0  0  0  0  0  0  0  0  0  0  0  0
   40.7155   36.4292   39.9978 H   0  0  0  0  0  0  0  0  0  0  0  0
   42.0235   34.6300   38.9655 H   0  0  0  0  0  0  0  0  0  0  0  0
   40.9511   32.3790   38.6658 H   0  0  0  0  0  0  0  0  0  0  0  0
   37.0408   29.8941   36.0643 H   0  0  0  0  0  0  0  0  0  0  0  0
   35.5242   30.3693   36.9322 H   0  0  0  0  0  0  0  0  0  0  0  0
   37.6848   25.3952   36.3492 H   0  0  0  0  0  0  0  0  0  0  0  0
   37.9851   27.8458   36.2952 H   0  0  0  0  0  0  0  0  0  0  0  0
   34.0786   28.4503   37.9062 H   0  0  0  0  0  0  0  0  0  0  0  0
   33.7195   26.0157   37.9817 H   0  0  0  0  0  0  0  0  0  0  0  0
   36.6904   23.2576   36.9444 H   0  0  0  0  0  0  0  0  0  0  0  0
  2  1  2  0
  3  2  1  0
  4  5  1  0
  4  3  2  0
  5  6  2  0
  6  1  1  0
  7  3  1  0
  8 14  1  0
  8  5  1  0
  9  8  1  0
 10 11  1  0
 10  9  2  0
 11 13  1  0
 12 11  2  0
 13 16  1  0
 13 14  1  0
 14 15  2  0
 16 17  2  0
 17 18  1  0
 19 18  2  0
 20 19  1  0
 21 20  2  0
 21 16  1  0
 22 26  1  0
 22 10  1  0
 23 29  1  0
 23 28  2  0
 24 23  1  0
 25 24  2  0
 25 26  1  0
 26 27  2  0
 27 28  1  0
 29 30  2  0
 31 29  2  0
  1 32  1  0
  2 33  1  0
  7 34  1  0
  7 35  1  0
  9 36  1  0
 17 37  1  0
 18 38  1  0
 19 39  1  0
 20 40  1  0
 21 41  1  0
 22 42  1  0
 22 43  1  0
 24 44  1  0
 25 45  1  0
 27 46  1  0
 28 47  1  0
 29 48  1  0
M  ISO  8  32  14  33  14  36  14  37  14  38  14  39  14  40  14  41  14
M  ISO  7  42   8  43   8  44  14  45  14  46  14  47  14  48  11
M  END
>  <minimizedAffinity>  (1) 
-6.12253904

>  <minimizedRMSD>  (1) 
3.80077744

$$$$
