
     RDKit          3D

 36 38  0  0  1  0  0  0  0  0999 V2000
   40.4610   32.4870   40.5060 C   0  0  0  0  0  0  0  0  0  0  0  0
   40.5330   33.6830   41.2340 C   0  0  0  0  0  0  0  0  0  0  0  0
   41.2350   34.6210   40.4650 C   0  0  0  0  0  0  0  0  0  0  0  0
   41.5390   33.9300   39.3220 C   0  0  0  0  0  0  0  0  0  0  0  0
   41.0830   32.7220   39.3830 O   0  0  0  0  0  0  0  0  0  0  0  0
   38.3700   29.4410   40.7860 C   0  0  0  0  0  0  0  0  0  0  0  0
   38.8680   28.8560   42.0090 C   0  0  0  0  0  0  0  0  0  0  0  0
   39.8790   29.5910   42.5990 C   0  0  0  0  0  0  0  0  0  0  0  0
   40.3490   30.7400   42.0790 N   0  0  0  0  0  0  0  0  0  0  0  0
   39.8290   31.2440   40.9090 C   0  0  0  0  0  0  0  0  0  0  0  0
   38.8690   30.5860   40.3050 N   0  0  0  0  0  0  0  0  0  0  0  0
   38.3230   27.6450   42.4920 N   0  0  0  0  0  0  0  0  0  0  0  0
   37.1310   27.5670   43.2440 C   0  0  0  0  0  0  0  0  0  0  0  0
   36.9370   28.5220   44.1240 N   0  0  0  0  0  0  0  0  0  0  0  0
   36.2740   26.4460   42.9490 N   0  0  0  0  0  0  0  0  0  0  0  0
   36.0970   28.5400   44.7140 H   0  0  0  0  0  0  0  0  0  0  0  0
   42.2900   34.5330   38.2040 C   0  0  0  0  0  0  0  0  0  0  0  0
   42.1310   33.7770   37.0480 F   0  0  0  0  0  0  0  0  0  0  0  0
   41.8150   35.8170   37.9670 F   0  0  0  0  0  0  0  0  0  0  0  0
   43.6490   34.5560   38.4580 F   0  0  0  0  0  0  0  0  0  0  0  0
   41.4990   35.9560   40.9400 C   0  0  0  0  0  0  0  0  0  0  0  0
   40.9790   37.0270   40.4530 O   0  0  0  0  0  0  0  0  0  0  0  0
   42.4160   36.2400   42.0740 C   0  0  0  0  0  0  0  0  0  0  0  0
   43.6200   35.6560   42.2060 N   0  0  0  0  0  0  0  0  0  0  0  0
   44.2380   36.0960   43.2870 O   0  0  0  0  0  0  0  0  0  0  0  0
   43.4460   36.9650   43.8670 C   0  0  0  0  0  0  0  0  0  0  0  0
   42.3330   37.0700   43.1480 N   0  0  0  0  0  0  0  0  0  0  0  0
   40.1115   33.8553   42.2353 H   0  0  0  0  0  0  0  0  0  0  0  0
   37.5624   28.9341   40.2375 H   0  0  0  0  0  0  0  0  0  0  0  0
   40.3195   29.2200   43.5362 H   0  0  0  0  0  0  0  0  0  0  0  0
   38.8240   26.7695   42.2835 H   0  0  0  0  0  0  0  0  0  0  0  0
   35.3877   26.3268   43.4601 H   0  0  0  0  0  0  0  0  0  0  0  0
   36.5479   25.7643   42.2271 H   0  0  0  0  0  0  0  0  0  0  0  0
   42.3375   36.0417   40.2332 H   0  0  0  0  0  0  0  0  0  0  0  0
   40.6913   37.6196   41.1920 H   0  0  0  0  0  0  0  0  0  0  0  0
   43.6658   37.5153   44.7938 H   0  0  0  0  0  0  0  0  0  0  0  0
  1 10  1  0
  1  2  2  0
  3 21  1  0
  3  2  1  0
  4  5  1  0
  4  3  2  0
  5  1  1  0
  6  7  2  0
  7 12  1  0
  7  8  1  0
  9  8  2  0
 10  9  1  0
 11  6  1  0
 11 10  2  0
 12 13  1  0
 13 14  2  0
 14 16  1  0
 15 13  1  0
 17 20  1  0
 17  4  1  0
 18 17  1  0
 19 17  1  0
 21 22  1  0
 21 23  1  0
 23 24  2  0
 23 27  1  0
 24 25  1  0
 25 26  1  0
 27 26  2  0
  2 28  1  0
  6 29  1  0
  8 30  1  0
 12 31  1  0
 15 32  1  0
 15 33  1  0
 21 34  1  0
 22 35  1  0
 26 36  1  0
M  ISO  6  28  14  29  14  30  14  34   8  35   3  36  14
M  END
>  <minimizedAffinity>  (1) 
-5.64847231

>  <minimizedRMSD>  (1) 
1.5332762

$$$$
