
     RDKit          3D

 36 38  0  0  0  0  0  0  0  0999 V2000
   39.4880   27.8830   43.3420 C   0  0  0  0  0  0  0  0  0  0  0  0
   38.7810   26.6530   43.3330 C   0  0  0  0  0  0  0  0  0  0  0  0
   37.8680   26.4640   42.2980 C   0  0  0  0  0  0  0  0  0  0  0  0
   37.6930   27.4160   41.3750 N   0  0  0  0  0  0  0  0  0  0  0  0
   38.3830   28.5750   41.4120 C   0  0  0  0  0  0  0  0  0  0  0  0
   39.2780   28.8150   42.3890 N   0  0  0  0  0  0  0  0  0  0  0  0
   37.1160   25.2990   42.1870 N   0  0  0  0  0  0  0  0  0  0  0  0
   38.2060   29.6110   40.4310 N   0  0  0  0  0  0  0  0  0  0  0  0
   37.4190   29.3290   39.3930 C   0  0  0  0  0  0  0  0  0  0  0  0
   37.1360   30.2010   38.3580 C   0  0  0  0  0  0  0  0  0  0  0  0
   37.7220   31.4520   38.4270 C   0  0  0  0  0  0  0  0  0  0  0  0
   37.5130   32.2970   37.5240 O   0  0  0  0  0  0  0  0  0  0  0  0
   38.5160   31.7140   39.4910 N   0  0  0  0  0  0  0  0  0  0  0  0
   38.7560   30.8320   40.4630 C   0  0  0  0  0  0  0  0  0  0  0  0
   39.4950   31.0750   41.4580 O   0  0  0  0  0  0  0  0  0  0  0  0
   39.1490   32.9800   39.6240 C   0  0  0  0  0  0  0  0  0  0  0  0
   38.4470   33.9960   40.2410 C   0  0  0  0  0  0  0  0  0  0  0  0
   39.0400   35.2260   40.3810 C   0  0  0  0  0  0  0  0  0  0  0  0
   40.3220   35.3890   39.8940 C   0  0  0  0  0  0  0  0  0  0  0  0
   41.0200   34.3890   39.2830 C   0  0  0  0  0  0  0  0  0  0  0  0
   40.4270   33.1330   39.1350 C   0  0  0  0  0  0  0  0  0  0  0  0
   36.2470   29.8040   37.2350 C   0  0  0  0  0  0  0  0  0  0  0  0
   37.1060   29.5470   36.1450 O   0  0  0  0  0  0  0  0  0  0  0  0
   40.2197   28.0803   44.1393 H   0  0  0  0  0  0  0  0  0  0  0  0
   38.9456   25.8867   44.1049 H   0  0  0  0  0  0  0  0  0  0  0  0
   36.4488   25.1888   41.4101 H   0  0  0  0  0  0  0  0  0  0  0  0
   37.2264   24.5466   42.8817 H   0  0  0  0  0  0  0  0  0  0  0  0
   36.9611   28.3295   39.3571 H   0  0  0  0  0  0  0  0  0  0  0  0
   37.4272   33.8224   40.6150 H   0  0  0  0  0  0  0  0  0  0  0  0
   38.5094   36.0579   40.8671 H   0  0  0  0  0  0  0  0  0  0  0  0
   40.8031   36.3721   40.0041 H   0  0  0  0  0  0  0  0  0  0  0  0
   42.0392   34.5698   38.9107 H   0  0  0  0  0  0  0  0  0  0  0  0
   40.9583   32.3017   38.6486 H   0  0  0  0  0  0  0  0  0  0  0  0
   35.6776   28.9000   37.4969 H   0  0  0  0  0  0  0  0  0  0  0  0
   35.5131   30.5887   36.9993 H   0  0  0  0  0  0  0  0  0  0  0  0
   37.9974   29.2803   36.4831 H   0  0  0  0  0  0  0  0  0  0  0  0
  2  1  2  0
  3  2  1  0
  4  5  1  0
  4  3  2  0
  5  6  2  0
  6  1  1  0
  7  3  1  0
  8 14  1  0
  8  5  1  0
  9  8  1  0
 10 11  1  0
 10  9  2  0
 11 13  1  0
 12 11  2  0
 13 16  1  0
 13 14  1  0
 14 15  2  0
 16 17  2  0
 17 18  1  0
 19 18  2  0
 20 19  1  0
 21 20  2  0
 21 16  1  0
 22 10  1  0
 23 22  1  0
  1 24  1  0
  2 25  1  0
  7 26  1  0
  7 27  1  0
  9 28  1  0
 17 29  1  0
 18 30  1  0
 19 31  1  0
 20 32  1  0
 21 33  1  0
 22 34  1  0
 22 35  1  0
 23 36  1  0
M  ISO  8  24  14  25  14  28  14  29  14  30  14  31  14  32  14  33  14
M  ISO  3  34   8  35   8  36   3
M  END
>  <minimizedAffinity>  (1) 
-5.88238335

>  <minimizedRMSD>  (1) 
0.0538459234

$$$$
