
     RDKit          3D

 29 31  0  0  1  0  0  0  0  0999 V2000
   38.4210   32.3980   40.7420 C   0  0  0  0  0  0  0  0  0  0  0  0
   37.1340   32.2150   40.2540 C   0  0  0  0  0  0  0  0  0  0  0  0
   36.6940   30.9940   40.7270 C   0  0  0  0  0  0  0  0  0  0  0  0
   37.6910   30.4790   41.4670 N   0  0  0  0  0  0  0  0  0  0  0  0
   38.7120   31.3180   41.4710 N   0  0  0  0  0  0  0  0  0  0  0  0
   39.2520   35.8980   40.0590 C   0  0  0  0  0  0  0  0  0  0  0  0
   40.6330   35.8530   39.8450 C   0  0  0  0  0  0  0  0  0  0  0  0
   41.2860   34.6180   39.9340 C   0  0  0  0  0  0  0  0  0  0  0  0
   40.5080   33.5540   40.2260 N   0  0  0  0  0  0  0  0  0  0  0  0
   39.1900   33.6010   40.4300 C   0  0  0  0  0  0  0  0  0  0  0  0
   38.5470   34.7980   40.3450 N   0  0  0  0  0  0  0  0  0  0  0  0
   37.3470   29.4000   43.5560 N   0  0  0  0  0  0  0  0  0  0  0  0
   37.2970   27.9970   43.9850 C   0  0  0  0  0  0  0  0  0  0  0  0
   36.5390   27.3100   42.8500 C   0  0  0  0  0  0  0  0  0  0  0  0
   36.5460   28.3310   41.7070 C   0  0  0  0  0  0  0  0  0  0  0  0
   37.6800   29.2210   42.1550 C   0  0  1  0  0  0  0  0  0  0  0  0
   36.5719   32.9100   39.6129 H   0  0  0  0  0  0  0  0  0  0  0  0
   35.7147   30.5314   40.5348 H   0  0  0  0  0  0  0  0  0  0  0  0
   38.7312   36.8644   39.9903 H   0  0  0  0  0  0  0  0  0  0  0  0
   41.1949   36.7694   39.6115 H   0  0  0  0  0  0  0  0  0  0  0  0
   42.3701   34.5201   39.7752 H   0  0  0  0  0  0  0  0  0  0  0  0
   36.4382   29.8695   43.6763 H   0  0  0  0  0  0  0  0  0  0  0  0
   38.3097   27.5809   44.0912 H   0  0  0  0  0  0  0  0  0  0  0  0
   36.8176   27.8633   44.9660 H   0  0  0  0  0  0  0  0  0  0  0  0
   37.0495   26.3840   42.5467 H   0  0  0  0  0  0  0  0  0  0  0  0
   35.5195   27.0204   43.1445 H   0  0  0  0  0  0  0  0  0  0  0  0
   35.5954   28.8812   41.6456 H   0  0  0  0  0  0  0  0  0  0  0  0
   36.6656   27.8997   40.7022 H   0  0  0  0  0  0  0  0  0  0  0  0
   38.6774   28.7996   41.9614 H   0  0  0  0  0  0  0  0  0  0  0  0
  1  5  2  0
  2  3  2  0
  2  1  1  0
  3  4  1  0
  4  5  1  0
  6 11  2  0
  7  8  2  0
  7  6  1  0
  8  9  1  0
  9 10  2  0
 10  1  1  0
 11 10  1  0
 12 13  1  0
 14 13  1  0
 15 16  1  0
 15 14  1  0
 16  4  1  0
 16 12  1  0
  2 17  1  0
  3 18  1  0
  6 19  1  0
  7 20  1  0
  8 21  1  0
 12 22  1  0
 13 23  1  0
 13 24  1  0
 14 25  1  0
 14 26  1  0
 15 27  1  0
 15 28  1  0
 16 29  1  1
M  ISO  8  17  14  18  14  19  14  20  14  21  14  22   5  23  13  24  13
M  ISO  5  25  13  26  13  27  13  28  13  29  13
M  END
>  <minimizedAffinity>  (1) 
-5.78866339

>  <minimizedRMSD>  (1) 
6.32321787

$$$$
