
     RDKit          3D

 26 27  0  0  0  0  0  0  0  0999 V2000
   37.9460   31.4850   41.0640 C   0  0  0  0  0  0  0  0  0  0  0  0
   37.1230   32.1730   40.1780 C   0  0  0  0  0  0  0  0  0  0  0  0
   37.7510   33.3560   39.8460 C   0  0  0  0  0  0  0  0  0  0  0  0
   38.9310   33.3670   40.5260 N   0  0  0  0  0  0  0  0  0  0  0  0
   39.0090   32.2520   41.2310 N   0  0  0  0  0  0  0  0  0  0  0  0
   36.1690   28.3000   41.4790 C   0  0  0  0  0  0  0  0  0  0  0  0
   36.7960   27.7480   42.6030 C   0  0  0  0  0  0  0  0  0  0  0  0
   37.8260   28.4770   43.2100 C   0  0  0  0  0  0  0  0  0  0  0  0
   38.1600   29.6710   42.6800 N   0  0  0  0  0  0  0  0  0  0  0  0
   37.5440   30.1830   41.5980 C   0  0  0  0  0  0  0  0  0  0  0  0
   36.5490   29.4940   41.0010 N   0  0  0  0  0  0  0  0  0  0  0  0
   39.8930   34.4490   40.4480 C   0  0  0  0  0  0  0  0  0  0  0  0
   39.1200   35.7150   40.1480 C   0  0  0  0  0  0  0  0  0  0  0  0
   40.8610   34.2250   39.2970 C   0  0  0  0  0  0  0  0  0  0  0  0
   36.1444   31.8338   39.8075 H   0  0  0  0  0  0  0  0  0  0  0  0
   37.3737   34.1351   39.1673 H   0  0  0  0  0  0  0  0  0  0  0  0
   35.3565   27.7486   40.9831 H   0  0  0  0  0  0  0  0  0  0  0  0
   36.4879   26.7688   42.9981 H   0  0  0  0  0  0  0  0  0  0  0  0
   38.3486   28.0861   44.0955 H   0  0  0  0  0  0  0  0  0  0  0  0
   40.4556   34.5087   41.3913 H   0  0  0  0  0  0  0  0  0  0  0  0
   38.8256   36.1972   41.0918 H   0  0  0  0  0  0  0  0  0  0  0  0
   39.7528   36.4020   39.5671 H   0  0  0  0  0  0  0  0  0  0  0  0
   38.2197   35.4660   39.5671 H   0  0  0  0  0  0  0  0  0  0  0  0
   41.8593   33.9940   39.6971 H   0  0  0  0  0  0  0  0  0  0  0  0
   40.5095   33.3845   38.6806 H   0  0  0  0  0  0  0  0  0  0  0  0
   40.9145   35.1345   38.6806 H   0  0  0  0  0  0  0  0  0  0  0  0
  1  5  2  0
  1 10  1  0
  2  1  1  0
  3  2  2  0
  3  4  1  0
  4  5  1  0
  6  7  2  0
  7  8  1  0
  9  8  2  0
 10  9  1  0
 11  6  1  0
 11 10  2  0
 12  4  1  0
 13 12  1  0
 14 12  1  0
  2 15  1  0
  3 16  1  0
  6 17  1  0
  7 18  1  0
  8 19  1  0
 12 20  1  0
 13 21  1  0
 13 22  1  0
 13 23  1  0
 14 24  1  0
 14 25  1  0
 14 26  1  0
M  ISO  8  15  14  16  14  17  14  18  14  19  14  20   8  21   8  22   8
M  ISO  4  23   8  24   8  25   8  26   8
M  END
>  <minimizedAffinity>  (1) 
-4.48698521

>  <minimizedRMSD>  (1) 
2.86713433

$$$$
