
     RDKit          3D

 20 21  0  0  0  0  0  0  0  0999 V2000
   38.8560   30.7150   41.6910 C   0  0  0  0  0  0  0  0  0  0  0  0
   40.2290   30.7630   41.9650 C   0  0  0  0  0  0  0  0  0  0  0  0
   40.6690   31.9460   41.3750 C   0  0  0  0  0  0  0  0  0  0  0  0
   39.6130   32.5510   40.7930 N   0  0  0  0  0  0  0  0  0  0  0  0
   38.5340   31.8000   40.9910 N   0  0  0  0  0  0  0  0  0  0  0  0
   37.5010   28.1210   43.8970 C   0  0  0  0  0  0  0  0  0  0  0  0
   36.5210   27.4970   43.0830 C   0  0  0  0  0  0  0  0  0  0  0  0
   36.3410   27.9820   41.7780 C   0  0  0  0  0  0  0  0  0  0  0  0
   37.1160   29.0200   41.3750 N   0  0  0  0  0  0  0  0  0  0  0  0
   38.0340   29.5910   42.1640 C   0  0  0  0  0  0  0  0  0  0  0  0
   38.2350   29.1420   43.4410 N   0  0  0  0  0  0  0  0  0  0  0  0
   39.6500   33.8080   40.0700 C   0  0  0  0  0  0  0  0  0  0  0  0
   40.3140   33.6240   38.8680 F   0  0  0  0  0  0  0  0  0  0  0  0
   40.4040   34.7010   40.8370 F   0  0  0  0  0  0  0  0  0  0  0  0
   38.4200   34.3630   39.8930 F   0  0  0  0  0  0  0  0  0  0  0  0
   40.8279   30.0283   42.5232 H   0  0  0  0  0  0  0  0  0  0  0  0
   41.7024   32.3228   41.3825 H   0  0  0  0  0  0  0  0  0  0  0  0
   37.6604   27.7582   44.9231 H   0  0  0  0  0  0  0  0  0  0  0  0
   35.9199   26.6579   43.4632 H   0  0  0  0  0  0  0  0  0  0  0  0
   35.5956   27.5348   41.1039 H   0  0  0  0  0  0  0  0  0  0  0  0
  1  2  1  0
  1 10  1  0
  3  2  2  0
  4  5  1  0
  4  3  1  0
  5  1  2  0
  7  6  2  0
  8  7  1  0
  9  8  2  0
  9 10  1  0
 10 11  2  0
 11  6  1  0
 12  4  1  0
 12 14  1  0
 13 12  1  0
 15 12  1  0
  2 16  1  0
  3 17  1  0
  6 18  1  0
  7 19  1  0
  8 20  1  0
M  ISO  5  16  14  17  14  18  14  19  14  20  14
M  END
>  <minimizedAffinity>  (1) 
-4.27698278

>  <minimizedRMSD>  (1) 
2.90987945

$$$$
