
     RDKit          3D

 20 21  0  0  0  0  0  0  0  0999 V2000
   37.4740   28.0950   43.9150 C   0  0  0  0  0  0  0  0  0  0  0  0
   36.5150   27.4420   43.1310 C   0  0  0  0  0  0  0  0  0  0  0  0
   36.2760   27.9210   41.8160 C   0  0  0  0  0  0  0  0  0  0  0  0
   37.0030   28.9850   41.4180 N   0  0  0  0  0  0  0  0  0  0  0  0
   37.9170   29.5950   42.1850 C   0  0  0  0  0  0  0  0  0  0  0  0
   38.1600   29.1530   43.4440 N   0  0  0  0  0  0  0  0  0  0  0  0
   38.6650   30.7540   41.6630 C   0  0  0  0  0  0  0  0  0  0  0  0
   40.0340   30.8760   41.9430 C   0  0  0  0  0  0  0  0  0  0  0  0
   40.4510   32.0440   41.3300 C   0  0  0  0  0  0  0  0  0  0  0  0
   39.3740   32.5800   40.7190 N   0  0  0  0  0  0  0  0  0  0  0  0
   38.3010   31.8030   40.9210 N   0  0  0  0  0  0  0  0  0  0  0  0
   39.3210   33.7920   39.9570 C   0  0  0  0  0  0  0  0  0  0  0  0
   37.6707   27.7362   44.9361 H   0  0  0  0  0  0  0  0  0  0  0  0
   35.9597   26.5780   43.5248 H   0  0  0  0  0  0  0  0  0  0  0  0
   35.5350   27.4480   41.1549 H   0  0  0  0  0  0  0  0  0  0  0  0
   40.6520   30.1822   42.5318 H   0  0  0  0  0  0  0  0  0  0  0  0
   41.4700   32.4582   41.3390 H   0  0  0  0  0  0  0  0  0  0  0  0
   39.2833   34.6533   40.6402 H   0  0  0  0  0  0  0  0  0  0  0  0
   40.2168   33.8659   39.3229 H   0  0  0  0  0  0  0  0  0  0  0  0
   38.4222   33.7874   39.3229 H   0  0  0  0  0  0  0  0  0  0  0  0
  2  1  2  0
  3  2  1  0
  4  3  2  0
  4  5  1  0
  5  6  2  0
  6  1  1  0
  7  8  1  0
  7  5  1  0
  9  8  2  0
 10 11  1  0
 10  9  1  0
 11  7  2  0
 12 10  1  0
  1 13  1  0
  2 14  1  0
  3 15  1  0
  8 16  1  0
  9 17  1  0
 12 18  1  0
 12 19  1  0
 12 20  1  0
M  ISO  8  13  14  14  14  15  14  16  14  17  14  18   8  19   8  20   8
M  END
>  <minimizedAffinity>  (1) 
-3.64237714

>  <minimizedRMSD>  (1) 
2.01802635

$$$$
