
     RDKit          3D

 23 24  0  0  0  0  0  0  0  0999 V2000
   38.0680   27.7710   43.6000 C   0  0  0  0  0  0  0  0  0  0  0  0
   36.8030   27.3790   43.0540 C   0  0  0  0  0  0  0  0  0  0  0  0
   36.2530   28.1570   42.0160 C   0  0  0  0  0  0  0  0  0  0  0  0
   36.9540   29.2370   41.5920 N   0  0  0  0  0  0  0  0  0  0  0  0
   38.1440   29.5710   42.1330 C   0  0  0  0  0  0  0  0  0  0  0  0
   38.6970   28.8580   43.1200 N   0  0  0  0  0  0  0  0  0  0  0  0
   38.8700   30.7140   41.6740 N   0  0  0  0  0  0  0  0  0  0  0  0
   40.1270   30.7910   42.1310 N   0  0  0  0  0  0  0  0  0  0  0  0
   40.6900   31.9140   41.6180 C   0  0  0  0  0  0  0  0  0  0  0  0
   39.7210   32.5070   40.8350 C   0  0  0  0  0  0  0  0  0  0  0  0
   38.5630   31.7480   40.8670 C   0  0  0  0  0  0  0  0  0  0  0  0
   37.2440   31.8740   40.2490 C   0  0  0  0  0  0  0  0  0  0  0  0
   37.2280   33.1340   39.3750 C   0  0  0  0  0  0  0  0  0  0  0  0
   38.5240   27.1837   44.4106 H   0  0  0  0  0  0  0  0  0  0  0  0
   36.2744   26.4930   43.4355 H   0  0  0  0  0  0  0  0  0  0  0  0
   35.2848   27.8961   41.5637 H   0  0  0  0  0  0  0  0  0  0  0  0
   41.7133   32.2784   41.7915 H   0  0  0  0  0  0  0  0  0  0  0  0
   39.8490   33.4422   40.2702 H   0  0  0  0  0  0  0  0  0  0  0  0
   37.0408   30.9897   39.6271 H   0  0  0  0  0  0  0  0  0  0  0  0
   36.4711   31.9488   41.0281 H   0  0  0  0  0  0  0  0  0  0  0  0
   37.2167   34.0263   40.0182 H   0  0  0  0  0  0  0  0  0  0  0  0
   38.1260   33.1512   38.7399 H   0  0  0  0  0  0  0  0  0  0  0  0
   36.3299   33.1284   38.7399 H   0  0  0  0  0  0  0  0  0  0  0  0
  2  1  2  0
  3  2  1  0
  4  3  2  0
  4  5  1  0
  5  6  2  0
  6  1  1  0
  7  8  1  0
  7  5  1  0
  9  8  2  0
 10 11  2  0
 10  9  1  0
 11  7  1  0
 12 11  1  0
 13 12  1  0
  1 14  1  0
  2 15  1  0
  3 16  1  0
  9 17  1  0
 10 18  1  0
 12 19  1  0
 12 20  1  0
 13 21  1  0
 13 22  1  0
 13 23  1  0
M  ISO  8  14  14  15  14  16  14  17  14  18  14  19   8  20   8  21   8
M  ISO  2  22   8  23   8
M  END
>  <minimizedAffinity>  (1) 
-4.05298948

>  <minimizedRMSD>  (1) 
1.77516329

$$$$
