
     RDKit          3D

 30 32  0  0  1  0  0  0  0  0999 V2000
   38.6730   32.4560   40.8080 C   0  0  0  0  0  0  0  0  0  0  0  0
   37.3440   32.2320   40.3910 C   0  0  0  0  0  0  0  0  0  0  0  0
   36.9980   30.9950   40.9080 C   0  0  0  0  0  0  0  0  0  0  0  0
   38.0680   30.5210   41.5890 N   0  0  0  0  0  0  0  0  0  0  0  0
   39.0680   31.4030   41.5250 N   0  0  0  0  0  0  0  0  0  0  0  0
   39.2540   36.0030   40.0640 C   0  0  0  0  0  0  0  0  0  0  0  0
   40.6160   36.0260   39.7280 C   0  0  0  0  0  0  0  0  0  0  0  0
   41.3130   34.8150   39.7650 C   0  0  0  0  0  0  0  0  0  0  0  0
   40.6730   33.6740   40.1140 N   0  0  0  0  0  0  0  0  0  0  0  0
   39.3530   33.6810   40.4330 C   0  0  0  0  0  0  0  0  0  0  0  0
   38.6630   34.8620   40.4010 N   0  0  0  0  0  0  0  0  0  0  0  0
   38.0700   29.2320   42.2730 C   0  0  2  0  0  0  0  0  0  0  0  0
   38.2380   27.9930   41.3610 C   0  0  0  0  0  0  0  0  0  0  0  0
   36.9470   28.2950   42.0750 C   0  0  1  0  0  0  0  0  0  0  0  0
   36.5030   27.4680   43.2360 C   0  0  0  0  0  0  0  0  0  0  0  0
   36.8030   28.0630   44.5810 C   0  0  0  0  0  0  0  0  0  0  0  0
   36.7152   32.8993   39.7833 H   0  0  0  0  0  0  0  0  0  0  0  0
   36.0289   30.4888   40.7873 H   0  0  0  0  0  0  0  0  0  0  0  0
   38.6716   36.9360   40.0483 H   0  0  0  0  0  0  0  0  0  0  0  0
   41.1174   36.9635   39.4456 H   0  0  0  0  0  0  0  0  0  0  0  0
   42.3828   34.7889   39.5103 H   0  0  0  0  0  0  0  0  0  0  0  0
   38.5600   29.6459   43.1667 H   0  0  0  0  0  0  0  0  0  0  0  0
   38.8658   27.1482   41.6808 H   0  0  0  0  0  0  0  0  0  0  0  0
   38.5420   27.8136   40.3192 H   0  0  0  0  0  0  0  0  0  0  0  0
   35.9067   28.3892   41.7303 H   0  0  0  0  0  0  0  0  0  0  0  0
   35.4149   27.3258   43.1592 H   0  0  0  0  0  0  0  0  0  0  0  0
   37.0676   26.5256   43.1802 H   0  0  0  0  0  0  0  0  0  0  0  0
   36.4579   27.3786   45.3700 H   0  0  0  0  0  0  0  0  0  0  0  0
   37.8874   28.2189   44.6794 H   0  0  0  0  0  0  0  0  0  0  0  0
   36.2835   29.0276   44.6794 H   0  0  0  0  0  0  0  0  0  0  0  0
  1  5  2  0
  2  1  1  0
  2  3  2  0
  3  4  1  0
  4 12  1  0
  5  4  1  0
  6 11  2  0
  7  8  2  0
  7  6  1  0
  8  9  1  0
  9 10  2  0
 10  1  1  0
 11 10  1  0
 13 14  1  0
 13 12  1  0
 14 12  1  0
 14 15  1  0
 15 16  1  0
  2 17  1  0
  3 18  1  0
  6 19  1  0
  7 20  1  0
  8 21  1  0
 12 22  1  1
 13 23  1  0
 13 24  1  0
 14 25  1  6
 15 26  1  0
 15 27  1  0
 16 28  1  0
 16 29  1  0
 16 30  1  0
M  ISO  8  17  14  18  14  19  14  20  14  21  14  22  13  23  13  24  13
M  ISO  6  25  13  26   8  27   8  28   8  29   8  30   8
M  END
>  <minimizedAffinity>  (1) 
-5.32290554

>  <minimizedRMSD>  (1) 
5.25040054

$$$$
