
     RDKit          3D

 27 29  0  0  1  0  0  0  0  0999 V2000
   38.3560   28.9740   42.6060 C   0  0  0  0  0  0  0  0  0  0  0  0
   37.3860   28.4690   43.4810 C   0  0  0  0  0  0  0  0  0  0  0  0
   37.9860   27.3490   44.0610 C   0  0  0  0  0  0  0  0  0  0  0  0
   39.2160   27.2140   43.5590 N   0  0  0  0  0  0  0  0  0  0  0  0
   39.4460   28.1930   42.6790 N   0  0  0  0  0  0  0  0  0  0  0  0
   36.5630   31.4200   40.5360 C   0  0  0  0  0  0  0  0  0  0  0  0
   37.5520   32.4070   40.3050 C   0  0  0  0  0  0  0  0  0  0  0  0
   38.8130   32.2100   40.8650 C   0  0  0  0  0  0  0  0  0  0  0  0
   39.0340   31.0990   41.5960 N   0  0  0  0  0  0  0  0  0  0  0  0
   38.0810   30.1660   41.8090 C   0  0  0  0  0  0  0  0  0  0  0  0
   36.8300   30.3340   41.2700 N   0  0  0  0  0  0  0  0  0  0  0  0
   40.1040   26.1430   43.9570 C   0  0  2  0  0  0  0  0  0  0  0  0
   41.2060   25.7690   42.9380 C   0  0  0  0  0  0  0  0  0  0  0  0
   40.0690   24.8330   43.2480 C   0  0  2  0  0  0  0  0  0  0  0  0
   39.0460   24.6300   42.1940 C   0  0  0  0  0  0  0  0  0  0  0  0
   39.1150   25.0890   41.0240 O   0  0  0  0  0  0  0  0  0  0  0  0
   37.8990   23.8700   42.4860 O   0  0  0  0  0  0  0  0  0  0  0  0
   36.3774   28.8656   43.6693 H   0  0  0  0  0  0  0  0  0  0  0  0
   37.5221   26.6877   44.8076 H   0  0  0  0  0  0  0  0  0  0  0  0
   35.5592   31.5485   40.1049 H   0  0  0  0  0  0  0  0  0  0  0  0
   37.3319   33.3008   39.7027 H   0  0  0  0  0  0  0  0  0  0  0  0
   39.6141   32.9483   40.7131 H   0  0  0  0  0  0  0  0  0  0  0  0
   40.0474   26.4295   45.0175 H   0  0  0  0  0  0  0  0  0  0  0  0
   42.2245   25.5373   43.2830 H   0  0  0  0  0  0  0  0  0  0  0  0
   41.6243   26.2249   42.0285 H   0  0  0  0  0  0  0  0  0  0  0  0
   40.0008   23.7883   43.5857 H   0  0  0  0  0  0  0  0  0  0  0  0
   37.2092   23.7277   41.7903 H   0  0  0  0  0  0  0  0  0  0  0  0
  1  5  2  0
  1  2  1  0
  2  3  2  0
  4 12  1  0
  4  3  1  0
  5  4  1  0
  6 11  2  0
  7  6  1  0
  7  8  2  0
  8  9  1  0
  9 10  2  0
 10  1  1  0
 11 10  1  0
 13 14  1  0
 13 12  1  0
 14 12  1  0
 15 17  1  0
 15 14  1  0
 16 15  2  0
  2 18  1  0
  3 19  1  0
  6 20  1  0
  7 21  1  0
  8 22  1  0
 12 23  1  1
 13 24  1  0
 13 25  1  0
 14 26  1  1
 17 27  1  0
M  ISO  8  18  14  19  14  20  14  21  14  22  14  23  13  24  13  25  13
M  ISO  2  26  13  27   3
M  END
>  <minimizedAffinity>  (1) 
-4.74206257

>  <minimizedRMSD>  (1) 
1.37781584

$$$$
