
     RDKit          3D

 32 35  0  0  1  0  0  0  0  0999 V2000
   38.4490   29.1930   42.5650 C   0  0  0  0  0  0  0  0  0  0  0  0
   37.3920   28.7360   43.3660 C   0  0  0  0  0  0  0  0  0  0  0  0
   37.8400   27.5610   43.9410 C   0  0  0  0  0  0  0  0  0  0  0  0
   39.0890   27.3400   43.5050 N   0  0  0  0  0  0  0  0  0  0  0  0
   39.4620   28.3190   42.6760 N   0  0  0  0  0  0  0  0  0  0  0  0
   37.0160   31.8080   40.4350 C   0  0  0  0  0  0  0  0  0  0  0  0
   38.0500   32.7500   40.3500 C   0  0  0  0  0  0  0  0  0  0  0  0
   39.2460   32.4720   41.0370 C   0  0  0  0  0  0  0  0  0  0  0  0
   39.3490   31.3180   41.7440 N   0  0  0  0  0  0  0  0  0  0  0  0
   38.3200   30.4260   41.8010 C   0  0  0  0  0  0  0  0  0  0  0  0
   37.1420   30.6740   41.1400 N   0  0  0  0  0  0  0  0  0  0  0  0
   39.8800   26.1810   43.9090 C   0  0  2  0  0  0  0  0  0  0  0  0
   41.0410   25.7940   42.9620 C   0  0  0  0  0  0  0  0  0  0  0  0
   39.8210   24.9270   43.1120 C   0  0  2  0  0  0  0  0  0  0  0  0
   38.8580   24.7910   41.9930 C   0  0  0  0  0  0  0  0  0  0  0  0
   37.6020   24.2460   42.2700 C   0  0  0  0  0  0  0  0  0  0  0  0
   36.7820   24.1620   41.1650 C   0  0  0  0  0  0  0  0  0  0  0  0
   37.0830   24.5440   39.9110 N   0  0  0  0  0  0  0  0  0  0  0  0
   38.3230   25.0650   39.7130 C   0  0  0  0  0  0  0  0  0  0  0  0
   39.1810   25.1790   40.7450 N   0  0  0  0  0  0  0  0  0  0  0  0
   36.4110   29.2131   43.5073 H   0  0  0  0  0  0  0  0  0  0  0  0
   37.2728   26.9212   44.6331 H   0  0  0  0  0  0  0  0  0  0  0  0
   36.0713   32.0048   39.9069 H   0  0  0  0  0  0  0  0  0  0  0  0
   37.9307   33.6748   39.7664 H   0  0  0  0  0  0  0  0  0  0  0  0
   40.0866   33.1807   41.0016 H   0  0  0  0  0  0  0  0  0  0  0  0
   39.7532   26.4059   44.9783 H   0  0  0  0  0  0  0  0  0  0  0  0
   42.0074   25.4677   43.3738 H   0  0  0  0  0  0  0  0  0  0  0  0
   41.5677   26.2745   42.1243 H   0  0  0  0  0  0  0  0  0  0  0  0
   39.6607   23.8688   43.3658 H   0  0  0  0  0  0  0  0  0  0  0  0
   37.2965   23.9155   43.2737 H   0  0  0  0  0  0  0  0  0  0  0  0
   35.7791   23.7394   41.3252 H   0  0  0  0  0  0  0  0  0  0  0  0
   38.6262   25.3941   38.7081 H   0  0  0  0  0  0  0  0  0  0  0  0
  1  5  2  0
  1  2  1  0
  2  3  2  0
  4 12  1  0
  4  3  1  0
  5  4  1  0
  6 11  2  0
  7  6  1  0
  7  8  2  0
  8  9  1  0
  9 10  2  0
 10  1  1  0
 11 10  1  0
 13 14  1  0
 13 12  1  0
 14 12  1  0
 15 16  2  0
 15 14  1  0
 17 16  1  0
 18 17  2  0
 19 18  1  0
 19 20  2  0
 20 15  1  0
  2 21  1  0
  3 22  1  0
  6 23  1  0
  7 24  1  0
  8 25  1  0
 12 26  1  1
 13 27  1  0
 13 28  1  0
 14 29  1  1
 16 30  1  0
 17 31  1  0
 19 32  1  0
M  ISO  8  21  14  22  14  23  14  24  14  25  14  26  13  27  13  28  13
M  ISO  4  29  13  30  14  31  14  32  14
M  END
>  <minimizedAffinity>  (1) 
-5.20752239

>  <minimizedRMSD>  (1) 
1.87907743

$$$$
