
     RDKit          3D

 45 49  0  0  1  0  0  0  0  0999 V2000
   39.7950   26.2290   43.8700 C   0  0  2  0  0  0  0  0  0  0  0  0
   40.9280   25.7960   42.9260 C   0  0  0  0  0  0  0  0  0  0  0  0
   39.6960   24.9720   43.0550 C   0  0  2  0  0  0  0  0  0  0  0  0
   38.6950   24.8890   41.9640 C   0  0  0  0  0  0  0  0  0  0  0  0
   38.0380   23.6940   41.7300 C   0  0  0  0  0  0  0  0  0  0  0  0
   37.1550   23.7470   40.6830 C   0  0  0  0  0  0  0  0  0  0  0  0
   36.8820   24.8010   39.8980 N   0  0  0  0  0  0  0  0  0  0  0  0
   37.5590   25.9450   40.1770 C   0  0  0  0  0  0  0  0  0  0  0  0
   38.4390   25.9720   41.1870 N   0  0  0  0  0  0  0  0  0  0  0  0
   37.2760   27.0660   39.3510 N   0  0  0  0  0  0  0  0  0  0  0  0
   36.0110   27.4200   39.0760 C   0  0  0  0  0  0  0  0  0  0  0  0
   35.8420   28.5330   38.2600 C   0  0  0  0  0  0  0  0  0  0  0  0
   34.4740   29.0110   37.8930 C   0  0  0  0  0  0  0  0  0  0  0  0
   36.9580   29.2080   37.7770 C   0  0  0  0  0  0  0  0  0  0  0  0
   36.7680   30.2130   37.0370 O   0  0  0  0  0  0  0  0  0  0  0  0
   38.2300   28.8160   38.0790 N   0  0  0  0  0  0  0  0  0  0  0  0
   38.3500   27.7250   38.8800 C   0  0  0  0  0  0  0  0  0  0  0  0
   39.5470   27.4170   39.1200 O   0  0  0  0  0  0  0  0  0  0  0  0
   38.4340   29.2770   42.5620 C   0  0  0  0  0  0  0  0  0  0  0  0
   37.4060   28.8830   43.4340 C   0  0  0  0  0  0  0  0  0  0  0  0
   37.8310   27.6940   44.0030 C   0  0  0  0  0  0  0  0  0  0  0  0
   39.0410   27.4110   43.4940 N   0  0  0  0  0  0  0  0  0  0  0  0
   39.4090   28.3560   42.6270 N   0  0  0  0  0  0  0  0  0  0  0  0
   37.0600   31.8620   40.3630 C   0  0  0  0  0  0  0  0  0  0  0  0
   38.0930   32.8150   40.3080 C   0  0  0  0  0  0  0  0  0  0  0  0
   39.2650   32.5520   41.0390 C   0  0  0  0  0  0  0  0  0  0  0  0
   39.3500   31.4040   41.7580 N   0  0  0  0  0  0  0  0  0  0  0  0
   38.3220   30.5010   41.7850 C   0  0  0  0  0  0  0  0  0  0  0  0
   37.1680   30.7380   41.0790 N   0  0  0  0  0  0  0  0  0  0  0  0
   39.6804   26.4591   44.9395 H   0  0  0  0  0  0  0  0  0  0  0  0
   41.8805   25.4320   43.3385 H   0  0  0  0  0  0  0  0  0  0  0  0
   41.4705   26.2639   42.0913 H   0  0  0  0  0  0  0  0  0  0  0  0
   39.5216   23.9090   43.2776 H   0  0  0  0  0  0  0  0  0  0  0  0
   38.2083   22.7866   42.3281 H   0  0  0  0  0  0  0  0  0  0  0  0
   36.6073   22.8194   40.4605 H   0  0  0  0  0  0  0  0  0  0  0  0
   35.1530   26.8591   39.4752 H   0  0  0  0  0  0  0  0  0  0  0  0
   33.8981   29.2122   38.8083 H   0  0  0  0  0  0  0  0  0  0  0  0
   34.5549   29.9341   37.3003 H   0  0  0  0  0  0  0  0  0  0  0  0
   33.9624   28.2384   37.3003 H   0  0  0  0  0  0  0  0  0  0  0  0
   39.0536   29.3194   37.7195 H   0  0  0  0  0  0  0  0  0  0  0  0
   36.4594   29.4096   43.6254 H   0  0  0  0  0  0  0  0  0  0  0  0
   37.2779   27.0911   44.7382 H   0  0  0  0  0  0  0  0  0  0  0  0
   36.1339   32.0473   39.7991 H   0  0  0  0  0  0  0  0  0  0  0  0
   37.9876   33.7345   39.7135 H   0  0  0  0  0  0  0  0  0  0  0  0
   40.1012   33.2666   41.0283 H   0  0  0  0  0  0  0  0  0  0  0  0
  2  3  1  0
  2  1  1  0
  3  1  1  0
  4  3  1  0
  5  4  2  0
  6  5  1  0
  7  8  1  0
  7  6  2  0
  8  9  2  0
  9  4  1  0
 10  8  1  0
 11 10  1  0
 12 11  2  0
 13 12  1  0
 14 16  1  0
 14 12  1  0
 15 14  2  0
 16 17  1  0
 17 18  2  0
 17 10  1  0
 19 23  2  0
 19 20  1  0
 20 21  2  0
 22  1  1  0
 22 21  1  0
 23 22  1  0
 24 29  2  0
 25 24  1  0
 25 26  2  0
 26 27  1  0
 27 28  2  0
 28 19  1  0
 29 28  1  0
  1 30  1  1
  2 31  1  0
  2 32  1  0
  3 33  1  1
  5 34  1  0
  6 35  1  0
 11 36  1  0
 13 37  1  0
 13 38  1  0
 13 39  1  0
 16 40  1  0
 20 41  1  0
 21 42  1  0
 24 43  1  0
 25 44  1  0
 26 45  1  0
M  ISO  8  30  13  31  13  32  13  33  13  34  14  35  14  36  14  37   8
M  ISO  8  38   8  39   8  40   9  41  14  42  14  43  14  44  14  45  14
M  END
>  <minimizedAffinity>  (1) 
-6.54664135

>  <minimizedRMSD>  (1) 
2.11903715

$$$$
