
     RDKit          3D

 43 48  0  0  1  0  0  0  0  0999 V2000
   39.8600   26.1800   43.7970 C   0  0  2  0  0  0  0  0  0  0  0  0
   40.9670   25.7450   42.8260 C   0  0  0  0  0  0  0  0  0  0  0  0
   39.7400   24.9200   42.9860 C   0  0  2  0  0  0  0  0  0  0  0  0
   38.7120   24.8380   41.9210 C   0  0  0  0  0  0  0  0  0  0  0  0
   37.5380   24.1440   42.1600 C   0  0  0  0  0  0  0  0  0  0  0  0
   36.6840   24.1260   41.0880 C   0  0  0  0  0  0  0  0  0  0  0  0
   36.8780   24.6930   39.8920 N   0  0  0  0  0  0  0  0  0  0  0  0
   38.0400   25.3590   39.7100 C   0  0  0  0  0  0  0  0  0  0  0  0
   38.9270   25.4200   40.7160 N   0  0  0  0  0  0  0  0  0  0  0  0
   38.2420   25.9600   38.4370 N   0  0  0  0  0  0  0  0  0  0  0  0
   39.1260   25.4200   37.5640 C   0  0  0  0  0  0  0  0  0  0  0  0
   39.1650   26.1350   36.4300 N   0  0  0  0  0  0  0  0  0  0  0  0
   38.3030   27.1520   36.5510 C   0  0  0  0  0  0  0  0  0  0  0  0
   37.8630   28.2320   35.7820 C   0  0  0  0  0  0  0  0  0  0  0  0
   36.9290   29.0800   36.2920 N   0  0  0  0  0  0  0  0  0  0  0  0
   36.4020   28.9240   37.5220 C   0  0  0  0  0  0  0  0  0  0  0  0
   36.8030   27.8820   38.3070 N   0  0  0  0  0  0  0  0  0  0  0  0
   37.7330   27.0360   37.8030 C   0  0  0  0  0  0  0  0  0  0  0  0
   38.4720   29.2340   42.5380 C   0  0  0  0  0  0  0  0  0  0  0  0
   37.4540   28.8250   43.4080 C   0  0  0  0  0  0  0  0  0  0  0  0
   37.8910   27.6310   43.9610 C   0  0  0  0  0  0  0  0  0  0  0  0
   39.0970   27.3590   43.4410 N   0  0  0  0  0  0  0  0  0  0  0  0
   39.4550   28.3180   42.5830 N   0  0  0  0  0  0  0  0  0  0  0  0
   37.0720   31.8360   40.3700 C   0  0  0  0  0  0  0  0  0  0  0  0
   38.0910   32.7880   40.3220 C   0  0  0  0  0  0  0  0  0  0  0  0
   39.2720   32.5350   41.0410 C   0  0  0  0  0  0  0  0  0  0  0  0
   39.3690   31.3760   41.7500 N   0  0  0  0  0  0  0  0  0  0  0  0
   38.3500   30.4690   41.7720 C   0  0  0  0  0  0  0  0  0  0  0  0
   37.1900   30.7020   41.0750 N   0  0  0  0  0  0  0  0  0  0  0  0
   39.7734   26.4126   44.8686 H   0  0  0  0  0  0  0  0  0  0  0  0
   41.9298   25.3819   43.2149 H   0  0  0  0  0  0  0  0  0  0  0  0
   41.4878   26.2120   41.9770 H   0  0  0  0  0  0  0  0  0  0  0  0
   39.5720   23.8570   43.2137 H   0  0  0  0  0  0  0  0  0  0  0  0
   37.3122   23.6539   43.1186 H   0  0  0  0  0  0  0  0  0  0  0  0
   35.7355   23.5864   41.2263 H   0  0  0  0  0  0  0  0  0  0  0  0
   39.7281   24.5202   37.7582 H   0  0  0  0  0  0  0  0  0  0  0  0
   38.2682   28.3956   34.7725 H   0  0  0  0  0  0  0  0  0  0  0  0
   35.6496   29.6354   37.8931 H   0  0  0  0  0  0  0  0  0  0  0  0
   36.5050   29.3431   43.6106 H   0  0  0  0  0  0  0  0  0  0  0  0
   37.3467   27.0175   44.6940 H   0  0  0  0  0  0  0  0  0  0  0  0
   36.1426   32.0219   39.8117 H   0  0  0  0  0  0  0  0  0  0  0  0
   37.9732   33.7120   39.7370 H   0  0  0  0  0  0  0  0  0  0  0  0
   40.1009   33.2581   41.0313 H   0  0  0  0  0  0  0  0  0  0  0  0
  2  3  1  0
  2  1  1  0
  3  1  1  0
  4  5  2  0
  4  3  1  0
  6  5  1  0
  7  6  2  0
  8  7  1  0
  8  9  2  0
  9  4  1  0
 10  8  1  0
 11 10  1  0
 12 13  1  0
 12 11  2  0
 13 18  2  0
 14 15  2  0
 14 13  1  0
 15 16  1  0
 16 17  2  0
 18 17  1  0
 18 10  1  0
 19 23  2  0
 19 20  1  0
 20 21  2  0
 22  1  1  0
 22 21  1  0
 23 22  1  0
 24 29  2  0
 25 24  1  0
 25 26  2  0
 26 27  1  0
 27 28  2  0
 28 19  1  0
 29 28  1  0
  1 30  1  1
  2 31  1  0
  2 32  1  0
  3 33  1  1
  5 34  1  0
  6 35  1  0
 11 36  1  0
 14 37  1  0
 16 38  1  0
 20 39  1  0
 21 40  1  0
 24 41  1  0
 25 42  1  0
 26 43  1  0
M  ISO  8  30  13  31  13  32  13  33  13  34  14  35  14  36  14  37  14
M  ISO  6  38  14  39  14  40  14  41  14  42  14  43  14
M  END
>  <minimizedAffinity>  (1) 
-6.29363871

>  <minimizedRMSD>  (1) 
0.528555214

$$$$
