
     RDKit          3D

 46 50  0  0  1  0  0  0  0  0999 V2000
   39.8770   26.1590   43.9430 C   0  0  2  0  0  0  0  0  0  0  0  0
   41.0690   25.7810   43.0560 C   0  0  0  0  0  0  0  0  0  0  0  0
   39.8750   24.8970   43.1260 C   0  0  2  0  0  0  0  0  0  0  0  0
   38.9470   24.7770   41.9780 C   0  0  0  0  0  0  0  0  0  0  0  0
   37.6620   24.3100   42.1970 C   0  0  0  0  0  0  0  0  0  0  0  0
   36.8980   24.2210   41.0550 C   0  0  0  0  0  0  0  0  0  0  0  0
   37.2820   24.5330   39.8120 N   0  0  0  0  0  0  0  0  0  0  0  0
   38.5450   24.9820   39.6540 C   0  0  0  0  0  0  0  0  0  0  0  0
   39.3460   25.0960   40.7210 N   0  0  0  0  0  0  0  0  0  0  0  0
   39.0140   25.3320   38.3580 N   0  0  0  0  0  0  0  0  0  0  0  0
   40.2150   26.1050   38.1070 C   0  0  0  0  0  0  0  0  0  0  0  0
   39.7840   27.3950   37.4710 C   0  0  0  0  0  0  0  0  0  0  0  0
   38.5310   27.3320   36.7770 N   0  0  0  0  0  0  0  0  0  0  0  0
   38.1730   26.0640   36.2280 C   0  0  0  0  0  0  0  0  0  0  0  0
   38.2790   24.9100   37.1800 C   0  0  0  0  0  0  0  0  0  0  0  0
   38.4350   29.1440   42.5870 C   0  0  0  0  0  0  0  0  0  0  0  0
   37.3750   28.6820   43.3770 C   0  0  0  0  0  0  0  0  0  0  0  0
   37.8240   27.5110   43.9610 C   0  0  0  0  0  0  0  0  0  0  0  0
   39.0820   27.3000   43.5340 N   0  0  0  0  0  0  0  0  0  0  0  0
   39.4500   28.2730   42.7120 N   0  0  0  0  0  0  0  0  0  0  0  0
   37.0010   31.7590   40.4630 C   0  0  0  0  0  0  0  0  0  0  0  0
   38.0480   32.6980   40.3640 C   0  0  0  0  0  0  0  0  0  0  0  0
   39.2510   32.4160   41.0400 C   0  0  0  0  0  0  0  0  0  0  0  0
   39.3510   31.2640   41.7490 N   0  0  0  0  0  0  0  0  0  0  0  0
   38.3070   30.3750   41.8190 C   0  0  0  0  0  0  0  0  0  0  0  0
   37.1260   30.6320   41.1690 N   0  0  0  0  0  0  0  0  0  0  0  0
   39.7047   26.3852   45.0056 H   0  0  0  0  0  0  0  0  0  0  0  0
   42.0174   25.4631   43.5138 H   0  0  0  0  0  0  0  0  0  0  0  0
   41.6267   26.2755   42.2470 H   0  0  0  0  0  0  0  0  0  0  0  0
   39.7347   23.8284   43.3462 H   0  0  0  0  0  0  0  0  0  0  0  0
   37.2856   24.0350   43.1933 H   0  0  0  0  0  0  0  0  0  0  0  0
   35.8674   23.8564   41.1770 H   0  0  0  0  0  0  0  0  0  0  0  0
   40.7384   26.3070   39.0531 H   0  0  0  0  0  0  0  0  0  0  0  0
   40.9046   25.5552   37.4495 H   0  0  0  0  0  0  0  0  0  0  0  0
   39.6999   28.1553   38.2615 H   0  0  0  0  0  0  0  0  0  0  0  0
   40.5455   27.6383   36.7154 H   0  0  0  0  0  0  0  0  0  0  0  0
   37.7917   27.6068   37.4394 H   0  0  0  0  0  0  0  0  0  0  0  0
   37.1315   26.1246   35.8794 H   0  0  0  0  0  0  0  0  0  0  0  0
   38.8922   25.8639   35.4201 H   0  0  0  0  0  0  0  0  0  0  0  0
   37.2712   24.5805   37.4731 H   0  0  0  0  0  0  0  0  0  0  0  0
   38.8058   24.0757   36.6937 H   0  0  0  0  0  0  0  0  0  0  0  0
   36.3893   29.1528   43.5064 H   0  0  0  0  0  0  0  0  0  0  0  0
   37.2554   26.8689   44.6497 H   0  0  0  0  0  0  0  0  0  0  0  0
   36.0527   31.9605   39.9432 H   0  0  0  0  0  0  0  0  0  0  0  0
   37.9292   33.6211   39.7777 H   0  0  0  0  0  0  0  0  0  0  0  0
   40.0960   33.1188   40.9937 H   0  0  0  0  0  0  0  0  0  0  0  0
  2  3  1  0
  2  1  1  0
  3  1  1  0
  4  5  2  0
  4  3  1  0
  6  5  1  0
  7  6  2  0
  8  7  1  0
  8  9  2  0
  9  4  1  0
 10  8  1  0
 11 10  1  0
 12 11  1  0
 13 12  1  0
 14 13  1  0
 14 15  1  0
 15 10  1  0
 16 20  2  0
 16 17  1  0
 17 18  2  0
 19  1  1  0
 19 18  1  0
 20 19  1  0
 21 26  2  0
 22 21  1  0
 22 23  2  0
 23 24  1  0
 24 25  2  0
 25 16  1  0
 26 25  1  0
  1 27  1  1
  2 28  1  0
  2 29  1  0
  3 30  1  1
  5 31  1  0
  6 32  1  0
 11 33  1  0
 11 34  1  0
 12 35  1  0
 12 36  1  0
 13 37  1  0
 14 38  1  0
 14 39  1  0
 15 40  1  0
 15 41  1  0
 17 42  1  0
 18 43  1  0
 21 44  1  0
 22 45  1  0
 23 46  1  0
M  ISO  8  27  13  28  13  29  13  30  13  31  14  32  14  33  13  34  13
M  ISO  8  35  13  36  13  37   5  38  13  39  13  40  13  41  13  42  14
M  ISO  4  43  14  44  14  45  14  46  14
M  END
>  <minimizedAffinity>  (1) 
-5.7365284

>  <minimizedRMSD>  (1) 
0.255034208

$$$$
