
     RDKit          3D

 39 43  0  0  1  0  0  0  0  0999 V2000
   39.8710   26.1870   43.8960 C   0  0  2  0  0  0  0  0  0  0  0  0
   41.0270   25.7810   42.9690 C   0  0  0  0  0  0  0  0  0  0  0  0
   39.8230   24.9170   43.0930 C   0  0  2  0  0  0  0  0  0  0  0  0
   38.8310   24.7860   41.9990 C   0  0  0  0  0  0  0  0  0  0  0  0
   37.5830   24.2500   42.2660 C   0  0  0  0  0  0  0  0  0  0  0  0
   36.7780   24.1670   41.1620 C   0  0  0  0  0  0  0  0  0  0  0  0
   37.0740   24.5390   39.9100 N   0  0  0  0  0  0  0  0  0  0  0  0
   38.3080   25.0560   39.7060 C   0  0  0  0  0  0  0  0  0  0  0  0
   39.1590   25.1710   40.7400 N   0  0  0  0  0  0  0  0  0  0  0  0
   38.6690   25.4650   38.3930 N   0  0  0  0  0  0  0  0  0  0  0  0
   37.9180   26.3440   37.7180 C   0  0  0  0  0  0  0  0  0  0  0  0
   38.4780   26.5650   36.4950 C   0  0  0  0  0  0  0  0  0  0  0  0
   39.5890   25.8150   36.4100 N   0  0  0  0  0  0  0  0  0  0  0  0
   39.6870   25.1530   37.5770 C   0  0  0  0  0  0  0  0  0  0  0  0
   38.4390   29.1910   42.5620 C   0  0  0  0  0  0  0  0  0  0  0  0
   37.3840   28.7310   43.3660 C   0  0  0  0  0  0  0  0  0  0  0  0
   37.8320   27.5550   43.9410 C   0  0  0  0  0  0  0  0  0  0  0  0
   39.0810   27.3390   43.4980 N   0  0  0  0  0  0  0  0  0  0  0  0
   39.4530   28.3170   42.6670 N   0  0  0  0  0  0  0  0  0  0  0  0
   37.0180   31.8100   40.4310 C   0  0  0  0  0  0  0  0  0  0  0  0
   38.0550   32.7470   40.3500 C   0  0  0  0  0  0  0  0  0  0  0  0
   39.2510   32.4710   41.0360 C   0  0  0  0  0  0  0  0  0  0  0  0
   39.3470   31.3140   41.7420 N   0  0  0  0  0  0  0  0  0  0  0  0
   38.3140   30.4240   41.7990 C   0  0  0  0  0  0  0  0  0  0  0  0
   37.1400   30.6750   41.1360 N   0  0  0  0  0  0  0  0  0  0  0  0
   39.7377   26.4255   44.9615 H   0  0  0  0  0  0  0  0  0  0  0  0
   41.9866   25.4536   43.3956 H   0  0  0  0  0  0  0  0  0  0  0  0
   41.5624   26.2579   42.1348 H   0  0  0  0  0  0  0  0  0  0  0  0
   39.6854   23.8500   43.3221 H   0  0  0  0  0  0  0  0  0  0  0  0
   37.2687   23.9226   43.2680 H   0  0  0  0  0  0  0  0  0  0  0  0
   35.7739   23.7470   41.3213 H   0  0  0  0  0  0  0  0  0  0  0  0
   36.9957   26.8133   38.0910 H   0  0  0  0  0  0  0  0  0  0  0  0
   38.0892   27.2378   35.7164 H   0  0  0  0  0  0  0  0  0  0  0  0
   40.4944   24.4495   37.8286 H   0  0  0  0  0  0  0  0  0  0  0  0
   36.4030   29.2075   43.5093 H   0  0  0  0  0  0  0  0  0  0  0  0
   37.2679   26.9140   44.6345 H   0  0  0  0  0  0  0  0  0  0  0  0
   36.0752   32.0103   39.9009 H   0  0  0  0  0  0  0  0  0  0  0  0
   37.9376   33.6722   39.7667 H   0  0  0  0  0  0  0  0  0  0  0  0
   40.0928   33.1782   41.0018 H   0  0  0  0  0  0  0  0  0  0  0  0
  2  3  1  0
  2  1  1  0
  3  1  1  0
  4  5  2  0
  4  3  1  0
  6  5  1  0
  7  6  2  0
  8  7  1  0
  8  9  2  0
  9  4  1  0
 10  8  1  0
 11 10  1  0
 12 11  2  0
 13 12  1  0
 13 14  2  0
 14 10  1  0
 15 19  2  0
 15 16  1  0
 16 17  2  0
 18  1  1  0
 18 17  1  0
 19 18  1  0
 20 25  2  0
 21 20  1  0
 21 22  2  0
 22 23  1  0
 23 24  2  0
 24 15  1  0
 25 24  1  0
  1 26  1  1
  2 27  1  0
  2 28  1  0
  3 29  1  1
  5 30  1  0
  6 31  1  0
 11 32  1  0
 12 33  1  0
 14 34  1  0
 16 35  1  0
 17 36  1  0
 20 37  1  0
 21 38  1  0
 22 39  1  0
M  ISO  8  26  13  27  13  28  13  29  13  30  14  31  14  32  14  33  14
M  ISO  6  34  14  35  14  36  14  37  14  38  14  39  14
M  END
>  <minimizedAffinity>  (1) 
-5.70787048

>  <minimizedRMSD>  (1) 
0.0258528013

$$$$
