
     RDKit          3D

 45 49  0  0  1  0  0  0  0  0999 V2000
   39.8750   26.1510   43.9560 C   0  0  2  0  0  0  0  0  0  0  0  0
   41.0750   25.7800   43.0740 C   0  0  0  0  0  0  0  0  0  0  0  0
   39.8830   24.8930   43.1360 C   0  0  2  0  0  0  0  0  0  0  0  0
   38.9550   24.7670   41.9870 C   0  0  0  0  0  0  0  0  0  0  0  0
   37.6630   24.3180   42.1990 C   0  0  0  0  0  0  0  0  0  0  0  0
   36.9110   24.2320   41.0510 C   0  0  0  0  0  0  0  0  0  0  0  0
   37.2930   24.5260   39.8060 N   0  0  0  0  0  0  0  0  0  0  0  0
   38.5810   24.9650   39.6530 C   0  0  0  0  0  0  0  0  0  0  0  0
   39.3660   25.0720   40.7320 N   0  0  0  0  0  0  0  0  0  0  0  0
   39.0640   25.3000   38.3550 N   0  0  0  0  0  0  0  0  0  0  0  0
   38.3860   24.9150   37.1310 C   0  0  0  0  0  0  0  0  0  0  0  0
   38.0910   26.2170   36.3860 C   0  0  0  0  0  0  0  0  0  0  0  0
   38.5880   27.3280   37.0380 O   0  0  0  0  0  0  0  0  0  0  0  0
   39.9350   27.2580   37.3340 C   0  0  0  0  0  0  0  0  0  0  0  0
   40.2810   26.0570   38.2040 C   0  0  0  0  0  0  0  0  0  0  0  0
   38.4340   29.1370   42.5970 C   0  0  0  0  0  0  0  0  0  0  0  0
   37.3720   28.6720   43.3870 C   0  0  0  0  0  0  0  0  0  0  0  0
   37.8230   27.5010   43.9710 C   0  0  0  0  0  0  0  0  0  0  0  0
   39.0800   27.2930   43.5440 N   0  0  0  0  0  0  0  0  0  0  0  0
   39.4550   28.2700   42.7190 N   0  0  0  0  0  0  0  0  0  0  0  0
   37.0060   31.7530   40.4660 C   0  0  0  0  0  0  0  0  0  0  0  0
   38.0540   32.6890   40.3650 C   0  0  0  0  0  0  0  0  0  0  0  0
   39.2520   32.4040   41.0410 C   0  0  0  0  0  0  0  0  0  0  0  0
   39.3500   31.2510   41.7540 N   0  0  0  0  0  0  0  0  0  0  0  0
   38.3110   30.3700   41.8250 C   0  0  0  0  0  0  0  0  0  0  0  0
   37.1280   30.6230   41.1760 N   0  0  0  0  0  0  0  0  0  0  0  0
   39.6940   26.3722   45.0182 H   0  0  0  0  0  0  0  0  0  0  0  0
   42.0219   25.4639   43.5361 H   0  0  0  0  0  0  0  0  0  0  0  0
   41.6359   26.2783   42.2696 H   0  0  0  0  0  0  0  0  0  0  0  0
   39.7480   23.8227   43.3508 H   0  0  0  0  0  0  0  0  0  0  0  0
   37.2739   24.0544   43.1935 H   0  0  0  0  0  0  0  0  0  0  0  0
   35.8757   23.8806   41.1724 H   0  0  0  0  0  0  0  0  0  0  0  0
   39.0332   24.2652   36.5236 H   0  0  0  0  0  0  0  0  0  0  0  0
   37.4641   24.3526   37.3405 H   0  0  0  0  0  0  0  0  0  0  0  0
   37.0010   26.3260   36.2858 H   0  0  0  0  0  0  0  0  0  0  0  0
   38.5856   26.1582   35.4052 H   0  0  0  0  0  0  0  0  0  0  0  0
   40.4994   27.1856   36.3926 H   0  0  0  0  0  0  0  0  0  0  0  0
   40.2003   28.1651   37.8969 H   0  0  0  0  0  0  0  0  0  0  0  0
   41.0526   25.4434   37.7160 H   0  0  0  0  0  0  0  0  0  0  0  0
   40.6780   26.3727   39.1801 H   0  0  0  0  0  0  0  0  0  0  0  0
   36.3853   29.1409   43.5156 H   0  0  0  0  0  0  0  0  0  0  0  0
   37.2556   26.8576   44.6595 H   0  0  0  0  0  0  0  0  0  0  0  0
   36.0582   31.9560   39.9460 H   0  0  0  0  0  0  0  0  0  0  0  0
   37.9382   33.6114   39.7770 H   0  0  0  0  0  0  0  0  0  0  0  0
   40.0990   33.1042   40.9940 H   0  0  0  0  0  0  0  0  0  0  0  0
  2  3  1  0
  2  1  1  0
  3  1  1  0
  4  5  2  0
  4  3  1  0
  6  5  1  0
  7  6  2  0
  8  7  1  0
  8  9  2  0
  9  4  1  0
 10  8  1  0
 11 10  1  0
 12 13  1  0
 12 11  1  0
 13 14  1  0
 14 15  1  0
 15 10  1  0
 16 20  2  0
 16 17  1  0
 17 18  2  0
 19  1  1  0
 19 18  1  0
 20 19  1  0
 21 26  2  0
 22 21  1  0
 22 23  2  0
 23 24  1  0
 24 25  2  0
 25 16  1  0
 26 25  1  0
  1 27  1  1
  2 28  1  0
  2 29  1  0
  3 30  1  1
  5 31  1  0
  6 32  1  0
 11 33  1  0
 11 34  1  0
 12 35  1  0
 12 36  1  0
 14 37  1  0
 14 38  1  0
 15 39  1  0
 15 40  1  0
 17 41  1  0
 18 42  1  0
 21 43  1  0
 22 44  1  0
 23 45  1  0
M  ISO  8  27  13  28  13  29  13  30  13  31  14  32  14  33  13  34  13
M  ISO  8  35  13  36  13  37  13  38  13  39  13  40  13  41  14  42  14
M  ISO  3  43  14  44  14  45  14
M  END
>  <minimizedAffinity>  (1) 
-5.69985342

>  <minimizedRMSD>  (1) 
0.293002516

$$$$
