
     RDKit          3D

 46 50  0  0  1  0  0  0  0  0999 V2000
   39.8280   26.2810   43.9090 C   0  0  2  0  0  0  0  0  0  0  0  0
   41.0020   25.8600   43.0110 C   0  0  0  0  0  0  0  0  0  0  0  0
   39.7830   25.0130   43.1040 C   0  0  2  0  0  0  0  0  0  0  0  0
   38.8330   24.9050   41.9760 C   0  0  0  0  0  0  0  0  0  0  0  0
   37.7150   24.0980   42.1040 C   0  0  0  0  0  0  0  0  0  0  0  0
   36.9210   24.0620   40.9830 C   0  0  0  0  0  0  0  0  0  0  0  0
   37.1310   24.7140   39.8310 N   0  0  0  0  0  0  0  0  0  0  0  0
   38.2350   25.4860   39.7600 C   0  0  0  0  0  0  0  0  0  0  0  0
   39.0530   25.5680   40.8140 N   0  0  0  0  0  0  0  0  0  0  0  0
   38.5170   26.2310   38.5060 C   0  0  2  0  0  0  0  0  0  0  0  0
   37.9610   27.6390   38.5300 C   0  0  0  0  0  0  0  0  0  0  0  0
   38.6140   28.3410   37.3640 C   0  0  0  0  0  0  0  0  0  0  0  0
   38.1270   27.7450   36.0920 C   0  0  0  0  0  0  0  0  0  0  0  0
   37.6960   26.3340   36.1100 C   0  0  0  0  0  0  0  0  0  0  0  0
   38.0070   25.5150   37.2880 C   0  0  0  0  0  0  0  0  0  0  0  0
   38.4710   29.3050   42.5440 C   0  0  0  0  0  0  0  0  0  0  0  0
   37.3920   28.8640   43.3310 C   0  0  0  0  0  0  0  0  0  0  0  0
   37.8130   27.6820   43.9140 C   0  0  0  0  0  0  0  0  0  0  0  0
   39.0680   27.4430   43.4920 N   0  0  0  0  0  0  0  0  0  0  0  0
   39.4690   28.4070   42.6730 N   0  0  0  0  0  0  0  0  0  0  0  0
   37.1370   31.9270   40.3680 C   0  0  0  0  0  0  0  0  0  0  0  0
   38.1890   32.8670   40.3180 C   0  0  0  0  0  0  0  0  0  0  0  0
   39.3550   32.5760   41.0440 C   0  0  0  0  0  0  0  0  0  0  0  0
   39.4250   31.4210   41.7550 N   0  0  0  0  0  0  0  0  0  0  0  0
   38.3810   30.5400   41.7760 C   0  0  0  0  0  0  0  0  0  0  0  0
   37.2280   30.7970   41.0760 N   0  0  0  0  0  0  0  0  0  0  0  0
   39.6698   26.5196   44.9711 H   0  0  0  0  0  0  0  0  0  0  0  0
   41.9458   25.5190   43.4614 H   0  0  0  0  0  0  0  0  0  0  0  0
   41.5650   26.3300   42.1912 H   0  0  0  0  0  0  0  0  0  0  0  0
   39.6187   23.9499   43.3337 H   0  0  0  0  0  0  0  0  0  0  0  0
   37.4833   23.5361   43.0208 H   0  0  0  0  0  0  0  0  0  0  0  0
   36.0201   23.4332   41.0367 H   0  0  0  0  0  0  0  0  0  0  0  0
   39.6138   26.2899   38.4460 H   0  0  0  0  0  0  0  0  0  0  0  0
   36.8678   27.6244   38.4086 H   0  0  0  0  0  0  0  0  0  0  0  0
   38.1669   28.1467   39.4839 H   0  0  0  0  0  0  0  0  0  0  0  0
   38.3580   29.4105   37.3896 H   0  0  0  0  0  0  0  0  0  0  0  0
   39.7058   28.2240   37.4298 H   0  0  0  0  0  0  0  0  0  0  0  0
   38.9420   27.8290   35.3580 H   0  0  0  0  0  0  0  0  0  0  0  0
   37.2127   28.3092   35.8559 H   0  0  0  0  0  0  0  0  0  0  0  0
   37.1517   25.9037   35.2565 H   0  0  0  0  0  0  0  0  0  0  0  0
   37.8723   24.4233   37.2791 H   0  0  0  0  0  0  0  0  0  0  0  0
   36.4164   29.3564   43.4568 H   0  0  0  0  0  0  0  0  0  0  0  0
   37.2273   27.0514   44.5990 H   0  0  0  0  0  0  0  0  0  0  0  0
   36.2133   32.1309   39.8066 H   0  0  0  0  0  0  0  0  0  0  0  0
   38.0986   33.7934   39.7318 H   0  0  0  0  0  0  0  0  0  0  0  0
   40.2032   33.2764   41.0370 H   0  0  0  0  0  0  0  0  0  0  0  0
  2  3  1  0
  2  1  1  0
  3  1  1  0
  4  5  2  0
  4  3  1  0
  6  5  1  0
  7  6  2  0
  8  7  1  0
  8  9  2  0
  9  4  1  0
 10 11  1  0
 10  8  1  0
 12 11  1  0
 13 14  1  0
 13 12  1  0
 14 15  2  0
 15 10  1  0
 16 20  2  0
 16 17  1  0
 17 18  2  0
 19  1  1  0
 19 18  1  0
 20 19  1  0
 21 26  2  0
 22 21  1  0
 22 23  2  0
 23 24  1  0
 24 25  2  0
 25 16  1  0
 26 25  1  0
  1 27  1  1
  2 28  1  0
  2 29  1  0
  3 30  1  1
  5 31  1  0
  6 32  1  0
 10 33  1  6
 11 34  1  0
 11 35  1  0
 12 36  1  0
 12 37  1  0
 13 38  1  0
 13 39  1  0
 14 40  1  0
 15 41  1  0
 17 42  1  0
 18 43  1  0
 21 44  1  0
 22 45  1  0
 23 46  1  0
M  ISO  8  27  13  28  13  29  13  30  13  31  14  32  14  33  13  34  13
M  ISO  8  35  13  36  13  37  13  38  13  39  13  40  13  41  13  42  14
M  ISO  4  43  14  44  14  45  14  46  14
M  END
>  <minimizedAffinity>  (1) 
-5.64307642

>  <minimizedRMSD>  (1) 
0.520237803

$$$$
