
     RDKit          3D

 40 44  0  0  1  0  0  0  0  0999 V2000
   39.7970   26.2690   43.8590 C   0  0  2  0  0  0  0  0  0  0  0  0
   40.9130   25.8010   42.9170 C   0  0  0  0  0  0  0  0  0  0  0  0
   39.6750   24.9900   43.0790 C   0  0  2  0  0  0  0  0  0  0  0  0
   38.6700   24.8950   41.9930 C   0  0  0  0  0  0  0  0  0  0  0  0
   37.5510   24.1010   42.1730 C   0  0  0  0  0  0  0  0  0  0  0  0
   36.7070   24.0800   41.0890 C   0  0  0  0  0  0  0  0  0  0  0  0
   36.8630   24.7280   39.9300 N   0  0  0  0  0  0  0  0  0  0  0  0
   37.9790   25.4920   39.8080 C   0  0  0  0  0  0  0  0  0  0  0  0
   38.8500   25.5610   40.8250 N   0  0  0  0  0  0  0  0  0  0  0  0
   38.2440   26.2390   38.5810 C   0  0  0  0  0  0  0  0  0  0  0  0
   38.2090   27.6290   38.6300 C   0  0  0  0  0  0  0  0  0  0  0  0
   38.4600   28.3080   37.4690 C   0  0  0  0  0  0  0  0  0  0  0  0
   38.7350   27.6950   36.2970 N   0  0  0  0  0  0  0  0  0  0  0  0
   38.7580   26.3510   36.3000 C   0  0  0  0  0  0  0  0  0  0  0  0
   38.5180   25.6330   37.4140 N   0  0  0  0  0  0  0  0  0  0  0  0
   38.4650   29.3190   42.5310 C   0  0  0  0  0  0  0  0  0  0  0  0
   37.4010   28.9030   43.3480 C   0  0  0  0  0  0  0  0  0  0  0  0
   37.8120   27.7110   43.9230 C   0  0  0  0  0  0  0  0  0  0  0  0
   39.0470   27.4450   43.4660 N   0  0  0  0  0  0  0  0  0  0  0  0
   39.4490   28.4060   42.6300 N   0  0  0  0  0  0  0  0  0  0  0  0
   37.1390   31.9520   40.3570 C   0  0  0  0  0  0  0  0  0  0  0  0
   38.1920   32.8850   40.3100 C   0  0  0  0  0  0  0  0  0  0  0  0
   39.3600   32.5920   41.0370 C   0  0  0  0  0  0  0  0  0  0  0  0
   39.4230   31.4360   41.7450 N   0  0  0  0  0  0  0  0  0  0  0  0
   38.3780   30.5540   41.7650 C   0  0  0  0  0  0  0  0  0  0  0  0
   37.2260   30.8150   41.0640 N   0  0  0  0  0  0  0  0  0  0  0  0
   39.6993   26.5301   44.9231 H   0  0  0  0  0  0  0  0  0  0  0  0
   41.8666   25.4394   43.3293 H   0  0  0  0  0  0  0  0  0  0  0  0
   41.4505   26.2422   42.0647 H   0  0  0  0  0  0  0  0  0  0  0  0
   39.4891   23.9362   43.3341 H   0  0  0  0  0  0  0  0  0  0  0  0
   37.3554   23.5389   43.0981 H   0  0  0  0  0  0  0  0  0  0  0  0
   35.8026   23.4614   41.1854 H   0  0  0  0  0  0  0  0  0  0  0  0
   37.9879   28.1618   39.5666 H   0  0  0  0  0  0  0  0  0  0  0  0
   38.4367   29.4075   37.4910 H   0  0  0  0  0  0  0  0  0  0  0  0
   38.9800   25.8204   35.3624 H   0  0  0  0  0  0  0  0  0  0  0  0
   36.4404   29.4169   43.5000 H   0  0  0  0  0  0  0  0  0  0  0  0
   37.2323   27.0946   44.6259 H   0  0  0  0  0  0  0  0  0  0  0  0
   36.2160   32.1616   39.7966 H   0  0  0  0  0  0  0  0  0  0  0  0
   38.1044   33.8121   39.7244 H   0  0  0  0  0  0  0  0  0  0  0  0
   40.2102   33.2900   41.0317 H   0  0  0  0  0  0  0  0  0  0  0  0
  2  3  1  0
  2  1  1  0
  3  1  1  0
  4  5  2  0
  4  3  1  0
  6  5  1  0
  7  6  2  0
  8  7  1  0
  8  9  2  0
  9  4  1  0
 10 11  2  0
 10  8  1  0
 12 11  1  0
 13 14  1  0
 13 12  2  0
 14 15  2  0
 15 10  1  0
 16 20  2  0
 16 17  1  0
 17 18  2  0
 19  1  1  0
 19 18  1  0
 20 19  1  0
 21 26  2  0
 22 21  1  0
 22 23  2  0
 23 24  1  0
 24 25  2  0
 25 16  1  0
 26 25  1  0
  1 27  1  1
  2 28  1  0
  2 29  1  0
  3 30  1  1
  5 31  1  0
  6 32  1  0
 11 33  1  0
 12 34  1  0
 14 35  1  0
 17 36  1  0
 18 37  1  0
 21 38  1  0
 22 39  1  0
 23 40  1  0
M  ISO  8  27  13  28  13  29  13  30  13  31  14  32  14  33  14  34  14
M  ISO  6  35  14  36  14  37  14  38  14  39  14  40  14
M  END
>  <minimizedAffinity>  (1) 
-5.57662916

>  <minimizedRMSD>  (1) 
0.647515774

$$$$
