
     RDKit          3D

 45 49  0  0  1  0  0  0  0  0999 V2000
   39.8020   26.2580   43.8410 C   0  0  2  0  0  0  0  0  0  0  0  0
   40.9110   25.7880   42.8860 C   0  0  0  0  0  0  0  0  0  0  0  0
   39.6740   24.9820   43.0590 C   0  0  2  0  0  0  0  0  0  0  0  0
   38.6470   24.8840   41.9900 C   0  0  0  0  0  0  0  0  0  0  0  0
   37.5150   24.1170   42.2010 C   0  0  0  0  0  0  0  0  0  0  0  0
   36.6620   24.0950   41.1290 C   0  0  0  0  0  0  0  0  0  0  0  0
   36.8170   24.7180   39.9560 N   0  0  0  0  0  0  0  0  0  0  0  0
   37.9430   25.4550   39.8020 C   0  0  0  0  0  0  0  0  0  0  0  0
   38.8320   25.5270   40.8090 N   0  0  0  0  0  0  0  0  0  0  0  0
   38.1180   26.1480   38.5000 C   0  0  0  0  0  0  0  0  0  0  0  0
   36.8410   26.1580   37.7100 C   0  0  0  0  0  0  0  0  0  0  0  0
   36.5040   27.5960   37.4360 C   0  0  0  0  0  0  0  0  0  0  0  0
   37.2070   28.3780   38.5170 C   0  0  0  0  0  0  0  0  0  0  0  0
   38.4540   27.6010   38.7890 C   0  0  0  0  0  0  0  0  0  0  0  0
   38.4730   29.3150   42.5210 C   0  0  0  0  0  0  0  0  0  0  0  0
   37.4090   28.8980   43.3370 C   0  0  0  0  0  0  0  0  0  0  0  0
   37.8190   27.7050   43.9070 C   0  0  0  0  0  0  0  0  0  0  0  0
   39.0550   27.4390   43.4500 N   0  0  0  0  0  0  0  0  0  0  0  0
   39.4500   28.3990   42.6210 N   0  0  0  0  0  0  0  0  0  0  0  0
   37.1360   31.9730   40.3840 C   0  0  0  0  0  0  0  0  0  0  0  0
   38.2000   32.8870   40.3140 C   0  0  0  0  0  0  0  0  0  0  0  0
   39.3820   32.5780   41.0110 C   0  0  0  0  0  0  0  0  0  0  0  0
   39.4420   31.4150   41.7160 N   0  0  0  0  0  0  0  0  0  0  0  0
   38.3850   30.5520   41.7600 C   0  0  0  0  0  0  0  0  0  0  0  0
   37.2240   30.8350   41.0870 N   0  0  0  0  0  0  0  0  0  0  0  0
   39.7103   26.5157   44.9064 H   0  0  0  0  0  0  0  0  0  0  0  0
   41.8674   25.4233   43.2888 H   0  0  0  0  0  0  0  0  0  0  0  0
   41.4419   26.2288   42.0294 H   0  0  0  0  0  0  0  0  0  0  0  0
   39.4940   23.9263   43.3101 H   0  0  0  0  0  0  0  0  0  0  0  0
   37.3187   23.5769   43.1390 H   0  0  0  0  0  0  0  0  0  0  0  0
   35.7461   23.4973   41.2466 H   0  0  0  0  0  0  0  0  0  0  0  0
   38.9025   25.6265   37.9321 H   0  0  0  0  0  0  0  0  0  0  0  0
   36.9786   25.6154   36.7631 H   0  0  0  0  0  0  0  0  0  0  0  0
   36.0311   25.6649   38.2676 H   0  0  0  0  0  0  0  0  0  0  0  0
   36.8697   27.8957   36.4428 H   0  0  0  0  0  0  0  0  0  0  0  0
   35.4183   27.7725   37.4399 H   0  0  0  0  0  0  0  0  0  0  0  0
   37.4493   29.3927   38.1680 H   0  0  0  0  0  0  0  0  0  0  0  0
   36.5856   28.5006   39.4164 H   0  0  0  0  0  0  0  0  0  0  0  0
   38.7567   27.7209   39.8397 H   0  0  0  0  0  0  0  0  0  0  0  0
   39.2894   27.9515   38.1651 H   0  0  0  0  0  0  0  0  0  0  0  0
   36.4491   29.4125   43.4912 H   0  0  0  0  0  0  0  0  0  0  0  0
   37.2384   27.0865   44.6073 H   0  0  0  0  0  0  0  0  0  0  0  0
   36.2031   32.1975   39.8462 H   0  0  0  0  0  0  0  0  0  0  0  0
   38.1117   33.8162   39.7319 H   0  0  0  0  0  0  0  0  0  0  0  0
   40.2420   33.2634   40.9869 H   0  0  0  0  0  0  0  0  0  0  0  0
  2  3  1  0
  2  1  1  0
  3  1  1  0
  4  5  2  0
  4  3  1  0
  6  5  1  0
  7  6  2  0
  8  7  1  0
  8  9  2  0
  9  4  1  0
 10 14  1  0
 10  8  1  0
 11 10  1  0
 12 11  1  0
 12 13  1  0
 13 14  1  0
 15 19  2  0
 15 16  1  0
 16 17  2  0
 18  1  1  0
 18 17  1  0
 19 18  1  0
 20 25  2  0
 21 20  1  0
 21 22  2  0
 22 23  1  0
 23 24  2  0
 24 15  1  0
 25 24  1  0
  1 26  1  1
  2 27  1  0
  2 28  1  0
  3 29  1  1
  5 30  1  0
  6 31  1  0
 10 32  1  0
 11 33  1  0
 11 34  1  0
 12 35  1  0
 12 36  1  0
 13 37  1  0
 13 38  1  0
 14 39  1  0
 14 40  1  0
 16 41  1  0
 17 42  1  0
 20 43  1  0
 21 44  1  0
 22 45  1  0
M  ISO  8  26  13  27  13  28  13  29  13  30  14  31  14  32  13  33  13
M  ISO  8  34  13  35  13  36  13  37  13  38  13  39  13  40  13  41  14
M  ISO  4  42  14  43  14  44  14  45  14
M  END
>  <minimizedAffinity>  (1) 
-5.43102646

>  <minimizedRMSD>  (1) 
1.04358172

$$$$
