
     RDKit          3D

 33 36  0  0  1  0  0  0  0  0999 V2000
   39.8770   26.1950   43.9090 C   0  0  2  0  0  0  0  0  0  0  0  0
   41.0320   25.7840   42.9850 C   0  0  0  0  0  0  0  0  0  0  0  0
   39.8270   24.9200   43.1140 C   0  0  2  0  0  0  0  0  0  0  0  0
   38.8490   24.7890   42.0110 C   0  0  0  0  0  0  0  0  0  0  0  0
   37.5990   24.2520   42.2720 C   0  0  0  0  0  0  0  0  0  0  0  0
   36.7930   24.1650   41.1650 C   0  0  0  0  0  0  0  0  0  0  0  0
   37.0990   24.5360   39.9160 N   0  0  0  0  0  0  0  0  0  0  0  0
   38.3290   25.0540   39.7170 C   0  0  0  0  0  0  0  0  0  0  0  0
   39.1750   25.1720   40.7500 N   0  0  0  0  0  0  0  0  0  0  0  0
   38.8370   25.4970   38.5040 O   0  0  0  0  0  0  0  0  0  0  0  0
   38.4380   29.1930   42.5710 C   0  0  0  0  0  0  0  0  0  0  0  0
   37.3870   28.7350   43.3680 C   0  0  0  0  0  0  0  0  0  0  0  0
   37.8380   27.5590   43.9460 C   0  0  0  0  0  0  0  0  0  0  0  0
   39.0860   27.3420   43.5070 N   0  0  0  0  0  0  0  0  0  0  0  0
   39.4510   28.3160   42.6840 N   0  0  0  0  0  0  0  0  0  0  0  0
   37.0160   31.8050   40.4310 C   0  0  0  0  0  0  0  0  0  0  0  0
   38.0510   32.7440   40.3480 C   0  0  0  0  0  0  0  0  0  0  0  0
   39.2480   32.4730   41.0360 C   0  0  0  0  0  0  0  0  0  0  0  0
   39.3470   31.3180   41.7460 N   0  0  0  0  0  0  0  0  0  0  0  0
   38.3130   30.4260   41.8030 C   0  0  0  0  0  0  0  0  0  0  0  0
   37.1390   30.6750   41.1380 N   0  0  0  0  0  0  0  0  0  0  0  0
   39.7458   26.4405   44.9732 H   0  0  0  0  0  0  0  0  0  0  0  0
   41.9916   25.4590   43.4135 H   0  0  0  0  0  0  0  0  0  0  0  0
   41.5674   26.2562   42.1481 H   0  0  0  0  0  0  0  0  0  0  0  0
   39.6825   23.8564   43.3546 H   0  0  0  0  0  0  0  0  0  0  0  0
   37.2821   23.9257   43.2735 H   0  0  0  0  0  0  0  0  0  0  0  0
   35.7881   23.7456   41.3207 H   0  0  0  0  0  0  0  0  0  0  0  0
   39.7555   25.8634   38.4562 H   0  0  0  0  0  0  0  0  0  0  0  0
   36.4045   29.2094   43.5081 H   0  0  0  0  0  0  0  0  0  0  0  0
   37.2736   26.9188   44.6400 H   0  0  0  0  0  0  0  0  0  0  0  0
   36.0734   32.0017   39.8993 H   0  0  0  0  0  0  0  0  0  0  0  0
   37.9318   33.6671   39.7618 H   0  0  0  0  0  0  0  0  0  0  0  0
   40.0879   33.1824   41.0000 H   0  0  0  0  0  0  0  0  0  0  0  0
  2  3  1  0
  2  1  1  0
  3  1  1  0
  4  5  2  0
  4  3  1  0
  6  5  1  0
  7  6  2  0
  8  7  1  0
  8  9  2  0
  9  4  1  0
 10  8  1  0
 11 15  2  0
 11 12  1  0
 12 13  2  0
 14  1  1  0
 14 13  1  0
 15 14  1  0
 16 21  2  0
 17 16  1  0
 17 18  2  0
 18 19  1  0
 19 20  2  0
 20 11  1  0
 21 20  1  0
  1 22  1  1
  2 23  1  0
  2 24  1  0
  3 25  1  1
  5 26  1  0
  6 27  1  0
 10 28  1  0
 12 29  1  0
 13 30  1  0
 16 31  1  0
 17 32  1  0
 18 33  1  0
M  ISO  8  22  13  23  13  24  13  25  13  26  14  27  14  28   3  29  14
M  ISO  4  30  14  31  14  32  14  33  14
M  END
>  <minimizedAffinity>  (1) 
-5.30077887

>  <minimizedRMSD>  (1) 
0.0139136901

$$$$
