
     RDKit          3D

 33 36  0  0  1  0  0  0  0  0999 V2000
   39.8570   26.1920   43.9010 C   0  0  2  0  0  0  0  0  0  0  0  0
   41.0020   25.7700   42.9680 C   0  0  0  0  0  0  0  0  0  0  0  0
   39.7920   24.9170   43.1100 C   0  0  2  0  0  0  0  0  0  0  0  0
   38.8000   24.7880   42.0160 C   0  0  0  0  0  0  0  0  0  0  0  0
   37.5530   24.2470   42.2880 C   0  0  0  0  0  0  0  0  0  0  0  0
   36.7390   24.1650   41.1870 C   0  0  0  0  0  0  0  0  0  0  0  0
   37.0340   24.5440   39.9370 N   0  0  0  0  0  0  0  0  0  0  0  0
   38.2600   25.0630   39.7270 C   0  0  0  0  0  0  0  0  0  0  0  0
   39.1140   25.1760   40.7540 N   0  0  0  0  0  0  0  0  0  0  0  0
   38.7630   25.6010   38.1040 S   0  0  0  0  0  0  0  0  0  0  0  0
   38.4360   29.1980   42.5630 C   0  0  0  0  0  0  0  0  0  0  0  0
   37.3810   28.7470   43.3710 C   0  0  0  0  0  0  0  0  0  0  0  0
   37.8260   27.5690   43.9470 C   0  0  0  0  0  0  0  0  0  0  0  0
   39.0730   27.3440   43.5020 N   0  0  0  0  0  0  0  0  0  0  0  0
   39.4470   28.3180   42.6690 N   0  0  0  0  0  0  0  0  0  0  0  0
   37.0240   31.8160   40.4260 C   0  0  0  0  0  0  0  0  0  0  0  0
   38.0620   32.7540   40.3480 C   0  0  0  0  0  0  0  0  0  0  0  0
   39.2570   32.4780   41.0380 C   0  0  0  0  0  0  0  0  0  0  0  0
   39.3510   31.3210   41.7470 N   0  0  0  0  0  0  0  0  0  0  0  0
   38.3120   30.4310   41.7970 C   0  0  0  0  0  0  0  0  0  0  0  0
   37.1410   30.6830   41.1320 N   0  0  0  0  0  0  0  0  0  0  0  0
   39.7352   26.4405   44.9656 H   0  0  0  0  0  0  0  0  0  0  0  0
   41.9626   25.4386   43.3892 H   0  0  0  0  0  0  0  0  0  0  0  0
   41.5341   26.2357   42.1254 H   0  0  0  0  0  0  0  0  0  0  0  0
   39.6427   23.8548   43.3540 H   0  0  0  0  0  0  0  0  0  0  0  0
   37.2457   23.9152   43.2907 H   0  0  0  0  0  0  0  0  0  0  0  0
   35.7362   23.7426   41.3482 H   0  0  0  0  0  0  0  0  0  0  0  0
   39.6952   26.5980   38.2219 H   0  0  0  0  0  0  0  0  0  0  0  0
   36.4032   29.2293   43.5166 H   0  0  0  0  0  0  0  0  0  0  0  0
   37.2603   26.9325   44.6433 H   0  0  0  0  0  0  0  0  0  0  0  0
   36.0838   32.0159   39.8911 H   0  0  0  0  0  0  0  0  0  0  0  0
   37.9461   33.6792   39.7644 H   0  0  0  0  0  0  0  0  0  0  0  0
   40.0993   33.1847   41.0046 H   0  0  0  0  0  0  0  0  0  0  0  0
  2  3  1  0
  2  1  1  0
  3  1  1  0
  4  5  2  0
  4  3  1  0
  6  5  1  0
  7  6  2  0
  8  7  1  0
  8  9  2  0
  9  4  1  0
 10  8  1  0
 11 15  2  0
 11 12  1  0
 12 13  2  0
 14  1  1  0
 14 13  1  0
 15 14  1  0
 16 21  2  0
 17 16  1  0
 17 18  2  0
 18 19  1  0
 19 20  2  0
 20 11  1  0
 21 20  1  0
  1 22  1  1
  2 23  1  0
  2 24  1  0
  3 25  1  1
  5 26  1  0
  6 27  1  0
 10 28  1  0
 12 29  1  0
 13 30  1  0
 16 31  1  0
 17 32  1  0
 18 33  1  0
M  ISO  8  22  13  23  13  24  13  25  13  26  14  27  14  28  11  29  14
M  ISO  4  30  14  31  14  32  14  33  14
M  END
>  <minimizedAffinity>  (1) 
-5.28625441

>  <minimizedRMSD>  (1) 
0.037399739

$$$$
