
     RDKit          3D

 23 24  0  0  0  0  0  0  0  0999 V2000
   38.3990   27.8070   43.4620 C   0  0  0  0  0  0  0  0  0  0  0  0
   37.1890   27.2010   43.0490 C   0  0  0  0  0  0  0  0  0  0  0  0
   36.3890   27.8860   42.1230 C   0  0  0  0  0  0  0  0  0  0  0  0
   36.8280   29.0980   41.6750 N   0  0  0  0  0  0  0  0  0  0  0  0
   37.9930   29.6510   42.0930 C   0  0  0  0  0  0  0  0  0  0  0  0
   38.7730   29.0140   42.9760 N   0  0  0  0  0  0  0  0  0  0  0  0
   38.3430   30.9210   41.5520 N   0  0  0  0  0  0  0  0  0  0  0  0
   37.5220   31.5860   40.7220 C   0  0  0  0  0  0  0  0  0  0  0  0
   38.0080   32.8000   40.2900 C   0  0  0  0  0  0  0  0  0  0  0  0
   37.1940   33.6310   39.3670 C   0  0  0  0  0  0  0  0  0  0  0  0
   39.2250   33.3380   40.6430 C   0  0  0  0  0  0  0  0  0  0  0  0
   39.6340   34.4510   40.2260 O   0  0  0  0  0  0  0  0  0  0  0  0
   40.0070   32.6130   41.4860 N   0  0  0  0  0  0  0  0  0  0  0  0
   39.5510   31.4110   41.9290 C   0  0  0  0  0  0  0  0  0  0  0  0
   40.3180   30.7770   42.7120 O   0  0  0  0  0  0  0  0  0  0  0  0
   39.0445   27.2905   44.1877 H   0  0  0  0  0  0  0  0  0  0  0  0
   36.8844   26.2202   43.4431 H   0  0  0  0  0  0  0  0  0  0  0  0
   35.4385   27.4602   41.7692 H   0  0  0  0  0  0  0  0  0  0  0  0
   36.5422   31.1931   40.4129 H   0  0  0  0  0  0  0  0  0  0  0  0
   36.5419   34.2967   39.9515 H   0  0  0  0  0  0  0  0  0  0  0  0
   37.8602   34.2344   38.7329 H   0  0  0  0  0  0  0  0  0  0  0  0
   36.5769   32.9775   38.7329 H   0  0  0  0  0  0  0  0  0  0  0  0
   40.9273   32.9673   41.7835 H   0  0  0  0  0  0  0  0  0  0  0  0
  2  1  2  0
  3  2  1  0
  4  5  1  0
  4  3  2  0
  5  6  2  0
  6  1  1  0
  7 14  1  0
  7  5  1  0
  8  7  1  0
  9 11  1  0
  9  8  2  0
 10  9  1  0
 11 13  1  0
 12 11  2  0
 13 14  1  0
 14 15  2  0
  1 16  1  0
  2 17  1  0
  3 18  1  0
  8 19  1  0
 10 20  1  0
 10 21  1  0
 10 22  1  0
 13 23  1  0
M  ISO  8  16  14  17  14  18  14  19  14  20   8  21   8  22   8  23   9
M  END
>  <minimizedAffinity>  (1) 
-5.14298487

>  <minimizedRMSD>  (1) 
3.3255887

$$$$
