
     RDKit          3D

 39 43  0  0  1  0  0  0  0  0999 V2000
   39.8640   26.1750   43.8940 C   0  0  2  0  0  0  0  0  0  0  0  0
   41.0030   25.7530   42.9520 C   0  0  0  0  0  0  0  0  0  0  0  0
   39.7940   24.9010   43.1020 C   0  0  2  0  0  0  0  0  0  0  0  0
   38.7970   24.7770   42.0090 C   0  0  0  0  0  0  0  0  0  0  0  0
   37.5500   24.2470   42.2890 C   0  0  0  0  0  0  0  0  0  0  0  0
   36.7260   24.1660   41.1920 C   0  0  0  0  0  0  0  0  0  0  0  0
   37.0140   24.5390   39.9320 N   0  0  0  0  0  0  0  0  0  0  0  0
   38.2460   25.0490   39.7220 C   0  0  0  0  0  0  0  0  0  0  0  0
   39.1050   25.1590   40.7450 N   0  0  0  0  0  0  0  0  0  0  0  0
   38.6110   25.4760   38.3460 C   0  0  0  0  0  0  0  0  0  0  0  0
   38.4920   26.8610   37.8860 C   0  0  0  0  0  0  0  0  0  0  0  0
   37.4470   25.8420   37.4250 C   0  0  0  0  0  0  0  0  0  0  0  0
   38.4500   29.1880   42.5580 C   0  0  0  0  0  0  0  0  0  0  0  0
   37.3920   28.7400   43.3740 C   0  0  0  0  0  0  0  0  0  0  0  0
   37.8370   27.5600   43.9480 C   0  0  0  0  0  0  0  0  0  0  0  0
   39.0840   27.3320   43.4940 N   0  0  0  0  0  0  0  0  0  0  0  0
   39.4560   28.3040   42.6610 N   0  0  0  0  0  0  0  0  0  0  0  0
   37.0160   31.8030   40.4420 C   0  0  0  0  0  0  0  0  0  0  0  0
   38.0560   32.7530   40.3530 C   0  0  0  0  0  0  0  0  0  0  0  0
   39.2550   32.4620   41.0390 C   0  0  0  0  0  0  0  0  0  0  0  0
   39.3560   31.3080   41.7410 N   0  0  0  0  0  0  0  0  0  0  0  0
   38.3190   30.4200   41.7970 C   0  0  0  0  0  0  0  0  0  0  0  0
   37.1360   30.6670   41.1430 N   0  0  0  0  0  0  0  0  0  0  0  0
   39.7458   26.4203   44.9598 H   0  0  0  0  0  0  0  0  0  0  0  0
   41.9664   25.4208   43.3661 H   0  0  0  0  0  0  0  0  0  0  0  0
   41.5294   26.2190   42.1060 H   0  0  0  0  0  0  0  0  0  0  0  0
   39.6446   23.8393   43.3478 H   0  0  0  0  0  0  0  0  0  0  0  0
   37.2466   23.9211   43.2949 H   0  0  0  0  0  0  0  0  0  0  0  0
   35.7217   23.7510   41.3629 H   0  0  0  0  0  0  0  0  0  0  0  0
   39.4594   24.7759   38.3388 H   0  0  0  0  0  0  0  0  0  0  0  0
   38.2084   27.6505   38.5976 H   0  0  0  0  0  0  0  0  0  0  0  0
   39.1649   27.5611   37.3692 H   0  0  0  0  0  0  0  0  0  0  0  0
   36.4191   25.8823   37.8146 H   0  0  0  0  0  0  0  0  0  0  0  0
   37.0560   25.4868   36.4601 H   0  0  0  0  0  0  0  0  0  0  0  0
   36.4165   29.2257   43.5240 H   0  0  0  0  0  0  0  0  0  0  0  0
   37.2738   26.9248   44.6476 H   0  0  0  0  0  0  0  0  0  0  0  0
   36.0708   32.0026   39.9159 H   0  0  0  0  0  0  0  0  0  0  0  0
   37.9373   33.6806   39.7738 H   0  0  0  0  0  0  0  0  0  0  0  0
   40.0995   33.1660   41.0038 H   0  0  0  0  0  0  0  0  0  0  0  0
  2  3  1  0
  2  1  1  0
  3  1  1  0
  4  5  2  0
  4  3  1  0
  6  5  1  0
  7  6  2  0
  8  7  1  0
  8  9  2  0
  9  4  1  0
 10  8  1  0
 11 10  1  0
 12 11  1  0
 12 10  1  0
 13 17  2  0
 13 14  1  0
 14 15  2  0
 16  1  1  0
 16 15  1  0
 17 16  1  0
 18 23  2  0
 19 18  1  0
 19 20  2  0
 20 21  1  0
 21 22  2  0
 22 13  1  0
 23 22  1  0
  1 24  1  1
  2 25  1  0
  2 26  1  0
  3 27  1  1
  5 28  1  0
  6 29  1  0
 10 30  1  0
 11 31  1  0
 11 32  1  0
 12 33  1  0
 12 34  1  0
 14 35  1  0
 15 36  1  0
 18 37  1  0
 19 38  1  0
 20 39  1  0
M  ISO  8  24  13  25  13  26  13  27  13  28  14  29  14  30  13  31  13
M  ISO  8  32  13  33  13  34  13  35  14  36  14  37  14  38  14  39  14
M  END
>  <minimizedAffinity>  (1) 
-5.18141651

>  <minimizedRMSD>  (1) 
0.0588220879

$$$$
