
     RDKit          3D

 35 38  0  0  1  0  0  0  0  0999 V2000
   39.8520   26.1860   43.9020 C   0  0  2  0  0  0  0  0  0  0  0  0
   40.9980   25.7650   42.9700 C   0  0  0  0  0  0  0  0  0  0  0  0
   39.7880   24.9110   43.1070 C   0  0  2  0  0  0  0  0  0  0  0  0
   38.7920   24.7850   42.0140 C   0  0  0  0  0  0  0  0  0  0  0  0
   37.5460   24.2460   42.2900 C   0  0  0  0  0  0  0  0  0  0  0  0
   36.7310   24.1670   41.1890 C   0  0  0  0  0  0  0  0  0  0  0  0
   37.0230   24.5460   39.9330 N   0  0  0  0  0  0  0  0  0  0  0  0
   38.2520   25.0630   39.7270 C   0  0  0  0  0  0  0  0  0  0  0  0
   39.1100   25.1750   40.7550 N   0  0  0  0  0  0  0  0  0  0  0  0
   38.7010   25.5160   38.4110 C   0  0  0  0  0  0  0  0  0  0  0  0
   39.9260   25.4430   38.0600 O   0  0  0  0  0  0  0  0  0  0  0  0
   37.8250   26.0460   37.4740 O   0  0  0  0  0  0  0  0  0  0  0  0
   38.4440   29.1980   42.5590 C   0  0  0  0  0  0  0  0  0  0  0  0
   37.3840   28.7500   43.3690 C   0  0  0  0  0  0  0  0  0  0  0  0
   37.8290   27.5710   43.9450 C   0  0  0  0  0  0  0  0  0  0  0  0
   39.0720   27.3410   43.5010 N   0  0  0  0  0  0  0  0  0  0  0  0
   39.4500   28.3150   42.6660 N   0  0  0  0  0  0  0  0  0  0  0  0
   37.0210   31.8090   40.4310 C   0  0  0  0  0  0  0  0  0  0  0  0
   38.0610   32.7580   40.3450 C   0  0  0  0  0  0  0  0  0  0  0  0
   39.2560   32.4690   41.0350 C   0  0  0  0  0  0  0  0  0  0  0  0
   39.3520   31.3170   41.7390 N   0  0  0  0  0  0  0  0  0  0  0  0
   38.3180   30.4290   41.7940 C   0  0  0  0  0  0  0  0  0  0  0  0
   37.1430   30.6810   41.1320 N   0  0  0  0  0  0  0  0  0  0  0  0
   39.7270   26.4315   44.9669 H   0  0  0  0  0  0  0  0  0  0  0  0
   41.9578   25.4325   43.3923 H   0  0  0  0  0  0  0  0  0  0  0  0
   41.5315   26.2327   42.1293 H   0  0  0  0  0  0  0  0  0  0  0  0
   39.6408   23.8473   43.3456 H   0  0  0  0  0  0  0  0  0  0  0  0
   37.2401   23.9140   43.2931 H   0  0  0  0  0  0  0  0  0  0  0  0
   35.7276   23.7470   41.3524 H   0  0  0  0  0  0  0  0  0  0  0  0
   38.1635   26.3430   36.5923 H   0  0  0  0  0  0  0  0  0  0  0  0
   36.4071   29.2342   43.5144 H   0  0  0  0  0  0  0  0  0  0  0  0
   37.2625   26.9367   44.6427 H   0  0  0  0  0  0  0  0  0  0  0  0
   36.0770   32.0060   39.9018 H   0  0  0  0  0  0  0  0  0  0  0  0
   37.9445   33.6847   39.7639 H   0  0  0  0  0  0  0  0  0  0  0  0
   40.1012   33.1722   41.0016 H   0  0  0  0  0  0  0  0  0  0  0  0
  2  3  1  0
  2  1  1  0
  3  1  1  0
  4  5  2  0
  4  3  1  0
  6  5  1  0
  7  6  2  0
  8  7  1  0
  8  9  2  0
  9  4  1  0
 10  8  1  0
 11 10  2  0
 12 10  1  0
 13 17  2  0
 13 14  1  0
 14 15  2  0
 16  1  1  0
 16 15  1  0
 17 16  1  0
 18 23  2  0
 19 18  1  0
 19 20  2  0
 20 21  1  0
 21 22  2  0
 22 13  1  0
 23 22  1  0
  1 24  1  1
  2 25  1  0
  2 26  1  0
  3 27  1  1
  5 28  1  0
  6 29  1  0
 12 30  1  0
 14 31  1  0
 15 32  1  0
 18 33  1  0
 19 34  1  0
 20 35  1  0
M  ISO  8  24  13  25  13  26  13  27  13  28  14  29  14  30   3  31  14
M  ISO  4  32  14  33  14  34  14  35  14
M  END
>  <minimizedAffinity>  (1) 
-5.17250156

>  <minimizedRMSD>  (1) 
0.0470227823

$$$$
