
     RDKit          3D

 34 37  0  0  1  0  0  0  0  0999 V2000
   39.8650   26.1900   43.9030 C   0  0  2  0  0  0  0  0  0  0  0  0
   41.0150   25.7740   42.9760 C   0  0  0  0  0  0  0  0  0  0  0  0
   39.8080   24.9160   43.1120 C   0  0  2  0  0  0  0  0  0  0  0  0
   38.8170   24.7850   42.0110 C   0  0  0  0  0  0  0  0  0  0  0  0
   37.5700   24.2470   42.2810 C   0  0  0  0  0  0  0  0  0  0  0  0
   36.7600   24.1660   41.1760 C   0  0  0  0  0  0  0  0  0  0  0  0
   37.0460   24.5380   39.9200 N   0  0  0  0  0  0  0  0  0  0  0  0
   38.2870   25.0590   39.7190 C   0  0  0  0  0  0  0  0  0  0  0  0
   39.1390   25.1730   40.7520 N   0  0  0  0  0  0  0  0  0  0  0  0
   38.7880   25.5220   38.4320 C   0  0  0  0  0  0  0  0  0  0  0  0
   38.1400   26.2370   37.6290 O   0  0  0  0  0  0  0  0  0  0  0  0
   38.4390   29.1950   42.5660 C   0  0  0  0  0  0  0  0  0  0  0  0
   37.3840   28.7400   43.3700 C   0  0  0  0  0  0  0  0  0  0  0  0
   37.8310   27.5610   43.9460 C   0  0  0  0  0  0  0  0  0  0  0  0
   39.0790   27.3420   43.5010 N   0  0  0  0  0  0  0  0  0  0  0  0
   39.4490   28.3180   42.6730 N   0  0  0  0  0  0  0  0  0  0  0  0
   37.0180   31.8130   40.4320 C   0  0  0  0  0  0  0  0  0  0  0  0
   38.0520   32.7480   40.3490 C   0  0  0  0  0  0  0  0  0  0  0  0
   39.2520   32.4750   41.0360 C   0  0  0  0  0  0  0  0  0  0  0  0
   39.3490   31.3200   41.7450 N   0  0  0  0  0  0  0  0  0  0  0  0
   38.3150   30.4290   41.8010 C   0  0  0  0  0  0  0  0  0  0  0  0
   37.1380   30.6780   41.1390 N   0  0  0  0  0  0  0  0  0  0  0  0
   39.7366   26.4366   44.9673 H   0  0  0  0  0  0  0  0  0  0  0  0
   41.9751   25.4464   43.4014 H   0  0  0  0  0  0  0  0  0  0  0  0
   41.5491   26.2425   42.1362 H   0  0  0  0  0  0  0  0  0  0  0  0
   39.6624   23.8529   43.3541 H   0  0  0  0  0  0  0  0  0  0  0  0
   37.2590   23.9168   43.2831 H   0  0  0  0  0  0  0  0  0  0  0  0
   35.7568   23.7459   41.3404 H   0  0  0  0  0  0  0  0  0  0  0  0
   39.8067   25.2239   38.1431 H   0  0  0  0  0  0  0  0  0  0  0  0
   36.4045   29.2194   43.5138 H   0  0  0  0  0  0  0  0  0  0  0  0
   37.2666   26.9216   44.6407 H   0  0  0  0  0  0  0  0  0  0  0  0
   36.0754   32.0128   39.9013 H   0  0  0  0  0  0  0  0  0  0  0  0
   37.9332   33.6718   39.7638 H   0  0  0  0  0  0  0  0  0  0  0  0
   40.0932   33.1828   40.9989 H   0  0  0  0  0  0  0  0  0  0  0  0
  2  3  1  0
  2  1  1  0
  3  1  1  0
  4  5  2  0
  4  3  1  0
  6  5  1  0
  7  6  2  0
  8  7  1  0
  8  9  2  0
  9  4  1  0
 10  8  1  0
 11 10  2  0
 12 16  2  0
 12 13  1  0
 13 14  2  0
 15  1  1  0
 15 14  1  0
 16 15  1  0
 17 22  2  0
 18 17  1  0
 18 19  2  0
 19 20  1  0
 20 21  2  0
 21 12  1  0
 22 21  1  0
  1 23  1  1
  2 24  1  0
  2 25  1  0
  3 26  1  1
  5 27  1  0
  6 28  1  0
 10 29  1  0
 13 30  1  0
 14 31  1  0
 17 32  1  0
 18 33  1  0
 19 34  1  0
M  ISO  8  23  13  24  13  25  13  26  13  27  14  28  14  29   6  30  14
M  ISO  4  31  14  32  14  33  14  34  14
M  END
>  <minimizedAffinity>  (1) 
-5.11190414

>  <minimizedRMSD>  (1) 
0.0253447723

$$$$
