
     RDKit          3D

 33 36  0  0  0  0  0  0  0  0999 V2000
   37.9940   29.0530   41.4170 C   0  0  0  0  0  0  0  0  0  0  0  0
   37.2110   30.0530   41.9880 C   0  0  0  0  0  0  0  0  0  0  0  0
   36.3020   30.6860   41.1470 C   0  0  0  0  0  0  0  0  0  0  0  0
   36.2300   30.2910   39.8110 C   0  0  0  0  0  0  0  0  0  0  0  0
   37.0120   29.3120   39.2890 C   0  0  0  0  0  0  0  0  0  0  0  0
   37.8930   28.6950   40.1000 N   0  0  0  0  0  0  0  0  0  0  0  0
   36.8670   28.9760   37.9130 N   0  0  0  0  0  0  0  0  0  0  0  0
   37.9410   28.7680   37.1290 C   0  0  0  0  0  0  0  0  0  0  0  0
   37.4680   28.4710   35.8870 N   0  0  0  0  0  0  0  0  0  0  0  0
   36.1140   28.5000   35.9230 C   0  0  0  0  0  0  0  0  0  0  0  0
   35.1670   28.2690   34.9270 C   0  0  0  0  0  0  0  0  0  0  0  0
   35.4870   27.9750   33.7450 O   0  0  0  0  0  0  0  0  0  0  0  0
   33.8950   28.3900   35.3460 N   0  0  0  0  0  0  0  0  0  0  0  0
   33.5160   28.7020   36.5900 C   0  0  0  0  0  0  0  0  0  0  0  0
   32.1090   28.7920   36.8800 N   0  0  0  0  0  0  0  0  0  0  0  0
   34.4460   28.9260   37.5630 N   0  0  0  0  0  0  0  0  0  0  0  0
   35.7300   28.8210   37.2110 C   0  0  0  0  0  0  0  0  0  0  0  0
   41.1580   28.1420   43.0390 C   0  0  0  0  0  0  0  0  0  0  0  0
   40.8140   27.0810   43.8750 C   0  0  0  0  0  0  0  0  0  0  0  0
   39.4690   26.6780   43.8750 C   0  0  0  0  0  0  0  0  0  0  0  0
   38.5840   27.3370   43.0690 N   0  0  0  0  0  0  0  0  0  0  0  0
   38.9670   28.3610   42.2750 C   0  0  0  0  0  0  0  0  0  0  0  0
   40.2460   28.7450   42.2740 N   0  0  0  0  0  0  0  0  0  0  0  0
   37.3065   30.3279   43.0488 H   0  0  0  0  0  0  0  0  0  0  0  0
   35.6502   31.4854   41.5292 H   0  0  0  0  0  0  0  0  0  0  0  0
   35.5079   30.7950   39.1517 H   0  0  0  0  0  0  0  0  0  0  0  0
   38.9966   28.8266   37.4327 H   0  0  0  0  0  0  0  0  0  0  0  0
   33.1514   28.2292   34.6517 H   0  0  0  0  0  0  0  0  0  0  0  0
   31.7934   29.0308   37.8309 H   0  0  0  0  0  0  0  0  0  0  0  0
   31.4178   28.6176   36.1366 H   0  0  0  0  0  0  0  0  0  0  0  0
   42.2014   28.4889   43.0093 H   0  0  0  0  0  0  0  0  0  0  0  0
   41.5632   26.5815   44.5068 H   0  0  0  0  0  0  0  0  0  0  0  0
   39.1337   25.8466   44.5125 H   0  0  0  0  0  0  0  0  0  0  0  0
  1  2  2  0
  1 22  1  0
  3  2  1  0
  4  3  2  0
  5  4  1  0
  5  6  2  0
  6  1  1  0
  7  5  1  0
  8  7  1  0
  9 10  1  0
  9  8  2  0
 10 17  2  0
 11 13  1  0
 11 10  1  0
 12 11  2  0
 13 14  1  0
 14 15  1  0
 14 16  2  0
 17 16  1  0
 17  7  1  0
 18 19  2  0
 19 20  1  0
 21 20  2  0
 22 21  1  0
 23 22  2  0
 23 18  1  0
  2 24  1  0
  3 25  1  0
  4 26  1  0
  8 27  1  0
 13 28  1  0
 15 29  1  0
 15 30  1  0
 18 31  1  0
 19 32  1  0
 20 33  1  0
M  ISO  8  24  14  25  14  26  14  27  14  28   9  31  14  32  14  33  14
M  END
>  <minimizedAffinity>  (1) 
-5.18498993

>  <minimizedRMSD>  (1) 
3.1724298

$$$$
