
     RDKit          3D

 32 34  0  0  0  0  0  0  0  0999 V2000
   37.6360   29.9560   40.8230 C   0  0  0  0  0  0  0  0  0  0  0  0
   37.7980   31.3180   41.0120 C   0  0  0  0  0  0  0  0  0  0  0  0
   37.4230   32.1810   39.9990 C   0  0  0  0  0  0  0  0  0  0  0  0
   36.9020   31.6300   38.8430 C   0  0  0  0  0  0  0  0  0  0  0  0
   36.7420   30.2760   38.6600 C   0  0  0  0  0  0  0  0  0  0  0  0
   37.1190   29.4740   39.6680 N   0  0  0  0  0  0  0  0  0  0  0  0
   36.1940   29.7370   37.4370 N   0  0  0  0  0  0  0  0  0  0  0  0
   37.0350   29.7220   36.2690 C   0  0  0  0  0  0  0  0  0  0  0  0
   36.6820   28.7750   35.2050 C   0  0  0  0  0  0  0  0  0  0  0  0
   35.3560   28.0960   35.3180 C   0  0  0  0  0  0  0  0  0  0  0  0
   34.3460   28.8750   36.1150 C   0  0  0  0  0  0  0  0  0  0  0  0
   34.8350   29.2490   37.4720 C   0  0  0  0  0  0  0  0  0  0  0  0
   39.7040   27.7400   42.8760 C   0  0  0  0  0  0  0  0  0  0  0  0
   38.8270   27.3100   43.8720 C   0  0  0  0  0  0  0  0  0  0  0  0
   37.5000   27.7850   43.8430 C   0  0  0  0  0  0  0  0  0  0  0  0
   37.1690   28.6390   42.8330 N   0  0  0  0  0  0  0  0  0  0  0  0
   38.0340   29.0300   41.8970 C   0  0  0  0  0  0  0  0  0  0  0  0
   39.3050   28.5840   41.9130 N   0  0  0  0  0  0  0  0  0  0  0  0
   38.2177   31.7066   41.9516 H   0  0  0  0  0  0  0  0  0  0  0  0
   37.5354   33.2697   40.1091 H   0  0  0  0  0  0  0  0  0  0  0  0
   36.6008   32.3071   38.0301 H   0  0  0  0  0  0  0  0  0  0  0  0
   37.9037   30.3907   36.1780 H   0  0  0  0  0  0  0  0  0  0  0  0
   37.3618   28.5745   34.3637 H   0  0  0  0  0  0  0  0  0  0  0  0
   34.9562   27.9432   34.3047 H   0  0  0  0  0  0  0  0  0  0  0  0
   35.5238   27.1476   35.8493 H   0  0  0  0  0  0  0  0  0  0  0  0
   34.1008   29.7956   35.5652 H   0  0  0  0  0  0  0  0  0  0  0  0
   33.4658   28.2292   36.2499 H   0  0  0  0  0  0  0  0  0  0  0  0
   34.7914   28.3632   38.1228 H   0  0  0  0  0  0  0  0  0  0  0  0
   34.1924   30.0545   37.8569 H   0  0  0  0  0  0  0  0  0  0  0  0
   40.7433   27.3797   42.8805 H   0  0  0  0  0  0  0  0  0  0  0  0
   39.1620   26.6186   44.6592 H   0  0  0  0  0  0  0  0  0  0  0  0
   36.7642   27.4801   44.6017 H   0  0  0  0  0  0  0  0  0  0  0  0
  1  2  2  0
  1 17  1  0
  3  2  1  0
  4  3  2  0
  5  4  1  0
  5  6  2  0
  6  1  1  0
  7 12  1  0
  7  5  1  0
  8  7  1  0
  9 10  1  0
  9  8  2  0
 10 11  1  0
 11 12  1  0
 13 14  2  0
 15 14  1  0
 16 15  2  0
 17 18  2  0
 17 16  1  0
 18 13  1  0
  2 19  1  0
  3 20  1  0
  4 21  1  0
  8 22  1  0
  9 23  1  0
 10 24  1  0
 10 25  1  0
 11 26  1  0
 11 27  1  0
 12 28  1  0
 12 29  1  0
 13 30  1  0
 14 31  1  0
 15 32  1  0
M  ISO  8  19  14  20  14  21  14  22  13  23  13  24  13  25  13  26  13
M  ISO  6  27  13  28  13  29  13  30  14  31  14  32  14
M  END
>  <minimizedAffinity>  (1) 
-4.72759676

>  <minimizedRMSD>  (1) 
2.11740994

$$$$
