
     RDKit          3D

 26 28  0  0  0  0  0  0  0  0999 V2000
   37.1530   30.2060   40.3780 C   0  0  0  0  0  0  0  0  0  0  0  0
   37.2260   31.5810   40.5480 C   0  0  0  0  0  0  0  0  0  0  0  0
   37.2050   32.3710   39.4020 C   0  0  0  0  0  0  0  0  0  0  0  0
   37.1120   31.7300   38.1670 C   0  0  0  0  0  0  0  0  0  0  0  0
   37.0400   30.3650   38.0260 C   0  0  0  0  0  0  0  0  0  0  0  0
   37.0640   29.6450   39.1520 N   0  0  0  0  0  0  0  0  0  0  0  0
   36.9460   29.7410   36.7500 N   0  0  0  0  0  0  0  0  0  0  0  0
   36.5560   30.1400   35.5360 N   0  0  0  0  0  0  0  0  0  0  0  0
   36.6750   29.1120   34.6710 C   0  0  0  0  0  0  0  0  0  0  0  0
   37.1660   28.0070   35.3770 C   0  0  0  0  0  0  0  0  0  0  0  0
   37.3270   28.4440   36.6980 C   0  0  0  0  0  0  0  0  0  0  0  0
   38.0610   28.8930   43.6860 C   0  0  0  0  0  0  0  0  0  0  0  0
   37.2290   27.7830   43.8330 C   0  0  0  0  0  0  0  0  0  0  0  0
   36.3420   27.4810   42.7760 C   0  0  0  0  0  0  0  0  0  0  0  0
   36.3630   28.2980   41.6900 N   0  0  0  0  0  0  0  0  0  0  0  0
   37.1750   29.3570   41.5800 C   0  0  0  0  0  0  0  0  0  0  0  0
   38.0050   29.6330   42.5800 N   0  0  0  0  0  0  0  0  0  0  0  0
   37.2977   32.0297   41.5498 H   0  0  0  0  0  0  0  0  0  0  0  0
   37.2601   33.4676   39.4686 H   0  0  0  0  0  0  0  0  0  0  0  0
   37.0954   32.3495   37.2582 H   0  0  0  0  0  0  0  0  0  0  0  0
   36.4294   29.1373   33.5991 H   0  0  0  0  0  0  0  0  0  0  0  0
   37.3805   27.0048   34.9776 H   0  0  0  0  0  0  0  0  0  0  0  0
   37.6965   27.8414   37.5409 H   0  0  0  0  0  0  0  0  0  0  0  0
   38.7665   29.1583   44.4871 H   0  0  0  0  0  0  0  0  0  0  0  0
   37.2625   27.1637   44.7415 H   0  0  0  0  0  0  0  0  0  0  0  0
   35.6612   26.6187   42.8297 H   0  0  0  0  0  0  0  0  0  0  0  0
  1  2  2  0
  1 16  1  0
  3  2  1  0
  4  3  2  0
  5  4  1  0
  5  6  2  0
  6  1  1  0
  7  5  1  0
  8  7  1  0
  9 10  1  0
  9  8  2  0
 10 11  2  0
 11  7  1  0
 12 13  2  0
 14 13  1  0
 15 14  2  0
 16 15  1  0
 16 17  2  0
 17 12  1  0
  2 18  1  0
  3 19  1  0
  4 20  1  0
  9 21  1  0
 10 22  1  0
 11 23  1  0
 12 24  1  0
 13 25  1  0
 14 26  1  0
M  ISO  8  18  14  19  14  20  14  21  14  22  14  23  14  24  14  25  14
M  ISO  1  26  14
M  END
>  <minimizedAffinity>  (1) 
-4.71775579

>  <minimizedRMSD>  (1) 
0.935273886

$$$$
