
     RDKit          3D

 28 30  0  0  0  0  0  0  0  0999 V2000
   37.6920   29.9950   40.8190 C   0  0  0  0  0  0  0  0  0  0  0  0
   37.9320   31.3590   41.0180 C   0  0  0  0  0  0  0  0  0  0  0  0
   37.5620   32.2120   39.9780 C   0  0  0  0  0  0  0  0  0  0  0  0
   36.9910   31.6770   38.8290 C   0  0  0  0  0  0  0  0  0  0  0  0
   36.7720   30.3380   38.6710 C   0  0  0  0  0  0  0  0  0  0  0  0
   37.1320   29.5380   39.6780 N   0  0  0  0  0  0  0  0  0  0  0  0
   39.6920   27.7240   42.8890 C   0  0  0  0  0  0  0  0  0  0  0  0
   38.7760   27.3040   43.8750 C   0  0  0  0  0  0  0  0  0  0  0  0
   37.4640   27.8110   43.8200 C   0  0  0  0  0  0  0  0  0  0  0  0
   37.1900   28.6680   42.8130 N   0  0  0  0  0  0  0  0  0  0  0  0
   38.0630   29.0590   41.8850 C   0  0  0  0  0  0  0  0  0  0  0  0
   39.3180   28.5800   41.9310 N   0  0  0  0  0  0  0  0  0  0  0  0
   36.1710   29.8610   37.4420 C   0  0  0  0  0  0  0  0  0  0  0  0
   34.9560   29.1910   37.4200 C   0  0  0  0  0  0  0  0  0  0  0  0
   34.4490   28.7670   36.2040 C   0  0  0  0  0  0  0  0  0  0  0  0
   35.1710   29.0270   35.0570 C   0  0  0  0  0  0  0  0  0  0  0  0
   36.3950   29.7010   35.0760 C   0  0  0  0  0  0  0  0  0  0  0  0
   36.8120   30.0740   36.2830 N   0  0  0  0  0  0  0  0  0  0  0  0
   38.3878   31.7383   41.9445 H   0  0  0  0  0  0  0  0  0  0  0  0
   37.7205   33.2969   40.0662 H   0  0  0  0  0  0  0  0  0  0  0  0
   36.7042   32.3589   38.0149 H   0  0  0  0  0  0  0  0  0  0  0  0
   40.7242   27.3443   42.9074 H   0  0  0  0  0  0  0  0  0  0  0  0
   39.0779   26.6003   44.6647 H   0  0  0  0  0  0  0  0  0  0  0  0
   36.7014   27.5240   44.5590 H   0  0  0  0  0  0  0  0  0  0  0  0
   34.4053   29.0002   38.3529 H   0  0  0  0  0  0  0  0  0  0  0  0
   33.4887   28.2329   36.1528 H   0  0  0  0  0  0  0  0  0  0  0  0
   34.7675   28.6907   34.0905 H   0  0  0  0  0  0  0  0  0  0  0  0
   36.9705   29.9076   34.1616 H   0  0  0  0  0  0  0  0  0  0  0  0
  1  2  2  0
  1 11  1  0
  3  2  1  0
  4  3  2  0
  5  4  1  0
  5  6  2  0
  6  1  1  0
  7  8  2  0
  9  8  1  0
 10  9  2  0
 11 12  2  0
 11 10  1  0
 12  7  1  0
 13  5  1  0
 14 13  2  0
 15 14  1  0
 16 17  1  0
 16 15  2  0
 17 18  2  0
 18 13  1  0
  2 19  1  0
  3 20  1  0
  4 21  1  0
  7 22  1  0
  8 23  1  0
  9 24  1  0
 14 25  1  0
 15 26  1  0
 16 27  1  0
 17 28  1  0
M  ISO  8  19  14  20  14  21  14  22  14  23  14  24  14  25  14  26  14
M  ISO  2  27  14  28  14
M  END
>  <minimizedAffinity>  (1) 
-4.6477232

>  <minimizedRMSD>  (1) 
2.15873861

$$$$
