
     RDKit          3D

 27 29  0  0  0  0  0  0  0  0999 V2000
   37.5350   30.0500   40.6460 C   0  0  0  0  0  0  0  0  0  0  0  0
   37.8420   31.3850   40.8590 C   0  0  0  0  0  0  0  0  0  0  0  0
   37.6050   32.2750   39.8180 C   0  0  0  0  0  0  0  0  0  0  0  0
   37.0790   31.7860   38.6340 C   0  0  0  0  0  0  0  0  0  0  0  0
   36.7850   30.4750   38.4460 C   0  0  0  0  0  0  0  0  0  0  0  0
   37.0220   29.6360   39.4640 N   0  0  0  0  0  0  0  0  0  0  0  0
   39.2940   28.0390   43.1500 C   0  0  0  0  0  0  0  0  0  0  0  0
   38.2630   27.2780   43.7350 C   0  0  0  0  0  0  0  0  0  0  0  0
   36.9520   27.4630   43.2580 C   0  0  0  0  0  0  0  0  0  0  0  0
   36.7770   28.3710   42.2600 N   0  0  0  0  0  0  0  0  0  0  0  0
   37.7710   29.0820   41.7210 C   0  0  0  0  0  0  0  0  0  0  0  0
   39.0210   28.9120   42.1690 N   0  0  0  0  0  0  0  0  0  0  0  0
   36.2380   29.9010   37.2450 C   0  0  0  0  0  0  0  0  0  0  0  0
   35.0820   29.1150   37.2270 C   0  0  0  0  0  0  0  0  0  0  0  0
   34.5680   28.5720   36.0740 C   0  0  0  0  0  0  0  0  0  0  0  0
   35.1680   28.7760   34.8910 N   0  0  0  0  0  0  0  0  0  0  0  0
   36.2980   29.5410   34.8930 C   0  0  0  0  0  0  0  0  0  0  0  0
   36.7740   30.0560   36.0180 N   0  0  0  0  0  0  0  0  0  0  0  0
   38.2583   31.7277   41.8177 H   0  0  0  0  0  0  0  0  0  0  0  0
   37.8306   33.3455   39.9323 H   0  0  0  0  0  0  0  0  0  0  0  0
   36.8915   32.4908   37.8106 H   0  0  0  0  0  0  0  0  0  0  0  0
   40.3296   27.9165   43.5000 H   0  0  0  0  0  0  0  0  0  0  0  0
   38.4763   26.5603   44.5409 H   0  0  0  0  0  0  0  0  0  0  0  0
   36.1051   26.8977   43.6742 H   0  0  0  0  0  0  0  0  0  0  0  0
   34.5614   28.9229   38.1768 H   0  0  0  0  0  0  0  0  0  0  0  0
   33.6535   27.9626   36.1213 H   0  0  0  0  0  0  0  0  0  0  0  0
   36.8226   29.7335   33.9455 H   0  0  0  0  0  0  0  0  0  0  0  0
  1  2  2  0
  1 11  1  0
  3  2  1  0
  4  3  2  0
  5  4  1  0
  5  6  2  0
  6  1  1  0
  7  8  2  0
  9  8  1  0
 10  9  2  0
 11 12  2  0
 11 10  1  0
 12  7  1  0
 13  5  1  0
 14 13  2  0
 15 14  1  0
 16 17  1  0
 16 15  2  0
 17 18  2  0
 18 13  1  0
  2 19  1  0
  3 20  1  0
  4 21  1  0
  7 22  1  0
  8 23  1  0
  9 24  1  0
 14 25  1  0
 15 26  1  0
 17 27  1  0
M  ISO  8  19  14  20  14  21  14  22  14  23  14  24  14  25  14  26  14
M  ISO  1  27  14
M  END
>  <minimizedAffinity>  (1) 
-4.55099535

>  <minimizedRMSD>  (1) 
1.96045113

$$$$
