
     RDKit          3D

 22 23  0  0  0  0  0  0  0  0999 V2000
   37.2510   30.4710   40.4180 C   0  0  0  0  0  0  0  0  0  0  0  0
   37.3870   31.8310   40.7200 C   0  0  0  0  0  0  0  0  0  0  0  0
   37.3930   32.7020   39.6260 C   0  0  0  0  0  0  0  0  0  0  0  0
   37.2660   32.1760   38.3420 C   0  0  0  0  0  0  0  0  0  0  0  0
   37.1350   30.8480   38.0990 C   0  0  0  0  0  0  0  0  0  0  0  0
   37.1290   30.0070   39.1490 N   0  0  0  0  0  0  0  0  0  0  0  0
   38.0980   28.8640   43.6070 C   0  0  0  0  0  0  0  0  0  0  0  0
   37.2160   27.7590   43.6550 C   0  0  0  0  0  0  0  0  0  0  0  0
   36.3310   27.5770   42.5770 C   0  0  0  0  0  0  0  0  0  0  0  0
   36.3950   28.4860   41.5700 N   0  0  0  0  0  0  0  0  0  0  0  0
   37.2420   29.5290   41.5480 C   0  0  0  0  0  0  0  0  0  0  0  0
   38.0760   29.6940   42.5700 N   0  0  0  0  0  0  0  0  0  0  0  0
   36.9960   30.2460   36.7440 C   0  0  0  0  0  0  0  0  0  0  0  0
   35.7600   29.6330   36.6040 F   0  0  0  0  0  0  0  0  0  0  0  0
   37.9370   29.2310   36.5600 F   0  0  0  0  0  0  0  0  0  0  0  0
   37.1380   31.2500   35.8040 F   0  0  0  0  0  0  0  0  0  0  0  0
   37.4833   32.1925   41.7544 H   0  0  0  0  0  0  0  0  0  0  0  0
   37.4965   33.7867   39.7769 H   0  0  0  0  0  0  0  0  0  0  0  0
   37.2723   32.8685   37.4874 H   0  0  0  0  0  0  0  0  0  0  0  0
   38.8050   29.0367   44.4318 H   0  0  0  0  0  0  0  0  0  0  0  0
   37.2221   27.0644   44.5080 H   0  0  0  0  0  0  0  0  0  0  0  0
   35.6204   26.7378   42.5508 H   0  0  0  0  0  0  0  0  0  0  0  0
  1  2  2  0
  1 11  1  0
  3  2  1  0
  4  3  2  0
  5  4  1  0
  5  6  2  0
  6  1  1  0
  7  8  2  0
  9  8  1  0
 10  9  2  0
 11 10  1  0
 11 12  2  0
 12  7  1  0
 13  5  1  0
 14 13  1  0
 15 13  1  0
 16 13  1  0
  2 17  1  0
  3 18  1  0
  4 19  1  0
  7 20  1  0
  8 21  1  0
  9 22  1  0
M  ISO  6  17  14  18  14  19  14  20  14  21  14  22  14
M  END
>  <minimizedAffinity>  (1) 
-4.49656153

>  <minimizedRMSD>  (1) 
0.853467703

$$$$
