
     RDKit          3D

 25 27  0  0  0  0  0  0  0  0999 V2000
   37.2170   30.3130   40.3360 C   0  0  0  0  0  0  0  0  0  0  0  0
   37.4400   31.6680   40.4770 C   0  0  0  0  0  0  0  0  0  0  0  0
   37.4200   32.4680   39.3520 C   0  0  0  0  0  0  0  0  0  0  0  0
   37.1770   31.8680   38.1320 C   0  0  0  0  0  0  0  0  0  0  0  0
   36.9580   30.5400   37.9930 C   0  0  0  0  0  0  0  0  0  0  0  0
   36.9870   29.8090   39.1100 N   0  0  0  0  0  0  0  0  0  0  0  0
   38.1050   28.9280   43.6030 C   0  0  0  0  0  0  0  0  0  0  0  0
   37.2520   27.8230   43.7260 C   0  0  0  0  0  0  0  0  0  0  0  0
   36.3500   27.5450   42.6610 C   0  0  0  0  0  0  0  0  0  0  0  0
   36.3940   28.3900   41.6010 N   0  0  0  0  0  0  0  0  0  0  0  0
   37.2330   29.4500   41.5180 C   0  0  0  0  0  0  0  0  0  0  0  0
   38.0750   29.7060   42.5140 N   0  0  0  0  0  0  0  0  0  0  0  0
   36.6940   29.8060   36.7670 C   0  0  0  0  0  0  0  0  0  0  0  0
   36.4870   28.3650   36.9390 C   0  0  0  0  0  0  0  0  0  0  0  0
   36.1740   27.7250   35.1940 S   0  0  0  0  0  0  0  0  0  0  0  0
   36.3810   29.5050   34.5700 C   0  0  0  0  0  0  0  0  0  0  0  0
   36.5870   30.1040   35.4930 N   0  0  0  0  0  0  0  0  0  0  0  0
   37.6305   32.1031   41.4692 H   0  0  0  0  0  0  0  0  0  0  0  0
   37.5926   33.5519   39.4252 H   0  0  0  0  0  0  0  0  0  0  0  0
   37.1607   32.4992   37.2313 H   0  0  0  0  0  0  0  0  0  0  0  0
   38.8106   29.1598   44.4144 H   0  0  0  0  0  0  0  0  0  0  0  0
   37.2790   27.1867   44.6229 H   0  0  0  0  0  0  0  0  0  0  0  0
   35.6558   26.6924   42.6955 H   0  0  0  0  0  0  0  0  0  0  0  0
   36.5093   27.7876   37.8750 H   0  0  0  0  0  0  0  0  0  0  0  0
   36.3137   29.8671   33.5335 H   0  0  0  0  0  0  0  0  0  0  0  0
  1  2  2  0
  1 11  1  0
  3  2  1  0
  4  3  2  0
  5  4  1  0
  5  6  2  0
  6  1  1  0
  7  8  2  0
  9  8  1  0
 10  9  2  0
 11 10  1  0
 11 12  2  0
 12  7  1  0
 13 14  2  0
 13  5  1  0
 15 14  1  0
 16 15  1  0
 16 17  2  0
 17 13  1  0
  2 18  1  0
  3 19  1  0
  4 20  1  0
  7 21  1  0
  8 22  1  0
  9 23  1  0
 14 24  1  0
 16 25  1  0
M  ISO  8  18  14  19  14  20  14  21  14  22  14  23  14  24  14  25  14
M  END
>  <minimizedAffinity>  (1) 
-4.44058609

>  <minimizedRMSD>  (1) 
1.15565646

$$$$
