
     RDKit          3D

 26 28  0  0  0  0  0  0  0  0999 V2000
   37.2440   30.4390   40.3220 C   0  0  0  0  0  0  0  0  0  0  0  0
   37.2580   31.8160   40.5870 C   0  0  0  0  0  0  0  0  0  0  0  0
   37.2610   32.6680   39.4890 C   0  0  0  0  0  0  0  0  0  0  0  0
   37.2480   32.0930   38.2060 C   0  0  0  0  0  0  0  0  0  0  0  0
   37.2360   30.7540   37.9920 C   0  0  0  0  0  0  0  0  0  0  0  0
   37.2330   29.9370   39.0710 N   0  0  0  0  0  0  0  0  0  0  0  0
   38.0890   28.9250   43.5650 C   0  0  0  0  0  0  0  0  0  0  0  0
   37.2150   27.8170   43.6290 C   0  0  0  0  0  0  0  0  0  0  0  0
   36.3320   27.5950   42.5430 C   0  0  0  0  0  0  0  0  0  0  0  0
   36.3910   28.4730   41.5110 N   0  0  0  0  0  0  0  0  0  0  0  0
   37.2370   29.5270   41.4730 C   0  0  0  0  0  0  0  0  0  0  0  0
   38.0580   29.7210   42.5000 N   0  0  0  0  0  0  0  0  0  0  0  0
   37.2230   30.1780   36.6250 C   0  0  0  0  0  0  0  0  0  0  0  0
   35.9550   29.4190   36.2370 C   0  0  0  0  0  0  0  0  0  0  0  0
   37.2720   28.7130   36.4210 C   0  0  0  0  0  0  0  0  0  0  0  0
   37.2662   32.2038   41.6163 H   0  0  0  0  0  0  0  0  0  0  0  0
   37.2732   33.7601   39.6199 H   0  0  0  0  0  0  0  0  0  0  0  0
   37.2475   32.7622   37.3330 H   0  0  0  0  0  0  0  0  0  0  0  0
   38.7891   29.1276   44.3889 H   0  0  0  0  0  0  0  0  0  0  0  0
   37.2197   27.1441   44.4991 H   0  0  0  0  0  0  0  0  0  0  0  0
   35.6300   26.7482   42.5373 H   0  0  0  0  0  0  0  0  0  0  0  0
   37.8200   31.0102   36.2237 H   0  0  0  0  0  0  0  0  0  0  0  0
   35.5245   29.5362   35.2315 H   0  0  0  0  0  0  0  0  0  0  0  0
   34.9416   29.3153   36.6521 H   0  0  0  0  0  0  0  0  0  0  0  0
   37.4179   28.0465   37.2838 H   0  0  0  0  0  0  0  0  0  0  0  0
   37.8798   28.0443   35.7937 H   0  0  0  0  0  0  0  0  0  0  0  0
  1  2  2  0
  1 11  1  0
  3  2  1  0
  4  3  2  0
  5  4  1  0
  5  6  2  0
  6  1  1  0
  7  8  2  0
  9  8  1  0
 10  9  2  0
 11 10  1  0
 11 12  2  0
 12  7  1  0
 13  5  1  0
 14 15  1  0
 14 13  1  0
 15 13  1  0
  2 16  1  0
  3 17  1  0
  4 18  1  0
  7 19  1  0
  8 20  1  0
  9 21  1  0
 13 22  1  0
 14 23  1  0
 14 24  1  0
 15 25  1  0
 15 26  1  0
M  ISO  8  16  14  17  14  18  14  19  14  20  14  21  14  22  13  23  13
M  ISO  3  24  13  25  13  26  13
M  END
>  <minimizedAffinity>  (1) 
-4.3202095

>  <minimizedRMSD>  (1) 
1.0017333

$$$$
