
     RDKit          3D

 21 22  0  0  0  0  0  0  0  0999 V2000
   37.2980   30.4700   40.2250 C   0  0  0  0  0  0  0  0  0  0  0  0
   37.1650   31.8270   40.4410 C   0  0  0  0  0  0  0  0  0  0  0  0
   37.2080   32.6750   39.3490 C   0  0  0  0  0  0  0  0  0  0  0  0
   37.3820   32.1110   38.0950 C   0  0  0  0  0  0  0  0  0  0  0  0
   37.5140   30.7570   37.8870 C   0  0  0  0  0  0  0  0  0  0  0  0
   37.4690   29.9520   38.9700 N   0  0  0  0  0  0  0  0  0  0  0  0
   37.6920   30.2440   36.5610 N   0  0  0  0  0  0  0  0  0  0  0  0
   38.0920   28.9700   43.4700 C   0  0  0  0  0  0  0  0  0  0  0  0
   37.2150   27.8660   43.5380 C   0  0  0  0  0  0  0  0  0  0  0  0
   36.3470   27.6410   42.4570 C   0  0  0  0  0  0  0  0  0  0  0  0
   36.4260   28.5130   41.4280 N   0  0  0  0  0  0  0  0  0  0  0  0
   37.2550   29.5560   41.3670 C   0  0  0  0  0  0  0  0  0  0  0  0
   38.0920   29.7780   42.4010 N   0  0  0  0  0  0  0  0  0  0  0  0
   37.0281   32.2245   41.4575 H   0  0  0  0  0  0  0  0  0  0  0  0
   37.1072   33.7634   39.4721 H   0  0  0  0  0  0  0  0  0  0  0  0
   37.4163   32.7793   37.2220 H   0  0  0  0  0  0  0  0  0  0  0  0
   37.7904   29.2299   36.4100 H   0  0  0  0  0  0  0  0  0  0  0  0
   37.7216   30.8894   35.7588 H   0  0  0  0  0  0  0  0  0  0  0  0
   38.7824   29.1690   44.3029 H   0  0  0  0  0  0  0  0  0  0  0  0
   37.2115   27.2002   44.4136 H   0  0  0  0  0  0  0  0  0  0  0  0
   35.6396   26.7986   42.4486 H   0  0  0  0  0  0  0  0  0  0  0  0
  1  2  2  0
  1 12  1  0
  3  2  1  0
  4  3  2  0
  5  4  1  0
  5  6  2  0
  6  1  1  0
  7  5  1  0
  8  9  2  0
 10  9  1  0
 11 10  2  0
 12 11  1  0
 12 13  2  0
 13  8  1  0
  2 14  1  0
  3 15  1  0
  4 16  1  0
  7 17  1  0
  7 18  1  0
  8 19  1  0
  9 20  1  0
 10 21  1  0
M  ISO  6  14  14  15  14  16  14  19  14  20  14  21  14
M  END
>  <minimizedAffinity>  (1) 
-4.28018332

>  <minimizedRMSD>  (1) 
0.178199604

$$$$
