
     RDKit          3D

 37 40  0  0  0  0  0  0  0  0999 V2000
   39.5160   27.8160   43.4780 C   0  0  0  0  0  0  0  0  0  0  0  0
   39.0580   26.4970   43.3250 C   0  0  0  0  0  0  0  0  0  0  0  0
   38.2720   26.1810   42.2190 C   0  0  0  0  0  0  0  0  0  0  0  0
   37.9900   27.1810   41.3390 N   0  0  0  0  0  0  0  0  0  0  0  0
   38.4450   28.4460   41.5080 C   0  0  0  0  0  0  0  0  0  0  0  0
   39.2010   28.7700   42.5640 N   0  0  0  0  0  0  0  0  0  0  0  0
   38.0810   29.4050   40.5160 N   0  0  0  0  0  0  0  0  0  0  0  0
   37.2740   29.0960   39.5000 C   0  0  0  0  0  0  0  0  0  0  0  0
   37.0250   30.1460   38.6300 C   0  0  0  0  0  0  0  0  0  0  0  0
   37.5360   31.4090   38.7540 C   0  0  0  0  0  0  0  0  0  0  0  0
   37.2940   32.3330   37.9530 O   0  0  0  0  0  0  0  0  0  0  0  0
   38.3470   31.6610   39.8030 N   0  0  0  0  0  0  0  0  0  0  0  0
   38.6190   30.6500   40.6870 C   0  0  0  0  0  0  0  0  0  0  0  0
   39.3830   30.9330   41.6550 O   0  0  0  0  0  0  0  0  0  0  0  0
   38.9290   32.9440   40.0200 C   0  0  0  0  0  0  0  0  0  0  0  0
   38.0240   33.9420   39.9030 N   0  0  0  0  0  0  0  0  0  0  0  0
   38.4600   35.2210   40.0880 C   0  0  0  0  0  0  0  0  0  0  0  0
   39.7410   35.5170   40.3790 N   0  0  0  0  0  0  0  0  0  0  0  0
   40.6590   34.5240   40.5000 C   0  0  0  0  0  0  0  0  0  0  0  0
   41.9920   34.7460   40.7970 C   0  0  0  0  0  0  0  0  0  0  0  0
   42.8790   33.6880   40.9050 C   0  0  0  0  0  0  0  0  0  0  0  0
   42.4090   32.4020   40.7120 C   0  0  0  0  0  0  0  0  0  0  0  0
   41.0790   32.1410   40.4130 C   0  0  0  0  0  0  0  0  0  0  0  0
   40.2310   33.2230   40.3140 C   0  0  0  0  0  0  0  0  0  0  0  0
   36.1460   29.9320   37.4630 C   0  0  0  0  0  0  0  0  0  0  0  0
   40.1364   28.0791   44.3474 H   0  0  0  0  0  0  0  0  0  0  0  0
   39.3157   25.7262   44.0663 H   0  0  0  0  0  0  0  0  0  0  0  0
   37.8929   25.1604   42.0623 H   0  0  0  0  0  0  0  0  0  0  0  0
   36.8427   28.0932   39.3641 H   0  0  0  0  0  0  0  0  0  0  0  0
   37.7360   36.0440   39.9958 H   0  0  0  0  0  0  0  0  0  0  0  0
   42.3513   35.7745   40.9491 H   0  0  0  0  0  0  0  0  0  0  0  0
   43.9385   33.8675   41.1401 H   0  0  0  0  0  0  0  0  0  0  0  0
   43.1110   31.5596   40.7981 H   0  0  0  0  0  0  0  0  0  0  0  0
   40.7168   31.1135   40.2614 H   0  0  0  0  0  0  0  0  0  0  0  0
   35.1313   29.6850   37.8086 H   0  0  0  0  0  0  0  0  0  0  0  0
   36.1135   30.8485   36.8555 H   0  0  0  0  0  0  0  0  0  0  0  0
   36.5384   29.1031   36.8555 H   0  0  0  0  0  0  0  0  0  0  0  0
  2  1  2  0
  3  2  1  0
  4  5  1  0
  4  3  2  0
  5  6  2  0
  6  1  1  0
  7 13  1  0
  7  5  1  0
  8  7  1  0
  9 10  1  0
  9  8  2  0
 10 12  1  0
 11 10  2  0
 12 15  1  0
 12 13  1  0
 13 14  2  0
 15 24  1  0
 16 15  2  0
 16 17  1  0
 17 18  2  0
 18 19  1  0
 19 20  2  0
 20 21  1  0
 22 21  2  0
 23 22  1  0
 24 23  2  0
 24 19  1  0
 25  9  1  0
  1 26  1  0
  2 27  1  0
  3 28  1  0
  8 29  1  0
 17 30  1  0
 20 31  1  0
 21 32  1  0
 22 33  1  0
 23 34  1  0
 25 35  1  0
 25 36  1  0
 25 37  1  0
M  ISO  8  26  14  27  14  28  14  29  14  30  14  31  14  32  14  33  14
M  ISO  4  34  14  35   8  36   8  37   8
M  END
>  <minimizedAffinity>  (1) 
-6.62401295

>  <minimizedRMSD>  (1) 
3.02454925

$$$$
