
     RDKit          3D

 36 39  0  0  0  0  0  0  0  0999 V2000
   37.5720   30.3450   40.6350 C   0  0  0  0  0  0  0  0  0  0  0  0
   37.5890   31.6840   40.9340 C   0  0  0  0  0  0  0  0  0  0  0  0
   37.4030   32.6010   39.9160 C   0  0  0  0  0  0  0  0  0  0  0  0
   37.2090   32.1250   38.6400 C   0  0  0  0  0  0  0  0  0  0  0  0
   37.1910   30.7950   38.3370 C   0  0  0  0  0  0  0  0  0  0  0  0
   37.3730   29.9240   39.3460 N   0  0  0  0  0  0  0  0  0  0  0  0
   39.2830   28.2390   43.0890 C   0  0  0  0  0  0  0  0  0  0  0  0
   38.2120   27.4750   43.6330 C   0  0  0  0  0  0  0  0  0  0  0  0
   36.9210   27.6930   43.1530 C   0  0  0  0  0  0  0  0  0  0  0  0
   36.7570   28.6300   42.1840 N   0  0  0  0  0  0  0  0  0  0  0  0
   37.7640   29.3400   41.6790 C   0  0  0  0  0  0  0  0  0  0  0  0
   39.0090   29.1310   42.1410 N   0  0  0  0  0  0  0  0  0  0  0  0
   36.9340   30.2030   36.6570 S   0  0  0  0  0  0  0  0  0  0  0  0
   35.7890   28.8170   36.7720 C   0  0  0  0  0  0  0  0  0  0  0  0
   34.4350   28.8890   37.0220 C   0  0  0  0  0  0  0  0  0  0  0  0
   33.7140   27.7100   37.0730 C   0  0  0  0  0  0  0  0  0  0  0  0
   34.2740   26.4730   36.8890 C   0  0  0  0  0  0  0  0  0  0  0  0
   35.6340   26.4330   36.6390 C   0  0  0  0  0  0  0  0  0  0  0  0
   36.1990   25.1810   36.4520 C   0  0  0  0  0  0  0  0  0  0  0  0
   37.5590   25.0670   36.1990 C   0  0  0  0  0  0  0  0  0  0  0  0
   38.3380   26.2000   36.1340 C   0  0  0  0  0  0  0  0  0  0  0  0
   37.7230   27.4030   36.3260 C   0  0  0  0  0  0  0  0  0  0  0  0
   36.3920   27.5910   36.5800 C   0  0  0  0  0  0  0  0  0  0  0  0
   37.7482   32.0229   41.9683 H   0  0  0  0  0  0  0  0  0  0  0  0
   37.4100   33.6817   40.1209 H   0  0  0  0  0  0  0  0  0  0  0  0
   37.0616   32.8504   37.8263 H   0  0  0  0  0  0  0  0  0  0  0  0
   40.3139   28.0949   43.4446 H   0  0  0  0  0  0  0  0  0  0  0  0
   38.3993   26.7268   44.4172 H   0  0  0  0  0  0  0  0  0  0  0  0
   36.0647   27.1253   43.5459 H   0  0  0  0  0  0  0  0  0  0  0  0
   33.9409   29.8595   37.1769 H   0  0  0  0  0  0  0  0  0  0  0  0
   32.6337   27.7683   37.2718 H   0  0  0  0  0  0  0  0  0  0  0  0
   33.6704   25.5547   36.9378 H   0  0  0  0  0  0  0  0  0  0  0  0
   35.5707   24.2796   36.5040 H   0  0  0  0  0  0  0  0  0  0  0  0
   38.0122   24.0757   36.0511 H   0  0  0  0  0  0  0  0  0  0  0  0
   39.4180   26.1379   35.9344 H   0  0  0  0  0  0  0  0  0  0  0  0
   38.3542   28.3023   36.2716 H   0  0  0  0  0  0  0  0  0  0  0  0
  1  2  2  0
  1 11  1  0
  3  2  1  0
  4  3  2  0
  5  4  1  0
  5  6  2  0
  6  1  1  0
  7  8  2  0
  9  8  1  0
 10  9  2  0
 11 12  2  0
 11 10  1  0
 12  7  1  0
 13 14  1  0
 13  5  1  0
 14 15  2  0
 15 16  1  0
 17 16  2  0
 18 17  1  0
 19 18  2  0
 20 19  1  0
 21 20  2  0
 21 22  1  0
 22 23  2  0
 23 18  1  0
 23 14  1  0
  2 24  1  0
  3 25  1  0
  4 26  1  0
  7 27  1  0
  8 28  1  0
  9 29  1  0
 15 30  1  0
 16 31  1  0
 17 32  1  0
 19 33  1  0
 20 34  1  0
 21 35  1  0
 22 36  1  0
M  ISO  8  24  14  25  14  26  14  27  14  28  14  29  14  30  14  31  14
M  ISO  5  32  14  33  14  34  14  35  14  36  14
M  END
>  <minimizedAffinity>  (1) 
-4.91666889

>  <minimizedRMSD>  (1) 
4.090446

$$$$
