
     RDKit          3D

 29 31  0  0  0  0  0  0  0  0999 V2000
   37.1350   30.2430   40.4350 C   0  0  0  0  0  0  0  0  0  0  0  0
   37.2590   31.5980   40.6260 C   0  0  0  0  0  0  0  0  0  0  0  0
   37.2630   32.4050   39.4970 C   0  0  0  0  0  0  0  0  0  0  0  0
   37.1430   31.8120   38.2430 C   0  0  0  0  0  0  0  0  0  0  0  0
   37.0220   30.4570   38.0810 C   0  0  0  0  0  0  0  0  0  0  0  0
   37.0190   29.6910   39.1790 N   0  0  0  0  0  0  0  0  0  0  0  0
   37.9880   28.8310   43.7140 C   0  0  0  0  0  0  0  0  0  0  0  0
   37.1590   27.6960   43.7930 C   0  0  0  0  0  0  0  0  0  0  0  0
   36.3130   27.4280   42.7160 C   0  0  0  0  0  0  0  0  0  0  0  0
   36.3290   28.2720   41.6430 N   0  0  0  0  0  0  0  0  0  0  0  0
   37.1260   29.3420   41.5930 C   0  0  0  0  0  0  0  0  0  0  0  0
   37.9310   29.5940   42.6260 N   0  0  0  0  0  0  0  0  0  0  0  0
   36.8810   29.7640   36.4480 S   0  0  0  0  0  0  0  0  0  0  0  0
   35.2610   29.0910   36.1400 C   0  0  0  0  0  0  0  0  0  0  0  0
   34.2780   29.1150   37.1150 C   0  0  0  0  0  0  0  0  0  0  0  0
   32.9870   28.6230   36.9870 C   0  0  0  0  0  0  0  0  0  0  0  0
   32.6640   28.0560   35.7630 C   0  0  0  0  0  0  0  0  0  0  0  0
   33.6280   28.0310   34.7980 C   0  0  0  0  0  0  0  0  0  0  0  0
   34.8460   28.5160   34.9770 N   0  0  0  0  0  0  0  0  0  0  0  0
   37.3515   32.0266   41.6348 H   0  0  0  0  0  0  0  0  0  0  0  0
   37.3595   33.4967   39.5914 H   0  0  0  0  0  0  0  0  0  0  0  0
   37.1454   32.4546   37.3502 H   0  0  0  0  0  0  0  0  0  0  0  0
   38.6715   29.0827   44.5383 H   0  0  0  0  0  0  0  0  0  0  0  0
   37.1775   27.0407   44.6763 H   0  0  0  0  0  0  0  0  0  0  0  0
   35.6460   26.5534   42.7313 H   0  0  0  0  0  0  0  0  0  0  0  0
   34.5458   29.5665   38.0817 H   0  0  0  0  0  0  0  0  0  0  0  0
   32.2600   28.6795   37.8105 H   0  0  0  0  0  0  0  0  0  0  0  0
   31.6629   27.6400   35.5765 H   0  0  0  0  0  0  0  0  0  0  0  0
   33.3805   27.5857   33.8231 H   0  0  0  0  0  0  0  0  0  0  0  0
  1  2  2  0
  1 11  1  0
  3  2  1  0
  4  3  2  0
  5  4  1  0
  5  6  2  0
  6  1  1  0
  7  8  2  0
  9  8  1  0
 10  9  2  0
 11 10  1  0
 11 12  2  0
 12  7  1  0
 13  5  1  0
 14 13  1  0
 14 15  2  0
 16 15  1  0
 17 16  2  0
 18 19  2  0
 18 17  1  0
 19 14  1  0
  2 20  1  0
  3 21  1  0
  4 22  1  0
  7 23  1  0
  8 24  1  0
  9 25  1  0
 15 26  1  0
 16 27  1  0
 17 28  1  0
 18 29  1  0
M  ISO  8  20  14  21  14  22  14  23  14  24  14  25  14  26  14  27  14
M  ISO  2  28  14  29  14
M  END
>  <minimizedAffinity>  (1) 
-4.61844873

>  <minimizedRMSD>  (1) 
1.9766556

$$$$
