
     RDKit          3D

 34 37  0  0  0  0  0  0  0  0999 V2000
   37.7690   28.7450   43.7560 C   0  0  0  0  0  0  0  0  0  0  0  0
   37.2020   27.4610   43.6480 C   0  0  0  0  0  0  0  0  0  0  0  0
   36.8170   27.0270   42.3810 C   0  0  0  0  0  0  0  0  0  0  0  0
   37.0130   27.8690   41.3330 N   0  0  0  0  0  0  0  0  0  0  0  0
   37.5620   29.1010   41.4710 C   0  0  0  0  0  0  0  0  0  0  0  0
   37.9370   29.5350   42.6750 N   0  0  0  0  0  0  0  0  0  0  0  0
   37.7110   29.8830   40.2880 N   0  0  0  0  0  0  0  0  0  0  0  0
   37.2600   29.4670   39.0930 C   0  0  0  0  0  0  0  0  0  0  0  0
   37.4830   30.3370   38.0610 C   0  0  0  0  0  0  0  0  0  0  0  0
   38.1140   31.5530   38.1790 C   0  0  0  0  0  0  0  0  0  0  0  0
   38.3030   32.3330   37.2020 O   0  0  0  0  0  0  0  0  0  0  0  0
   38.5510   31.9220   39.4230 N   0  0  0  0  0  0  0  0  0  0  0  0
   38.3360   31.0720   40.4510 C   0  0  0  0  0  0  0  0  0  0  0  0
   38.7570   31.4560   41.5730 O   0  0  0  0  0  0  0  0  0  0  0  0
   42.3320   34.6650   39.2190 N   0  0  0  0  0  0  0  0  0  0  0  0
   42.6080   33.3740   38.8710 C   0  0  0  0  0  0  0  0  0  0  0  0
   41.4880   32.6320   38.9460 N   0  0  0  0  0  0  0  0  0  0  0  0
   40.5110   33.4820   39.3480 C   0  0  0  0  0  0  0  0  0  0  0  0
   39.2060   33.1780   39.5610 C   0  0  0  0  0  0  0  0  0  0  0  0
   38.3880   34.1910   39.9650 N   0  0  0  0  0  0  0  0  0  0  0  0
   38.8780   35.4430   40.1390 C   0  0  0  0  0  0  0  0  0  0  0  0
   40.1780   35.7250   39.9210 N   0  0  0  0  0  0  0  0  0  0  0  0
   41.0260   34.7360   39.5170 C   0  0  0  0  0  0  0  0  0  0  0  0
   37.0350   29.9920   36.6980 C   0  0  0  0  0  0  0  0  0  0  0  0
   38.0823   29.1127   44.7442 H   0  0  0  0  0  0  0  0  0  0  0  0
   37.0675   26.8222   44.5334 H   0  0  0  0  0  0  0  0  0  0  0  0
   36.3683   26.0335   42.2340 H   0  0  0  0  0  0  0  0  0  0  0  0
   36.7509   28.5017   38.9549 H   0  0  0  0  0  0  0  0  0  0  0  0
   43.0052   35.4440   39.2476 H   0  0  0  0  0  0  0  0  0  0  0  0
   43.5977   32.9969   38.5738 H   0  0  0  0  0  0  0  0  0  0  0  0
   38.2003   36.2458   40.4650 H   0  0  0  0  0  0  0  0  0  0  0  0
   36.1647   29.3218   36.7567 H   0  0  0  0  0  0  0  0  0  0  0  0
   36.7552   30.9101   36.1606 H   0  0  0  0  0  0  0  0  0  0  0  0
   37.8512   29.4869   36.1606 H   0  0  0  0  0  0  0  0  0  0  0  0
  2  1  2  0
  3  2  1  0
  4  5  1  0
  4  3  2  0
  5  6  2  0
  6  1  1  0
  7 13  1  0
  7  5  1  0
  8  7  1  0
  9 10  1  0
  9  8  2  0
 10 12  1  0
 11 10  2  0
 12 19  1  0
 12 13  1  0
 13 14  2  0
 15 23  1  0
 16 17  2  0
 16 15  1  0
 17 18  1  0
 18 23  2  0
 18 19  1  0
 19 20  2  0
 20 21  1  0
 22 21  2  0
 23 22  1  0
 24  9  1  0
  1 25  1  0
  2 26  1  0
  3 27  1  0
  8 28  1  0
 15 29  1  0
 16 30  1  0
 21 31  1  0
 24 32  1  0
 24 33  1  0
 24 34  1  0
M  ISO  8  25  14  26  14  27  14  28  14  29   9  30  14  31  14  32   8
M  ISO  2  33   8  34   8
M  END
>  <minimizedAffinity>  (1) 
-6.4572072

>  <minimizedRMSD>  (1) 
3.2323513

$$$$
