
     RDKit          3D

 27 29  0  0  0  0  0  0  0  0999 V2000
   37.2010   30.3680   40.4360 C   0  0  0  0  0  0  0  0  0  0  0  0
   37.3110   31.7320   40.6830 C   0  0  0  0  0  0  0  0  0  0  0  0
   37.3240   32.5800   39.5900 C   0  0  0  0  0  0  0  0  0  0  0  0
   37.2300   32.0500   38.3210 C   0  0  0  0  0  0  0  0  0  0  0  0
   37.1230   30.7120   38.0980 C   0  0  0  0  0  0  0  0  0  0  0  0
   37.1110   29.8840   39.1710 N   0  0  0  0  0  0  0  0  0  0  0  0
   38.0280   28.8300   43.6600 C   0  0  0  0  0  0  0  0  0  0  0  0
   37.1630   27.7170   43.7060 C   0  0  0  0  0  0  0  0  0  0  0  0
   36.3000   27.5000   42.6280 C   0  0  0  0  0  0  0  0  0  0  0  0
   36.3590   28.3910   41.6020 N   0  0  0  0  0  0  0  0  0  0  0  0
   37.1840   29.4440   41.5710 C   0  0  0  0  0  0  0  0  0  0  0  0
   38.0000   29.6420   42.5980 N   0  0  0  0  0  0  0  0  0  0  0  0
   37.0000   30.0160   36.4420 S   0  0  0  0  0  0  0  0  0  0  0  0
   35.5520   29.1530   36.1510 C   0  0  0  0  0  0  0  0  0  0  0  0
   34.3970   28.9170   36.8560 C   0  0  0  0  0  0  0  0  0  0  0  0
   33.3740   28.1700   36.3650 C   0  0  0  0  0  0  0  0  0  0  0  0
   33.5840   27.6300   35.0280 C   0  0  0  0  0  0  0  0  0  0  0  0
   35.3060   28.2700   34.5760 S   0  0  0  0  0  0  0  0  0  0  0  0
   37.3849   32.1221   41.7089 H   0  0  0  0  0  0  0  0  0  0  0  0
   37.4086   33.6675   39.7323 H   0  0  0  0  0  0  0  0  0  0  0  0
   37.2419   32.7326   37.4585 H   0  0  0  0  0  0  0  0  0  0  0  0
   38.7204   29.0286   44.4914 H   0  0  0  0  0  0  0  0  0  0  0  0
   37.1674   27.0358   44.5697 H   0  0  0  0  0  0  0  0  0  0  0  0
   35.6049   26.6476   42.6103 H   0  0  0  0  0  0  0  0  0  0  0  0
   34.2960   29.3516   37.8615 H   0  0  0  0  0  0  0  0  0  0  0  0
   32.4523   27.9858   36.9364 H   0  0  0  0  0  0  0  0  0  0  0  0
   32.9071   27.0037   34.4284 H   0  0  0  0  0  0  0  0  0  0  0  0
  1  2  2  0
  1 11  1  0
  3  2  1  0
  4  3  2  0
  5  4  1  0
  5  6  2  0
  6  1  1  0
  7  8  2  0
  9  8  1  0
 10  9  2  0
 11 10  1  0
 11 12  2  0
 12  7  1  0
 13  5  1  0
 14 13  1  0
 14 15  2  0
 16 15  1  0
 17 16  2  0
 18 17  1  0
 18 14  1  0
  2 19  1  0
  3 20  1  0
  4 21  1  0
  7 22  1  0
  8 23  1  0
  9 24  1  0
 15 25  1  0
 16 26  1  0
 17 27  1  0
M  ISO  8  19  14  20  14  21  14  22  14  23  14  24  14  25  14  26  14
M  ISO  1  27  14
M  END
>  <minimizedAffinity>  (1) 
-4.44004154

>  <minimizedRMSD>  (1) 
0.803306043

$$$$
