
     RDKit          3D

 37 40  0  0  0  0  0  0  0  0999 V2000
   37.6020   28.6130   43.7900 C   0  0  0  0  0  0  0  0  0  0  0  0
   37.1330   27.2880   43.7280 C   0  0  0  0  0  0  0  0  0  0  0  0
   36.7490   26.7880   42.4860 C   0  0  0  0  0  0  0  0  0  0  0  0
   36.8480   27.6100   41.4030 N   0  0  0  0  0  0  0  0  0  0  0  0
   37.3020   28.8750   41.4940 C   0  0  0  0  0  0  0  0  0  0  0  0
   37.6790   29.3820   42.6800 N   0  0  0  0  0  0  0  0  0  0  0  0
   37.3590   29.6350   40.2890 N   0  0  0  0  0  0  0  0  0  0  0  0
   36.9970   29.1240   39.1060 C   0  0  0  0  0  0  0  0  0  0  0  0
   37.1120   29.9850   38.0500 C   0  0  0  0  0  0  0  0  0  0  0  0
   37.5590   31.2850   38.1300 C   0  0  0  0  0  0  0  0  0  0  0  0
   37.6610   32.0670   37.1500 O   0  0  0  0  0  0  0  0  0  0  0  0
   37.9130   31.7490   39.3530 N   0  0  0  0  0  0  0  0  0  0  0  0
   37.8100   30.9140   40.4340 C   0  0  0  0  0  0  0  0  0  0  0  0
   38.1520   31.3930   41.5550 O   0  0  0  0  0  0  0  0  0  0  0  0
   38.3940   33.0870   39.5600 C   0  0  0  0  0  0  0  0  0  0  0  0
   37.7970   34.3110   39.7870 C   0  0  0  0  0  0  0  0  0  0  0  0
   38.7700   35.2440   39.9080 N   0  0  0  0  0  0  0  0  0  0  0  0
   39.9750   34.6400   39.7620 C   0  0  0  0  0  0  0  0  0  0  0  0
   41.2460   35.1710   39.8050 C   0  0  0  0  0  0  0  0  0  0  0  0
   42.3730   34.3760   39.6300 C   0  0  0  0  0  0  0  0  0  0  0  0
   42.1730   33.0390   39.4140 C   0  0  0  0  0  0  0  0  0  0  0  0
   40.9000   32.5270   39.3740 C   0  0  0  0  0  0  0  0  0  0  0  0
   39.7640   33.2940   39.5450 C   0  0  0  0  0  0  0  0  0  0  0  0
   36.7470   29.5580   36.6800 C   0  0  0  0  0  0  0  0  0  0  0  0
   37.9118   29.0312   44.7591 H   0  0  0  0  0  0  0  0  0  0  0  0
   37.0714   26.6658   44.6330 H   0  0  0  0  0  0  0  0  0  0  0  0
   36.3762   25.7584   42.3819 H   0  0  0  0  0  0  0  0  0  0  0  0
   36.6351   28.0915   38.9922 H   0  0  0  0  0  0  0  0  0  0  0  0
   36.7150   34.4963   39.8575 H   0  0  0  0  0  0  0  0  0  0  0  0
   38.6197   36.2479   40.0824 H   0  0  0  0  0  0  0  0  0  0  0  0
   41.3717   36.2494   39.9820 H   0  0  0  0  0  0  0  0  0  0  0  0
   43.3856   34.8044   39.6638 H   0  0  0  0  0  0  0  0  0  0  0  0
   43.0362   32.3721   39.2719 H   0  0  0  0  0  0  0  0  0  0  0  0
   40.7780   31.4483   39.1963 H   0  0  0  0  0  0  0  0  0  0  0  0
   36.0331   28.7229   36.7342 H   0  0  0  0  0  0  0  0  0  0  0  0
   36.2856   30.4005   36.1440 H   0  0  0  0  0  0  0  0  0  0  0  0
   37.6511   29.2334   36.1440 H   0  0  0  0  0  0  0  0  0  0  0  0
  2  1  2  0
  3  2  1  0
  4  5  1  0
  4  3  2  0
  5  6  2  0
  6  1  1  0
  7 13  1  0
  7  5  1  0
  8  7  1  0
  9 10  1  0
  9  8  2  0
 10 12  1  0
 11 10  2  0
 12 15  1  0
 12 13  1  0
 13 14  2  0
 15 16  2  0
 16 17  1  0
 18 19  2  0
 18 17  1  0
 20 19  1  0
 21 20  2  0
 22 21  1  0
 22 23  2  0
 23 15  1  0
 23 18  1  0
 24  9  1  0
  1 25  1  0
  2 26  1  0
  3 27  1  0
  8 28  1  0
 16 29  1  0
 17 30  1  0
 19 31  1  0
 20 32  1  0
 21 33  1  0
 22 34  1  0
 24 35  1  0
 24 36  1  0
 24 37  1  0
M  ISO  8  25  14  26  14  27  14  28  14  29  14  30   9  31  14  32  14
M  ISO  5  33  14  34  14  35   8  36   8  37   8
M  END
>  <minimizedAffinity>  (1) 
-6.45234251

>  <minimizedRMSD>  (1) 
3.66900015

$$$$
