
     RDKit          3D

 29 30  0  0  0  0  0  0  0  0999 V2000
   37.1470   30.1090   40.3080 C   0  0  0  0  0  0  0  0  0  0  0  0
   37.4550   31.4410   40.4120 C   0  0  0  0  0  0  0  0  0  0  0  0
   37.4670   32.1850   39.2340 C   0  0  0  0  0  0  0  0  0  0  0  0
   37.1760   31.5670   38.0440 C   0  0  0  0  0  0  0  0  0  0  0  0
   36.8720   30.2480   37.9560 C   0  0  0  0  0  0  0  0  0  0  0  0
   36.8620   29.5280   39.1020 N   0  0  0  0  0  0  0  0  0  0  0  0
   37.9250   28.9000   43.6760 C   0  0  0  0  0  0  0  0  0  0  0  0
   37.1110   27.7450   43.7980 C   0  0  0  0  0  0  0  0  0  0  0  0
   36.3060   27.4020   42.7140 C   0  0  0  0  0  0  0  0  0  0  0  0
   36.3440   28.1870   41.6070 N   0  0  0  0  0  0  0  0  0  0  0  0
   37.1190   29.2750   41.5090 C   0  0  0  0  0  0  0  0  0  0  0  0
   37.8990   29.6110   42.5530 N   0  0  0  0  0  0  0  0  0  0  0  0
   36.4950   29.4490   36.3930 S   0  0  0  0  0  0  0  0  0  0  0  0
   37.7870   28.2660   35.9370 C   0  0  0  0  0  0  0  0  0  0  0  0
   39.0200   28.3900   36.8050 C   0  0  0  0  0  0  0  0  0  0  0  0
   37.2560   26.8380   35.9650 C   0  0  0  0  0  0  0  0  0  0  0  0
   37.6829   31.9026   41.3841 H   0  0  0  0  0  0  0  0  0  0  0  0
   37.7076   33.2581   39.2578 H   0  0  0  0  0  0  0  0  0  0  0  0
   37.1898   32.1668   37.1220 H   0  0  0  0  0  0  0  0  0  0  0  0
   38.5759   29.2066   44.5081 H   0  0  0  0  0  0  0  0  0  0  0  0
   37.1152   27.1407   44.7171 H   0  0  0  0  0  0  0  0  0  0  0  0
   35.6551   26.5162   42.7541 H   0  0  0  0  0  0  0  0  0  0  0  0
   38.0885   28.5118   34.9081 H   0  0  0  0  0  0  0  0  0  0  0  0
   38.7268   28.3605   37.8648 H   0  0  0  0  0  0  0  0  0  0  0  0
   39.7047   27.5562   36.5906 H   0  0  0  0  0  0  0  0  0  0  0  0
   39.5249   29.3435   36.5906 H   0  0  0  0  0  0  0  0  0  0  0  0
   37.1349   26.5122   37.0087 H   0  0  0  0  0  0  0  0  0  0  0  0
   36.2831   26.7985   35.4533 H   0  0  0  0  0  0  0  0  0  0  0  0
   37.9667   26.1724   35.4533 H   0  0  0  0  0  0  0  0  0  0  0  0
  1  2  2  0
  1 11  1  0
  3  2  1  0
  4  3  2  0
  5  4  1  0
  5  6  2  0
  6  1  1  0
  7  8  2  0
  9  8  1  0
 10  9  2  0
 11 10  1  0
 11 12  2  0
 12  7  1  0
 13  5  1  0
 14 16  1  0
 14 13  1  0
 14 15  1  0
  2 17  1  0
  3 18  1  0
  4 19  1  0
  7 20  1  0
  8 21  1  0
  9 22  1  0
 14 23  1  0
 15 24  1  0
 15 25  1  0
 15 26  1  0
 16 27  1  0
 16 28  1  0
 16 29  1  0
M  ISO  8  17  14  18  14  19  14  20  14  21  14  22  14  23   8  24   8
M  ISO  5  25   8  26   8  27   8  28   8  29   8
M  END
>  <minimizedAffinity>  (1) 
-4.02712297

>  <minimizedRMSD>  (1) 
0.787599206

$$$$
