
     RDKit          3D

 23 24  0  0  0  0  0  0  0  0999 V2000
   37.1750   30.3250   40.4210 C   0  0  0  0  0  0  0  0  0  0  0  0
   37.3050   31.6860   40.6310 C   0  0  0  0  0  0  0  0  0  0  0  0
   37.3120   32.5090   39.5130 C   0  0  0  0  0  0  0  0  0  0  0  0
   37.1900   31.9500   38.2610 C   0  0  0  0  0  0  0  0  0  0  0  0
   37.0640   30.6110   38.0690 C   0  0  0  0  0  0  0  0  0  0  0  0
   37.0570   29.8080   39.1550 N   0  0  0  0  0  0  0  0  0  0  0  0
   38.0040   28.8320   43.6600 C   0  0  0  0  0  0  0  0  0  0  0  0
   37.1530   27.7180   43.7160 C   0  0  0  0  0  0  0  0  0  0  0  0
   36.2980   27.4830   42.6410 C   0  0  0  0  0  0  0  0  0  0  0  0
   36.3460   28.3520   41.6090 N   0  0  0  0  0  0  0  0  0  0  0  0
   37.1640   29.4150   41.5650 C   0  0  0  0  0  0  0  0  0  0  0  0
   37.9830   29.6430   42.5920 N   0  0  0  0  0  0  0  0  0  0  0  0
   36.9060   29.8920   36.4270 S   0  0  0  0  0  0  0  0  0  0  0  0
   35.2920   29.0590   36.3090 C   0  0  0  0  0  0  0  0  0  0  0  0
   37.3993   32.1006   41.6455 H   0  0  0  0  0  0  0  0  0  0  0  0
   37.4141   33.5983   39.6266 H   0  0  0  0  0  0  0  0  0  0  0  0
   37.1947   32.6125   37.3829 H   0  0  0  0  0  0  0  0  0  0  0  0
   38.6901   29.0408   44.4941 H   0  0  0  0  0  0  0  0  0  0  0  0
   37.1605   27.0465   44.5872 H   0  0  0  0  0  0  0  0  0  0  0  0
   35.6113   26.6237   42.6336 H   0  0  0  0  0  0  0  0  0  0  0  0
   34.9071   28.8604   37.3201 H   0  0  0  0  0  0  0  0  0  0  0  0
   34.5848   29.7047   35.7678 H   0  0  0  0  0  0  0  0  0  0  0  0
   35.4086   28.1085   35.7678 H   0  0  0  0  0  0  0  0  0  0  0  0
  1  2  2  0
  1 11  1  0
  3  2  1  0
  4  3  2  0
  5  4  1  0
  5  6  2  0
  6  1  1  0
  7  8  2  0
  9  8  1  0
 10  9  2  0
 11 10  1  0
 11 12  2  0
 12  7  1  0
 13  5  1  0
 14 13  1  0
  2 15  1  0
  3 16  1  0
  4 17  1  0
  7 18  1  0
  8 19  1  0
  9 20  1  0
 14 21  1  0
 14 22  1  0
 14 23  1  0
M  ISO  8  15  14  16  14  17  14  18  14  19  14  20  14  21   8  22   8
M  ISO  1  23   8
M  END
>  <minimizedAffinity>  (1) 
-3.98272419

>  <minimizedRMSD>  (1) 
0.222823054

$$$$
