
     RDKit          3D

 26 27  0  0  0  0  0  0  0  0999 V2000
   37.1800   29.9610   40.1930 C   0  0  0  0  0  0  0  0  0  0  0  0
   37.1370   31.3410   40.2120 C   0  0  0  0  0  0  0  0  0  0  0  0
   37.1220   31.9960   38.9920 C   0  0  0  0  0  0  0  0  0  0  0  0
   37.1500   31.2440   37.8380 C   0  0  0  0  0  0  0  0  0  0  0  0
   37.1940   29.8710   37.8360 C   0  0  0  0  0  0  0  0  0  0  0  0
   37.2080   29.2390   39.0230 N   0  0  0  0  0  0  0  0  0  0  0  0
   38.0720   28.9960   43.6170 C   0  0  0  0  0  0  0  0  0  0  0  0
   37.2420   27.8840   43.8580 C   0  0  0  0  0  0  0  0  0  0  0  0
   36.3800   27.4650   42.8470 C   0  0  0  0  0  0  0  0  0  0  0  0
   36.4180   28.1800   41.7050 N   0  0  0  0  0  0  0  0  0  0  0  0
   37.1950   29.2290   41.4690 C   0  0  0  0  0  0  0  0  0  0  0  0
   38.0210   29.6300   42.4360 N   0  0  0  0  0  0  0  0  0  0  0  0
   37.2260   28.9330   36.3220 S   0  0  0  0  0  0  0  0  0  0  0  0
   35.8870   29.4240   35.2160 C   0  0  0  0  0  0  0  0  0  0  0  0
   36.4360   29.5140   33.8040 C   0  0  0  0  0  0  0  0  0  0  0  0
   37.1155   31.8987   41.1599 H   0  0  0  0  0  0  0  0  0  0  0  0
   37.0884   33.0945   38.9453 H   0  0  0  0  0  0  0  0  0  0  0  0
   37.1365   31.7685   36.8712 H   0  0  0  0  0  0  0  0  0  0  0  0
   38.7631   29.3451   44.3984 H   0  0  0  0  0  0  0  0  0  0  0  0
   37.2737   27.3578   44.8235 H   0  0  0  0  0  0  0  0  0  0  0  0
   35.7088   26.6027   42.9731 H   0  0  0  0  0  0  0  0  0  0  0  0
   35.0815   28.6758   35.2538 H   0  0  0  0  0  0  0  0  0  0  0  0
   35.4816   30.3987   35.5252 H   0  0  0  0  0  0  0  0  0  0  0  0
   37.5208   29.6918   33.8430 H   0  0  0  0  0  0  0  0  0  0  0  0
   36.2378   28.5714   33.2728 H   0  0  0  0  0  0  0  0  0  0  0  0
   35.9472   30.3440   33.2728 H   0  0  0  0  0  0  0  0  0  0  0  0
  1  2  2  0
  1 11  1  0
  3  2  1  0
  4  3  2  0
  5  4  1  0
  5  6  2  0
  6  1  1  0
  7  8  2  0
  9  8  1  0
 10  9  2  0
 11 10  1  0
 11 12  2  0
 12  7  1  0
 13  5  1  0
 14 13  1  0
 15 14  1  0
  2 16  1  0
  3 17  1  0
  4 18  1  0
  7 19  1  0
  8 20  1  0
  9 21  1  0
 14 22  1  0
 14 23  1  0
 15 24  1  0
 15 25  1  0
 15 26  1  0
M  ISO  8  16  14  17  14  18  14  19  14  20  14  21  14  22   8  23   8
M  ISO  3  24   8  25   8  26   8
M  END
>  <minimizedAffinity>  (1) 
-3.97930455

>  <minimizedRMSD>  (1) 
1.18297172

$$$$
