
     RDKit          3D

 35 37  0  0  0  0  0  0  0  0999 V2000
   37.1850   30.0260   40.2400 C   0  0  0  0  0  0  0  0  0  0  0  0
   37.2390   31.3960   40.2620 C   0  0  0  0  0  0  0  0  0  0  0  0
   37.2400   32.0660   39.0460 C   0  0  0  0  0  0  0  0  0  0  0  0
   37.1850   31.3210   37.8720 C   0  0  0  0  0  0  0  0  0  0  0  0
   37.1320   29.9480   37.8730 C   0  0  0  0  0  0  0  0  0  0  0  0
   37.1330   29.3310   39.0670 N   0  0  0  0  0  0  0  0  0  0  0  0
   38.0870   29.0060   43.6360 C   0  0  0  0  0  0  0  0  0  0  0  0
   37.2560   27.8920   43.8710 C   0  0  0  0  0  0  0  0  0  0  0  0
   36.3810   27.4960   42.8400 C   0  0  0  0  0  0  0  0  0  0  0  0
   36.3960   28.2130   41.6950 N   0  0  0  0  0  0  0  0  0  0  0  0
   37.1910   29.2650   41.4950 C   0  0  0  0  0  0  0  0  0  0  0  0
   38.0160   29.6360   42.4710 N   0  0  0  0  0  0  0  0  0  0  0  0
   37.0690   29.0530   36.3330 S   0  0  0  0  0  0  0  0  0  0  0  0
   33.1120   27.0440   36.8510 N   0  0  0  0  0  0  0  0  0  0  0  0
   33.2700   28.3950   37.3350 C   0  0  0  0  0  0  0  0  0  0  0  0
   34.3870   29.1450   36.6460 C   0  0  0  0  0  0  0  0  0  0  0  0
   35.4700   28.2150   36.1540 C   0  0  0  0  0  0  0  0  0  0  0  0
   35.5610   26.9580   36.9870 C   0  0  0  0  0  0  0  0  0  0  0  0
   34.2680   26.2120   37.0710 C   0  0  0  0  0  0  0  0  0  0  0  0
   37.2802   31.9469   41.2132 H   0  0  0  0  0  0  0  0  0  0  0  0
   37.2834   33.1646   39.0113 H   0  0  0  0  0  0  0  0  0  0  0  0
   37.1839   31.8506   36.9079 H   0  0  0  0  0  0  0  0  0  0  0  0
   38.7876   29.3496   44.4113 H   0  0  0  0  0  0  0  0  0  0  0  0
   37.2895   27.3498   44.8275 H   0  0  0  0  0  0  0  0  0  0  0  0
   35.7094   26.6335   42.9630 H   0  0  0  0  0  0  0  0  0  0  0  0
   32.9255   27.0808   35.8387 H   0  0  0  0  0  0  0  0  0  0  0  0
   32.3284   28.9388   37.1685 H   0  0  0  0  0  0  0  0  0  0  0  0
   33.5266   28.3329   38.4028 H   0  0  0  0  0  0  0  0  0  0  0  0
   33.9711   29.6923   35.7872 H   0  0  0  0  0  0  0  0  0  0  0  0
   34.8357   29.8346   37.3762 H   0  0  0  0  0  0  0  0  0  0  0  0
   35.2306   27.9528   35.1129 H   0  0  0  0  0  0  0  0  0  0  0  0
   36.3178   26.2965   36.5401 H   0  0  0  0  0  0  0  0  0  0  0  0
   35.8298   27.2622   38.0094 H   0  0  0  0  0  0  0  0  0  0  0  0
   34.1890   25.7628   38.0720 H   0  0  0  0  0  0  0  0  0  0  0  0
   34.2784   25.4533   36.2746 H   0  0  0  0  0  0  0  0  0  0  0  0
  1  2  2  0
  1 11  1  0
  3  2  1  0
  4  5  1  0
  4  3  2  0
  5  6  2  0
  6  1  1  0
  7  8  2  0
  9  8  1  0
 10  9  2  0
 11 10  1  0
 11 12  2  0
 12  7  1  0
 13  5  1  0
 14 19  1  0
 14 15  1  0
 16 15  1  0
 17 13  1  0
 17 16  1  0
 17 18  1  0
 18 19  1  0
  2 20  1  0
  3 21  1  0
  4 22  1  0
  7 23  1  0
  8 24  1  0
  9 25  1  0
 14 26  1  0
 15 27  1  0
 15 28  1  0
 16 29  1  0
 16 30  1  0
 17 31  1  0
 18 32  1  0
 18 33  1  0
 19 34  1  0
 19 35  1  0
M  ISO  8  20  14  21  14  22  14  23  14  24  14  25  14  26   5  27  13
M  ISO  8  28  13  29  13  30  13  31  13  32  13  33  13  34  13  35  13
M  END
>  <minimizedAffinity>  (1) 
-4.52552032

>  <minimizedRMSD>  (1) 
1.33288431

$$$$
