
     RDKit          3D

 49 53  0  0  1  0  0  0  0  0999 V2000
   33.4380   26.9740   36.7870 N   0  0  0  0  0  0  0  0  0  0  0  0
   33.5780   28.1070   37.6500 C   0  0  0  0  0  0  0  0  0  0  0  0
   34.5380   29.1460   37.0880 C   0  0  0  0  0  0  0  0  0  0  0  0
   35.5950   28.5190   36.2190 C   0  0  2  0  0  0  0  0  0  0  0  0
   35.8760   27.0920   36.6330 C   0  0  0  0  0  0  0  0  0  0  0  0
   34.6630   26.2130   36.5960 C   0  0  1  0  0  0  0  0  0  0  0  0
   34.8110   25.1700   37.6370 C   0  0  0  0  0  0  0  0  0  0  0  0
   33.8640   24.1880   37.6140 N   0  0  0  0  0  0  0  0  0  0  0  0
   33.8980   23.1830   38.5080 C   0  0  0  0  0  0  0  0  0  0  0  0
   34.8540   23.0960   39.4540 N   0  0  0  0  0  0  0  0  0  0  0  0
   35.8080   24.0440   39.5130 C   0  0  0  0  0  0  0  0  0  0  0  0
   36.8120   24.0120   40.4610 C   0  0  0  0  0  0  0  0  0  0  0  0
   37.7900   25.0070   40.5050 C   0  0  0  0  0  0  0  0  0  0  0  0
   37.7200   26.0320   39.5610 C   0  0  0  0  0  0  0  0  0  0  0  0
   36.7130   26.0580   38.6170 C   0  0  0  0  0  0  0  0  0  0  0  0
   35.7790   25.0740   38.6040 C   0  0  0  0  0  0  0  0  0  0  0  0
   37.1450   29.4260   36.4690 S   0  0  0  0  0  0  0  0  0  0  0  0
   37.1810   30.1500   40.4290 C   0  0  0  0  0  0  0  0  0  0  0  0
   37.1820   31.5210   40.5300 C   0  0  0  0  0  0  0  0  0  0  0  0
   37.1700   32.2660   39.3620 C   0  0  0  0  0  0  0  0  0  0  0  0
   37.1590   31.5930   38.1480 C   0  0  0  0  0  0  0  0  0  0  0  0
   37.1590   30.2180   38.0670 C   0  0  0  0  0  0  0  0  0  0  0  0
   37.1710   29.5230   39.2160 N   0  0  0  0  0  0  0  0  0  0  0  0
   38.1870   28.8550   43.6980 C   0  0  0  0  0  0  0  0  0  0  0  0
   37.2780   27.7940   43.9160 C   0  0  0  0  0  0  0  0  0  0  0  0
   36.3220   27.5350   42.9230 C   0  0  0  0  0  0  0  0  0  0  0  0
   36.3280   28.3150   41.8240 N   0  0  0  0  0  0  0  0  0  0  0  0
   37.1940   29.3140   41.6350 C   0  0  0  0  0  0  0  0  0  0  0  0
   38.1030   29.5620   42.5760 N   0  0  0  0  0  0  0  0  0  0  0  0
   32.7279   26.3466   37.1908 H   0  0  0  0  0  0  0  0  0  0  0  0
   32.5909   28.5735   37.7844 H   0  0  0  0  0  0  0  0  0  0  0  0
   33.9884   27.7524   38.6070 H   0  0  0  0  0  0  0  0  0  0  0  0
   33.9674   29.8702   36.4880 H   0  0  0  0  0  0  0  0  0  0  0  0
   35.0395   29.6403   37.9331 H   0  0  0  0  0  0  0  0  0  0  0  0
   35.2390   28.5473   35.1786 H   0  0  0  0  0  0  0  0  0  0  0  0
   36.6312   26.6733   35.9516 H   0  0  0  0  0  0  0  0  0  0  0  0
   36.2266   27.1188   37.6753 H   0  0  0  0  0  0  0  0  0  0  0  0
   34.5852   25.7446   35.6038 H   0  0  0  0  0  0  0  0  0  0  0  0
   33.1198   22.4067   38.4654 H   0  0  0  0  0  0  0  0  0  0  0  0
   36.8413   23.1905   41.1919 H   0  0  0  0  0  0  0  0  0  0  0  0
   38.5901   24.9837   41.2596 H   0  0  0  0  0  0  0  0  0  0  0  0
   38.4772   26.8299   39.5690 H   0  0  0  0  0  0  0  0  0  0  0  0
   36.6681   26.8725   37.8790 H   0  0  0  0  0  0  0  0  0  0  0  0
   37.1921   32.0140   41.5133 H   0  0  0  0  0  0  0  0  0  0  0  0
   37.1692   33.3655   39.3959 H   0  0  0  0  0  0  0  0  0  0  0  0
   37.1500   32.1789   37.2171 H   0  0  0  0  0  0  0  0  0  0  0  0
   38.9551   29.0925   44.4488 H   0  0  0  0  0  0  0  0  0  0  0  0
   37.3194   27.1910   44.8351 H   0  0  0  0  0  0  0  0  0  0  0  0
   35.5907   26.7213   43.0375 H   0  0  0  0  0  0  0  0  0  0  0  0
  1  2  1  0
  3  2  1  0
  4 17  1  0
  4  5  1  0
  4  3  1  0
  6  5  1  0
  6  1  1  0
  6  7  1  0
  7 16  1  0
  8  7  2  0
  8  9  1  0
  9 10  2  0
 10 11  1  0
 11 12  2  0
 12 13  1  0
 14 13  2  0
 15 14  1  0
 16 15  2  0
 16 11  1  0
 17 22  1  0
 18 19  2  0
 18 28  1  0
 20 19  1  0
 21 20  2  0
 22 21  1  0
 22 23  2  0
 23 18  1  0
 24 25  2  0
 26 25  1  0
 27 26  2  0
 28 27  1  0
 28 29  2  0
 29 24  1  0
  1 30  1  0
  2 31  1  0
  2 32  1  0
  3 33  1  0
  3 34  1  0
  4 35  1  6
  5 36  1  0
  5 37  1  0
  6 38  1  6
  9 39  1  0
 12 40  1  0
 13 41  1  0
 14 42  1  0
 15 43  1  0
 19 44  1  0
 20 45  1  0
 21 46  1  0
 24 47  1  0
 25 48  1  0
 26 49  1  0
M  ISO  8  30   5  31  13  32  13  33  13  34  13  35  13  36  13  37  13
M  ISO  8  38  13  39  14  40  14  41  14  42  14  43  14  44  14  45  14
M  ISO  4  46  14  47  14  48  14  49  14
M  END
>  <minimizedAffinity>  (1) 
-5.76223898

>  <minimizedRMSD>  (1) 
0.831073284

$$$$
