
     RDKit          3D

 45 48  0  0  1  0  0  0  0  0999 V2000
   34.3930   26.7190   37.1920 N   0  0  0  0  0  0  0  0  0  0  0  0
   34.0690   27.9840   37.7850 C   0  0  0  0  0  0  0  0  0  0  0  0
   34.6650   29.1580   37.0290 C   0  0  0  0  0  0  0  0  0  0  0  0
   35.9380   28.7660   36.3130 C   0  0  2  0  0  0  0  0  0  0  0  0
   36.6600   27.6450   37.0290 C   0  0  0  0  0  0  0  0  0  0  0  0
   35.8150   26.4310   37.1800 C   0  0  1  0  0  0  0  0  0  0  0  0
   36.1490   25.6010   38.3140 N   0  0  0  0  0  0  0  0  0  0  0  0
   37.1250   26.0570   39.1530 C   0  0  0  0  0  0  0  0  0  0  0  0
   37.5570   25.3880   40.2720 C   0  0  0  0  0  0  0  0  0  0  0  0
   36.9790   24.1750   40.5820 C   0  0  0  0  0  0  0  0  0  0  0  0
   37.3460   23.5280   41.5990 O   0  0  0  0  0  0  0  0  0  0  0  0
   36.0190   23.7430   39.7410 N   0  0  0  0  0  0  0  0  0  0  0  0
   35.6090   24.4150   38.6490 C   0  0  0  0  0  0  0  0  0  0  0  0
   34.7100   23.9940   37.8750 O   0  0  0  0  0  0  0  0  0  0  0  0
   37.0560   30.1950   36.3610 S   0  0  0  0  0  0  0  0  0  0  0  0
   37.3310   30.5470   40.3580 C   0  0  0  0  0  0  0  0  0  0  0  0
   37.3870   31.8920   40.6040 C   0  0  0  0  0  0  0  0  0  0  0  0
   37.3400   32.7480   39.5020 C   0  0  0  0  0  0  0  0  0  0  0  0
   37.2390   32.2010   38.2300 C   0  0  0  0  0  0  0  0  0  0  0  0
   37.1850   30.8410   38.0140 C   0  0  0  0  0  0  0  0  0  0  0  0
   37.2320   30.0460   39.1000 N   0  0  0  0  0  0  0  0  0  0  0  0
   38.5060   28.8510   43.3880 C   0  0  0  0  0  0  0  0  0  0  0  0
   37.5280   27.8710   43.6070 C   0  0  0  0  0  0  0  0  0  0  0  0
   36.4480   27.7930   42.6980 C   0  0  0  0  0  0  0  0  0  0  0  0
   36.4330   28.6680   41.6790 N   0  0  0  0  0  0  0  0  0  0  0  0
   37.3780   29.6030   41.4830 C   0  0  0  0  0  0  0  0  0  0  0  0
   38.3830   29.6610   42.3480 N   0  0  0  0  0  0  0  0  0  0  0  0
   33.9150   25.9778   37.7241 H   0  0  0  0  0  0  0  0  0  0  0  0
   32.9747   28.0950   37.8004 H   0  0  0  0  0  0  0  0  0  0  0  0
   34.4944   27.9929   38.7994 H   0  0  0  0  0  0  0  0  0  0  0  0
   33.9338   29.5151   36.2888 H   0  0  0  0  0  0  0  0  0  0  0  0
   34.9059   29.9495   37.7540 H   0  0  0  0  0  0  0  0  0  0  0  0
   35.6749   28.4457   35.2941 H   0  0  0  0  0  0  0  0  0  0  0  0
   37.5593   27.3800   36.4536 H   0  0  0  0  0  0  0  0  0  0  0  0
   36.9168   28.0020   38.0373 H   0  0  0  0  0  0  0  0  0  0  0  0
   36.0515   25.8541   36.2738 H   0  0  0  0  0  0  0  0  0  0  0  0
   37.5958   27.0228   38.9174 H   0  0  0  0  0  0  0  0  0  0  0  0
   38.3482   25.8113   40.9082 H   0  0  0  0  0  0  0  0  0  0  0  0
   35.5694   22.8395   39.9471 H   0  0  0  0  0  0  0  0  0  0  0  0
   37.4659   32.2831   41.6291 H   0  0  0  0  0  0  0  0  0  0  0  0
   37.3823   33.8386   39.6395 H   0  0  0  0  0  0  0  0  0  0  0  0
   37.2007   32.8774   37.3634 H   0  0  0  0  0  0  0  0  0  0  0  0
   39.3635   28.9457   44.0705 H   0  0  0  0  0  0  0  0  0  0  0  0
   37.5988   27.1823   44.4618 H   0  0  0  0  0  0  0  0  0  0  0  0
   35.6510   27.0448   42.8205 H   0  0  0  0  0  0  0  0  0  0  0  0
  1  2  1  0
  3  2  1  0
  4 15  1  0
  4  3  1  0
  4  5  1  0
  5  6  1  0
  6  1  1  0
  6  7  1  0
  7 13  1  0
  7  8  1  0
  8  9  2  0
  9 10  1  0
 10 11  2  0
 12 10  1  0
 13 12  1  0
 14 13  2  0
 15 20  1  0
 16 17  2  0
 16 26  1  0
 18 17  1  0
 19 18  2  0
 20 19  1  0
 20 21  2  0
 21 16  1  0
 22 23  2  0
 24 23  1  0
 25 24  2  0
 26 25  1  0
 26 27  2  0
 27 22  1  0
  1 28  1  0
  2 29  1  0
  2 30  1  0
  3 31  1  0
  3 32  1  0
  4 33  1  6
  5 34  1  0
  5 35  1  0
  6 36  1  6
  8 37  1  0
  9 38  1  0
 12 39  1  0
 17 40  1  0
 18 41  1  0
 19 42  1  0
 22 43  1  0
 23 44  1  0
 24 45  1  0
M  ISO  8  28   5  29  13  30  13  31  13  32  13  33  13  34  13  35  13
M  ISO  8  36  13  37  14  38  14  39   9  40  14  41  14  42  14  43  14
M  ISO  2  44  14  45  14
M  END
>  <minimizedAffinity>  (1) 
-5.40134811

>  <minimizedRMSD>  (1) 
1.71217918

$$$$
