
     RDKit          3D

 50 53  0  0  1  0  0  0  0  0999 V2000
   33.9410   26.6770   36.9870 N   0  0  0  0  0  0  0  0  0  0  0  0
   33.7730   28.0170   37.5100 C   0  0  0  0  0  0  0  0  0  0  0  0
   34.6580   29.0290   36.8320 C   0  0  0  0  0  0  0  0  0  0  0  0
   35.9110   28.4080   36.2860 C   0  0  2  0  0  0  0  0  0  0  0  0
   36.3390   27.1720   37.0630 C   0  0  0  0  0  0  0  0  0  0  0  0
   35.2560   26.1540   37.1490 C   0  0  1  0  0  0  0  0  0  0  0  0
   35.4330   25.3890   38.3600 N   0  0  0  0  0  0  0  0  0  0  0  0
   36.7360   25.6880   38.9290 C   0  0  0  0  0  0  0  0  0  0  0  0
   36.8030   25.1030   40.3230 C   0  0  0  0  0  0  0  0  0  0  0  0
   36.4510   23.6520   40.3380 C   0  0  0  0  0  0  0  0  0  0  0  0
   35.2350   23.3190   39.5020 C   0  0  0  0  0  0  0  0  0  0  0  0
   35.3900   23.9630   38.1210 C   0  0  0  0  0  0  0  0  0  0  0  0
   37.2800   29.5870   36.4580 S   0  0  0  0  0  0  0  0  0  0  0  0
   37.2020   30.2550   40.4210 C   0  0  0  0  0  0  0  0  0  0  0  0
   37.1510   31.6220   40.5500 C   0  0  0  0  0  0  0  0  0  0  0  0
   37.1380   32.3840   39.3940 C   0  0  0  0  0  0  0  0  0  0  0  0
   37.1780   31.7300   38.1640 C   0  0  0  0  0  0  0  0  0  0  0  0
   37.2300   30.3610   38.0640 C   0  0  0  0  0  0  0  0  0  0  0  0
   37.2400   29.6590   39.2020 N   0  0  0  0  0  0  0  0  0  0  0  0
   38.2290   28.8950   43.6600 C   0  0  0  0  0  0  0  0  0  0  0  0
   37.3090   27.8480   43.8730 C   0  0  0  0  0  0  0  0  0  0  0  0
   36.3250   27.6100   42.8860 C   0  0  0  0  0  0  0  0  0  0  0  0
   36.3450   28.4150   41.8050 N   0  0  0  0  0  0  0  0  0  0  0  0
   37.2190   29.4000   41.6160 C   0  0  0  0  0  0  0  0  0  0  0  0
   38.1380   29.6110   42.5540 N   0  0  0  0  0  0  0  0  0  0  0  0
   33.7195   26.6915   35.9812 H   0  0  0  0  0  0  0  0  0  0  0  0
   32.7245   28.3189   37.3702 H   0  0  0  0  0  0  0  0  0  0  0  0
   34.0554   27.9929   38.5729 H   0  0  0  0  0  0  0  0  0  0  0  0
   34.1001   29.4893   36.0032 H   0  0  0  0  0  0  0  0  0  0  0  0
   34.9506   29.7791   37.5815 H   0  0  0  0  0  0  0  0  0  0  0  0
   35.6945   28.1378   35.2419 H   0  0  0  0  0  0  0  0  0  0  0  0
   37.2080   26.7220   36.5607 H   0  0  0  0  0  0  0  0  0  0  0  0
   36.5853   27.4878   38.0875 H   0  0  0  0  0  0  0  0  0  0  0  0
   35.3506   25.4798   36.2850 H   0  0  0  0  0  0  0  0  0  0  0  0
   37.5239   25.2438   38.3030 H   0  0  0  0  0  0  0  0  0  0  0  0
   36.8849   26.7770   38.9722 H   0  0  0  0  0  0  0  0  0  0  0  0
   37.8253   25.2245   40.7104 H   0  0  0  0  0  0  0  0  0  0  0  0
   36.0738   25.6361   40.9507 H   0  0  0  0  0  0  0  0  0  0  0  0
   37.3077   23.0816   39.9497 H   0  0  0  0  0  0  0  0  0  0  0  0
   36.2116   23.3872   41.3785 H   0  0  0  0  0  0  0  0  0  0  0  0
   35.1496   22.2278   39.3929 H   0  0  0  0  0  0  0  0  0  0  0  0
   34.3289   23.7039   39.9928 H   0  0  0  0  0  0  0  0  0  0  0  0
   34.5340   23.7067   37.4794 H   0  0  0  0  0  0  0  0  0  0  0  0
   36.2951   23.6089   37.6058 H   0  0  0  0  0  0  0  0  0  0  0  0
   37.1214   32.0967   41.5418 H   0  0  0  0  0  0  0  0  0  0  0  0
   37.0970   33.4820   39.4454 H   0  0  0  0  0  0  0  0  0  0  0  0
   37.1676   32.3303   37.2423 H   0  0  0  0  0  0  0  0  0  0  0  0
   39.0103   29.1121   44.4033 H   0  0  0  0  0  0  0  0  0  0  0  0
   37.3556   27.2323   44.7834 H   0  0  0  0  0  0  0  0  0  0  0  0
   35.5802   26.8079   42.9948 H   0  0  0  0  0  0  0  0  0  0  0  0
  1  6  1  0
  1  2  1  0
  3  2  1  0
  4 13  1  0
  4  3  1  0
  4  5  1  0
  5  6  1  0
  6  7  1  0
  7  8  1  0
  8  9  1  0
  9 10  1  0
 11 10  1  0
 12  7  1  0
 12 11  1  0
 13 18  1  0
 14 15  2  0
 14 24  1  0
 16 15  1  0
 17 16  2  0
 18 17  1  0
 18 19  2  0
 19 14  1  0
 20 21  2  0
 22 21  1  0
 23 22  2  0
 24 23  1  0
 24 25  2  0
 25 20  1  0
  1 26  1  0
  2 27  1  0
  2 28  1  0
  3 29  1  0
  3 30  1  0
  4 31  1  6
  5 32  1  0
  5 33  1  0
  6 34  1  6
  8 35  1  0
  8 36  1  0
  9 37  1  0
  9 38  1  0
 10 39  1  0
 10 40  1  0
 11 41  1  0
 11 42  1  0
 12 43  1  0
 12 44  1  0
 15 45  1  0
 16 46  1  0
 17 47  1  0
 20 48  1  0
 21 49  1  0
 22 50  1  0
M  ISO  8  26   5  27  13  28  13  29  13  30  13  31  13  32  13  33  13
M  ISO  8  34  13  35  13  36  13  37  13  38  13  39  13  40  13  41  13
M  ISO  8  42  13  43  13  44  13  45  14  46  14  47  14  48  14  49  14
M  ISO  1  50  14
M  END
>  <minimizedAffinity>  (1) 
-5.33252907

>  <minimizedRMSD>  (1) 
0.926279604

$$$$
