
     RDKit          3D

 48 51  0  0  1  0  0  0  0  0999 V2000
   35.0520   29.2580   37.4070 N   0  0  0  0  0  0  0  0  0  0  0  0
   34.7120   28.7610   38.7120 C   0  0  0  0  0  0  0  0  0  0  0  0
   35.1900   29.6870   39.8210 C   0  0  0  0  0  0  0  0  0  0  0  0
   36.4080   30.4790   39.4110 C   0  0  2  0  0  0  0  0  0  0  0  0
   37.2350   29.7280   38.3900 C   0  0  0  0  0  0  0  0  0  0  0  0
   36.4790   29.3450   37.1640 C   0  0  1  0  0  0  0  0  0  0  0  0
   36.8630   28.0670   36.6030 N   0  0  0  0  0  0  0  0  0  0  0  0
   37.7690   27.2600   37.2260 C   0  0  0  0  0  0  0  0  0  0  0  0
   38.1790   26.0320   36.7460 C   0  0  0  0  0  0  0  0  0  0  0  0
   39.1760   25.2970   37.5690 C   0  0  0  0  0  0  0  0  0  0  0  0
   37.6160   25.6200   35.5550 C   0  0  0  0  0  0  0  0  0  0  0  0
   38.0110   24.4830   35.1360 O   0  0  0  0  0  0  0  0  0  0  0  0
   36.7200   26.3930   34.9160 N   0  0  0  0  0  0  0  0  0  0  0  0
   36.3750   27.5810   35.4550 C   0  0  0  0  0  0  0  0  0  0  0  0
   35.5310   28.2620   34.8120 O   0  0  0  0  0  0  0  0  0  0  0  0
   37.4580   30.6790   40.8780 S   0  0  0  0  0  0  0  0  0  0  0  0
   37.4820   26.8060   41.9840 C   0  0  0  0  0  0  0  0  0  0  0  0
   37.6080   26.8330   43.3460 C   0  0  0  0  0  0  0  0  0  0  0  0
   37.6900   28.0660   43.9700 C   0  0  0  0  0  0  0  0  0  0  0  0
   37.6410   29.2170   43.1930 C   0  0  0  0  0  0  0  0  0  0  0  0
   37.5150   29.1740   41.8220 C   0  0  0  0  0  0  0  0  0  0  0  0
   37.4370   27.9580   41.2400 N   0  0  0  0  0  0  0  0  0  0  0  0
   38.1780   23.3470   41.0460 C   0  0  0  0  0  0  0  0  0  0  0  0
   37.2790   23.1070   39.9800 C   0  0  0  0  0  0  0  0  0  0  0  0
   36.4250   24.1630   39.5900 C   0  0  0  0  0  0  0  0  0  0  0  0
   36.5300   25.3260   40.2620 N   0  0  0  0  0  0  0  0  0  0  0  0
   37.3920   25.5260   41.2690 C   0  0  0  0  0  0  0  0  0  0  0  0
   38.1880   24.5360   41.6310 N   0  0  0  0  0  0  0  0  0  0  0  0
   34.6411   28.6283   36.7031 H   0  0  0  0  0  0  0  0  0  0  0  0
   33.6186   28.6618   38.7797 H   0  0  0  0  0  0  0  0  0  0  0  0
   35.2105   27.7894   38.8443 H   0  0  0  0  0  0  0  0  0  0  0  0
   34.3797   30.3869   40.0732 H   0  0  0  0  0  0  0  0  0  0  0  0
   35.4639   29.0666   40.6871 H   0  0  0  0  0  0  0  0  0  0  0  0
   36.0736   31.4364   38.9850 H   0  0  0  0  0  0  0  0  0  0  0  0
   38.0793   30.3665   38.0909 H   0  0  0  0  0  0  0  0  0  0  0  0
   37.5614   28.7930   38.8689 H   0  0  0  0  0  0  0  0  0  0  0  0
   36.7273   30.1500   36.4567 H   0  0  0  0  0  0  0  0  0  0  0  0
   38.2020   27.6109   38.1743 H   0  0  0  0  0  0  0  0  0  0  0  0
   38.9598   25.4564   38.6357 H   0  0  0  0  0  0  0  0  0  0  0  0
   39.1199   24.2226   37.3400 H   0  0  0  0  0  0  0  0  0  0  0  0
   40.1858   25.6684   37.3400 H   0  0  0  0  0  0  0  0  0  0  0  0
   36.3027   26.0824   34.0270 H   0  0  0  0  0  0  0  0  0  0  0  0
   37.6432   25.9009   43.9291 H   0  0  0  0  0  0  0  0  0  0  0  0
   37.7923   28.1335   45.0632 H   0  0  0  0  0  0  0  0  0  0  0  0
   37.7050   30.1963   43.6899 H   0  0  0  0  0  0  0  0  0  0  0  0
   38.8615   22.5548   41.3856 H   0  0  0  0  0  0  0  0  0  0  0  0
   37.2461   22.1317   39.4723 H   0  0  0  0  0  0  0  0  0  0  0  0
   35.7025   24.0403   38.7696 H   0  0  0  0  0  0  0  0  0  0  0  0
  1  2  1  0
  2  3  1  0
  4  3  1  0
  4 16  1  0
  5  4  1  0
  6  1  1  0
  6  5  1  0
  7  6  1  0
  7  8  1  0
  9  8  2  0
  9 10  1  0
 11  9  1  0
 12 11  2  0
 13 14  1  0
 13 11  1  0
 14  7  1  0
 15 14  2  0
 16 21  1  0
 17 18  2  0
 18 19  1  0
 20 19  2  0
 21 20  1  0
 22 21  2  0
 22 17  1  0
 23 28  2  0
 24 23  1  0
 25 24  2  0
 25 26  1  0
 26 27  2  0
 27 28  1  0
 27 17  1  0
  1 29  1  0
  2 30  1  0
  2 31  1  0
  3 32  1  0
  3 33  1  0
  4 34  1  6
  5 35  1  0
  5 36  1  0
  6 37  1  6
  8 38  1  0
 10 39  1  0
 10 40  1  0
 10 41  1  0
 13 42  1  0
 18 43  1  0
 19 44  1  0
 20 45  1  0
 23 46  1  0
 24 47  1  0
 25 48  1  0
M  ISO  8  29   5  30  13  31  13  32  13  33  13  34  13  35  13  36  13
M  ISO  8  37  13  38  14  39   8  40   8  41   8  42   9  43  14  44  14
M  ISO  4  45  14  46  14  47  14  48  14
M  END
>  <minimizedAffinity>  (1) 
-5.29606867

>  <minimizedRMSD>  (1) 
4.94863987

$$$$
