
     RDKit          3D

 48 51  0  0  1  0  0  0  0  0999 V2000
   33.7630   26.8390   37.1030 N   0  0  0  0  0  0  0  0  0  0  0  0
   33.6480   28.1570   37.6840 C   0  0  0  0  0  0  0  0  0  0  0  0
   34.4740   29.1890   36.9700 C   0  0  0  0  0  0  0  0  0  0  0  0
   35.6920   28.5860   36.2940 C   0  0  2  0  0  0  0  0  0  0  0  0
   36.1610   27.3430   36.9990 C   0  0  0  0  0  0  0  0  0  0  0  0
   35.1040   26.3030   37.1100 C   0  0  1  0  0  0  0  0  0  0  0  0
   35.3260   25.3260   38.2310 C   0  0  0  0  0  0  0  0  0  0  0  0
   36.3020   25.9070   39.2180 C   0  0  0  0  0  0  0  0  0  0  0  0
   37.0700   24.7120   39.7750 C   0  0  0  0  0  0  0  0  0  0  0  0
   36.9500   23.6100   38.7670 C   0  0  0  0  0  0  0  0  0  0  0  0
   36.1080   24.1630   37.6500 C   0  0  0  0  0  0  0  0  0  0  0  0
   37.0400   29.7860   36.3960 S   0  0  0  0  0  0  0  0  0  0  0  0
   37.1900   30.3410   40.3860 C   0  0  0  0  0  0  0  0  0  0  0  0
   37.2340   31.7050   40.5440 C   0  0  0  0  0  0  0  0  0  0  0  0
   37.2170   32.4950   39.3980 C   0  0  0  0  0  0  0  0  0  0  0  0
   37.1590   31.8820   38.1550 C   0  0  0  0  0  0  0  0  0  0  0  0
   37.1150   30.5210   38.0170 C   0  0  0  0  0  0  0  0  0  0  0  0
   37.1330   29.7740   39.1470 N   0  0  0  0  0  0  0  0  0  0  0  0
   38.1820   28.9410   43.6060 C   0  0  0  0  0  0  0  0  0  0  0  0
   37.3010   27.8400   43.7700 C   0  0  0  0  0  0  0  0  0  0  0  0
   36.3610   27.5990   42.7430 C   0  0  0  0  0  0  0  0  0  0  0  0
   36.3680   28.4280   41.6830 N   0  0  0  0  0  0  0  0  0  0  0  0
   37.2050   29.4540   41.5510 C   0  0  0  0  0  0  0  0  0  0  0  0
   38.0860   29.6820   42.5130 N   0  0  0  0  0  0  0  0  0  0  0  0
   33.4398   26.8874   36.1262 H   0  0  0  0  0  0  0  0  0  0  0  0
   32.5928   28.4656   37.6463 H   0  0  0  0  0  0  0  0  0  0  0  0
   34.0217   28.0944   38.7167 H   0  0  0  0  0  0  0  0  0  0  0  0
   33.8496   29.6748   36.2057 H   0  0  0  0  0  0  0  0  0  0  0  0
   34.8287   29.9126   37.7187 H   0  0  0  0  0  0  0  0  0  0  0  0
   35.4197   28.3355   35.2581 H   0  0  0  0  0  0  0  0  0  0  0  0
   37.0094   26.9219   36.4396 H   0  0  0  0  0  0  0  0  0  0  0  0
   36.4457   27.6326   38.0213 H   0  0  0  0  0  0  0  0  0  0  0  0
   35.2015   25.7179   36.1836 H   0  0  0  0  0  0  0  0  0  0  0  0
   34.3562   25.0690   38.6820 H   0  0  0  0  0  0  0  0  0  0  0  0
   36.9875   26.6058   38.7163 H   0  0  0  0  0  0  0  0  0  0  0  0
   35.7941   26.4745   40.0117 H   0  0  0  0  0  0  0  0  0  0  0  0
   38.1275   24.9770   39.9218 H   0  0  0  0  0  0  0  0  0  0  0  0
   36.6631   24.4013   40.7486 H   0  0  0  0  0  0  0  0  0  0  0  0
   37.9439   23.3247   38.3918 H   0  0  0  0  0  0  0  0  0  0  0  0
   36.4973   22.7087   39.2059 H   0  0  0  0  0  0  0  0  0  0  0  0
   35.4189   23.3913   37.2764 H   0  0  0  0  0  0  0  0  0  0  0  0
   36.7335   24.4882   36.8056 H   0  0  0  0  0  0  0  0  0  0  0  0
   37.2812   32.1587   41.5449 H   0  0  0  0  0  0  0  0  0  0  0  0
   37.2492   33.5917   39.4771 H   0  0  0  0  0  0  0  0  0  0  0  0
   37.1480   32.5096   37.2516 H   0  0  0  0  0  0  0  0  0  0  0  0
   38.9328   29.1749   44.3751 H   0  0  0  0  0  0  0  0  0  0  0  0
   37.3483   27.1989   44.6626 H   0  0  0  0  0  0  0  0  0  0  0  0
   35.6487   26.7633   42.8076 H   0  0  0  0  0  0  0  0  0  0  0  0
  1  6  1  0
  1  2  1  0
  3  2  1  0
  4 12  1  0
  4  3  1  0
  4  5  1  0
  5  6  1  0
  6  7  1  0
  7  8  1  0
  8  9  1  0
 10  9  1  0
 11  7  1  0
 11 10  1  0
 12 17  1  0
 13 14  2  0
 13 23  1  0
 15 14  1  0
 16 15  2  0
 17 16  1  0
 17 18  2  0
 18 13  1  0
 19 20  2  0
 21 20  1  0
 22 21  2  0
 23 22  1  0
 23 24  2  0
 24 19  1  0
  1 25  1  0
  2 26  1  0
  2 27  1  0
  3 28  1  0
  3 29  1  0
  4 30  1  6
  5 31  1  0
  5 32  1  0
  6 33  1  6
  7 34  1  0
  8 35  1  0
  8 36  1  0
  9 37  1  0
  9 38  1  0
 10 39  1  0
 10 40  1  0
 11 41  1  0
 11 42  1  0
 14 43  1  0
 15 44  1  0
 16 45  1  0
 19 46  1  0
 20 47  1  0
 21 48  1  0
M  ISO  8  25   5  26  13  27  13  28  13  29  13  30  13  31  13  32  13
M  ISO  8  33  13  34  13  35  13  36  13  37  13  38  13  39  13  40  13
M  ISO  8  41  13  42  13  43  14  44  14  45  14  46  14  47  14  48  14
M  END
>  <minimizedAffinity>  (1) 
-5.02505112

>  <minimizedRMSD>  (1) 
0.811249554

$$$$
