
     RDKit          3D

 38 40  0  0  1  0  0  0  0  0999 V2000
   37.1100   29.9800   36.3980 S   0  0  0  0  0  0  0  0  0  0  0  0
   34.1760   26.6940   37.1170 N   0  0  0  0  0  0  0  0  0  0  0  0
   33.9340   27.9820   37.7040 C   0  0  0  0  0  0  0  0  0  0  0  0
   34.6320   29.1070   36.9790 C   0  0  0  0  0  0  0  0  0  0  0  0
   35.8910   28.6380   36.2970 C   0  0  2  0  0  0  0  0  0  0  0  0
   36.5090   27.4490   36.9910 C   0  0  0  0  0  0  0  0  0  0  0  0
   35.5660   26.3020   37.1070 C   0  0  1  0  0  0  0  0  0  0  0  0
   35.8760   25.3570   38.2360 C   0  0  0  0  0  0  0  0  0  0  0  0
   36.0850   25.9740   39.4450 F   0  0  0  0  0  0  0  0  0  0  0  0
   34.7690   24.5040   38.3420 F   0  0  0  0  0  0  0  0  0  0  0  0
   36.9280   24.5550   37.8330 F   0  0  0  0  0  0  0  0  0  0  0  0
   37.2020   30.4250   40.4000 C   0  0  0  0  0  0  0  0  0  0  0  0
   37.2510   31.7680   40.6020 C   0  0  0  0  0  0  0  0  0  0  0  0
   37.2560   32.6000   39.4990 C   0  0  0  0  0  0  0  0  0  0  0  0
   37.2120   32.0160   38.2280 C   0  0  0  0  0  0  0  0  0  0  0  0
   37.1640   30.6600   38.0490 C   0  0  0  0  0  0  0  0  0  0  0  0
   37.1590   29.8870   39.1400 N   0  0  0  0  0  0  0  0  0  0  0  0
   38.1180   28.9080   43.6070 C   0  0  0  0  0  0  0  0  0  0  0  0
   37.2610   27.8050   43.6990 C   0  0  0  0  0  0  0  0  0  0  0  0
   36.3570   27.5830   42.6420 C   0  0  0  0  0  0  0  0  0  0  0  0
   36.3730   28.4440   41.6090 N   0  0  0  0  0  0  0  0  0  0  0  0
   37.1930   29.4870   41.5370 C   0  0  0  0  0  0  0  0  0  0  0  0
   38.0470   29.6950   42.5370 N   0  0  0  0  0  0  0  0  0  0  0  0
   33.6454   25.9906   37.6505 H   0  0  0  0  0  0  0  0  0  0  0  0
   32.8512   28.1751   37.6889 H   0  0  0  0  0  0  0  0  0  0  0  0
   34.3349   27.9549   38.7280 H   0  0  0  0  0  0  0  0  0  0  0  0
   33.9495   29.5199   36.2215 H   0  0  0  0  0  0  0  0  0  0  0  0
   34.9093   29.8710   37.7202 H   0  0  0  0  0  0  0  0  0  0  0  0
   35.6297   28.3584   35.2657 H   0  0  0  0  0  0  0  0  0  0  0  0
   37.3900   27.1247   36.4177 H   0  0  0  0  0  0  0  0  0  0  0  0
   36.7817   27.7615   38.0098 H   0  0  0  0  0  0  0  0  0  0  0  0
   35.7345   25.7369   36.1784 H   0  0  0  0  0  0  0  0  0  0  0  0
   37.2859   32.1830   41.6201 H   0  0  0  0  0  0  0  0  0  0  0  0
   37.2936   33.6930   39.6168 H   0  0  0  0  0  0  0  0  0  0  0  0
   37.2161   32.6690   37.3428 H   0  0  0  0  0  0  0  0  0  0  0  0
   38.8404   29.1210   44.4087 H   0  0  0  0  0  0  0  0  0  0  0  0
   37.2926   27.1329   44.5692 H   0  0  0  0  0  0  0  0  0  0  0  0
   35.6599   26.7323   42.6608 H   0  0  0  0  0  0  0  0  0  0  0  0
  1 16  1  0
  2  3  1  0
  4  3  1  0
  5  1  1  0
  5  4  1  0
  5  6  1  0
  6  7  1  0
  7  2  1  0
  7  8  1  0
  8 10  1  0
  8  9  1  0
 11  8  1  0
 12 13  2  0
 12 22  1  0
 14 13  1  0
 15 14  2  0
 16 15  1  0
 16 17  2  0
 17 12  1  0
 18 19  2  0
 20 19  1  0
 21 20  2  0
 22 21  1  0
 22 23  2  0
 23 18  1  0
  2 24  1  0
  3 25  1  0
  3 26  1  0
  4 27  1  0
  4 28  1  0
  5 29  1  6
  6 30  1  0
  6 31  1  0
  7 32  1  6
 13 33  1  0
 14 34  1  0
 15 35  1  0
 18 36  1  0
 19 37  1  0
 20 38  1  0
M  ISO  8  24   5  25  13  26  13  27  13  28  13  29  13  30  13  31  13
M  ISO  7  32  13  33  14  34  14  35  14  36  14  37  14  38  14
M  END
>  <minimizedAffinity>  (1) 
-4.84172487

>  <minimizedRMSD>  (1) 
1.08842421

$$$$
