
     RDKit          3D

 49 52  0  0  1  0  0  0  0  0999 V2000
   33.1600   26.9810   36.8300 N   0  0  0  0  0  0  0  0  0  0  0  0
   33.2430   28.4010   37.0190 C   0  0  0  0  0  0  0  0  0  0  0  0
   34.4300   29.0230   36.3210 C   0  0  0  0  0  0  0  0  0  0  0  0
   35.5830   28.0490   36.1780 C   0  0  2  0  0  0  0  0  0  0  0  0
   35.5780   27.0040   37.2820 C   0  0  0  0  0  0  0  0  0  0  0  0
   34.2810   26.2580   37.3520 C   0  0  2  0  0  0  0  0  0  0  0  0
   34.4880   24.9820   36.7010 N   0  0  0  0  0  0  0  0  0  0  0  0
   33.4340   24.0280   36.9830 C   0  0  0  0  0  0  0  0  0  0  0  0
   33.7750   22.7820   36.1940 C   0  0  0  0  0  0  0  0  0  0  0  0
   35.1030   22.2850   36.5000 N   0  0  0  0  0  0  0  0  0  0  0  0
   35.6600   23.0180   37.6280 C   0  0  0  0  0  0  0  0  0  0  0  0
   35.7480   24.4660   37.2190 C   0  0  0  0  0  0  0  0  0  0  0  0
   37.1270   28.9720   36.3490 S   0  0  0  0  0  0  0  0  0  0  0  0
   37.1760   29.9960   40.2400 C   0  0  0  0  0  0  0  0  0  0  0  0
   37.1800   31.3620   40.2430 C   0  0  0  0  0  0  0  0  0  0  0  0
   37.1660   32.0260   39.0200 C   0  0  0  0  0  0  0  0  0  0  0  0
   37.1500   31.2620   37.8540 C   0  0  0  0  0  0  0  0  0  0  0  0
   37.1470   29.8890   37.8730 C   0  0  0  0  0  0  0  0  0  0  0  0
   37.1610   29.2840   39.0800 N   0  0  0  0  0  0  0  0  0  0  0  0
   38.1180   29.0170   43.6290 C   0  0  0  0  0  0  0  0  0  0  0  0
   37.2760   27.9080   43.8920 C   0  0  0  0  0  0  0  0  0  0  0  0
   36.3840   27.5050   42.8910 C   0  0  0  0  0  0  0  0  0  0  0  0
   36.3840   28.2040   41.7320 N   0  0  0  0  0  0  0  0  0  0  0  0
   37.1910   29.2480   41.5080 C   0  0  0  0  0  0  0  0  0  0  0  0
   38.0380   29.6290   42.4620 N   0  0  0  0  0  0  0  0  0  0  0  0
   32.3083   26.6409   37.2989 H   0  0  0  0  0  0  0  0  0  0  0  0
   32.3247   28.8609   36.6252 H   0  0  0  0  0  0  0  0  0  0  0  0
   33.3644   28.5821   38.0972 H   0  0  0  0  0  0  0  0  0  0  0  0
   34.1189   29.3537   35.3191 H   0  0  0  0  0  0  0  0  0  0  0  0
   34.7761   29.8700   36.9316 H   0  0  0  0  0  0  0  0  0  0  0  0
   35.4862   27.5520   35.2015 H   0  0  0  0  0  0  0  0  0  0  0  0
   36.3895   26.2858   37.0931 H   0  0  0  0  0  0  0  0  0  0  0  0
   35.7185   27.5257   38.2402 H   0  0  0  0  0  0  0  0  0  0  0  0
   34.0039   26.1096   38.4061 H   0  0  0  0  0  0  0  0  0  0  0  0
   33.4014   23.8018   38.0590 H   0  0  0  0  0  0  0  0  0  0  0  0
   32.4470   24.4243   36.7024 H   0  0  0  0  0  0  0  0  0  0  0  0
   33.7236   23.0174   35.1207 H   0  0  0  0  0  0  0  0  0  0  0  0
   33.0509   22.0005   36.4680 H   0  0  0  0  0  0  0  0  0  0  0  0
   35.0466   21.2844   36.7375 H   0  0  0  0  0  0  0  0  0  0  0  0
   35.0052   22.9134   38.5057 H   0  0  0  0  0  0  0  0  0  0  0  0
   36.6526   22.6269   37.8959 H   0  0  0  0  0  0  0  0  0  0  0  0
   36.5163   24.5649   36.4380 H   0  0  0  0  0  0  0  0  0  0  0  0
   36.0020   25.0496   38.1162 H   0  0  0  0  0  0  0  0  0  0  0  0
   37.1939   31.9234   41.1889 H   0  0  0  0  0  0  0  0  0  0  0  0
   37.1675   33.1251   38.9745 H   0  0  0  0  0  0  0  0  0  0  0  0
   37.1394   31.7782   36.8827 H   0  0  0  0  0  0  0  0  0  0  0  0
   38.8318   29.3648   44.3903 H   0  0  0  0  0  0  0  0  0  0  0  0
   37.3219   27.3788   44.8552 H   0  0  0  0  0  0  0  0  0  0  0  0
   35.7074   26.6508   43.0411 H   0  0  0  0  0  0  0  0  0  0  0  0
  1  2  1  0
  1  6  1  0
  3  2  1  0
  4  3  1  0
  4 13  1  0
  4  5  1  0
  5  6  1  0
  7  8  1  0
  7 12  1  0
  7  6  1  0
  9 10  1  0
  9  8  1  0
 10 11  1  0
 12 11  1  0
 13 18  1  0
 14 15  2  0
 14 24  1  0
 16 15  1  0
 17 18  1  0
 17 16  2  0
 18 19  2  0
 19 14  1  0
 20 21  2  0
 22 21  1  0
 23 22  2  0
 24 23  1  0
 24 25  2  0
 25 20  1  0
  1 26  1  0
  2 27  1  0
  2 28  1  0
  3 29  1  0
  3 30  1  0
  4 31  1  6
  5 32  1  0
  5 33  1  0
  6 34  1  1
  8 35  1  0
  8 36  1  0
  9 37  1  0
  9 38  1  0
 10 39  1  0
 11 40  1  0
 11 41  1  0
 12 42  1  0
 12 43  1  0
 15 44  1  0
 16 45  1  0
 17 46  1  0
 20 47  1  0
 21 48  1  0
 22 49  1  0
M  ISO  8  26   5  27  13  28  13  29  13  30  13  31  13  32  13  33  13
M  ISO  8  34  13  35  13  36  13  37  13  38  13  39   5  40  13  41  13
M  ISO  8  42  13  43  13  44  14  45  14  46  14  47  14  48  14  49  14
M  END
>  <minimizedAffinity>  (1) 
-4.74783897

>  <minimizedRMSD>  (1) 
0.527833939

$$$$
