
     RDKit          3D

 42 45  0  0  1  0  0  0  0  0999 V2000
   33.0740   27.0470   36.8000 N   0  0  0  0  0  0  0  0  0  0  0  0
   33.1990   28.4640   36.9790 C   0  0  0  0  0  0  0  0  0  0  0  0
   34.4000   29.0690   36.2960 C   0  0  0  0  0  0  0  0  0  0  0  0
   35.5160   28.0670   36.1460 C   0  0  2  0  0  0  0  0  0  0  0  0
   35.4810   27.0200   37.2460 C   0  0  0  0  0  0  0  0  0  0  0  0
   34.1880   26.2960   37.3440 C   0  0  2  0  0  0  0  0  0  0  0  0
   34.2980   24.9660   36.8010 C   0  0  0  0  0  0  0  0  0  0  0  0
   34.1730   24.3150   35.6070 C   0  0  0  0  0  0  0  0  0  0  0  0
   34.3630   22.9710   35.4870 C   0  0  0  0  0  0  0  0  0  0  0  0
   34.7150   22.2760   36.7590 C   0  0  0  0  0  0  0  0  0  0  0  0
   34.7150   23.7370   37.9670 S   0  0  0  0  0  0  0  0  0  0  0  0
   37.0910   28.9420   36.3410 S   0  0  0  0  0  0  0  0  0  0  0  0
   37.1610   29.9800   40.2290 C   0  0  0  0  0  0  0  0  0  0  0  0
   37.1650   31.3430   40.2300 C   0  0  0  0  0  0  0  0  0  0  0  0
   37.1450   32.0000   39.0060 C   0  0  0  0  0  0  0  0  0  0  0  0
   37.1240   31.2330   37.8490 C   0  0  0  0  0  0  0  0  0  0  0  0
   37.1200   29.8520   37.8680 C   0  0  0  0  0  0  0  0  0  0  0  0
   37.1380   29.2610   39.0640 N   0  0  0  0  0  0  0  0  0  0  0  0
   38.1070   29.0120   43.6300 C   0  0  0  0  0  0  0  0  0  0  0  0
   37.2760   27.9030   43.8900 C   0  0  0  0  0  0  0  0  0  0  0  0
   36.3840   27.4880   42.8830 C   0  0  0  0  0  0  0  0  0  0  0  0
   36.3840   28.1860   41.7280 N   0  0  0  0  0  0  0  0  0  0  0  0
   37.1800   29.2360   41.4980 C   0  0  0  0  0  0  0  0  0  0  0  0
   38.0180   29.6160   42.4580 N   0  0  0  0  0  0  0  0  0  0  0  0
   32.2108   26.7341   37.2667 H   0  0  0  0  0  0  0  0  0  0  0  0
   32.2948   28.9438   36.5763 H   0  0  0  0  0  0  0  0  0  0  0  0
   33.3280   28.6366   38.0577 H   0  0  0  0  0  0  0  0  0  0  0  0
   34.1022   29.4238   35.2983 H   0  0  0  0  0  0  0  0  0  0  0  0
   34.7655   29.9010   36.9158 H   0  0  0  0  0  0  0  0  0  0  0  0
   35.4046   27.5838   35.1641 H   0  0  0  0  0  0  0  0  0  0  0  0
   36.2759   26.2852   37.0507 H   0  0  0  0  0  0  0  0  0  0  0  0
   35.6234   27.5514   38.1985 H   0  0  0  0  0  0  0  0  0  0  0  0
   33.9548   26.1881   38.4136 H   0  0  0  0  0  0  0  0  0  0  0  0
   33.9097   24.8959   34.7108 H   0  0  0  0  0  0  0  0  0  0  0  0
   34.2646   22.4407   34.5283 H   0  0  0  0  0  0  0  0  0  0  0  0
   34.9182   21.2110   36.9446 H   0  0  0  0  0  0  0  0  0  0  0  0
   37.1836   31.9073   41.1740 H   0  0  0  0  0  0  0  0  0  0  0  0
   37.1458   33.0988   38.9550 H   0  0  0  0  0  0  0  0  0  0  0  0
   37.1100   31.7467   36.8764 H   0  0  0  0  0  0  0  0  0  0  0  0
   38.8177   29.3685   44.3902 H   0  0  0  0  0  0  0  0  0  0  0  0
   37.3234   27.3759   44.8543 H   0  0  0  0  0  0  0  0  0  0  0  0
   35.7135   26.6287   43.0317 H   0  0  0  0  0  0  0  0  0  0  0  0
  1  2  1  0
  1  6  1  0
  3  2  1  0
  4  3  1  0
  4 12  1  0
  4  5  1  0
  5  6  1  0
  7  6  1  0
  7 11  1  0
  8  7  2  0
  9  8  1  0
  9 10  2  0
 10 11  1  0
 12 17  1  0
 13 14  2  0
 13 23  1  0
 15 14  1  0
 16 17  1  0
 16 15  2  0
 17 18  2  0
 18 13  1  0
 19 20  2  0
 21 20  1  0
 22 21  2  0
 23 22  1  0
 23 24  2  0
 24 19  1  0
  1 25  1  0
  2 26  1  0
  2 27  1  0
  3 28  1  0
  3 29  1  0
  4 30  1  6
  5 31  1  0
  5 32  1  0
  6 33  1  1
  8 34  1  0
  9 35  1  0
 10 36  1  0
 14 37  1  0
 15 38  1  0
 16 39  1  0
 19 40  1  0
 20 41  1  0
 21 42  1  0
M  ISO  8  25   5  26  13  27  13  28  13  29  13  30  13  31  13  32  13
M  ISO  8  33  13  34  14  35  14  36  14  37  14  38  14  39  14  40  14
M  ISO  2  41  14  42  14
M  END
>  <minimizedAffinity>  (1) 
-4.67363358

>  <minimizedRMSD>  (1) 
0.462988466

$$$$
