
     RDKit          3D

 36 38  0  0  1  0  0  0  0  0999 V2000
   37.1960   30.0360   40.2550 C   0  0  0  0  0  0  0  0  0  0  0  0
   37.2510   31.4070   40.2830 C   0  0  0  0  0  0  0  0  0  0  0  0
   37.2490   32.0810   39.0680 C   0  0  0  0  0  0  0  0  0  0  0  0
   37.1920   31.3490   37.8860 C   0  0  0  0  0  0  0  0  0  0  0  0
   37.1370   29.9800   37.8890 C   0  0  0  0  0  0  0  0  0  0  0  0
   37.1400   29.3570   39.0700 N   0  0  0  0  0  0  0  0  0  0  0  0
   38.0920   28.9980   43.6380 C   0  0  0  0  0  0  0  0  0  0  0  0
   37.2620   27.8910   43.8670 C   0  0  0  0  0  0  0  0  0  0  0  0
   36.3820   27.5000   42.8360 C   0  0  0  0  0  0  0  0  0  0  0  0
   36.3980   28.2240   41.6890 N   0  0  0  0  0  0  0  0  0  0  0  0
   37.1940   29.2670   41.5020 C   0  0  0  0  0  0  0  0  0  0  0  0
   38.0300   29.6420   42.4760 N   0  0  0  0  0  0  0  0  0  0  0  0
   37.0650   29.0870   36.3370 S   0  0  0  0  0  0  0  0  0  0  0  0
   33.1170   27.0760   36.8570 N   0  0  0  0  0  0  0  0  0  0  0  0
   33.2770   28.4160   37.3530 C   0  0  0  0  0  0  0  0  0  0  0  0
   34.3890   29.1650   36.6660 C   0  0  0  0  0  0  0  0  0  0  0  0
   35.4760   28.2520   36.1580 C   0  0  2  0  0  0  0  0  0  0  0  0
   35.5650   26.9820   36.9740 C   0  0  0  0  0  0  0  0  0  0  0  0
   34.2710   26.2340   37.0540 C   0  0  2  0  0  0  0  0  0  0  0  0
   34.2010   24.9240   35.7760 S   0  0  0  0  0  0  0  0  0  0  0  0
   37.2952   31.9544   41.2361 H   0  0  0  0  0  0  0  0  0  0  0  0
   37.2920   33.1798   39.0408 H   0  0  0  0  0  0  0  0  0  0  0  0
   37.1911   31.8832   36.9244 H   0  0  0  0  0  0  0  0  0  0  0  0
   38.7924   29.3327   44.4174 H   0  0  0  0  0  0  0  0  0  0  0  0
   37.2961   27.3445   44.8210 H   0  0  0  0  0  0  0  0  0  0  0  0
   35.7076   26.6396   42.9578 H   0  0  0  0  0  0  0  0  0  0  0  0
   32.9217   27.1261   35.8469 H   0  0  0  0  0  0  0  0  0  0  0  0
   32.3357   28.9633   37.1964 H   0  0  0  0  0  0  0  0  0  0  0  0
   33.5358   28.3451   38.4198 H   0  0  0  0  0  0  0  0  0  0  0  0
   33.9671   29.7184   35.8141 H   0  0  0  0  0  0  0  0  0  0  0  0
   34.8413   29.8419   37.4058 H   0  0  0  0  0  0  0  0  0  0  0  0
   35.2414   28.0069   35.1116 H   0  0  0  0  0  0  0  0  0  0  0  0
   36.3193   26.3255   36.5158 H   0  0  0  0  0  0  0  0  0  0  0  0
   35.8350   27.2737   37.9997 H   0  0  0  0  0  0  0  0  0  0  0  0
   34.2412   25.8126   38.0697 H   0  0  0  0  0  0  0  0  0  0  0  0
   34.1355   23.6973   36.3825 H   0  0  0  0  0  0  0  0  0  0  0  0
  1  2  2  0
  1 11  1  0
  3  2  1  0
  4  5  1  0
  4  3  2  0
  5  6  2  0
  6  1  1  0
  7  8  2  0
  9  8  1  0
 10  9  2  0
 11 10  1  0
 11 12  2  0
 12  7  1  0
 13  5  1  0
 14 19  1  0
 14 15  1  0
 16 15  1  0
 17 13  1  0
 17 16  1  0
 17 18  1  0
 18 19  1  0
 20 19  1  0
  2 21  1  0
  3 22  1  0
  4 23  1  0
  7 24  1  0
  8 25  1  0
  9 26  1  0
 14 27  1  0
 15 28  1  0
 15 29  1  0
 16 30  1  0
 16 31  1  0
 17 32  1  6
 18 33  1  0
 18 34  1  0
 19 35  1  1
 20 36  1  0
M  ISO  8  21  14  22  14  23  14  24  14  25  14  26  14  27   5  28  13
M  ISO  8  29  13  30  13  31  13  32  13  33  13  34  13  35  13  36  11
M  END
>  <minimizedAffinity>  (1) 
-4.58296585

>  <minimizedRMSD>  (1) 
0.02787048

$$$$
