
     RDKit          3D

 41 44  0  0  1  0  0  0  0  0999 V2000
   33.3490   26.9680   36.9670 N   0  0  0  0  0  0  0  0  0  0  0  0
   33.3920   28.3320   37.4410 C   0  0  0  0  0  0  0  0  0  0  0  0
   34.4450   29.1760   36.7630 C   0  0  0  0  0  0  0  0  0  0  0  0
   35.6020   28.3450   36.2770 C   0  0  2  0  0  0  0  0  0  0  0  0
   35.7980   27.1060   37.0990 C   0  0  0  0  0  0  0  0  0  0  0  0
   34.5780   26.2370   37.2020 C   0  0  2  0  0  0  0  0  0  0  0  0
   34.6260   25.1120   36.2890 N   0  0  0  0  0  0  0  0  0  0  0  0
   34.1040   25.1260   35.0490 C   0  0  0  0  0  0  0  0  0  0  0  0
   34.3040   23.9400   34.4460 N   0  0  0  0  0  0  0  0  0  0  0  0
   34.9650   23.1770   35.3360 C   0  0  0  0  0  0  0  0  0  0  0  0
   35.1530   23.9100   36.4560 N   0  0  0  0  0  0  0  0  0  0  0  0
   37.1210   29.3170   36.4690 S   0  0  0  0  0  0  0  0  0  0  0  0
   37.1650   30.1220   40.4130 C   0  0  0  0  0  0  0  0  0  0  0  0
   37.1770   31.4900   40.5030 C   0  0  0  0  0  0  0  0  0  0  0  0
   37.1690   32.2110   39.3170 C   0  0  0  0  0  0  0  0  0  0  0  0
   37.1530   31.5220   38.1050 C   0  0  0  0  0  0  0  0  0  0  0  0
   37.1430   30.1450   38.0480 C   0  0  0  0  0  0  0  0  0  0  0  0
   37.1490   29.4730   39.2050 N   0  0  0  0  0  0  0  0  0  0  0  0
   38.1030   28.9240   43.7440 C   0  0  0  0  0  0  0  0  0  0  0  0
   37.2550   27.8190   43.9360 C   0  0  0  0  0  0  0  0  0  0  0  0
   36.3590   27.4910   42.9100 C   0  0  0  0  0  0  0  0  0  0  0  0
   36.3640   28.2520   41.8040 N   0  0  0  0  0  0  0  0  0  0  0  0
   37.1710   29.2950   41.6350 C   0  0  0  0  0  0  0  0  0  0  0  0
   38.0170   29.6040   42.6030 N   0  0  0  0  0  0  0  0  0  0  0  0
   33.1654   26.9804   35.9536 H   0  0  0  0  0  0  0  0  0  0  0  0
   32.4093   28.7930   37.2628 H   0  0  0  0  0  0  0  0  0  0  0  0
   33.6491   28.2936   38.5098 H   0  0  0  0  0  0  0  0  0  0  0  0
   33.9900   29.6897   35.9033 H   0  0  0  0  0  0  0  0  0  0  0  0
   34.8289   29.8984   37.4984 H   0  0  0  0  0  0  0  0  0  0  0  0
   35.3891   28.0655   35.2346 H   0  0  0  0  0  0  0  0  0  0  0  0
   36.6058   26.5141   36.6439 H   0  0  0  0  0  0  0  0  0  0  0  0
   36.0368   27.4383   38.1201 H   0  0  0  0  0  0  0  0  0  0  0  0
   34.5809   25.8672   38.2380 H   0  0  0  0  0  0  0  0  0  0  0  0
   33.5878   25.9840   34.5936 H   0  0  0  0  0  0  0  0  0  0  0  0
   35.2944   22.1392   35.1795 H   0  0  0  0  0  0  0  0  0  0  0  0
   37.1924   31.9973   41.4789 H   0  0  0  0  0  0  0  0  0  0  0  0
   37.1752   33.3109   39.3331 H   0  0  0  0  0  0  0  0  0  0  0  0
   37.1482   32.0948   37.1659 H   0  0  0  0  0  0  0  0  0  0  0  0
   38.8229   29.2205   44.5210 H   0  0  0  0  0  0  0  0  0  0  0  0
   37.2939   27.2297   44.8640 H   0  0  0  0  0  0  0  0  0  0  0  0
   35.6729   26.6367   43.0076 H   0  0  0  0  0  0  0  0  0  0  0  0
  1  6  1  0
  1  2  1  0
  3  2  1  0
  4 12  1  0
  4  3  1  0
  4  5  1  0
  5  6  1  0
  7 11  1  0
  7  6  1  0
  8  7  1  0
  9  8  2  0
  9 10  1  0
 10 11  2  0
 12 17  1  0
 13 14  2  0
 13 23  1  0
 15 14  1  0
 16 15  2  0
 17 16  1  0
 17 18  2  0
 18 13  1  0
 19 20  2  0
 21 20  1  0
 22 21  2  0
 23 22  1  0
 23 24  2  0
 24 19  1  0
  1 25  1  0
  2 26  1  0
  2 27  1  0
  3 28  1  0
  3 29  1  0
  4 30  1  6
  5 31  1  0
  5 32  1  0
  6 33  1  1
  8 34  1  0
 10 35  1  0
 14 36  1  0
 15 37  1  0
 16 38  1  0
 19 39  1  0
 20 40  1  0
 21 41  1  0
M  ISO  8  25   5  26  13  27  13  28  13  29  13  30  13  31  13  32  13
M  ISO  8  33  13  34  14  35  14  36  14  37  14  38  14  39  14  40  14
M  ISO  1  41  14
M  END
>  <minimizedAffinity>  (1) 
-4.56651974

>  <minimizedRMSD>  (1) 
0.41774866

$$$$
