
     RDKit          3D

 37 39  0  0  1  0  0  0  0  0999 V2000
   37.0740   29.1160   36.3330 S   0  0  0  0  0  0  0  0  0  0  0  0
   33.1610   27.0390   36.8830 N   0  0  0  0  0  0  0  0  0  0  0  0
   33.2940   28.3910   37.3390 C   0  0  0  0  0  0  0  0  0  0  0  0
   34.3970   29.1620   36.6360 C   0  0  0  0  0  0  0  0  0  0  0  0
   35.4950   28.2480   36.1760 C   0  0  2  0  0  0  0  0  0  0  0  0
   35.6080   27.0070   37.0390 C   0  0  0  0  0  0  0  0  0  0  0  0
   34.3330   26.2430   37.1630 C   0  0  2  0  0  0  0  0  0  0  0  0
   34.3110   24.9690   36.4160 C   0  0  0  0  0  0  0  0  0  0  0  0
   33.8400   23.9680   36.9730 O   0  0  0  0  0  0  0  0  0  0  0  0
   37.2050   30.0550   40.2420 C   0  0  0  0  0  0  0  0  0  0  0  0
   37.2610   31.4310   40.2820 C   0  0  0  0  0  0  0  0  0  0  0  0
   37.2590   32.1120   39.0730 C   0  0  0  0  0  0  0  0  0  0  0  0
   37.2010   31.3670   37.8880 C   0  0  0  0  0  0  0  0  0  0  0  0
   37.1460   29.9980   37.8810 C   0  0  0  0  0  0  0  0  0  0  0  0
   37.1500   29.3740   39.0650 N   0  0  0  0  0  0  0  0  0  0  0  0
   38.0860   28.9970   43.6320 C   0  0  0  0  0  0  0  0  0  0  0  0
   37.2560   27.8900   43.8640 C   0  0  0  0  0  0  0  0  0  0  0  0
   36.3850   27.5130   42.8280 C   0  0  0  0  0  0  0  0  0  0  0  0
   36.4080   28.2430   41.6840 N   0  0  0  0  0  0  0  0  0  0  0  0
   37.2050   29.2850   41.4960 C   0  0  0  0  0  0  0  0  0  0  0  0
   38.0330   29.6500   42.4680 N   0  0  0  0  0  0  0  0  0  0  0  0
   33.0031   27.0477   35.8652 H   0  0  0  0  0  0  0  0  0  0  0  0
   32.3407   28.9119   37.1664 H   0  0  0  0  0  0  0  0  0  0  0  0
   33.5589   28.3479   38.4057 H   0  0  0  0  0  0  0  0  0  0  0  0
   33.9721   29.6790   35.7630 H   0  0  0  0  0  0  0  0  0  0  0  0
   34.8228   29.8846   37.3478 H   0  0  0  0  0  0  0  0  0  0  0  0
   35.2627   27.9575   35.1408 H   0  0  0  0  0  0  0  0  0  0  0  0
   36.3675   26.3452   36.5973 H   0  0  0  0  0  0  0  0  0  0  0  0
   35.8801   27.3433   38.0504 H   0  0  0  0  0  0  0  0  0  0  0  0
   34.2944   25.9698   38.2278 H   0  0  0  0  0  0  0  0  0  0  0  0
   34.7033   24.9106   35.3900 H   0  0  0  0  0  0  0  0  0  0  0  0
   37.3057   31.9711   41.2392 H   0  0  0  0  0  0  0  0  0  0  0  0
   37.3019   33.2108   39.0457 H   0  0  0  0  0  0  0  0  0  0  0  0
   37.1996   31.9015   36.9266 H   0  0  0  0  0  0  0  0  0  0  0  0
   38.7849   29.3293   44.4137 H   0  0  0  0  0  0  0  0  0  0  0  0
   37.2859   27.3406   44.8165 H   0  0  0  0  0  0  0  0  0  0  0  0
   35.7067   26.6544   42.9404 H   0  0  0  0  0  0  0  0  0  0  0  0
  1 14  1  0
  2  7  1  0
  2  3  1  0
  4  3  1  0
  5  1  1  0
  5  4  1  0
  5  6  1  0
  6  7  1  0
  8  9  2  0
  8  7  1  0
 10 11  2  0
 10 20  1  0
 12 11  1  0
 13 12  2  0
 14 13  1  0
 14 15  2  0
 15 10  1  0
 16 17  2  0
 18 17  1  0
 19 18  2  0
 20 19  1  0
 20 21  2  0
 21 16  1  0
  2 22  1  0
  3 23  1  0
  3 24  1  0
  4 25  1  0
  4 26  1  0
  5 27  1  6
  6 28  1  0
  6 29  1  0
  7 30  1  1
  8 31  1  0
 11 32  1  0
 12 33  1  0
 13 34  1  0
 16 35  1  0
 17 36  1  0
 18 37  1  0
M  ISO  8  22   5  23  13  24  13  25  13  26  13  27  13  28  13  29  13
M  ISO  8  30  13  31   6  32  14  33  14  34  14  35  14  36  14  37  14
M  END
>  <minimizedAffinity>  (1) 
-4.45017195

>  <minimizedRMSD>  (1) 
0.0765777156

$$$$
