
     RDKit          3D

 32 34  0  0  0  0  0  0  0  0999 V2000
   36.8160   27.2750   39.8540 C   0  0  0  0  0  0  0  0  0  0  0  0
   36.9570   26.3390   40.8890 C   0  0  0  0  0  0  0  0  0  0  0  0
   36.7610   24.9780   40.5500 C   0  0  0  0  0  0  0  0  0  0  0  0
   36.4500   24.6680   39.2560 N   0  0  0  0  0  0  0  0  0  0  0  0
   36.3260   25.6140   38.2960 C   0  0  0  0  0  0  0  0  0  0  0  0
   36.5120   26.9140   38.6080 N   0  0  0  0  0  0  0  0  0  0  0  0
   36.9980   28.6540   40.1440 N   0  0  0  0  0  0  0  0  0  0  0  0
   36.5920   29.3920   39.0670 C   0  0  0  0  0  0  0  0  0  0  0  0
   36.6660   30.7880   39.0850 C   0  0  0  0  0  0  0  0  0  0  0  0
   37.1640   31.3920   40.2290 C   0  0  0  0  0  0  0  0  0  0  0  0
   37.2710   32.6350   40.3450 O   0  0  0  0  0  0  0  0  0  0  0  0
   37.5440   30.6290   41.2440 N   0  0  0  0  0  0  0  0  0  0  0  0
   37.4730   29.2900   41.2310 C   0  0  0  0  0  0  0  0  0  0  0  0
   37.8010   28.4700   42.1270 O   0  0  0  0  0  0  0  0  0  0  0  0
   37.2760   26.6450   42.2080 N   0  0  0  0  0  0  0  0  0  0  0  0
   36.4240   27.2220   43.2280 C   0  0  0  0  0  0  0  0  0  0  0  0
   37.3670   28.0940   44.0450 C   0  0  0  0  0  0  0  0  0  0  0  0
   38.7530   27.7520   43.5700 C   0  0  0  0  0  0  0  0  0  0  0  0
   38.5530   26.4460   42.8620 C   0  0  0  0  0  0  0  0  0  0  0  0
   36.8569   24.1890   41.3105 H   0  0  0  0  0  0  0  0  0  0  0  0
   36.0745   25.3244   37.2650 H   0  0  0  0  0  0  0  0  0  0  0  0
   36.2020   28.8806   38.1746 H   0  0  0  0  0  0  0  0  0  0  0  0
   36.3403   31.3863   38.2213 H   0  0  0  0  0  0  0  0  0  0  0  0
   37.9137   31.0893   42.0880 H   0  0  0  0  0  0  0  0  0  0  0  0
   35.6258   27.8277   42.7741 H   0  0  0  0  0  0  0  0  0  0  0  0
   35.9173   26.4594   43.8377 H   0  0  0  0  0  0  0  0  0  0  0  0
   37.1534   29.1587   43.8696 H   0  0  0  0  0  0  0  0  0  0  0  0
   37.2523   27.9151   45.1243 H   0  0  0  0  0  0  0  0  0  0  0  0
   39.1362   28.5202   42.8822 H   0  0  0  0  0  0  0  0  0  0  0  0
   39.4894   27.6953   44.3852 H   0  0  0  0  0  0  0  0  0  0  0  0
   38.5102   25.6087   43.5741 H   0  0  0  0  0  0  0  0  0  0  0  0
   39.3685   26.1896   42.1697 H   0  0  0  0  0  0  0  0  0  0  0  0
  1  7  1  0
  1  2  1  0
  2 15  1  0
  3  2  2  0
  4  3  1  0
  5  6  1  0
  5  4  2  0
  6  1  2  0
  7 13  1  0
  8  9  2  0
  8  7  1  0
  9 10  1  0
 10 11  2  0
 10 12  1  0
 13 12  1  0
 13 14  2  0
 15 19  1  0
 15 16  1  0
 16 17  1  0
 18 17  1  0
 19 18  1  0
  3 20  1  0
  5 21  1  0
  8 22  1  0
  9 23  1  0
 12 24  1  0
 16 25  1  0
 16 26  1  0
 17 27  1  0
 17 28  1  0
 18 29  1  0
 18 30  1  0
 19 31  1  0
 19 32  1  0
M  ISO  8  20  14  21  14  22  14  23  14  24   9  25  13  26  13  27  13
M  ISO  5  28  13  29  13  30  13  31  13  32  13
M  END
>  <minimizedAffinity>  (1) 
-5.10063648

>  <minimizedRMSD>  (1) 
3.68596911

$$$$
