
     RDKit          3D

 38 40  0  0  0  0  0  0  0  0999 V2000
   37.7720   28.8250   43.8160 C   0  0  0  0  0  0  0  0  0  0  0  0
   37.1190   27.5650   43.8690 C   0  0  0  0  0  0  0  0  0  0  0  0
   36.5500   27.0660   42.7000 C   0  0  0  0  0  0  0  0  0  0  0  0
   36.6500   27.8160   41.5670 N   0  0  0  0  0  0  0  0  0  0  0  0
   37.2830   29.0190   41.5510 C   0  0  0  0  0  0  0  0  0  0  0  0
   37.8390   29.5200   42.6640 N   0  0  0  0  0  0  0  0  0  0  0  0
   37.3270   29.7170   40.3070 N   0  0  0  0  0  0  0  0  0  0  0  0
   36.7220   29.2400   39.2140 C   0  0  0  0  0  0  0  0  0  0  0  0
   36.8550   30.0300   38.0870 C   0  0  0  0  0  0  0  0  0  0  0  0
   37.5500   31.2240   38.0520 C   0  0  0  0  0  0  0  0  0  0  0  0
   37.6370   31.8980   37.0010 O   0  0  0  0  0  0  0  0  0  0  0  0
   38.1430   31.6540   39.2010 N   0  0  0  0  0  0  0  0  0  0  0  0
   38.0110   30.8780   40.3040 C   0  0  0  0  0  0  0  0  0  0  0  0
   38.5860   31.3290   41.3490 O   0  0  0  0  0  0  0  0  0  0  0  0
   40.6450   34.8840   40.3650 N   0  0  0  0  0  0  0  0  0  0  0  0
   39.2310   35.0990   40.1990 C   0  0  0  0  0  0  0  0  0  0  0  0
   38.4170   33.8160   40.3710 C   0  0  0  0  0  0  0  0  0  0  0  0
   38.8880   32.9000   39.2340 C   0  0  0  0  0  0  0  0  0  0  0  0
   40.3650   32.7590   39.2350 C   0  0  0  0  0  0  0  0  0  0  0  0
   40.9890   33.4770   40.4390 C   0  0  0  0  0  0  0  0  0  0  0  0
   36.2280   29.6010   36.8220 C   0  0  0  0  0  0  0  0  0  0  0  0
   38.2288   29.2386   44.7271 H   0  0  0  0  0  0  0  0  0  0  0  0
   37.0640   26.9975   44.8097 H   0  0  0  0  0  0  0  0  0  0  0  0
   36.0346   26.0942   42.6916 H   0  0  0  0  0  0  0  0  0  0  0  0
   36.1622   28.2931   39.2117 H   0  0  0  0  0  0  0  0  0  0  0  0
   40.9490   35.3444   41.2348 H   0  0  0  0  0  0  0  0  0  0  0  0
   38.8958   35.8319   40.9476 H   0  0  0  0  0  0  0  0  0  0  0  0
   39.0673   35.4625   39.1738 H   0  0  0  0  0  0  0  0  0  0  0  0
   38.6204   33.3559   41.3492 H   0  0  0  0  0  0  0  0  0  0  0  0
   37.3336   34.0025   40.3332 H   0  0  0  0  0  0  0  0  0  0  0  0
   38.6531   33.3768   38.2710 H   0  0  0  0  0  0  0  0  0  0  0  0
   40.6236   31.6908   39.2804 H   0  0  0  0  0  0  0  0  0  0  0  0
   40.7595   33.2142   38.3146 H   0  0  0  0  0  0  0  0  0  0  0  0
   42.0826   33.3606   40.4145 H   0  0  0  0  0  0  0  0  0  0  0  0
   40.6067   33.0444   41.3753 H   0  0  0  0  0  0  0  0  0  0  0  0
   35.3384   28.9924   37.0416 H   0  0  0  0  0  0  0  0  0  0  0  0
   35.9319   30.4867   36.2407 H   0  0  0  0  0  0  0  0  0  0  0  0
   36.9462   29.0042   36.2407 H   0  0  0  0  0  0  0  0  0  0  0  0
  1  2  2  0
  3  2  1  0
  4  3  2  0
  5  4  1  0
  5  6  2  0
  6  1  1  0
  7  5  1  0
  8  7  1  0
  9  8  2  0
 10  9  1  0
 10 12  1  0
 11 10  2  0
 12 18  1  0
 12 13  1  0
 13  7  1  0
 13 14  2  0
 15 20  1  0
 16 15  1  0
 16 17  1  0
 18 19  1  0
 18 17  1  0
 19 20  1  0
 21  9  1  0
  1 22  1  0
  2 23  1  0
  3 24  1  0
  8 25  1  0
 15 26  1  0
 16 27  1  0
 16 28  1  0
 17 29  1  0
 17 30  1  0
 18 31  1  0
 19 32  1  0
 19 33  1  0
 20 34  1  0
 20 35  1  0
 21 36  1  0
 21 37  1  0
 21 38  1  0
M  ISO  8  22  14  23  14  24  14  25  14  26   5  27  13  28  13  29  13
M  ISO  8  30  13  31  13  32  13  33  13  34  13  35  13  36   8  37   8
M  ISO  1  38   8
M  END
>  <minimizedAffinity>  (1) 
-5.88367558

>  <minimizedRMSD>  (1) 
3.18155193

$$$$
