
     RDKit          3D

 36 38  0  0  0  0  0  0  0  0999 V2000
   38.7140   28.1500   40.0090 C   0  0  0  0  0  0  0  0  0  0  0  0
   39.0000   27.2310   41.0200 C   0  0  0  0  0  0  0  0  0  0  0  0
   40.0700   26.3630   40.7690 C   0  0  0  0  0  0  0  0  0  0  0  0
   40.7360   26.4740   39.5840 N   0  0  0  0  0  0  0  0  0  0  0  0
   40.4270   27.3700   38.6430 C   0  0  0  0  0  0  0  0  0  0  0  0
   39.3900   28.2240   38.8670 N   0  0  0  0  0  0  0  0  0  0  0  0
   37.6890   29.1260   40.0690 N   0  0  0  0  0  0  0  0  0  0  0  0
   36.4410   29.4530   40.7300 C   0  0  0  0  0  0  0  0  0  0  0  0
   36.6670   30.8490   41.3340 C   0  0  0  0  0  0  0  0  0  0  0  0
   36.4900   31.7740   40.2270 N   0  0  0  0  0  0  0  0  0  0  0  0
   36.8750   31.1890   38.9670 C   0  0  0  0  0  0  0  0  0  0  0  0
   37.9860   30.1920   39.1260 C   0  0  0  0  0  0  0  0  0  0  0  0
   38.3090   27.1250   42.2230 N   0  0  0  0  0  0  0  0  0  0  0  0
   37.0630   26.4040   42.4580 C   0  0  0  0  0  0  0  0  0  0  0  0
   36.3850   27.1940   43.5520 C   0  0  0  0  0  0  0  0  0  0  0  0
   37.3530   28.2810   43.9470 C   0  0  0  0  0  0  0  0  0  0  0  0
   38.6650   27.6740   43.4930 C   0  0  0  0  0  0  0  0  0  0  0  0
   40.3669   25.6079   41.5117 H   0  0  0  0  0  0  0  0  0  0  0  0
   40.9993   27.4173   37.7048 H   0  0  0  0  0  0  0  0  0  0  0  0
   35.6134   29.4741   40.0057 H   0  0  0  0  0  0  0  0  0  0  0  0
   36.1703   28.7099   41.4946 H   0  0  0  0  0  0  0  0  0  0  0  0
   35.9315   31.0504   42.1268 H   0  0  0  0  0  0  0  0  0  0  0  0
   37.6617   30.9427   41.7942 H   0  0  0  0  0  0  0  0  0  0  0  0
   35.4981   32.0472   40.1774 H   0  0  0  0  0  0  0  0  0  0  0  0
   37.2104   31.9897   38.2914 H   0  0  0  0  0  0  0  0  0  0  0  0
   36.0014   30.6616   38.5562 H   0  0  0  0  0  0  0  0  0  0  0  0
   38.1888   29.7395   38.1441 H   0  0  0  0  0  0  0  0  0  0  0  0
   38.8525   30.7397   39.5250 H   0  0  0  0  0  0  0  0  0  0  0  0
   36.4446   26.3852   41.5485 H   0  0  0  0  0  0  0  0  0  0  0  0
   37.2280   25.3523   42.7350 H   0  0  0  0  0  0  0  0  0  0  0  0
   35.4481   27.6343   43.1800 H   0  0  0  0  0  0  0  0  0  0  0  0
   36.1290   26.5539   44.4092 H   0  0  0  0  0  0  0  0  0  0  0  0
   37.1398   29.2233   43.4210 H   0  0  0  0  0  0  0  0  0  0  0  0
   37.3221   28.5523   45.0126 H   0  0  0  0  0  0  0  0  0  0  0  0
   39.0053   26.8910   44.1866 H   0  0  0  0  0  0  0  0  0  0  0  0
   39.4970   28.3923   43.4504 H   0  0  0  0  0  0  0  0  0  0  0  0
  1  7  1  0
  1  2  1  0
  2 13  1  0
  3  2  2  0
  4  3  1  0
  5  6  1  0
  5  4  2  0
  6  1  2  0
  7  8  1  0
  8  9  1  0
 10  9  1  0
 11 12  1  0
 11 10  1  0
 12  7  1  0
 13 14  1  0
 13 17  1  0
 14 15  1  0
 15 16  1  0
 17 16  1  0
  3 18  1  0
  5 19  1  0
  8 20  1  0
  8 21  1  0
  9 22  1  0
  9 23  1  0
 10 24  1  0
 11 25  1  0
 11 26  1  0
 12 27  1  0
 12 28  1  0
 14 29  1  0
 14 30  1  0
 15 31  1  0
 15 32  1  0
 16 33  1  0
 16 34  1  0
 17 35  1  0
 17 36  1  0
M  ISO  8  18  14  19  14  20  13  21  13  22  13  23  13  24   5  25  13
M  ISO  8  26  13  27  13  28  13  29  13  30  13  31  13  32  13  33  13
M  ISO  3  34  13  35  13  36  13
M  END
>  <minimizedAffinity>  (1) 
-4.56649494

>  <minimizedRMSD>  (1) 
3.80413103

$$$$
