
     RDKit          3D

 32 34  0  0  0  0  0  0  0  0999 V2000
   36.7090   27.5710   39.8510 C   0  0  0  0  0  0  0  0  0  0  0  0
   36.9140   26.5770   40.8130 C   0  0  0  0  0  0  0  0  0  0  0  0
   36.7470   25.2290   40.4020 C   0  0  0  0  0  0  0  0  0  0  0  0
   36.4020   24.9790   39.1070 N   0  0  0  0  0  0  0  0  0  0  0  0
   36.2170   25.9730   38.2150 C   0  0  0  0  0  0  0  0  0  0  0  0
   36.3710   27.2730   38.5910 N   0  0  0  0  0  0  0  0  0  0  0  0
   37.2880   26.8210   42.1330 N   0  0  0  0  0  0  0  0  0  0  0  0
   36.4270   27.1330   43.2590 C   0  0  0  0  0  0  0  0  0  0  0  0
   37.2840   28.0300   44.1280 C   0  0  0  0  0  0  0  0  0  0  0  0
   38.6640   27.9830   43.5400 C   0  0  0  0  0  0  0  0  0  0  0  0
   38.6480   26.7890   42.6540 C   0  0  0  0  0  0  0  0  0  0  0  0
   36.8100   29.0010   40.0440 C   0  0  0  0  0  0  0  0  0  0  0  0
   36.0060   29.8370   40.7850 C   0  0  0  0  0  0  0  0  0  0  0  0
   36.2190   31.1940   40.8840 C   0  0  0  0  0  0  0  0  0  0  0  0
   37.2740   31.7970   40.2330 C   0  0  0  0  0  0  0  0  0  0  0  0
   38.1150   31.0400   39.4800 C   0  0  0  0  0  0  0  0  0  0  0  0
   37.8580   29.6880   39.4120 C   0  0  0  0  0  0  0  0  0  0  0  0
   36.8929   24.4030   41.1136 H   0  0  0  0  0  0  0  0  0  0  0  0
   35.9402   25.7327   37.1779 H   0  0  0  0  0  0  0  0  0  0  0  0
   35.5205   27.6595   42.9257 H   0  0  0  0  0  0  0  0  0  0  0  0
   36.0757   26.2353   43.7888 H   0  0  0  0  0  0  0  0  0  0  0  0
   36.8971   29.0596   44.1124 H   0  0  0  0  0  0  0  0  0  0  0  0
   37.2819   27.6958   45.1760 H   0  0  0  0  0  0  0  0  0  0  0  0
   38.8715   28.8948   42.9607 H   0  0  0  0  0  0  0  0  0  0  0  0
   39.4464   27.9226   44.3109 H   0  0  0  0  0  0  0  0  0  0  0  0
   38.8374   25.8664   43.2222 H   0  0  0  0  0  0  0  0  0  0  0  0
   39.4236   26.8033   41.8741 H   0  0  0  0  0  0  0  0  0  0  0  0
   35.1523   29.4003   41.3240 H   0  0  0  0  0  0  0  0  0  0  0  0
   35.5367   31.8062   41.4920 H   0  0  0  0  0  0  0  0  0  0  0  0
   37.4338   32.8817   40.3222 H   0  0  0  0  0  0  0  0  0  0  0  0
   38.9661   31.4884   38.9466 H   0  0  0  0  0  0  0  0  0  0  0  0
   38.5447   29.0853   38.7995 H   0  0  0  0  0  0  0  0  0  0  0  0
  1 12  1  0
  1  2  1  0
  2  7  1  0
  3  2  2  0
  4  3  1  0
  5  6  1  0
  5  4  2  0
  6  1  2  0
  7 11  1  0
  7  8  1  0
  8  9  1  0
 10  9  1  0
 11 10  1  0
 12 13  2  0
 13 14  1  0
 15 14  2  0
 16 15  1  0
 17 16  2  0
 17 12  1  0
  3 18  1  0
  5 19  1  0
  8 20  1  0
  8 21  1  0
  9 22  1  0
  9 23  1  0
 10 24  1  0
 10 25  1  0
 11 26  1  0
 11 27  1  0
 13 28  1  0
 14 29  1  0
 15 30  1  0
 16 31  1  0
 17 32  1  0
M  ISO  8  18  14  19  14  20  13  21  13  22  13  23  13  24  13  25  13
M  ISO  7  26  13  27  13  28  14  29  14  30  14  31  14  32  14
M  END
>  <minimizedAffinity>  (1) 
-4.56189299

>  <minimizedRMSD>  (1) 
3.4869709

$$$$
