
     RDKit          3D

 35 37  0  0  0  0  0  0  0  0999 V2000
   37.0080   27.4620   40.7690 C   0  0  0  0  0  0  0  0  0  0  0  0
   37.4110   28.4200   41.7030 C   0  0  0  0  0  0  0  0  0  0  0  0
   36.7430   29.6470   41.6420 C   0  0  0  0  0  0  0  0  0  0  0  0
   35.7790   29.8240   40.7120 N   0  0  0  0  0  0  0  0  0  0  0  0
   35.4200   28.8810   39.8330 C   0  0  0  0  0  0  0  0  0  0  0  0
   36.0540   27.6740   39.8690 N   0  0  0  0  0  0  0  0  0  0  0  0
   37.5320   26.1530   40.6490 N   0  0  0  0  0  0  0  0  0  0  0  0
   38.6910   25.3390   40.9600 C   0  0  0  0  0  0  0  0  0  0  0  0
   38.1180   24.1550   41.7590 C   0  0  0  0  0  0  0  0  0  0  0  0
   37.5400   23.2770   40.8450 O   0  0  0  0  0  0  0  0  0  0  0  0
   37.1220   23.9210   39.6900 C   0  0  0  0  0  0  0  0  0  0  0  0
   36.5570   25.2990   39.9510 C   0  0  0  0  0  0  0  0  0  0  0  0
   38.4010   28.2130   42.6550 N   0  0  0  0  0  0  0  0  0  0  0  0
   39.8020   28.5880   42.5650 C   0  0  0  0  0  0  0  0  0  0  0  0
   40.5250   27.5490   43.3910 C   0  0  0  0  0  0  0  0  0  0  0  0
   39.4530   26.6580   43.9730 C   0  0  0  0  0  0  0  0  0  0  0  0
   38.2700   27.6050   43.9420 C   0  0  0  0  0  0  0  0  0  0  0  0
   36.9988   30.4567   42.3413 H   0  0  0  0  0  0  0  0  0  0  0  0
   34.6280   29.0758   39.0949 H   0  0  0  0  0  0  0  0  0  0  0  0
   39.1796   24.9881   40.0391 H   0  0  0  0  0  0  0  0  0  0  0  0
   39.4573   25.8941   41.5210 H   0  0  0  0  0  0  0  0  0  0  0  0
   38.9239   23.6478   42.3097 H   0  0  0  0  0  0  0  0  0  0  0  0
   37.3719   24.5032   42.4885 H   0  0  0  0  0  0  0  0  0  0  0  0
   36.3444   23.3089   39.2097 H   0  0  0  0  0  0  0  0  0  0  0  0
   38.0048   24.0450   39.0456 H   0  0  0  0  0  0  0  0  0  0  0  0
   36.2941   25.7664   38.9906 H   0  0  0  0  0  0  0  0  0  0  0  0
   35.6672   25.1945   40.5892 H   0  0  0  0  0  0  0  0  0  0  0  0
   40.1452   28.5620   41.5202 H   0  0  0  0  0  0  0  0  0  0  0  0
   39.9854   29.6110   42.9253 H   0  0  0  0  0  0  0  0  0  0  0  0
   41.2060   26.9628   42.7565 H   0  0  0  0  0  0  0  0  0  0  0  0
   41.1335   28.0146   44.1803 H   0  0  0  0  0  0  0  0  0  0  0  0
   39.2794   25.7689   43.3491 H   0  0  0  0  0  0  0  0  0  0  0  0
   39.6861   26.2437   44.9650 H   0  0  0  0  0  0  0  0  0  0  0  0
   38.3377   28.3536   44.7451 H   0  0  0  0  0  0  0  0  0  0  0  0
   37.3020   27.1062   44.0973 H   0  0  0  0  0  0  0  0  0  0  0  0
  1  2  1  0
  2 13  1  0
  3  2  2  0
  4  3  1  0
  5  6  1  0
  5  4  2  0
  6  1  2  0
  7  1  1  0
  7  8  1  0
  8  9  1  0
 10  9  1  0
 11 12  1  0
 11 10  1  0
 12  7  1  0
 13 17  1  0
 14 13  1  0
 14 15  1  0
 15 16  1  0
 17 16  1  0
  3 18  1  0
  5 19  1  0
  8 20  1  0
  8 21  1  0
  9 22  1  0
  9 23  1  0
 11 24  1  0
 11 25  1  0
 12 26  1  0
 12 27  1  0
 14 28  1  0
 14 29  1  0
 15 30  1  0
 15 31  1  0
 16 32  1  0
 16 33  1  0
 17 34  1  0
 17 35  1  0
M  ISO  8  18  14  19  14  20  13  21  13  22  13  23  13  24  13  25  13
M  ISO  8  26  13  27  13  28  13  29  13  30  13  31  13  32  13  33  13
M  ISO  2  34  13  35  13
M  END
>  <minimizedAffinity>  (1) 
-4.36679029

>  <minimizedRMSD>  (1) 
4.91095209

$$$$
