
     RDKit          3D

 29 31  0  0  0  0  0  0  0  0999 V2000
   38.2490   26.3690   41.3740 N   0  0  0  0  0  0  0  0  0  0  0  0
   37.0750   25.7760   40.7710 C   0  0  0  0  0  0  0  0  0  0  0  0
   36.9510   24.4170   41.4310 C   0  0  0  0  0  0  0  0  0  0  0  0
   38.1840   24.2620   42.2850 C   0  0  0  0  0  0  0  0  0  0  0  0
   39.1140   25.2620   41.6210 C   0  0  0  0  0  0  0  0  0  0  0  0
   38.2240   28.3440   42.8730 C   0  0  0  0  0  0  0  0  0  0  0  0
   38.4960   27.7120   41.6520 C   0  0  0  0  0  0  0  0  0  0  0  0
   39.0710   28.5050   40.6280 C   0  0  0  0  0  0  0  0  0  0  0  0
   39.3320   29.8090   40.8460 N   0  0  0  0  0  0  0  0  0  0  0  0
   39.0520   30.3840   42.0470 C   0  0  0  0  0  0  0  0  0  0  0  0
   38.5000   29.6380   43.0450 N   0  0  0  0  0  0  0  0  0  0  0  0
   37.6170   27.5720   43.9840 C   0  0  0  0  0  0  0  0  0  0  0  0
   36.7630   28.1780   45.0170 C   0  0  0  0  0  0  0  0  0  0  0  0
   36.1140   27.4250   43.9080 C   0  0  0  0  0  0  0  0  0  0  0  0
   36.1837   26.3883   40.9725 H   0  0  0  0  0  0  0  0  0  0  0  0
   37.1603   25.7021   39.6768 H   0  0  0  0  0  0  0  0  0  0  0  0
   36.0455   24.3748   42.0541 H   0  0  0  0  0  0  0  0  0  0  0  0
   36.8696   23.6110   40.6868 H   0  0  0  0  0  0  0  0  0  0  0  0
   37.9863   24.5270   43.3341 H   0  0  0  0  0  0  0  0  0  0  0  0
   38.5780   23.2362   42.3361 H   0  0  0  0  0  0  0  0  0  0  0  0
   39.5247   24.8610   40.6826 H   0  0  0  0  0  0  0  0  0  0  0  0
   39.9917   25.5185   42.2324 H   0  0  0  0  0  0  0  0  0  0  0  0
   39.3051   28.0547   39.6520 H   0  0  0  0  0  0  0  0  0  0  0  0
   39.2708   31.4493   42.2121 H   0  0  0  0  0  0  0  0  0  0  0  0
   38.5089   26.9325   44.0584 H   0  0  0  0  0  0  0  0  0  0  0  0
   36.7589   27.7618   46.0352 H   0  0  0  0  0  0  0  0  0  0  0  0
   36.6525   29.1934   45.4254 H   0  0  0  0  0  0  0  0  0  0  0  0
   35.5438   27.9605   43.1346 H   0  0  0  0  0  0  0  0  0  0  0  0
   35.4097   26.5830   43.8370 H   0  0  0  0  0  0  0  0  0  0  0  0
  1  5  1  0
  1  7  1  0
  2  1  1  0
  2  3  1  0
  3  4  1  0
  5  4  1  0
  6 11  1  0
  6 12  1  0
  7  6  2  0
  8  9  2  0
  8  7  1  0
  9 10  1  0
 10 11  2  0
 12 13  1  0
 14 12  1  0
 14 13  1  0
  2 15  1  0
  2 16  1  0
  3 17  1  0
  3 18  1  0
  4 19  1  0
  4 20  1  0
  5 21  1  0
  5 22  1  0
  8 23  1  0
 10 24  1  0
 12 25  1  0
 13 26  1  0
 13 27  1  0
 14 28  1  0
 14 29  1  0
M  ISO  8  15  13  16  13  17  13  18  13  19  13  20  13  21  13  22  13
M  ISO  7  23  14  24  14  25  13  26  13  27  13  28  13  29  13
M  END
>  <minimizedAffinity>  (1) 
-4.34933758

>  <minimizedRMSD>  (1) 
3.20439434

$$$$
