
     RDKit          3D

 30 32  0  0  0  0  0  0  0  0999 V2000
   37.0100   27.5930   39.8060 C   0  0  0  0  0  0  0  0  0  0  0  0
   36.9860   26.5520   40.7380 C   0  0  0  0  0  0  0  0  0  0  0  0
   36.5950   25.2690   40.2730 C   0  0  0  0  0  0  0  0  0  0  0  0
   36.2730   25.1490   38.9540 N   0  0  0  0  0  0  0  0  0  0  0  0
   36.3050   26.1580   38.0830 C   0  0  0  0  0  0  0  0  0  0  0  0
   36.6800   27.3930   38.5230 N   0  0  0  0  0  0  0  0  0  0  0  0
   37.3370   26.6900   42.0780 N   0  0  0  0  0  0  0  0  0  0  0  0
   36.5010   27.1560   43.1710 C   0  0  0  0  0  0  0  0  0  0  0  0
   37.4500   27.8990   44.0860 C   0  0  0  0  0  0  0  0  0  0  0  0
   38.8300   27.6100   43.5490 C   0  0  0  0  0  0  0  0  0  0  0  0
   38.5740   26.3870   42.7150 C   0  0  0  0  0  0  0  0  0  0  0  0
   37.3270   28.9820   40.0600 C   0  0  0  0  0  0  0  0  0  0  0  0
   36.2510   29.7470   40.5520 C   0  0  0  0  0  0  0  0  0  0  0  0
   36.2330   31.1110   40.8760 C   0  0  0  0  0  0  0  0  0  0  0  0
   37.4040   31.7430   40.6810 N   0  0  0  0  0  0  0  0  0  0  0  0
   38.4550   31.0780   40.2180 C   0  0  0  0  0  0  0  0  0  0  0  0
   38.3760   29.7900   39.9400 N   0  0  0  0  0  0  0  0  0  0  0  0
   36.5534   24.4042   40.9516 H   0  0  0  0  0  0  0  0  0  0  0  0
   36.0339   25.9972   37.0291 H   0  0  0  0  0  0  0  0  0  0  0  0
   35.7140   27.8283   42.7988 H   0  0  0  0  0  0  0  0  0  0  0  0
   35.9864   26.3304   43.6845 H   0  0  0  0  0  0  0  0  0  0  0  0
   37.2446   28.9793   44.0588 H   0  0  0  0  0  0  0  0  0  0  0  0
   37.3429   27.5806   45.1334 H   0  0  0  0  0  0  0  0  0  0  0  0
   39.2060   28.4429   42.9367 H   0  0  0  0  0  0  0  0  0  0  0  0
   39.5951   27.4714   44.3270 H   0  0  0  0  0  0  0  0  0  0  0  0
   38.4854   25.4897   43.3451 H   0  0  0  0  0  0  0  0  0  0  0  0
   39.3856   26.1670   42.0058 H   0  0  0  0  0  0  0  0  0  0  0  0
   35.3052   29.2055   40.7008 H   0  0  0  0  0  0  0  0  0  0  0  0
   35.3364   31.6213   41.2576 H   0  0  0  0  0  0  0  0  0  0  0  0
   39.4064   31.6081   40.0636 H   0  0  0  0  0  0  0  0  0  0  0  0
  1 12  1  0
  1  2  1  0
  2  7  1  0
  3  2  2  0
  4  3  1  0
  5  6  1  0
  5  4  2  0
  6  1  2  0
  7 11  1  0
  7  8  1  0
  8  9  1  0
 10  9  1  0
 11 10  1  0
 12 13  2  0
 13 14  1  0
 15 14  2  0
 16 15  1  0
 17 12  1  0
 17 16  2  0
  3 18  1  0
  5 19  1  0
  8 20  1  0
  8 21  1  0
  9 22  1  0
  9 23  1  0
 10 24  1  0
 10 25  1  0
 11 26  1  0
 11 27  1  0
 13 28  1  0
 14 29  1  0
 16 30  1  0
M  ISO  8  18  14  19  14  20  13  21  13  22  13  23  13  24  13  25  13
M  ISO  5  26  13  27  13  28  14  29  14  30  14
M  END
>  <minimizedAffinity>  (1) 
-4.29641628

>  <minimizedRMSD>  (1) 
3.3728528

$$$$
