
     RDKit          3D

 30 32  0  0  0  0  0  0  0  0999 V2000
   38.0440   28.4240   42.0770 C   0  0  0  0  0  0  0  0  0  0  0  0
   37.1710   27.5990   41.3630 C   0  0  0  0  0  0  0  0  0  0  0  0
   36.0610   28.2230   40.7680 C   0  0  0  0  0  0  0  0  0  0  0  0
   35.8890   29.5630   40.9060 N   0  0  0  0  0  0  0  0  0  0  0  0
   36.7690   30.3240   41.6110 C   0  0  0  0  0  0  0  0  0  0  0  0
   37.8520   29.7410   42.1970 N   0  0  0  0  0  0  0  0  0  0  0  0
   37.3410   26.2290   41.2020 N   0  0  0  0  0  0  0  0  0  0  0  0
   36.8350   25.1630   42.0500 C   0  0  0  0  0  0  0  0  0  0  0  0
   37.8870   24.0800   41.9370 C   0  0  0  0  0  0  0  0  0  0  0  0
   38.8260   24.5220   40.8490 C   0  0  0  0  0  0  0  0  0  0  0  0
   38.0620   25.5750   40.1220 C   0  0  0  0  0  0  0  0  0  0  0  0
   39.2370   27.9830   42.7700 C   0  0  0  0  0  0  0  0  0  0  0  0
   40.4100   28.7120   42.5240 C   0  0  0  0  0  0  0  0  0  0  0  0
   41.6600   28.4670   43.1050 C   0  0  0  0  0  0  0  0  0  0  0  0
   41.7410   27.4420   43.9730 N   0  0  0  0  0  0  0  0  0  0  0  0
   40.6250   26.7340   44.2210 C   0  0  0  0  0  0  0  0  0  0  0  0
   39.4380   26.9910   43.6500 N   0  0  0  0  0  0  0  0  0  0  0  0
   35.3352   27.6289   40.1934 H   0  0  0  0  0  0  0  0  0  0  0  0
   36.6065   31.4076   41.7077 H   0  0  0  0  0  0  0  0  0  0  0  0
   36.7347   25.5046   43.0908 H   0  0  0  0  0  0  0  0  0  0  0  0
   35.8354   24.8176   41.7476 H   0  0  0  0  0  0  0  0  0  0  0  0
   38.4286   23.9732   42.8885 H   0  0  0  0  0  0  0  0  0  0  0  0
   37.4354   23.1040   41.7059 H   0  0  0  0  0  0  0  0  0  0  0  0
   39.7524   24.9345   41.2752 H   0  0  0  0  0  0  0  0  0  0  0  0
   39.1360   23.6944   40.1941 H   0  0  0  0  0  0  0  0  0  0  0  0
   38.7372   26.2767   39.6104 H   0  0  0  0  0  0  0  0  0  0  0  0
   37.4092   25.1804   39.3295 H   0  0  0  0  0  0  0  0  0  0  0  0
   40.3418   29.5486   41.8130 H   0  0  0  0  0  0  0  0  0  0  0  0
   42.5371   29.0851   42.8626 H   0  0  0  0  0  0  0  0  0  0  0  0
   40.6886   25.8970   44.9319 H   0  0  0  0  0  0  0  0  0  0  0  0
  1  6  1  0
  1 12  1  0
  2  1  2  0
  3  4  2  0
  3  2  1  0
  4  5  1  0
  5  6  2  0
  7  2  1  0
  7  8  1  0
  9  8  1  0
 10  9  1  0
 11 10  1  0
 11  7  1  0
 12 17  1  0
 13 12  2  0
 13 14  1  0
 14 15  2  0
 15 16  1  0
 17 16  2  0
  3 18  1  0
  5 19  1  0
  8 20  1  0
  8 21  1  0
  9 22  1  0
  9 23  1  0
 10 24  1  0
 10 25  1  0
 11 26  1  0
 11 27  1  0
 13 28  1  0
 14 29  1  0
 16 30  1  0
M  ISO  8  18  14  19  14  20  13  21  13  22  13  23  13  24  13  25  13
M  ISO  5  26  13  27  13  28  14  29  14  30  14
M  END
>  <minimizedAffinity>  (1) 
-4.24258804

>  <minimizedRMSD>  (1) 
3.15825677

$$$$
