
     RDKit          3D

 25 26  0  0  0  0  0  0  0  0999 V2000
   38.0280   28.0820   42.0600 N   0  0  0  0  0  0  0  0  0  0  0  0
   39.4060   28.5730   42.1110 C   0  0  0  0  0  0  0  0  0  0  0  0
   40.0390   27.7830   43.2290 C   0  0  0  0  0  0  0  0  0  0  0  0
   38.9000   27.0330   43.8790 C   0  0  0  0  0  0  0  0  0  0  0  0
   37.6950   27.7500   43.4030 C   0  0  0  0  0  0  0  0  0  0  0  0
   36.5490   29.0520   40.3460 C   0  0  0  0  0  0  0  0  0  0  0  0
   37.2250   27.9870   40.9290 C   0  0  0  0  0  0  0  0  0  0  0  0
   37.0570   26.7250   40.3000 C   0  0  0  0  0  0  0  0  0  0  0  0
   36.2700   26.6300   39.2000 N   0  0  0  0  0  0  0  0  0  0  0  0
   35.6440   27.6890   38.6860 C   0  0  0  0  0  0  0  0  0  0  0  0
   35.7880   28.8820   39.2580 N   0  0  0  0  0  0  0  0  0  0  0  0
   36.5790   30.4120   40.8230 C   0  0  0  0  0  0  0  0  0  0  0  0
   37.2950   31.3980   40.8750 O   0  0  0  0  0  0  0  0  0  0  0  0
   35.5780   31.0800   41.4850 O   0  0  0  0  0  0  0  0  0  0  0  0
   39.9229   28.3842   41.1586 H   0  0  0  0  0  0  0  0  0  0  0  0
   39.4605   29.6587   42.2789 H   0  0  0  0  0  0  0  0  0  0  0  0
   40.7855   27.0804   42.8301 H   0  0  0  0  0  0  0  0  0  0  0  0
   40.5648   28.4323   43.9445 H   0  0  0  0  0  0  0  0  0  0  0  0
   38.8857   25.9821   43.5543 H   0  0  0  0  0  0  0  0  0  0  0  0
   38.9763   27.0065   44.9760 H   0  0  0  0  0  0  0  0  0  0  0  0
   37.5124   28.6555   44.0002 H   0  0  0  0  0  0  0  0  0  0  0  0
   36.7749   27.1528   43.4859 H   0  0  0  0  0  0  0  0  0  0  0  0
   37.5605   25.8331   40.7013 H   0  0  0  0  0  0  0  0  0  0  0  0
   35.0113   27.5772   37.7931 H   0  0  0  0  0  0  0  0  0  0  0  0
   35.7121   32.0195   41.7668 H   0  0  0  0  0  0  0  0  0  0  0  0
  1  2  1  0
  1  5  1  0
  2  3  1  0
  3  4  1  0
  5  4  1  0
  6 12  1  0
  6  7  2  0
  7  1  1  0
  8  7  1  0
  9  8  2  0
 10  9  1  0
 10 11  2  0
 11  6  1  0
 12 13  2  0
 12 14  1  0
  2 15  1  0
  2 16  1  0
  3 17  1  0
  3 18  1  0
  4 19  1  0
  4 20  1  0
  5 21  1  0
  5 22  1  0
  8 23  1  0
 10 24  1  0
 14 25  1  0
M  ISO  8  15  13  16  13  17  13  18  13  19  13  20  13  21  13  22  13
M  ISO  3  23  14  24  14  25   3
M  END
>  <minimizedAffinity>  (1) 
-4.22216511

>  <minimizedRMSD>  (1) 
2.36611986

$$$$
