
     RDKit          3D

 34 35  0  0  0  0  0  0  0  0999 V2000
   37.7540   26.9540   41.6690 N   0  0  0  0  0  0  0  0  0  0  0  0
   36.8600   26.2080   42.5710 C   0  0  0  0  0  0  0  0  0  0  0  0
   37.0450   24.7820   42.1420 C   0  0  0  0  0  0  0  0  0  0  0  0
   37.9760   24.8030   40.9570 C   0  0  0  0  0  0  0  0  0  0  0  0
   37.7770   26.2050   40.4610 C   0  0  0  0  0  0  0  0  0  0  0  0
   39.6220   28.3280   42.5110 C   0  0  0  0  0  0  0  0  0  0  0  0
   38.3900   28.1700   41.9000 C   0  0  0  0  0  0  0  0  0  0  0  0
   37.6990   29.3310   41.4470 C   0  0  0  0  0  0  0  0  0  0  0  0
   38.2480   30.5580   41.6140 N   0  0  0  0  0  0  0  0  0  0  0  0
   39.4640   30.6720   42.2200 C   0  0  0  0  0  0  0  0  0  0  0  0
   40.1040   29.5730   42.6430 N   0  0  0  0  0  0  0  0  0  0  0  0
   40.5310   27.2950   43.0250 C   0  0  0  0  0  0  0  0  0  0  0  0
   40.0090   26.3220   44.0110 C   0  0  0  0  0  0  0  0  0  0  0  0
   41.8200   27.9720   43.5740 C   0  0  0  0  0  0  0  0  0  0  0  0
   41.0910   26.4580   41.8870 C   0  0  0  0  0  0  0  0  0  0  0  0
   37.1569   26.3448   43.6213 H   0  0  0  0  0  0  0  0  0  0  0  0
   35.8137   26.5422   42.5119 H   0  0  0  0  0  0  0  0  0  0  0  0
   37.4864   24.1942   42.9604 H   0  0  0  0  0  0  0  0  0  0  0  0
   36.0818   24.3197   41.8800 H   0  0  0  0  0  0  0  0  0  0  0  0
   39.0187   24.6257   41.2593 H   0  0  0  0  0  0  0  0  0  0  0  0
   37.7733   24.0239   40.2074 H   0  0  0  0  0  0  0  0  0  0  0  0
   38.6082   26.5199   39.8129 H   0  0  0  0  0  0  0  0  0  0  0  0
   36.8725   26.3308   39.8478 H   0  0  0  0  0  0  0  0  0  0  0  0
   36.7175   29.2306   40.9606 H   0  0  0  0  0  0  0  0  0  0  0  0
   39.9187   31.6636   42.3614 H   0  0  0  0  0  0  0  0  0  0  0  0
   40.2063   26.6897   45.0288 H   0  0  0  0  0  0  0  0  0  0  0  0
   38.9250   26.2012   43.8684 H   0  0  0  0  0  0  0  0  0  0  0  0
   40.5079   25.3520   43.8684 H   0  0  0  0  0  0  0  0  0  0  0  0
   41.7998   27.9614   44.6738 H   0  0  0  0  0  0  0  0  0  0  0  0
   42.7033   27.4215   43.2182 H   0  0  0  0  0  0  0  0  0  0  0  0
   41.8681   29.0117   43.2182 H   0  0  0  0  0  0  0  0  0  0  0  0
   41.6580   25.6105   42.2997 H   0  0  0  0  0  0  0  0  0  0  0  0
   40.2637   26.0794   41.2688 H   0  0  0  0  0  0  0  0  0  0  0  0
   41.7567   27.0782   41.2688 H   0  0  0  0  0  0  0  0  0  0  0  0
  1  7  1  0
  1  2  1  0
  3  2  1  0
  4  3  1  0
  5  4  1  0
  5  1  1  0
  6 11  2  0
  6 12  1  0
  7  6  1  0
  8  9  1  0
  8  7  2  0
  9 10  2  0
 10 11  1  0
 12 14  1  0
 12 13  1  0
 15 12  1  0
  2 16  1  0
  2 17  1  0
  3 18  1  0
  3 19  1  0
  4 20  1  0
  4 21  1  0
  5 22  1  0
  5 23  1  0
  8 24  1  0
 10 25  1  0
 13 26  1  0
 13 27  1  0
 13 28  1  0
 14 29  1  0
 14 30  1  0
 14 31  1  0
 15 32  1  0
 15 33  1  0
 15 34  1  0
M  ISO  8  16  13  17  13  18  13  19  13  20  13  21  13  22  13  23  13
M  ISO  8  24  14  25  14  26   8  27   8  28   8  29   8  30   8  31   8
M  ISO  3  32   8  33   8  34   8
M  END
>  <minimizedAffinity>  (1) 
-3.75533605

>  <minimizedRMSD>  (1) 
3.66854024

$$$$
