
     RDKit          3D

 30 32  0  0  0  0  0  0  0  0999 V2000
   38.8170   27.9930   43.3010 C   0  0  0  0  0  0  0  0  0  0  0  0
   37.5430   27.4270   43.1040 C   0  0  0  0  0  0  0  0  0  0  0  0
   36.6090   28.1110   42.3120 C   0  0  0  0  0  0  0  0  0  0  0  0
   36.9930   29.3010   41.7710 N   0  0  0  0  0  0  0  0  0  0  0  0
   38.2220   29.8240   41.9750 C   0  0  0  0  0  0  0  0  0  0  0  0
   39.1310   29.1790   42.7320 N   0  0  0  0  0  0  0  0  0  0  0  0
   38.5160   31.0730   41.3610 N   0  0  0  0  0  0  0  0  0  0  0  0
   37.5910   31.7660   40.6890 C   0  0  0  0  0  0  0  0  0  0  0  0
   38.0340   32.9470   40.1590 C   0  0  0  0  0  0  0  0  0  0  0  0
   39.3190   33.4430   40.2710 C   0  0  0  0  0  0  0  0  0  0  0  0
   39.7050   34.5340   39.7730 O   0  0  0  0  0  0  0  0  0  0  0  0
   40.2220   32.6850   40.9710 N   0  0  0  0  0  0  0  0  0  0  0  0
   39.7820   31.5140   41.4960 C   0  0  0  0  0  0  0  0  0  0  0  0
   40.6640   30.8800   42.1220 O   0  0  0  0  0  0  0  0  0  0  0  0
   43.6500   33.1590   41.7870 N   0  0  0  0  0  0  0  0  0  0  0  0
   42.5130   32.4940   41.8320 N   0  0  0  0  0  0  0  0  0  0  0  0
   41.5610   33.1450   41.1190 C   0  0  0  0  0  0  0  0  0  0  0  0
   42.1940   34.2450   40.6400 C   0  0  0  0  0  0  0  0  0  0  0  0
   43.5110   34.2860   41.0410 C   0  0  0  0  0  0  0  0  0  0  0  0
   37.1230   33.8150   39.3930 C   0  0  0  0  0  0  0  0  0  0  0  0
   39.5598   27.4686   43.9201 H   0  0  0  0  0  0  0  0  0  0  0  0
   37.2838   26.4623   43.5646 H   0  0  0  0  0  0  0  0  0  0  0  0
   35.6036   27.7017   42.1342 H   0  0  0  0  0  0  0  0  0  0  0  0
   36.5554   31.4144   40.5715 H   0  0  0  0  0  0  0  0  0  0  0  0
   44.5211   32.8657   42.2518 H   0  0  0  0  0  0  0  0  0  0  0  0
   41.7152   35.0090   40.0099 H   0  0  0  0  0  0  0  0  0  0  0  0
   44.2694   35.0491   40.8119 H   0  0  0  0  0  0  0  0  0  0  0  0
   36.5058   34.4030   40.0882 H   0  0  0  0  0  0  0  0  0  0  0  0
   37.7110   34.4953   38.7594 H   0  0  0  0  0  0  0  0  0  0  0  0
   36.4719   33.1948   38.7594 H   0  0  0  0  0  0  0  0  0  0  0  0
  2  1  2  0
  3  2  1  0
  4  5  1  0
  4  3  2  0
  5  6  2  0
  6  1  1  0
  7 13  1  0
  7  5  1  0
  8  7  1  0
  9 10  1  0
  9  8  2  0
 10 12  1  0
 11 10  2  0
 12 17  1  0
 12 13  1  0
 13 14  2  0
 15 16  1  0
 17 16  2  0
 18 19  2  0
 18 17  1  0
 19 15  1  0
 20  9  1  0
  1 21  1  0
  2 22  1  0
  3 23  1  0
  8 24  1  0
 15 25  1  0
 18 26  1  0
 19 27  1  0
 20 28  1  0
 20 29  1  0
 20 30  1  0
M  ISO  8  21  14  22  14  23  14  24  14  25   9  26  14  27  14  28   8
M  ISO  2  29   8  30   8
M  END
>  <minimizedAffinity>  (1) 
-5.73871946

>  <minimizedRMSD>  (1) 
0.628387332

$$$$
