
     RDKit          3D

 45 49  0  0  1  0  0  0  0  0999 V2000
   37.5150   30.6260   38.4510 N   0  0  0  0  0  0  0  0  0  0  0  0
   37.5250   32.0570   38.1620 C   0  0  0  0  0  0  0  0  0  0  0  0
   37.1620   32.7050   39.4860 C   0  0  0  0  0  0  0  0  0  0  0  0
   36.7480   31.5870   40.3660 C   0  0  0  0  0  0  0  0  0  0  0  0
   36.5220   30.4490   39.4580 C   0  0  2  0  0  0  0  0  0  0  0  0
   37.8250   28.7610   36.9040 C   0  0  0  0  0  0  0  0  0  0  0  0
   38.2950   29.6340   37.8800 C   0  0  0  0  0  0  0  0  0  0  0  0
   39.6390   29.4850   38.2950 C   0  0  0  0  0  0  0  0  0  0  0  0
   40.4050   28.5190   37.7430 N   0  0  0  0  0  0  0  0  0  0  0  0
   39.9040   27.6820   36.7870 C   0  0  0  0  0  0  0  0  0  0  0  0
   38.6220   27.8050   36.3730 N   0  0  0  0  0  0  0  0  0  0  0  0
   36.5320   28.6960   36.3230 N   0  0  0  0  0  0  0  0  0  0  0  0
   35.2350   29.2920   36.4420 C   0  0  0  0  0  0  0  0  0  0  0  0
   34.5390   28.9750   35.1160 C   0  0  0  0  0  0  0  0  0  0  0  0
   35.0600   27.6150   34.7920 C   0  0  0  0  0  0  0  0  0  0  0  0
   36.4790   27.6850   35.2500 C   0  0  0  0  0  0  0  0  0  0  0  0
   36.7730   29.2080   40.1750 N   0  0  0  0  0  0  0  0  0  0  0  0
   36.2080   27.9950   40.0420 C   0  0  0  0  0  0  0  0  0  0  0  0
   36.7270   27.1110   40.9030 N   0  0  0  0  0  0  0  0  0  0  0  0
   37.6630   27.7440   41.6330 C   0  0  0  0  0  0  0  0  0  0  0  0
   38.4560   27.2500   42.6340 C   0  0  0  0  0  0  0  0  0  0  0  0
   39.3200   28.0880   43.2130 N   0  0  0  0  0  0  0  0  0  0  0  0
   39.3650   29.3770   42.7840 C   0  0  0  0  0  0  0  0  0  0  0  0
   38.5670   29.8520   41.7850 N   0  0  0  0  0  0  0  0  0  0  0  0
   37.6820   29.0520   41.1700 C   0  0  0  0  0  0  0  0  0  0  0  0
   38.5220   32.3811   37.8291 H   0  0  0  0  0  0  0  0  0  0  0  0
   36.8298   32.3293   37.3542 H   0  0  0  0  0  0  0  0  0  0  0  0
   38.0315   33.2282   39.9105 H   0  0  0  0  0  0  0  0  0  0  0  0
   36.3651   33.4546   39.3717 H   0  0  0  0  0  0  0  0  0  0  0  0
   37.5413   31.3515   41.0907 H   0  0  0  0  0  0  0  0  0  0  0  0
   35.8494   31.8331   40.9508 H   0  0  0  0  0  0  0  0  0  0  0  0
   35.4993   30.4053   39.0554 H   0  0  0  0  0  0  0  0  0  0  0  0
   40.0580   30.1520   39.0629 H   0  0  0  0  0  0  0  0  0  0  0  0
   40.5469   26.9031   36.3510 H   0  0  0  0  0  0  0  0  0  0  0  0
   34.6820   28.8525   37.2852 H   0  0  0  0  0  0  0  0  0  0  0  0
   35.2899   30.3735   36.6353 H   0  0  0  0  0  0  0  0  0  0  0  0
   33.4454   28.9635   35.2343 H   0  0  0  0  0  0  0  0  0  0  0  0
   34.7368   29.7181   34.3295 H   0  0  0  0  0  0  0  0  0  0  0  0
   34.5054   26.8380   35.3385 H   0  0  0  0  0  0  0  0  0  0  0  0
   34.9587   27.3524   33.7286 H   0  0  0  0  0  0  0  0  0  0  0  0
   36.8010   26.7064   35.6357 H   0  0  0  0  0  0  0  0  0  0  0  0
   37.1484   27.9553   34.4200 H   0  0  0  0  0  0  0  0  0  0  0  0
   35.4169   27.7583   39.3153 H   0  0  0  0  0  0  0  0  0  0  0  0
   38.3840   26.1990   42.9505 H   0  0  0  0  0  0  0  0  0  0  0  0
   40.0755   30.0667   43.2631 H   0  0  0  0  0  0  0  0  0  0  0  0
  1  5  1  0
  2  1  1  0
  2  3  1  0
  3  4  1  0
  5 17  1  0
  5  4  1  0
  6  7  1  0
  7  8  2  0
  7  1  1  0
  9  8  1  0
 10  9  2  0
 11 10  1  0
 11  6  2  0
 12 13  1  0
 12  6  1  0
 14 13  1  0
 15 14  1  0
 15 16  1  0
 16 12  1  0
 17 25  1  0
 18 17  1  0
 18 19  2  0
 19 20  1  0
 20 21  2  0
 21 22  1  0
 23 22  2  0
 24 23  1  0
 25 20  1  0
 25 24  2  0
  2 26  1  0
  2 27  1  0
  3 28  1  0
  3 29  1  0
  4 30  1  0
  4 31  1  0
  5 32  1  6
  8 33  1  0
 10 34  1  0
 13 35  1  0
 13 36  1  0
 14 37  1  0
 14 38  1  0
 15 39  1  0
 15 40  1  0
 16 41  1  0
 16 42  1  0
 18 43  1  0
 21 44  1  0
 23 45  1  0
M  ISO  8  26  13  27  13  28  13  29  13  30  13  31  13  32  13  33  14
M  ISO  8  34  14  35  13  36  13  37  13  38  13  39  13  40  13  41  13
M  ISO  4  42  13  43  14  44  14  45  14
M  END
>  <minimizedAffinity>  (1) 
-5.19365549

>  <minimizedRMSD>  (1) 
4.87602758

$$$$
