
     RDKit          3D

 46 49  0  0  1  0  0  0  0  0999 V2000
   37.5060   29.7110   39.7680 C   0  0  0  0  0  0  0  0  0  0  0  0
   37.8700   30.8940   39.1360 C   0  0  0  0  0  0  0  0  0  0  0  0
   37.4180   31.0860   37.8090 C   0  0  0  0  0  0  0  0  0  0  0  0
   36.6660   30.1290   37.2220 N   0  0  0  0  0  0  0  0  0  0  0  0
   36.3360   28.9880   37.8830 C   0  0  0  0  0  0  0  0  0  0  0  0
   36.7580   28.7870   39.1490 N   0  0  0  0  0  0  0  0  0  0  0  0
   37.8480   29.2890   41.0900 N   0  0  0  0  0  0  0  0  0  0  0  0
   38.6300   29.6620   42.2160 C   0  0  0  0  0  0  0  0  0  0  0  0
   37.9900   28.9230   43.3980 C   0  0  0  0  0  0  0  0  0  0  0  0
   37.6750   27.5930   42.7590 C   0  0  0  0  0  0  0  0  0  0  0  0
   37.1740   28.0130   41.4090 C   0  0  0  0  0  0  0  0  0  0  0  0
   38.6400   31.8790   39.7280 N   0  0  0  0  0  0  0  0  0  0  0  0
   38.2400   32.9150   40.6770 C   0  0  0  0  0  0  0  0  0  0  0  0
   39.1600   34.0810   40.3820 C   0  0  0  0  0  0  0  0  0  0  0  0
   40.1390   33.5680   39.3780 C   0  0  0  0  0  0  0  0  0  0  0  0
   40.0280   32.1190   39.5490 C   0  0  2  0  0  0  0  0  0  0  0  0
   40.7140   31.2670   38.6350 N   0  0  0  0  0  0  0  0  0  0  0  0
   41.8830   30.6370   39.1990 C   0  0  0  0  0  0  0  0  0  0  0  0
   42.7570   30.3010   38.0050 C   0  0  0  0  0  0  0  0  0  0  0  0
   42.4670   31.4720   37.1050 C   0  0  0  0  0  0  0  0  0  0  0  0
   41.0350   31.8170   37.3800 C   0  0  0  0  0  0  0  0  0  0  0  0
   37.6760   32.0043   37.2612 H   0  0  0  0  0  0  0  0  0  0  0  0
   35.7217   28.2244   37.3833 H   0  0  0  0  0  0  0  0  0  0  0  0
   39.6758   29.3481   42.0829 H   0  0  0  0  0  0  0  0  0  0  0  0
   38.6479   30.7514   42.3673 H   0  0  0  0  0  0  0  0  0  0  0  0
   38.6936   28.8133   44.2364 H   0  0  0  0  0  0  0  0  0  0  0  0
   37.1220   29.4341   43.8400 H   0  0  0  0  0  0  0  0  0  0  0  0
   38.5747   26.9657   42.6751 H   0  0  0  0  0  0  0  0  0  0  0  0
   36.9598   26.9825   43.3298 H   0  0  0  0  0  0  0  0  0  0  0  0
   36.0836   28.1554   41.4357 H   0  0  0  0  0  0  0  0  0  0  0  0
   37.3900   27.2479   40.6487 H   0  0  0  0  0  0  0  0  0  0  0  0
   37.1893   33.2003   40.5200 H   0  0  0  0  0  0  0  0  0  0  0  0
   38.3180   32.5765   41.7207 H   0  0  0  0  0  0  0  0  0  0  0  0
   38.5903   34.9257   39.9675 H   0  0  0  0  0  0  0  0  0  0  0  0
   39.6596   34.4485   41.2905 H   0  0  0  0  0  0  0  0  0  0  0  0
   41.1578   33.9187   39.5994 H   0  0  0  0  0  0  0  0  0  0  0  0
   39.9372   33.9078   38.3515 H   0  0  0  0  0  0  0  0  0  0  0  0
   40.6124   31.8083   40.4276 H   0  0  0  0  0  0  0  0  0  0  0  0
   42.4046   31.3265   39.8791 H   0  0  0  0  0  0  0  0  0  0  0  0
   41.6290   29.7456   39.7913 H   0  0  0  0  0  0  0  0  0  0  0  0
   43.8207   30.2567   38.2816 H   0  0  0  0  0  0  0  0  0  0  0  0
   42.5538   29.3185   37.5539 H   0  0  0  0  0  0  0  0  0  0  0  0
   42.6032   31.1933   36.0496 H   0  0  0  0  0  0  0  0  0  0  0  0
   43.1429   32.3192   37.2932 H   0  0  0  0  0  0  0  0  0  0  0  0
   40.9069   32.9093   37.4021 H   0  0  0  0  0  0  0  0  0  0  0  0
   40.3765   31.4163   36.5953 H   0  0  0  0  0  0  0  0  0  0  0  0
  1  7  1  0
  2 12  1  0
  2  1  1  0
  3  2  2  0
  4  3  1  0
  4  5  2  0
  5  6  1  0
  6  1  2  0
  7 11  1  0
  7  8  1  0
  8  9  1  0
 10  9  1  0
 11 10  1  0
 12 13  1  0
 14 13  1  0
 15 16  1  0
 15 14  1  0
 16 12  1  0
 17 18  1  0
 17 16  1  0
 19 18  1  0
 20 21  1  0
 20 19  1  0
 21 17  1  0
  3 22  1  0
  5 23  1  0
  8 24  1  0
  8 25  1  0
  9 26  1  0
  9 27  1  0
 10 28  1  0
 10 29  1  0
 11 30  1  0
 11 31  1  0
 13 32  1  0
 13 33  1  0
 14 34  1  0
 14 35  1  0
 15 36  1  0
 15 37  1  0
 16 38  1  1
 18 39  1  0
 18 40  1  0
 19 41  1  0
 19 42  1  0
 20 43  1  0
 20 44  1  0
 21 45  1  0
 21 46  1  0
M  ISO  8  22  14  23  14  24  13  25  13  26  13  27  13  28  13  29  13
M  ISO  8  30  13  31  13  32  13  33  13  34  13  35  13  36  13  37  13
M  ISO  8  38  13  39  13  40  13  41  13  42  13  43  13  44  13  45  13
M  ISO  1  46  13
M  END
>  <minimizedAffinity>  (1) 
-4.77358198

>  <minimizedRMSD>  (1) 
6.17288351

$$$$
