
     RDKit          3D

 37 39  0  0  1  0  0  0  0  0999 V2000
   38.0610   29.8070   40.8680 C   0  0  0  0  0  0  0  0  0  0  0  0
   38.8040   29.1330   41.8370 C   0  0  0  0  0  0  0  0  0  0  0  0
   39.7310   29.8790   42.5870 C   0  0  0  0  0  0  0  0  0  0  0  0
   39.8660   31.2020   42.3470 N   0  0  0  0  0  0  0  0  0  0  0  0
   39.1240   31.8290   41.3920 C   0  0  0  0  0  0  0  0  0  0  0  0
   38.2190   31.1300   40.6510 N   0  0  0  0  0  0  0  0  0  0  0  0
   37.0710   29.3070   40.0020 N   0  0  0  0  0  0  0  0  0  0  0  0
   36.3050   28.0970   39.7940 C   0  0  0  0  0  0  0  0  0  0  0  0
   35.1890   28.4390   38.8760 C   0  0  0  0  0  0  0  0  0  0  0  0
   35.6660   29.6210   38.0980 C   0  0  0  0  0  0  0  0  0  0  0  0
   36.6380   30.2850   38.9910 C   0  0  0  0  0  0  0  0  0  0  0  0
   38.6570   27.7690   42.0850 N   0  0  0  0  0  0  0  0  0  0  0  0
   39.2140   26.6660   41.3350 C   0  0  0  0  0  0  0  0  0  0  0  0
   38.2460   25.5430   41.5100 C   0  0  0  0  0  0  0  0  0  0  0  0
   37.2240   26.0410   42.4800 C   0  0  0  0  0  0  0  0  0  0  0  0
   37.9050   27.1680   43.1610 C   0  0  2  0  0  0  0  0  0  0  0  0
   37.0030   28.1020   43.8870 C   0  0  0  0  0  0  0  0  0  0  0  0
   40.3403   29.3902   43.3615 H   0  0  0  0  0  0  0  0  0  0  0  0
   39.2563   32.9070   41.2178 H   0  0  0  0  0  0  0  0  0  0  0  0
   36.9406   27.3210   39.3425 H   0  0  0  0  0  0  0  0  0  0  0  0
   35.9214   27.7076   40.7486 H   0  0  0  0  0  0  0  0  0  0  0  0
   34.9722   27.5966   38.2026 H   0  0  0  0  0  0  0  0  0  0  0  0
   34.2600   28.6565   39.4234 H   0  0  0  0  0  0  0  0  0  0  0  0
   36.1515   29.3014   37.1641 H   0  0  0  0  0  0  0  0  0  0  0  0
   34.8424   30.2892   37.8061 H   0  0  0  0  0  0  0  0  0  0  0  0
   37.5057   30.6283   38.4085 H   0  0  0  0  0  0  0  0  0  0  0  0
   36.1757   31.1568   39.4770 H   0  0  0  0  0  0  0  0  0  0  0  0
   40.2015   26.3892   41.7327 H   0  0  0  0  0  0  0  0  0  0  0  0
   39.3585   26.9219   40.2750 H   0  0  0  0  0  0  0  0  0  0  0  0
   37.7729   25.2906   40.5495 H   0  0  0  0  0  0  0  0  0  0  0  0
   38.7420   24.6310   41.8736 H   0  0  0  0  0  0  0  0  0  0  0  0
   36.3214   26.3876   41.9553 H   0  0  0  0  0  0  0  0  0  0  0  0
   36.8854   25.2625   43.1794 H   0  0  0  0  0  0  0  0  0  0  0  0
   38.5399   26.8372   43.9961 H   0  0  0  0  0  0  0  0  0  0  0  0
   37.1323   27.9681   44.9711 H   0  0  0  0  0  0  0  0  0  0  0  0
   37.2509   29.1382   43.6133 H   0  0  0  0  0  0  0  0  0  0  0  0
   35.9588   27.8903   43.6133 H   0  0  0  0  0  0  0  0  0  0  0  0
  1  2  1  0
  2 12  1  0
  2  3  2  0
  4  3  1  0
  5  4  2  0
  6  1  2  0
  6  5  1  0
  7  1  1  0
  8  7  1  0
  9  8  1  0
 10  9  1  0
 10 11  1  0
 11  7  1  0
 12 16  1  0
 13 14  1  0
 13 12  1  0
 14 15  1  0
 15 16  1  0
 16 17  1  0
  3 18  1  0
  5 19  1  0
  8 20  1  0
  8 21  1  0
  9 22  1  0
  9 23  1  0
 10 24  1  0
 10 25  1  0
 11 26  1  0
 11 27  1  0
 13 28  1  0
 13 29  1  0
 14 30  1  0
 14 31  1  0
 15 32  1  0
 15 33  1  0
 16 34  1  1
 17 35  1  0
 17 36  1  0
 17 37  1  0
M  ISO  8  18  14  19  14  20  13  21  13  22  13  23  13  24  13  25  13
M  ISO  8  26  13  27  13  28  13  29  13  30  13  31  13  32  13  33  13
M  ISO  4  34  13  35   8  36   8  37   8
M  END
>  <minimizedAffinity>  (1) 
-4.61465025

>  <minimizedRMSD>  (1) 
1.0201714

$$$$
