
     RDKit          3D

 35 37  0  0  1  0  0  0  0  0999 V2000
   37.9580   30.0380   40.7410 C   0  0  0  0  0  0  0  0  0  0  0  0
   38.4740   29.5420   41.9310 C   0  0  0  0  0  0  0  0  0  0  0  0
   39.4040   30.3530   42.6210 C   0  0  0  0  0  0  0  0  0  0  0  0
   39.7480   31.5570   42.1060 N   0  0  0  0  0  0  0  0  0  0  0  0
   39.2140   31.9990   40.9380 C   0  0  0  0  0  0  0  0  0  0  0  0
   38.3260   31.2400   40.2650 N   0  0  0  0  0  0  0  0  0  0  0  0
   37.0250   29.4130   39.8580 N   0  0  0  0  0  0  0  0  0  0  0  0
   36.2700   28.2020   39.7070 C   0  0  0  0  0  0  0  0  0  0  0  0
   35.1280   28.5560   38.7720 C   0  0  0  0  0  0  0  0  0  0  0  0
   35.7150   29.5830   37.8670 C   0  0  0  0  0  0  0  0  0  0  0  0
   36.7410   30.2580   38.7030 C   0  0  0  0  0  0  0  0  0  0  0  0
   38.1260   28.3080   42.4620 N   0  0  0  0  0  0  0  0  0  0  0  0
   38.7710   27.0130   42.2460 C   0  0  0  0  0  0  0  0  0  0  0  0
   37.6350   26.0140   42.3550 C   0  0  0  0  0  0  0  0  0  0  0  0
   36.4690   26.7930   42.8240 C   0  0  0  0  0  0  0  0  0  0  0  0
   37.0410   28.0450   43.3490 C   0  0  1  0  0  0  0  0  0  0  0  0
   37.5630   27.8830   44.6460 O   0  0  0  0  0  0  0  0  0  0  0  0
   39.8444   30.0087   43.5684 H   0  0  0  0  0  0  0  0  0  0  0  0
   39.5075   32.9812   40.5392 H   0  0  0  0  0  0  0  0  0  0  0  0
   36.8953   27.4102   39.2689 H   0  0  0  0  0  0  0  0  0  0  0  0
   35.9063   27.8223   40.6732 H   0  0  0  0  0  0  0  0  0  0  0  0
   34.7997   27.6738   38.2028 H   0  0  0  0  0  0  0  0  0  0  0  0
   34.2377   28.9189   39.3064 H   0  0  0  0  0  0  0  0  0  0  0  0
   34.9470   30.2984   37.5379 H   0  0  0  0  0  0  0  0  0  0  0  0
   36.1378   29.1461   36.9503 H   0  0  0  0  0  0  0  0  0  0  0  0
   37.6596   30.4055   38.1162 H   0  0  0  0  0  0  0  0  0  0  0  0
   36.3710   31.2392   39.0353 H   0  0  0  0  0  0  0  0  0  0  0  0
   39.5338   26.8230   43.0154 H   0  0  0  0  0  0  0  0  0  0  0  0
   39.2931   26.9563   41.2795 H   0  0  0  0  0  0  0  0  0  0  0  0
   37.4258   25.5610   41.3747 H   0  0  0  0  0  0  0  0  0  0  0  0
   37.8795   25.1907   43.0423 H   0  0  0  0  0  0  0  0  0  0  0  0
   35.7809   27.0004   41.9912 H   0  0  0  0  0  0  0  0  0  0  0  0
   35.8857   26.2518   43.5835 H   0  0  0  0  0  0  0  0  0  0  0  0
   36.2833   28.8403   43.4070 H   0  0  0  0  0  0  0  0  0  0  0  0
   36.8639   28.1000   45.3126 H   0  0  0  0  0  0  0  0  0  0  0  0
  1  2  1  0
  2 12  1  0
  2  3  2  0
  4  3  1  0
  5  4  2  0
  6  1  2  0
  6  5  1  0
  7  1  1  0
  8  7  1  0
  9  8  1  0
 10 11  1  0
 10  9  1  0
 11  7  1  0
 12 16  1  0
 13 14  1  0
 13 12  1  0
 14 15  1  0
 15 16  1  0
 16 17  1  0
  3 18  1  0
  5 19  1  0
  8 20  1  0
  8 21  1  0
  9 22  1  0
  9 23  1  0
 10 24  1  0
 10 25  1  0
 11 26  1  0
 11 27  1  0
 13 28  1  0
 13 29  1  0
 14 30  1  0
 14 31  1  0
 15 32  1  0
 15 33  1  0
 16 34  1  1
 17 35  1  0
M  ISO  8  18  14  19  14  20  13  21  13  22  13  23  13  24  13  25  13
M  ISO  8  26  13  27  13  28  13  29  13  30  13  31  13  32  13  33  13
M  ISO  2  34  13  35   3
M  END
>  <minimizedAffinity>  (1) 
-4.48027849

>  <minimizedRMSD>  (1) 
0.443273783

$$$$
