
     RDKit          3D

 41 44  0  0  1  0  0  0  0  0999 V2000
   38.1920   28.8900   41.7950 C   0  0  0  0  0  0  0  0  0  0  0  0
   39.1120   27.8530   41.8640 C   0  0  0  0  0  0  0  0  0  0  0  0
   39.1010   27.0410   43.0280 C   0  0  0  0  0  0  0  0  0  0  0  0
   38.2100   27.3050   44.0100 N   0  0  0  0  0  0  0  0  0  0  0  0
   37.3240   28.3400   43.8940 C   0  0  0  0  0  0  0  0  0  0  0  0
   37.3150   29.1220   42.8010 N   0  0  0  0  0  0  0  0  0  0  0  0
   38.0000   29.8320   40.7540 N   0  0  0  0  0  0  0  0  0  0  0  0
   38.5510   30.2100   39.4830 C   0  0  0  0  0  0  0  0  0  0  0  0
   37.4730   31.0400   38.8070 C   0  0  0  0  0  0  0  0  0  0  0  0
   36.8410   31.7580   39.9590 C   0  0  0  0  0  0  0  0  0  0  0  0
   36.8760   30.7350   41.0380 C   0  0  0  0  0  0  0  0  0  0  0  0
   40.0340   27.5720   40.8630 N   0  0  0  0  0  0  0  0  0  0  0  0
   41.3360   28.2210   40.6620 C   0  0  0  0  0  0  0  0  0  0  0  0
   41.5310   28.1840   39.1700 C   0  0  0  0  0  0  0  0  0  0  0  0
   40.4520   27.3330   38.6460 C   0  0  0  0  0  0  0  0  0  0  0  0
   39.9250   26.6060   39.8290 C   0  0  2  0  0  0  0  0  0  0  0  0
   38.5740   26.1010   39.6260 C   0  0  0  0  0  0  0  0  0  0  0  0
   37.5940   26.6750   38.8930 C   0  0  0  0  0  0  0  0  0  0  0  0
   36.3540   26.1120   38.7710 C   0  0  0  0  0  0  0  0  0  0  0  0
   36.2050   24.8530   39.4990 C   0  0  0  0  0  0  0  0  0  0  0  0
   37.9150   24.6340   40.2900 S   0  0  0  0  0  0  0  0  0  0  0  0
   39.8097   26.2059   43.1301 H   0  0  0  0  0  0  0  0  0  0  0  0
   36.6087   28.5353   44.7065 H   0  0  0  0  0  0  0  0  0  0  0  0
   39.4652   30.8058   39.6217 H   0  0  0  0  0  0  0  0  0  0  0  0
   38.8299   29.3328   38.8807 H   0  0  0  0  0  0  0  0  0  0  0  0
   37.9102   31.7494   38.0889 H   0  0  0  0  0  0  0  0  0  0  0  0
   36.7606   30.4388   38.2230 H   0  0  0  0  0  0  0  0  0  0  0  0
   37.4219   32.6495   40.2381 H   0  0  0  0  0  0  0  0  0  0  0  0
   35.8287   32.1291   39.7408 H   0  0  0  0  0  0  0  0  0  0  0  0
   35.9330   30.1688   41.0495 H   0  0  0  0  0  0  0  0  0  0  0  0
   37.0015   31.2126   42.0209 H   0  0  0  0  0  0  0  0  0  0  0  0
   41.3175   29.2578   41.0289 H   0  0  0  0  0  0  0  0  0  0  0  0
   42.1488   27.7209   41.2091 H   0  0  0  0  0  0  0  0  0  0  0  0
   41.4582   29.1976   38.7489 H   0  0  0  0  0  0  0  0  0  0  0  0
   42.5229   27.7919   38.9009 H   0  0  0  0  0  0  0  0  0  0  0  0
   39.6634   27.9476   38.1873 H   0  0  0  0  0  0  0  0  0  0  0  0
   40.8106   26.6458   37.8655 H   0  0  0  0  0  0  0  0  0  0  0  0
   40.4797   25.6849   40.0609 H   0  0  0  0  0  0  0  0  0  0  0  0
   37.8006   27.6250   38.3784 H   0  0  0  0  0  0  0  0  0  0  0  0
   35.5439   26.5643   38.1801 H   0  0  0  0  0  0  0  0  0  0  0  0
   35.3240   24.1982   39.5701 H   0  0  0  0  0  0  0  0  0  0  0  0
  1  2  1  0
  1  6  2  0
  2  3  2  0
  3  4  1  0
  5  4  2  0
  6  5  1  0
  7 11  1  0
  7  1  1  0
  8  7  1  0
  9  8  1  0
  9 10  1  0
 10 11  1  0
 12  2  1  0
 13 12  1  0
 14 13  1  0
 15 14  1  0
 15 16  1  0
 16 12  1  0
 17 16  1  0
 17 21  1  0
 18 17  2  0
 19 18  1  0
 19 20  2  0
 20 21  1  0
  3 22  1  0
  5 23  1  0
  8 24  1  0
  8 25  1  0
  9 26  1  0
  9 27  1  0
 10 28  1  0
 10 29  1  0
 11 30  1  0
 11 31  1  0
 13 32  1  0
 13 33  1  0
 14 34  1  0
 14 35  1  0
 15 36  1  0
 15 37  1  0
 16 38  1  1
 18 39  1  0
 19 40  1  0
 20 41  1  0
M  ISO  8  22  14  23  14  24  13  25  13  26  13  27  13  28  13  29  13
M  ISO  8  30  13  31  13  32  13  33  13  34  13  35  13  36  13  37  13
M  ISO  4  38  13  39  14  40  14  41  14
M  END
>  <minimizedAffinity>  (1) 
-4.32908154

>  <minimizedRMSD>  (1) 
4.95322132

$$$$
