
     RDKit          3D

 36 38  0  0  0  0  0  0  0  0999 V2000
   39.3650   28.0430   43.2400 C   0  0  0  0  0  0  0  0  0  0  0  0
   38.0600   27.5240   43.3130 C   0  0  0  0  0  0  0  0  0  0  0  0
   37.0340   28.2310   42.6860 C   0  0  0  0  0  0  0  0  0  0  0  0
   37.3370   29.3840   42.0370 N   0  0  0  0  0  0  0  0  0  0  0  0
   38.6140   29.8630   41.9840 C   0  0  0  0  0  0  0  0  0  0  0  0
   39.6010   29.1960   42.5790 N   0  0  0  0  0  0  0  0  0  0  0  0
   38.8130   31.0800   41.2760 N   0  0  0  0  0  0  0  0  0  0  0  0
   37.7950   31.8030   40.7910 C   0  0  0  0  0  0  0  0  0  0  0  0
   38.1680   32.9520   40.1330 C   0  0  0  0  0  0  0  0  0  0  0  0
   39.4570   33.3730   39.9580 C   0  0  0  0  0  0  0  0  0  0  0  0
   39.7730   34.4270   39.3530 O   0  0  0  0  0  0  0  0  0  0  0  0
   40.4470   32.6030   40.4700 N   0  0  0  0  0  0  0  0  0  0  0  0
   40.1170   31.4580   41.1270 C   0  0  0  0  0  0  0  0  0  0  0  0
   41.0720   30.7660   41.5910 O   0  0  0  0  0  0  0  0  0  0  0  0
   44.4910   33.5930   40.0670 C   0  0  0  0  0  0  0  0  0  0  0  0
   43.8870   32.7830   39.1350 C   0  0  0  0  0  0  0  0  0  0  0  0
   42.5540   32.4550   39.2660 C   0  0  0  0  0  0  0  0  0  0  0  0
   41.8380   32.9510   40.3430 C   0  0  0  0  0  0  0  0  0  0  0  0
   42.4520   33.7640   41.2760 C   0  0  0  0  0  0  0  0  0  0  0  0
   43.7950   34.1070   41.1630 C   0  0  0  0  0  0  0  0  0  0  0  0
   46.1940   33.9620   39.8260 S   0  0  0  0  0  0  0  0  0  0  0  0
   46.2730   35.0980   38.8410 O   0  0  0  0  0  0  0  0  0  0  0  0
   46.8500   32.7100   39.2600 O   0  0  0  0  0  0  0  0  0  0  0  0
   37.1330   33.8330   39.5530 C   0  0  0  0  0  0  0  0  0  0  0  0
   40.1958   27.5078   43.7230 H   0  0  0  0  0  0  0  0  0  0  0  0
   37.8540   26.5862   43.8498 H   0  0  0  0  0  0  0  0  0  0  0  0
   35.9985   27.8610   42.7169 H   0  0  0  0  0  0  0  0  0  0  0  0
   36.7437   31.5017   40.9095 H   0  0  0  0  0  0  0  0  0  0  0  0
   44.4673   32.3963   38.2843 H   0  0  0  0  0  0  0  0  0  0  0  0
   42.0650   31.8070   38.5238 H   0  0  0  0  0  0  0  0  0  0  0  0
   41.8671   34.1476   42.1250 H   0  0  0  0  0  0  0  0  0  0  0  0
   44.2870   34.7543   41.9039 H   0  0  0  0  0  0  0  0  0  0  0  0
   46.8266   34.3242   40.9860 H   0  0  0  0  0  0  0  0  0  0  0  0
   36.5662   34.3154   40.3630 H   0  0  0  0  0  0  0  0  0  0  0  0
   37.6133   34.6036   38.9322 H   0  0  0  0  0  0  0  0  0  0  0  0
   36.4490   33.2358   38.9322 H   0  0  0  0  0  0  0  0  0  0  0  0
  1  2  2  0
  3  2  1  0
  4  3  2  0
  5  4  1  0
  5  6  2  0
  6  1  1  0
  7  5  1  0
  8  7  1  0
  9  8  2  0
 10  9  1  0
 10 12  1  0
 11 10  2  0
 12 13  1  0
 13  7  1  0
 13 14  2  0
 15 20  2  0
 16 17  2  0
 16 15  1  0
 17 18  1  0
 18 12  1  0
 18 19  2  0
 20 19  1  0
 21 15  1  0
 22 21  2  0
 23 21  2  0
 24  9  1  0
  1 25  1  0
  2 26  1  0
  3 27  1  0
  8 28  1  0
 16 29  1  0
 17 30  1  0
 19 31  1  0
 20 32  1  0
 21 33  1  0
 24 34  1  0
 24 35  1  0
 24 36  1  0
M  ISO  8  25  14  26  14  27  14  28  14  29  14  30  14  31  14  32  14
M  ISO  4  33  11  34   8  35   8  36   8
M  END
>  <minimizedAffinity>  (1) 
-5.47430563

>  <minimizedRMSD>  (1) 
2.05380249

$$$$
