
     RDKit          3D

 47 51  0  0  1  0  0  0  0  0999 V2000
   43.2960   27.2590   44.1550 N   0  0  0  0  0  0  0  0  0  0  0  0
   44.2380   26.1550   43.9810 C   0  0  0  0  0  0  0  0  0  0  0  0
   43.5240   25.2020   43.0280 C   0  0  0  0  0  0  0  0  0  0  0  0
   42.1330   25.6670   42.9980 C   0  0  0  0  0  0  0  0  0  0  0  0
   41.9870   26.6560   44.0780 C   0  0  2  0  0  0  0  0  0  0  0  0
   43.7390   29.1700   45.6180 C   0  0  0  0  0  0  0  0  0  0  0  0
   43.5720   28.5970   44.3520 C   0  0  0  0  0  0  0  0  0  0  0  0
   43.7010   29.4520   43.2340 C   0  0  0  0  0  0  0  0  0  0  0  0
   43.9730   30.7560   43.4110 N   0  0  0  0  0  0  0  0  0  0  0  0
   44.1260   31.2710   44.6700 C   0  0  0  0  0  0  0  0  0  0  0  0
   44.0100   30.4800   45.7540 N   0  0  0  0  0  0  0  0  0  0  0  0
   43.6580   28.5190   46.8790 N   0  0  0  0  0  0  0  0  0  0  0  0
   43.4490   27.2420   47.4620 C   0  0  0  0  0  0  0  0  0  0  0  0
   43.9960   27.3430   48.8740 C   0  0  0  0  0  0  0  0  0  0  0  0
   43.6830   28.7500   49.2530 C   0  0  0  0  0  0  0  0  0  0  0  0
   43.8550   29.4790   47.9630 C   0  0  0  0  0  0  0  0  0  0  0  0
   40.9310   27.5940   43.9270 N   0  0  0  0  0  0  0  0  0  0  0  0
   38.0740   30.4490   41.7080 N   0  0  0  0  0  0  0  0  0  0  0  0
   39.2590   31.0710   41.8380 C   0  0  0  0  0  0  0  0  0  0  0  0
   40.0280   30.1820   42.4890 N   0  0  0  0  0  0  0  0  0  0  0  0
   39.3050   29.0690   42.7310 C   0  0  0  0  0  0  0  0  0  0  0  0
   39.6980   27.9120   43.3710 C   0  0  0  0  0  0  0  0  0  0  0  0
   38.7170   27.0010   43.4370 N   0  0  0  0  0  0  0  0  0  0  0  0
   37.4870   27.0890   42.9820 C   0  0  0  0  0  0  0  0  0  0  0  0
   37.1520   28.2140   42.3750 N   0  0  0  0  0  0  0  0  0  0  0  0
   38.0360   29.2110   42.2380 C   0  0  0  0  0  0  0  0  0  0  0  0
   45.1811   26.5122   43.5418 H   0  0  0  0  0  0  0  0  0  0  0  0
   44.5067   25.6757   44.9339 H   0  0  0  0  0  0  0  0  0  0  0  0
   43.9704   25.2528   42.0239 H   0  0  0  0  0  0  0  0  0  0  0  0
   43.6027   24.1547   43.3549 H   0  0  0  0  0  0  0  0  0  0  0  0
   41.9112   26.1329   42.0265 H   0  0  0  0  0  0  0  0  0  0  0  0
   41.4353   24.8280   43.1369 H   0  0  0  0  0  0  0  0  0  0  0  0
   41.6740   26.1723   45.0151 H   0  0  0  0  0  0  0  0  0  0  0  0
   43.5786   29.0495   42.2176 H   0  0  0  0  0  0  0  0  0  0  0  0
   44.3458   32.3412   44.7977 H   0  0  0  0  0  0  0  0  0  0  0  0
   42.3761   27.0002   47.4823 H   0  0  0  0  0  0  0  0  0  0  0  0
   43.9474   26.4465   46.8886 H   0  0  0  0  0  0  0  0  0  0  0  0
   43.4929   26.6312   49.5450 H   0  0  0  0  0  0  0  0  0  0  0  0
   45.0672   27.1028   48.9429 H   0  0  0  0  0  0  0  0  0  0  0  0
   42.6523   28.8410   49.6264 H   0  0  0  0  0  0  0  0  0  0  0  0
   44.3185   29.1372   50.0631 H   0  0  0  0  0  0  0  0  0  0  0  0
   44.8674   29.9055   47.9061 H   0  0  0  0  0  0  0  0  0  0  0  0
   43.1281   30.3010   47.8857 H   0  0  0  0  0  0  0  0  0  0  0  0
   41.2049   28.4147   44.4859 H   0  0  0  0  0  0  0  0  0  0  0  0
   37.2638   30.8824   41.2426 H   0  0  0  0  0  0  0  0  0  0  0  0
   39.5356   32.0775   41.4908 H   0  0  0  0  0  0  0  0  0  0  0  0
   36.7693   26.2639   43.1010 H   0  0  0  0  0  0  0  0  0  0  0  0
  1  7  1  0
  2  1  1  0
  3  2  1  0
  4  3  1  0
  4  5  1  0
  5  1  1  0
  6 11  1  0
  6 12  1  0
  7  6  2  0
  8  9  2  0
  8  7  1  0
  9 10  1  0
 10 11  2  0
 12 13  1  0
 12 16  1  0
 13 14  1  0
 14 15  1  0
 16 15  1  0
 17  5  1  0
 18 19  1  0
 18 26  1  0
 19 20  2  0
 20 21  1  0
 21 22  2  0
 22 23  1  0
 22 17  1  0
 24 23  2  0
 25 24  1  0
 26 25  2  0
 26 21  1  0
  2 27  1  0
  2 28  1  0
  3 29  1  0
  3 30  1  0
  4 31  1  0
  4 32  1  0
  5 33  1  1
  8 34  1  0
 10 35  1  0
 13 36  1  0
 13 37  1  0
 14 38  1  0
 14 39  1  0
 15 40  1  0
 15 41  1  0
 16 42  1  0
 16 43  1  0
 17 44  1  0
 18 45  1  0
 19 46  1  0
 24 47  1  0
M  ISO  8  27  13  28  13  29  13  30  13  31  13  32  13  33  13  34  14
M  ISO  8  35  14  36  13  37  13  38  13  39  13  40  13  41  13  42  13
M  ISO  4  43  13  45   9  46  14  47  14
M  END
>  <minimizedAffinity>  (1) 
-5.5025382

>  <minimizedRMSD>  (1) 
6.97664165

$$$$
