
     RDKit          3D

 41 44  0  0  1  0  0  0  0  0999 V2000
   38.2290   29.1700   41.4750 C   0  0  0  0  0  0  0  0  0  0  0  0
   39.0840   28.0630   41.4890 C   0  0  0  0  0  0  0  0  0  0  0  0
   39.0770   27.2530   42.6650 C   0  0  0  0  0  0  0  0  0  0  0  0
   38.2560   27.5870   43.6980 N   0  0  0  0  0  0  0  0  0  0  0  0
   37.4480   28.6730   43.6300 C   0  0  0  0  0  0  0  0  0  0  0  0
   37.4320   29.4570   42.5340 N   0  0  0  0  0  0  0  0  0  0  0  0
   38.0580   30.1180   40.4420 N   0  0  0  0  0  0  0  0  0  0  0  0
   38.5160   30.4260   39.1070 C   0  0  0  0  0  0  0  0  0  0  0  0
   37.4770   31.3530   38.5250 C   0  0  0  0  0  0  0  0  0  0  0  0
   37.0190   32.1440   39.7120 C   0  0  0  0  0  0  0  0  0  0  0  0
   37.0900   31.1530   40.8220 C   0  0  0  0  0  0  0  0  0  0  0  0
   39.9290   27.7270   40.4430 N   0  0  0  0  0  0  0  0  0  0  0  0
   41.2610   28.2520   40.1580 C   0  0  0  0  0  0  0  0  0  0  0  0
   41.3320   28.2490   38.6460 C   0  0  0  0  0  0  0  0  0  0  0  0
   40.1850   27.4330   38.2140 C   0  0  0  0  0  0  0  0  0  0  0  0
   39.6580   26.7720   39.4370 C   0  0  2  0  0  0  0  0  0  0  0  0
   38.2550   26.4330   39.2980 N   0  0  0  0  0  0  0  0  0  0  0  0
   37.5840   25.3220   39.8540 C   0  0  0  0  0  0  0  0  0  0  0  0
   36.4080   24.7420   40.1270 N   0  0  0  0  0  0  0  0  0  0  0  0
   36.6050   23.5980   40.7370 O   0  0  0  0  0  0  0  0  0  0  0  0
   37.9120   23.3760   40.8910 C   0  0  0  0  0  0  0  0  0  0  0  0
   38.5190   24.4500   40.3420 N   0  0  0  0  0  0  0  0  0  0  0  0
   39.7278   26.3690   42.7353 H   0  0  0  0  0  0  0  0  0  0  0  0
   36.7961   28.9179   44.4815 H   0  0  0  0  0  0  0  0  0  0  0  0
   39.4968   30.9227   39.1426 H   0  0  0  0  0  0  0  0  0  0  0  0
   38.6373   29.5176   38.4987 H   0  0  0  0  0  0  0  0  0  0  0  0
   37.9182   32.0092   37.7603 H   0  0  0  0  0  0  0  0  0  0  0  0
   36.6579   30.8197   38.0204 H   0  0  0  0  0  0  0  0  0  0  0  0
   37.6872   32.9973   39.9003 H   0  0  0  0  0  0  0  0  0  0  0  0
   36.0171   32.5794   39.5827 H   0  0  0  0  0  0  0  0  0  0  0  0
   36.1008   30.6990   40.9814 H   0  0  0  0  0  0  0  0  0  0  0  0
   37.4019   31.6449   41.7552 H   0  0  0  0  0  0  0  0  0  0  0  0
   41.3735   29.2721   40.5539 H   0  0  0  0  0  0  0  0  0  0  0  0
   42.0617   27.6585   40.6235 H   0  0  0  0  0  0  0  0  0  0  0  0
   41.2484   29.2729   38.2527 H   0  0  0  0  0  0  0  0  0  0  0  0
   42.2876   27.8478   38.2773 H   0  0  0  0  0  0  0  0  0  0  0  0
   39.4114   28.0720   37.7632 H   0  0  0  0  0  0  0  0  0  0  0  0
   40.4838   26.6929   37.4571 H   0  0  0  0  0  0  0  0  0  0  0  0
   40.1200   25.7998   39.6636 H   0  0  0  0  0  0  0  0  0  0  0  0
   37.6837   27.0747   38.7299 H   0  0  0  0  0  0  0  0  0  0  0  0
   38.3913   22.5058   41.3633 H   0  0  0  0  0  0  0  0  0  0  0  0
  1  2  1  0
  1  6  2  0
  2  3  2  0
  3  4  1  0
  5  4  2  0
  6  5  1  0
  7 11  1  0
  7  1  1  0
  8  7  1  0
  9  8  1  0
  9 10  1  0
 10 11  1  0
 12  2  1  0
 13 12  1  0
 14 13  1  0
 15 14  1  0
 15 16  1  0
 16 12  1  0
 17 16  1  0
 17 18  1  0
 18 19  2  0
 18 22  1  0
 19 20  1  0
 20 21  1  0
 22 21  2  0
  3 23  1  0
  5 24  1  0
  8 25  1  0
  8 26  1  0
  9 27  1  0
  9 28  1  0
 10 29  1  0
 10 30  1  0
 11 31  1  0
 11 32  1  0
 13 33  1  0
 13 34  1  0
 14 35  1  0
 14 36  1  0
 15 37  1  0
 15 38  1  0
 16 39  1  1
 17 40  1  0
 21 41  1  0
M  ISO  8  23  14  24  14  25  13  26  13  27  13  28  13  29  13  30  13
M  ISO  8  31  13  32  13  33  13  34  13  35  13  36  13  37  13  38  13
M  ISO  2  39  13  41  14
M  END
>  <minimizedAffinity>  (1) 
-4.62858677

>  <minimizedRMSD>  (1) 
4.98640156

$$$$
