
     RDKit          3D

 25 27  0  0  0  0  0  0  0  0999 V2000
   37.5910   30.5880   40.6100 C   0  0  0  0  0  0  0  0  0  0  0  0
   37.6180   31.9170   40.8250 N   0  0  0  0  0  0  0  0  0  0  0  0
   37.5030   32.8460   39.8940 C   0  0  0  0  0  0  0  0  0  0  0  0
   37.3470   32.5240   38.6270 N   0  0  0  0  0  0  0  0  0  0  0  0
   37.3030   31.2220   38.2710 C   0  0  0  0  0  0  0  0  0  0  0  0
   37.1400   30.8800   36.9440 C   0  0  0  0  0  0  0  0  0  0  0  0
   37.0930   29.5690   36.5570 C   0  0  0  0  0  0  0  0  0  0  0  0
   37.2160   28.5870   37.5540 C   0  0  0  0  0  0  0  0  0  0  0  0
   37.3750   28.9970   38.8580 C   0  0  0  0  0  0  0  0  0  0  0  0
   37.4280   30.2850   39.2830 C   0  0  0  0  0  0  0  0  0  0  0  0
   39.3610   28.4140   42.8550 C   0  0  0  0  0  0  0  0  0  0  0  0
   38.4270   27.7240   43.6360 C   0  0  0  0  0  0  0  0  0  0  0  0
   37.0910   28.0270   43.3720 C   0  0  0  0  0  0  0  0  0  0  0  0
   36.8360   28.9340   42.4140 N   0  0  0  0  0  0  0  0  0  0  0  0
   37.7210   29.5950   41.6660 C   0  0  0  0  0  0  0  0  0  0  0  0
   38.9820   29.2890   41.9360 N   0  0  0  0  0  0  0  0  0  0  0  0
   35.9820   27.5030   43.9820 O   0  0  0  0  0  0  0  0  0  0  0  0
   37.5381   33.9071   40.1818 H   0  0  0  0  0  0  0  0  0  0  0  0
   37.0466   31.6727   36.1871 H   0  0  0  0  0  0  0  0  0  0  0  0
   36.9632   29.2927   35.5002 H   0  0  0  0  0  0  0  0  0  0  0  0
   37.1860   27.5174   37.2988 H   0  0  0  0  0  0  0  0  0  0  0  0
   37.4672   28.2120   39.6231 H   0  0  0  0  0  0  0  0  0  0  0  0
   40.4339   28.2254   43.0079 H   0  0  0  0  0  0  0  0  0  0  0  0
   38.7250   26.9946   44.4035 H   0  0  0  0  0  0  0  0  0  0  0  0
   35.0787   27.7993   43.7058 H   0  0  0  0  0  0  0  0  0  0  0  0
  1  2  2  0
  1 15  1  0
  3  2  1  0
  4  3  2  0
  5  4  1  0
  5 10  2  0
  6  5  1  0
  7  6  2  0
  7  8  1  0
  8  9  2  0
  9 10  1  0
 10  1  1  0
 11 12  2  0
 13 12  1  0
 13 17  1  0
 14 13  2  0
 15 16  2  0
 15 14  1  0
 16 11  1  0
  3 18  1  0
  6 19  1  0
  7 20  1  0
  8 21  1  0
  9 22  1  0
 11 23  1  0
 12 24  1  0
 17 25  1  0
M  ISO  8  18  14  19  14  20  14  21  14  22  14  23  14  24  14  25   3
M  END
>  <minimizedAffinity>  (1) 
-4.93726873

>  <minimizedRMSD>  (1) 
0.516002119

$$$$
