
     RDKit          3D

 26 27  0  0  0  0  0  0  0  0999 V2000
   38.1760   22.5630   40.5080 C   0  0  0  0  0  0  0  0  0  0  0  0
   38.1040   22.2180   39.1460 C   0  0  0  0  0  0  0  0  0  0  0  0
   37.7100   23.2170   38.2510 C   0  0  0  0  0  0  0  0  0  0  0  0
   37.4230   24.4500   38.7420 N   0  0  0  0  0  0  0  0  0  0  0  0
   37.5010   24.7490   40.0520 C   0  0  0  0  0  0  0  0  0  0  0  0
   37.8770   23.8070   40.9290 N   0  0  0  0  0  0  0  0  0  0  0  0
   37.1760   26.0750   40.4460 N   0  0  0  0  0  0  0  0  0  0  0  0
   36.7030   26.9790   39.5810 C   0  0  0  0  0  0  0  0  0  0  0  0
   36.4350   28.2130   40.1090 C   0  0  0  0  0  0  0  0  0  0  0  0
   36.6200   28.5530   41.4210 C   0  0  0  0  0  0  0  0  0  0  0  0
   36.3690   29.6960   41.8970 O   0  0  0  0  0  0  0  0  0  0  0  0
   37.1060   27.5950   42.2690 N   0  0  0  0  0  0  0  0  0  0  0  0
   37.3780   26.3570   41.7610 C   0  0  0  0  0  0  0  0  0  0  0  0
   37.8240   25.5010   42.5710 O   0  0  0  0  0  0  0  0  0  0  0  0
   35.9100   29.2890   39.2450 C   0  0  0  0  0  0  0  0  0  0  0  0
   37.3380   27.8510   43.6810 C   0  0  0  0  0  0  0  0  0  0  0  0
   36.1360   27.5230   44.3180 F   0  0  0  0  0  0  0  0  0  0  0  0
   38.3940   27.1040   44.1390 F   0  0  0  0  0  0  0  0  0  0  0  0
   37.5730   29.1910   43.9060 F   0  0  0  0  0  0  0  0  0  0  0  0
   38.4820   21.8032   41.2422 H   0  0  0  0  0  0  0  0  0  0  0  0
   38.3479   21.2030   38.7993 H   0  0  0  0  0  0  0  0  0  0  0  0
   37.6342   23.0090   37.1735 H   0  0  0  0  0  0  0  0  0  0  0  0
   36.5405   26.7466   38.5182 H   0  0  0  0  0  0  0  0  0  0  0  0
   35.5135   30.1016   39.8714 H   0  0  0  0  0  0  0  0  0  0  0  0
   36.7199   29.6773   38.6099 H   0  0  0  0  0  0  0  0  0  0  0  0
   35.1055   28.8897   38.6099 H   0  0  0  0  0  0  0  0  0  0  0  0
  1  6  2  0
  2  1  1  0
  3  4  1  0
  3  2  2  0
  4  5  2  0
  5  7  1  0
  5  6  1  0
  7 13  1  0
  8  9  2  0
  8  7  1  0
  9 10  1  0
 10 11  2  0
 10 12  1  0
 12 16  1  0
 13 12  1  0
 13 14  2  0
 15  9  1  0
 16 19  1  0
 16 18  1  0
 16 17  1  0
  1 20  1  0
  2 21  1  0
  3 22  1  0
  8 23  1  0
 15 24  1  0
 15 25  1  0
 15 26  1  0
M  ISO  7  20  14  21  14  22  14  23  14  24   8  25   8  26   8
M  END
>  <minimizedAffinity>  (1) 
-5.25615072

>  <minimizedRMSD>  (1) 
5.97622108

$$$$
