
     RDKit          3D

 44 47  0  0  1  0  0  0  0  0999 V2000
   38.9300   35.6750   40.0240 C   0  0  0  0  0  0  0  0  0  0  0  0
   40.2120   36.1450   40.3230 C   0  0  0  0  0  0  0  0  0  0  0  0
   41.1440   35.1890   40.7430 C   0  0  0  0  0  0  0  0  0  0  0  0
   40.7050   33.9380   40.8120 N   0  0  0  0  0  0  0  0  0  0  0  0
   39.5140   33.4530   40.5420 C   0  0  0  0  0  0  0  0  0  0  0  0
   38.6470   34.3850   40.1440 N   0  0  0  0  0  0  0  0  0  0  0  0
   38.9290   32.1210   40.5840 C   0  0  0  0  0  0  0  0  0  0  0  0
   38.9070   31.3500   41.6880 N   0  0  0  0  0  0  0  0  0  0  0  0
   38.3870   30.1370   41.7630 C   0  0  0  0  0  0  0  0  0  0  0  0
   37.8310   29.5810   40.7180 N   0  0  0  0  0  0  0  0  0  0  0  0
   37.7800   30.2380   39.5410 C   0  0  0  0  0  0  0  0  0  0  0  0
   37.1950   29.6510   38.4370 C   0  0  0  0  0  0  0  0  0  0  0  0
   37.1410   30.3100   37.2450 C   0  0  0  0  0  0  0  0  0  0  0  0
   37.6960   31.6040   37.1600 C   0  0  0  0  0  0  0  0  0  0  0  0
   38.2640   32.1240   38.3070 C   0  0  0  0  0  0  0  0  0  0  0  0
   38.3370   31.4960   39.5140 C   0  0  0  0  0  0  0  0  0  0  0  0
   42.4030   35.4700   41.0650 O   0  0  0  0  0  0  0  0  0  0  0  0
   42.8910   35.6260   42.3890 C   0  0  2  0  0  0  0  0  0  0  0  0
   42.3830   37.0030   42.8940 C   0  0  0  0  0  0  0  0  0  0  0  0
   44.3930   35.6220   42.3910 C   0  0  0  0  0  0  0  0  0  0  0  0
   44.9360   34.8700   43.5740 C   0  0  0  0  0  0  0  0  0  0  0  0
   44.8770   35.4900   44.8100 C   0  0  0  0  0  0  0  0  0  0  0  0
   45.3310   34.9400   45.9920 C   0  0  0  0  0  0  0  0  0  0  0  0
   45.8780   33.6650   45.8730 C   0  0  0  0  0  0  0  0  0  0  0  0
   45.9630   32.9960   44.6610 C   0  0  0  0  0  0  0  0  0  0  0  0
   45.4890   33.6090   43.5230 C   0  0  0  0  0  0  0  0  0  0  0  0
   38.1532   36.3776   39.6880 H   0  0  0  0  0  0  0  0  0  0  0  0
   40.4744   37.2094   40.2330 H   0  0  0  0  0  0  0  0  0  0  0  0
   38.4224   29.5886   42.7159 H   0  0  0  0  0  0  0  0  0  0  0  0
   36.7679   28.6407   38.5201 H   0  0  0  0  0  0  0  0  0  0  0  0
   36.6736   29.8417   36.3662 H   0  0  0  0  0  0  0  0  0  0  0  0
   37.6773   32.1750   36.2200 H   0  0  0  0  0  0  0  0  0  0  0  0
   38.6952   33.1337   38.2400 H   0  0  0  0  0  0  0  0  0  0  0  0
   42.5420   34.8043   43.0317 H   0  0  0  0  0  0  0  0  0  0  0  0
   42.3798   37.0117   43.9940 H   0  0  0  0  0  0  0  0  0  0  0  0
   43.0472   37.7974   42.5230 H   0  0  0  0  0  0  0  0  0  0  0  0
   41.3620   37.1757   42.5230 H   0  0  0  0  0  0  0  0  0  0  0  0
   44.7512   35.1438   41.4674 H   0  0  0  0  0  0  0  0  0  0  0  0
   44.7427   36.6632   42.4513 H   0  0  0  0  0  0  0  0  0  0  0  0
   44.4352   36.4964   44.8538 H   0  0  0  0  0  0  0  0  0  0  0  0
   45.2656   35.4686   46.9544 H   0  0  0  0  0  0  0  0  0  0  0  0
   46.2584   33.1679   46.7775 H   0  0  0  0  0  0  0  0  0  0  0  0
   46.4032   31.9892   44.6097 H   0  0  0  0  0  0  0  0  0  0  0  0
   45.5527   33.0841   42.5584 H   0  0  0  0  0  0  0  0  0  0  0  0
  1  6  2  0
  1  2  1  0
  2  3  2  0
  3  4  1  0
  3 17  1  0
  5  7  1  0
  5  4  2  0
  6  5  1  0
  7  8  2  0
  8  9  1  0
 10  9  2  0
 11 10  1  0
 12 11  2  0
 13 12  1  0
 14 13  2  0
 14 15  1  0
 15 16  2  0
 16 11  1  0
 16  7  1  0
 17 18  1  0
 18 20  1  0
 18 19  1  0
 20 21  1  0
 21 22  2  0
 22 23  1  0
 24 23  2  0
 25 24  1  0
 26 21  1  0
 26 25  2  0
  1 27  1  0
  2 28  1  0
  9 29  1  0
 12 30  1  0
 13 31  1  0
 14 32  1  0
 15 33  1  0
 18 34  1  1
 19 35  1  0
 19 36  1  0
 19 37  1  0
 20 38  1  0
 20 39  1  0
 22 40  1  0
 23 41  1  0
 24 42  1  0
 25 43  1  0
 26 44  1  0
M  ISO  8  27  14  28  14  29  14  30  14  31  14  32  14  33  14  34   8
M  ISO  8  35   8  36   8  37   8  38   8  39   8  40  14  41  14  42  14
M  ISO  2  43  14  44  14
M  END
>  <minimizedAffinity>  (1) 
-6.36286688

>  <minimizedRMSD>  (1) 
1.78876841

$$$$
