
     RDKit          3D

 30 32  0  0  0  0  0  0  0  0999 V2000
   38.6650   27.9700   43.3290 C   0  0  0  0  0  0  0  0  0  0  0  0
   37.3730   27.4150   43.1020 C   0  0  0  0  0  0  0  0  0  0  0  0
   36.4820   28.1270   42.2690 C   0  0  0  0  0  0  0  0  0  0  0  0
   36.9220   29.2970   41.7380 N   0  0  0  0  0  0  0  0  0  0  0  0
   38.1690   29.7930   41.9800 C   0  0  0  0  0  0  0  0  0  0  0  0
   39.0240   29.1400   42.7620 N   0  0  0  0  0  0  0  0  0  0  0  0
   38.4960   31.0350   41.3560 N   0  0  0  0  0  0  0  0  0  0  0  0
   37.5850   31.7680   40.7070 C   0  0  0  0  0  0  0  0  0  0  0  0
   38.0550   32.9360   40.1600 C   0  0  0  0  0  0  0  0  0  0  0  0
   39.3590   33.3630   40.2470 C   0  0  0  0  0  0  0  0  0  0  0  0
   39.7690   34.4290   39.7430 O   0  0  0  0  0  0  0  0  0  0  0  0
   40.2500   32.5870   40.9150 N   0  0  0  0  0  0  0  0  0  0  0  0
   39.7960   31.4170   41.4680 C   0  0  0  0  0  0  0  0  0  0  0  0
   40.6450   30.7120   42.0850 O   0  0  0  0  0  0  0  0  0  0  0  0
   37.1470   33.8310   39.4190 C   0  0  0  0  0  0  0  0  0  0  0  0
   41.6260   32.9430   41.0610 C   0  0  0  0  0  0  0  0  0  0  0  0
   42.7460   32.0160   41.0910 C   0  0  0  0  0  0  0  0  0  0  0  0
   42.4570   32.7540   39.7560 C   0  0  0  0  0  0  0  0  0  0  0  0
   39.3789   27.4378   43.9748 H   0  0  0  0  0  0  0  0  0  0  0  0
   37.0780   26.4603   43.5618 H   0  0  0  0  0  0  0  0  0  0  0  0
   35.4708   27.7486   42.0585 H   0  0  0  0  0  0  0  0  0  0  0  0
   36.5336   31.4570   40.6178 H   0  0  0  0  0  0  0  0  0  0  0  0
   36.5501   34.4194   40.1314 H   0  0  0  0  0  0  0  0  0  0  0  0
   37.7373   34.5103   38.7864 H   0  0  0  0  0  0  0  0  0  0  0  0
   36.4763   33.2310   38.7864 H   0  0  0  0  0  0  0  0  0  0  0  0
   41.3597   33.7317   41.7800 H   0  0  0  0  0  0  0  0  0  0  0  0
   43.6468   32.2706   41.6687 H   0  0  0  0  0  0  0  0  0  0  0  0
   42.8542   30.9577   41.3707 H   0  0  0  0  0  0  0  0  0  0  0  0
   42.0358   32.2135   38.8955 H   0  0  0  0  0  0  0  0  0  0  0  0
   43.0131   33.3981   39.0590 H   0  0  0  0  0  0  0  0  0  0  0  0
  2  1  2  0
  3  2  1  0
  4  5  1  0
  4  3  2  0
  5  6  2  0
  6  1  1  0
  7 13  1  0
  7  5  1  0
  8  7  1  0
  9 10  1  0
  9  8  2  0
 10 12  1  0
 11 10  2  0
 12 16  1  0
 12 13  1  0
 13 14  2  0
 15  9  1  0
 16 17  1  0
 18 16  1  0
 18 17  1  0
  1 19  1  0
  2 20  1  0
  3 21  1  0
  8 22  1  0
 15 23  1  0
 15 24  1  0
 15 25  1  0
 16 26  1  0
 17 27  1  0
 17 28  1  0
 18 29  1  0
 18 30  1  0
M  ISO  8  19  14  20  14  21  14  22  14  23   8  24   8  25   8  26  13
M  ISO  4  27  13  28  13  29  13  30  13
M  END
>  <minimizedAffinity>  (1) 
-4.92288828

>  <minimizedRMSD>  (1) 
1.05489969

$$$$
