
     RDKit          3D

 46 49  0  0  1  0  0  0  0  0999 V2000
   38.9230   35.6590   40.0890 C   0  0  0  0  0  0  0  0  0  0  0  0
   40.2940   35.7010   39.8330 C   0  0  0  0  0  0  0  0  0  0  0  0
   40.9190   34.4680   39.6050 C   0  0  0  0  0  0  0  0  0  0  0  0
   40.1370   33.3890   39.6560 N   0  0  0  0  0  0  0  0  0  0  0  0
   38.8410   33.3170   39.8950 C   0  0  0  0  0  0  0  0  0  0  0  0
   38.2820   34.4910   40.1050 N   0  0  0  0  0  0  0  0  0  0  0  0
   37.9010   32.2120   39.9750 C   0  0  0  0  0  0  0  0  0  0  0  0
   37.3570   31.7720   41.1140 N   0  0  0  0  0  0  0  0  0  0  0  0
   36.4940   30.7670   41.2170 C   0  0  0  0  0  0  0  0  0  0  0  0
   36.0970   30.1030   40.1600 N   0  0  0  0  0  0  0  0  0  0  0  0
   36.5700   30.4420   38.9380 C   0  0  0  0  0  0  0  0  0  0  0  0
   36.1570   29.7470   37.8240 C   0  0  0  0  0  0  0  0  0  0  0  0
   36.6100   30.0610   36.5960 C   0  0  0  0  0  0  0  0  0  0  0  0
   37.5320   31.1320   36.4810 C   0  0  0  0  0  0  0  0  0  0  0  0
   37.8990   31.7810   37.6440 C   0  0  0  0  0  0  0  0  0  0  0  0
   37.4570   31.4870   38.8920 C   0  0  0  0  0  0  0  0  0  0  0  0
   42.2200   34.3260   39.3460 O   0  0  0  0  0  0  0  0  0  0  0  0
   43.2240   34.1240   40.3240 C   0  0  2  0  0  0  0  0  0  0  0  0
   43.5670   32.6160   40.3300 C   0  0  0  0  0  0  0  0  0  0  0  0
   42.7060   34.5350   41.6800 C   0  0  0  0  0  0  0  0  0  0  0  0
   43.3390   35.8020   42.0040 N   0  0  0  0  0  0  0  0  0  0  0  0
   44.6700   35.5640   42.5220 C   0  0  0  0  0  0  0  0  0  0  0  0
   44.5450   35.8890   44.0230 C   0  0  0  0  0  0  0  0  0  0  0  0
   43.6120   37.0800   43.9210 C   0  0  0  0  0  0  0  0  0  0  0  0
   42.6030   36.6150   42.9060 C   0  0  0  0  0  0  0  0  0  0  0  0
   38.3707   36.5913   40.2778 H   0  0  0  0  0  0  0  0  0  0  0  0
   40.8524   36.6485   39.8114 H   0  0  0  0  0  0  0  0  0  0  0  0
   36.1060   30.4876   42.2076 H   0  0  0  0  0  0  0  0  0  0  0  0
   35.4426   28.9186   37.9396 H   0  0  0  0  0  0  0  0  0  0  0  0
   36.2751   29.5037   35.7087 H   0  0  0  0  0  0  0  0  0  0  0  0
   37.9389   31.4341   35.5047 H   0  0  0  0  0  0  0  0  0  0  0  0
   38.6144   32.6112   37.5492 H   0  0  0  0  0  0  0  0  0  0  0  0
   44.1163   34.7256   40.0962 H   0  0  0  0  0  0  0  0  0  0  0  0
   43.6474   32.2624   41.3685 H   0  0  0  0  0  0  0  0  0  0  0  0
   42.7730   32.0573   39.8129 H   0  0  0  0  0  0  0  0  0  0  0  0
   44.5245   32.4557   39.8129 H   0  0  0  0  0  0  0  0  0  0  0  0
   41.6130   34.6549   41.6476 H   0  0  0  0  0  0  0  0  0  0  0  0
   42.9368   33.7727   42.4387 H   0  0  0  0  0  0  0  0  0  0  0  0
   44.9671   34.5156   42.3717 H   0  0  0  0  0  0  0  0  0  0  0  0
   45.4369   36.1708   42.0182 H   0  0  0  0  0  0  0  0  0  0  0  0
   44.0973   35.0597   44.5903 H   0  0  0  0  0  0  0  0  0  0  0  0
   45.4923   36.0696   44.5521 H   0  0  0  0  0  0  0  0  0  0  0  0
   43.1337   37.2946   44.8880 H   0  0  0  0  0  0  0  0  0  0  0  0
   44.1207   38.0136   43.6388 H   0  0  0  0  0  0  0  0  0  0  0  0
   42.1598   37.4733   42.3798 H   0  0  0  0  0  0  0  0  0  0  0  0
   41.7702   36.0674   43.3713 H   0  0  0  0  0  0  0  0  0  0  0  0
  1  6  2  0
  2  1  1  0
  3  4  1  0
  3  2  2  0
  4  5  2  0
  5  7  1  0
  5  6  1  0
  7  8  2  0
  8  9  1  0
 10  9  2  0
 11 10  1  0
 12 11  2  0
 13 12  1  0
 14 13  2  0
 14 15  1  0
 15 16  2  0
 16 11  1  0
 16  7  1  0
 17  3  1  0
 17 18  1  0
 18 19  1  0
 18 20  1  0
 20 21  1  0
 21 22  1  0
 21 25  1  0
 22 23  1  0
 24 23  1  0
 25 24  1  0
  1 26  1  0
  2 27  1  0
  9 28  1  0
 12 29  1  0
 13 30  1  0
 14 31  1  0
 15 32  1  0
 18 33  1  6
 19 34  1  0
 19 35  1  0
 19 36  1  0
 20 37  1  0
 20 38  1  0
 22 39  1  0
 22 40  1  0
 23 41  1  0
 23 42  1  0
 24 43  1  0
 24 44  1  0
 25 45  1  0
 25 46  1  0
M  ISO  8  26  14  27  14  28  14  29  14  30  14  31  14  32  14  33   8
M  ISO  8  34   8  35   8  36   8  37   8  38   8  39  13  40  13  41  13
M  ISO  5  42  13  43  13  44  13  45  13  46  13
M  END
>  <minimizedAffinity>  (1) 
-6.19009781

>  <minimizedRMSD>  (1) 
2.87036967

$$$$
