
     RDKit          3D

 49 52  0  0  1  0  0  0  0  0999 V2000
   38.9810   35.5590   40.2000 C   0  0  0  0  0  0  0  0  0  0  0  0
   40.3070   35.5930   39.7600 C   0  0  0  0  0  0  0  0  0  0  0  0
   40.8480   34.3780   39.3220 C   0  0  0  0  0  0  0  0  0  0  0  0
   40.0350   33.3320   39.3780 N   0  0  0  0  0  0  0  0  0  0  0  0
   38.7880   33.2600   39.7850 C   0  0  0  0  0  0  0  0  0  0  0  0
   38.2980   34.4180   40.1930 N   0  0  0  0  0  0  0  0  0  0  0  0
   37.8240   32.1720   39.8840 C   0  0  0  0  0  0  0  0  0  0  0  0
   37.2560   31.7790   41.0320 N   0  0  0  0  0  0  0  0  0  0  0  0
   36.3760   30.7950   41.1600 C   0  0  0  0  0  0  0  0  0  0  0  0
   35.9850   30.1070   40.1180 N   0  0  0  0  0  0  0  0  0  0  0  0
   36.4730   30.3920   38.8940 C   0  0  0  0  0  0  0  0  0  0  0  0
   36.0580   29.6670   37.7900 C   0  0  0  0  0  0  0  0  0  0  0  0
   36.5400   29.9450   36.5500 C   0  0  0  0  0  0  0  0  0  0  0  0
   37.4770   30.9920   36.4110 C   0  0  0  0  0  0  0  0  0  0  0  0
   37.8440   31.6710   37.5590 C   0  0  0  0  0  0  0  0  0  0  0  0
   37.3840   31.4230   38.8150 C   0  0  0  0  0  0  0  0  0  0  0  0
   42.0920   34.2390   38.8730 O   0  0  0  0  0  0  0  0  0  0  0  0
   43.0310   33.2860   39.3540 C   0  0  2  0  0  0  0  0  0  0  0  0
   43.6510   33.8850   40.6450 C   0  0  0  0  0  0  0  0  0  0  0  0
   44.1160   33.0960   38.3390 C   0  0  0  0  0  0  0  0  0  0  0  0
   44.1130   31.8980   37.6290 N   0  0  0  0  0  0  0  0  0  0  0  0
   42.9760   31.0660   37.6310 C   0  0  0  0  0  0  0  0  0  0  0  0
   42.7470   30.5480   36.2260 C   0  0  0  0  0  0  0  0  0  0  0  0
   44.0120   30.0100   35.6100 C   0  0  0  0  0  0  0  0  0  0  0  0
   45.1280   31.0250   35.6920 C   0  0  0  0  0  0  0  0  0  0  0  0
   45.3360   31.3380   37.1820 C   0  0  0  0  0  0  0  0  0  0  0  0
   38.4991   36.4821   40.5544 H   0  0  0  0  0  0  0  0  0  0  0  0
   40.8937   36.5235   39.7579 H   0  0  0  0  0  0  0  0  0  0  0  0
   35.9701   30.5545   42.1537 H   0  0  0  0  0  0  0  0  0  0  0  0
   35.3278   28.8544   37.9182 H   0  0  0  0  0  0  0  0  0  0  0  0
   36.2077   29.3675   35.6747 H   0  0  0  0  0  0  0  0  0  0  0  0
   37.8980   31.2570   35.4299 H   0  0  0  0  0  0  0  0  0  0  0  0
   38.5744   32.4857   37.4460 H   0  0  0  0  0  0  0  0  0  0  0  0
   42.5478   32.3167   39.5463 H   0  0  0  0  0  0  0  0  0  0  0  0
   43.1772   33.4272   41.5259 H   0  0  0  0  0  0  0  0  0  0  0  0
   44.7316   33.6802   40.6620 H   0  0  0  0  0  0  0  0  0  0  0  0
   43.4835   34.9720   40.6620 H   0  0  0  0  0  0  0  0  0  0  0  0
   44.0350   33.9149   37.6090 H   0  0  0  0  0  0  0  0  0  0  0  0
   45.0510   33.0831   38.9184 H   0  0  0  0  0  0  0  0  0  0  0  0
   43.1383   30.2199   38.3150 H   0  0  0  0  0  0  0  0  0  0  0  0
   42.0970   31.6356   37.9670 H   0  0  0  0  0  0  0  0  0  0  0  0
   41.9989   29.7423   36.2620 H   0  0  0  0  0  0  0  0  0  0  0  0
   42.3979   31.3876   35.6069 H   0  0  0  0  0  0  0  0  0  0  0  0
   43.8230   29.7676   34.5538 H   0  0  0  0  0  0  0  0  0  0  0  0
   44.3159   29.1093   36.1635 H   0  0  0  0  0  0  0  0  0  0  0  0
   46.0503   30.6092   35.2602 H   0  0  0  0  0  0  0  0  0  0  0  0
   44.8749   31.9357   35.1293 H   0  0  0  0  0  0  0  0  0  0  0  0
   45.5631   30.4174   37.7395 H   0  0  0  0  0  0  0  0  0  0  0  0
   46.1798   32.0260   37.3391 H   0  0  0  0  0  0  0  0  0  0  0  0
  2  1  2  0
  3  4  2  0
  3  2  1  0
  4  5  1  0
  5  7  1  0
  5  6  2  0
  6  1  1  0
  7  8  2  0
  8  9  1  0
 10  9  2  0
 11 10  1  0
 12 11  2  0
 13 12  1  0
 14 13  2  0
 14 15  1  0
 15 16  2  0
 16 11  1  0
 16  7  1  0
 17  3  1  0
 17 18  1  0
 18 19  1  0
 20 18  1  0
 21 22  1  0
 21 20  1  0
 23 22  1  0
 24 25  1  0
 24 23  1  0
 25 26  1  0
 26 21  1  0
  1 27  1  0
  2 28  1  0
  9 29  1  0
 12 30  1  0
 13 31  1  0
 14 32  1  0
 15 33  1  0
 18 34  1  1
 19 35  1  0
 19 36  1  0
 19 37  1  0
 20 38  1  0
 20 39  1  0
 22 40  1  0
 22 41  1  0
 23 42  1  0
 23 43  1  0
 24 44  1  0
 24 45  1  0
 25 46  1  0
 25 47  1  0
 26 48  1  0
 26 49  1  0
M  ISO  8  27  14  28  14  29  14  30  14  31  14  32  14  33  14  34   8
M  ISO  8  35   8  36   8  37   8  38   8  39   8  40  13  41  13  42  13
M  ISO  7  43  13  44  13  45  13  46  13  47  13  48  13  49  13
M  END
>  <minimizedAffinity>  (1) 
-5.72194529

>  <minimizedRMSD>  (1) 
1.58353889

$$$$
