
     RDKit          3D

 39 42  0  0  1  0  0  0  0  0999 V2000
   38.9640   35.5510   40.2070 C   0  0  0  0  0  0  0  0  0  0  0  0
   40.2890   35.5960   39.7640 C   0  0  0  0  0  0  0  0  0  0  0  0
   40.8380   34.3860   39.3220 C   0  0  0  0  0  0  0  0  0  0  0  0
   40.0370   33.3260   39.3730 N   0  0  0  0  0  0  0  0  0  0  0  0
   38.7880   33.2410   39.7830 C   0  0  0  0  0  0  0  0  0  0  0  0
   38.2920   34.4060   40.1970 N   0  0  0  0  0  0  0  0  0  0  0  0
   37.8300   32.1590   39.8830 C   0  0  0  0  0  0  0  0  0  0  0  0
   37.2690   31.7640   41.0340 N   0  0  0  0  0  0  0  0  0  0  0  0
   36.3890   30.7810   41.1630 C   0  0  0  0  0  0  0  0  0  0  0  0
   35.9840   30.0900   40.1160 N   0  0  0  0  0  0  0  0  0  0  0  0
   36.4740   30.3870   38.8920 C   0  0  0  0  0  0  0  0  0  0  0  0
   36.0550   29.6680   37.7880 C   0  0  0  0  0  0  0  0  0  0  0  0
   36.5300   29.9440   36.5490 C   0  0  0  0  0  0  0  0  0  0  0  0
   37.4700   30.9940   36.4080 C   0  0  0  0  0  0  0  0  0  0  0  0
   37.8400   31.6670   37.5550 C   0  0  0  0  0  0  0  0  0  0  0  0
   37.3820   31.4130   38.8110 C   0  0  0  0  0  0  0  0  0  0  0  0
   42.0800   34.2570   38.8710 O   0  0  0  0  0  0  0  0  0  0  0  0
   42.9470   33.1750   39.1520 C   0  0  2  0  0  0  0  0  0  0  0  0
   43.7180   33.5300   40.4510 C   0  0  0  0  0  0  0  0  0  0  0  0
   43.9200   32.9790   38.0280 C   0  0  0  0  0  0  0  0  0  0  0  0
   43.5690   31.8770   37.1340 C   0  0  0  0  0  0  0  0  0  0  0  0
   42.3550   31.3380   36.9760 N   0  0  0  0  0  0  0  0  0  0  0  0
   42.4280   30.3840   36.1010 O   0  0  0  0  0  0  0  0  0  0  0  0
   43.6490   30.2770   35.6770 C   0  0  0  0  0  0  0  0  0  0  0  0
   44.3860   31.2060   36.3130 N   0  0  0  0  0  0  0  0  0  0  0  0
   38.4755   36.4690   40.5658 H   0  0  0  0  0  0  0  0  0  0  0  0
   40.8687   36.5308   39.7627 H   0  0  0  0  0  0  0  0  0  0  0  0
   35.9906   30.5382   42.1591 H   0  0  0  0  0  0  0  0  0  0  0  0
   35.3229   28.8573   37.9175 H   0  0  0  0  0  0  0  0  0  0  0  0
   36.1939   29.3670   35.6749 H   0  0  0  0  0  0  0  0  0  0  0  0
   37.8875   31.2618   35.4262 H   0  0  0  0  0  0  0  0  0  0  0  0
   38.5706   32.4817   37.4438 H   0  0  0  0  0  0  0  0  0  0  0  0
   42.3724   32.2447   39.2718 H   0  0  0  0  0  0  0  0  0  0  0  0
   43.1116   33.2508   41.3252 H   0  0  0  0  0  0  0  0  0  0  0  0
   44.6701   32.9796   40.4743 H   0  0  0  0  0  0  0  0  0  0  0  0
   43.9188   34.6113   40.4743 H   0  0  0  0  0  0  0  0  0  0  0  0
   43.9602   33.9062   37.4375 H   0  0  0  0  0  0  0  0  0  0  0  0
   44.8903   32.7289   38.4819 H   0  0  0  0  0  0  0  0  0  0  0  0
   44.0161   29.5563   34.9315 H   0  0  0  0  0  0  0  0  0  0  0  0
  2  1  2  0
  3  4  2  0
  3  2  1  0
  4  5  1  0
  5  7  1  0
  5  6  2  0
  6  1  1  0
  7  8  2  0
  8  9  1  0
 10  9  2  0
 11 10  1  0
 12 11  2  0
 13 12  1  0
 14 13  2  0
 14 15  1  0
 15 16  2  0
 16 11  1  0
 16  7  1  0
 17 18  1  0
 17  3  1  0
 18 19  1  0
 20 18  1  0
 21 20  1  0
 22 21  2  0
 23 22  1  0
 24 23  1  0
 24 25  2  0
 25 21  1  0
  1 26  1  0
  2 27  1  0
  9 28  1  0
 12 29  1  0
 13 30  1  0
 14 31  1  0
 15 32  1  0
 18 33  1  1
 19 34  1  0
 19 35  1  0
 19 36  1  0
 20 37  1  0
 20 38  1  0
 24 39  1  0
M  ISO  8  26  14  27  14  28  14  29  14  30  14  31  14  32  14  33   8
M  ISO  6  34   8  35   8  36   8  37   8  38   8  39  14
M  END
>  <minimizedAffinity>  (1) 
-5.63604927

>  <minimizedRMSD>  (1) 
1.71292102

$$$$
