
     RDKit          3D

 47 50  0  0  1  0  0  0  0  0999 V2000
   38.8960   35.6430   40.1120 C   0  0  0  0  0  0  0  0  0  0  0  0
   40.2410   35.7110   39.7900 C   0  0  0  0  0  0  0  0  0  0  0  0
   40.8610   34.4890   39.4870 C   0  0  0  0  0  0  0  0  0  0  0  0
   40.0920   33.4070   39.5430 N   0  0  0  0  0  0  0  0  0  0  0  0
   38.8150   33.3070   39.8430 C   0  0  0  0  0  0  0  0  0  0  0  0
   38.2520   34.4830   40.1260 N   0  0  0  0  0  0  0  0  0  0  0  0
   37.8770   32.2040   39.9370 C   0  0  0  0  0  0  0  0  0  0  0  0
   37.3400   31.7730   41.0900 N   0  0  0  0  0  0  0  0  0  0  0  0
   36.4830   30.7600   41.1920 C   0  0  0  0  0  0  0  0  0  0  0  0
   36.0920   30.0940   40.1480 N   0  0  0  0  0  0  0  0  0  0  0  0
   36.5520   30.4150   38.9190 C   0  0  0  0  0  0  0  0  0  0  0  0
   36.1390   29.7080   37.8170 C   0  0  0  0  0  0  0  0  0  0  0  0
   36.5930   30.0230   36.5800 C   0  0  0  0  0  0  0  0  0  0  0  0
   37.4960   31.0850   36.4500 C   0  0  0  0  0  0  0  0  0  0  0  0
   37.8670   31.7510   37.6020 C   0  0  0  0  0  0  0  0  0  0  0  0
   37.4390   31.4730   38.8580 C   0  0  0  0  0  0  0  0  0  0  0  0
   42.1500   34.3570   39.1540 O   0  0  0  0  0  0  0  0  0  0  0  0
   43.1420   33.7160   39.9410 C   0  0  2  0  0  0  0  0  0  0  0  0
   42.9740   34.2220   41.3870 C   0  0  0  0  0  0  0  0  0  0  0  0
   44.4990   34.0930   39.4190 C   0  0  0  0  0  0  0  0  0  0  0  0
   45.1630   32.9740   38.7590 N   0  0  0  0  0  0  0  0  0  0  0  0
   45.0880   33.2240   37.3530 C   0  0  0  0  0  0  0  0  0  0  0  0
   46.3360   33.3360   36.5790 C   0  0  0  0  0  0  0  0  0  0  0  0
   47.2120   32.3180   37.0390 O   0  0  0  0  0  0  0  0  0  0  0  0
   47.6080   32.7960   38.2870 C   0  0  0  0  0  0  0  0  0  0  0  0
   46.5090   32.8710   39.2720 C   0  0  0  0  0  0  0  0  0  0  0  0
   38.3522   36.5663   40.3604 H   0  0  0  0  0  0  0  0  0  0  0  0
   40.7897   36.6642   39.7728 H   0  0  0  0  0  0  0  0  0  0  0  0
   36.0970   30.4804   42.1834 H   0  0  0  0  0  0  0  0  0  0  0  0
   35.4307   28.8754   37.9399 H   0  0  0  0  0  0  0  0  0  0  0  0
   36.2596   29.4571   35.6976 H   0  0  0  0  0  0  0  0  0  0  0  0
   37.8950   31.3780   35.4677 H   0  0  0  0  0  0  0  0  0  0  0  0
   38.5758   32.5847   37.4898 H   0  0  0  0  0  0  0  0  0  0  0  0
   43.0406   32.6214   39.9026 H   0  0  0  0  0  0  0  0  0  0  0  0
   43.2406   33.4189   42.0898 H   0  0  0  0  0  0  0  0  0  0  0  0
   43.6331   35.0871   41.5516 H   0  0  0  0  0  0  0  0  0  0  0  0
   41.9283   34.5211   41.5516 H   0  0  0  0  0  0  0  0  0  0  0  0
   44.3855   34.9145   38.6963 H   0  0  0  0  0  0  0  0  0  0  0  0
   45.1188   34.3977   40.2751 H   0  0  0  0  0  0  0  0  0  0  0  0
   44.5070   32.4016   36.9102 H   0  0  0  0  0  0  0  0  0  0  0  0
   44.6465   34.2294   37.2876 H   0  0  0  0  0  0  0  0  0  0  0  0
   46.7908   34.3246   36.7395 H   0  0  0  0  0  0  0  0  0  0  0  0
   46.1380   33.2219   35.5030 H   0  0  0  0  0  0  0  0  0  0  0  0
   48.3851   32.1265   38.6844 H   0  0  0  0  0  0  0  0  0  0  0  0
   47.9741   33.8222   38.1361 H   0  0  0  0  0  0  0  0  0  0  0  0
   46.6904   33.7541   39.9022 H   0  0  0  0  0  0  0  0  0  0  0  0
   46.5364   31.9055   39.7983 H   0  0  0  0  0  0  0  0  0  0  0  0
  1  6  2  0
  2  1  1  0
  3  4  1  0
  3  2  2  0
  4  5  2  0
  5  7  1  0
  5  6  1  0
  7  8  2  0
  8  9  1  0
 10  9  2  0
 11 10  1  0
 12 11  2  0
 13 12  1  0
 14 13  2  0
 14 15  1  0
 15 16  2  0
 16 11  1  0
 16  7  1  0
 17  3  1  0
 17 18  1  0
 18 19  1  0
 20 18  1  0
 21 26  1  0
 21 20  1  0
 22 21  1  0
 23 24  1  0
 23 22  1  0
 24 25  1  0
 25 26  1  0
  1 27  1  0
  2 28  1  0
  9 29  1  0
 12 30  1  0
 13 31  1  0
 14 32  1  0
 15 33  1  0
 18 34  1  1
 19 35  1  0
 19 36  1  0
 19 37  1  0
 20 38  1  0
 20 39  1  0
 22 40  1  0
 22 41  1  0
 23 42  1  0
 23 43  1  0
 25 44  1  0
 25 45  1  0
 26 46  1  0
 26 47  1  0
M  ISO  8  27  14  28  14  29  14  30  14  31  14  32  14  33  14  34   8
M  ISO  8  35   8  36   8  37   8  38   8  39   8  40  13  41  13  42  13
M  ISO  5  43  13  44  13  45  13  46  13  47  13
M  END
>  <minimizedAffinity>  (1) 
-5.62538242

>  <minimizedRMSD>  (1) 
1.6800698

$$$$
