
     RDKit          3D

 41 44  0  0  1  0  0  0  0  0999 V2000
   38.8450   35.4900   40.1550 C   0  0  0  0  0  0  0  0  0  0  0  0
   40.1900   35.8430   40.3180 C   0  0  0  0  0  0  0  0  0  0  0  0
   41.0810   34.7900   40.5650 C   0  0  0  0  0  0  0  0  0  0  0  0
   40.5490   33.5730   40.6170 N   0  0  0  0  0  0  0  0  0  0  0  0
   39.2910   33.2010   40.4700 C   0  0  0  0  0  0  0  0  0  0  0  0
   38.4700   34.2200   40.2360 N   0  0  0  0  0  0  0  0  0  0  0  0
   38.6040   31.9280   40.5050 C   0  0  0  0  0  0  0  0  0  0  0  0
   38.4410   31.2010   41.6180 N   0  0  0  0  0  0  0  0  0  0  0  0
   37.8170   30.0310   41.6900 C   0  0  0  0  0  0  0  0  0  0  0  0
   37.2940   29.4820   40.6200 N   0  0  0  0  0  0  0  0  0  0  0  0
   37.3840   30.1050   39.4250 C   0  0  0  0  0  0  0  0  0  0  0  0
   36.8330   29.5290   38.2970 C   0  0  0  0  0  0  0  0  0  0  0  0
   36.9200   30.1530   37.0890 C   0  0  0  0  0  0  0  0  0  0  0  0
   37.5760   31.3870   37.0080 C   0  0  0  0  0  0  0  0  0  0  0  0
   38.1030   31.9040   38.1780 C   0  0  0  0  0  0  0  0  0  0  0  0
   38.0410   31.3160   39.4090 C   0  0  0  0  0  0  0  0  0  0  0  0
   42.3910   34.9470   40.7440 O   0  0  0  0  0  0  0  0  0  0  0  0
   43.0990   34.5450   41.9070 C   0  0  2  0  0  0  0  0  0  0  0  0
   43.7770   35.8090   42.4900 C   0  0  0  0  0  0  0  0  0  0  0  0
   44.1580   33.5380   41.5360 C   0  0  0  0  0  0  0  0  0  0  0  0
   44.6680   33.7350   40.2130 N   0  0  0  0  0  0  0  0  0  0  0  0
   45.7690   34.4710   39.9160 C   0  0  0  0  0  0  0  0  0  0  0  0
   46.0160   34.4790   38.5630 C   0  0  0  0  0  0  0  0  0  0  0  0
   45.0450   33.7300   38.0080 N   0  0  0  0  0  0  0  0  0  0  0  0
   44.2710   33.3100   39.0160 C   0  0  0  0  0  0  0  0  0  0  0  0
   38.0948   36.2702   39.9586 H   0  0  0  0  0  0  0  0  0  0  0  0
   40.5282   36.8879   40.2557 H   0  0  0  0  0  0  0  0  0  0  0  0
   37.7378   29.5161   42.6588 H   0  0  0  0  0  0  0  0  0  0  0  0
   36.3200   28.5590   38.3746 H   0  0  0  0  0  0  0  0  0  0  0  0
   36.4813   29.6940   36.1907 H   0  0  0  0  0  0  0  0  0  0  0  0
   37.6687   31.9240   36.0525 H   0  0  0  0  0  0  0  0  0  0  0  0
   38.6172   32.8741   38.1108 H   0  0  0  0  0  0  0  0  0  0  0  0
   42.4175   34.0865   42.6386 H   0  0  0  0  0  0  0  0  0  0  0  0
   43.7530   35.7642   43.5888 H   0  0  0  0  0  0  0  0  0  0  0  0
   44.8213   35.8559   42.1477 H   0  0  0  0  0  0  0  0  0  0  0  0
   43.2384   36.7049   42.1477 H   0  0  0  0  0  0  0  0  0  0  0  0
   44.9902   33.6230   42.2503 H   0  0  0  0  0  0  0  0  0  0  0  0
   43.6945   32.5410   41.5685 H   0  0  0  0  0  0  0  0  0  0  0  0
   46.3851   34.9943   40.6621 H   0  0  0  0  0  0  0  0  0  0  0  0
   46.8378   34.9919   38.0418 H   0  0  0  0  0  0  0  0  0  0  0  0
   43.3873   32.6717   38.8685 H   0  0  0  0  0  0  0  0  0  0  0  0
  1  6  2  0
  1  2  1  0
  2  3  2  0
  3  4  1  0
  3 17  1  0
  5  7  1  0
  5  4  2  0
  6  5  1  0
  7  8  2  0
  8  9  1  0
 10  9  2  0
 11 10  1  0
 12 11  2  0
 13 12  1  0
 14 13  2  0
 14 15  1  0
 15 16  2  0
 16 11  1  0
 16  7  1  0
 17 18  1  0
 18 19  1  0
 20 18  1  0
 21 20  1  0
 22 21  1  0
 23 22  2  0
 24 23  1  0
 24 25  2  0
 25 21  1  0
  1 26  1  0
  2 27  1  0
  9 28  1  0
 12 29  1  0
 13 30  1  0
 14 31  1  0
 15 32  1  0
 18 33  1  1
 19 34  1  0
 19 35  1  0
 19 36  1  0
 20 37  1  0
 20 38  1  0
 22 39  1  0
 23 40  1  0
 25 41  1  0
M  ISO  8  26  14  27  14  28  14  29  14  30  14  31  14  32  14  33   8
M  ISO  8  34   8  35   8  36   8  37   8  38   8  39  14  40  14  41  14
M  END
>  <minimizedAffinity>  (1) 
-5.58109617

>  <minimizedRMSD>  (1) 
1.04061496

$$$$
