
     RDKit          3D

 41 44  0  0  1  0  0  0  0  0999 V2000
   38.6560   35.5800   40.0040 C   0  0  0  0  0  0  0  0  0  0  0  0
   40.0490   35.6410   39.9110 C   0  0  0  0  0  0  0  0  0  0  0  0
   40.7250   34.4170   39.8320 C   0  0  0  0  0  0  0  0  0  0  0  0
   39.9630   33.3280   39.8540 N   0  0  0  0  0  0  0  0  0  0  0  0
   38.6490   33.2320   39.9400 C   0  0  0  0  0  0  0  0  0  0  0  0
   38.0340   34.4070   40.0140 N   0  0  0  0  0  0  0  0  0  0  0  0
   37.7220   32.1160   39.9750 C   0  0  0  0  0  0  0  0  0  0  0  0
   37.1400   31.6640   41.1020 N   0  0  0  0  0  0  0  0  0  0  0  0
   36.2880   30.6470   41.1710 C   0  0  0  0  0  0  0  0  0  0  0  0
   35.9410   29.9840   40.0940 N   0  0  0  0  0  0  0  0  0  0  0  0
   36.4550   30.3360   38.8940 C   0  0  0  0  0  0  0  0  0  0  0  0
   36.0890   29.6390   37.7560 C   0  0  0  0  0  0  0  0  0  0  0  0
   36.5940   29.9800   36.5380 C   0  0  0  0  0  0  0  0  0  0  0  0
   37.4930   31.0540   36.4610 C   0  0  0  0  0  0  0  0  0  0  0  0
   37.8100   31.7000   37.6390 C   0  0  0  0  0  0  0  0  0  0  0  0
   37.3310   31.3940   38.8770 C   0  0  0  0  0  0  0  0  0  0  0  0
   42.0450   34.3030   39.7400 O   0  0  0  0  0  0  0  0  0  0  0  0
   42.8930   33.8180   40.7660 C   0  0  2  0  0  0  0  0  0  0  0  0
   43.1100   34.9740   41.7690 C   0  0  0  0  0  0  0  0  0  0  0  0
   44.2150   33.3910   40.2110 C   0  0  0  0  0  0  0  0  0  0  0  0
   44.5410   34.0590   38.9260 C   0  0  0  0  0  0  0  0  0  0  0  0
   45.4780   33.4780   37.9390 C   0  0  0  0  0  0  0  0  0  0  0  0
   46.0110   34.5800   38.8400 C   0  0  0  0  0  0  0  0  0  0  0  0
   38.0713   36.5094   40.0693 H   0  0  0  0  0  0  0  0  0  0  0  0
   40.5867   36.6006   39.9004 H   0  0  0  0  0  0  0  0  0  0  0  0
   35.8677   30.3569   42.1453 H   0  0  0  0  0  0  0  0  0  0  0  0
   35.3821   28.8000   37.8360 H   0  0  0  0  0  0  0  0  0  0  0  0
   36.3031   29.4250   35.6339 H   0  0  0  0  0  0  0  0  0  0  0  0
   37.9278   31.3687   35.5008 H   0  0  0  0  0  0  0  0  0  0  0  0
   38.5158   32.5410   37.5717 H   0  0  0  0  0  0  0  0  0  0  0  0
   42.4314   32.9449   41.2503 H   0  0  0  0  0  0  0  0  0  0  0  0
   43.0373   34.5868   42.7960 H   0  0  0  0  0  0  0  0  0  0  0  0
   44.1063   35.4132   41.6124 H   0  0  0  0  0  0  0  0  0  0  0  0
   42.3408   35.7446   41.6124 H   0  0  0  0  0  0  0  0  0  0  0  0
   44.9990   33.6349   40.9430 H   0  0  0  0  0  0  0  0  0  0  0  0
   44.1600   32.3095   40.0180 H   0  0  0  0  0  0  0  0  0  0  0  0
   43.5163   34.4440   38.8174 H   0  0  0  0  0  0  0  0  0  0  0  0
   45.3296   33.6779   36.8675 H   0  0  0  0  0  0  0  0  0  0  0  0
   45.8073   32.4529   37.7136 H   0  0  0  0  0  0  0  0  0  0  0  0
   46.7320   34.3476   39.6376 H   0  0  0  0  0  0  0  0  0  0  0  0
   46.4996   35.5550   38.6961 H   0  0  0  0  0  0  0  0  0  0  0  0
  1  6  2  0
  2  1  1  0
  3  4  1  0
  3  2  2  0
  4  5  2  0
  5  7  1  0
  5  6  1  0
  7  8  2  0
  8  9  1  0
 10  9  2  0
 11 10  1  0
 12 11  2  0
 13 12  1  0
 14 13  2  0
 14 15  1  0
 15 16  2  0
 16 11  1  0
 16  7  1  0
 17  3  1  0
 17 18  1  0
 18 19  1  0
 20 18  1  0
 21 20  1  0
 22 23  1  0
 22 21  1  0
 23 21  1  0
  1 24  1  0
  2 25  1  0
  9 26  1  0
 12 27  1  0
 13 28  1  0
 14 29  1  0
 15 30  1  0
 18 31  1  1
 19 32  1  0
 19 33  1  0
 19 34  1  0
 20 35  1  0
 20 36  1  0
 21 37  1  0
 22 38  1  0
 22 39  1  0
 23 40  1  0
 23 41  1  0
M  ISO  8  24  14  25  14  26  14  27  14  28  14  29  14  30  14  31   8
M  ISO  8  32   8  33   8  34   8  35   8  36   8  37  13  38  13  39  13
M  ISO  2  40  13  41  13
M  END
>  <minimizedAffinity>  (1) 
-5.3263402

>  <minimizedRMSD>  (1) 
1.21917439

$$$$
