
     RDKit          3D

 29 30  0  0  0  0  0  0  0  0999 V2000
   38.6620   27.7620   43.3760 C   0  0  0  0  0  0  0  0  0  0  0  0
   37.3630   27.2480   43.1880 C   0  0  0  0  0  0  0  0  0  0  0  0
   36.4730   27.9770   42.3890 C   0  0  0  0  0  0  0  0  0  0  0  0
   36.9100   29.1400   41.8380 N   0  0  0  0  0  0  0  0  0  0  0  0
   38.1650   29.6090   42.0360 C   0  0  0  0  0  0  0  0  0  0  0  0
   39.0390   28.9300   42.7980 N   0  0  0  0  0  0  0  0  0  0  0  0
   38.5060   30.8330   41.4110 N   0  0  0  0  0  0  0  0  0  0  0  0
   37.6040   31.5680   40.7460 C   0  0  0  0  0  0  0  0  0  0  0  0
   38.0830   32.7250   40.1950 C   0  0  0  0  0  0  0  0  0  0  0  0
   39.3880   33.1560   40.2830 C   0  0  0  0  0  0  0  0  0  0  0  0
   39.8170   34.2290   39.7670 O   0  0  0  0  0  0  0  0  0  0  0  0
   40.2640   32.3710   40.9690 N   0  0  0  0  0  0  0  0  0  0  0  0
   39.8090   31.2220   41.5220 C   0  0  0  0  0  0  0  0  0  0  0  0
   40.6600   30.5160   42.1550 O   0  0  0  0  0  0  0  0  0  0  0  0
   37.1830   33.6250   39.4340 C   0  0  0  0  0  0  0  0  0  0  0  0
   41.6620   32.7330   41.1210 C   0  0  0  0  0  0  0  0  0  0  0  0
   42.5200   32.2530   39.9660 C   0  0  0  0  0  0  0  0  0  0  0  0
   39.3796   27.2087   43.9997 H   0  0  0  0  0  0  0  0  0  0  0  0
   37.0567   26.3007   43.6558 H   0  0  0  0  0  0  0  0  0  0  0  0
   35.4483   27.6180   42.2123 H   0  0  0  0  0  0  0  0  0  0  0  0
   36.5517   31.2623   40.6499 H   0  0  0  0  0  0  0  0  0  0  0  0
   36.5841   34.2239   40.1360 H   0  0  0  0  0  0  0  0  0  0  0  0
   37.7837   34.2945   38.8008 H   0  0  0  0  0  0  0  0  0  0  0  0
   36.5135   33.0243   38.8008 H   0  0  0  0  0  0  0  0  0  0  0  0
   41.7370   33.8287   41.1835 H   0  0  0  0  0  0  0  0  0  0  0  0
   42.0335   32.2470   42.0352 H   0  0  0  0  0  0  0  0  0  0  0  0
   43.4166   31.7514   40.3590 H   0  0  0  0  0  0  0  0  0  0  0  0
   41.9443   31.5459   39.3507 H   0  0  0  0  0  0  0  0  0  0  0  0
   42.8213   33.1136   39.3507 H   0  0  0  0  0  0  0  0  0  0  0  0
  2  1  2  0
  3  2  1  0
  4  5  1  0
  4  3  2  0
  5  6  2  0
  6  1  1  0
  7 13  1  0
  7  5  1  0
  8  7  1  0
  9 10  1  0
  9  8  2  0
 10 12  1  0
 11 10  2  0
 12 16  1  0
 12 13  1  0
 13 14  2  0
 15  9  1  0
 17 16  1  0
  1 18  1  0
  2 19  1  0
  3 20  1  0
  8 21  1  0
 15 22  1  0
 15 23  1  0
 15 24  1  0
 16 25  1  0
 16 26  1  0
 17 27  1  0
 17 28  1  0
 17 29  1  0
M  ISO  8  18  14  19  14  20  14  21  14  22   8  23   8  24   8  25   8
M  ISO  4  26   8  27   8  28   8  29   8
M  END
>  <minimizedAffinity>  (1) 
-4.79638958

>  <minimizedRMSD>  (1) 
0.63969624

$$$$
