
     RDKit          3D

 35 37  0  0  1  0  0  0  0  0999 V2000
   38.6220   35.5160   39.9800 C   0  0  0  0  0  0  0  0  0  0  0  0
   40.0160   35.5690   40.0200 C   0  0  0  0  0  0  0  0  0  0  0  0
   40.6860   34.3410   40.0700 C   0  0  0  0  0  0  0  0  0  0  0  0
   39.9210   33.2550   40.0720 N   0  0  0  0  0  0  0  0  0  0  0  0
   38.6010   33.1700   40.0350 C   0  0  0  0  0  0  0  0  0  0  0  0
   37.9960   34.3440   39.9890 N   0  0  0  0  0  0  0  0  0  0  0  0
   37.6690   32.0540   40.0340 C   0  0  0  0  0  0  0  0  0  0  0  0
   37.0660   31.5840   41.1350 N   0  0  0  0  0  0  0  0  0  0  0  0
   36.2110   30.5690   41.1720 C   0  0  0  0  0  0  0  0  0  0  0  0
   35.8830   29.9250   40.0730 N   0  0  0  0  0  0  0  0  0  0  0  0
   36.4210   30.2970   38.8910 C   0  0  0  0  0  0  0  0  0  0  0  0
   36.0780   29.6250   37.7340 C   0  0  0  0  0  0  0  0  0  0  0  0
   36.5950   29.9740   36.5370 C   0  0  0  0  0  0  0  0  0  0  0  0
   37.5050   31.0540   36.4920 C   0  0  0  0  0  0  0  0  0  0  0  0
   37.8040   31.6820   37.6860 C   0  0  0  0  0  0  0  0  0  0  0  0
   37.2990   31.3530   38.9040 C   0  0  0  0  0  0  0  0  0  0  0  0
   42.0110   34.2140   40.1130 O   0  0  0  0  0  0  0  0  0  0  0  0
   42.7560   33.8750   41.2720 C   0  0  2  0  0  0  0  0  0  0  0  0
   43.1800   35.2010   41.9490 C   0  0  0  0  0  0  0  0  0  0  0  0
   43.9810   33.0950   40.8870 C   0  0  0  0  0  0  0  0  0  0  0  0
   43.7280   32.0790   40.0030 O   0  0  0  0  0  0  0  0  0  0  0  0
   38.0392   36.4481   39.9409 H   0  0  0  0  0  0  0  0  0  0  0  0
   40.5595   36.5253   40.0126 H   0  0  0  0  0  0  0  0  0  0  0  0
   35.7718   30.2630   42.1330 H   0  0  0  0  0  0  0  0  0  0  0  0
   35.3678   28.7868   37.7893 H   0  0  0  0  0  0  0  0  0  0  0  0
   36.3155   29.4323   35.6213 H   0  0  0  0  0  0  0  0  0  0  0  0
   37.9573   31.3817   35.5444 H   0  0  0  0  0  0  0  0  0  0  0  0
   38.5131   32.5220   37.6472 H   0  0  0  0  0  0  0  0  0  0  0  0
   42.1517   33.2577   41.9530 H   0  0  0  0  0  0  0  0  0  0  0  0
   43.1423   35.0831   43.0420 H   0  0  0  0  0  0  0  0  0  0  0  0
   44.2050   35.4575   41.6430 H   0  0  0  0  0  0  0  0  0  0  0  0
   42.4940   36.0046   41.6430 H   0  0  0  0  0  0  0  0  0  0  0  0
   44.7026   33.7856   40.4261 H   0  0  0  0  0  0  0  0  0  0  0  0
   44.3722   32.6338   41.8058 H   0  0  0  0  0  0  0  0  0  0  0  0
   43.5216   31.2500   40.5033 H   0  0  0  0  0  0  0  0  0  0  0  0
  1  6  2  0
  1  2  1  0
  2  3  2  0
  3  4  1  0
  3 17  1  0
  5  4  2  0
  6  5  1  0
  7  5  1  0
  7  8  2  0
  8  9  1  0
 10  9  2  0
 11 16  2  0
 11 10  1  0
 12 11  1  0
 13 12  2  0
 14 13  1  0
 14 15  2  0
 15 16  1  0
 16  7  1  0
 17 18  1  0
 18 19  1  0
 20 18  1  0
 21 20  1  0
  1 22  1  0
  2 23  1  0
  9 24  1  0
 12 25  1  0
 13 26  1  0
 14 27  1  0
 15 28  1  0
 18 29  1  1
 19 30  1  0
 19 31  1  0
 19 32  1  0
 20 33  1  0
 20 34  1  0
 21 35  1  0
M  ISO  8  22  14  23  14  24  14  25  14  26  14  27  14  28  14  29   8
M  ISO  6  30   8  31   8  32   8  33   8  34   8  35   3
M  END
>  <minimizedAffinity>  (1) 
-5.02284384

>  <minimizedRMSD>  (1) 
0.0613204762

$$$$
