
     RDKit          3D

 43 46  0  0  1  0  0  0  0  0999 V2000
   38.7510   35.5210   40.1230 C   0  0  0  0  0  0  0  0  0  0  0  0
   40.0990   35.8870   40.2500 C   0  0  0  0  0  0  0  0  0  0  0  0
   41.0180   34.8370   40.4760 C   0  0  0  0  0  0  0  0  0  0  0  0
   40.5060   33.6230   40.5420 N   0  0  0  0  0  0  0  0  0  0  0  0
   39.2500   33.2430   40.4290 C   0  0  0  0  0  0  0  0  0  0  0  0
   38.4060   34.2400   40.2180 N   0  0  0  0  0  0  0  0  0  0  0  0
   38.5920   31.9460   40.4890 C   0  0  0  0  0  0  0  0  0  0  0  0
   38.4620   31.2240   41.6200 N   0  0  0  0  0  0  0  0  0  0  0  0
   37.8720   30.0450   41.7100 C   0  0  0  0  0  0  0  0  0  0  0  0
   37.3420   29.4650   40.6400 N   0  0  0  0  0  0  0  0  0  0  0  0
   37.4040   30.0850   39.4420 C   0  0  0  0  0  0  0  0  0  0  0  0
   36.8600   29.4920   38.3320 C   0  0  0  0  0  0  0  0  0  0  0  0
   36.9040   30.0840   37.1130 C   0  0  0  0  0  0  0  0  0  0  0  0
   37.5360   31.3500   37.0120 C   0  0  0  0  0  0  0  0  0  0  0  0
   38.0600   31.8840   38.1670 C   0  0  0  0  0  0  0  0  0  0  0  0
   38.0300   31.3140   39.3960 C   0  0  0  0  0  0  0  0  0  0  0  0
   42.3070   35.0760   40.6130 O   0  0  0  0  0  0  0  0  0  0  0  0
   43.0510   34.8900   41.8040 C   0  0  2  0  0  0  0  0  0  0  0  0
   42.8950   36.2610   42.5680 C   0  0  0  0  0  0  0  0  0  0  0  0
   44.4910   34.6510   41.5420 C   0  0  0  0  0  0  0  0  0  0  0  0
   45.0960   34.2080   42.7900 N   0  0  0  0  0  0  0  0  0  0  0  0
   46.2580   34.6980   43.3020 C   0  0  0  0  0  0  0  0  0  0  0  0
   46.5420   34.0780   44.4640 N   0  0  0  0  0  0  0  0  0  0  0  0
   45.5290   33.1870   44.6680 C   0  0  0  0  0  0  0  0  0  0  0  0
   44.6610   33.2860   43.6310 N   0  0  0  0  0  0  0  0  0  0  0  0
   45.4160   32.2710   45.8360 C   0  0  0  0  0  0  0  0  0  0  0  0
   46.2080   31.1730   45.6110 F   0  0  0  0  0  0  0  0  0  0  0  0
   44.1080   31.8000   45.9950 F   0  0  0  0  0  0  0  0  0  0  0  0
   45.8590   32.8960   46.9630 F   0  0  0  0  0  0  0  0  0  0  0  0
   37.9836   36.2889   39.9459 H   0  0  0  0  0  0  0  0  0  0  0  0
   40.4238   36.9355   40.1776 H   0  0  0  0  0  0  0  0  0  0  0  0
   37.8194   29.5375   42.6845 H   0  0  0  0  0  0  0  0  0  0  0  0
   36.3750   28.5099   38.4331 H   0  0  0  0  0  0  0  0  0  0  0  0
   36.4635   29.5979   36.2301 H   0  0  0  0  0  0  0  0  0  0  0  0
   37.6043   31.8820   36.0516 H   0  0  0  0  0  0  0  0  0  0  0  0
   38.5492   32.8658   38.0849 H   0  0  0  0  0  0  0  0  0  0  0  0
   42.6887   34.0132   42.3608 H   0  0  0  0  0  0  0  0  0  0  0  0
   42.9155   36.0806   43.6529 H   0  0  0  0  0  0  0  0  0  0  0  0
   43.7227   36.9308   42.2920 H   0  0  0  0  0  0  0  0  0  0  0  0
   41.9379   36.7278   42.2920 H   0  0  0  0  0  0  0  0  0  0  0  0
   44.6086   33.8748   40.7715 H   0  0  0  0  0  0  0  0  0  0  0  0
   44.9765   35.5697   41.1811 H   0  0  0  0  0  0  0  0  0  0  0  0
   46.8730   35.4825   42.8369 H   0  0  0  0  0  0  0  0  0  0  0  0
  1  6  2  0
  1  2  1  0
  2  3  2  0
  3  4  1  0
  3 17  1  0
  5  7  1  0
  5  4  2  0
  6  5  1  0
  7  8  2  0
  8  9  1  0
 10  9  2  0
 11 10  1  0
 12 11  2  0
 13 12  1  0
 14 13  2  0
 14 15  1  0
 15 16  2  0
 16 11  1  0
 16  7  1  0
 17 18  1  0
 18 19  1  0
 20 18  1  0
 20 21  1  0
 21 22  1  0
 21 25  1  0
 22 23  2  0
 23 24  1  0
 24 26  1  0
 25 24  2  0
 26 28  1  0
 26 29  1  0
 27 26  1  0
  1 30  1  0
  2 31  1  0
  9 32  1  0
 12 33  1  0
 13 34  1  0
 14 35  1  0
 15 36  1  0
 18 37  1  1
 19 38  1  0
 19 39  1  0
 19 40  1  0
 20 41  1  0
 20 42  1  0
 22 43  1  0
M  ISO  8  30  14  31  14  32  14  33  14  34  14  35  14  36  14  37   8
M  ISO  6  38   8  39   8  40   8  41   8  42   8  43  14
M  END
>  <minimizedAffinity>  (1) 
-6.34672117

>  <minimizedRMSD>  (1) 
0.0694242194

$$$$
