
     RDKit          3D

 47 51  0  0  1  0  0  0  0  0999 V2000
   38.8390   35.6050   40.1330 C   0  0  0  0  0  0  0  0  0  0  0  0
   40.1670   36.0260   40.3100 C   0  0  0  0  0  0  0  0  0  0  0  0
   41.1080   35.0130   40.6000 C   0  0  0  0  0  0  0  0  0  0  0  0
   40.6410   33.7840   40.6730 N   0  0  0  0  0  0  0  0  0  0  0  0
   39.4120   33.3450   40.5160 C   0  0  0  0  0  0  0  0  0  0  0  0
   38.5340   34.3150   40.2430 N   0  0  0  0  0  0  0  0  0  0  0  0
   38.7900   32.0350   40.5770 C   0  0  0  0  0  0  0  0  0  0  0  0
   38.7220   31.2920   41.7030 N   0  0  0  0  0  0  0  0  0  0  0  0
   38.1650   30.0970   41.7950 C   0  0  0  0  0  0  0  0  0  0  0  0
   37.6110   29.5220   40.7410 N   0  0  0  0  0  0  0  0  0  0  0  0
   37.6140   30.1640   39.5460 C   0  0  0  0  0  0  0  0  0  0  0  0
   37.0390   29.5730   38.4390 C   0  0  0  0  0  0  0  0  0  0  0  0
   37.0230   30.1850   37.2360 C   0  0  0  0  0  0  0  0  0  0  0  0
   37.6210   31.4700   37.1340 C   0  0  0  0  0  0  0  0  0  0  0  0
   38.1770   32.0020   38.2790 C   0  0  0  0  0  0  0  0  0  0  0  0
   38.2050   31.4080   39.4980 C   0  0  0  0  0  0  0  0  0  0  0  0
   42.3810   35.3030   40.7880 O   0  0  0  0  0  0  0  0  0  0  0  0
   43.0890   35.1250   42.0030 C   0  0  2  0  0  0  0  0  0  0  0  0
   42.8220   36.4620   42.7940 C   0  0  0  0  0  0  0  0  0  0  0  0
   44.5510   34.9880   41.7810 C   0  0  0  0  0  0  0  0  0  0  0  0
   45.1070   34.3140   42.9480 N   0  0  0  0  0  0  0  0  0  0  0  0
   46.2310   34.7200   43.6060 C   0  0  0  0  0  0  0  0  0  0  0  0
   46.4810   33.8900   44.6350 N   0  0  0  0  0  0  0  0  0  0  0  0
   45.4860   32.9540   44.6080 C   0  0  0  0  0  0  0  0  0  0  0  0
   44.6630   33.2410   43.5650 N   0  0  0  0  0  0  0  0  0  0  0  0
   45.3500   31.8330   45.5570 C   0  0  0  0  0  0  0  0  0  0  0  0
   44.3900   31.9210   46.7190 C   0  0  0  0  0  0  0  0  0  0  0  0
   44.1580   30.9580   45.5640 C   0  0  0  0  0  0  0  0  0  0  0  0
   38.0533   36.3400   39.9040 H   0  0  0  0  0  0  0  0  0  0  0  0
   40.4578   37.0837   40.2276 H   0  0  0  0  0  0  0  0  0  0  0  0
   38.1622   29.5732   42.7623 H   0  0  0  0  0  0  0  0  0  0  0  0
   36.5820   28.5775   38.5398 H   0  0  0  0  0  0  0  0  0  0  0  0
   36.5612   29.7037   36.3613 H   0  0  0  0  0  0  0  0  0  0  0  0
   37.6398   32.0184   36.1806 H   0  0  0  0  0  0  0  0  0  0  0  0
   38.6389   32.9969   38.1959 H   0  0  0  0  0  0  0  0  0  0  0  0
   42.7627   34.2134   42.5250 H   0  0  0  0  0  0  0  0  0  0  0  0
   42.8618   36.2626   43.8751 H   0  0  0  0  0  0  0  0  0  0  0  0
   43.5897   37.2041   42.5295 H   0  0  0  0  0  0  0  0  0  0  0  0
   41.8282   36.8523   42.5295 H   0  0  0  0  0  0  0  0  0  0  0  0
   44.7398   34.3912   40.8765 H   0  0  0  0  0  0  0  0  0  0  0  0
   45.0174   35.9746   41.6430 H   0  0  0  0  0  0  0  0  0  0  0  0
   46.8412   35.5945   43.3359 H   0  0  0  0  0  0  0  0  0  0  0  0
   46.4299   31.6518   45.4522 H   0  0  0  0  0  0  0  0  0  0  0  0
   44.6812   31.5397   47.7088 H   0  0  0  0  0  0  0  0  0  0  0  0
   43.8128   32.7218   47.2042 H   0  0  0  0  0  0  0  0  0  0  0  0
   43.3388   31.1408   44.8531 H   0  0  0  0  0  0  0  0  0  0  0  0
   43.9913   29.8740   45.4798 H   0  0  0  0  0  0  0  0  0  0  0  0
  1  6  2  0
  1  2  1  0
  2  3  2  0
  3  4  1  0
  3 17  1  0
  5  7  1  0
  5  4  2  0
  6  5  1  0
  7  8  2  0
  8  9  1  0
 10  9  2  0
 11 10  1  0
 12 11  2  0
 13 12  1  0
 14 13  2  0
 14 15  1  0
 15 16  2  0
 16 11  1  0
 16  7  1  0
 17 18  1  0
 18 19  1  0
 20 18  1  0
 20 21  1  0
 21 25  1  0
 21 22  1  0
 22 23  2  0
 24 23  1  0
 24 26  1  0
 25 24  2  0
 26 28  1  0
 26 27  1  0
 28 27  1  0
  1 29  1  0
  2 30  1  0
  9 31  1  0
 12 32  1  0
 13 33  1  0
 14 34  1  0
 15 35  1  0
 18 36  1  1
 19 37  1  0
 19 38  1  0
 19 39  1  0
 20 40  1  0
 20 41  1  0
 22 42  1  0
 26 43  1  0
 27 44  1  0
 27 45  1  0
 28 46  1  0
 28 47  1  0
M  ISO  8  29  14  30  14  31  14  32  14  33  14  34  14  35  14  36   8
M  ISO  8  37   8  38   8  39   8  40   8  41   8  42  14  43  13  44  13
M  ISO  3  45  13  46  13  47  13
M  END
>  <minimizedAffinity>  (1) 
-6.31572723

>  <minimizedRMSD>  (1) 
0.235769317

$$$$
