
     RDKit          3D

 41 44  0  0  1  0  0  0  0  0999 V2000
   38.7780   35.5160   40.1320 C   0  0  0  0  0  0  0  0  0  0  0  0
   40.1280   35.8820   40.2690 C   0  0  0  0  0  0  0  0  0  0  0  0
   41.0420   34.8290   40.5010 C   0  0  0  0  0  0  0  0  0  0  0  0
   40.5270   33.6160   40.5640 N   0  0  0  0  0  0  0  0  0  0  0  0
   39.2790   33.2310   40.4430 C   0  0  0  0  0  0  0  0  0  0  0  0
   38.4310   34.2350   40.2250 N   0  0  0  0  0  0  0  0  0  0  0  0
   38.6140   31.9410   40.4980 C   0  0  0  0  0  0  0  0  0  0  0  0
   38.4790   31.2150   41.6280 N   0  0  0  0  0  0  0  0  0  0  0  0
   37.8810   30.0380   41.7140 C   0  0  0  0  0  0  0  0  0  0  0  0
   37.3510   29.4700   40.6530 N   0  0  0  0  0  0  0  0  0  0  0  0
   37.4180   30.0910   39.4570 C   0  0  0  0  0  0  0  0  0  0  0  0
   36.8600   29.4970   38.3280 C   0  0  0  0  0  0  0  0  0  0  0  0
   36.9160   30.1080   37.1190 C   0  0  0  0  0  0  0  0  0  0  0  0
   37.5520   31.3620   37.0200 C   0  0  0  0  0  0  0  0  0  0  0  0
   38.0820   31.8930   38.1780 C   0  0  0  0  0  0  0  0  0  0  0  0
   38.0480   31.3150   39.4080 C   0  0  0  0  0  0  0  0  0  0  0  0
   42.3290   35.0680   40.6470 O   0  0  0  0  0  0  0  0  0  0  0  0
   43.0670   34.8900   41.8380 C   0  0  2  0  0  0  0  0  0  0  0  0
   42.8980   36.2690   42.5940 C   0  0  0  0  0  0  0  0  0  0  0  0
   44.5120   34.6730   41.5890 C   0  0  0  0  0  0  0  0  0  0  0  0
   45.1030   34.1980   42.8350 N   0  0  0  0  0  0  0  0  0  0  0  0
   46.2590   34.6730   43.3670 C   0  0  0  0  0  0  0  0  0  0  0  0
   46.5320   34.0310   44.5190 N   0  0  0  0  0  0  0  0  0  0  0  0
   45.5110   33.1350   44.6990 C   0  0  0  0  0  0  0  0  0  0  0  0
   44.6560   33.2600   43.6560 N   0  0  0  0  0  0  0  0  0  0  0  0
   45.2540   31.9550   46.0410 S   0  0  0  0  0  0  0  0  0  0  0  0
   38.0125   36.2844   39.9489 H   0  0  0  0  0  0  0  0  0  0  0  0
   40.4552   36.9299   40.1995 H   0  0  0  0  0  0  0  0  0  0  0  0
   37.8264   29.5273   42.6867 H   0  0  0  0  0  0  0  0  0  0  0  0
   36.3667   28.5180   38.4183 H   0  0  0  0  0  0  0  0  0  0  0  0
   36.4729   29.6335   36.2310 H   0  0  0  0  0  0  0  0  0  0  0  0
   37.6228   31.8947   36.0602 H   0  0  0  0  0  0  0  0  0  0  0  0
   38.5766   32.8723   38.0988 H   0  0  0  0  0  0  0  0  0  0  0  0
   42.7093   34.0084   42.3901 H   0  0  0  0  0  0  0  0  0  0  0  0
   42.9191   36.0967   43.6802 H   0  0  0  0  0  0  0  0  0  0  0  0
   43.7201   36.9439   42.3138 H   0  0  0  0  0  0  0  0  0  0  0  0
   41.9372   36.7254   42.3138 H   0  0  0  0  0  0  0  0  0  0  0  0
   44.6484   33.9212   40.7976 H   0  0  0  0  0  0  0  0  0  0  0  0
   44.9940   35.6060   41.2615 H   0  0  0  0  0  0  0  0  0  0  0  0
   46.8801   35.4647   42.9227 H   0  0  0  0  0  0  0  0  0  0  0  0
   45.3933   32.5947   47.2445 H   0  0  0  0  0  0  0  0  0  0  0  0
  1  6  2  0
  1  2  1  0
  2  3  2  0
  3  4  1  0
  3 17  1  0
  5  7  1  0
  5  4  2  0
  6  5  1  0
  7  8  2  0
  8  9  1  0
 10  9  2  0
 11 10  1  0
 12 11  2  0
 13 12  1  0
 14 13  2  0
 14 15  1  0
 15 16  2  0
 16 11  1  0
 16  7  1  0
 17 18  1  0
 18 19  1  0
 20 18  1  0
 20 21  1  0
 21 22  1  0
 21 25  1  0
 22 23  2  0
 23 24  1  0
 24 26  1  0
 25 24  2  0
  1 27  1  0
  2 28  1  0
  9 29  1  0
 12 30  1  0
 13 31  1  0
 14 32  1  0
 15 33  1  0
 18 34  1  1
 19 35  1  0
 19 36  1  0
 19 37  1  0
 20 38  1  0
 20 39  1  0
 22 40  1  0
 26 41  1  0
M  ISO  8  27  14  28  14  29  14  30  14  31  14  32  14  33  14  34   8
M  ISO  7  35   8  36   8  37   8  38   8  39   8  40  14  41  11
M  END
>  <minimizedAffinity>  (1) 
-6.01243114

>  <minimizedRMSD>  (1) 
0.0210660603

$$$$
