
     RDKit          3D

 34 37  0  0  0  0  0  0  0  0999 V2000
   39.1000   27.2570   43.7630 C   0  0  0  0  0  0  0  0  0  0  0  0
   39.5340   26.3110   42.8220 C   0  0  0  0  0  0  0  0  0  0  0  0
   39.3910   26.6220   41.4720 C   0  0  0  0  0  0  0  0  0  0  0  0
   38.8360   27.8280   41.1640 N   0  0  0  0  0  0  0  0  0  0  0  0
   38.4260   28.7230   42.0860 C   0  0  0  0  0  0  0  0  0  0  0  0
   38.5690   28.4140   43.3860 N   0  0  0  0  0  0  0  0  0  0  0  0
   37.8890   29.8890   41.4920 N   0  0  0  0  0  0  0  0  0  0  0  0
   36.5450   29.9860   41.2390 C   0  0  0  0  0  0  0  0  0  0  0  0
   36.2630   31.1830   40.6710 N   0  0  0  0  0  0  0  0  0  0  0  0
   37.4280   31.8450   40.5650 C   0  0  0  0  0  0  0  0  0  0  0  0
   37.7950   33.0930   40.0780 C   0  0  0  0  0  0  0  0  0  0  0  0
   39.0890   33.4600   40.1200 N   0  0  0  0  0  0  0  0  0  0  0  0
   40.0440   32.6450   40.6270 C   0  0  0  0  0  0  0  0  0  0  0  0
   39.7070   31.4130   41.1120 N   0  0  0  0  0  0  0  0  0  0  0  0
   38.4220   31.0310   41.0770 C   0  0  0  0  0  0  0  0  0  0  0  0
   36.7370   33.8700   39.5710 N   0  0  0  0  0  0  0  0  0  0  0  0
   41.3870   33.1330   40.6230 N   0  0  0  0  0  0  0  0  0  0  0  0
   42.3770   32.2220   40.5280 C   0  0  0  0  0  0  0  0  0  0  0  0
   43.6500   32.7780   40.5320 C   0  0  0  0  0  0  0  0  0  0  0  0
   43.8860   34.1190   40.6250 C   0  0  0  0  0  0  0  0  0  0  0  0
   45.1720   34.7210   40.6320 N   0  0  0  0  0  0  0  0  0  0  0  0
   42.8460   34.9720   40.7170 N   0  0  0  0  0  0  0  0  0  0  0  0
   41.5900   34.4700   40.7170 C   0  0  0  0  0  0  0  0  0  0  0  0
   40.6270   35.2750   40.8040 O   0  0  0  0  0  0  0  0  0  0  0  0
   39.2018   27.0354   44.8356 H   0  0  0  0  0  0  0  0  0  0  0  0
   39.9732   25.3541   43.1404 H   0  0  0  0  0  0  0  0  0  0  0  0
   39.7129   25.9227   40.6863 H   0  0  0  0  0  0  0  0  0  0  0  0
   35.8035   29.2054   41.4645 H   0  0  0  0  0  0  0  0  0  0  0  0
   35.7755   33.5008   39.5822 H   0  0  0  0  0  0  0  0  0  0  0  0
   36.9241   34.8080   39.1887 H   0  0  0  0  0  0  0  0  0  0  0  0
   42.1935   31.1399   40.4542 H   0  0  0  0  0  0  0  0  0  0  0  0
   44.5139   32.1013   40.4562 H   0  0  0  0  0  0  0  0  0  0  0  0
   45.2611   35.7445   40.7057 H   0  0  0  0  0  0  0  0  0  0  0  0
   46.0157   34.1342   40.5634 H   0  0  0  0  0  0  0  0  0  0  0  0
  2  1  2  0
  3  2  1  0
  4  3  2  0
  4  5  1  0
  5  6  2  0
  6  1  1  0
  7  5  1  0
  8  7  1  0
  9  8  2  0
 10  9  1  0
 10 15  2  0
 11 12  2  0
 11 10  1  0
 12 13  1  0
 13 14  2  0
 15 14  1  0
 15  7  1  0
 16 11  1  0
 17 13  1  0
 17 23  1  0
 18 19  2  0
 18 17  1  0
 19 20  1  0
 20 21  1  0
 20 22  2  0
 22 23  1  0
 23 24  2  0
  1 25  1  0
  2 26  1  0
  3 27  1  0
  8 28  1  0
 16 29  1  0
 16 30  1  0
 18 31  1  0
 19 32  1  0
 21 33  1  0
 21 34  1  0
M  ISO  6  25  14  26  14  27  14  28  14  31  14  32  14
M  END
>  <minimizedAffinity>  (1) 
-6.87986994

>  <minimizedRMSD>  (1) 
1.10676336

$$$$
