
     RDKit          3D

 37 41  0  0  0  0  0  0  0  0999 V2000
   39.0930   27.1170   43.7640 C   0  0  0  0  0  0  0  0  0  0  0  0
   39.5150   26.1850   42.8180 C   0  0  0  0  0  0  0  0  0  0  0  0
   39.3600   26.5100   41.4770 C   0  0  0  0  0  0  0  0  0  0  0  0
   38.8050   27.7170   41.1710 N   0  0  0  0  0  0  0  0  0  0  0  0
   38.4020   28.6070   42.1310 C   0  0  0  0  0  0  0  0  0  0  0  0
   38.5540   28.2890   43.4290 N   0  0  0  0  0  0  0  0  0  0  0  0
   37.8580   29.7930   41.5480 N   0  0  0  0  0  0  0  0  0  0  0  0
   36.5340   29.9110   41.3080 C   0  0  0  0  0  0  0  0  0  0  0  0
   36.2720   31.1160   40.7560 N   0  0  0  0  0  0  0  0  0  0  0  0
   37.4460   31.7700   40.6460 C   0  0  0  0  0  0  0  0  0  0  0  0
   37.8300   33.0120   40.1710 C   0  0  0  0  0  0  0  0  0  0  0  0
   39.1270   33.3500   40.2130 N   0  0  0  0  0  0  0  0  0  0  0  0
   40.0790   32.5320   40.6980 C   0  0  0  0  0  0  0  0  0  0  0  0
   39.7020   31.2960   41.1700 N   0  0  0  0  0  0  0  0  0  0  0  0
   38.4090   30.9300   41.1410 C   0  0  0  0  0  0  0  0  0  0  0  0
   36.7890   33.8160   39.6780 N   0  0  0  0  0  0  0  0  0  0  0  0
   41.5120   32.7290   40.8210 C   0  0  0  0  0  0  0  0  0  0  0  0
   42.1950   32.5230   41.9810 N   0  0  0  0  0  0  0  0  0  0  0  0
   43.5120   32.7000   42.1180 C   0  0  0  0  0  0  0  0  0  0  0  0
   44.3010   33.1020   41.1090 N   0  0  0  0  0  0  0  0  0  0  0  0
   43.7160   33.3300   39.9270 C   0  0  0  0  0  0  0  0  0  0  0  0
   44.4970   33.7450   38.8730 C   0  0  0  0  0  0  0  0  0  0  0  0
   43.9520   33.9950   37.6360 C   0  0  0  0  0  0  0  0  0  0  0  0
   42.5730   33.8130   37.4870 C   0  0  0  0  0  0  0  0  0  0  0  0
   41.8430   33.3970   38.5760 C   0  0  0  0  0  0  0  0  0  0  0  0
   42.3600   33.1390   39.8230 C   0  0  0  0  0  0  0  0  0  0  0  0
   39.2095   26.8756   44.8308 H   0  0  0  0  0  0  0  0  0  0  0  0
   39.9559   25.2245   43.1232 H   0  0  0  0  0  0  0  0  0  0  0  0
   39.6755   25.8145   40.6854 H   0  0  0  0  0  0  0  0  0  0  0  0
   35.7809   29.1404   41.5292 H   0  0  0  0  0  0  0  0  0  0  0  0
   35.8200   33.4671   39.6878 H   0  0  0  0  0  0  0  0  0  0  0  0
   36.9947   34.7545   39.3067 H   0  0  0  0  0  0  0  0  0  0  0  0
   43.9696   32.5081   43.0997 H   0  0  0  0  0  0  0  0  0  0  0  0
   45.5784   33.8793   39.0231 H   0  0  0  0  0  0  0  0  0  0  0  0
   44.5775   34.3261   36.7939 H   0  0  0  0  0  0  0  0  0  0  0  0
   42.0830   33.9986   36.5198 H   0  0  0  0  0  0  0  0  0  0  0  0
   40.7603   33.2600   38.4380 H   0  0  0  0  0  0  0  0  0  0  0  0
  2  1  2  0
  3  2  1  0
  4  3  2  0
  4  5  1  0
  5  6  2  0
  6  1  1  0
  7  5  1  0
  8  7  1  0
  9  8  2  0
 10  9  1  0
 10 15  2  0
 11 12  2  0
 11 10  1  0
 12 13  1  0
 13 17  1  0
 13 14  2  0
 15 14  1  0
 15  7  1  0
 16 11  1  0
 17 18  2  0
 18 19  1  0
 20 19  2  0
 21 20  1  0
 22 21  2  0
 23 22  1  0
 24 23  2  0
 24 25  1  0
 25 26  2  0
 26 21  1  0
 26 17  1  0
  1 27  1  0
  2 28  1  0
  3 29  1  0
  8 30  1  0
 16 31  1  0
 16 32  1  0
 19 33  1  0
 22 34  1  0
 23 35  1  0
 24 36  1  0
 25 37  1  0
M  ISO  8  27  14  28  14  29  14  30  14  33  14  34  14  35  14  36  14
M  ISO  1  37  14
M  END
>  <minimizedAffinity>  (1) 
-6.68574047

>  <minimizedRMSD>  (1) 
1.07273948

$$$$
