
     RDKit          3D

 37 41  0  0  0  0  0  0  0  0999 V2000
   38.6220   27.0000   43.8450 C   0  0  0  0  0  0  0  0  0  0  0  0
   39.0700   26.0540   42.9010 C   0  0  0  0  0  0  0  0  0  0  0  0
   39.0350   26.3980   41.5560 C   0  0  0  0  0  0  0  0  0  0  0  0
   38.5660   27.6380   41.2300 N   0  0  0  0  0  0  0  0  0  0  0  0
   38.1400   28.5300   42.1670 C   0  0  0  0  0  0  0  0  0  0  0  0
   38.1740   28.1980   43.4650 N   0  0  0  0  0  0  0  0  0  0  0  0
   37.7030   29.7480   41.5680 N   0  0  0  0  0  0  0  0  0  0  0  0
   36.4120   29.9530   41.2300 C   0  0  0  0  0  0  0  0  0  0  0  0
   36.2610   31.1760   40.6850 N   0  0  0  0  0  0  0  0  0  0  0  0
   37.4710   31.7600   40.6730 C   0  0  0  0  0  0  0  0  0  0  0  0
   37.9490   32.9890   40.2460 C   0  0  0  0  0  0  0  0  0  0  0  0
   39.2640   33.2660   40.3860 N   0  0  0  0  0  0  0  0  0  0  0  0
   40.1120   32.3780   40.9270 C   0  0  0  0  0  0  0  0  0  0  0  0
   39.6740   31.1600   41.3560 N   0  0  0  0  0  0  0  0  0  0  0  0
   38.3540   30.8610   41.2250 C   0  0  0  0  0  0  0  0  0  0  0  0
   36.9680   33.8430   39.6930 N   0  0  0  0  0  0  0  0  0  0  0  0
   41.5310   32.7000   41.0680 C   0  0  0  0  0  0  0  0  0  0  0  0
   42.2950   33.5290   40.2560 C   0  0  0  0  0  0  0  0  0  0  0  0
   43.5180   33.5240   40.7590 N   0  0  0  0  0  0  0  0  0  0  0  0
   43.6410   32.7540   41.8520 C   0  0  0  0  0  0  0  0  0  0  0  0
   44.7040   32.4510   42.6940 C   0  0  0  0  0  0  0  0  0  0  0  0
   44.4900   31.5950   43.7640 C   0  0  0  0  0  0  0  0  0  0  0  0
   43.2170   31.0830   43.9390 C   0  0  0  0  0  0  0  0  0  0  0  0
   42.1570   31.3880   43.0960 C   0  0  0  0  0  0  0  0  0  0  0  0
   42.3740   32.2380   42.0350 C   0  0  0  0  0  0  0  0  0  0  0  0
   38.6421   26.7458   44.9150 H   0  0  0  0  0  0  0  0  0  0  0  0
   39.4380   25.0682   43.2215 H   0  0  0  0  0  0  0  0  0  0  0  0
   39.3735   25.6956   40.7801 H   0  0  0  0  0  0  0  0  0  0  0  0
   35.6000   29.2259   41.3783 H   0  0  0  0  0  0  0  0  0  0  0  0
   35.9882   33.5311   39.6333 H   0  0  0  0  0  0  0  0  0  0  0  0
   37.2329   34.7773   39.3497 H   0  0  0  0  0  0  0  0  0  0  0  0
   41.9504   34.0810   39.3691 H   0  0  0  0  0  0  0  0  0  0  0  0
   44.2992   34.0581   40.3524 H   0  0  0  0  0  0  0  0  0  0  0  0
   45.6995   32.8832   42.5147 H   0  0  0  0  0  0  0  0  0  0  0  0
   45.3069   31.3315   44.4519 H   0  0  0  0  0  0  0  0  0  0  0  0
   43.0363   30.4032   44.7847 H   0  0  0  0  0  0  0  0  0  0  0  0
   41.1602   30.9576   43.2729 H   0  0  0  0  0  0  0  0  0  0  0  0
  2  1  2  0
  3  2  1  0
  4  3  2  0
  4  5  1  0
  5  6  2  0
  6  1  1  0
  7  5  1  0
  8  7  1  0
  9  8  2  0
 10  9  1  0
 10 15  2  0
 11 12  2  0
 11 10  1  0
 12 13  1  0
 13 17  1  0
 13 14  2  0
 15 14  1  0
 15  7  1  0
 16 11  1  0
 17 25  1  0
 18 19  1  0
 18 17  2  0
 19 20  1  0
 20 25  2  0
 20 21  1  0
 21 22  2  0
 22 23  1  0
 24 23  2  0
 25 24  1  0
  1 26  1  0
  2 27  1  0
  3 28  1  0
  8 29  1  0
 16 30  1  0
 16 31  1  0
 18 32  1  0
 19 33  1  0
 21 34  1  0
 22 35  1  0
 23 36  1  0
 24 37  1  0
M  ISO  8  26  14  27  14  28  14  29  14  32  14  33   9  34  14  35  14
M  ISO  2  36  14  37  14
M  END
>  <minimizedAffinity>  (1) 
-6.60889864

>  <minimizedRMSD>  (1) 
1.39883518

$$$$
