
     RDKit          3D

 30 33  0  0  0  0  0  0  0  0999 V2000
   38.6940   27.3320   43.8230 C   0  0  0  0  0  0  0  0  0  0  0  0
   39.1640   26.3680   42.9060 C   0  0  0  0  0  0  0  0  0  0  0  0
   39.1310   26.6880   41.5470 C   0  0  0  0  0  0  0  0  0  0  0  0
   38.6480   27.9090   41.1890 N   0  0  0  0  0  0  0  0  0  0  0  0
   38.2050   28.8080   42.0920 C   0  0  0  0  0  0  0  0  0  0  0  0
   38.2270   28.5220   43.4190 N   0  0  0  0  0  0  0  0  0  0  0  0
   37.7510   30.0060   41.4590 N   0  0  0  0  0  0  0  0  0  0  0  0
   36.4470   30.1610   41.0990 C   0  0  0  0  0  0  0  0  0  0  0  0
   36.2730   31.3690   40.5240 N   0  0  0  0  0  0  0  0  0  0  0  0
   37.4690   31.9830   40.5170 C   0  0  0  0  0  0  0  0  0  0  0  0
   37.9260   33.2220   40.0700 C   0  0  0  0  0  0  0  0  0  0  0  0
   39.2300   33.5250   40.2270 N   0  0  0  0  0  0  0  0  0  0  0  0
   40.0930   32.6790   40.7960 C   0  0  0  0  0  0  0  0  0  0  0  0
   39.6680   31.4590   41.2420 N   0  0  0  0  0  0  0  0  0  0  0  0
   38.3700   31.1300   41.0970 C   0  0  0  0  0  0  0  0  0  0  0  0
   36.9400   34.0460   39.4830 N   0  0  0  0  0  0  0  0  0  0  0  0
   41.4650   33.0250   40.9490 N   0  0  0  0  0  0  0  0  0  0  0  0
   42.0790   34.1050   40.4310 C   0  0  0  0  0  0  0  0  0  0  0  0
   43.4080   34.0320   40.8400 C   0  0  0  0  0  0  0  0  0  0  0  0
   43.5430   32.9300   41.5760 N   0  0  0  0  0  0  0  0  0  0  0  0
   42.3670   32.3120   41.6480 C   0  0  0  0  0  0  0  0  0  0  0  0
   38.7112   27.1009   44.8983 H   0  0  0  0  0  0  0  0  0  0  0  0
   39.5444   25.3951   43.2507 H   0  0  0  0  0  0  0  0  0  0  0  0
   39.4849   25.9743   40.7884 H   0  0  0  0  0  0  0  0  0  0  0  0
   35.6547   29.4138   41.2537 H   0  0  0  0  0  0  0  0  0  0  0  0
   35.9672   33.7148   39.4126 H   0  0  0  0  0  0  0  0  0  0  0  0
   37.1939   34.9780   39.1254 H   0  0  0  0  0  0  0  0  0  0  0  0
   41.6222   34.8887   39.8089 H   0  0  0  0  0  0  0  0  0  0  0  0
   44.2025   34.7536   40.5990 H   0  0  0  0  0  0  0  0  0  0  0  0
   42.1658   31.3752   42.1884 H   0  0  0  0  0  0  0  0  0  0  0  0
  2  1  2  0
  3  2  1  0
  4  3  2  0
  4  5  1  0
  5  6  2  0
  6  1  1  0
  7  5  1  0
  8  7  1  0
  9  8  2  0
 10  9  1  0
 10 15  2  0
 11 12  2  0
 11 10  1  0
 12 13  1  0
 13 17  1  0
 13 14  2  0
 15 14  1  0
 15  7  1  0
 16 11  1  0
 17 21  1  0
 18 19  2  0
 18 17  1  0
 19 20  1  0
 20 21  2  0
  1 22  1  0
  2 23  1  0
  3 24  1  0
  8 25  1  0
 16 26  1  0
 16 27  1  0
 18 28  1  0
 19 29  1  0
 21 30  1  0
M  ISO  7  22  14  23  14  24  14  25  14  28  14  29  14  30  14
M  END
>  <minimizedAffinity>  (1) 
-6.18746471

>  <minimizedRMSD>  (1) 
1.25412726

$$$$
