
     RDKit          3D

 30 33  0  0  0  0  0  0  0  0999 V2000
   38.6710   27.3060   43.8300 C   0  0  0  0  0  0  0  0  0  0  0  0
   39.1450   26.3460   42.9270 C   0  0  0  0  0  0  0  0  0  0  0  0
   39.1340   26.6650   41.5590 C   0  0  0  0  0  0  0  0  0  0  0  0
   38.6610   27.8930   41.2050 N   0  0  0  0  0  0  0  0  0  0  0  0
   38.2080   28.8000   42.1090 C   0  0  0  0  0  0  0  0  0  0  0  0
   38.2200   28.4920   43.4220 N   0  0  0  0  0  0  0  0  0  0  0  0
   37.7710   30.0000   41.4760 N   0  0  0  0  0  0  0  0  0  0  0  0
   36.4800   30.1670   41.1060 C   0  0  0  0  0  0  0  0  0  0  0  0
   36.3210   31.3770   40.5330 N   0  0  0  0  0  0  0  0  0  0  0  0
   37.5180   31.9880   40.5360 C   0  0  0  0  0  0  0  0  0  0  0  0
   37.9890   33.2170   40.0990 C   0  0  0  0  0  0  0  0  0  0  0  0
   39.3080   33.5190   40.2670 N   0  0  0  0  0  0  0  0  0  0  0  0
   40.1430   32.6510   40.8440 C   0  0  0  0  0  0  0  0  0  0  0  0
   39.7190   31.4350   41.2850 N   0  0  0  0  0  0  0  0  0  0  0  0
   38.4080   31.1170   41.1260 C   0  0  0  0  0  0  0  0  0  0  0  0
   37.0080   34.0430   39.5070 N   0  0  0  0  0  0  0  0  0  0  0  0
   41.5520   32.9990   41.0110 C   0  0  0  0  0  0  0  0  0  0  0  0
   42.4450   33.3680   40.0260 C   0  0  0  0  0  0  0  0  0  0  0  0
   43.6410   33.6070   40.5930 N   0  0  0  0  0  0  0  0  0  0  0  0
   43.4860   33.3840   41.9310 C   0  0  0  0  0  0  0  0  0  0  0  0
   42.2180   33.0170   42.1810 N   0  0  0  0  0  0  0  0  0  0  0  0
   38.6709   27.0748   44.9054 H   0  0  0  0  0  0  0  0  0  0  0  0
   39.5148   25.3715   43.2785 H   0  0  0  0  0  0  0  0  0  0  0  0
   39.4932   25.9513   40.8029 H   0  0  0  0  0  0  0  0  0  0  0  0
   35.6799   29.4262   41.2511 H   0  0  0  0  0  0  0  0  0  0  0  0
   36.0351   33.7135   39.4306 H   0  0  0  0  0  0  0  0  0  0  0  0
   37.2655   34.9749   39.1517 H   0  0  0  0  0  0  0  0  0  0  0  0
   42.2164   33.4528   38.9534 H   0  0  0  0  0  0  0  0  0  0  0  0
   44.2774   33.4887   42.6878 H   0  0  0  0  0  0  0  0  0  0  0  0
   41.8245   32.7894   43.1053 H   0  0  0  0  0  0  0  0  0  0  0  0
  2  1  2  0
  3  2  1  0
  4  3  2  0
  4  5  1  0
  5  6  2  0
  6  1  1  0
  7  5  1  0
  8  7  1  0
  9 10  1  0
  9  8  2  0
 10 15  2  0
 11 12  2  0
 11 10  1  0
 12 13  1  0
 13 17  1  0
 13 14  2  0
 15 14  1  0
 15  7  1  0
 16 11  1  0
 17 21  1  0
 18 19  1  0
 18 17  2  0
 19 20  2  0
 20 21  1  0
  1 22  1  0
  2 23  1  0
  3 24  1  0
  8 25  1  0
 16 26  1  0
 16 27  1  0
 18 28  1  0
 20 29  1  0
 21 30  1  0
M  ISO  7  22  14  23  14  24  14  25  14  28  14  29  14  30   9
M  END
>  <minimizedAffinity>  (1) 
-6.10936117

>  <minimizedRMSD>  (1) 
1.30639064

$$$$
