
     RDKit          3D

 30 33  0  0  0  0  0  0  0  0999 V2000
   38.7860   27.4250   43.8320 C   0  0  0  0  0  0  0  0  0  0  0  0
   39.2500   26.4590   42.9410 C   0  0  0  0  0  0  0  0  0  0  0  0
   39.1990   26.7650   41.5740 C   0  0  0  0  0  0  0  0  0  0  0  0
   38.6990   27.9780   41.2310 N   0  0  0  0  0  0  0  0  0  0  0  0
   38.2540   28.8980   42.1280 C   0  0  0  0  0  0  0  0  0  0  0  0
   38.2990   28.6160   43.4390 N   0  0  0  0  0  0  0  0  0  0  0  0
   37.7850   30.0840   41.4830 N   0  0  0  0  0  0  0  0  0  0  0  0
   36.4730   30.2180   41.1480 C   0  0  0  0  0  0  0  0  0  0  0  0
   36.2880   31.4180   40.5530 N   0  0  0  0  0  0  0  0  0  0  0  0
   37.4800   32.0410   40.5110 C   0  0  0  0  0  0  0  0  0  0  0  0
   37.9160   33.2750   40.0310 C   0  0  0  0  0  0  0  0  0  0  0  0
   39.2190   33.5890   40.1570 N   0  0  0  0  0  0  0  0  0  0  0  0
   40.1100   32.7490   40.7330 C   0  0  0  0  0  0  0  0  0  0  0  0
   39.6940   31.5410   41.2050 N   0  0  0  0  0  0  0  0  0  0  0  0
   38.3930   31.1960   41.0930 C   0  0  0  0  0  0  0  0  0  0  0  0
   36.9060   34.0650   39.4540 N   0  0  0  0  0  0  0  0  0  0  0  0
   41.5060   33.1700   40.8280 C   0  0  0  0  0  0  0  0  0  0  0  0
   42.6980   32.6970   41.3320 C   0  0  0  0  0  0  0  0  0  0  0  0
   43.6490   33.6680   41.0510 C   0  0  0  0  0  0  0  0  0  0  0  0
   43.0490   34.6890   40.4020 N   0  0  0  0  0  0  0  0  0  0  0  0
   41.7620   34.3870   40.2690 N   0  0  0  0  0  0  0  0  0  0  0  0
   38.8196   27.2029   44.9088 H   0  0  0  0  0  0  0  0  0  0  0  0
   39.6409   25.4942   43.2965 H   0  0  0  0  0  0  0  0  0  0  0  0
   39.5492   26.0524   40.8128 H   0  0  0  0  0  0  0  0  0  0  0  0
   35.6881   29.4695   41.3319 H   0  0  0  0  0  0  0  0  0  0  0  0
   35.9380   33.7152   39.4144 H   0  0  0  0  0  0  0  0  0  0  0  0
   37.1341   34.9935   39.0709 H   0  0  0  0  0  0  0  0  0  0  0  0
   42.8627   31.7420   41.8524 H   0  0  0  0  0  0  0  0  0  0  0  0
   44.7158   33.6147   41.3137 H   0  0  0  0  0  0  0  0  0  0  0  0
   43.5076   35.5491   40.0692 H   0  0  0  0  0  0  0  0  0  0  0  0
  2  1  2  0
  3  2  1  0
  4  3  2  0
  4  5  1  0
  5  6  2  0
  6  1  1  0
  7  5  1  0
  8  7  1  0
  9  8  2  0
 10  9  1  0
 10 15  2  0
 11 12  2  0
 11 10  1  0
 12 13  1  0
 13 17  1  0
 13 14  2  0
 15 14  1  0
 15  7  1  0
 16 11  1  0
 17 18  1  0
 19 18  2  0
 20 19  1  0
 21 20  1  0
 21 17  2  0
  1 22  1  0
  2 23  1  0
  3 24  1  0
  8 25  1  0
 16 26  1  0
 16 27  1  0
 18 28  1  0
 19 29  1  0
 20 30  1  0
M  ISO  7  22  14  23  14  24  14  25  14  28  14  29  14  30   9
M  END
>  <minimizedAffinity>  (1) 
-6.10353994

>  <minimizedRMSD>  (1) 
1.36564112

$$$$
