
     RDKit          3D

 31 34  0  0  0  0  0  0  0  0999 V2000
   38.6210   27.3120   43.8360 C   0  0  0  0  0  0  0  0  0  0  0  0
   39.0920   26.3480   42.9470 C   0  0  0  0  0  0  0  0  0  0  0  0
   39.0820   26.6710   41.5960 C   0  0  0  0  0  0  0  0  0  0  0  0
   38.6230   27.8940   41.2040 N   0  0  0  0  0  0  0  0  0  0  0  0
   38.1720   28.8090   42.1010 C   0  0  0  0  0  0  0  0  0  0  0  0
   38.1760   28.5050   43.4220 N   0  0  0  0  0  0  0  0  0  0  0  0
   37.7450   30.0030   41.4740 N   0  0  0  0  0  0  0  0  0  0  0  0
   36.4330   30.1730   41.1170 C   0  0  0  0  0  0  0  0  0  0  0  0
   36.2760   31.3790   40.5410 N   0  0  0  0  0  0  0  0  0  0  0  0
   37.4640   31.9880   40.5240 C   0  0  0  0  0  0  0  0  0  0  0  0
   37.9560   33.2170   40.0770 C   0  0  0  0  0  0  0  0  0  0  0  0
   39.2690   33.5040   40.2300 N   0  0  0  0  0  0  0  0  0  0  0  0
   40.1190   32.6400   40.8010 C   0  0  0  0  0  0  0  0  0  0  0  0
   39.6780   31.4290   41.2490 N   0  0  0  0  0  0  0  0  0  0  0  0
   38.3610   31.1150   41.1070 C   0  0  0  0  0  0  0  0  0  0  0  0
   36.9800   34.0470   39.4970 N   0  0  0  0  0  0  0  0  0  0  0  0
   41.5250   32.9380   40.9680 C   0  0  0  0  0  0  0  0  0  0  0  0
   42.1560   33.8160   40.0900 C   0  0  0  0  0  0  0  0  0  0  0  0
   43.4990   34.0660   40.2960 C   0  0  0  0  0  0  0  0  0  0  0  0
   44.2340   33.5090   41.2970 N   0  0  0  0  0  0  0  0  0  0  0  0
   43.5590   32.6610   42.1190 C   0  0  0  0  0  0  0  0  0  0  0  0
   42.2720   32.3990   41.9500 N   0  0  0  0  0  0  0  0  0  0  0  0
   38.6146   27.0857   44.9124 H   0  0  0  0  0  0  0  0  0  0  0  0
   39.4565   25.3721   43.3002 H   0  0  0  0  0  0  0  0  0  0  0  0
   39.4409   25.9472   40.8494 H   0  0  0  0  0  0  0  0  0  0  0  0
   35.6314   29.4368   41.2767 H   0  0  0  0  0  0  0  0  0  0  0  0
   36.0036   33.7257   39.4314 H   0  0  0  0  0  0  0  0  0  0  0  0
   37.2416   34.9762   39.1378 H   0  0  0  0  0  0  0  0  0  0  0  0
   41.6063   34.2919   39.2646 H   0  0  0  0  0  0  0  0  0  0  0  0
   44.0060   34.7585   39.6080 H   0  0  0  0  0  0  0  0  0  0  0  0
   44.0978   32.1790   42.9481 H   0  0  0  0  0  0  0  0  0  0  0  0
  2  1  2  0
  3  2  1  0
  4  3  2  0
  4  5  1  0
  5  6  2  0
  6  1  1  0
  7  5  1  0
  8  7  1  0
  9  8  2  0
 10  9  1  0
 10 15  2  0
 11 12  2  0
 11 10  1  0
 12 13  1  0
 13 17  1  0
 13 14  2  0
 15 14  1  0
 15  7  1  0
 16 11  1  0
 17 22  2  0
 18 19  2  0
 18 17  1  0
 19 20  1  0
 20 21  2  0
 22 21  1  0
  1 23  1  0
  2 24  1  0
  3 25  1  0
  8 26  1  0
 16 27  1  0
 16 28  1  0
 18 29  1  0
 19 30  1  0
 21 31  1  0
M  ISO  7  23  14  24  14  25  14  26  14  29  14  30  14  31  14
M  END
>  <minimizedAffinity>  (1) 
-6.00975943

>  <minimizedRMSD>  (1) 
1.24437582

$$$$
