
     RDKit          3D

 30 33  0  0  0  0  0  0  0  0999 V2000
   38.8270   27.0740   43.8350 C   0  0  0  0  0  0  0  0  0  0  0  0
   39.2820   26.1410   42.8910 C   0  0  0  0  0  0  0  0  0  0  0  0
   39.2160   26.4890   41.5360 C   0  0  0  0  0  0  0  0  0  0  0  0
   38.7130   27.7140   41.2180 N   0  0  0  0  0  0  0  0  0  0  0  0
   38.2790   28.5970   42.1700 C   0  0  0  0  0  0  0  0  0  0  0  0
   38.3400   28.2690   43.4690 N   0  0  0  0  0  0  0  0  0  0  0  0
   37.8040   29.7990   41.5690 N   0  0  0  0  0  0  0  0  0  0  0  0
   36.4890   29.9560   41.2560 C   0  0  0  0  0  0  0  0  0  0  0  0
   36.2860   31.1670   40.7020 N   0  0  0  0  0  0  0  0  0  0  0  0
   37.4680   31.7910   40.6580 C   0  0  0  0  0  0  0  0  0  0  0  0
   37.9050   33.0380   40.2100 C   0  0  0  0  0  0  0  0  0  0  0  0
   39.2130   33.3450   40.3250 N   0  0  0  0  0  0  0  0  0  0  0  0
   40.1030   32.4910   40.8540 C   0  0  0  0  0  0  0  0  0  0  0  0
   39.6960   31.2670   41.2990 N   0  0  0  0  0  0  0  0  0  0  0  0
   38.3820   30.9250   41.1980 C   0  0  0  0  0  0  0  0  0  0  0  0
   36.8940   33.8550   39.6730 N   0  0  0  0  0  0  0  0  0  0  0  0
   41.5210   32.8640   40.9610 C   0  0  0  0  0  0  0  0  0  0  0  0
   42.1350   33.8190   40.0740 C   0  0  0  0  0  0  0  0  0  0  0  0
   43.4630   34.0730   40.2860 C   0  0  0  0  0  0  0  0  0  0  0  0
   44.1810   33.4580   41.2850 C   0  0  0  0  0  0  0  0  0  0  0  0
   42.8510   32.3560   42.0710 S   0  0  0  0  0  0  0  0  0  0  0  0
   38.8708   26.8186   44.9040 H   0  0  0  0  0  0  0  0  0  0  0  0
   39.6790   25.1647   43.2060 H   0  0  0  0  0  0  0  0  0  0  0  0
   39.5592   25.7955   40.7541 H   0  0  0  0  0  0  0  0  0  0  0  0
   35.7058   29.2035   41.4301 H   0  0  0  0  0  0  0  0  0  0  0  0
   35.9226   33.5147   39.6353 H   0  0  0  0  0  0  0  0  0  0  0  0
   37.1250   34.7937   39.3174 H   0  0  0  0  0  0  0  0  0  0  0  0
   41.5688   34.3156   39.2722 H   0  0  0  0  0  0  0  0  0  0  0  0
   43.9750   34.7956   39.6335 H   0  0  0  0  0  0  0  0  0  0  0  0
   45.2409   33.5738   41.5555 H   0  0  0  0  0  0  0  0  0  0  0  0
  2  1  2  0
  3  2  1  0
  4  3  2  0
  4  5  1  0
  5  6  2  0
  6  1  1  0
  7  5  1  0
  8  7  1  0
  9  8  2  0
 10  9  1  0
 10 15  2  0
 11 12  2  0
 11 10  1  0
 12 13  1  0
 13 17  1  0
 13 14  2  0
 15 14  1  0
 15  7  1  0
 16 11  1  0
 17 21  1  0
 18 19  1  0
 18 17  2  0
 19 20  2  0
 20 21  1  0
  1 22  1  0
  2 23  1  0
  3 24  1  0
  8 25  1  0
 16 26  1  0
 16 27  1  0
 18 28  1  0
 19 29  1  0
 20 30  1  0
M  ISO  7  22  14  23  14  24  14  25  14  28  14  29  14  30  14
M  END
>  <minimizedAffinity>  (1) 
-5.84554338

>  <minimizedRMSD>  (1) 
1.04065144

$$$$
