
     RDKit          3D

 29 31  0  0  0  0  0  0  0  0999 V2000
   38.6480   27.3010   43.8210 C   0  0  0  0  0  0  0  0  0  0  0  0
   39.0900   26.3360   42.9160 C   0  0  0  0  0  0  0  0  0  0  0  0
   39.0650   26.6590   41.5520 C   0  0  0  0  0  0  0  0  0  0  0  0
   38.6090   27.8980   41.2180 N   0  0  0  0  0  0  0  0  0  0  0  0
   38.1910   28.8070   42.1200 C   0  0  0  0  0  0  0  0  0  0  0  0
   38.2120   28.5040   43.4260 N   0  0  0  0  0  0  0  0  0  0  0  0
   37.7700   30.0120   41.4900 N   0  0  0  0  0  0  0  0  0  0  0  0
   36.4530   30.1960   41.1470 C   0  0  0  0  0  0  0  0  0  0  0  0
   36.2910   31.4020   40.5670 N   0  0  0  0  0  0  0  0  0  0  0  0
   37.4900   31.9940   40.5340 C   0  0  0  0  0  0  0  0  0  0  0  0
   37.9830   33.2110   40.0790 C   0  0  0  0  0  0  0  0  0  0  0  0
   39.2990   33.4900   40.2110 N   0  0  0  0  0  0  0  0  0  0  0  0
   40.1470   32.6230   40.7720 C   0  0  0  0  0  0  0  0  0  0  0  0
   39.6920   31.4190   41.2290 N   0  0  0  0  0  0  0  0  0  0  0  0
   38.3910   31.1160   41.1100 C   0  0  0  0  0  0  0  0  0  0  0  0
   36.9870   34.0520   39.5090 N   0  0  0  0  0  0  0  0  0  0  0  0
   41.5680   33.0500   40.8570 C   0  0  0  0  0  0  0  0  0  0  0  0
   41.6620   34.5380   40.6360 C   0  0  0  0  0  0  0  0  0  0  0  0
   38.6579   27.0659   44.8955 H   0  0  0  0  0  0  0  0  0  0  0  0
   39.4463   25.3542   43.2611 H   0  0  0  0  0  0  0  0  0  0  0  0
   39.3988   25.9437   40.7859 H   0  0  0  0  0  0  0  0  0  0  0  0
   35.6483   29.4663   41.3202 H   0  0  0  0  0  0  0  0  0  0  0  0
   36.0090   33.7325   39.4610 H   0  0  0  0  0  0  0  0  0  0  0  0
   37.2439   34.9804   39.1443 H   0  0  0  0  0  0  0  0  0  0  0  0
   41.9662   32.8016   41.8519 H   0  0  0  0  0  0  0  0  0  0  0  0
   42.1534   32.5281   40.0857 H   0  0  0  0  0  0  0  0  0  0  0  0
   41.6945   35.0517   41.6081 H   0  0  0  0  0  0  0  0  0  0  0  0
   42.5764   34.7675   40.0693 H   0  0  0  0  0  0  0  0  0  0  0  0
   40.7837   34.8807   40.0693 H   0  0  0  0  0  0  0  0  0  0  0  0
  2  1  2  0
  3  2  1  0
  4  3  2  0
  4  5  1  0
  5  6  2  0
  6  1  1  0
  7  5  1  0
  8  7  1  0
  9  8  2  0
 10  9  1  0
 10 15  2  0
 11 12  2  0
 11 10  1  0
 12 13  1  0
 13 17  1  0
 13 14  2  0
 15 14  1  0
 15  7  1  0
 16 11  1  0
 18 17  1  0
  1 19  1  0
  2 20  1  0
  3 21  1  0
  8 22  1  0
 16 23  1  0
 16 24  1  0
 17 25  1  0
 17 26  1  0
 18 27  1  0
 18 28  1  0
 18 29  1  0
M  ISO  8  19  14  20  14  21  14  22  14  25   8  26   8  27   8  28   8
M  ISO  1  29   8
M  END
>  <minimizedAffinity>  (1) 
-5.35873938

>  <minimizedRMSD>  (1) 
1.3737992

$$$$
