
     RDKit          3D

 26 28  0  0  0  0  0  0  0  0999 V2000
   39.7510   26.2100   43.9110 C   0  0  0  0  0  0  0  0  0  0  0  0
   40.1270   25.3210   42.8950 C   0  0  0  0  0  0  0  0  0  0  0  0
   39.8540   25.6850   41.5770 C   0  0  0  0  0  0  0  0  0  0  0  0
   39.2400   26.8810   41.3560 N   0  0  0  0  0  0  0  0  0  0  0  0
   38.8920   27.7120   42.3600 C   0  0  0  0  0  0  0  0  0  0  0  0
   39.1460   27.3810   43.6550 N   0  0  0  0  0  0  0  0  0  0  0  0
   38.2630   28.9010   41.8720 N   0  0  0  0  0  0  0  0  0  0  0  0
   36.9160   28.9860   41.7560 C   0  0  0  0  0  0  0  0  0  0  0  0
   36.5760   30.1970   41.2790 N   0  0  0  0  0  0  0  0  0  0  0  0
   37.7160   30.8950   41.0860 C   0  0  0  0  0  0  0  0  0  0  0  0
   37.9970   32.1730   40.6230 C   0  0  0  0  0  0  0  0  0  0  0  0
   39.3050   32.5580   40.5590 N   0  0  0  0  0  0  0  0  0  0  0  0
   40.2930   31.7420   40.9280 C   0  0  0  0  0  0  0  0  0  0  0  0
   40.0300   30.4860   41.3840 N   0  0  0  0  0  0  0  0  0  0  0  0
   38.7480   30.0750   41.4590 C   0  0  0  0  0  0  0  0  0  0  0  0
   36.8520   32.9330   40.2670 N   0  0  0  0  0  0  0  0  0  0  0  0
   41.6960   32.2310   40.8310 C   0  0  0  0  0  0  0  0  0  0  0  0
   39.9591   25.9385   44.9565 H   0  0  0  0  0  0  0  0  0  0  0  0
   40.6215   24.3669   43.1297 H   0  0  0  0  0  0  0  0  0  0  0  0
   40.1265   25.0256   40.7398 H   0  0  0  0  0  0  0  0  0  0  0  0
   36.2070   28.1853   42.0131 H   0  0  0  0  0  0  0  0  0  0  0  0
   36.9615   33.8939   39.9126 H   0  0  0  0  0  0  0  0  0  0  0  0
   35.9118   32.5235   40.3631 H   0  0  0  0  0  0  0  0  0  0  0  0
   42.1053   32.3737   41.8420 H   0  0  0  0  0  0  0  0  0  0  0  0
   42.3052   31.4922   40.2897 H   0  0  0  0  0  0  0  0  0  0  0  0
   41.7140   33.1884   40.2897 H   0  0  0  0  0  0  0  0  0  0  0  0
  2  1  2  0
  3  2  1  0
  4  3  2  0
  4  5  1  0
  5  6  2  0
  6  1  1  0
  7  5  1  0
  8  7  1  0
  9  8  2  0
 10  9  1  0
 10 15  2  0
 11 10  1  0
 12 11  2  0
 12 13  1  0
 13 14  2  0
 14 15  1  0
 15  7  1  0
 16 11  1  0
 17 13  1  0
  1 18  1  0
  2 19  1  0
  3 20  1  0
  8 21  1  0
 16 22  1  0
 16 23  1  0
 17 24  1  0
 17 25  1  0
 17 26  1  0
M  ISO  7  18  14  19  14  20  14  21  14  24   8  25   8  26   8
M  END
>  <minimizedAffinity>  (1) 
-5.04722071

>  <minimizedRMSD>  (1) 
0.103132635

$$$$
