
     RDKit          3D

 24 26  0  0  0  0  0  0  0  0999 V2000
   39.7600   26.2120   43.9060 C   0  0  0  0  0  0  0  0  0  0  0  0
   40.1190   25.3180   42.8950 C   0  0  0  0  0  0  0  0  0  0  0  0
   39.8230   25.6850   41.5670 C   0  0  0  0  0  0  0  0  0  0  0  0
   39.2100   26.8750   41.3530 N   0  0  0  0  0  0  0  0  0  0  0  0
   38.8760   27.7190   42.3780 C   0  0  0  0  0  0  0  0  0  0  0  0
   39.1580   27.3720   43.6410 N   0  0  0  0  0  0  0  0  0  0  0  0
   38.2430   28.9010   41.8860 N   0  0  0  0  0  0  0  0  0  0  0  0
   36.8940   28.9810   41.7790 C   0  0  0  0  0  0  0  0  0  0  0  0
   36.5480   30.1910   41.2920 N   0  0  0  0  0  0  0  0  0  0  0  0
   37.6710   30.8820   41.0880 C   0  0  0  0  0  0  0  0  0  0  0  0
   37.9770   32.1600   40.6120 C   0  0  0  0  0  0  0  0  0  0  0  0
   39.2640   32.5470   40.5350 N   0  0  0  0  0  0  0  0  0  0  0  0
   40.2720   31.7340   40.9070 C   0  0  0  0  0  0  0  0  0  0  0  0
   40.0080   30.4830   41.3740 N   0  0  0  0  0  0  0  0  0  0  0  0
   38.7170   30.0680   41.4620 C   0  0  0  0  0  0  0  0  0  0  0  0
   36.8530   32.9240   40.2520 N   0  0  0  0  0  0  0  0  0  0  0  0
   41.5680   32.2140   40.7940 O   0  0  0  0  0  0  0  0  0  0  0  0
   39.9803   25.9516   44.9518 H   0  0  0  0  0  0  0  0  0  0  0  0
   40.6141   24.3634   43.1265 H   0  0  0  0  0  0  0  0  0  0  0  0
   40.0823   25.0239   40.7270 H   0  0  0  0  0  0  0  0  0  0  0  0
   36.1886   28.1811   42.0483 H   0  0  0  0  0  0  0  0  0  0  0  0
   36.9750   33.8804   39.8896 H   0  0  0  0  0  0  0  0  0  0  0  0
   35.9076   32.5273   40.3507 H   0  0  0  0  0  0  0  0  0  0  0  0
   42.3322   31.6429   41.0585 H   0  0  0  0  0  0  0  0  0  0  0  0
  2  1  2  0
  3  2  1  0
  4  3  2  0
  4  5  1  0
  5  6  2  0
  6  1  1  0
  7  5  1  0
  8  7  1  0
  9  8  2  0
 10  9  1  0
 10 15  2  0
 11 10  1  0
 12 11  2  0
 12 13  1  0
 13 14  2  0
 14 15  1  0
 15  7  1  0
 16 11  1  0
 17 13  1  0
  1 18  1  0
  2 19  1  0
  3 20  1  0
  8 21  1  0
 16 22  1  0
 16 23  1  0
 17 24  1  0
M  ISO  5  18  14  19  14  20  14  21  14  24   3
M  END
>  <minimizedAffinity>  (1) 
-5.03703785

>  <minimizedRMSD>  (1) 
0.0834178552

$$$$
