
     RDKit          3D

 25 27  0  0  0  0  0  0  0  0999 V2000
   38.6630   31.7280   40.9060 C   0  0  0  0  0  0  0  0  0  0  0  0
   39.6320   31.6020   41.8570 N   0  0  0  0  0  0  0  0  0  0  0  0
   39.6040   30.5910   42.7430 C   0  0  0  0  0  0  0  0  0  0  0  0
   38.6300   29.6410   42.7560 N   0  0  0  0  0  0  0  0  0  0  0  0
   37.6480   29.7360   41.8210 C   0  0  0  0  0  0  0  0  0  0  0  0
   36.6660   28.7610   41.8500 C   0  0  0  0  0  0  0  0  0  0  0  0
   35.6320   28.8090   40.9130 C   0  0  0  0  0  0  0  0  0  0  0  0
   35.6220   29.8300   39.9850 C   0  0  0  0  0  0  0  0  0  0  0  0
   36.6280   30.7830   39.9960 C   0  0  0  0  0  0  0  0  0  0  0  0
   37.6600   30.7690   40.9010 C   0  0  0  0  0  0  0  0  0  0  0  0
   38.5510   32.6930   39.9400 O   0  0  0  0  0  0  0  0  0  0  0  0
   39.4970   36.2070   40.2400 C   0  0  0  0  0  0  0  0  0  0  0  0
   40.8040   36.1410   39.6940 C   0  0  0  0  0  0  0  0  0  0  0  0
   41.2470   34.8820   39.2670 C   0  0  0  0  0  0  0  0  0  0  0  0
   40.4130   33.8030   39.3970 N   0  0  0  0  0  0  0  0  0  0  0  0
   39.1760   33.9230   39.9250 C   0  0  0  0  0  0  0  0  0  0  0  0
   38.7180   35.1180   40.3460 N   0  0  0  0  0  0  0  0  0  0  0  0
   40.4065   30.5290   43.4928 H   0  0  0  0  0  0  0  0  0  0  0  0
   36.6998   27.9586   42.6016 H   0  0  0  0  0  0  0  0  0  0  0  0
   34.8393   28.0463   40.9146 H   0  0  0  0  0  0  0  0  0  0  0  0
   34.8169   29.8874   39.2377 H   0  0  0  0  0  0  0  0  0  0  0  0
   36.5982   31.5869   39.2457 H   0  0  0  0  0  0  0  0  0  0  0  0
   39.1104   37.1769   40.5863 H   0  0  0  0  0  0  0  0  0  0  0  0
   41.4395   37.0349   39.6097 H   0  0  0  0  0  0  0  0  0  0  0  0
   42.2507   34.7617   38.8333 H   0  0  0  0  0  0  0  0  0  0  0  0
  1  2  2  0
  2  3  1  0
  3  4  2  0
  5  6  2  0
  5  4  1  0
  7  6  1  0
  8  9  1  0
  8  7  2  0
  9 10  2  0
 10  1  1  0
 10  5  1  0
 11  1  1  0
 12 17  2  0
 13 12  1  0
 14 15  1  0
 14 13  2  0
 15 16  2  0
 16 11  1  0
 16 17  1  0
  3 18  1  0
  6 19  1  0
  7 20  1  0
  8 21  1  0
  9 22  1  0
 12 23  1  0
 13 24  1  0
 14 25  1  0
M  ISO  8  18  14  19  14  20  14  21  14  22  14  23  14  24  14  25  14
M  END
>  <minimizedAffinity>  (1) 
-5.30939102

>  <minimizedRMSD>  (1) 
5.88143969

$$$$
