
     RDKit          3D

 25 27  0  0  0  0  0  0  0  0999 V2000
   37.2870   33.1750   40.1040 O   0  0  0  0  0  0  0  0  0  0  0  0
   38.5760   33.5520   40.4010 C   0  0  0  0  0  0  0  0  0  0  0  0
   39.4520   32.5850   40.8560 C   0  0  0  0  0  0  0  0  0  0  0  0
   40.6680   33.1600   41.0900 N   0  0  0  0  0  0  0  0  0  0  0  0
   40.5730   34.4750   40.7920 C   0  0  0  0  0  0  0  0  0  0  0  0
   41.4710   35.5480   40.8300 C   0  0  0  0  0  0  0  0  0  0  0  0
   41.0250   36.7950   40.4420 C   0  0  0  0  0  0  0  0  0  0  0  0
   39.7170   37.0160   40.0160 C   0  0  0  0  0  0  0  0  0  0  0  0
   38.8080   35.9640   39.9700 C   0  0  0  0  0  0  0  0  0  0  0  0
   39.2890   34.7340   40.3640 C   0  0  0  0  0  0  0  0  0  0  0  0
   36.4260   29.9060   38.7580 C   0  0  0  0  0  0  0  0  0  0  0  0
   36.9360   30.0340   37.4510 C   0  0  0  0  0  0  0  0  0  0  0  0
   37.5460   31.2610   37.1380 C   0  0  0  0  0  0  0  0  0  0  0  0
   37.6040   32.2290   38.1010 N   0  0  0  0  0  0  0  0  0  0  0  0
   37.0970   32.0480   39.3360 C   0  0  0  0  0  0  0  0  0  0  0  0
   36.5020   30.8800   39.6730 N   0  0  0  0  0  0  0  0  0  0  0  0
   39.2087   31.5227   41.0056 H   0  0  0  0  0  0  0  0  0  0  0  0
   41.5101   32.6765   41.4334 H   0  0  0  0  0  0  0  0  0  0  0  0
   42.5093   35.4005   41.1618 H   0  0  0  0  0  0  0  0  0  0  0  0
   41.7255   37.6427   40.4700 H   0  0  0  0  0  0  0  0  0  0  0  0
   39.4020   38.0260   39.7150 H   0  0  0  0  0  0  0  0  0  0  0  0
   37.7685   36.1052   39.6393 H   0  0  0  0  0  0  0  0  0  0  0  0
   35.9417   28.9595   39.0403 H   0  0  0  0  0  0  0  0  0  0  0  0
   36.8610   29.2189   36.7162 H   0  0  0  0  0  0  0  0  0  0  0  0
   37.9683   31.4386   36.1379 H   0  0  0  0  0  0  0  0  0  0  0  0
  1  2  1  0
  2  3  2  0
  3  4  1  0
  5  6  2  0
  5  4  1  0
  7  6  1  0
  8  7  2  0
  9  8  1  0
  9 10  2  0
 10  2  1  0
 10  5  1  0
 11 16  2  0
 12 11  1  0
 13 12  2  0
 13 14  1  0
 14 15  2  0
 15 16  1  0
 15  1  1  0
  3 17  1  0
  4 18  1  0
  6 19  1  0
  7 20  1  0
  8 21  1  0
  9 22  1  0
 11 23  1  0
 12 24  1  0
 13 25  1  0
M  ISO  8  17  14  18   9  19  14  20  14  21  14  22  14  23  14  24  14
M  ISO  1  25  14
M  END
>  <minimizedAffinity>  (1) 
-4.98155737

>  <minimizedRMSD>  (1) 
4.83994913

$$$$
