
     RDKit          3D

 22 24  0  0  0  0  0  0  0  0999 V2000
   35.9850   30.0770   40.9960 O   0  0  0  0  0  0  0  0  0  0  0  0
   37.4190   30.5540   36.6700 N   0  0  0  0  0  0  0  0  0  0  0  0
   36.8760   29.3560   36.9550 C   0  0  0  0  0  0  0  0  0  0  0  0
   36.4680   29.2570   38.2330 N   0  0  0  0  0  0  0  0  0  0  0  0
   36.7560   30.4410   38.8140 C   0  0  0  0  0  0  0  0  0  0  0  0
   36.5800   30.9540   40.1040 C   0  0  0  0  0  0  0  0  0  0  0  0
   36.9750   32.2050   40.4040 N   0  0  0  0  0  0  0  0  0  0  0  0
   37.5370   32.9460   39.4450 C   0  0  0  0  0  0  0  0  0  0  0  0
   37.7080   32.4580   38.2050 N   0  0  0  0  0  0  0  0  0  0  0  0
   37.3400   31.2180   37.8290 C   0  0  0  0  0  0  0  0  0  0  0  0
   38.6080   28.7870   43.1860 C   0  0  0  0  0  0  0  0  0  0  0  0
   38.1120   27.4810   43.3610 C   0  0  0  0  0  0  0  0  0  0  0  0
   36.9170   27.1370   42.7170 C   0  0  0  0  0  0  0  0  0  0  0  0
   36.3000   28.0860   41.9570 N   0  0  0  0  0  0  0  0  0  0  0  0
   36.8090   29.3320   41.8140 C   0  0  0  0  0  0  0  0  0  0  0  0
   37.9530   29.6920   42.4180 N   0  0  0  0  0  0  0  0  0  0  0  0
   37.8040   30.8819   35.7727 H   0  0  0  0  0  0  0  0  0  0  0  0
   36.7763   28.5434   36.2203 H   0  0  0  0  0  0  0  0  0  0  0  0
   37.8646   33.9708   39.6740 H   0  0  0  0  0  0  0  0  0  0  0  0
   39.5454   29.0788   43.6822 H   0  0  0  0  0  0  0  0  0  0  0  0
   38.6480   26.7515   43.9859 H   0  0  0  0  0  0  0  0  0  0  0  0
   36.4882   26.1294   42.8214 H   0  0  0  0  0  0  0  0  0  0  0  0
  1 15  1  0
  2  3  1  0
  2 10  1  0
  3  4  2  0
  4  5  1  0
  5  6  2  0
  6  7  1  0
  6  1  1  0
  8  7  2  0
  9  8  1  0
 10  9  2  0
 10  5  1  0
 11 12  2  0
 13 12  1  0
 14 13  2  0
 15 14  1  0
 15 16  2  0
 16 11  1  0
  2 17  1  0
  3 18  1  0
  8 19  1  0
 11 20  1  0
 12 21  1  0
 13 22  1  0
M  ISO  6  17   9  18  14  19  14  20  14  21  14  22  14
M  END
>  <minimizedAffinity>  (1) 
-4.50607681

>  <minimizedRMSD>  (1) 
0.897129178

$$$$
