
     RDKit          3D

 18 19  0  0  0  0  0  0  0  0999 V2000
   38.8670   28.2030   43.0020 C   0  0  0  0  0  0  0  0  0  0  0  0
   37.9010   27.5350   43.8000 C   0  0  0  0  0  0  0  0  0  0  0  0
   36.5830   27.4950   43.2850 C   0  0  0  0  0  0  0  0  0  0  0  0
   36.3280   28.0860   42.0850 N   0  0  0  0  0  0  0  0  0  0  0  0
   37.2940   28.7060   41.3730 C   0  0  0  0  0  0  0  0  0  0  0  0
   38.5610   28.7690   41.8250 N   0  0  0  0  0  0  0  0  0  0  0  0
   36.7450   29.2050   40.2100 O   0  0  0  0  0  0  0  0  0  0  0  0
   36.7930   32.6440   40.4010 N   0  0  0  0  0  0  0  0  0  0  0  0
   36.6220   31.3960   40.8160 N   0  0  0  0  0  0  0  0  0  0  0  0
   36.9130   30.5440   39.8140 C   0  0  0  0  0  0  0  0  0  0  0  0
   37.2850   31.2860   38.7130 C   0  0  0  0  0  0  0  0  0  0  0  0
   37.2000   32.6100   39.1110 C   0  0  0  0  0  0  0  0  0  0  0  0
   39.9048   28.2584   43.3624 H   0  0  0  0  0  0  0  0  0  0  0  0
   38.1621   27.0745   44.7642 H   0  0  0  0  0  0  0  0  0  0  0  0
   35.7786   26.9951   43.8446 H   0  0  0  0  0  0  0  0  0  0  0  0
   36.6419   33.4932   40.9640 H   0  0  0  0  0  0  0  0  0  0  0  0
   37.5861   30.9061   37.7256 H   0  0  0  0  0  0  0  0  0  0  0  0
   37.4252   33.4856   38.4844 H   0  0  0  0  0  0  0  0  0  0  0  0
  1  2  2  0
  3  2  1  0
  4  3  2  0
  5  6  2  0
  5  4  1  0
  6  1  1  0
  7  5  1  0
  8  9  1  0
 10  7  1  0
 10  9  2  0
 11 12  2  0
 11 10  1  0
 12  8  1  0
  1 13  1  0
  2 14  1  0
  3 15  1  0
  8 16  1  0
 11 17  1  0
 12 18  1  0
M  ISO  6  13  14  14  14  15  14  16   9  17  14  18  14
M  END
>  <minimizedAffinity>  (1) 
-4.06160164

>  <minimizedRMSD>  (1) 
0.855612457

$$$$
