
     RDKit          3D

 23 24  0  0  1  0  0  0  0  0999 V2000
   38.3330   29.2100   43.1350 C   0  0  0  0  0  0  0  0  0  0  0  0
   37.9510   27.8790   43.3840 C   0  0  0  0  0  0  0  0  0  0  0  0
   36.8620   27.3740   42.6600 C   0  0  0  0  0  0  0  0  0  0  0  0
   36.2390   28.1890   41.7650 N   0  0  0  0  0  0  0  0  0  0  0  0
   36.6460   29.4560   41.5640 C   0  0  0  0  0  0  0  0  0  0  0  0
   37.6830   29.9740   42.2390 N   0  0  0  0  0  0  0  0  0  0  0  0
   35.8360   30.0520   40.6020 O   0  0  0  0  0  0  0  0  0  0  0  0
   36.8080   32.2250   40.5770 N   0  0  0  0  0  0  0  0  0  0  0  0
   37.4220   33.0140   39.5110 C   0  0  0  0  0  0  0  0  0  0  0  0
   38.3250   31.9810   38.8510 C   0  0  0  0  0  0  0  0  0  0  0  0
   37.5570   30.6890   39.0220 C   0  0  0  0  0  0  0  0  0  0  0  0
   36.3370   31.0880   39.7960 C   0  0  1  0  0  0  0  0  0  0  0  0
   39.1840   29.6362   43.6865 H   0  0  0  0  0  0  0  0  0  0  0  0
   38.4860   27.2588   44.1182 H   0  0  0  0  0  0  0  0  0  0  0  0
   36.5179   26.3403   42.8119 H   0  0  0  0  0  0  0  0  0  0  0  0
   37.4953   31.9426   41.2903 H   0  0  0  0  0  0  0  0  0  0  0  0
   36.6672   33.3958   38.8078 H   0  0  0  0  0  0  0  0  0  0  0  0
   37.9507   33.9115   39.8647 H   0  0  0  0  0  0  0  0  0  0  0  0
   39.3005   31.9296   39.3567 H   0  0  0  0  0  0  0  0  0  0  0  0
   38.5486   32.2134   37.7993 H   0  0  0  0  0  0  0  0  0  0  0  0
   37.2788   30.2679   38.0446 H   0  0  0  0  0  0  0  0  0  0  0  0
   38.1456   29.9127   39.5328 H   0  0  0  0  0  0  0  0  0  0  0  0
   35.4831   31.3326   39.1471 H   0  0  0  0  0  0  0  0  0  0  0  0
  1  2  2  0
  3  2  1  0
  4  3  2  0
  5  4  1  0
  5  6  2  0
  6  1  1  0
  7  5  1  0
  9  8  1  0
 10 11  1  0
 10  9  1  0
 11 12  1  0
 12  8  1  0
 12  7  1  0
  1 13  1  0
  2 14  1  0
  3 15  1  0
  8 16  1  0
  9 17  1  0
  9 18  1  0
 10 19  1  0
 10 20  1  0
 11 21  1  0
 11 22  1  0
 12 23  1  6
M  ISO  8  13  14  14  14  15  14  16   5  17  13  18  13  19  13  20  13
M  ISO  3  21  13  22  13  23  13
M  END
>  <minimizedAffinity>  (1) 
-4.00513172

>  <minimizedRMSD>  (1) 
0.650604308

$$$$
