
     RDKit          3D

 17 18  0  0  0  0  0  0  0  0999 V2000
   38.6610   28.7680   43.1900 C   0  0  0  0  0  0  0  0  0  0  0  0
   38.1400   27.4700   43.3720 C   0  0  0  0  0  0  0  0  0  0  0  0
   36.9110   27.1990   42.7360 C   0  0  0  0  0  0  0  0  0  0  0  0
   36.3120   28.1690   42.0040 N   0  0  0  0  0  0  0  0  0  0  0  0
   36.8600   29.3980   41.8640 C   0  0  0  0  0  0  0  0  0  0  0  0
   38.0300   29.6880   42.4580 N   0  0  0  0  0  0  0  0  0  0  0  0
   36.0480   30.1850   41.0730 O   0  0  0  0  0  0  0  0  0  0  0  0
   36.6450   31.1790   40.3090 C   0  0  0  0  0  0  0  0  0  0  0  0
   36.7820   30.5130   39.0790 C   0  0  0  0  0  0  0  0  0  0  0  0
   37.6000   31.8210   37.9720 S   0  0  0  0  0  0  0  0  0  0  0  0
   37.5800   33.0160   39.4450 C   0  0  0  0  0  0  0  0  0  0  0  0
   37.1090   32.4100   40.2580 N   0  0  0  0  0  0  0  0  0  0  0  0
   39.6173   29.0300   43.6663 H   0  0  0  0  0  0  0  0  0  0  0  0
   38.6623   26.7128   43.9753 H   0  0  0  0  0  0  0  0  0  0  0  0
   36.4426   26.2085   42.8334 H   0  0  0  0  0  0  0  0  0  0  0  0
   36.4873   29.4852   38.8207 H   0  0  0  0  0  0  0  0  0  0  0  0
   37.9435   34.0533   39.4887 H   0  0  0  0  0  0  0  0  0  0  0  0
  1  2  2  0
  3  2  1  0
  4  3  2  0
  5  4  1  0
  5  6  2  0
  6  1  1  0
  7  5  1  0
  8  7  1  0
  9  8  2  0
 10  9  1  0
 10 11  1  0
 11 12  2  0
 12  8  1  0
  1 13  1  0
  2 14  1  0
  3 15  1  0
  9 16  1  0
 11 17  1  0
M  ISO  5  13  14  14  14  15  14  16  14  17  14
M  END
>  <minimizedAffinity>  (1) 
-3.70650077

>  <minimizedRMSD>  (1) 
0.57429415

$$$$
