
     RDKit          3D

 27 28  0  0  0  0  0  0  0  0999 V2000
   38.4920   28.8940   43.1120 C   0  0  0  0  0  0  0  0  0  0  0  0
   37.5660   28.1190   43.8360 C   0  0  0  0  0  0  0  0  0  0  0  0
   36.4280   27.6690   43.1420 C   0  0  0  0  0  0  0  0  0  0  0  0
   36.3000   28.0120   41.8210 N   0  0  0  0  0  0  0  0  0  0  0  0
   37.2100   28.7520   41.1750 C   0  0  0  0  0  0  0  0  0  0  0  0
   38.3190   29.2030   41.8140 N   0  0  0  0  0  0  0  0  0  0  0  0
   36.8120   28.9330   39.8640 O   0  0  0  0  0  0  0  0  0  0  0  0
   36.6700   30.2670   39.3990 C   0  0  0  0  0  0  0  0  0  0  0  0
   36.8160   31.2350   40.5810 C   0  0  0  0  0  0  0  0  0  0  0  0
   36.9990   32.6060   39.9290 C   0  0  0  0  0  0  0  0  0  0  0  0
   38.4680   32.6650   39.5120 C   0  0  0  0  0  0  0  0  0  0  0  0
   38.8870   31.3180   38.9630 C   0  0  0  0  0  0  0  0  0  0  0  0
   37.7030   30.5820   38.3490 C   0  0  0  0  0  0  0  0  0  0  0  0
   39.3917   29.2611   43.6275 H   0  0  0  0  0  0  0  0  0  0  0  0
   37.7252   27.8762   44.8970 H   0  0  0  0  0  0  0  0  0  0  0  0
   35.6629   27.0594   43.6450 H   0  0  0  0  0  0  0  0  0  0  0  0
   35.6739   30.3797   38.9461 H   0  0  0  0  0  0  0  0  0  0  0  0
   35.9137   31.2203   41.2099 H   0  0  0  0  0  0  0  0  0  0  0  0
   37.6554   30.9686   41.2401 H   0  0  0  0  0  0  0  0  0  0  0  0
   36.3452   32.7043   39.0498 H   0  0  0  0  0  0  0  0  0  0  0  0
   36.7359   33.4238   40.6160 H   0  0  0  0  0  0  0  0  0  0  0  0
   38.5993   33.4346   38.7371 H   0  0  0  0  0  0  0  0  0  0  0  0
   39.0888   32.9164   40.3846 H   0  0  0  0  0  0  0  0  0  0  0  0
   39.6558   31.4685   38.1908 H   0  0  0  0  0  0  0  0  0  0  0  0
   39.2831   30.7118   39.7910 H   0  0  0  0  0  0  0  0  0  0  0  0
   37.2477   31.2145   37.5727 H   0  0  0  0  0  0  0  0  0  0  0  0
   38.0612   29.6388   37.9108 H   0  0  0  0  0  0  0  0  0  0  0  0
  1  2  2  0
  3  2  1  0
  4  3  2  0
  5  6  2  0
  5  4  1  0
  6  1  1  0
  7  5  1  0
  8  7  1  0
  8  9  1  0
 10  9  1  0
 11 10  1  0
 12 11  1  0
 13 12  1  0
 13  8  1  0
  1 14  1  0
  2 15  1  0
  3 16  1  0
  8 17  1  0
  9 18  1  0
  9 19  1  0
 10 20  1  0
 10 21  1  0
 11 22  1  0
 11 23  1  0
 12 24  1  0
 12 25  1  0
 13 26  1  0
 13 27  1  0
M  ISO  8  14  14  15  14  16  14  17  13  18  13  19  13  20  13  21  13
M  ISO  6  22  13  23  13  24  13  25  13  26  13  27  13
M  END
>  <minimizedAffinity>  (1) 
-3.69196939

>  <minimizedRMSD>  (1) 
0.754707813

$$$$
