
     RDKit          3D

 18 19  0  0  0  0  0  0  0  0999 V2000
   38.5890   28.7980   43.1080 C   0  0  0  0  0  0  0  0  0  0  0  0
   37.7780   27.6520   42.9980 C   0  0  0  0  0  0  0  0  0  0  0  0
   36.6170   27.7390   42.1970 C   0  0  0  0  0  0  0  0  0  0  0  0
   36.3540   28.9260   41.5840 N   0  0  0  0  0  0  0  0  0  0  0  0
   37.1520   29.9970   41.7120 C   0  0  0  0  0  0  0  0  0  0  0  0
   38.2690   29.9480   42.4700 N   0  0  0  0  0  0  0  0  0  0  0  0
   36.6630   31.0700   40.9920 O   0  0  0  0  0  0  0  0  0  0  0  0
   37.6380   31.7850   40.2440 C   0  0  0  0  0  0  0  0  0  0  0  0
   37.1830   32.0570   38.8250 C   0  0  0  0  0  0  0  0  0  0  0  0
   37.4400   33.1660   39.8250 C   0  0  0  0  0  0  0  0  0  0  0  0
   39.4995   28.7578   43.7239 H   0  0  0  0  0  0  0  0  0  0  0  0
   38.0398   26.7191   43.5188 H   0  0  0  0  0  0  0  0  0  0  0  0
   35.9472   26.8754   42.0727 H   0  0  0  0  0  0  0  0  0  0  0  0
   38.4823   31.3149   40.7695 H   0  0  0  0  0  0  0  0  0  0  0  0
   36.1562   31.8151   38.5134 H   0  0  0  0  0  0  0  0  0  0  0  0
   37.5390   31.8017   37.8160 H   0  0  0  0  0  0  0  0  0  0  0  0
   38.3091   33.8278   39.6958 H   0  0  0  0  0  0  0  0  0  0  0  0
   36.8479   34.0101   40.2084 H   0  0  0  0  0  0  0  0  0  0  0  0
  2  1  2  0
  3  2  1  0
  4  5  1  0
  4  3  2  0
  5  6  2  0
  6  1  1  0
  7  5  1  0
  8  7  1  0
  9 10  1  0
  9  8  1  0
 10  8  1  0
  1 11  1  0
  2 12  1  0
  3 13  1  0
  8 14  1  0
  9 15  1  0
  9 16  1  0
 10 17  1  0
 10 18  1  0
M  ISO  8  11  14  12  14  13  14  14  13  15  13  16  13  17  13  18  13
M  END
>  <minimizedAffinity>  (1) 
-3.32600904

>  <minimizedRMSD>  (1) 
1.26244664

$$$$
