
     RDKit          3D

 17 17  0  0  0  0  0  0  0  0999 V2000
   38.6870   28.7940   43.1680 C   0  0  0  0  0  0  0  0  0  0  0  0
   38.1420   27.5120   43.3860 C   0  0  0  0  0  0  0  0  0  0  0  0
   36.9020   27.2170   42.7710 C   0  0  0  0  0  0  0  0  0  0  0  0
   36.3250   28.1830   42.0170 N   0  0  0  0  0  0  0  0  0  0  0  0
   36.8810   29.3990   41.8350 C   0  0  0  0  0  0  0  0  0  0  0  0
   38.0590   29.7070   42.4060 N   0  0  0  0  0  0  0  0  0  0  0  0
   36.0780   30.1770   41.0260 O   0  0  0  0  0  0  0  0  0  0  0  0
   36.6400   31.3590   40.4850 C   0  0  0  0  0  0  0  0  0  0  0  0
   36.9280   31.1950   38.9890 C   0  0  0  0  0  0  0  0  0  0  0  0
   39.6496   29.0538   43.6327 H   0  0  0  0  0  0  0  0  0  0  0  0
   38.6608   26.7695   44.0102 H   0  0  0  0  0  0  0  0  0  0  0  0
   36.4226   26.2355   42.9010 H   0  0  0  0  0  0  0  0  0  0  0  0
   35.9339   32.1905   40.6264 H   0  0  0  0  0  0  0  0  0  0  0  0
   37.5877   31.5659   41.0038 H   0  0  0  0  0  0  0  0  0  0  0  0
   37.8768   30.6547   38.8553 H   0  0  0  0  0  0  0  0  0  0  0  0
   36.1125   30.6258   38.5189 H   0  0  0  0  0  0  0  0  0  0  0  0
   37.0014   32.1868   38.5189 H   0  0  0  0  0  0  0  0  0  0  0  0
  1  2  2  0
  3  2  1  0
  4  3  2  0
  5  4  1  0
  5  6  2  0
  6  1  1  0
  7  5  1  0
  8  7  1  0
  9  8  1  0
  1 10  1  0
  2 11  1  0
  3 12  1  0
  8 13  1  0
  8 14  1  0
  9 15  1  0
  9 16  1  0
  9 17  1  0
M  ISO  8  10  14  11  14  12  14  13   8  14   8  15   8  16   8  17   8
M  END
>  <minimizedAffinity>  (1) 
-2.99359131

>  <minimizedRMSD>  (1) 
0.706978679

$$$$
