
     RDKit          3D

 26 28  0  0  0  0  0  0  0  0999 V2000
   36.7530   31.2560   40.1450 C   0  0  0  0  0  0  0  0  0  0  0  0
   36.9160   31.4090   38.8110 N   0  0  0  0  0  0  0  0  0  0  0  0
   37.7450   32.4140   38.5970 O   0  0  0  0  0  0  0  0  0  0  0  0
   38.1000   32.8870   39.7750 C   0  0  0  0  0  0  0  0  0  0  0  0
   37.5030   32.1930   40.7760 N   0  0  0  0  0  0  0  0  0  0  0  0
   38.9740   33.9660   40.1230 N   0  0  0  0  0  0  0  0  0  0  0  0
   38.5630   35.2430   39.9210 C   0  0  0  0  0  0  0  0  0  0  0  0
   39.4180   36.2740   40.2610 C   0  0  0  0  0  0  0  0  0  0  0  0
   40.6600   35.9420   40.7970 C   0  0  0  0  0  0  0  0  0  0  0  0
   41.4700   36.8620   41.1220 O   0  0  0  0  0  0  0  0  0  0  0  0
   41.0250   34.6490   40.9810 N   0  0  0  0  0  0  0  0  0  0  0  0
   40.1730   33.6480   40.6420 C   0  0  0  0  0  0  0  0  0  0  0  0
   40.5300   32.4520   40.8190 O   0  0  0  0  0  0  0  0  0  0  0  0
   35.9740   30.3290   40.8450 O   0  0  0  0  0  0  0  0  0  0  0  0
   37.8130   28.1820   43.1550 C   0  0  0  0  0  0  0  0  0  0  0  0
   37.6740   26.9600   42.4780 C   0  0  0  0  0  0  0  0  0  0  0  0
   36.9530   26.9760   41.2700 C   0  0  0  0  0  0  0  0  0  0  0  0
   36.4350   28.1550   40.8300 N   0  0  0  0  0  0  0  0  0  0  0  0
   36.5950   29.2930   41.5110 C   0  0  0  0  0  0  0  0  0  0  0  0
   37.2850   29.3140   42.6790 N   0  0  0  0  0  0  0  0  0  0  0  0
   37.5705   35.4532   39.4957 H   0  0  0  0  0  0  0  0  0  0  0  0
   39.1268   37.3244   40.1129 H   0  0  0  0  0  0  0  0  0  0  0  0
   41.9489   34.4263   41.3781 H   0  0  0  0  0  0  0  0  0  0  0  0
   38.3713   28.2086   44.1024 H   0  0  0  0  0  0  0  0  0  0  0  0
   38.1096   26.0310   42.8745 H   0  0  0  0  0  0  0  0  0  0  0  0
   36.8104   26.0515   40.6912 H   0  0  0  0  0  0  0  0  0  0  0  0
  1  5  1  0
  1 14  1  0
  2  1  2  0
  3  2  1  0
  3  4  1  0
  4  6  1  0
  4  5  2  0
  6 12  1  0
  7  6  1  0
  7  8  2  0
  8  9  1  0
  9 11  1  0
  9 10  2  0
 12 13  2  0
 12 11  1  0
 14 19  1  0
 16 15  2  0
 17 16  1  0
 18 17  2  0
 18 19  1  0
 19 20  2  0
 20 15  1  0
  7 21  1  0
  8 22  1  0
 11 23  1  0
 15 24  1  0
 16 25  1  0
 17 26  1  0
M  ISO  6  21  14  22  14  23   9  24  14  25  14  26  14
M  END
>  <minimizedAffinity>  (1) 
-5.87891674

>  <minimizedRMSD>  (1) 
1.57052326

$$$$
