
     RDKit          3D

 30 33  0  0  0  0  0  0  0  0999 V2000
   36.7240   30.8930   40.3340 C   0  0  0  0  0  0  0  0  0  0  0  0
   36.7120   31.4200   39.0880 N   0  0  0  0  0  0  0  0  0  0  0  0
   37.7310   32.2270   38.9550 O   0  0  0  0  0  0  0  0  0  0  0  0
   38.3890   32.2270   40.0790 C   0  0  0  0  0  0  0  0  0  0  0  0
   37.7850   31.3990   40.9690 N   0  0  0  0  0  0  0  0  0  0  0  0
   39.6110   32.9670   40.4500 C   0  0  0  0  0  0  0  0  0  0  0  0
   40.8310   32.5010   40.9060 C   0  0  0  0  0  0  0  0  0  0  0  0
   41.6580   33.5430   41.1200 N   0  0  0  0  0  0  0  0  0  0  0  0
   40.9740   34.6590   40.8030 C   0  0  0  0  0  0  0  0  0  0  0  0
   41.3830   35.9800   40.8520 C   0  0  0  0  0  0  0  0  0  0  0  0
   40.4950   36.9670   40.4750 C   0  0  0  0  0  0  0  0  0  0  0  0
   39.1920   36.7010   40.0410 C   0  0  0  0  0  0  0  0  0  0  0  0
   38.8390   35.3680   40.0130 C   0  0  0  0  0  0  0  0  0  0  0  0
   39.6910   34.3470   40.3800 C   0  0  0  0  0  0  0  0  0  0  0  0
   35.8570   29.9910   40.9430 O   0  0  0  0  0  0  0  0  0  0  0  0
   37.0720   27.0380   42.6870 C   0  0  0  0  0  0  0  0  0  0  0  0
   37.1580   26.1570   41.6020 C   0  0  0  0  0  0  0  0  0  0  0  0
   36.7830   26.6480   40.3160 C   0  0  0  0  0  0  0  0  0  0  0  0
   36.3690   27.9460   40.2370 N   0  0  0  0  0  0  0  0  0  0  0  0
   36.3060   28.7440   41.3050 C   0  0  0  0  0  0  0  0  0  0  0  0
   36.6510   28.3080   42.5240 N   0  0  0  0  0  0  0  0  0  0  0  0
   41.0864   31.4435   41.0687 H   0  0  0  0  0  0  0  0  0  0  0  0
   42.6287   33.4951   41.4611 H   0  0  0  0  0  0  0  0  0  0  0  0
   42.3986   36.2391   41.1858 H   0  0  0  0  0  0  0  0  0  0  0  0
   40.8283   38.0144   40.5179 H   0  0  0  0  0  0  0  0  0  0  0  0
   38.4970   37.4997   39.7427 H   0  0  0  0  0  0  0  0  0  0  0  0
   37.8240   35.1050   39.6803 H   0  0  0  0  0  0  0  0  0  0  0  0
   37.3532   26.6871   43.6909 H   0  0  0  0  0  0  0  0  0  0  0  0
   37.5031   25.1212   41.7366 H   0  0  0  0  0  0  0  0  0  0  0  0
   36.8259   26.0060   39.4238 H   0  0  0  0  0  0  0  0  0  0  0  0
  1 15  1  0
  1  5  1  0
  2  1  2  0
  3  2  1  0
  3  4  1  0
  4  6  1  0
  4  5  2  0
  6  7  2  0
  7  8  1  0
  9 10  2  0
  9  8  1  0
 11 10  1  0
 12 11  2  0
 13 12  1  0
 13 14  2  0
 14  6  1  0
 14  9  1  0
 15 20  1  0
 17 16  2  0
 18 17  1  0
 19 18  2  0
 19 20  1  0
 20 21  2  0
 21 16  1  0
  7 22  1  0
  8 23  1  0
 10 24  1  0
 11 25  1  0
 12 26  1  0
 13 27  1  0
 16 28  1  0
 17 29  1  0
 18 30  1  0
M  ISO  8  22  14  23   9  24  14  25  14  26  14  27  14  28  14  29  14
M  ISO  1  30  14
M  END
>  <minimizedAffinity>  (1) 
-5.83585358

>  <minimizedRMSD>  (1) 
2.61412501

$$$$
