
     RDKit          3D

 23 25  0  0  0  0  0  0  0  0999 V2000
   36.9660   31.4880   40.4640 C   0  0  0  0  0  0  0  0  0  0  0  0
   36.9110   31.5400   39.1130 N   0  0  0  0  0  0  0  0  0  0  0  0
   37.7000   32.4970   38.6770 O   0  0  0  0  0  0  0  0  0  0  0  0
   38.2470   33.0440   39.7400 C   0  0  0  0  0  0  0  0  0  0  0  0
   37.8180   32.4490   40.8640 N   0  0  0  0  0  0  0  0  0  0  0  0
   39.2100   34.1650   39.7880 C   0  0  0  0  0  0  0  0  0  0  0  0
   39.0290   35.4720   40.1950 C   0  0  0  0  0  0  0  0  0  0  0  0
   40.2470   36.1420   40.0510 C   0  0  0  0  0  0  0  0  0  0  0  0
   41.1140   35.2240   39.5680 N   0  0  0  0  0  0  0  0  0  0  0  0
   40.4950   34.0580   39.4150 N   0  0  0  0  0  0  0  0  0  0  0  0
   36.3200   30.6570   41.3750 O   0  0  0  0  0  0  0  0  0  0  0  0
   38.6560   28.5050   43.1730 C   0  0  0  0  0  0  0  0  0  0  0  0
   38.0750   27.2630   42.8770 C   0  0  0  0  0  0  0  0  0  0  0  0
   36.9050   27.2500   42.0690 C   0  0  0  0  0  0  0  0  0  0  0  0
   36.4130   28.4480   41.6270 N   0  0  0  0  0  0  0  0  0  0  0  0
   37.0150   29.6000   41.9450 C   0  0  0  0  0  0  0  0  0  0  0  0
   38.1290   29.6510   42.7120 N   0  0  0  0  0  0  0  0  0  0  0  0
   38.0907   35.9092   40.5673 H   0  0  0  0  0  0  0  0  0  0  0  0
   40.4566   37.1967   40.2825 H   0  0  0  0  0  0  0  0  0  0  0  0
   42.1051   35.4016   39.3512 H   0  0  0  0  0  0  0  0  0  0  0  0
   39.5621   28.5410   43.7957 H   0  0  0  0  0  0  0  0  0  0  0  0
   38.5111   26.3279   43.2582 H   0  0  0  0  0  0  0  0  0  0  0  0
   36.4094   26.3037   41.8066 H   0  0  0  0  0  0  0  0  0  0  0  0
  1  5  1  0
  1 11  1  0
  2  1  2  0
  3  2  1  0
  3  4  1  0
  4  6  1  0
  4  5  2  0
  6  7  1  0
  8  7  2  0
  9  8  1  0
 10  9  1  0
 10  6  2  0
 11 16  1  0
 13 12  2  0
 14 13  1  0
 15 16  1  0
 15 14  2  0
 16 17  2  0
 17 12  1  0
  7 18  1  0
  8 19  1  0
  9 20  1  0
 12 21  1  0
 13 22  1  0
 14 23  1  0
M  ISO  6  18  14  19  14  20   9  21  14  22  14  23  14
M  END
>  <minimizedAffinity>  (1) 
-4.99118519

>  <minimizedRMSD>  (1) 
1.18593073

$$$$
