
     RDKit          3D

 19 20  0  0  0  0  0  0  0  0999 V2000
   35.8940   30.0360   40.6690 O   0  0  0  0  0  0  0  0  0  0  0  0
   37.6350   28.0750   43.1960 C   0  0  0  0  0  0  0  0  0  0  0  0
   37.6270   26.8340   42.5470 C   0  0  0  0  0  0  0  0  0  0  0  0
   37.0190   26.7390   41.2660 C   0  0  0  0  0  0  0  0  0  0  0  0
   36.4750   27.8950   40.7540 N   0  0  0  0  0  0  0  0  0  0  0  0
   36.5100   29.0480   41.4140 C   0  0  0  0  0  0  0  0  0  0  0  0
   37.0840   29.1520   42.6300 N   0  0  0  0  0  0  0  0  0  0  0  0
   36.6490   31.0740   40.1490 C   0  0  0  0  0  0  0  0  0  0  0  0
   36.8430   31.4510   38.8650 N   0  0  0  0  0  0  0  0  0  0  0  0
   37.6420   32.4990   38.8320 O   0  0  0  0  0  0  0  0  0  0  0  0
   37.9510   32.7840   40.0770 C   0  0  0  0  0  0  0  0  0  0  0  0
   37.3460   31.9130   40.9240 N   0  0  0  0  0  0  0  0  0  0  0  0
   38.8270   33.8960   40.4370 C   0  0  0  0  0  0  0  0  0  0  0  0
   39.7690   34.1750   39.6500 O   0  0  0  0  0  0  0  0  0  0  0  0
   38.6550   34.6350   41.5970 O   0  0  0  0  0  0  0  0  0  0  0  0
   38.1025   28.1642   44.1877 H   0  0  0  0  0  0  0  0  0  0  0  0
   38.0820   25.9508   43.0191 H   0  0  0  0  0  0  0  0  0  0  0  0
   36.9849   25.7895   40.7116 H   0  0  0  0  0  0  0  0  0  0  0  0
   39.2713   35.3815   41.8043 H   0  0  0  0  0  0  0  0  0  0  0  0
  1  6  1  0
  3  2  2  0
  4  3  1  0
  5  4  2  0
  5  6  1  0
  6  7  2  0
  7  2  1  0
  8  1  1  0
  8 12  1  0
  9  8  2  0
 10  9  1  0
 10 11  1  0
 11 13  1  0
 11 12  2  0
 13 15  1  0
 14 13  2  0
  2 16  1  0
  3 17  1  0
  4 18  1  0
 15 19  1  0
M  ISO  4  16  14  17  14  18  14  19   3
M  END
>  <minimizedAffinity>  (1) 
-4.45341825

>  <minimizedRMSD>  (1) 
1.33261681

$$$$
