
     RDKit          3D

 51 56  0  0  0  0  0  0  0  0999 V2000
   37.2940   28.4450   43.8640 C   0  0  0  0  0  0  0  0  0  0  0  0
   37.3620   27.0360   43.8410 C   0  0  0  0  0  0  0  0  0  0  0  0
   37.7780   26.4350   42.6620 C   0  0  0  0  0  0  0  0  0  0  0  0
   38.0940   27.2320   41.6050 N   0  0  0  0  0  0  0  0  0  0  0  0
   38.0190   28.5680   41.6580 C   0  0  0  0  0  0  0  0  0  0  0  0
   37.6230   29.1790   42.7760 N   0  0  0  0  0  0  0  0  0  0  0  0
   38.3760   29.2930   40.4780 N   0  0  0  0  0  0  0  0  0  0  0  0
   38.8020   28.6780   39.3630 C   0  0  0  0  0  0  0  0  0  0  0  0
   39.0980   29.5320   38.3330 C   0  0  0  0  0  0  0  0  0  0  0  0
   38.9920   30.8940   38.3680 C   0  0  0  0  0  0  0  0  0  0  0  0
   39.2720   31.6500   37.4050 O   0  0  0  0  0  0  0  0  0  0  0  0
   38.5590   31.4610   39.5160 N   0  0  0  0  0  0  0  0  0  0  0  0
   38.2500   30.6480   40.5760 C   0  0  0  0  0  0  0  0  0  0  0  0
   37.8480   31.2220   41.6290 O   0  0  0  0  0  0  0  0  0  0  0  0
   38.4060   32.8800   39.6690 C   0  0  0  0  0  0  0  0  0  0  0  0
   37.3710   33.7700   39.5200 C   0  0  0  0  0  0  0  0  0  0  0  0
   37.8310   35.0130   39.8070 N   0  0  0  0  0  0  0  0  0  0  0  0
   39.1370   34.9260   40.1330 C   0  0  0  0  0  0  0  0  0  0  0  0
   40.0240   35.9120   40.4950 C   0  0  0  0  0  0  0  0  0  0  0  0
   41.3600   35.6220   40.8020 C   0  0  0  0  0  0  0  0  0  0  0  0
   41.7400   34.3160   40.7250 C   0  0  0  0  0  0  0  0  0  0  0  0
   40.8430   33.3450   40.3620 C   0  0  0  0  0  0  0  0  0  0  0  0
   39.5200   33.6110   40.0550 C   0  0  0  0  0  0  0  0  0  0  0  0
   39.5600   28.9830   37.0290 C   0  0  0  0  0  0  0  0  0  0  0  0
   38.5870   28.0870   36.4020 C   0  0  0  0  0  0  0  0  0  0  0  0
   38.7480   26.7060   36.2570 C   0  0  0  0  0  0  0  0  0  0  0  0
   37.6800   26.1200   35.6350 N   0  0  0  0  0  0  0  0  0  0  0  0
   36.8230   27.1240   35.3730 C   0  0  0  0  0  0  0  0  0  0  0  0
   35.5950   27.0260   34.7510 C   0  0  0  0  0  0  0  0  0  0  0  0
   34.9010   28.2230   34.6030 C   0  0  0  0  0  0  0  0  0  0  0  0
   35.4030   29.4210   35.0450 C   0  0  0  0  0  0  0  0  0  0  0  0
   36.6490   29.4920   35.6720 C   0  0  0  0  0  0  0  0  0  0  0  0
   37.3550   28.3110   35.8300 C   0  0  0  0  0  0  0  0  0  0  0  0
   36.9679   28.9556   44.7821 H   0  0  0  0  0  0  0  0  0  0  0  0
   37.0953   26.4369   44.7242 H   0  0  0  0  0  0  0  0  0  0  0  0
   37.8507   25.3402   42.5833 H   0  0  0  0  0  0  0  0  0  0  0  0
   38.9043   27.5857   39.2834 H   0  0  0  0  0  0  0  0  0  0  0  0
   36.3435   33.5176   39.2190 H   0  0  0  0  0  0  0  0  0  0  0  0
   37.2753   35.8798   39.7805 H   0  0  0  0  0  0  0  0  0  0  0  0
   39.6763   36.9544   40.5449 H   0  0  0  0  0  0  0  0  0  0  0  0
   42.0688   36.4118   41.0916 H   0  0  0  0  0  0  0  0  0  0  0  0
   42.7786   34.0374   40.9568 H   0  0  0  0  0  0  0  0  0  0  0  0
   41.1920   32.3030   40.3123 H   0  0  0  0  0  0  0  0  0  0  0  0
   39.7531   29.8227   36.3451 H   0  0  0  0  0  0  0  0  0  0  0  0
   40.4672   28.3930   37.2263 H   0  0  0  0  0  0  0  0  0  0  0  0
   39.6334   26.1531   36.6039 H   0  0  0  0  0  0  0  0  0  0  0  0
   37.5576   25.1215   35.4139 H   0  0  0  0  0  0  0  0  0  0  0  0
   35.1918   26.0661   34.3960 H   0  0  0  0  0  0  0  0  0  0  0  0
   33.9155   28.2083   34.1146 H   0  0  0  0  0  0  0  0  0  0  0  0
   34.8150   30.3398   34.9033 H   0  0  0  0  0  0  0  0  0  0  0  0
   37.0547   30.4507   36.0273 H   0  0  0  0  0  0  0  0  0  0  0  0
  2  1  2  0
  3  2  1  0
  4  5  1  0
  4  3  2  0
  5  6  2  0
  6  1  1  0
  7 13  1  0
  7  5  1  0
  8  7  1  0
  9 10  1  0
  9  8  2  0
 10 12  1  0
 11 10  2  0
 12 15  1  0
 12 13  1  0
 13 14  2  0
 15 23  1  0
 16 15  2  0
 16 17  1  0
 17 18  1  0
 18 19  2  0
 19 20  1  0
 21 20  2  0
 22 21  1  0
 23 18  1  0
 23 22  2  0
 24  9  1  0
 25 24  1  0
 26 25  2  0
 27 26  1  0
 28 27  1  0
 28 33  2  0
 29 28  1  0
 30 29  2  0
 30 31  1  0
 31 32  2  0
 32 33  1  0
 33 25  1  0
  1 34  1  0
  2 35  1  0
  3 36  1  0
  8 37  1  0
 16 38  1  0
 17 39  1  0
 19 40  1  0
 20 41  1  0
 21 42  1  0
 22 43  1  0
 24 44  1  0
 24 45  1  0
 26 46  1  0
 27 47  1  0
 29 48  1  0
 30 49  1  0
 31 50  1  0
 32 51  1  0
M  ISO  8  34  14  35  14  36  14  37  14  38  14  39   9  40  14  41  14
M  ISO  8  42  14  43  14  44   8  45   8  46  14  47   9  48  14  49  14
M  ISO  2  50  14  51  14
M  END
>  <minimizedAffinity>  (1) 
-7.18215466

>  <minimizedRMSD>  (1) 
2.5727129

$$$$
