
     RDKit          3D

 22 23  0  0  0  0  0  0  0  0999 V2000
   38.7100   28.7030   43.1540 C   0  0  0  0  0  0  0  0  0  0  0  0
   38.2840   27.4140   43.5040 C   0  0  0  0  0  0  0  0  0  0  0  0
   37.0510   26.9770   42.9470 C   0  0  0  0  0  0  0  0  0  0  0  0
   36.3600   27.8160   42.1190 N   0  0  0  0  0  0  0  0  0  0  0  0
   36.8310   29.0400   41.8290 C   0  0  0  0  0  0  0  0  0  0  0  0
   37.9920   29.4780   42.3400 N   0  0  0  0  0  0  0  0  0  0  0  0
   35.9680   29.6890   40.9850 O   0  0  0  0  0  0  0  0  0  0  0  0
   36.4370   30.6810   40.1290 C   0  0  0  0  0  0  0  0  0  0  0  0
   36.6870   30.6430   38.7980 N   0  0  0  0  0  0  0  0  0  0  0  0
   37.1180   31.8180   38.4140 O   0  0  0  0  0  0  0  0  0  0  0  0
   37.1430   32.5960   39.4820 C   0  0  0  0  0  0  0  0  0  0  0  0
   36.7260   31.9190   40.5670 N   0  0  0  0  0  0  0  0  0  0  0  0
   37.5580   34.0270   39.5760 C   0  0  0  0  0  0  0  0  0  0  0  0
   38.7660   34.1930   40.4730 C   0  0  0  0  0  0  0  0  0  0  0  0
   39.6586   29.0841   43.5602 H   0  0  0  0  0  0  0  0  0  0  0  0
   38.8739   26.7730   44.1757 H   0  0  0  0  0  0  0  0  0  0  0  0
   36.6583   25.9762   43.1797 H   0  0  0  0  0  0  0  0  0  0  0  0
   37.8062   34.3947   38.5694 H   0  0  0  0  0  0  0  0  0  0  0  0
   36.7249   34.6019   40.0066 H   0  0  0  0  0  0  0  0  0  0  0  0
   38.4498   34.1495   41.5257 H   0  0  0  0  0  0  0  0  0  0  0  0
   39.4853   33.3853   40.2726 H   0  0  0  0  0  0  0  0  0  0  0  0
   39.2408   35.1648   40.2726 H   0  0  0  0  0  0  0  0  0  0  0  0
  1  2  2  0
  3  2  1  0
  4  3  2  0
  5  4  1  0
  5  6  2  0
  6  1  1  0
  7  5  1  0
  8 12  1  0
  8  7  1  0
  9  8  2  0
 10  9  1  0
 10 11  1  0
 11 13  1  0
 11 12  2  0
 13 14  1  0
  1 15  1  0
  2 16  1  0
  3 17  1  0
 13 18  1  0
 13 19  1  0
 14 20  1  0
 14 21  1  0
 14 22  1  0
M  ISO  8  15  14  16  14  17  14  18   8  19   8  20   8  21   8  22   8
M  END
>  <minimizedAffinity>  (1) 
-4.13789511

>  <minimizedRMSD>  (1) 
0.682536662

$$$$
