
     RDKit          3D

 30 32  0  0  0  0  0  0  0  0999 V2000
   36.9120   31.6030   40.3390 C   0  0  0  0  0  0  0  0  0  0  0  0
   36.2080   30.9130   41.2760 N   0  0  0  0  0  0  0  0  0  0  0  0
   35.6500   29.8670   40.7010 O   0  0  0  0  0  0  0  0  0  0  0  0
   35.9930   29.8980   39.4420 C   0  0  0  0  0  0  0  0  0  0  0  0
   36.7710   30.9490   39.1590 N   0  0  0  0  0  0  0  0  0  0  0  0
   35.5670   28.9110   38.5100 N   0  0  0  0  0  0  0  0  0  0  0  0
   34.2060   28.8980   38.0060 C   0  0  0  0  0  0  0  0  0  0  0  0
   34.2660   28.6780   36.5020 C   0  0  0  0  0  0  0  0  0  0  0  0
   34.9410   27.4720   36.1390 N   0  0  0  0  0  0  0  0  0  0  0  0
   35.6340   26.8560   37.2520 C   0  0  0  0  0  0  0  0  0  0  0  0
   36.4350   27.8670   38.0020 C   0  0  0  0  0  0  0  0  0  0  0  0
   37.6610   32.7660   40.4710 O   0  0  0  0  0  0  0  0  0  0  0  0
   41.0790   33.1060   39.2770 C   0  0  0  0  0  0  0  0  0  0  0  0
   41.7530   32.4340   40.3230 C   0  0  0  0  0  0  0  0  0  0  0  0
   40.9560   31.9070   41.3760 C   0  0  0  0  0  0  0  0  0  0  0  0
   39.5990   32.0820   41.3150 N   0  0  0  0  0  0  0  0  0  0  0  0
   39.0230   32.7310   40.2910 C   0  0  0  0  0  0  0  0  0  0  0  0
   39.7460   33.2390   39.2830 N   0  0  0  0  0  0  0  0  0  0  0  0
   33.6396   28.0831   38.4805 H   0  0  0  0  0  0  0  0  0  0  0  0
   33.7040   29.8498   38.2341 H   0  0  0  0  0  0  0  0  0  0  0  0
   33.2379   28.6346   36.1131 H   0  0  0  0  0  0  0  0  0  0  0  0
   34.8343   29.5150   36.0702 H   0  0  0  0  0  0  0  0  0  0  0  0
   34.2470   26.8042   35.7740 H   0  0  0  0  0  0  0  0  0  0  0  0
   34.8958   26.4046   37.9312 H   0  0  0  0  0  0  0  0  0  0  0  0
   36.3152   26.0860   36.8608 H   0  0  0  0  0  0  0  0  0  0  0  0
   36.9449   27.3758   38.8438 H   0  0  0  0  0  0  0  0  0  0  0  0
   37.1777   28.3134   37.3244 H   0  0  0  0  0  0  0  0  0  0  0  0
   41.6599   33.5272   38.4432 H   0  0  0  0  0  0  0  0  0  0  0  0
   42.8475   32.3237   40.3220 H   0  0  0  0  0  0  0  0  0  0  0  0
   41.4179   31.3719   42.2188 H   0  0  0  0  0  0  0  0  0  0  0  0
  1 12  1  0
  1  2  2  0
  3  2  1  0
  4  3  1  0
  5  4  2  0
  5  1  1  0
  6  4  1  0
  7  6  1  0
  8  7  1  0
  9  8  1  0
  9 10  1  0
 10 11  1  0
 11  6  1  0
 13 18  2  0
 13 14  1  0
 14 15  2  0
 16 15  1  0
 17 12  1  0
 17 16  2  0
 18 17  1  0
  7 19  1  0
  7 20  1  0
  8 21  1  0
  8 22  1  0
  9 23  1  0
 10 24  1  0
 10 25  1  0
 11 26  1  0
 11 27  1  0
 13 28  1  0
 14 29  1  0
 15 30  1  0
M  ISO  8  19  13  20  13  21  13  22  13  23   5  24  13  25  13  26  13
M  ISO  4  27  13  28  14  29  14  30  14
M  END
>  <minimizedAffinity>  (1) 
-3.90713358

>  <minimizedRMSD>  (1) 
5.94013119

$$$$
