
     RDKit          3D

 37 41  0  0  0  0  0  0  0  0999 V2000
   38.2280   28.4630   43.5340 C   0  0  0  0  0  0  0  0  0  0  0  0
   38.1790   27.1240   43.0570 C   0  0  0  0  0  0  0  0  0  0  0  0
   37.4040   26.8840   41.9050 C   0  0  0  0  0  0  0  0  0  0  0  0
   36.7640   27.9380   41.3330 N   0  0  0  0  0  0  0  0  0  0  0  0
   36.8410   29.1710   41.8160 C   0  0  0  0  0  0  0  0  0  0  0  0
   37.5600   29.4440   42.9010 N   0  0  0  0  0  0  0  0  0  0  0  0
   37.3210   25.5470   41.3810 N   0  0  0  0  0  0  0  0  0  0  0  0
   37.7620   24.4600   42.0330 C   0  0  0  0  0  0  0  0  0  0  0  0
   37.5140   23.3940   41.2290 N   0  0  0  0  0  0  0  0  0  0  0  0
   36.9250   23.8660   40.1030 C   0  0  0  0  0  0  0  0  0  0  0  0
   36.4850   23.1740   38.9900 C   0  0  0  0  0  0  0  0  0  0  0  0
   36.6180   21.9340   38.9500 O   0  0  0  0  0  0  0  0  0  0  0  0
   35.9210   23.8720   37.9760 N   0  0  0  0  0  0  0  0  0  0  0  0
   35.8020   25.2290   38.0750 C   0  0  0  0  0  0  0  0  0  0  0  0
   35.1930   25.8400   36.9440 N   0  0  0  0  0  0  0  0  0  0  0  0
   36.2290   25.9060   39.1600 N   0  0  0  0  0  0  0  0  0  0  0  0
   36.7940   25.2380   40.1830 C   0  0  0  0  0  0  0  0  0  0  0  0
   36.1050   30.0590   41.0590 O   0  0  0  0  0  0  0  0  0  0  0  0
   36.7500   30.9830   40.2370 C   0  0  0  0  0  0  0  0  0  0  0  0
   36.7440   31.1730   38.8920 N   0  0  0  0  0  0  0  0  0  0  0  0
   37.5230   32.1870   38.6060 O   0  0  0  0  0  0  0  0  0  0  0  0
   38.0150   32.6350   39.7300 C   0  0  0  0  0  0  0  0  0  0  0  0
   37.5630   31.9190   40.7750 N   0  0  0  0  0  0  0  0  0  0  0  0
   38.9320   33.7650   39.8200 C   0  0  0  0  0  0  0  0  0  0  0  0
   38.6340   35.0340   40.2980 C   0  0  0  0  0  0  0  0  0  0  0  0
   39.7550   35.8300   40.2270 C   0  0  0  0  0  0  0  0  0  0  0  0
   40.7230   34.9920   39.6910 C   0  0  0  0  0  0  0  0  0  0  0  0
   40.1930   33.8380   39.4840 O   0  0  0  0  0  0  0  0  0  0  0  0
   38.8191   28.6991   44.4311 H   0  0  0  0  0  0  0  0  0  0  0  0
   38.7215   26.3126   43.5644 H   0  0  0  0  0  0  0  0  0  0  0  0
   38.2333   24.4370   43.0267 H   0  0  0  0  0  0  0  0  0  0  0  0
   35.5837   23.3824   37.1349 H   0  0  0  0  0  0  0  0  0  0  0  0
   35.0573   26.8608   36.9208 H   0  0  0  0  0  0  0  0  0  0  0  0
   34.8877   25.2617   36.1483 H   0  0  0  0  0  0  0  0  0  0  0  0
   37.6519   35.3545   40.6758 H   0  0  0  0  0  0  0  0  0  0  0  0
   39.8592   36.8836   40.5253 H   0  0  0  0  0  0  0  0  0  0  0  0
   41.7666   35.2678   39.4791 H   0  0  0  0  0  0  0  0  0  0  0  0
  2  1  2  0
  3  2  1  0
  4  5  1  0
  4  3  2  0
  5  6  2  0
  6  1  1  0
  7  3  1  0
  7  8  1  0
  9  8  2  0
 10 17  2  0
 10  9  1  0
 11 10  1  0
 12 11  2  0
 13 14  1  0
 13 11  1  0
 14 16  2  0
 15 14  1  0
 16 17  1  0
 17  7  1  0
 18  5  1  0
 19 23  1  0
 19 18  1  0
 20 19  2  0
 21 20  1  0
 21 22  1  0
 22 24  1  0
 22 23  2  0
 24 25  2  0
 26 25  1  0
 27 26  2  0
 28 27  1  0
 28 24  1  0
  1 29  1  0
  2 30  1  0
  8 31  1  0
 13 32  1  0
 15 33  1  0
 15 34  1  0
 25 35  1  0
 26 36  1  0
 27 37  1  0
M  ISO  7  29  14  30  14  31  14  32   9  35  14  36  14  37  14
M  END
>  <minimizedAffinity>  (1) 
-6.67374659

>  <minimizedRMSD>  (1) 
1.50810409

$$$$
