
     RDKit          3D

 37 41  0  0  0  0  0  0  0  0999 V2000
   39.2390   28.5820   43.1080 C   0  0  0  0  0  0  0  0  0  0  0  0
   38.8160   27.3050   42.6640 C   0  0  0  0  0  0  0  0  0  0  0  0
   37.6620   27.2370   41.8550 C   0  0  0  0  0  0  0  0  0  0  0  0
   37.0450   28.4080   41.5660 N   0  0  0  0  0  0  0  0  0  0  0  0
   37.4650   29.5870   41.9950 C   0  0  0  0  0  0  0  0  0  0  0  0
   38.5500   29.6750   42.7590 N   0  0  0  0  0  0  0  0  0  0  0  0
   37.1860   25.9240   41.3700 C   0  0  0  0  0  0  0  0  0  0  0  0
   37.2200   24.7760   42.0770 C   0  0  0  0  0  0  0  0  0  0  0  0
   36.6940   23.8510   41.2540 N   0  0  0  0  0  0  0  0  0  0  0  0
   36.3460   24.4190   40.0710 C   0  0  0  0  0  0  0  0  0  0  0  0
   35.7770   23.8900   38.9260 C   0  0  0  0  0  0  0  0  0  0  0  0
   35.5110   24.7020   37.8190 C   0  0  0  0  0  0  0  0  0  0  0  0
   35.8240   26.0660   37.8660 C   0  0  0  0  0  0  0  0  0  0  0  0
   36.3910   26.5690   39.0190 C   0  0  0  0  0  0  0  0  0  0  0  0
   36.6540   25.7790   40.1090 C   0  0  0  0  0  0  0  0  0  0  0  0
   36.6530   30.5930   41.5520 O   0  0  0  0  0  0  0  0  0  0  0  0
   37.1440   31.5470   40.6580 C   0  0  0  0  0  0  0  0  0  0  0  0
   36.8240   31.8020   39.3620 N   0  0  0  0  0  0  0  0  0  0  0  0
   37.5590   32.8020   38.9410 O   0  0  0  0  0  0  0  0  0  0  0  0
   38.3250   33.1770   39.9320 C   0  0  0  0  0  0  0  0  0  0  0  0
   38.1040   32.4280   41.0210 N   0  0  0  0  0  0  0  0  0  0  0  0
   39.2890   34.2720   39.8450 C   0  0  0  0  0  0  0  0  0  0  0  0
   39.0580   35.6020   40.1920 C   0  0  0  0  0  0  0  0  0  0  0  0
   40.2030   36.3330   39.9710 C   0  0  0  0  0  0  0  0  0  0  0  0
   41.1160   35.3970   39.4850 C   0  0  0  0  0  0  0  0  0  0  0  0
   40.5240   34.2380   39.4400 O   0  0  0  0  0  0  0  0  0  0  0  0
   40.1344   28.6753   43.7401 H   0  0  0  0  0  0  0  0  0  0  0  0
   39.3694   26.3956   42.9410 H   0  0  0  0  0  0  0  0  0  0  0  0
   37.5950   24.6286   43.1005 H   0  0  0  0  0  0  0  0  0  0  0  0
   36.5727   22.8552   41.4877 H   0  0  0  0  0  0  0  0  0  0  0  0
   35.5311   22.8186   38.8861 H   0  0  0  0  0  0  0  0  0  0  0  0
   35.0574   24.2707   36.9144 H   0  0  0  0  0  0  0  0  0  0  0  0
   35.6228   26.7204   37.0050 H   0  0  0  0  0  0  0  0  0  0  0  0
   36.6404   27.6393   39.0656 H   0  0  0  0  0  0  0  0  0  0  0  0
   38.1107   36.0037   40.5809 H   0  0  0  0  0  0  0  0  0  0  0  0
   40.3617   37.4084   40.1390 H   0  0  0  0  0  0  0  0  0  0  0  0
   42.1558   35.6023   39.1908 H   0  0  0  0  0  0  0  0  0  0  0  0
  2  1  2  0
  3  2  1  0
  4  3  2  0
  4  5  1  0
  5  6  2  0
  6  1  1  0
  7  3  1  0
  7  8  2  0
  9  8  1  0
 10 15  2  0
 10  9  1  0
 11 10  1  0
 12 13  1  0
 12 11  2  0
 13 14  2  0
 14 15  1  0
 15  7  1  0
 16  5  1  0
 17 21  1  0
 17 16  1  0
 18 17  2  0
 19 18  1  0
 19 20  1  0
 20 21  2  0
 22 20  1  0
 22 23  2  0
 24 23  1  0
 25 24  2  0
 26 25  1  0
 26 22  1  0
  1 27  1  0
  2 28  1  0
  8 29  1  0
  9 30  1  0
 11 31  1  0
 12 32  1  0
 13 33  1  0
 14 34  1  0
 23 35  1  0
 24 36  1  0
 25 37  1  0
M  ISO  8  27  14  28  14  29  14  30   9  31  14  32  14  33  14  34  14
M  ISO  3  35  14  36  14  37  14
M  END
>  <minimizedAffinity>  (1) 
-6.58684683

>  <minimizedRMSD>  (1) 
0.705485582

$$$$
