
     RDKit          3D

 36 40  0  0  0  0  0  0  0  0999 V2000
   38.6040   28.4740   43.3440 C   0  0  0  0  0  0  0  0  0  0  0  0
   38.3420   27.2150   42.7720 C   0  0  0  0  0  0  0  0  0  0  0  0
   37.4040   27.1740   41.7240 C   0  0  0  0  0  0  0  0  0  0  0  0
   36.8150   28.3350   41.3330 N   0  0  0  0  0  0  0  0  0  0  0  0
   37.1010   29.5070   41.9120 C   0  0  0  0  0  0  0  0  0  0  0  0
   37.9960   29.5780   42.9180 N   0  0  0  0  0  0  0  0  0  0  0  0
   37.1470   25.9030   41.1540 N   0  0  0  0  0  0  0  0  0  0  0  0
   37.4750   24.7430   41.7950 C   0  0  0  0  0  0  0  0  0  0  0  0
   37.0930   23.7190   40.9750 N   0  0  0  0  0  0  0  0  0  0  0  0
   36.5490   24.2560   39.8730 C   0  0  0  0  0  0  0  0  0  0  0  0
   35.9850   23.8050   38.6990 C   0  0  0  0  0  0  0  0  0  0  0  0
   35.5000   24.5910   37.7270 N   0  0  0  0  0  0  0  0  0  0  0  0
   35.5480   25.9340   37.8670 C   0  0  0  0  0  0  0  0  0  0  0  0
   36.0890   26.4020   38.9960 N   0  0  0  0  0  0  0  0  0  0  0  0
   36.5660   25.6300   39.9520 C   0  0  0  0  0  0  0  0  0  0  0  0
   35.8900   22.4140   38.4610 N   0  0  0  0  0  0  0  0  0  0  0  0
   36.3720   30.5190   41.3330 O   0  0  0  0  0  0  0  0  0  0  0  0
   37.0080   31.4190   40.4770 C   0  0  0  0  0  0  0  0  0  0  0  0
   36.8910   31.5860   39.1330 N   0  0  0  0  0  0  0  0  0  0  0  0
   37.6850   32.5600   38.7560 O   0  0  0  0  0  0  0  0  0  0  0  0
   38.2960   33.0050   39.8360 C   0  0  0  0  0  0  0  0  0  0  0  0
   37.8980   32.3230   40.9030 N   0  0  0  0  0  0  0  0  0  0  0  0
   39.2610   34.0910   39.8140 C   0  0  0  0  0  0  0  0  0  0  0  0
   39.0110   35.4120   40.2140 C   0  0  0  0  0  0  0  0  0  0  0  0
   40.1680   36.1430   40.0460 C   0  0  0  0  0  0  0  0  0  0  0  0
   41.0820   35.2350   39.5480 C   0  0  0  0  0  0  0  0  0  0  0  0
   40.5010   34.0810   39.4390 O   0  0  0  0  0  0  0  0  0  0  0  0
   39.3315   28.5472   44.1659 H   0  0  0  0  0  0  0  0  0  0  0  0
   38.8473   26.3050   43.1278 H   0  0  0  0  0  0  0  0  0  0  0  0
   37.9541   24.6507   42.7809 H   0  0  0  0  0  0  0  0  0  0  0  0
   35.1607   26.6092   37.0898 H   0  0  0  0  0  0  0  0  0  0  0  0
   35.4699   22.0687   37.5863 H   0  0  0  0  0  0  0  0  0  0  0  0
   36.2409   21.7464   39.1624 H   0  0  0  0  0  0  0  0  0  0  0  0
   38.0549   35.7988   40.5965 H   0  0  0  0  0  0  0  0  0  0  0  0
   40.3274   37.2100   40.2605 H   0  0  0  0  0  0  0  0  0  0  0  0
   42.1280   35.4543   39.2874 H   0  0  0  0  0  0  0  0  0  0  0  0
  2  1  2  0
  3  2  1  0
  4  3  2  0
  4  5  1  0
  5  6  2  0
  6  1  1  0
  7  3  1  0
  7  8  1  0
  9  8  2  0
 10 15  2  0
 10  9  1  0
 11 10  1  0
 12 13  1  0
 12 11  2  0
 13 14  2  0
 14 15  1  0
 15  7  1  0
 16 11  1  0
 17  5  1  0
 18 22  1  0
 18 17  1  0
 19 18  2  0
 20 19  1  0
 20 21  1  0
 21 22  2  0
 23 21  1  0
 23 24  2  0
 25 24  1  0
 26 25  2  0
 27 26  1  0
 27 23  1  0
  1 28  1  0
  2 29  1  0
  8 30  1  0
 13 31  1  0
 16 32  1  0
 16 33  1  0
 24 34  1  0
 25 35  1  0
 26 36  1  0
M  ISO  7  28  14  29  14  30  14  31  14  34  14  35  14  36  14
M  END
>  <minimizedAffinity>  (1) 
-6.55479908

>  <minimizedRMSD>  (1) 
1.09633923

$$$$
