
     RDKit          3D

 29 32  0  0  0  0  0  0  0  0999 V2000
   36.4300   30.5710   41.3990 O   0  0  0  0  0  0  0  0  0  0  0  0
   38.7830   28.4990   43.2220 C   0  0  0  0  0  0  0  0  0  0  0  0
   38.4260   27.2380   42.7130 C   0  0  0  0  0  0  0  0  0  0  0  0
   37.3720   27.1850   41.7530 C   0  0  0  0  0  0  0  0  0  0  0  0
   36.7960   28.3700   41.4070 N   0  0  0  0  0  0  0  0  0  0  0  0
   37.1720   29.5400   41.9190 C   0  0  0  0  0  0  0  0  0  0  0  0
   38.1590   29.6090   42.8210 N   0  0  0  0  0  0  0  0  0  0  0  0
   36.9820   25.9240   41.2170 N   0  0  0  0  0  0  0  0  0  0  0  0
   36.7880   25.8790   39.8940 C   0  0  0  0  0  0  0  0  0  0  0  0
   36.4240   24.6020   39.5700 N   0  0  0  0  0  0  0  0  0  0  0  0
   36.4010   23.8830   40.6980 C   0  0  0  0  0  0  0  0  0  0  0  0
   36.7450   24.7000   41.7100 N   0  0  0  0  0  0  0  0  0  0  0  0
   37.0140   31.4760   40.5220 C   0  0  0  0  0  0  0  0  0  0  0  0
   36.8230   31.6820   39.1820 N   0  0  0  0  0  0  0  0  0  0  0  0
   37.6080   32.6530   38.8010 O   0  0  0  0  0  0  0  0  0  0  0  0
   38.2840   33.0660   39.8430 C   0  0  0  0  0  0  0  0  0  0  0  0
   37.9380   32.3540   40.9300 N   0  0  0  0  0  0  0  0  0  0  0  0
   39.2690   34.1470   39.8050 C   0  0  0  0  0  0  0  0  0  0  0  0
   39.0240   35.4700   40.1990 C   0  0  0  0  0  0  0  0  0  0  0  0
   40.1990   36.1880   40.0150 C   0  0  0  0  0  0  0  0  0  0  0  0
   41.1080   35.2560   39.5150 C   0  0  0  0  0  0  0  0  0  0  0  0
   40.5010   34.1220   39.4250 O   0  0  0  0  0  0  0  0  0  0  0  0
   39.5914   28.5724   43.9644 H   0  0  0  0  0  0  0  0  0  0  0  0
   38.9414   26.3241   43.0434 H   0  0  0  0  0  0  0  0  0  0  0  0
   36.9011   26.7190   39.1928 H   0  0  0  0  0  0  0  0  0  0  0  0
   36.1467   22.8162   40.7827 H   0  0  0  0  0  0  0  0  0  0  0  0
   38.0734   35.8676   40.5841 H   0  0  0  0  0  0  0  0  0  0  0  0
   40.3736   37.2548   40.2185 H   0  0  0  0  0  0  0  0  0  0  0  0
   42.1561   35.4532   39.2454 H   0  0  0  0  0  0  0  0  0  0  0  0
  1  6  1  0
  3  2  2  0
  4  3  1  0
  5  4  2  0
  5  6  1  0
  6  7  2  0
  7  2  1  0
  8 12  1  0
  8  4  1  0
  9  8  1  0
 10  9  2  0
 10 11  1  0
 11 12  2  0
 13 17  1  0
 13  1  1  0
 14 13  2  0
 15 14  1  0
 15 16  1  0
 16 17  2  0
 18 16  1  0
 18 19  2  0
 20 19  1  0
 21 20  2  0
 22 21  1  0
 22 18  1  0
  2 23  1  0
  3 24  1  0
  9 25  1  0
 11 26  1  0
 19 27  1  0
 20 28  1  0
 21 29  1  0
M  ISO  7  23  14  24  14  25  14  26  14  27  14  28  14  29  14
M  END
>  <minimizedAffinity>  (1) 
-6.02275419

>  <minimizedRMSD>  (1) 
0.578284979

$$$$
