
     RDKit          3D

 30 33  0  0  0  0  0  0  0  0999 V2000
   36.3970   30.6030   41.3820 O   0  0  0  0  0  0  0  0  0  0  0  0
   38.6620   28.4700   43.2390 C   0  0  0  0  0  0  0  0  0  0  0  0
   38.3250   27.2090   42.6670 C   0  0  0  0  0  0  0  0  0  0  0  0
   37.3290   27.2130   41.6770 C   0  0  0  0  0  0  0  0  0  0  0  0
   36.7540   28.3870   41.3240 N   0  0  0  0  0  0  0  0  0  0  0  0
   37.1070   29.5480   41.8930 C   0  0  0  0  0  0  0  0  0  0  0  0
   38.0500   29.5950   42.8400 N   0  0  0  0  0  0  0  0  0  0  0  0
   36.9570   25.9430   41.0670 C   0  0  0  0  0  0  0  0  0  0  0  0
   36.9420   24.7260   41.7190 C   0  0  0  0  0  0  0  0  0  0  0  0
   36.5220   23.8570   40.7060 C   0  0  0  0  0  0  0  0  0  0  0  0
   36.3130   24.5770   39.5340 C   0  0  0  0  0  0  0  0  0  0  0  0
   36.5980   25.8360   39.8330 O   0  0  0  0  0  0  0  0  0  0  0  0
   36.9940   31.4910   40.4950 C   0  0  0  0  0  0  0  0  0  0  0  0
   36.8360   31.6800   39.1630 N   0  0  0  0  0  0  0  0  0  0  0  0
   37.6310   32.6460   38.7740 O   0  0  0  0  0  0  0  0  0  0  0  0
   38.2880   33.0680   39.8420 C   0  0  0  0  0  0  0  0  0  0  0  0
   37.9180   32.3770   40.9130 N   0  0  0  0  0  0  0  0  0  0  0  0
   39.2750   34.1450   39.8070 C   0  0  0  0  0  0  0  0  0  0  0  0
   39.0490   35.4680   40.2020 C   0  0  0  0  0  0  0  0  0  0  0  0
   40.2110   36.1880   40.0260 C   0  0  0  0  0  0  0  0  0  0  0  0
   41.1140   35.2640   39.5230 C   0  0  0  0  0  0  0  0  0  0  0  0
   40.5080   34.1190   39.4240 O   0  0  0  0  0  0  0  0  0  0  0  0
   39.4355   28.5216   44.0194 H   0  0  0  0  0  0  0  0  0  0  0  0
   38.8200   26.2795   42.9849 H   0  0  0  0  0  0  0  0  0  0  0  0
   37.1950   24.4983   42.7650 H   0  0  0  0  0  0  0  0  0  0  0  0
   36.3791   22.7722   40.8188 H   0  0  0  0  0  0  0  0  0  0  0  0
   35.9806   24.1833   38.5621 H   0  0  0  0  0  0  0  0  0  0  0  0
   38.1002   35.8677   40.5893 H   0  0  0  0  0  0  0  0  0  0  0  0
   40.3829   37.2538   40.2368 H   0  0  0  0  0  0  0  0  0  0  0  0
   42.1615   35.4653   39.2544 H   0  0  0  0  0  0  0  0  0  0  0  0
  1  6  1  0
  3  2  2  0
  4  3  1  0
  5  4  2  0
  5  6  1  0
  6  7  2  0
  7  2  1  0
  8  4  1  0
  8  9  2  0
 10  9  1  0
 11 12  1  0
 11 10  2  0
 12  8  1  0
 13 17  1  0
 13  1  1  0
 14 13  2  0
 15 14  1  0
 15 16  1  0
 16 17  2  0
 18 16  1  0
 18 19  2  0
 20 19  1  0
 21 20  2  0
 22 21  1  0
 22 18  1  0
  2 23  1  0
  3 24  1  0
  9 25  1  0
 10 26  1  0
 11 27  1  0
 19 28  1  0
 20 29  1  0
 21 30  1  0
M  ISO  8  23  14  24  14  25  14  26  14  27  14  28  14  29  14  30  14
M  END
>  <minimizedAffinity>  (1) 
-5.98589325

>  <minimizedRMSD>  (1) 
0.630399048

$$$$
