
     RDKit          3D

 31 34  0  0  0  0  0  0  0  0999 V2000
   38.4850   28.3500   43.2450 C   0  0  0  0  0  0  0  0  0  0  0  0
   38.1630   27.1470   42.5660 C   0  0  0  0  0  0  0  0  0  0  0  0
   37.2330   27.2180   41.5140 C   0  0  0  0  0  0  0  0  0  0  0  0
   36.7030   28.4280   41.2140 N   0  0  0  0  0  0  0  0  0  0  0  0
   37.0380   29.5400   41.8850 C   0  0  0  0  0  0  0  0  0  0  0  0
   37.9190   29.5140   42.8910 N   0  0  0  0  0  0  0  0  0  0  0  0
   36.8900   25.9880   40.8030 C   0  0  0  0  0  0  0  0  0  0  0  0
   37.0150   24.7880   41.4730 C   0  0  0  0  0  0  0  0  0  0  0  0
   36.6590   23.6860   40.6930 C   0  0  0  0  0  0  0  0  0  0  0  0
   36.2350   23.8140   39.4040 N   0  0  0  0  0  0  0  0  0  0  0  0
   36.1440   25.0110   38.8370 C   0  0  0  0  0  0  0  0  0  0  0  0
   36.4760   26.1170   39.5440 N   0  0  0  0  0  0  0  0  0  0  0  0
   36.3670   30.6330   41.3930 O   0  0  0  0  0  0  0  0  0  0  0  0
   36.9900   31.4960   40.5040 C   0  0  0  0  0  0  0  0  0  0  0  0
   36.8730   31.6520   39.1510 N   0  0  0  0  0  0  0  0  0  0  0  0
   37.6800   32.6100   38.7700 O   0  0  0  0  0  0  0  0  0  0  0  0
   38.2990   33.0580   39.8340 C   0  0  0  0  0  0  0  0  0  0  0  0
   37.8980   32.3950   40.9270 N   0  0  0  0  0  0  0  0  0  0  0  0
   39.2810   34.1320   39.8030 C   0  0  0  0  0  0  0  0  0  0  0  0
   39.0680   35.4560   40.2080 C   0  0  0  0  0  0  0  0  0  0  0  0
   40.2310   36.1740   40.0300 C   0  0  0  0  0  0  0  0  0  0  0  0
   41.1290   35.2510   39.5150 C   0  0  0  0  0  0  0  0  0  0  0  0
   40.5200   34.1060   39.4110 O   0  0  0  0  0  0  0  0  0  0  0  0
   39.2087   28.3284   44.0732 H   0  0  0  0  0  0  0  0  0  0  0  0
   38.6252   26.1909   42.8528 H   0  0  0  0  0  0  0  0  0  0  0  0
   37.3597   24.7079   42.5145 H   0  0  0  0  0  0  0  0  0  0  0  0
   36.7229   22.6802   41.1338 H   0  0  0  0  0  0  0  0  0  0  0  0
   35.8000   25.1039   37.7963 H   0  0  0  0  0  0  0  0  0  0  0  0
   38.1240   35.8581   40.6045 H   0  0  0  0  0  0  0  0  0  0  0  0
   40.4070   37.2379   40.2472 H   0  0  0  0  0  0  0  0  0  0  0  0
   42.1753   35.4522   39.2417 H   0  0  0  0  0  0  0  0  0  0  0  0
  2  1  2  0
  3  2  1  0
  4  3  2  0
  4  5  1  0
  5  6  2  0
  6  1  1  0
  7  8  2  0
  7  3  1  0
  9  8  1  0
 10  9  2  0
 11 10  1  0
 11 12  2  0
 12  7  1  0
 13  5  1  0
 14 18  1  0
 14 13  1  0
 15 14  2  0
 16 15  1  0
 16 17  1  0
 17 18  2  0
 19 17  1  0
 19 20  2  0
 21 20  1  0
 22 21  2  0
 23 22  1  0
 23 19  1  0
  1 24  1  0
  2 25  1  0
  8 26  1  0
  9 27  1  0
 11 28  1  0
 20 29  1  0
 21 30  1  0
 22 31  1  0
M  ISO  8  24  14  25  14  26  14  27  14  28  14  29  14  30  14  31  14
M  END
>  <minimizedAffinity>  (1) 
-5.92576647

>  <minimizedRMSD>  (1) 
0.841408849

$$$$
