
     RDKit          3D

 30 33  0  0  0  0  0  0  0  0999 V2000
   36.4080   30.5700   41.3680 O   0  0  0  0  0  0  0  0  0  0  0  0
   38.6600   28.4550   43.2580 C   0  0  0  0  0  0  0  0  0  0  0  0
   38.3370   27.2120   42.6860 C   0  0  0  0  0  0  0  0  0  0  0  0
   37.3470   27.1850   41.6700 C   0  0  0  0  0  0  0  0  0  0  0  0
   36.7870   28.3690   41.3280 N   0  0  0  0  0  0  0  0  0  0  0  0
   37.1190   29.5280   41.8920 C   0  0  0  0  0  0  0  0  0  0  0  0
   38.0460   29.5690   42.8460 N   0  0  0  0  0  0  0  0  0  0  0  0
   36.9620   25.9090   41.0290 C   0  0  0  0  0  0  0  0  0  0  0  0
   36.9710   24.7170   41.6570 C   0  0  0  0  0  0  0  0  0  0  0  0
   36.5480   23.8650   40.6790 N   0  0  0  0  0  0  0  0  0  0  0  0
   36.3120   24.5610   39.5460 C   0  0  0  0  0  0  0  0  0  0  0  0
   36.5750   25.8730   39.7640 N   0  0  0  0  0  0  0  0  0  0  0  0
   36.9950   31.4630   40.4950 C   0  0  0  0  0  0  0  0  0  0  0  0
   36.8310   31.6620   39.1690 N   0  0  0  0  0  0  0  0  0  0  0  0
   37.6200   32.6360   38.7840 O   0  0  0  0  0  0  0  0  0  0  0  0
   38.2800   33.0560   39.8460 C   0  0  0  0  0  0  0  0  0  0  0  0
   37.9140   32.3510   40.9120 N   0  0  0  0  0  0  0  0  0  0  0  0
   39.2580   34.1360   39.8150 C   0  0  0  0  0  0  0  0  0  0  0  0
   39.0340   35.4540   40.2070 C   0  0  0  0  0  0  0  0  0  0  0  0
   40.1960   36.1790   40.0340 C   0  0  0  0  0  0  0  0  0  0  0  0
   41.1050   35.2530   39.5310 C   0  0  0  0  0  0  0  0  0  0  0  0
   40.5000   34.1060   39.4320 O   0  0  0  0  0  0  0  0  0  0  0  0
   39.4223   28.5114   44.0491 H   0  0  0  0  0  0  0  0  0  0  0  0
   38.8363   26.2890   43.0159 H   0  0  0  0  0  0  0  0  0  0  0  0
   37.2493   24.4884   42.6964 H   0  0  0  0  0  0  0  0  0  0  0  0
   35.9616   24.1312   38.5960 H   0  0  0  0  0  0  0  0  0  0  0  0
   36.4929   26.6571   39.1012 H   0  0  0  0  0  0  0  0  0  0  0  0
   38.0840   35.8528   40.5924 H   0  0  0  0  0  0  0  0  0  0  0  0
   40.3649   37.2452   40.2455 H   0  0  0  0  0  0  0  0  0  0  0  0
   42.1526   35.4558   39.2637 H   0  0  0  0  0  0  0  0  0  0  0  0
  1  6  1  0
  3  2  2  0
  4  3  1  0
  5  4  2  0
  5  6  1  0
  6  7  2  0
  7  2  1  0
  8  9  2  0
  8  4  1  0
 10  9  1  0
 11 12  1  0
 11 10  2  0
 12  8  1  0
 13 17  1  0
 13  1  1  0
 14 13  2  0
 15 14  1  0
 15 16  1  0
 16 17  2  0
 18 16  1  0
 18 19  2  0
 20 19  1  0
 21 20  2  0
 22 21  1  0
 22 18  1  0
  2 23  1  0
  3 24  1  0
  9 25  1  0
 11 26  1  0
 12 27  1  0
 19 28  1  0
 20 29  1  0
 21 30  1  0
M  ISO  8  23  14  24  14  25  14  26  14  27   9  28  14  29  14  30  14
M  END
>  <minimizedAffinity>  (1) 
-5.74706173

>  <minimizedRMSD>  (1) 
0.74761641

$$$$
