
     RDKit          3D

 29 32  0  0  0  0  0  0  0  0999 V2000
   36.3460   30.5970   41.3670 O   0  0  0  0  0  0  0  0  0  0  0  0
   38.5090   28.3680   43.2650 C   0  0  0  0  0  0  0  0  0  0  0  0
   38.2080   27.1650   42.6040 C   0  0  0  0  0  0  0  0  0  0  0  0
   37.2800   27.2070   41.5490 C   0  0  0  0  0  0  0  0  0  0  0  0
   36.7390   28.4140   41.2450 N   0  0  0  0  0  0  0  0  0  0  0  0
   37.0410   29.5290   41.8850 C   0  0  0  0  0  0  0  0  0  0  0  0
   37.9230   29.5080   42.8910 N   0  0  0  0  0  0  0  0  0  0  0  0
   36.9080   25.9830   40.8020 C   0  0  0  0  0  0  0  0  0  0  0  0
   37.0150   24.7300   41.3950 C   0  0  0  0  0  0  0  0  0  0  0  0
   36.4740   23.5970   40.0710 S   0  0  0  0  0  0  0  0  0  0  0  0
   36.1830   25.0840   38.8940 C   0  0  0  0  0  0  0  0  0  0  0  0
   36.4760   25.9880   39.5450 N   0  0  0  0  0  0  0  0  0  0  0  0
   36.9870   31.4780   40.4930 C   0  0  0  0  0  0  0  0  0  0  0  0
   36.8640   31.6300   39.1330 N   0  0  0  0  0  0  0  0  0  0  0  0
   37.6840   32.5970   38.7680 O   0  0  0  0  0  0  0  0  0  0  0  0
   38.2970   33.0410   39.8270 C   0  0  0  0  0  0  0  0  0  0  0  0
   37.8980   32.3760   40.9280 N   0  0  0  0  0  0  0  0  0  0  0  0
   39.2760   34.1080   39.8040 C   0  0  0  0  0  0  0  0  0  0  0  0
   39.0500   35.4310   40.2140 C   0  0  0  0  0  0  0  0  0  0  0  0
   40.2180   36.1560   40.0430 C   0  0  0  0  0  0  0  0  0  0  0  0
   41.1270   35.2180   39.5240 C   0  0  0  0  0  0  0  0  0  0  0  0
   40.5040   34.0850   39.4240 O   0  0  0  0  0  0  0  0  0  0  0  0
   39.2311   28.3705   44.0948 H   0  0  0  0  0  0  0  0  0  0  0  0
   38.6840   26.2195   42.9030 H   0  0  0  0  0  0  0  0  0  0  0  0
   37.3455   24.4820   42.4145 H   0  0  0  0  0  0  0  0  0  0  0  0
   35.8247   25.0754   37.8540 H   0  0  0  0  0  0  0  0  0  0  0  0
   38.1018   35.8270   40.6064 H   0  0  0  0  0  0  0  0  0  0  0  0
   40.3934   37.2195   40.2626 H   0  0  0  0  0  0  0  0  0  0  0  0
   42.1755   35.4099   39.2522 H   0  0  0  0  0  0  0  0  0  0  0  0
  1  6  1  0
  3  2  2  0
  4  3  1  0
  5  4  2  0
  5  6  1  0
  6  7  2  0
  7  2  1  0
  8  9  2  0
  8  4  1  0
 10  9  1  0
 11 12  2  0
 11 10  1  0
 12  8  1  0
 13 17  1  0
 13  1  1  0
 14 13  2  0
 15 14  1  0
 15 16  1  0
 16 17  2  0
 18 16  1  0
 18 19  2  0
 20 19  1  0
 21 20  2  0
 22 21  1  0
 22 18  1  0
  2 23  1  0
  3 24  1  0
  9 25  1  0
 11 26  1  0
 19 27  1  0
 20 28  1  0
 21 29  1  0
M  ISO  7  23  14  24  14  25  14  26  14  27  14  28  14  29  14
M  END
>  <minimizedAffinity>  (1) 
-5.65009117

>  <minimizedRMSD>  (1) 
0.894255638

$$$$
