
     RDKit          3D

 26 28  0  0  0  0  0  0  0  0999 V2000
   36.9240   31.2340   40.5040 C   0  0  0  0  0  0  0  0  0  0  0  0
   36.7880   31.4120   39.1660 N   0  0  0  0  0  0  0  0  0  0  0  0
   37.5630   32.3980   38.7850 O   0  0  0  0  0  0  0  0  0  0  0  0
   38.1810   32.8410   39.8580 C   0  0  0  0  0  0  0  0  0  0  0  0
   37.8170   32.1530   40.9310 N   0  0  0  0  0  0  0  0  0  0  0  0
   39.1370   33.9460   39.8380 C   0  0  0  0  0  0  0  0  0  0  0  0
   38.8750   35.2580   40.2580 C   0  0  0  0  0  0  0  0  0  0  0  0
   40.0230   36.0120   40.0870 C   0  0  0  0  0  0  0  0  0  0  0  0
   40.9510   35.1210   39.5640 C   0  0  0  0  0  0  0  0  0  0  0  0
   40.3820   33.9540   39.4450 O   0  0  0  0  0  0  0  0  0  0  0  0
   36.3340   30.3360   41.3820 O   0  0  0  0  0  0  0  0  0  0  0  0
   38.6570   28.3660   43.3490 C   0  0  0  0  0  0  0  0  0  0  0  0
   38.3330   27.0750   42.8410 C   0  0  0  0  0  0  0  0  0  0  0  0
   37.3330   26.9910   41.8550 C   0  0  0  0  0  0  0  0  0  0  0  0
   36.7440   28.1390   41.4530 N   0  0  0  0  0  0  0  0  0  0  0  0
   37.0750   29.3400   41.9540 C   0  0  0  0  0  0  0  0  0  0  0  0
   38.0190   29.4580   42.8910 N   0  0  0  0  0  0  0  0  0  0  0  0
   37.0020   25.6690   41.3360 C   0  0  0  0  0  0  0  0  0  0  0  0
   36.9800   25.5740   40.0820 O   0  0  0  0  0  0  0  0  0  0  0  0
   36.7400   24.6370   42.2270 O   0  0  0  0  0  0  0  0  0  0  0  0
   37.9180   35.6261   40.6564 H   0  0  0  0  0  0  0  0  0  0  0  0
   40.1679   37.0784   40.3145 H   0  0  0  0  0  0  0  0  0  0  0  0
   41.9907   35.3596   39.2955 H   0  0  0  0  0  0  0  0  0  0  0  0
   39.4339   28.4704   44.1207 H   0  0  0  0  0  0  0  0  0  0  0  0
   38.8474   26.1743   43.2073 H   0  0  0  0  0  0  0  0  0  0  0  0
   36.5141   23.7350   41.8872 H   0  0  0  0  0  0  0  0  0  0  0  0
  1  5  1  0
  1 11  1  0
  2  1  2  0
  3  2  1  0
  3  4  1  0
  4  5  2  0
  6  4  1  0
  6  7  2  0
  8  7  1  0
  9  8  2  0
 10  9  1  0
 10  6  1  0
 11 16  1  0
 13 12  2  0
 14 13  1  0
 15 14  2  0
 15 16  1  0
 16 17  2  0
 17 12  1  0
 18 14  1  0
 18 20  1  0
 19 18  2  0
  7 21  1  0
  8 22  1  0
  9 23  1  0
 12 24  1  0
 13 25  1  0
 20 26  1  0
M  ISO  6  21  14  22  14  23  14  24  14  25  14  26   3
M  END
>  <minimizedAffinity>  (1) 
-5.35972309

>  <minimizedRMSD>  (1) 
0.479704171

$$$$
