
     RDKit          3D

 26 28  0  0  0  0  0  0  0  0999 V2000
   36.9680   31.4660   40.4800 C   0  0  0  0  0  0  0  0  0  0  0  0
   36.8670   31.6200   39.1260 N   0  0  0  0  0  0  0  0  0  0  0  0
   37.6790   32.5770   38.7490 O   0  0  0  0  0  0  0  0  0  0  0  0
   38.2890   33.0280   39.8340 C   0  0  0  0  0  0  0  0  0  0  0  0
   37.8670   32.3600   40.9000 N   0  0  0  0  0  0  0  0  0  0  0  0
   39.2750   34.1030   39.8110 C   0  0  0  0  0  0  0  0  0  0  0  0
   39.0490   35.4220   40.2250 C   0  0  0  0  0  0  0  0  0  0  0  0
   40.2030   36.1410   40.0570 C   0  0  0  0  0  0  0  0  0  0  0  0
   41.1160   35.2180   39.5350 C   0  0  0  0  0  0  0  0  0  0  0  0
   40.5050   34.0850   39.4270 O   0  0  0  0  0  0  0  0  0  0  0  0
   36.3350   30.6030   41.3640 O   0  0  0  0  0  0  0  0  0  0  0  0
   38.3890   28.3000   43.2710 C   0  0  0  0  0  0  0  0  0  0  0  0
   38.1370   27.1080   42.5410 C   0  0  0  0  0  0  0  0  0  0  0  0
   37.2610   27.2040   41.4270 C   0  0  0  0  0  0  0  0  0  0  0  0
   36.7250   28.4110   41.1350 N   0  0  0  0  0  0  0  0  0  0  0  0
   36.9960   29.5060   41.8580 C   0  0  0  0  0  0  0  0  0  0  0  0
   37.8130   29.4510   42.9080 N   0  0  0  0  0  0  0  0  0  0  0  0
   36.9630   25.9650   40.6200 C   0  0  0  0  0  0  0  0  0  0  0  0
   38.1009   35.8157   40.6200 H   0  0  0  0  0  0  0  0  0  0  0  0
   40.3734   37.2042   40.2818 H   0  0  0  0  0  0  0  0  0  0  0  0
   42.1632   35.4203   39.2657 H   0  0  0  0  0  0  0  0  0  0  0  0
   39.0623   28.2763   44.1405 H   0  0  0  0  0  0  0  0  0  0  0  0
   38.6002   26.1518   42.8260 H   0  0  0  0  0  0  0  0  0  0  0  0
   36.7608   25.1243   41.3000 H   0  0  0  0  0  0  0  0  0  0  0  0
   36.0822   26.1436   39.9857 H   0  0  0  0  0  0  0  0  0  0  0  0
   37.8287   25.7235   39.9857 H   0  0  0  0  0  0  0  0  0  0  0  0
  1  5  1  0
  1 11  1  0
  2  1  2  0
  3  2  1  0
  3  4  1  0
  4  5  2  0
  6  4  1  0
  6  7  2  0
  8  7  1  0
  9  8  2  0
 10  9  1  0
 10  6  1  0
 11 16  1  0
 13 12  2  0
 14 13  1  0
 15 14  2  0
 15 16  1  0
 16 17  2  0
 17 12  1  0
 18 14  1  0
  7 19  1  0
  8 20  1  0
  9 21  1  0
 12 22  1  0
 13 23  1  0
 18 24  1  0
 18 25  1  0
 18 26  1  0
M  ISO  8  19  14  20  14  21  14  22  14  23  14  24   8  25   8  26   8
M  END
>  <minimizedAffinity>  (1) 
-5.23810053

>  <minimizedRMSD>  (1) 
0.423834532

$$$$
