
     RDKit          3D

 24 26  0  0  0  0  0  0  0  0999 V2000
   36.9750   31.4830   40.4950 C   0  0  0  0  0  0  0  0  0  0  0  0
   36.8570   31.6480   39.1460 N   0  0  0  0  0  0  0  0  0  0  0  0
   37.6660   32.6040   38.7710 O   0  0  0  0  0  0  0  0  0  0  0  0
   38.2950   33.0480   39.8460 C   0  0  0  0  0  0  0  0  0  0  0  0
   37.8890   32.3770   40.9210 N   0  0  0  0  0  0  0  0  0  0  0  0
   39.2810   34.1190   39.8150 C   0  0  0  0  0  0  0  0  0  0  0  0
   39.0540   35.4300   40.2180 C   0  0  0  0  0  0  0  0  0  0  0  0
   40.2270   36.1550   40.0420 C   0  0  0  0  0  0  0  0  0  0  0  0
   41.1260   35.2240   39.5290 C   0  0  0  0  0  0  0  0  0  0  0  0
   40.5090   34.0780   39.4280 O   0  0  0  0  0  0  0  0  0  0  0  0
   36.3300   30.6000   41.3540 O   0  0  0  0  0  0  0  0  0  0  0  0
   38.4070   28.2920   43.2550 C   0  0  0  0  0  0  0  0  0  0  0  0
   38.1630   27.1250   42.5050 C   0  0  0  0  0  0  0  0  0  0  0  0
   37.3000   27.2180   41.3980 C   0  0  0  0  0  0  0  0  0  0  0  0
   36.7460   28.4380   41.1120 N   0  0  0  0  0  0  0  0  0  0  0  0
   37.0080   29.5070   41.8500 C   0  0  0  0  0  0  0  0  0  0  0  0
   37.8320   29.4490   42.9190 N   0  0  0  0  0  0  0  0  0  0  0  0
   37.0340   25.7230   40.4980 S   0  0  0  0  0  0  0  0  0  0  0  0
   38.1059   35.8268   40.6101 H   0  0  0  0  0  0  0  0  0  0  0  0
   40.4040   37.2189   40.2582 H   0  0  0  0  0  0  0  0  0  0  0  0
   42.1735   35.4199   39.2563 H   0  0  0  0  0  0  0  0  0  0  0  0
   39.0777   28.2496   44.1258 H   0  0  0  0  0  0  0  0  0  0  0  0
   38.6336   26.1687   42.7770 H   0  0  0  0  0  0  0  0  0  0  0  0
   36.8498   24.6878   41.3763 H   0  0  0  0  0  0  0  0  0  0  0  0
  1  5  1  0
  1 11  1  0
  2  1  2  0
  3  2  1  0
  3  4  1  0
  4  5  2  0
  6  4  1  0
  6  7  2  0
  8  7  1  0
  9  8  2  0
 10  9  1  0
 10  6  1  0
 11 16  1  0
 13 12  2  0
 14 13  1  0
 15 14  2  0
 15 16  1  0
 16 17  2  0
 17 12  1  0
 18 14  1  0
  7 19  1  0
  8 20  1  0
  9 21  1  0
 12 22  1  0
 13 23  1  0
 18 24  1  0
M  ISO  6  19  14  20  14  21  14  22  14  23  14  24  11
M  END
>  <minimizedAffinity>  (1) 
-5.15175867

>  <minimizedRMSD>  (1) 
0.45464471

$$$$
