
     RDKit          3D

 29 31  0  0  0  0  0  0  0  0999 V2000
   36.8460   31.2880   40.3560 C   0  0  0  0  0  0  0  0  0  0  0  0
   36.8240   31.4270   38.9970 N   0  0  0  0  0  0  0  0  0  0  0  0
   37.6390   32.4020   38.6620 O   0  0  0  0  0  0  0  0  0  0  0  0
   38.1670   32.8700   39.7830 C   0  0  0  0  0  0  0  0  0  0  0  0
   37.6970   32.2050   40.8330 N   0  0  0  0  0  0  0  0  0  0  0  0
   39.1250   33.9640   39.8100 C   0  0  0  0  0  0  0  0  0  0  0  0
   38.8910   35.2600   40.2520 C   0  0  0  0  0  0  0  0  0  0  0  0
   40.0350   36.0020   40.1220 C   0  0  0  0  0  0  0  0  0  0  0  0
   40.9610   35.1180   39.5920 C   0  0  0  0  0  0  0  0  0  0  0  0
   40.3740   33.9670   39.4380 O   0  0  0  0  0  0  0  0  0  0  0  0
   36.1620   30.4030   41.1760 O   0  0  0  0  0  0  0  0  0  0  0  0
   38.1740   28.2960   43.3280 C   0  0  0  0  0  0  0  0  0  0  0  0
   37.9860   27.0470   42.6810 C   0  0  0  0  0  0  0  0  0  0  0  0
   37.1650   27.0540   41.5410 C   0  0  0  0  0  0  0  0  0  0  0  0
   36.6130   28.2220   41.1340 N   0  0  0  0  0  0  0  0  0  0  0  0
   36.8210   29.3690   41.7750 C   0  0  0  0  0  0  0  0  0  0  0  0
   37.6030   29.4090   42.8760 N   0  0  0  0  0  0  0  0  0  0  0  0
   36.9970   25.7460   40.9050 C   0  0  0  0  0  0  0  0  0  0  0  0
   36.9210   24.6070   41.8850 C   0  0  0  0  0  0  0  0  0  0  0  0
   37.9341   35.6330   40.6459 H   0  0  0  0  0  0  0  0  0  0  0  0
   40.1848   37.0607   40.3801 H   0  0  0  0  0  0  0  0  0  0  0  0
   42.0078   35.3486   39.3450 H   0  0  0  0  0  0  0  0  0  0  0  0
   38.8078   28.3449   44.2257 H   0  0  0  0  0  0  0  0  0  0  0  0
   38.4570   26.1246   43.0515 H   0  0  0  0  0  0  0  0  0  0  0  0
   36.0676   25.7617   40.3168 H   0  0  0  0  0  0  0  0  0  0  0  0
   37.8847   25.5747   40.2784 H   0  0  0  0  0  0  0  0  0  0  0  0
   36.9475   25.0035   42.9107 H   0  0  0  0  0  0  0  0  0  0  0  0
   35.9838   24.0522   41.7304 H   0  0  0  0  0  0  0  0  0  0  0  0
   37.7761   23.9326   41.7304 H   0  0  0  0  0  0  0  0  0  0  0  0
  1  5  1  0
  1 11  1  0
  2  1  2  0
  3  2  1  0
  3  4  1  0
  4  6  1  0
  4  5  2  0
  6  7  2  0
  8  7  1  0
  9  8  2  0
 10  9  1  0
 10  6  1  0
 11 16  1  0
 13 12  2  0
 14 13  1  0
 15 14  2  0
 15 16  1  0
 16 17  2  0
 17 12  1  0
 18 14  1  0
 18 19  1  0
  7 20  1  0
  8 21  1  0
  9 22  1  0
 12 23  1  0
 13 24  1  0
 18 25  1  0
 18 26  1  0
 19 27  1  0
 19 28  1  0
 19 29  1  0
M  ISO  8  20  14  21  14  22  14  23  14  24  14  25   8  26   8  27   8
M  ISO  2  28   8  29   8
M  END
>  <minimizedAffinity>  (1) 
-5.46154594

>  <minimizedRMSD>  (1) 
0.451504707

$$$$
