
     RDKit          3D

 47 51  0  0  0  0  0  0  0  0999 V2000
   37.5620   28.5910   43.8220 C   0  0  0  0  0  0  0  0  0  0  0  0
   37.1530   27.2560   43.7650 C   0  0  0  0  0  0  0  0  0  0  0  0
   36.8290   26.7210   42.5110 C   0  0  0  0  0  0  0  0  0  0  0  0
   36.9340   27.5330   41.4210 N   0  0  0  0  0  0  0  0  0  0  0  0
   37.3310   28.8140   41.5130 C   0  0  0  0  0  0  0  0  0  0  0  0
   37.6470   29.3520   42.7080 N   0  0  0  0  0  0  0  0  0  0  0  0
   37.4030   29.5660   40.3100 N   0  0  0  0  0  0  0  0  0  0  0  0
   37.1060   29.0400   39.1260 C   0  0  0  0  0  0  0  0  0  0  0  0
   37.2220   29.8910   38.0460 C   0  0  0  0  0  0  0  0  0  0  0  0
   37.6160   31.2030   38.1450 C   0  0  0  0  0  0  0  0  0  0  0  0
   37.7210   31.9730   37.1600 O   0  0  0  0  0  0  0  0  0  0  0  0
   37.9060   31.6920   39.3670 N   0  0  0  0  0  0  0  0  0  0  0  0
   37.7990   30.8680   40.4530 C   0  0  0  0  0  0  0  0  0  0  0  0
   38.0840   31.3720   41.5800 O   0  0  0  0  0  0  0  0  0  0  0  0
   38.3280   33.0490   39.5700 C   0  0  0  0  0  0  0  0  0  0  0  0
   37.6710   34.2580   39.7290 C   0  0  0  0  0  0  0  0  0  0  0  0
   38.5990   35.2260   39.8880 N   0  0  0  0  0  0  0  0  0  0  0  0
   39.8280   34.6630   39.8340 C   0  0  0  0  0  0  0  0  0  0  0  0
   41.0780   35.2350   39.9420 C   0  0  0  0  0  0  0  0  0  0  0  0
   42.2430   34.4780   39.8590 C   0  0  0  0  0  0  0  0  0  0  0  0
   42.1040   33.1330   39.6630 C   0  0  0  0  0  0  0  0  0  0  0  0
   40.8550   32.5690   39.5560 C   0  0  0  0  0  0  0  0  0  0  0  0
   39.6840   33.3040   39.6360 C   0  0  0  0  0  0  0  0  0  0  0  0
   36.9100   29.4150   36.6840 C   0  0  0  0  0  0  0  0  0  0  0  0
   35.7220   28.5450   36.6260 C   0  0  0  0  0  0  0  0  0  0  0  0
   34.5050   29.1700   36.8350 C   0  0  0  0  0  0  0  0  0  0  0  0
   33.2800   28.5370   36.8300 C   0  0  0  0  0  0  0  0  0  0  0  0
   33.2170   27.1780   36.6040 C   0  0  0  0  0  0  0  0  0  0  0  0
   34.4170   26.5430   36.3940 C   0  0  0  0  0  0  0  0  0  0  0  0
   35.6330   27.1910   36.4030 C   0  0  0  0  0  0  0  0  0  0  0  0
   37.8207   29.0327   44.7956 H   0  0  0  0  0  0  0  0  0  0  0  0
   37.0874   26.6438   44.6766 H   0  0  0  0  0  0  0  0  0  0  0  0
   36.4996   25.6764   42.4091 H   0  0  0  0  0  0  0  0  0  0  0  0
   36.7880   27.9929   39.0142 H   0  0  0  0  0  0  0  0  0  0  0  0
   36.5808   34.4044   39.7262 H   0  0  0  0  0  0  0  0  0  0  0  0
   38.4034   36.2276   40.0274 H   0  0  0  0  0  0  0  0  0  0  0  0
   41.1567   36.3210   40.0983 H   0  0  0  0  0  0  0  0  0  0  0  0
   43.2356   34.9438   39.9476 H   0  0  0  0  0  0  0  0  0  0  0  0
   42.9983   32.4967   39.5903 H   0  0  0  0  0  0  0  0  0  0  0  0
   40.7822   31.4826   39.3994 H   0  0  0  0  0  0  0  0  0  0  0  0
   36.7334   30.2897   36.0408 H   0  0  0  0  0  0  0  0  0  0  0  0
   37.7680   28.8161   36.3448 H   0  0  0  0  0  0  0  0  0  0  0  0
   34.5158   30.2544   37.0191 H   0  0  0  0  0  0  0  0  0  0  0  0
   32.3589   29.1123   37.0051 H   0  0  0  0  0  0  0  0  0  0  0  0
   32.2611   26.6339   36.5925 H   0  0  0  0  0  0  0  0  0  0  0  0
   34.4065   25.4588   36.2087 H   0  0  0  0  0  0  0  0  0  0  0  0
   36.5523   26.6128   36.2280 H   0  0  0  0  0  0  0  0  0  0  0  0
  2  1  2  0
  3  2  1  0
  4  5  1  0
  4  3  2  0
  5  6  2  0
  6  1  1  0
  7 13  1  0
  7  5  1  0
  8  7  1  0
  9 10  1  0
  9  8  2  0
 10 12  1  0
 11 10  2  0
 12 15  1  0
 12 13  1  0
 13 14  2  0
 15 23  1  0
 15 16  2  0
 16 17  1  0
 18 17  1  0
 18 19  2  0
 20 19  1  0
 21 20  2  0
 22 23  2  0
 22 21  1  0
 23 18  1  0
 24  9  1  0
 25 24  1  0
 25 26  2  0
 27 26  1  0
 28 27  2  0
 29 30  2  0
 29 28  1  0
 30 25  1  0
  1 31  1  0
  2 32  1  0
  3 33  1  0
  8 34  1  0
 16 35  1  0
 17 36  1  0
 19 37  1  0
 20 38  1  0
 21 39  1  0
 22 40  1  0
 24 41  1  0
 24 42  1  0
 26 43  1  0
 27 44  1  0
 28 45  1  0
 29 46  1  0
 30 47  1  0
M  ISO  8  31  14  32  14  33  14  34  14  35  14  36   9  37  14  38  14
M  ISO  8  39  14  40  14  41   8  42   8  43  14  44  14  45  14  46  14
M  ISO  1  47  14
M  END
>  <minimizedAffinity>  (1) 
-6.79296398

>  <minimizedRMSD>  (1) 
1.52881992

$$$$
