
     RDKit          3D

 43 47  0  0  0  0  0  0  0  0999 V2000
   38.0370   28.1170   43.2200 C   0  0  0  0  0  0  0  0  0  0  0  0
   37.9120   26.9610   42.4140 C   0  0  0  0  0  0  0  0  0  0  0  0
   37.1830   27.0800   41.2380 C   0  0  0  0  0  0  0  0  0  0  0  0
   36.6420   28.2820   40.9370 N   0  0  0  0  0  0  0  0  0  0  0  0
   36.7750   29.3500   41.7110 C   0  0  0  0  0  0  0  0  0  0  0  0
   37.4800   29.2700   42.8690 N   0  0  0  0  0  0  0  0  0  0  0  0
   37.0870   25.8520   40.4560 C   0  0  0  0  0  0  0  0  0  0  0  0
   36.7550   24.6360   41.2630 C   0  0  0  0  0  0  0  0  0  0  0  0
   37.0670   23.4430   40.3940 C   0  0  0  0  0  0  0  0  0  0  0  0
   38.3460   23.0500   40.3560 N   0  0  0  0  0  0  0  0  0  0  0  0
   38.7450   21.9810   39.6200 C   0  0  0  0  0  0  0  0  0  0  0  0
   37.8220   21.2810   38.8950 N   0  0  0  0  0  0  0  0  0  0  0  0
   36.5340   21.7000   38.9510 C   0  0  0  0  0  0  0  0  0  0  0  0
   35.5940   20.9920   38.2080 C   0  0  0  0  0  0  0  0  0  0  0  0
   34.2880   21.4160   38.2570 C   0  0  0  0  0  0  0  0  0  0  0  0
   33.8250   22.5110   38.9980 C   0  0  0  0  0  0  0  0  0  0  0  0
   34.7840   23.1880   39.7220 C   0  0  0  0  0  0  0  0  0  0  0  0
   36.0920   22.7780   39.6850 C   0  0  0  0  0  0  0  0  0  0  0  0
   36.1310   30.4360   41.1760 O   0  0  0  0  0  0  0  0  0  0  0  0
   36.8230   31.3180   40.3590 C   0  0  0  0  0  0  0  0  0  0  0  0
   36.7960   31.4580   39.0020 N   0  0  0  0  0  0  0  0  0  0  0  0
   37.6200   32.4260   38.6720 O   0  0  0  0  0  0  0  0  0  0  0  0
   38.1600   32.8940   39.7890 C   0  0  0  0  0  0  0  0  0  0  0  0
   37.6840   32.2280   40.8240 N   0  0  0  0  0  0  0  0  0  0  0  0
   39.1240   33.9760   39.8140 C   0  0  0  0  0  0  0  0  0  0  0  0
   38.9120   35.2700   40.2470 C   0  0  0  0  0  0  0  0  0  0  0  0
   40.0500   36.0040   40.1230 C   0  0  0  0  0  0  0  0  0  0  0  0
   40.9630   35.1150   39.6010 C   0  0  0  0  0  0  0  0  0  0  0  0
   40.3730   33.9600   39.4440 O   0  0  0  0  0  0  0  0  0  0  0  0
   38.6083   28.0593   44.1582 H   0  0  0  0  0  0  0  0  0  0  0  0
   38.3736   26.0065   42.7070 H   0  0  0  0  0  0  0  0  0  0  0  0
   36.3027   25.9869   39.6966 H   0  0  0  0  0  0  0  0  0  0  0  0
   38.0802   25.6784   40.0162 H   0  0  0  0  0  0  0  0  0  0  0  0
   37.3655   24.6093   42.1776 H   0  0  0  0  0  0  0  0  0  0  0  0
   35.6981   24.6389   41.5679 H   0  0  0  0  0  0  0  0  0  0  0  0
   39.8031   21.6807   39.6074 H   0  0  0  0  0  0  0  0  0  0  0  0
   35.8868   20.1221   37.6018 H   0  0  0  0  0  0  0  0  0  0  0  0
   33.5489   20.8521   37.6690 H   0  0  0  0  0  0  0  0  0  0  0  0
   32.7667   22.8110   39.0021 H   0  0  0  0  0  0  0  0  0  0  0  0
   34.4989   24.0589   40.3305 H   0  0  0  0  0  0  0  0  0  0  0  0
   37.9574   35.6529   40.6371 H   0  0  0  0  0  0  0  0  0  0  0  0
   40.2052   37.0622   40.3800 H   0  0  0  0  0  0  0  0  0  0  0  0
   42.0119   35.3395   39.3574 H   0  0  0  0  0  0  0  0  0  0  0  0
  2  1  2  0
  3  2  1  0
  4  3  2  0
  4  5  1  0
  5  6  2  0
  6  1  1  0
  7  3  1  0
  7  8  1  0
  9  8  1  0
 10  9  2  0
 11 10  1  0
 12 13  1  0
 12 11  2  0
 13 18  2  0
 14 15  2  0
 14 13  1  0
 15 16  1  0
 16 17  2  0
 18 17  1  0
 18  9  1  0
 19  5  1  0
 20 24  1  0
 20 19  1  0
 21 20  2  0
 22 21  1  0
 22 23  1  0
 23 25  1  0
 23 24  2  0
 25 26  2  0
 27 26  1  0
 28 27  2  0
 29 28  1  0
 29 25  1  0
  1 30  1  0
  2 31  1  0
  7 32  1  0
  7 33  1  0
  8 34  1  0
  8 35  1  0
 11 36  1  0
 14 37  1  0
 15 38  1  0
 16 39  1  0
 17 40  1  0
 26 41  1  0
 27 42  1  0
 28 43  1  0
M  ISO  8  30  14  31  14  32   8  33   8  34   8  35   8  36  14  37  14
M  ISO  6  38  14  39  14  40  14  41  14  42  14  43  14
M  END
>  <minimizedAffinity>  (1) 
-6.21870136

>  <minimizedRMSD>  (1) 
1.02027309

$$$$
