
     RDKit          3D

 39 42  0  0  0  0  0  0  0  0999 V2000
   38.4330   28.3650   43.2500 C   0  0  0  0  0  0  0  0  0  0  0  0
   38.1560   27.1500   42.5550 C   0  0  0  0  0  0  0  0  0  0  0  0
   37.2610   27.2450   41.4900 C   0  0  0  0  0  0  0  0  0  0  0  0
   36.7250   28.4450   41.1890 N   0  0  0  0  0  0  0  0  0  0  0  0
   37.0050   29.5610   41.8610 C   0  0  0  0  0  0  0  0  0  0  0  0
   37.8610   29.5230   42.8930 N   0  0  0  0  0  0  0  0  0  0  0  0
   37.0020   25.9930   40.8030 C   0  0  0  0  0  0  0  0  0  0  0  0
   37.0440   24.7780   41.7040 C   0  0  0  0  0  0  0  0  0  0  0  0
   36.9650   23.6040   40.7580 C   0  0  0  0  0  0  0  0  0  0  0  0
   37.9260   22.6230   40.6040 C   0  0  0  0  0  0  0  0  0  0  0  0
   37.7130   21.6110   39.6980 C   0  0  0  0  0  0  0  0  0  0  0  0
   36.5810   21.5170   38.9260 C   0  0  0  0  0  0  0  0  0  0  0  0
   35.5980   22.4720   39.0470 C   0  0  0  0  0  0  0  0  0  0  0  0
   35.8210   23.4840   39.9600 C   0  0  0  0  0  0  0  0  0  0  0  0
   36.3530   30.6480   41.3840 O   0  0  0  0  0  0  0  0  0  0  0  0
   36.9970   31.5260   40.5120 C   0  0  0  0  0  0  0  0  0  0  0  0
   36.8760   31.6760   39.1620 N   0  0  0  0  0  0  0  0  0  0  0  0
   37.6870   32.6350   38.7720 O   0  0  0  0  0  0  0  0  0  0  0  0
   38.3130   33.0860   39.8570 C   0  0  0  0  0  0  0  0  0  0  0  0
   37.9070   32.4240   40.9320 N   0  0  0  0  0  0  0  0  0  0  0  0
   39.2930   34.1560   39.8100 C   0  0  0  0  0  0  0  0  0  0  0  0
   39.0760   35.4750   40.2060 C   0  0  0  0  0  0  0  0  0  0  0  0
   40.2410   36.1830   40.0110 C   0  0  0  0  0  0  0  0  0  0  0  0
   41.1420   35.2680   39.4980 C   0  0  0  0  0  0  0  0  0  0  0  0
   40.5260   34.1170   39.4090 O   0  0  0  0  0  0  0  0  0  0  0  0
   39.1325   28.3507   44.0988 H   0  0  0  0  0  0  0  0  0  0  0  0
   38.6208   26.1953   42.8423 H   0  0  0  0  0  0  0  0  0  0  0  0
   36.0036   26.0497   40.3447 H   0  0  0  0  0  0  0  0  0  0  0  0
   37.8022   25.8661   40.0590 H   0  0  0  0  0  0  0  0  0  0  0  0
   37.9816   24.7521   42.2786 H   0  0  0  0  0  0  0  0  0  0  0  0
   36.2288   24.7761   42.4425 H   0  0  0  0  0  0  0  0  0  0  0  0
   38.8506   22.6514   41.1993 H   0  0  0  0  0  0  0  0  0  0  0  0
   38.4877   20.8382   39.5859 H   0  0  0  0  0  0  0  0  0  0  0  0
   36.4612   20.6849   38.2166 H   0  0  0  0  0  0  0  0  0  0  0  0
   34.6781   22.4314   38.4451 H   0  0  0  0  0  0  0  0  0  0  0  0
   35.0418   24.2529   40.0682 H   0  0  0  0  0  0  0  0  0  0  0  0
   38.1350   35.8808   40.6059 H   0  0  0  0  0  0  0  0  0  0  0  0
   40.4172   37.2487   40.2189 H   0  0  0  0  0  0  0  0  0  0  0  0
   42.1858   35.4707   39.2162 H   0  0  0  0  0  0  0  0  0  0  0  0
  2  1  2  0
  3  2  1  0
  4  3  2  0
  4  5  1  0
  5  6  2  0
  6  1  1  0
  7  3  1  0
  7  8  1  0
  9  8  1  0
 10  9  2  0
 11 10  1  0
 12 13  1  0
 12 11  2  0
 13 14  2  0
 14  9  1  0
 15  5  1  0
 16 20  1  0
 16 15  1  0
 17 16  2  0
 18 17  1  0
 18 19  1  0
 19 20  2  0
 21 19  1  0
 21 22  2  0
 23 22  1  0
 24 23  2  0
 25 24  1  0
 25 21  1  0
  1 26  1  0
  2 27  1  0
  7 28  1  0
  7 29  1  0
  8 30  1  0
  8 31  1  0
 10 32  1  0
 11 33  1  0
 12 34  1  0
 13 35  1  0
 14 36  1  0
 22 37  1  0
 23 38  1  0
 24 39  1  0
M  ISO  8  26  14  27  14  28   8  29   8  30   8  31   8  32  14  33  14
M  ISO  6  34  14  35  14  36  14  37  14  38  14  39  14
M  END
>  <minimizedAffinity>  (1) 
-6.15608311

>  <minimizedRMSD>  (1) 
0.337504655

$$$$
