
     RDKit          3D

 39 42  0  0  0  0  0  0  0  0999 V2000
   38.3540   28.2770   43.2250 C   0  0  0  0  0  0  0  0  0  0  0  0
   38.0820   27.1230   42.4500 C   0  0  0  0  0  0  0  0  0  0  0  0
   37.2290   27.2660   41.3600 C   0  0  0  0  0  0  0  0  0  0  0  0
   36.7070   28.4830   41.0970 N   0  0  0  0  0  0  0  0  0  0  0  0
   36.9800   29.5510   41.8450 C   0  0  0  0  0  0  0  0  0  0  0  0
   37.8000   29.4550   42.9060 N   0  0  0  0  0  0  0  0  0  0  0  0
   36.9880   26.0470   40.6100 C   0  0  0  0  0  0  0  0  0  0  0  0
   37.0210   24.7910   41.4260 C   0  0  0  0  0  0  0  0  0  0  0  0
   36.9090   23.5670   40.5920 C   0  0  0  0  0  0  0  0  0  0  0  0
   35.7450   23.4280   39.8490 C   0  0  0  0  0  0  0  0  0  0  0  0
   35.5210   22.3350   39.0350 C   0  0  0  0  0  0  0  0  0  0  0  0
   36.5220   21.3880   39.0010 C   0  0  0  0  0  0  0  0  0  0  0  0
   37.7060   21.4630   39.7130 C   0  0  0  0  0  0  0  0  0  0  0  0
   37.8640   22.5850   40.5100 C   0  0  0  0  0  0  0  0  0  0  0  0
   36.3350   30.6710   41.3830 O   0  0  0  0  0  0  0  0  0  0  0  0
   36.9820   31.5340   40.5070 C   0  0  0  0  0  0  0  0  0  0  0  0
   36.8720   31.6700   39.1520 N   0  0  0  0  0  0  0  0  0  0  0  0
   37.6900   32.6270   38.7610 O   0  0  0  0  0  0  0  0  0  0  0  0
   38.2960   33.0810   39.8420 C   0  0  0  0  0  0  0  0  0  0  0  0
   37.8860   32.4340   40.9280 N   0  0  0  0  0  0  0  0  0  0  0  0
   39.2850   34.1580   39.8060 C   0  0  0  0  0  0  0  0  0  0  0  0
   39.0910   35.4750   40.2050 C   0  0  0  0  0  0  0  0  0  0  0  0
   40.2420   36.1860   40.0230 C   0  0  0  0  0  0  0  0  0  0  0  0
   41.1330   35.2660   39.5050 C   0  0  0  0  0  0  0  0  0  0  0  0
   40.5150   34.1230   39.4080 O   0  0  0  0  0  0  0  0  0  0  0  0
   39.0243   28.2059   44.0943 H   0  0  0  0  0  0  0  0  0  0  0  0
   38.5287   26.1495   42.7006 H   0  0  0  0  0  0  0  0  0  0  0  0
   35.9962   26.1243   40.1407 H   0  0  0  0  0  0  0  0  0  0  0  0
   37.8076   25.9645   39.8810 H   0  0  0  0  0  0  0  0  0  0  0  0
   37.9709   24.7549   41.9795 H   0  0  0  0  0  0  0  0  0  0  0  0
   36.1568   24.8119   42.1062 H   0  0  0  0  0  0  0  0  0  0  0  0
   34.9768   24.2129   39.9104 H   0  0  0  0  0  0  0  0  0  0  0  0
   34.5972   22.2265   38.4478 H   0  0  0  0  0  0  0  0  0  0  0  0
   36.3681   20.5072   38.3602 H   0  0  0  0  0  0  0  0  0  0  0  0
   38.4752   20.6792   39.6500 H   0  0  0  0  0  0  0  0  0  0  0  0
   38.7875   22.6925   41.0978 H   0  0  0  0  0  0  0  0  0  0  0  0
   38.1518   35.8829   40.6068 H   0  0  0  0  0  0  0  0  0  0  0  0
   40.4197   37.2497   40.2396 H   0  0  0  0  0  0  0  0  0  0  0  0
   42.1781   35.4633   39.2244 H   0  0  0  0  0  0  0  0  0  0  0  0
  2  1  2  0
  3  2  1  0
  4  3  2  0
  4  5  1  0
  5  6  2  0
  6  1  1  0
  7  3  1  0
  7  8  1  0
  9  8  1  0
 10  9  2  0
 11 10  1  0
 12 11  2  0
 12 13  1  0
 13 14  2  0
 14  9  1  0
 15  5  1  0
 16 20  1  0
 16 15  1  0
 17 16  2  0
 18 17  1  0
 18 19  1  0
 19 20  2  0
 21 19  1  0
 21 22  2  0
 23 22  1  0
 24 23  2  0
 25 24  1  0
 25 21  1  0
  1 26  1  0
  2 27  1  0
  7 28  1  0
  7 29  1  0
  8 30  1  0
  8 31  1  0
 10 32  1  0
 11 33  1  0
 12 34  1  0
 13 35  1  0
 14 36  1  0
 22 37  1  0
 23 38  1  0
 24 39  1  0
M  ISO  8  26  14  27  14  28   8  29   8  30   8  31   8  32  14  33  14
M  ISO  6  34  14  35  14  36  14  37  14  38  14  39  14
M  END
>  <minimizedAffinity>  (1) 
-6.11044884

>  <minimizedRMSD>  (1) 
0.491511315

$$$$
