
     RDKit          3D

 45 48  0  0  0  0  0  0  0  0999 V2000
   38.4790   28.3590   43.2400 C   0  0  0  0  0  0  0  0  0  0  0  0
   38.1500   27.1460   42.5680 C   0  0  0  0  0  0  0  0  0  0  0  0
   37.2210   27.2270   41.5360 C   0  0  0  0  0  0  0  0  0  0  0  0
   36.6940   28.4430   41.2390 N   0  0  0  0  0  0  0  0  0  0  0  0
   37.0200   29.5530   41.8820 C   0  0  0  0  0  0  0  0  0  0  0  0
   37.9120   29.5220   42.8860 N   0  0  0  0  0  0  0  0  0  0  0  0
   36.9310   25.9520   40.9000 C   0  0  0  0  0  0  0  0  0  0  0  0
   37.0790   24.7680   41.7930 C   0  0  0  0  0  0  0  0  0  0  0  0
   37.3180   23.4800   41.0390 C   0  0  0  0  0  0  0  0  0  0  0  0
   38.7400   23.6150   40.4750 C   0  0  0  0  0  0  0  0  0  0  0  0
   38.9780   22.7440   39.2850 C   0  0  0  0  0  0  0  0  0  0  0  0
   38.1240   21.5160   39.4410 C   0  0  0  0  0  0  0  0  0  0  0  0
   36.6940   21.9440   39.2540 C   0  0  0  0  0  0  0  0  0  0  0  0
   36.3940   23.2770   39.8860 C   0  0  0  0  0  0  0  0  0  0  0  0
   36.3430   30.6350   41.3820 O   0  0  0  0  0  0  0  0  0  0  0  0
   36.9890   31.5120   40.5140 C   0  0  0  0  0  0  0  0  0  0  0  0
   36.8720   31.6540   39.1640 N   0  0  0  0  0  0  0  0  0  0  0  0
   37.6810   32.6160   38.7670 O   0  0  0  0  0  0  0  0  0  0  0  0
   38.2910   33.0660   39.8430 C   0  0  0  0  0  0  0  0  0  0  0  0
   37.8890   32.4120   40.9170 N   0  0  0  0  0  0  0  0  0  0  0  0
   39.2750   34.1450   39.8080 C   0  0  0  0  0  0  0  0  0  0  0  0
   39.0680   35.4660   40.2060 C   0  0  0  0  0  0  0  0  0  0  0  0
   40.2370   36.1760   40.0210 C   0  0  0  0  0  0  0  0  0  0  0  0
   41.1340   35.2520   39.5090 C   0  0  0  0  0  0  0  0  0  0  0  0
   40.5200   34.1080   39.4120 O   0  0  0  0  0  0  0  0  0  0  0  0
   39.2096   28.3412   44.0621 H   0  0  0  0  0  0  0  0  0  0  0  0
   38.6103   26.1884   42.8528 H   0  0  0  0  0  0  0  0  0  0  0  0
   35.8941   25.9787   40.5339 H   0  0  0  0  0  0  0  0  0  0  0  0
   37.6690   25.8297   40.0935 H   0  0  0  0  0  0  0  0  0  0  0  0
   37.9312   24.9423   42.4664 H   0  0  0  0  0  0  0  0  0  0  0  0
   36.1338   24.6538   42.3440 H   0  0  0  0  0  0  0  0  0  0  0  0
   37.1610   22.6290   41.7181 H   0  0  0  0  0  0  0  0  0  0  0  0
   38.9034   24.6625   40.1817 H   0  0  0  0  0  0  0  0  0  0  0  0
   39.4392   23.2968   41.2623 H   0  0  0  0  0  0  0  0  0  0  0  0
   40.0392   22.4588   39.2354 H   0  0  0  0  0  0  0  0  0  0  0  0
   38.7206   23.2779   38.3583 H   0  0  0  0  0  0  0  0  0  0  0  0
   38.3963   20.7683   38.6816 H   0  0  0  0  0  0  0  0  0  0  0  0
   38.2699   21.0614   40.4320 H   0  0  0  0  0  0  0  0  0  0  0  0
   36.4861   22.0119   38.1760 H   0  0  0  0  0  0  0  0  0  0  0  0
   36.0579   21.1942   39.7472 H   0  0  0  0  0  0  0  0  0  0  0  0
   36.5427   24.0784   39.1473 H   0  0  0  0  0  0  0  0  0  0  0  0
   35.3508   23.2998   40.2340 H   0  0  0  0  0  0  0  0  0  0  0  0
   38.1269   35.8749   40.6025 H   0  0  0  0  0  0  0  0  0  0  0  0
   40.4170   37.2402   40.2331 H   0  0  0  0  0  0  0  0  0  0  0  0
   42.1803   35.4502   39.2332 H   0  0  0  0  0  0  0  0  0  0  0  0
  2  1  2  0
  3  2  1  0
  4  3  2  0
  4  5  1  0
  5  6  2  0
  6  1  1  0
  7  3  1  0
  7  8  1  0
  9  8  1  0
 10  9  1  0
 11 12  1  0
 11 10  1  0
 13 12  1  0
 13 14  1  0
 14  9  1  0
 15  5  1  0
 16 20  1  0
 16 15  1  0
 17 16  2  0
 18 17  1  0
 18 19  1  0
 19 20  2  0
 21 19  1  0
 21 22  2  0
 23 22  1  0
 24 23  2  0
 25 24  1  0
 25 21  1  0
  1 26  1  0
  2 27  1  0
  7 28  1  0
  7 29  1  0
  8 30  1  0
  8 31  1  0
  9 32  1  0
 10 33  1  0
 10 34  1  0
 11 35  1  0
 11 36  1  0
 12 37  1  0
 12 38  1  0
 13 39  1  0
 13 40  1  0
 14 41  1  0
 14 42  1  0
 22 43  1  0
 23 44  1  0
 24 45  1  0
M  ISO  8  26  14  27  14  28   8  29   8  30   8  31   8  32  13  33  13
M  ISO  8  34  13  35  13  36  13  37  13  38  13  39  13  40  13  41  13
M  ISO  4  42  13  43  14  44  14  45  14
M  END
>  <minimizedAffinity>  (1) 
-6.04798603

>  <minimizedRMSD>  (1) 
0.612716973

$$$$
