
     RDKit          3D

 42 45  0  0  0  0  0  0  0  0999 V2000
   38.4770   28.5150   43.4120 C   0  0  0  0  0  0  0  0  0  0  0  0
   38.1670   27.1570   43.1700 C   0  0  0  0  0  0  0  0  0  0  0  0
   37.1860   26.8860   42.2220 C   0  0  0  0  0  0  0  0  0  0  0  0
   36.5770   27.9160   41.5800 N   0  0  0  0  0  0  0  0  0  0  0  0
   36.9050   29.1870   41.8450 C   0  0  0  0  0  0  0  0  0  0  0  0
   37.8570   29.4880   42.7620 N   0  0  0  0  0  0  0  0  0  0  0  0
   36.8980   25.4780   42.0080 C   0  0  0  0  0  0  0  0  0  0  0  0
   38.0550   24.5550   42.2280 C   0  0  0  0  0  0  0  0  0  0  0  0
   38.3940   23.8050   41.0250 N   0  0  0  0  0  0  0  0  0  0  0  0
   37.7520   22.6920   40.6080 C   0  0  0  0  0  0  0  0  0  0  0  0
   38.1930   22.0970   39.4490 C   0  0  0  0  0  0  0  0  0  0  0  0
   37.5040   20.8640   38.9600 C   0  0  0  0  0  0  0  0  0  0  0  0
   39.2540   22.5800   38.6940 C   0  0  0  0  0  0  0  0  0  0  0  0
   39.6660   22.0610   37.6480 O   0  0  0  0  0  0  0  0  0  0  0  0
   39.8660   23.6820   39.1350 N   0  0  0  0  0  0  0  0  0  0  0  0
   39.4180   24.2600   40.2840 C   0  0  0  0  0  0  0  0  0  0  0  0
   40.0410   25.3040   40.6500 O   0  0  0  0  0  0  0  0  0  0  0  0
   36.1580   30.0430   41.0740 O   0  0  0  0  0  0  0  0  0  0  0  0
   36.7780   30.9970   40.2870 C   0  0  0  0  0  0  0  0  0  0  0  0
   36.7190   31.1870   38.9330 N   0  0  0  0  0  0  0  0  0  0  0  0
   37.4740   32.2160   38.6310 O   0  0  0  0  0  0  0  0  0  0  0  0
   38.0020   32.6690   39.7680 C   0  0  0  0  0  0  0  0  0  0  0  0
   37.5890   31.9380   40.7900 N   0  0  0  0  0  0  0  0  0  0  0  0
   38.8970   33.8100   39.8220 C   0  0  0  0  0  0  0  0  0  0  0  0
   38.5800   35.0980   40.2440 C   0  0  0  0  0  0  0  0  0  0  0  0
   39.6980   35.8910   40.1470 C   0  0  0  0  0  0  0  0  0  0  0  0
   40.6730   35.0490   39.6630 C   0  0  0  0  0  0  0  0  0  0  0  0
   40.1670   33.8670   39.4930 O   0  0  0  0  0  0  0  0  0  0  0  0
   39.2481   28.7682   44.1545 H   0  0  0  0  0  0  0  0  0  0  0  0
   38.6807   26.3477   43.7095 H   0  0  0  0  0  0  0  0  0  0  0  0
   36.0925   25.1858   42.6978 H   0  0  0  0  0  0  0  0  0  0  0  0
   36.6227   25.3784   40.9477 H   0  0  0  0  0  0  0  0  0  0  0  0
   38.9291   25.1485   42.5342 H   0  0  0  0  0  0  0  0  0  0  0  0
   37.7696   23.8337   43.0079 H   0  0  0  0  0  0  0  0  0  0  0  0
   36.9063   22.2762   41.1754 H   0  0  0  0  0  0  0  0  0  0  0  0
   37.1695   20.2654   39.8201 H   0  0  0  0  0  0  0  0  0  0  0  0
   36.6337   21.1477   38.3500 H   0  0  0  0  0  0  0  0  0  0  0  0
   38.2018   20.2715   38.3500 H   0  0  0  0  0  0  0  0  0  0  0  0
   40.6596   24.0861   38.6174 H   0  0  0  0  0  0  0  0  0  0  0  0
   37.5924   35.4282   40.5985 H   0  0  0  0  0  0  0  0  0  0  0  0
   39.7923   36.9575   40.3992 H   0  0  0  0  0  0  0  0  0  0  0  0
   41.7149   35.3331   39.4538 H   0  0  0  0  0  0  0  0  0  0  0  0
  2  1  2  0
  3  2  1  0
  4  5  1  0
  4  3  2  0
  5  6  2  0
  6  1  1  0
  7  3  1  0
  7  8  1  0
  9  8  1  0
 10  9  1  0
 11 10  2  0
 12 11  1  0
 13 15  1  0
 13 11  1  0
 14 13  2  0
 15 16  1  0
 16 17  2  0
 16  9  1  0
 18  5  1  0
 19 23  1  0
 19 18  1  0
 20 19  2  0
 21 20  1  0
 21 22  1  0
 22 24  1  0
 22 23  2  0
 24 25  2  0
 26 25  1  0
 27 26  2  0
 28 27  1  0
 28 24  1  0
  1 29  1  0
  2 30  1  0
  7 31  1  0
  7 32  1  0
  8 33  1  0
  8 34  1  0
 10 35  1  0
 12 36  1  0
 12 37  1  0
 12 38  1  0
 15 39  1  0
 25 40  1  0
 26 41  1  0
 27 42  1  0
M  ISO  8  29  14  30  14  31   8  32   8  33   8  34   8  35  14  36   8
M  ISO  6  37   8  38   8  39   9  40  14  41  14  42  14
M  END
>  <minimizedAffinity>  (1) 
-6.01000023

>  <minimizedRMSD>  (1) 
1.74795115

$$$$
