
     RDKit          3D

 37 40  0  0  0  0  0  0  0  0999 V2000
   38.4030   28.2980   43.2250 C   0  0  0  0  0  0  0  0  0  0  0  0
   38.1160   27.1240   42.4770 C   0  0  0  0  0  0  0  0  0  0  0  0
   37.2360   27.2420   41.4050 C   0  0  0  0  0  0  0  0  0  0  0  0
   36.7190   28.4630   41.1520 N   0  0  0  0  0  0  0  0  0  0  0  0
   36.9960   29.5450   41.8570 C   0  0  0  0  0  0  0  0  0  0  0  0
   37.8400   29.4700   42.8990 N   0  0  0  0  0  0  0  0  0  0  0  0
   36.9970   25.9960   40.6990 C   0  0  0  0  0  0  0  0  0  0  0  0
   37.0270   24.7750   41.5560 C   0  0  0  0  0  0  0  0  0  0  0  0
   36.9300   23.5640   40.6560 C   0  0  0  0  0  0  0  0  0  0  0  0
   35.8680   23.3740   39.7980 C   0  0  0  0  0  0  0  0  0  0  0  0
   35.8050   22.2530   38.9830 C   0  0  0  0  0  0  0  0  0  0  0  0
   36.8200   21.3650   39.0650 N   0  0  0  0  0  0  0  0  0  0  0  0
   37.8660   21.5580   39.9130 C   0  0  0  0  0  0  0  0  0  0  0  0
   37.9180   22.6410   40.6950 N   0  0  0  0  0  0  0  0  0  0  0  0
   36.3310   30.6400   41.3770 O   0  0  0  0  0  0  0  0  0  0  0  0
   36.9750   31.5160   40.5070 C   0  0  0  0  0  0  0  0  0  0  0  0
   36.8640   31.6630   39.1540 N   0  0  0  0  0  0  0  0  0  0  0  0
   37.6730   32.6240   38.7650 O   0  0  0  0  0  0  0  0  0  0  0  0
   38.2810   33.0760   39.8400 C   0  0  0  0  0  0  0  0  0  0  0  0
   37.8750   32.4200   40.9200 N   0  0  0  0  0  0  0  0  0  0  0  0
   39.2610   34.1550   39.8110 C   0  0  0  0  0  0  0  0  0  0  0  0
   39.0800   35.4710   40.2050 C   0  0  0  0  0  0  0  0  0  0  0  0
   40.2370   36.1660   40.0240 C   0  0  0  0  0  0  0  0  0  0  0  0
   41.1300   35.2520   39.5140 C   0  0  0  0  0  0  0  0  0  0  0  0
   40.5100   34.1070   39.4130 O   0  0  0  0  0  0  0  0  0  0  0  0
   39.0936   28.2443   44.0795 H   0  0  0  0  0  0  0  0  0  0  0  0
   38.5727   26.1573   42.7358 H   0  0  0  0  0  0  0  0  0  0  0  0
   36.0066   26.0564   40.2241 H   0  0  0  0  0  0  0  0  0  0  0  0
   37.8192   25.8871   39.9764 H   0  0  0  0  0  0  0  0  0  0  0  0
   37.9681   24.7421   42.1245 H   0  0  0  0  0  0  0  0  0  0  0  0
   36.1874   24.7887   42.2666 H   0  0  0  0  0  0  0  0  0  0  0  0
   35.0607   24.1202   39.7590 H   0  0  0  0  0  0  0  0  0  0  0  0
   34.9608   22.0932   38.2962 H   0  0  0  0  0  0  0  0  0  0  0  0
   38.6768   20.8158   39.9557 H   0  0  0  0  0  0  0  0  0  0  0  0
   38.1443   35.8904   40.6033 H   0  0  0  0  0  0  0  0  0  0  0  0
   40.4186   37.2293   40.2392 H   0  0  0  0  0  0  0  0  0  0  0  0
   42.1770   35.4499   39.2407 H   0  0  0  0  0  0  0  0  0  0  0  0
  2  1  2  0
  3  2  1  0
  4  3  2  0
  4  5  1  0
  5  6  2  0
  6  1  1  0
  7  3  1  0
  7  8  1  0
  9 14  1  0
  9  8  1  0
 10  9  2  0
 11 12  2  0
 11 10  1  0
 12 13  1  0
 13 14  2  0
 15  5  1  0
 16 20  1  0
 16 15  1  0
 17 16  2  0
 18 17  1  0
 18 19  1  0
 19 20  2  0
 21 19  1  0
 21 22  2  0
 23 22  1  0
 24 23  2  0
 25 24  1  0
 25 21  1  0
  1 26  1  0
  2 27  1  0
  7 28  1  0
  7 29  1  0
  8 30  1  0
  8 31  1  0
 10 32  1  0
 11 33  1  0
 13 34  1  0
 22 35  1  0
 23 36  1  0
 24 37  1  0
M  ISO  8  26  14  27  14  28   8  29   8  30   8  31   8  32  14  33  14
M  ISO  4  34  14  35  14  36  14  37  14
M  END
>  <minimizedAffinity>  (1) 
-5.90720034

>  <minimizedRMSD>  (1) 
0.523562551

$$$$
