
     RDKit          3D

 39 42  0  0  0  0  0  0  0  0999 V2000
   38.7630   28.5140   43.3210 C   0  0  0  0  0  0  0  0  0  0  0  0
   38.3910   27.1800   43.0120 C   0  0  0  0  0  0  0  0  0  0  0  0
   37.3190   27.0170   42.1330 C   0  0  0  0  0  0  0  0  0  0  0  0
   36.7010   28.1140   41.6290 N   0  0  0  0  0  0  0  0  0  0  0  0
   37.0920   29.3520   41.9550 C   0  0  0  0  0  0  0  0  0  0  0  0
   38.1260   29.5540   42.8030 N   0  0  0  0  0  0  0  0  0  0  0  0
   36.9750   25.6340   41.8450 C   0  0  0  0  0  0  0  0  0  0  0  0
   38.0380   24.6370   42.2620 C   0  0  0  0  0  0  0  0  0  0  0  0
   38.4180   23.9350   41.0290 N   0  0  0  0  0  0  0  0  0  0  0  0
   37.6960   22.8720   40.6120 C   0  0  0  0  0  0  0  0  0  0  0  0
   37.9390   22.1250   39.4790 C   0  0  0  0  0  0  0  0  0  0  0  0
   39.0300   22.5210   38.7170 C   0  0  0  0  0  0  0  0  0  0  0  0
   39.3240   21.8860   37.6560 O   0  0  0  0  0  0  0  0  0  0  0  0
   39.7410   23.5780   39.1420 N   0  0  0  0  0  0  0  0  0  0  0  0
   39.4730   24.2820   40.2520 C   0  0  0  0  0  0  0  0  0  0  0  0
   40.1640   25.2640   40.6130 O   0  0  0  0  0  0  0  0  0  0  0  0
   36.3220   30.2910   41.3280 O   0  0  0  0  0  0  0  0  0  0  0  0
   36.9100   31.2210   40.4750 C   0  0  0  0  0  0  0  0  0  0  0  0
   36.7580   31.4130   39.1320 N   0  0  0  0  0  0  0  0  0  0  0  0
   37.5200   32.4170   38.7620 O   0  0  0  0  0  0  0  0  0  0  0  0
   38.1430   32.8500   39.8470 C   0  0  0  0  0  0  0  0  0  0  0  0
   37.7860   32.1370   40.9020 N   0  0  0  0  0  0  0  0  0  0  0  0
   39.0810   33.9600   39.8350 C   0  0  0  0  0  0  0  0  0  0  0  0
   38.8230   35.2720   40.2360 C   0  0  0  0  0  0  0  0  0  0  0  0
   39.9460   36.0280   40.0790 C   0  0  0  0  0  0  0  0  0  0  0  0
   40.8950   35.1470   39.5750 C   0  0  0  0  0  0  0  0  0  0  0  0
   40.3370   33.9760   39.4560 O   0  0  0  0  0  0  0  0  0  0  0  0
   39.6030   28.6895   44.0092 H   0  0  0  0  0  0  0  0  0  0  0  0
   38.9207   26.3178   43.4434 H   0  0  0  0  0  0  0  0  0  0  0  0
   36.0439   25.3906   42.3777 H   0  0  0  0  0  0  0  0  0  0  0  0
   36.8708   25.5516   40.7530 H   0  0  0  0  0  0  0  0  0  0  0  0
   38.9065   25.1574   42.6921 H   0  0  0  0  0  0  0  0  0  0  0  0
   37.6691   23.9428   43.0314 H   0  0  0  0  0  0  0  0  0  0  0  0
   36.8371   22.5759   41.2322 H   0  0  0  0  0  0  0  0  0  0  0  0
   37.3083   21.2692   39.1965 H   0  0  0  0  0  0  0  0  0  0  0  0
   40.5502   23.8690   38.5750 H   0  0  0  0  0  0  0  0  0  0  0  0
   37.8600   35.6396   40.6202 H   0  0  0  0  0  0  0  0  0  0  0  0
   40.0729   37.0977   40.3017 H   0  0  0  0  0  0  0  0  0  0  0  0
   41.9361   35.3952   39.3208 H   0  0  0  0  0  0  0  0  0  0  0  0
  2  1  2  0
  3  2  1  0
  4  5  1  0
  4  3  2  0
  5  6  2  0
  6  1  1  0
  7  3  1  0
  7  8  1  0
  9  8  1  0
 10  9  1  0
 11 10  2  0
 12 14  1  0
 12 11  1  0
 13 12  2  0
 14 15  1  0
 15 16  2  0
 15  9  1  0
 17  5  1  0
 18 22  1  0
 18 17  1  0
 19 18  2  0
 20 19  1  0
 20 21  1  0
 21 22  2  0
 23 21  1  0
 23 24  2  0
 25 24  1  0
 26 25  2  0
 27 26  1  0
 27 23  1  0
  1 28  1  0
  2 29  1  0
  7 30  1  0
  7 31  1  0
  8 32  1  0
  8 33  1  0
 10 34  1  0
 11 35  1  0
 14 36  1  0
 24 37  1  0
 25 38  1  0
 26 39  1  0
M  ISO  8  28  14  29  14  30   8  31   8  32   8  33   8  34  14  35  14
M  ISO  4  36   9  37  14  38  14  39  14
M  END
>  <minimizedAffinity>  (1) 
-5.90693998

>  <minimizedRMSD>  (1) 
1.57395303

$$$$
