
     RDKit          3D

 44 47  0  0  0  0  0  0  0  0999 V2000
   38.4930   28.3950   43.2660 C   0  0  0  0  0  0  0  0  0  0  0  0
   38.2230   27.1830   42.5990 C   0  0  0  0  0  0  0  0  0  0  0  0
   37.3160   27.2430   41.5410 C   0  0  0  0  0  0  0  0  0  0  0  0
   36.7550   28.4390   41.2170 N   0  0  0  0  0  0  0  0  0  0  0  0
   37.0470   29.5550   41.8810 C   0  0  0  0  0  0  0  0  0  0  0  0
   37.9170   29.5380   42.9090 N   0  0  0  0  0  0  0  0  0  0  0  0
   37.0500   25.9730   40.8680 C   0  0  0  0  0  0  0  0  0  0  0  0
   37.0490   24.7940   41.7900 C   0  0  0  0  0  0  0  0  0  0  0  0
   36.8760   23.6050   40.9990 N   0  0  0  0  0  0  0  0  0  0  0  0
   38.0360   22.8800   40.6780 C   0  0  0  0  0  0  0  0  0  0  0  0
   38.4420   22.8360   39.2480 C   0  0  0  0  0  0  0  0  0  0  0  0
   37.2630   22.4670   38.4120 C   0  0  0  0  0  0  0  0  0  0  0  0
   36.1100   23.3890   38.6640 C   0  0  0  0  0  0  0  0  0  0  0  0
   35.7840   23.5800   40.1120 C   0  0  0  0  0  0  0  0  0  0  0  0
   36.3650   30.6270   41.3790 O   0  0  0  0  0  0  0  0  0  0  0  0
   36.9900   31.5110   40.4990 C   0  0  0  0  0  0  0  0  0  0  0  0
   36.8500   31.6810   39.1550 N   0  0  0  0  0  0  0  0  0  0  0  0
   37.6530   32.6400   38.7590 O   0  0  0  0  0  0  0  0  0  0  0  0
   38.2950   33.0740   39.8370 C   0  0  0  0  0  0  0  0  0  0  0  0
   37.9080   32.3980   40.9250 N   0  0  0  0  0  0  0  0  0  0  0  0
   39.2830   34.1460   39.8060 C   0  0  0  0  0  0  0  0  0  0  0  0
   39.0640   35.4690   40.2040 C   0  0  0  0  0  0  0  0  0  0  0  0
   40.2250   36.1790   40.0300 C   0  0  0  0  0  0  0  0  0  0  0  0
   41.1280   35.2460   39.5220 C   0  0  0  0  0  0  0  0  0  0  0  0
   40.5260   34.0970   39.4160 O   0  0  0  0  0  0  0  0  0  0  0  0
   39.2017   28.3946   44.1072 H   0  0  0  0  0  0  0  0  0  0  0  0
   38.7026   26.2390   42.8973 H   0  0  0  0  0  0  0  0  0  0  0  0
   36.0645   26.0361   40.3834 H   0  0  0  0  0  0  0  0  0  0  0  0
   37.8633   25.8154   40.1443 H   0  0  0  0  0  0  0  0  0  0  0  0
   38.0047   24.7446   42.3324 H   0  0  0  0  0  0  0  0  0  0  0  0
   36.2334   24.8851   42.5224 H   0  0  0  0  0  0  0  0  0  0  0  0
   38.8689   23.3227   41.2439 H   0  0  0  0  0  0  0  0  0  0  0  0
   37.7960   21.8376   40.9344 H   0  0  0  0  0  0  0  0  0  0  0  0
   38.8150   23.8243   38.9413 H   0  0  0  0  0  0  0  0  0  0  0  0
   39.2375   22.0883   39.1136 H   0  0  0  0  0  0  0  0  0  0  0  0
   36.9592   21.4380   38.6546 H   0  0  0  0  0  0  0  0  0  0  0  0
   37.5483   22.5478   37.3527 H   0  0  0  0  0  0  0  0  0  0  0  0
   36.3527   24.3712   38.2323 H   0  0  0  0  0  0  0  0  0  0  0  0
   35.2270   22.9262   38.1990 H   0  0  0  0  0  0  0  0  0  0  0  0
   35.2492   24.5361   40.2118 H   0  0  0  0  0  0  0  0  0  0  0  0
   35.1936   22.6972   40.3986 H   0  0  0  0  0  0  0  0  0  0  0  0
   38.1175   35.8732   40.5923 H   0  0  0  0  0  0  0  0  0  0  0  0
   40.4031   37.2434   40.2430 H   0  0  0  0  0  0  0  0  0  0  0  0
   42.1759   35.4477   39.2550 H   0  0  0  0  0  0  0  0  0  0  0  0
  2  1  2  0
  3  2  1  0
  4  3  2  0
  4  5  1  0
  5  6  2  0
  6  1  1  0
  7  3  1  0
  7  8  1  0
  9  8  1  0
 10  9  1  0
 11 10  1  0
 12 13  1  0
 12 11  1  0
 13 14  1  0
 14  9  1  0
 15  5  1  0
 16 20  1  0
 16 15  1  0
 17 16  2  0
 18 17  1  0
 18 19  1  0
 19 20  2  0
 21 19  1  0
 21 22  2  0
 23 22  1  0
 24 23  2  0
 25 24  1  0
 25 21  1  0
  1 26  1  0
  2 27  1  0
  7 28  1  0
  7 29  1  0
  8 30  1  0
  8 31  1  0
 10 32  1  0
 10 33  1  0
 11 34  1  0
 11 35  1  0
 12 36  1  0
 12 37  1  0
 13 38  1  0
 13 39  1  0
 14 40  1  0
 14 41  1  0
 22 42  1  0
 23 43  1  0
 24 44  1  0
M  ISO  8  26  14  27  14  28   8  29   8  30   8  31   8  32  13  33  13
M  ISO  8  34  13  35  13  36  13  37  13  38  13  39  13  40  13  41  13
M  ISO  3  42  14  43  14  44  14
M  END
>  <minimizedAffinity>  (1) 
-5.74374771

>  <minimizedRMSD>  (1) 
0.529465437

$$$$
