
     RDKit          3D

 46 50  0  0  0  0  0  0  0  0999 V2000
   37.5930   28.6070   43.8280 C   0  0  0  0  0  0  0  0  0  0  0  0
   37.1420   27.2710   43.7630 C   0  0  0  0  0  0  0  0  0  0  0  0
   36.7750   26.7610   42.5310 C   0  0  0  0  0  0  0  0  0  0  0  0
   36.8700   27.5770   41.4480 N   0  0  0  0  0  0  0  0  0  0  0  0
   37.3020   28.8540   41.5200 C   0  0  0  0  0  0  0  0  0  0  0  0
   37.6640   29.3680   42.7130 N   0  0  0  0  0  0  0  0  0  0  0  0
   37.3520   29.5970   40.3110 N   0  0  0  0  0  0  0  0  0  0  0  0
   37.0190   29.0780   39.1290 C   0  0  0  0  0  0  0  0  0  0  0  0
   37.1210   29.9220   38.0630 C   0  0  0  0  0  0  0  0  0  0  0  0
   37.5350   31.2420   38.1400 C   0  0  0  0  0  0  0  0  0  0  0  0
   37.6260   32.0150   37.1570 O   0  0  0  0  0  0  0  0  0  0  0  0
   37.8650   31.7300   39.3660 N   0  0  0  0  0  0  0  0  0  0  0  0
   37.7660   30.8870   40.4500 C   0  0  0  0  0  0  0  0  0  0  0  0
   38.0870   31.3910   41.5750 O   0  0  0  0  0  0  0  0  0  0  0  0
   38.3060   33.0730   39.5710 C   0  0  0  0  0  0  0  0  0  0  0  0
   37.6790   34.2850   39.7400 C   0  0  0  0  0  0  0  0  0  0  0  0
   38.6230   35.2410   39.8960 N   0  0  0  0  0  0  0  0  0  0  0  0
   39.8560   34.6560   39.8300 C   0  0  0  0  0  0  0  0  0  0  0  0
   41.1110   35.2110   39.9320 C   0  0  0  0  0  0  0  0  0  0  0  0
   42.2600   34.4310   39.8360 C   0  0  0  0  0  0  0  0  0  0  0  0
   42.0850   33.0950   39.6370 C   0  0  0  0  0  0  0  0  0  0  0  0
   40.8350   32.5530   39.5350 C   0  0  0  0  0  0  0  0  0  0  0  0
   39.6800   33.2990   39.6270 C   0  0  0  0  0  0  0  0  0  0  0  0
   36.7930   29.4810   36.7020 C   0  0  0  0  0  0  0  0  0  0  0  0
   35.6530   28.5420   36.6080 C   0  0  0  0  0  0  0  0  0  0  0  0
   34.3560   29.0270   36.8230 C   0  0  0  0  0  0  0  0  0  0  0  0
   33.2980   28.1790   36.7430 C   0  0  0  0  0  0  0  0  0  0  0  0
   33.4010   26.8300   36.4560 C   0  0  0  0  0  0  0  0  0  0  0  0
   34.7200   26.4260   36.2550 C   0  0  0  0  0  0  0  0  0  0  0  0
   35.8330   27.2160   36.3170 N   0  0  0  0  0  0  0  0  0  0  0  0
   37.8901   29.0339   44.7973 H   0  0  0  0  0  0  0  0  0  0  0  0
   37.0839   26.6509   44.6697 H   0  0  0  0  0  0  0  0  0  0  0  0
   36.4169   25.7258   42.4305 H   0  0  0  0  0  0  0  0  0  0  0  0
   36.6836   28.0360   39.0207 H   0  0  0  0  0  0  0  0  0  0  0  0
   36.5914   34.4496   39.7471 H   0  0  0  0  0  0  0  0  0  0  0  0
   38.4422   36.2446   40.0407 H   0  0  0  0  0  0  0  0  0  0  0  0
   41.2084   36.2948   40.0929 H   0  0  0  0  0  0  0  0  0  0  0  0
   43.2638   34.8736   39.9172 H   0  0  0  0  0  0  0  0  0  0  0  0
   42.9657   32.4408   39.5570 H   0  0  0  0  0  0  0  0  0  0  0  0
   40.7463   31.4688   39.3716 H   0  0  0  0  0  0  0  0  0  0  0  0
   36.5521   30.3717   36.1031 H   0  0  0  0  0  0  0  0  0  0  0  0
   37.6738   28.9339   36.3348 H   0  0  0  0  0  0  0  0  0  0  0  0
   34.1954   30.0901   37.0556 H   0  0  0  0  0  0  0  0  0  0  0  0
   32.2937   28.5922   36.9179 H   0  0  0  0  0  0  0  0  0  0  0  0
   32.5378   26.1511   36.3933 H   0  0  0  0  0  0  0  0  0  0  0  0
   34.8811   25.3629   36.0228 H   0  0  0  0  0  0  0  0  0  0  0  0
  2  1  2  0
  3  2  1  0
  4  5  1  0
  4  3  2  0
  5  6  2  0
  6  1  1  0
  7 13  1  0
  7  5  1  0
  8  7  1  0
  9 10  1  0
  9  8  2  0
 10 12  1  0
 11 10  2  0
 12 15  1  0
 12 13  1  0
 13 14  2  0
 15 23  1  0
 15 16  2  0
 16 17  1  0
 18 17  1  0
 18 19  2  0
 20 19  1  0
 21 20  2  0
 22 23  2  0
 22 21  1  0
 23 18  1  0
 24  9  1  0
 25 24  1  0
 25 26  2  0
 27 26  1  0
 28 27  2  0
 29 30  2  0
 29 28  1  0
 30 25  1  0
  1 31  1  0
  2 32  1  0
  3 33  1  0
  8 34  1  0
 16 35  1  0
 17 36  1  0
 19 37  1  0
 20 38  1  0
 21 39  1  0
 22 40  1  0
 24 41  1  0
 24 42  1  0
 26 43  1  0
 27 44  1  0
 28 45  1  0
 29 46  1  0
M  ISO  8  31  14  32  14  33  14  34  14  35  14  36   9  37  14  38  14
M  ISO  8  39  14  40  14  41   8  42   8  43  14  44  14  45  14  46  14
M  END
>  <minimizedAffinity>  (1) 
-6.73914289

>  <minimizedRMSD>  (1) 
1.5775485

$$$$
