
     RDKit          3D

 36 39  0  0  0  0  0  0  0  0999 V2000
   38.1710   28.2620   43.2710 C   0  0  0  0  0  0  0  0  0  0  0  0
   37.9520   27.0640   42.5410 C   0  0  0  0  0  0  0  0  0  0  0  0
   37.1410   27.1510   41.4080 C   0  0  0  0  0  0  0  0  0  0  0  0
   36.6250   28.3520   41.0840 N   0  0  0  0  0  0  0  0  0  0  0  0
   36.8460   29.4550   41.7840 C   0  0  0  0  0  0  0  0  0  0  0  0
   37.6210   29.4130   42.8810 N   0  0  0  0  0  0  0  0  0  0  0  0
   36.9620   25.8870   40.7090 C   0  0  0  0  0  0  0  0  0  0  0  0
   36.9710   24.6730   41.5870 C   0  0  0  0  0  0  0  0  0  0  0  0
   37.1970   23.5040   40.7220 N   0  0  0  0  0  0  0  0  0  0  0  0
   36.3300   23.0110   39.8300 N   0  0  0  0  0  0  0  0  0  0  0  0
   36.8880   21.9360   39.2280 C   0  0  0  0  0  0  0  0  0  0  0  0
   38.1480   21.7400   39.7550 C   0  0  0  0  0  0  0  0  0  0  0  0
   38.3030   22.7390   40.6830 C   0  0  0  0  0  0  0  0  0  0  0  0
   36.2030   30.5380   41.2380 O   0  0  0  0  0  0  0  0  0  0  0  0
   36.8960   31.4090   40.4110 C   0  0  0  0  0  0  0  0  0  0  0  0
   36.8620   31.5300   39.0510 N   0  0  0  0  0  0  0  0  0  0  0  0
   37.6850   32.4930   38.6940 O   0  0  0  0  0  0  0  0  0  0  0  0
   38.2230   32.9660   39.7990 C   0  0  0  0  0  0  0  0  0  0  0  0
   37.7620   32.3230   40.8700 N   0  0  0  0  0  0  0  0  0  0  0  0
   39.1960   34.0520   39.8060 C   0  0  0  0  0  0  0  0  0  0  0  0
   38.9700   35.3670   40.2160 C   0  0  0  0  0  0  0  0  0  0  0  0
   40.1220   36.0850   40.0750 C   0  0  0  0  0  0  0  0  0  0  0  0
   41.0430   35.1890   39.5760 C   0  0  0  0  0  0  0  0  0  0  0  0
   40.4450   34.0380   39.4450 O   0  0  0  0  0  0  0  0  0  0  0  0
   38.8032   28.2407   44.1709 H   0  0  0  0  0  0  0  0  0  0  0  0
   38.4013   26.1100   42.8542 H   0  0  0  0  0  0  0  0  0  0  0  0
   35.9964   25.9212   40.1833 H   0  0  0  0  0  0  0  0  0  0  0  0
   37.8232   25.7844   40.0324 H   0  0  0  0  0  0  0  0  0  0  0  0
   37.7785   24.7525   42.3297 H   0  0  0  0  0  0  0  0  0  0  0  0
   36.0171   24.5776   42.1264 H   0  0  0  0  0  0  0  0  0  0  0  0
   36.4159   21.3205   38.4481 H   0  0  0  0  0  0  0  0  0  0  0  0
   38.8706   20.9544   39.4893 H   0  0  0  0  0  0  0  0  0  0  0  0
   39.1987   22.8916   41.3030 H   0  0  0  0  0  0  0  0  0  0  0  0
   38.0150   35.7619   40.5929 H   0  0  0  0  0  0  0  0  0  0  0  0
   40.2810   37.1480   40.3088 H   0  0  0  0  0  0  0  0  0  0  0  0
   42.0934   35.4061   39.3322 H   0  0  0  0  0  0  0  0  0  0  0  0
  2  1  2  0
  3  2  1  0
  4  3  2  0
  4  5  1  0
  5  6  2  0
  6  1  1  0
  7  3  1  0
  7  8  1  0
  9  8  1  0
 10  9  1  0
 11 12  1  0
 11 10  2  0
 12 13  2  0
 13  9  1  0
 14  5  1  0
 15 19  1  0
 15 14  1  0
 16 15  2  0
 17 16  1  0
 17 18  1  0
 18 20  1  0
 18 19  2  0
 20 21  2  0
 22 21  1  0
 23 22  2  0
 24 23  1  0
 24 20  1  0
  1 25  1  0
  2 26  1  0
  7 27  1  0
  7 28  1  0
  8 29  1  0
  8 30  1  0
 11 31  1  0
 12 32  1  0
 13 33  1  0
 21 34  1  0
 22 35  1  0
 23 36  1  0
M  ISO  8  25  14  26  14  27   8  28   8  29   8  30   8  31  14  32  14
M  ISO  4  33  14  34  14  35  14  36  14
M  END
>  <minimizedAffinity>  (1) 
-5.62489319

>  <minimizedRMSD>  (1) 
0.48358354

$$$$
