
     RDKit          3D

 30 32  0  0  0  0  0  0  0  0999 V2000
   38.1020   28.2200   43.2710 C   0  0  0  0  0  0  0  0  0  0  0  0
   37.8980   27.0130   42.5470 C   0  0  0  0  0  0  0  0  0  0  0  0
   37.1020   27.0760   41.4070 C   0  0  0  0  0  0  0  0  0  0  0  0
   36.5660   28.2700   41.0460 N   0  0  0  0  0  0  0  0  0  0  0  0
   36.7770   29.3820   41.7460 C   0  0  0  0  0  0  0  0  0  0  0  0
   37.5460   29.3690   42.8640 N   0  0  0  0  0  0  0  0  0  0  0  0
   36.9400   25.8010   40.7270 C   0  0  0  0  0  0  0  0  0  0  0  0
   37.0310   24.6060   41.6150 C   0  0  0  0  0  0  0  0  0  0  0  0
   37.8220   23.1950   40.7950 S   0  0  0  0  0  0  0  0  0  0  0  0
   36.1340   30.4490   41.1860 O   0  0  0  0  0  0  0  0  0  0  0  0
   36.8390   31.3280   40.3600 C   0  0  0  0  0  0  0  0  0  0  0  0
   36.8280   31.4510   38.9920 N   0  0  0  0  0  0  0  0  0  0  0  0
   37.6520   32.4180   38.6580 O   0  0  0  0  0  0  0  0  0  0  0  0
   38.1670   32.8940   39.7690 C   0  0  0  0  0  0  0  0  0  0  0  0
   37.6870   32.2450   40.8310 N   0  0  0  0  0  0  0  0  0  0  0  0
   39.1310   33.9840   39.8030 C   0  0  0  0  0  0  0  0  0  0  0  0
   38.9120   35.2810   40.2310 C   0  0  0  0  0  0  0  0  0  0  0  0
   40.0620   36.0170   40.1120 C   0  0  0  0  0  0  0  0  0  0  0  0
   40.9790   35.1170   39.5980 C   0  0  0  0  0  0  0  0  0  0  0  0
   40.3910   33.9770   39.4430 O   0  0  0  0  0  0  0  0  0  0  0  0
   38.7249   28.2100   44.1776 H   0  0  0  0  0  0  0  0  0  0  0  0
   38.3518   26.0663   42.8753 H   0  0  0  0  0  0  0  0  0  0  0  0
   35.9524   25.7938   40.2427 H   0  0  0  0  0  0  0  0  0  0  0  0
   37.7725   25.7216   40.0124 H   0  0  0  0  0  0  0  0  0  0  0  0
   37.6187   24.8718   42.5061 H   0  0  0  0  0  0  0  0  0  0  0  0
   36.0066   24.3077   41.8825 H   0  0  0  0  0  0  0  0  0  0  0  0
   38.3068   22.3303   41.7406 H   0  0  0  0  0  0  0  0  0  0  0  0
   37.9543   35.6657   40.6115 H   0  0  0  0  0  0  0  0  0  0  0  0
   40.2193   37.0757   40.3658 H   0  0  0  0  0  0  0  0  0  0  0  0
   42.0308   35.3353   39.3614 H   0  0  0  0  0  0  0  0  0  0  0  0
  2  1  2  0
  3  2  1  0
  4  3  2  0
  4  5  1  0
  5  6  2  0
  6  1  1  0
  7  3  1  0
  7  8  1  0
  9  8  1  0
 10  5  1  0
 11 15  1  0
 11 10  1  0
 12 11  2  0
 13 12  1  0
 13 14  1  0
 14 16  1  0
 14 15  2  0
 16 17  2  0
 18 17  1  0
 19 18  2  0
 20 19  1  0
 20 16  1  0
  1 21  1  0
  2 22  1  0
  7 23  1  0
  7 24  1  0
  8 25  1  0
  8 26  1  0
  9 27  1  0
 17 28  1  0
 18 29  1  0
 19 30  1  0
M  ISO  8  21  14  22  14  23   8  24   8  25   8  26   8  27  11  28  14
M  ISO  2  29  14  30  14
M  END
>  <minimizedAffinity>  (1) 
-5.25991917

>  <minimizedRMSD>  (1) 
0.282193691

$$$$
