
     RDKit          3D

 50 54  0  0  0  0  0  0  0  0999 V2000
   37.4590   28.6430   43.8720 C   0  0  0  0  0  0  0  0  0  0  0  0
   37.0400   27.3000   43.8200 C   0  0  0  0  0  0  0  0  0  0  0  0
   36.7450   26.7540   42.5780 C   0  0  0  0  0  0  0  0  0  0  0  0
   36.8790   27.5540   41.4770 N   0  0  0  0  0  0  0  0  0  0  0  0
   37.2810   28.8350   41.5590 C   0  0  0  0  0  0  0  0  0  0  0  0
   37.5730   29.3900   42.7490 N   0  0  0  0  0  0  0  0  0  0  0  0
   37.3830   29.5750   40.3470 N   0  0  0  0  0  0  0  0  0  0  0  0
   37.1000   29.0150   39.1550 C   0  0  0  0  0  0  0  0  0  0  0  0
   37.2440   29.8610   38.0790 C   0  0  0  0  0  0  0  0  0  0  0  0
   37.6390   31.1730   38.1520 C   0  0  0  0  0  0  0  0  0  0  0  0
   37.7630   31.9280   37.1520 O   0  0  0  0  0  0  0  0  0  0  0  0
   37.9080   31.6720   39.3760 N   0  0  0  0  0  0  0  0  0  0  0  0
   37.7760   30.8650   40.4620 C   0  0  0  0  0  0  0  0  0  0  0  0
   38.0400   31.3790   41.5920 O   0  0  0  0  0  0  0  0  0  0  0  0
   38.3280   33.0340   39.5710 C   0  0  0  0  0  0  0  0  0  0  0  0
   37.6820   34.2450   39.7210 C   0  0  0  0  0  0  0  0  0  0  0  0
   38.6120   35.2110   39.8740 N   0  0  0  0  0  0  0  0  0  0  0  0
   39.8400   34.6510   39.8250 C   0  0  0  0  0  0  0  0  0  0  0  0
   41.0970   35.2150   39.9320 C   0  0  0  0  0  0  0  0  0  0  0  0
   42.2500   34.4570   39.8550 C   0  0  0  0  0  0  0  0  0  0  0  0
   42.1000   33.1140   39.6700 C   0  0  0  0  0  0  0  0  0  0  0  0
   40.8520   32.5570   39.5650 C   0  0  0  0  0  0  0  0  0  0  0  0
   39.6940   33.2950   39.6390 C   0  0  0  0  0  0  0  0  0  0  0  0
   36.9530   29.3740   36.7160 C   0  0  0  0  0  0  0  0  0  0  0  0
   37.9110   28.3550   36.1920 C   0  0  0  0  0  0  0  0  0  0  0  0
   37.2100   26.9920   36.2880 C   0  0  0  0  0  0  0  0  0  0  0  0
   38.3360   26.0220   36.1390 C   0  0  0  0  0  0  0  0  0  0  0  0
   39.6220   26.7970   36.4640 C   0  0  0  0  0  0  0  0  0  0  0  0
   39.1090   28.1180   37.0580 C   0  0  0  0  0  0  0  0  0  0  0  0
   37.6988   29.0948   44.8458 H   0  0  0  0  0  0  0  0  0  0  0  0
   36.9489   26.7001   44.7375 H   0  0  0  0  0  0  0  0  0  0  0  0
   36.4135   25.7095   42.4825 H   0  0  0  0  0  0  0  0  0  0  0  0
   36.7801   27.9678   39.0502 H   0  0  0  0  0  0  0  0  0  0  0  0
   36.5925   34.3969   39.7166 H   0  0  0  0  0  0  0  0  0  0  0  0
   38.4167   36.2136   40.0067 H   0  0  0  0  0  0  0  0  0  0  0  0
   41.1825   36.3012   40.0832 H   0  0  0  0  0  0  0  0  0  0  0  0
   43.2457   34.9169   39.9393 H   0  0  0  0  0  0  0  0  0  0  0  0
   42.9901   32.4710   39.6044 H   0  0  0  0  0  0  0  0  0  0  0  0
   40.7732   31.4702   39.4147 H   0  0  0  0  0  0  0  0  0  0  0  0
   35.9480   28.9269   36.7207 H   0  0  0  0  0  0  0  0  0  0  0  0
   37.0394   30.2471   36.0525 H   0  0  0  0  0  0  0  0  0  0  0  0
   38.2094   28.7194   35.1979 H   0  0  0  0  0  0  0  0  0  0  0  0
   36.7112   26.8719   37.2610 H   0  0  0  0  0  0  0  0  0  0  0  0
   36.4202   26.8574   35.5343 H   0  0  0  0  0  0  0  0  0  0  0  0
   38.2104   25.1828   36.8390 H   0  0  0  0  0  0  0  0  0  0  0  0
   38.3692   25.6026   35.1226 H   0  0  0  0  0  0  0  0  0  0  0  0
   40.2358   26.2501   37.1949 H   0  0  0  0  0  0  0  0  0  0  0  0
   40.2647   26.9458   35.5838 H   0  0  0  0  0  0  0  0  0  0  0  0
   39.8501   28.9245   36.9566 H   0  0  0  0  0  0  0  0  0  0  0  0
   38.8973   28.0856   38.1370 H   0  0  0  0  0  0  0  0  0  0  0  0
  2  1  2  0
  3  2  1  0
  4  5  1  0
  4  3  2  0
  5  6  2  0
  6  1  1  0
  7 13  1  0
  7  5  1  0
  8  7  1  0
  9 10  1  0
  9  8  2  0
 10 12  1  0
 11 10  2  0
 12 15  1  0
 12 13  1  0
 13 14  2  0
 15 23  1  0
 15 16  2  0
 16 17  1  0
 18 17  1  0
 18 19  2  0
 20 19  1  0
 21 20  2  0
 22 23  2  0
 22 21  1  0
 23 18  1  0
 24  9  1  0
 25 26  1  0
 25 24  1  0
 25 29  1  0
 27 26  1  0
 27 28  1  0
 28 29  1  0
  1 30  1  0
  2 31  1  0
  3 32  1  0
  8 33  1  0
 16 34  1  0
 17 35  1  0
 19 36  1  0
 20 37  1  0
 21 38  1  0
 22 39  1  0
 24 40  1  0
 24 41  1  0
 25 42  1  0
 26 43  1  0
 26 44  1  0
 27 45  1  0
 27 46  1  0
 28 47  1  0
 28 48  1  0
 29 49  1  0
 29 50  1  0
M  ISO  8  30  14  31  14  32  14  33  14  34  14  35   9  36  14  37  14
M  ISO  8  38  14  39  14  40   8  41   8  42  13  43  13  44  13  45  13
M  ISO  5  46  13  47  13  48  13  49  13  50  13
M  END
>  <minimizedAffinity>  (1) 
-6.62856102

>  <minimizedRMSD>  (1) 
0.807076931

$$$$
