
     RDKit          3D

 43 46  0  0  0  0  0  0  0  0999 V2000
   36.3710   30.7400   40.0880 C   0  0  0  0  0  0  0  0  0  0  0  0
   36.5340   30.9880   38.7420 N   0  0  0  0  0  0  0  0  0  0  0  0
   37.2850   32.0520   38.6060 O   0  0  0  0  0  0  0  0  0  0  0  0
   37.5930   32.4740   39.8000 C   0  0  0  0  0  0  0  0  0  0  0  0
   37.0470   31.6890   40.7370 N   0  0  0  0  0  0  0  0  0  0  0  0
   38.4230   33.6440   40.0610 C   0  0  0  0  0  0  0  0  0  0  0  0
   38.1430   34.9570   39.7270 C   0  0  0  0  0  0  0  0  0  0  0  0
   39.1710   35.7760   40.1420 C   0  0  0  0  0  0  0  0  0  0  0  0
   40.0730   34.9030   40.7330 C   0  0  0  0  0  0  0  0  0  0  0  0
   39.5940   33.7100   40.6570 O   0  0  0  0  0  0  0  0  0  0  0  0
   43.7810   36.0400   42.4670 C   0  0  0  0  0  0  0  0  0  0  0  0
   42.6460   36.8020   42.6130 C   0  0  0  0  0  0  0  0  0  0  0  0
   41.4220   36.4670   42.0660 C   0  0  0  0  0  0  0  0  0  0  0  0
   41.3420   35.3020   41.3320 C   0  0  0  0  0  0  0  0  0  0  0  0
   42.4750   34.5300   41.1790 C   0  0  0  0  0  0  0  0  0  0  0  0
   43.7060   34.8650   41.7290 C   0  0  0  0  0  0  0  0  0  0  0  0
   45.3240   36.4910   43.1740 S   0  0  0  0  0  0  0  0  0  0  0  0
   45.0780   37.5800   44.1990 O   0  0  0  0  0  0  0  0  0  0  0  0
   45.9030   35.3150   43.9200 O   0  0  0  0  0  0  0  0  0  0  0  0
   35.6620   29.7270   40.7530 O   0  0  0  0  0  0  0  0  0  0  0  0
   37.6150   27.6710   43.0360 C   0  0  0  0  0  0  0  0  0  0  0  0
   37.6310   26.4730   42.2550 C   0  0  0  0  0  0  0  0  0  0  0  0
   36.9800   26.4820   41.0380 C   0  0  0  0  0  0  0  0  0  0  0  0
   36.3690   27.6220   40.6610 N   0  0  0  0  0  0  0  0  0  0  0  0
   36.3540   28.7290   41.3830 C   0  0  0  0  0  0  0  0  0  0  0  0
   36.9760   28.7700   42.5780 N   0  0  0  0  0  0  0  0  0  0  0  0
   37.0690   25.2100   40.3550 C   0  0  0  0  0  0  0  0  0  0  0  0
   37.1100   24.0060   41.1990 C   0  0  0  0  0  0  0  0  0  0  0  0
   38.0110   22.6350   40.3850 S   0  0  0  0  0  0  0  0  0  0  0  0
   37.2349   35.2968   39.2075 H   0  0  0  0  0  0  0  0  0  0  0  0
   39.2564   36.8670   40.0306 H   0  0  0  0  0  0  0  0  0  0  0  0
   42.7162   37.7307   43.1983 H   0  0  0  0  0  0  0  0  0  0  0  0
   40.5403   37.1085   42.2112 H   0  0  0  0  0  0  0  0  0  0  0  0
   42.4000   33.6027   40.5921 H   0  0  0  0  0  0  0  0  0  0  0  0
   44.5884   34.2240   41.5856 H   0  0  0  0  0  0  0  0  0  0  0  0
   46.1734   36.9021   42.1808 H   0  0  0  0  0  0  0  0  0  0  0  0
   38.1236   27.6978   44.0110 H   0  0  0  0  0  0  0  0  0  0  0  0
   38.1473   25.5704   42.6139 H   0  0  0  0  0  0  0  0  0  0  0  0
   36.1929   25.1244   39.6953 H   0  0  0  0  0  0  0  0  0  0  0  0
   38.0377   25.2298   39.8342 H   0  0  0  0  0  0  0  0  0  0  0  0
   37.6146   24.2514   42.1451 H   0  0  0  0  0  0  0  0  0  0  0  0
   36.0753   23.6774   41.3763 H   0  0  0  0  0  0  0  0  0  0  0  0
   38.5510   21.8134   41.3391 H   0  0  0  0  0  0  0  0  0  0  0  0
  1  5  1  0
  1 20  1  0
  2  1  2  0
  3  2  1  0
  3  4  1  0
  4  6  1  0
  4  5  2  0
  6 10  1  0
  7  6  2  0
  7  8  1  0
  8  9  2  0
  9 14  1  0
 10  9  1  0
 11 12  2  0
 11 17  1  0
 13 12  1  0
 14 13  2  0
 15 14  1  0
 15 16  2  0
 16 11  1  0
 17 19  2  0
 17 18  2  0
 20 25  1  0
 22 21  2  0
 23 22  1  0
 24 23  2  0
 24 25  1  0
 25 26  2  0
 26 21  1  0
 27 23  1  0
 27 28  1  0
 29 28  1  0
  7 30  1  0
  8 31  1  0
 12 32  1  0
 13 33  1  0
 15 34  1  0
 16 35  1  0
 17 36  1  0
 21 37  1  0
 22 38  1  0
 27 39  1  0
 27 40  1  0
 28 41  1  0
 28 42  1  0
 29 43  1  0
M  ISO  8  30  14  31  14  32  14  33  14  34  14  35  14  36  11  37  14
M  ISO  6  38  14  39   8  40   8  41   8  42   8  43  11
M  END
>  <minimizedAffinity>  (1) 
-6.43893862

>  <minimizedRMSD>  (1) 
2.36455822

$$$$
