
     RDKit          3D

 41 44  0  0  0  0  0  0  0  0999 V2000
   36.8760   31.2750   40.4550 C   0  0  0  0  0  0  0  0  0  0  0  0
   36.7360   31.5630   39.1090 N   0  0  0  0  0  0  0  0  0  0  0  0
   37.6610   32.4400   38.7810 O   0  0  0  0  0  0  0  0  0  0  0  0
   38.3620   32.7000   39.8740 C   0  0  0  0  0  0  0  0  0  0  0  0
   37.9030   31.9990   40.9160 N   0  0  0  0  0  0  0  0  0  0  0  0
   39.4760   33.6290   39.8970 C   0  0  0  0  0  0  0  0  0  0  0  0
   39.4270   34.9990   40.0900 C   0  0  0  0  0  0  0  0  0  0  0  0
   40.6980   35.5130   40.0410 C   0  0  0  0  0  0  0  0  0  0  0  0
   41.5090   34.4310   39.8160 C   0  0  0  0  0  0  0  0  0  0  0  0
   40.7620   33.3770   39.7420 O   0  0  0  0  0  0  0  0  0  0  0  0
   42.9350   34.3570   39.6730 N   0  0  0  0  0  0  0  0  0  0  0  0
   43.6320   34.3710   40.8390 C   0  0  0  0  0  0  0  0  0  0  0  0
   45.0200   34.3030   40.7700 C   0  0  0  0  0  0  0  0  0  0  0  0
   45.5340   34.2260   39.4950 C   0  0  0  0  0  0  0  0  0  0  0  0
   46.9460   34.1510   39.3000 N   0  0  0  0  0  0  0  0  0  0  0  0
   44.8170   34.2140   38.3560 N   0  0  0  0  0  0  0  0  0  0  0  0
   43.4780   34.2800   38.4410 C   0  0  0  0  0  0  0  0  0  0  0  0
   42.6960   34.2780   37.4730 O   0  0  0  0  0  0  0  0  0  0  0  0
   36.1360   30.4080   41.2680 O   0  0  0  0  0  0  0  0  0  0  0  0
   38.0310   28.1190   43.3700 C   0  0  0  0  0  0  0  0  0  0  0  0
   37.8290   26.9340   42.6000 C   0  0  0  0  0  0  0  0  0  0  0  0
   37.0730   27.0210   41.4470 C   0  0  0  0  0  0  0  0  0  0  0  0
   36.5690   28.2310   41.1190 N   0  0  0  0  0  0  0  0  0  0  0  0
   36.7550   29.3290   41.8280 C   0  0  0  0  0  0  0  0  0  0  0  0
   37.4890   29.2890   42.9680 N   0  0  0  0  0  0  0  0  0  0  0  0
   36.9470   25.7530   40.7720 C   0  0  0  0  0  0  0  0  0  0  0  0
   36.9920   24.5470   41.6080 C   0  0  0  0  0  0  0  0  0  0  0  0
   37.8210   23.1600   40.7500 S   0  0  0  0  0  0  0  0  0  0  0  0
   38.5109   35.5847   40.2568 H   0  0  0  0  0  0  0  0  0  0  0  0
   41.0004   36.5642   40.1570 H   0  0  0  0  0  0  0  0  0  0  0  0
   43.1149   34.4342   41.8079 H   0  0  0  0  0  0  0  0  0  0  0  0
   45.6582   34.3102   41.6659 H   0  0  0  0  0  0  0  0  0  0  0  0
   47.3319   34.0934   38.3468 H   0  0  0  0  0  0  0  0  0  0  0  0
   47.5790   34.1545   40.1125 H   0  0  0  0  0  0  0  0  0  0  0  0
   38.6291   28.0792   44.2923 H   0  0  0  0  0  0  0  0  0  0  0  0
   38.2647   25.9750   42.9170 H   0  0  0  0  0  0  0  0  0  0  0  0
   35.9834   25.7535   40.2414 H   0  0  0  0  0  0  0  0  0  0  0  0
   37.8327   25.6848   40.1232 H   0  0  0  0  0  0  0  0  0  0  0  0
   37.5427   24.7745   42.5327 H   0  0  0  0  0  0  0  0  0  0  0  0
   35.9579   24.2444   41.8296 H   0  0  0  0  0  0  0  0  0  0  0  0
   38.3387   22.2938   41.6766 H   0  0  0  0  0  0  0  0  0  0  0  0
  1  5  1  0
  1 19  1  0
  2  1  2  0
  3  2  1  0
  3  4  1  0
  4  6  1  0
  4  5  2  0
  6  7  2  0
  8  7  1  0
  9  8  2  0
 10  9  1  0
 10  6  1  0
 11  9  1  0
 11 12  1  0
 13 12  2  0
 14 13  1  0
 15 14  1  0
 16 17  1  0
 16 14  2  0
 17 11  1  0
 18 17  2  0
 19 24  1  0
 21 20  2  0
 22 21  1  0
 23 22  2  0
 23 24  1  0
 24 25  2  0
 25 20  1  0
 26 22  1  0
 26 27  1  0
 28 27  1  0
  7 29  1  0
  8 30  1  0
 12 31  1  0
 13 32  1  0
 15 33  1  0
 15 34  1  0
 20 35  1  0
 21 36  1  0
 26 37  1  0
 26 38  1  0
 27 39  1  0
 27 40  1  0
 28 41  1  0
M  ISO  8  29  14  30  14  31  14  32  14  35  14  36  14  37   8  38   8
M  ISO  3  39   8  40   8  41  11
M  END
>  <minimizedAffinity>  (1) 
-6.36035252

>  <minimizedRMSD>  (1) 
0.883786261

$$$$
