
     RDKit          3D

 38 41  0  0  0  0  0  0  0  0999 V2000
   36.7750   31.2990   40.2220 C   0  0  0  0  0  0  0  0  0  0  0  0
   36.8720   31.6180   38.8840 N   0  0  0  0  0  0  0  0  0  0  0  0
   37.7490   32.5860   38.7520 O   0  0  0  0  0  0  0  0  0  0  0  0
   38.1930   32.8740   39.9400 C   0  0  0  0  0  0  0  0  0  0  0  0
   37.6160   32.1020   40.8710 N   0  0  0  0  0  0  0  0  0  0  0  0
   39.1910   33.9050   40.2140 C   0  0  0  0  0  0  0  0  0  0  0  0
   39.0560   35.2660   40.1000 C   0  0  0  0  0  0  0  0  0  0  0  0
   40.2050   35.9090   40.4450 C   0  0  0  0  0  0  0  0  0  0  0  0
   41.0600   34.8630   40.7790 C   0  0  0  0  0  0  0  0  0  0  0  0
   40.4310   33.7620   40.6280 O   0  0  0  0  0  0  0  0  0  0  0  0
   42.4510   35.0440   41.2270 C   0  0  0  0  0  0  0  0  0  0  0  0
   42.7530   35.9080   42.2600 C   0  0  0  0  0  0  0  0  0  0  0  0
   44.0910   36.0330   42.6360 C   0  0  0  0  0  0  0  0  0  0  0  0
   45.0620   35.3250   42.0070 N   0  0  0  0  0  0  0  0  0  0  0  0
   44.7210   34.4950   41.0090 C   0  0  0  0  0  0  0  0  0  0  0  0
   43.4280   34.3490   40.6150 N   0  0  0  0  0  0  0  0  0  0  0  0
   35.9810   30.3390   40.8680 O   0  0  0  0  0  0  0  0  0  0  0  0
   37.7830   28.1720   43.1760 C   0  0  0  0  0  0  0  0  0  0  0  0
   37.6630   26.9650   42.4390 C   0  0  0  0  0  0  0  0  0  0  0  0
   36.9860   26.9900   41.2350 C   0  0  0  0  0  0  0  0  0  0  0  0
   36.4770   28.1730   40.8300 N   0  0  0  0  0  0  0  0  0  0  0  0
   36.5860   29.2990   41.5120 C   0  0  0  0  0  0  0  0  0  0  0  0
   37.2430   29.3130   42.7000 N   0  0  0  0  0  0  0  0  0  0  0  0
   36.9300   25.6950   40.6010 C   0  0  0  0  0  0  0  0  0  0  0  0
   36.9490   24.5210   41.4830 C   0  0  0  0  0  0  0  0  0  0  0  0
   37.8380   23.1140   40.7190 S   0  0  0  0  0  0  0  0  0  0  0  0
   38.1365   35.7726   39.7717 H   0  0  0  0  0  0  0  0  0  0  0  0
   40.4079   36.9901   40.4569 H   0  0  0  0  0  0  0  0  0  0  0  0
   41.9642   36.4798   42.7706 H   0  0  0  0  0  0  0  0  0  0  0  0
   44.3623   36.7158   43.4546 H   0  0  0  0  0  0  0  0  0  0  0  0
   45.5064   33.9191   40.4976 H   0  0  0  0  0  0  0  0  0  0  0  0
   38.3175   28.1771   44.1374 H   0  0  0  0  0  0  0  0  0  0  0  0
   38.0998   26.0295   42.8184 H   0  0  0  0  0  0  0  0  0  0  0  0
   36.0016   25.6532   40.0124 H   0  0  0  0  0  0  0  0  0  0  0  0
   37.8557   25.6248   40.0110 H   0  0  0  0  0  0  0  0  0  0  0  0
   37.4502   24.7905   42.4244 H   0  0  0  0  0  0  0  0  0  0  0  0
   35.9091   24.2117   41.6645 H   0  0  0  0  0  0  0  0  0  0  0  0
   38.3475   22.3076   41.7024 H   0  0  0  0  0  0  0  0  0  0  0  0
  1 17  1  0
  1  5  1  0
  2  1  2  0
  3  2  1  0
  3  4  1  0
  4  6  1  0
  4  5  2  0
  6 10  1  0
  7  6  2  0
  7  8  1  0
  8  9  2  0
  9 11  1  0
 10  9  1  0
 11 12  2  0
 12 13  1  0
 14 13  2  0
 15 14  1  0
 16 15  2  0
 16 11  1  0
 17 22  1  0
 19 18  2  0
 20 19  1  0
 21 20  2  0
 21 22  1  0
 22 23  2  0
 23 18  1  0
 24 20  1  0
 24 25  1  0
 26 25  1  0
  7 27  1  0
  8 28  1  0
 12 29  1  0
 13 30  1  0
 15 31  1  0
 18 32  1  0
 19 33  1  0
 24 34  1  0
 24 35  1  0
 25 36  1  0
 25 37  1  0
 26 38  1  0
M  ISO  8  27  14  28  14  29  14  30  14  31  14  32  14  33  14  34   8
M  ISO  4  35   8  36   8  37   8  38  11
M  END
>  <minimizedAffinity>  (1) 
-6.21010685

>  <minimizedRMSD>  (1) 
1.43772709

$$$$
