
     RDKit          3D

 33 35  0  0  0  0  0  0  0  0999 V2000
   35.6520   29.5070   40.9270 O   0  0  0  0  0  0  0  0  0  0  0  0
   37.6330   27.4600   43.1950 C   0  0  0  0  0  0  0  0  0  0  0  0
   37.7200   26.2950   42.3810 C   0  0  0  0  0  0  0  0  0  0  0  0
   37.1010   26.3100   41.1460 C   0  0  0  0  0  0  0  0  0  0  0  0
   36.4500   27.4370   40.7870 N   0  0  0  0  0  0  0  0  0  0  0  0
   36.3690   28.5210   41.5390 C   0  0  0  0  0  0  0  0  0  0  0  0
   36.9600   28.5470   42.7570 N   0  0  0  0  0  0  0  0  0  0  0  0
   37.2610   25.0690   40.4290 C   0  0  0  0  0  0  0  0  0  0  0  0
   37.3800   23.8460   41.2350 C   0  0  0  0  0  0  0  0  0  0  0  0
   38.0370   22.4460   40.2540 S   0  0  0  0  0  0  0  0  0  0  0  0
   36.3330   30.4930   40.1970 C   0  0  0  0  0  0  0  0  0  0  0  0
   36.4410   30.6870   38.8370 N   0  0  0  0  0  0  0  0  0  0  0  0
   37.1810   31.7420   38.6220 O   0  0  0  0  0  0  0  0  0  0  0  0
   37.5380   32.2140   39.7840 C   0  0  0  0  0  0  0  0  0  0  0  0
   37.0320   31.4670   40.7710 N   0  0  0  0  0  0  0  0  0  0  0  0
   38.3730   33.3930   39.9590 C   0  0  0  0  0  0  0  0  0  0  0  0
   37.9850   34.7110   39.9300 C   0  0  0  0  0  0  0  0  0  0  0  0
   39.0690   35.5370   40.1390 C   0  0  0  0  0  0  0  0  0  0  0  0
   40.1260   34.6510   40.2930 C   0  0  0  0  0  0  0  0  0  0  0  0
   39.6740   33.4570   40.1820 O   0  0  0  0  0  0  0  0  0  0  0  0
   41.5310   35.0770   40.5450 C   0  0  0  0  0  0  0  0  0  0  0  0
   42.1860   35.0540   39.3290 F   0  0  0  0  0  0  0  0  0  0  0  0
   41.5620   36.3910   41.0110 F   0  0  0  0  0  0  0  0  0  0  0  0
   42.1780   34.2150   41.4040 F   0  0  0  0  0  0  0  0  0  0  0  0
   38.1152   27.4753   44.1836 H   0  0  0  0  0  0  0  0  0  0  0  0
   38.2665   25.4052   42.7269 H   0  0  0  0  0  0  0  0  0  0  0  0
   36.3871   24.9500   39.7716 H   0  0  0  0  0  0  0  0  0  0  0  0
   38.2240   25.1623   39.9057 H   0  0  0  0  0  0  0  0  0  0  0  0
   38.0595   24.0399   42.0780 H   0  0  0  0  0  0  0  0  0  0  0  0
   36.3759   23.5723   41.5913 H   0  0  0  0  0  0  0  0  0  0  0  0
   38.4948   21.4706   41.1001 H   0  0  0  0  0  0  0  0  0  0  0  0
   36.9546   35.0582   39.7635 H   0  0  0  0  0  0  0  0  0  0  0  0
   39.0908   36.6362   40.1751 H   0  0  0  0  0  0  0  0  0  0  0  0
  1  6  1  0
  3  2  2  0
  4  3  1  0
  5  4  2  0
  5  6  1  0
  6  7  2  0
  7  2  1  0
  8  4  1  0
  8  9  1  0
 10  9  1  0
 11 15  1  0
 11  1  1  0
 12 11  2  0
 13 12  1  0
 13 14  1  0
 14 16  1  0
 14 15  2  0
 16 20  1  0
 17 16  2  0
 17 18  1  0
 18 19  2  0
 19 21  1  0
 20 19  1  0
 21 23  1  0
 21 24  1  0
 22 21  1  0
  2 25  1  0
  3 26  1  0
  8 27  1  0
  8 28  1  0
  9 29  1  0
  9 30  1  0
 10 31  1  0
 17 32  1  0
 18 33  1  0
M  ISO  8  25  14  26  14  27   8  28   8  29   8  30   8  31  11  32  14
M  ISO  1  33  14
M  END
>  <minimizedAffinity>  (1) 
-5.59396744

>  <minimizedRMSD>  (1) 
1.12642431

$$$$
