
     RDKit          3D

 37 40  0  0  0  0  0  0  0  0999 V2000
   37.0330   31.3730   40.5600 C   0  0  0  0  0  0  0  0  0  0  0  0
   36.8200   31.7270   39.2410 N   0  0  0  0  0  0  0  0  0  0  0  0
   37.7720   32.5590   38.8800 O   0  0  0  0  0  0  0  0  0  0  0  0
   38.5600   32.7270   39.9240 C   0  0  0  0  0  0  0  0  0  0  0  0
   38.1340   32.0170   40.9600 N   0  0  0  0  0  0  0  0  0  0  0  0
   39.7310   33.5880   39.8970 C   0  0  0  0  0  0  0  0  0  0  0  0
   39.7670   34.9590   40.0080 C   0  0  0  0  0  0  0  0  0  0  0  0
   41.0660   35.4010   39.9360 C   0  0  0  0  0  0  0  0  0  0  0  0
   41.8110   34.2580   39.7790 C   0  0  0  0  0  0  0  0  0  0  0  0
   40.9940   33.2460   39.7630 O   0  0  0  0  0  0  0  0  0  0  0  0
   43.2650   34.2230   39.6540 C   0  0  0  0  0  0  0  0  0  0  0  0
   44.1520   34.2270   40.7350 C   0  0  0  0  0  0  0  0  0  0  0  0
   45.3930   34.1850   40.0870 C   0  0  0  0  0  0  0  0  0  0  0  0
   45.2060   34.1580   38.7200 C   0  0  0  0  0  0  0  0  0  0  0  0
   43.9100   34.1820   38.5130 O   0  0  0  0  0  0  0  0  0  0  0  0
   36.2970   30.5180   41.3880 O   0  0  0  0  0  0  0  0  0  0  0  0
   38.1910   28.1360   43.3870 C   0  0  0  0  0  0  0  0  0  0  0  0
   37.9330   26.9700   42.6010 C   0  0  0  0  0  0  0  0  0  0  0  0
   37.1430   27.1070   41.4770 C   0  0  0  0  0  0  0  0  0  0  0  0
   36.6670   28.3350   41.1890 N   0  0  0  0  0  0  0  0  0  0  0  0
   36.9060   29.4110   41.9160 C   0  0  0  0  0  0  0  0  0  0  0  0
   37.6710   29.3270   43.0250 N   0  0  0  0  0  0  0  0  0  0  0  0
   36.9570   25.8560   40.7760 C   0  0  0  0  0  0  0  0  0  0  0  0
   36.9640   24.6330   41.5940 C   0  0  0  0  0  0  0  0  0  0  0  0
   37.8320   23.2580   40.7540 S   0  0  0  0  0  0  0  0  0  0  0  0
   38.8862   35.6055   40.1355 H   0  0  0  0  0  0  0  0  0  0  0  0
   41.4282   36.4382   39.9917 H   0  0  0  0  0  0  0  0  0  0  0  0
   43.9325   34.2556   41.8125 H   0  0  0  0  0  0  0  0  0  0  0  0
   46.3702   34.1750   40.5920 H   0  0  0  0  0  0  0  0  0  0  0  0
   45.9921   34.1231   37.9514 H   0  0  0  0  0  0  0  0  0  0  0  0
   38.8154   28.0618   44.2896 H   0  0  0  0  0  0  0  0  0  0  0  0
   38.3515   25.9927   42.8834 H   0  0  0  0  0  0  0  0  0  0  0  0
   35.9878   25.9050   40.2580 H   0  0  0  0  0  0  0  0  0  0  0  0
   37.8288   25.7645   40.1115 H   0  0  0  0  0  0  0  0  0  0  0  0
   37.4711   24.8449   42.5468 H   0  0  0  0  0  0  0  0  0  0  0  0
   35.9206   24.3274   41.7607 H   0  0  0  0  0  0  0  0  0  0  0  0
   38.3650   22.4136   41.6920 H   0  0  0  0  0  0  0  0  0  0  0  0
  1  5  1  0
  1 16  1  0
  2  1  2  0
  3  2  1  0
  3  4  1  0
  4  5  2  0
  6  4  1  0
  6  7  2  0
  8  7  1  0
  9  8  2  0
 10  9  1  0
 10  6  1  0
 11  9  1  0
 11 12  2  0
 13 12  1  0
 14 13  2  0
 15 14  1  0
 15 11  1  0
 16 21  1  0
 18 17  2  0
 19 18  1  0
 20 19  2  0
 20 21  1  0
 21 22  2  0
 22 17  1  0
 23 19  1  0
 23 24  1  0
 25 24  1  0
  7 26  1  0
  8 27  1  0
 12 28  1  0
 13 29  1  0
 14 30  1  0
 17 31  1  0
 18 32  1  0
 23 33  1  0
 23 34  1  0
 24 35  1  0
 24 36  1  0
 25 37  1  0
M  ISO  8  26  14  27  14  28  14  29  14  30  14  31  14  32  14  33   8
M  ISO  4  34   8  35   8  36   8  37  11
M  END
>  <minimizedAffinity>  (1) 
-5.57571888

>  <minimizedRMSD>  (1) 
0.963025987

$$$$
