
     RDKit          3D

 42 44  0  0  0  0  0  0  0  0999 V2000
   36.2750   30.4890   41.3760 O   0  0  0  0  0  0  0  0  0  0  0  0
   38.0810   28.0980   43.4450 C   0  0  0  0  0  0  0  0  0  0  0  0
   37.8560   26.9380   42.6470 C   0  0  0  0  0  0  0  0  0  0  0  0
   37.1170   27.0740   41.4900 C   0  0  0  0  0  0  0  0  0  0  0  0
   36.6520   28.3080   41.1860 N   0  0  0  0  0  0  0  0  0  0  0  0
   36.8610   29.3810   41.9260 C   0  0  0  0  0  0  0  0  0  0  0  0
   37.5770   29.2920   43.0630 N   0  0  0  0  0  0  0  0  0  0  0  0
   36.9600   25.8280   40.7780 C   0  0  0  0  0  0  0  0  0  0  0  0
   36.9660   24.6020   41.5850 C   0  0  0  0  0  0  0  0  0  0  0  0
   37.8290   23.2290   40.7390 S   0  0  0  0  0  0  0  0  0  0  0  0
   37.0560   31.3570   40.5940 C   0  0  0  0  0  0  0  0  0  0  0  0
   36.8410   31.8190   39.3080 N   0  0  0  0  0  0  0  0  0  0  0  0
   37.8420   32.6120   38.9920 O   0  0  0  0  0  0  0  0  0  0  0  0
   38.6570   32.6520   40.0270 C   0  0  0  0  0  0  0  0  0  0  0  0
   38.1970   31.8960   41.0110 N   0  0  0  0  0  0  0  0  0  0  0  0
   39.8840   33.4350   40.0440 C   0  0  0  0  0  0  0  0  0  0  0  0
   39.9940   34.8070   39.9190 C   0  0  0  0  0  0  0  0  0  0  0  0
   41.3270   35.1620   39.9850 C   0  0  0  0  0  0  0  0  0  0  0  0
   41.9970   33.9690   40.1500 C   0  0  0  0  0  0  0  0  0  0  0  0
   41.1200   33.0170   40.1770 O   0  0  0  0  0  0  0  0  0  0  0  0
   43.4740   33.8230   40.2750 C   0  0  0  0  0  0  0  0  0  0  0  0
   44.0180   34.7490   41.3400 C   0  0  0  0  0  0  0  0  0  0  0  0
   43.8280   32.4140   40.6950 C   0  0  0  0  0  0  0  0  0  0  0  0
   44.1760   34.0900   38.9590 C   0  0  0  0  0  0  0  0  0  0  0  0
   38.6660   28.0207   44.3733 H   0  0  0  0  0  0  0  0  0  0  0  0
   38.2611   25.9600   42.9461 H   0  0  0  0  0  0  0  0  0  0  0  0
   36.0005   25.8693   40.2417 H   0  0  0  0  0  0  0  0  0  0  0  0
   37.8457   25.7518   40.1302 H   0  0  0  0  0  0  0  0  0  0  0  0
   37.4744   24.8071   42.5387 H   0  0  0  0  0  0  0  0  0  0  0  0
   35.9216   24.2976   41.7483 H   0  0  0  0  0  0  0  0  0  0  0  0
   38.3624   22.3804   41.6730 H   0  0  0  0  0  0  0  0  0  0  0  0
   39.1539   35.5049   39.7879 H   0  0  0  0  0  0  0  0  0  0  0  0
   41.7580   36.1720   39.9203 H   0  0  0  0  0  0  0  0  0  0  0  0
   43.7800   34.3438   42.3346 H   0  0  0  0  0  0  0  0  0  0  0  0
   45.1092   34.8334   41.2300 H   0  0  0  0  0  0  0  0  0  0  0  0
   43.5604   35.7432   41.2300 H   0  0  0  0  0  0  0  0  0  0  0  0
   43.8436   32.3517   41.7931 H   0  0  0  0  0  0  0  0  0  0  0  0
   43.0778   31.7139   40.2987 H   0  0  0  0  0  0  0  0  0  0  0  0
   44.8200   32.1516   40.2987 H   0  0  0  0  0  0  0  0  0  0  0  0
   45.1878   34.4748   39.1546 H   0  0  0  0  0  0  0  0  0  0  0  0
   44.2442   33.1550   38.3835 H   0  0  0  0  0  0  0  0  0  0  0  0
   43.6056   34.8340   38.3835 H   0  0  0  0  0  0  0  0  0  0  0  0
  1  6  1  0
  3  2  2  0
  4  3  1  0
  5  4  2  0
  5  6  1  0
  6  7  2  0
  7  2  1  0
  8  4  1  0
  8  9  1  0
 10  9  1  0
 11 15  1  0
 11  1  1  0
 12 11  2  0
 13 12  1  0
 13 14  1  0
 14 16  1  0
 14 15  2  0
 16 20  1  0
 17 18  1  0
 17 16  2  0
 18 19  2  0
 19 20  1  0
 19 21  1  0
 21 23  1  0
 21 22  1  0
 24 21  1  0
  2 25  1  0
  3 26  1  0
  8 27  1  0
  8 28  1  0
  9 29  1  0
  9 30  1  0
 10 31  1  0
 17 32  1  0
 18 33  1  0
 22 34  1  0
 22 35  1  0
 22 36  1  0
 23 37  1  0
 23 38  1  0
 23 39  1  0
 24 40  1  0
 24 41  1  0
 24 42  1  0
M  ISO  8  25  14  26  14  27   8  28   8  29   8  30   8  31  11  32  14
M  ISO  8  33  14  34   8  35   8  36   8  37   8  38   8  39   8  40   8
M  ISO  2  41   8  42   8
M  END
>  <minimizedAffinity>  (1) 
-5.26136684

>  <minimizedRMSD>  (1) 
1.18099701

$$$$
