
     RDKit          3D

 33 35  0  0  0  0  0  0  0  0999 V2000
   38.3450   28.0010   43.4610 C   0  0  0  0  0  0  0  0  0  0  0  0
   38.0320   26.8490   42.6670 C   0  0  0  0  0  0  0  0  0  0  0  0
   37.2020   27.0230   41.5780 C   0  0  0  0  0  0  0  0  0  0  0  0
   36.7330   28.2660   41.3210 N   0  0  0  0  0  0  0  0  0  0  0  0
   37.0310   29.3220   42.0630 C   0  0  0  0  0  0  0  0  0  0  0  0
   37.8390   29.2110   43.1430 N   0  0  0  0  0  0  0  0  0  0  0  0
   36.9640   25.7950   40.8580 C   0  0  0  0  0  0  0  0  0  0  0  0
   36.9860   24.5560   41.6570 C   0  0  0  0  0  0  0  0  0  0  0  0
   37.8190   23.1980   40.7560 S   0  0  0  0  0  0  0  0  0  0  0  0
   36.4300   30.4590   41.5900 O   0  0  0  0  0  0  0  0  0  0  0  0
   37.0740   31.2210   40.6020 C   0  0  0  0  0  0  0  0  0  0  0  0
   36.7840   31.3690   39.2660 N   0  0  0  0  0  0  0  0  0  0  0  0
   37.6690   32.1880   38.7400 O   0  0  0  0  0  0  0  0  0  0  0  0
   38.4930   32.5500   39.7090 C   0  0  0  0  0  0  0  0  0  0  0  0
   38.1470   31.9710   40.8550 N   0  0  0  0  0  0  0  0  0  0  0  0
   39.6080   33.4590   39.4970 C   0  0  0  0  0  0  0  0  0  0  0  0
   39.8070   34.6810   40.1110 C   0  0  0  0  0  0  0  0  0  0  0  0
   40.9740   35.2400   39.6480 C   0  0  0  0  0  0  0  0  0  0  0  0
   41.4660   34.3200   38.7430 C   0  0  0  0  0  0  0  0  0  0  0  0
   40.6400   33.3200   38.7000 O   0  0  0  0  0  0  0  0  0  0  0  0
   42.7320   34.4830   37.9700 C   0  0  0  0  0  0  0  0  0  0  0  0
   39.0029   27.8978   44.3365 H   0  0  0  0  0  0  0  0  0  0  0  0
   38.4401   25.8587   42.9175 H   0  0  0  0  0  0  0  0  0  0  0  0
   35.9744   25.8707   40.3837 H   0  0  0  0  0  0  0  0  0  0  0  0
   37.8005   25.7028   40.1496 H   0  0  0  0  0  0  0  0  0  0  0  0
   37.5247   24.7455   42.5972 H   0  0  0  0  0  0  0  0  0  0  0  0
   35.9475   24.2538   41.8574 H   0  0  0  0  0  0  0  0  0  0  0  0
   38.3593   22.3172   41.6555 H   0  0  0  0  0  0  0  0  0  0  0  0
   39.1358   35.1355   40.8546 H   0  0  0  0  0  0  0  0  0  0  0  0
   41.4174   36.2051   39.9344 H   0  0  0  0  0  0  0  0  0  0  0  0
   43.5759   34.5917   38.6672 H   0  0  0  0  0  0  0  0  0  0  0  0
   42.8914   33.5980   37.3365 H   0  0  0  0  0  0  0  0  0  0  0  0
   42.6620   35.3795   37.3365 H   0  0  0  0  0  0  0  0  0  0  0  0
  2  1  2  0
  3  2  1  0
  4  3  2  0
  4  5  1  0
  5  6  2  0
  6  1  1  0
  7  3  1  0
  7  8  1  0
  9  8  1  0
 10  5  1  0
 11 15  1  0
 11 10  1  0
 12 11  2  0
 13 12  1  0
 13 14  1  0
 14 15  2  0
 16 14  1  0
 16 17  2  0
 18 17  1  0
 19 18  2  0
 20 19  1  0
 20 16  1  0
 21 19  1  0
  1 22  1  0
  2 23  1  0
  7 24  1  0
  7 25  1  0
  8 26  1  0
  8 27  1  0
  9 28  1  0
 17 29  1  0
 18 30  1  0
 21 31  1  0
 21 32  1  0
 21 33  1  0
M  ISO  8  22  14  23  14  24   8  25   8  26   8  27   8  28  11  29  14
M  ISO  4  30  14  31   8  32   8  33   8
M  END
>  <minimizedAffinity>  (1) 
-5.20433187

>  <minimizedRMSD>  (1) 
0.708935797

$$$$
