
     RDKit          3D

 42 46  0  0  0  0  0  0  0  0999 V2000
   37.5300   28.6080   43.7950 C   0  0  0  0  0  0  0  0  0  0  0  0
   37.1090   27.2680   43.7260 C   0  0  0  0  0  0  0  0  0  0  0  0
   36.7830   26.7490   42.4740 C   0  0  0  0  0  0  0  0  0  0  0  0
   36.8880   27.5570   41.3900 N   0  0  0  0  0  0  0  0  0  0  0  0
   37.2980   28.8450   41.4840 C   0  0  0  0  0  0  0  0  0  0  0  0
   37.6190   29.3700   42.6870 N   0  0  0  0  0  0  0  0  0  0  0  0
   37.3700   29.5940   40.2850 N   0  0  0  0  0  0  0  0  0  0  0  0
   37.0690   29.0690   39.1010 C   0  0  0  0  0  0  0  0  0  0  0  0
   37.1880   29.9190   38.0250 C   0  0  0  0  0  0  0  0  0  0  0  0
   37.5920   31.2340   38.1210 C   0  0  0  0  0  0  0  0  0  0  0  0
   37.7030   32.0180   37.1420 O   0  0  0  0  0  0  0  0  0  0  0  0
   37.8900   31.7280   39.3550 N   0  0  0  0  0  0  0  0  0  0  0  0
   37.7720   30.8840   40.4270 C   0  0  0  0  0  0  0  0  0  0  0  0
   38.0610   31.3870   41.5600 O   0  0  0  0  0  0  0  0  0  0  0  0
   38.3170   33.0740   39.5660 C   0  0  0  0  0  0  0  0  0  0  0  0
   37.6820   34.2830   39.7300 C   0  0  0  0  0  0  0  0  0  0  0  0
   38.6220   35.2430   39.8950 N   0  0  0  0  0  0  0  0  0  0  0  0
   39.8570   34.6670   39.8380 C   0  0  0  0  0  0  0  0  0  0  0  0
   41.1090   35.2240   39.9500 C   0  0  0  0  0  0  0  0  0  0  0  0
   42.2560   34.4610   39.8630 C   0  0  0  0  0  0  0  0  0  0  0  0
   42.1020   33.1180   39.6600 C   0  0  0  0  0  0  0  0  0  0  0  0
   40.8480   32.5710   39.5500 C   0  0  0  0  0  0  0  0  0  0  0  0
   39.6870   33.3080   39.6320 C   0  0  0  0  0  0  0  0  0  0  0  0
   36.8890   29.4810   36.6510 C   0  0  0  0  0  0  0  0  0  0  0  0
   37.4050   28.1170   36.3530 C   0  0  0  0  0  0  0  0  0  0  0  0
   38.6970   27.6860   36.2780 N   0  0  0  0  0  0  0  0  0  0  0  0
   38.7070   26.4330   35.9960 O   0  0  0  0  0  0  0  0  0  0  0  0
   37.4990   25.9860   35.8760 C   0  0  0  0  0  0  0  0  0  0  0  0
   36.6870   27.0100   36.0930 N   0  0  0  0  0  0  0  0  0  0  0  0
   37.7915   29.0422   44.7713 H   0  0  0  0  0  0  0  0  0  0  0  0
   37.0391   26.6484   44.6322 H   0  0  0  0  0  0  0  0  0  0  0  0
   36.4479   25.7067   42.3676 H   0  0  0  0  0  0  0  0  0  0  0  0
   36.7459   28.0235   38.9888 H   0  0  0  0  0  0  0  0  0  0  0  0
   36.5937   34.4429   39.7275 H   0  0  0  0  0  0  0  0  0  0  0  0
   38.4350   36.2454   40.0400 H   0  0  0  0  0  0  0  0  0  0  0  0
   41.1992   36.3080   40.1135 H   0  0  0  0  0  0  0  0  0  0  0  0
   43.2537   34.9153   39.9534 H   0  0  0  0  0  0  0  0  0  0  0  0
   42.9888   32.4715   39.5843 H   0  0  0  0  0  0  0  0  0  0  0  0
   40.7656   31.4862   39.3877 H   0  0  0  0  0  0  0  0  0  0  0  0
   35.7978   29.4817   36.5120 H   0  0  0  0  0  0  0  0  0  0  0  0
   37.3893   30.1805   35.9652 H   0  0  0  0  0  0  0  0  0  0  0  0
   37.2028   24.9534   35.6392 H   0  0  0  0  0  0  0  0  0  0  0  0
  2  1  2  0
  3  2  1  0
  4  5  1  0
  4  3  2  0
  5  6  2  0
  6  1  1  0
  7 13  1  0
  7  5  1  0
  8  7  1  0
  9 10  1  0
  9  8  2  0
 10 12  1  0
 11 10  2  0
 12 15  1  0
 12 13  1  0
 13 14  2  0
 15 23  1  0
 15 16  2  0
 16 17  1  0
 18 17  1  0
 18 19  2  0
 20 19  1  0
 21 20  2  0
 22 23  2  0
 22 21  1  0
 23 18  1  0
 24  9  1  0
 25 24  1  0
 26 25  2  0
 27 26  1  0
 28 27  1  0
 28 29  2  0
 29 25  1  0
  1 30  1  0
  2 31  1  0
  3 32  1  0
  8 33  1  0
 16 34  1  0
 17 35  1  0
 19 36  1  0
 20 37  1  0
 21 38  1  0
 22 39  1  0
 24 40  1  0
 24 41  1  0
 28 42  1  0
M  ISO  8  30  14  31  14  32  14  33  14  34  14  35   9  36  14  37  14
M  ISO  5  38  14  39  14  40   8  41   8  42  14
M  END
>  <minimizedAffinity>  (1) 
-6.49877977

>  <minimizedRMSD>  (1) 
2.18428826

$$$$
