
     RDKit          3D

 37 40  0  0  1  0  0  0  0  0999 V2000
   37.9930   27.0990   42.7090 C   0  0  2  0  0  0  0  0  0  0  0  0
   38.9770   27.4310   43.8160 C   0  0  0  0  0  0  0  0  0  0  0  0
   39.8120   26.1610   43.9380 C   0  0  0  0  0  0  0  0  0  0  0  0
   39.3500   25.2470   42.8020 C   0  0  0  0  0  0  0  0  0  0  0  0
   38.7940   26.2700   41.8380 C   0  0  1  0  0  0  0  0  0  0  0  0
   38.6490   25.9670   40.4590 C   0  0  0  0  0  0  0  0  0  0  0  0
   39.4640   26.4750   39.4730 N   0  0  0  0  0  0  0  0  0  0  0  0
   39.3820   26.1900   38.1740 C   0  0  0  0  0  0  0  0  0  0  0  0
   38.4670   25.3510   37.6680 N   0  0  0  0  0  0  0  0  0  0  0  0
   37.6190   24.7940   38.5150 C   0  0  0  0  0  0  0  0  0  0  0  0
   36.6540   23.9400   38.0310 C   0  0  0  0  0  0  0  0  0  0  0  0
   35.7400   23.3550   38.8830 C   0  0  0  0  0  0  0  0  0  0  0  0
   35.7990   23.6370   40.2540 C   0  0  0  0  0  0  0  0  0  0  0  0
   36.7910   24.5000   40.6670 C   0  0  0  0  0  0  0  0  0  0  0  0
   37.7250   25.1040   39.8420 C   0  0  0  0  0  0  0  0  0  0  0  0
   38.0090   29.5700   41.9370 C   0  0  0  0  0  0  0  0  0  0  0  0
   37.4210   28.2810   42.0740 C   0  0  0  0  0  0  0  0  0  0  0  0
   36.1450   28.0990   41.5450 C   0  0  0  0  0  0  0  0  0  0  0  0
   35.5220   29.1450   40.9260 N   0  0  0  0  0  0  0  0  0  0  0  0
   36.1170   30.3710   40.8120 C   0  0  0  0  0  0  0  0  0  0  0  0
   37.3700   30.5550   41.3320 N   0  0  0  0  0  0  0  0  0  0  0  0
   37.0829   26.5877   43.0558 H   0  0  0  0  0  0  0  0  0  0  0  0
   39.6055   28.2904   43.5395 H   0  0  0  0  0  0  0  0  0  0  0  0
   38.4846   27.7138   44.7581 H   0  0  0  0  0  0  0  0  0  0  0  0
   40.8816   26.3942   43.8309 H   0  0  0  0  0  0  0  0  0  0  0  0
   39.6810   25.6835   44.9202 H   0  0  0  0  0  0  0  0  0  0  0  0
   40.1896   24.6885   42.3625 H   0  0  0  0  0  0  0  0  0  0  0  0
   38.6379   24.4644   43.1027 H   0  0  0  0  0  0  0  0  0  0  0  0
   39.4219   26.9582   41.2531 H   0  0  0  0  0  0  0  0  0  0  0  0
   40.0972   26.6644   37.4859 H   0  0  0  0  0  0  0  0  0  0  0  0
   36.6111   23.7217   36.9537 H   0  0  0  0  0  0  0  0  0  0  0  0
   34.9718   22.6732   38.4893 H   0  0  0  0  0  0  0  0  0  0  0  0
   35.0885   23.1915   40.9659 H   0  0  0  0  0  0  0  0  0  0  0  0
   36.8454   24.7281   41.7417 H   0  0  0  0  0  0  0  0  0  0  0  0
   39.0155   29.7494   42.3430 H   0  0  0  0  0  0  0  0  0  0  0  0
   35.6444   27.1228   41.6251 H   0  0  0  0  0  0  0  0  0  0  0  0
   35.5956   31.1987   40.3090 H   0  0  0  0  0  0  0  0  0  0  0  0
  1  2  1  0
  2  3  1  0
  4  3  1  0
  5  1  1  0
  5  4  1  0
  6  5  1  0
  7  6  2  0
  8  7  1  0
  9  8  2  0
  9 10  1  0
 10 15  2  0
 11 10  1  0
 11 12  2  0
 12 13  1  0
 13 14  2  0
 15  6  1  0
 15 14  1  0
 16 17  2  0
 17  1  1  0
 18 17  1  0
 19 18  2  0
 20 19  1  0
 20 21  2  0
 21 16  1  0
  1 22  1  1
  2 23  1  0
  2 24  1  0
  3 25  1  0
  3 26  1  0
  4 27  1  0
  4 28  1  0
  5 29  1  6
  8 30  1  0
 11 31  1  0
 12 32  1  0
 13 33  1  0
 14 34  1  0
 16 35  1  0
 18 36  1  0
 20 37  1  0
M  ISO  8  22  13  23  13  24  13  25  13  26  13  27  13  28  13  29  13
M  ISO  8  30  14  31  14  32  14  33  14  34  14  35  14  36  14  37  14
M  END
>  <minimizedAffinity>  (1) 
-5.03119993

>  <minimizedRMSD>  (1) 
2.16426778

$$$$
