
     RDKit          3D

 34 37  0  0  1  0  0  0  0  0999 V2000
   38.4130   26.2580   42.8530 C   0  0  2  0  0  0  0  0  0  0  0  0
   39.2560   25.1410   42.4390 C   0  0  0  0  0  0  0  0  0  0  0  0
   38.2770   23.9950   42.1940 C   0  0  0  0  0  0  0  0  0  0  0  0
   36.9020   24.6090   42.1790 C   0  0  0  0  0  0  0  0  0  0  0  0
   37.1500   26.0960   42.0370 C   0  0  2  0  0  0  0  0  0  0  0  0
   37.2200   26.5370   40.6930 N   0  0  0  0  0  0  0  0  0  0  0  0
   37.9170   26.0200   39.6840 C   0  0  0  0  0  0  0  0  0  0  0  0
   37.7270   26.7250   38.5300 N   0  0  0  0  0  0  0  0  0  0  0  0
   36.8640   27.7420   38.8230 C   0  0  0  0  0  0  0  0  0  0  0  0
   36.3410   28.7430   38.0280 C   0  0  0  0  0  0  0  0  0  0  0  0
   35.5020   29.6340   38.5570 N   0  0  0  0  0  0  0  0  0  0  0  0
   35.2020   29.5160   39.8570 C   0  0  0  0  0  0  0  0  0  0  0  0
   35.7210   28.5340   40.6150 N   0  0  0  0  0  0  0  0  0  0  0  0
   36.5730   27.5990   40.1560 C   0  0  0  0  0  0  0  0  0  0  0  0
   40.1900   27.8940   42.0450 C   0  0  0  0  0  0  0  0  0  0  0  0
   38.9650   27.6040   42.7060 C   0  0  0  0  0  0  0  0  0  0  0  0
   38.2320   28.6690   43.2460 C   0  0  0  0  0  0  0  0  0  0  0  0
   38.7350   29.9220   43.1090 N   0  0  0  0  0  0  0  0  0  0  0  0
   39.9160   30.1860   42.4700 C   0  0  0  0  0  0  0  0  0  0  0  0
   40.6340   29.1440   41.9410 N   0  0  0  0  0  0  0  0  0  0  0  0
   38.2714   26.2014   43.9424 H   0  0  0  0  0  0  0  0  0  0  0  0
   39.8043   25.3879   41.5179 H   0  0  0  0  0  0  0  0  0  0  0  0
   40.0163   24.8883   43.1927 H   0  0  0  0  0  0  0  0  0  0  0  0
   38.4892   23.5127   41.2284 H   0  0  0  0  0  0  0  0  0  0  0  0
   38.3617   23.2235   42.9735 H   0  0  0  0  0  0  0  0  0  0  0  0
   36.3165   24.2299   41.3284 H   0  0  0  0  0  0  0  0  0  0  0  0
   36.3266   24.3664   43.0846 H   0  0  0  0  0  0  0  0  0  0  0  0
   36.3308   26.7365   42.3958 H   0  0  0  0  0  0  0  0  0  0  0  0
   38.5652   25.1353   39.7690 H   0  0  0  0  0  0  0  0  0  0  0  0
   36.6151   28.8048   36.9645 H   0  0  0  0  0  0  0  0  0  0  0  0
   34.5136   30.2407   40.3162 H   0  0  0  0  0  0  0  0  0  0  0  0
   40.7798   27.0722   41.6129 H   0  0  0  0  0  0  0  0  0  0  0  0
   37.2780   28.4948   43.7651 H   0  0  0  0  0  0  0  0  0  0  0  0
   40.2841   31.2188   42.3819 H   0  0  0  0  0  0  0  0  0  0  0  0
  2  1  1  0
  3  2  1  0
  4  3  1  0
  5  4  1  0
  5  1  1  0
  6  5  1  0
  7  6  1  0
  8  9  1  0
  8  7  2  0
  9 14  2  0
 10 11  2  0
 10  9  1  0
 11 12  1  0
 12 13  2  0
 14 13  1  0
 14  6  1  0
 15 16  2  0
 16  1  1  0
 16 17  1  0
 18 17  2  0
 19 18  1  0
 20 15  1  0
 20 19  2  0
  1 21  1  1
  2 22  1  0
  2 23  1  0
  3 24  1  0
  3 25  1  0
  4 26  1  0
  4 27  1  0
  5 28  1  1
  7 29  1  0
 10 30  1  0
 12 31  1  0
 15 32  1  0
 17 33  1  0
 19 34  1  0
M  ISO  8  21  13  22  13  23  13  24  13  25  13  26  13  27  13  28  13
M  ISO  6  29  14  30  14  31  14  32  14  33  14  34  14
M  END
>  <minimizedAffinity>  (1) 
-4.72710514

>  <minimizedRMSD>  (1) 
2.64810872

$$$$
