
     RDKit          3D

 38 40  0  0  1  0  0  0  0  0999 V2000
   38.3300   26.8140   42.8810 C   0  0  2  0  0  0  0  0  0  0  0  0
   39.5110   27.1070   43.7400 C   0  0  0  0  0  0  0  0  0  0  0  0
   40.1600   25.7390   43.8880 C   0  0  0  0  0  0  0  0  0  0  0  0
   39.5630   24.8840   42.8080 C   0  0  0  0  0  0  0  0  0  0  0  0
   38.9750   25.9320   41.8240 C   0  0  1  0  0  0  0  0  0  0  0  0
   38.3310   29.2680   42.0750 C   0  0  0  0  0  0  0  0  0  0  0  0
   37.7150   28.0030   42.2660 C   0  0  0  0  0  0  0  0  0  0  0  0
   36.4000   27.8340   41.8280 C   0  0  0  0  0  0  0  0  0  0  0  0
   35.7670   28.8910   41.2370 N   0  0  0  0  0  0  0  0  0  0  0  0
   36.3930   30.0950   41.0700 C   0  0  0  0  0  0  0  0  0  0  0  0
   37.6800   30.2630   41.4970 N   0  0  0  0  0  0  0  0  0  0  0  0
   38.0710   25.2980   40.9210 N   0  0  0  0  0  0  0  0  0  0  0  0
   37.2350   24.2740   41.5150 C   0  0  0  0  0  0  0  0  0  0  0  0
   36.1450   23.8540   40.5170 C   0  0  0  0  0  0  0  0  0  0  0  0
   36.7330   23.7470   39.1270 C   0  0  0  0  0  0  0  0  0  0  0  0
   38.1950   23.4300   39.3130 C   0  0  0  0  0  0  0  0  0  0  0  0
   38.8610   24.6640   39.8850 C   0  0  0  0  0  0  0  0  0  0  0  0
   37.4937   26.3709   43.4416 H   0  0  0  0  0  0  0  0  0  0  0  0
   40.1918   27.8187   43.2501 H   0  0  0  0  0  0  0  0  0  0  0  0
   39.2486   27.5734   44.7010 H   0  0  0  0  0  0  0  0  0  0  0  0
   41.2495   25.8158   43.7574 H   0  0  0  0  0  0  0  0  0  0  0  0
   39.9826   25.3126   44.8864 H   0  0  0  0  0  0  0  0  0  0  0  0
   40.3328   24.2693   42.3185 H   0  0  0  0  0  0  0  0  0  0  0  0
   38.8143   24.1701   43.1820 H   0  0  0  0  0  0  0  0  0  0  0  0
   39.6472   26.4653   41.1357 H   0  0  0  0  0  0  0  0  0  0  0  0
   39.3662   29.4226   42.4133 H   0  0  0  0  0  0  0  0  0  0  0  0
   35.8847   26.8706   41.9560 H   0  0  0  0  0  0  0  0  0  0  0  0
   35.8598   30.9295   40.5912 H   0  0  0  0  0  0  0  0  0  0  0  0
   37.8526   23.4006   41.7713 H   0  0  0  0  0  0  0  0  0  0  0  0
   36.7626   24.6714   42.4254 H   0  0  0  0  0  0  0  0  0  0  0  0
   35.7338   22.8783   40.8152 H   0  0  0  0  0  0  0  0  0  0  0  0
   35.3455   24.6095   40.5148 H   0  0  0  0  0  0  0  0  0  0  0  0
   36.6146   24.6988   38.5884 H   0  0  0  0  0  0  0  0  0  0  0  0
   36.2261   22.9702   38.5357 H   0  0  0  0  0  0  0  0  0  0  0  0
   38.3103   22.5851   40.0079 H   0  0  0  0  0  0  0  0  0  0  0  0
   38.6554   23.1517   38.3536 H   0  0  0  0  0  0  0  0  0  0  0  0
   39.8324   24.3735   40.3117 H   0  0  0  0  0  0  0  0  0  0  0  0
   38.9762   25.3887   39.0655 H   0  0  0  0  0  0  0  0  0  0  0  0
  1  2  1  0
  2  3  1  0
  4  3  1  0
  5  4  1  0
  5  1  1  0
  6  7  2  0
  7  1  1  0
  8  7  1  0
  9  8  2  0
 10  9  1  0
 10 11  2  0
 11  6  1  0
 12 13  1  0
 12  5  1  0
 14 13  1  0
 15 16  1  0
 15 14  1  0
 16 17  1  0
 17 12  1  0
  1 18  1  1
  2 19  1  0
  2 20  1  0
  3 21  1  0
  3 22  1  0
  4 23  1  0
  4 24  1  0
  5 25  1  6
  6 26  1  0
  8 27  1  0
 10 28  1  0
 13 29  1  0
 13 30  1  0
 14 31  1  0
 14 32  1  0
 15 33  1  0
 15 34  1  0
 16 35  1  0
 16 36  1  0
 17 37  1  0
 17 38  1  0
M  ISO  8  18  13  19  13  20  13  21  13  22  13  23  13  24  13  25  13
M  ISO  8  26  14  27  14  28  14  29  13  30  13  31  13  32  13  33  13
M  ISO  5  34  13  35  13  36  13  37  13  38  13
M  END
>  <minimizedAffinity>  (1) 
-4.62162924

>  <minimizedRMSD>  (1) 
0.951720178

$$$$
