
     RDKit          3D

 37 39  0  0  1  0  0  0  0  0999 V2000
   38.4670   26.9090   43.0080 C   0  0  2  0  0  0  0  0  0  0  0  0
   39.6880   27.2220   43.7950 C   0  0  0  0  0  0  0  0  0  0  0  0
   40.3880   25.8750   43.9180 C   0  0  0  0  0  0  0  0  0  0  0  0
   39.6710   24.9600   42.9620 C   0  0  0  0  0  0  0  0  0  0  0  0
   39.0270   25.9560   41.9690 C   0  0  1  0  0  0  0  0  0  0  0  0
   38.4370   29.3200   42.1210 C   0  0  0  0  0  0  0  0  0  0  0  0
   37.8310   28.0720   42.3680 C   0  0  0  0  0  0  0  0  0  0  0  0
   36.5060   27.9090   41.9580 C   0  0  0  0  0  0  0  0  0  0  0  0
   35.8730   28.9310   41.3550 N   0  0  0  0  0  0  0  0  0  0  0  0
   36.4770   30.1380   41.1230 C   0  0  0  0  0  0  0  0  0  0  0  0
   37.7760   30.3070   41.5210 N   0  0  0  0  0  0  0  0  0  0  0  0
   38.0790   25.2990   41.1420 N   0  0  0  0  0  0  0  0  0  0  0  0
   37.2470   24.3050   41.7700 C   0  0  0  0  0  0  0  0  0  0  0  0
   36.3280   23.8150   40.6410 C   0  0  0  0  0  0  0  0  0  0  0  0
   37.0530   23.0730   39.6490 N   0  0  0  0  0  0  0  0  0  0  0  0
   38.4730   23.3300   39.7790 C   0  0  0  0  0  0  0  0  0  0  0  0
   38.7180   24.8010   39.9570 C   0  0  0  0  0  0  0  0  0  0  0  0
   37.6574   26.5115   43.6377 H   0  0  0  0  0  0  0  0  0  0  0  0
   40.3222   27.9475   43.2645 H   0  0  0  0  0  0  0  0  0  0  0  0
   39.4633   27.6782   44.7704 H   0  0  0  0  0  0  0  0  0  0  0  0
   41.4485   25.9662   43.6405 H   0  0  0  0  0  0  0  0  0  0  0  0
   40.3581   25.4924   44.9489 H   0  0  0  0  0  0  0  0  0  0  0  0
   40.3755   24.2876   42.4506 H   0  0  0  0  0  0  0  0  0  0  0  0
   38.9440   24.2953   43.4515 H   0  0  0  0  0  0  0  0  0  0  0  0
   39.6588   26.4431   41.2117 H   0  0  0  0  0  0  0  0  0  0  0  0
   39.4799   29.4820   42.4311 H   0  0  0  0  0  0  0  0  0  0  0  0
   35.9855   26.9547   42.1265 H   0  0  0  0  0  0  0  0  0  0  0  0
   35.9303   30.9540   40.6276 H   0  0  0  0  0  0  0  0  0  0  0  0
   37.8565   23.4782   42.1635 H   0  0  0  0  0  0  0  0  0  0  0  0
   36.6852   24.7058   42.6266 H   0  0  0  0  0  0  0  0  0  0  0  0
   35.5491   23.1682   41.0711 H   0  0  0  0  0  0  0  0  0  0  0  0
   35.8849   24.6959   40.1536 H   0  0  0  0  0  0  0  0  0  0  0  0
   36.7387   23.3598   38.7110 H   0  0  0  0  0  0  0  0  0  0  0  0
   38.8621   22.7881   40.6536 H   0  0  0  0  0  0  0  0  0  0  0  0
   38.9853   22.9878   38.8677 H   0  0  0  0  0  0  0  0  0  0  0  0
   39.8012   24.9767   40.0338 H   0  0  0  0  0  0  0  0  0  0  0  0
   38.2973   25.3295   39.0888 H   0  0  0  0  0  0  0  0  0  0  0  0
  1  2  1  0
  2  3  1  0
  4  3  1  0
  5  4  1  0
  5  1  1  0
  6  7  2  0
  7  1  1  0
  8  7  1  0
  9  8  2  0
 10  9  1  0
 10 11  2  0
 11  6  1  0
 12 13  1  0
 12  5  1  0
 14 13  1  0
 15 16  1  0
 15 14  1  0
 16 17  1  0
 17 12  1  0
  1 18  1  1
  2 19  1  0
  2 20  1  0
  3 21  1  0
  3 22  1  0
  4 23  1  0
  4 24  1  0
  5 25  1  6
  6 26  1  0
  8 27  1  0
 10 28  1  0
 13 29  1  0
 13 30  1  0
 14 31  1  0
 14 32  1  0
 15 33  1  0
 16 34  1  0
 16 35  1  0
 17 36  1  0
 17 37  1  0
M  ISO  8  18  13  19  13  20  13  21  13  22  13  23  13  24  13  25  13
M  ISO  8  26  14  27  14  28  14  29  13  30  13  31  13  32  13  33   5
M  ISO  4  34  13  35  13  36  13  37  13
M  END
>  <minimizedAffinity>  (1) 
-4.52836704

>  <minimizedRMSD>  (1) 
0.813402414

$$$$
