
     RDKit          3D

 31 33  0  0  1  0  0  0  0  0999 V2000
   38.7550   27.2210   43.2510 C   0  0  2  0  0  0  0  0  0  0  0  0
   40.1700   27.5630   43.4910 C   0  0  0  0  0  0  0  0  0  0  0  0
   40.7580   26.2220   43.9710 C   0  0  0  0  0  0  0  0  0  0  0  0
   39.8230   25.1600   43.4800 C   0  0  0  0  0  0  0  0  0  0  0  0
   38.8460   25.8770   42.5720 C   0  0  2  0  0  0  0  0  0  0  0  0
   38.4170   29.4150   42.1170 C   0  0  0  0  0  0  0  0  0  0  0  0
   37.9500   28.1540   42.5080 C   0  0  0  0  0  0  0  0  0  0  0  0
   36.6420   27.8060   42.1630 C   0  0  0  0  0  0  0  0  0  0  0  0
   35.8860   28.7060   41.4650 N   0  0  0  0  0  0  0  0  0  0  0  0
   36.3740   29.9200   41.1030 C   0  0  0  0  0  0  0  0  0  0  0  0
   37.6560   30.2760   41.4340 N   0  0  0  0  0  0  0  0  0  0  0  0
   39.1940   25.8820   41.1650 C   0  0  0  0  0  0  0  0  0  0  0  0
   38.3840   25.2530   40.2170 C   0  0  0  0  0  0  0  0  0  0  0  0
   38.7010   25.2480   38.8720 C   0  0  0  0  0  0  0  0  0  0  0  0
   39.8210   25.8570   38.3970 N   0  0  0  0  0  0  0  0  0  0  0  0
   40.5850   26.4600   39.3460 C   0  0  0  0  0  0  0  0  0  0  0  0
   40.2810   26.4670   40.6630 N   0  0  0  0  0  0  0  0  0  0  0  0
   38.2087   27.2338   44.2057 H   0  0  0  0  0  0  0  0  0  0  0  0
   40.6593   27.9039   42.5667 H   0  0  0  0  0  0  0  0  0  0  0  0
   40.3077   28.3852   44.2087 H   0  0  0  0  0  0  0  0  0  0  0  0
   41.7622   26.0721   43.5479 H   0  0  0  0  0  0  0  0  0  0  0  0
   40.8574   26.1954   45.0662 H   0  0  0  0  0  0  0  0  0  0  0  0
   40.3743   24.3895   42.9211 H   0  0  0  0  0  0  0  0  0  0  0  0
   39.3126   24.6476   44.3088 H   0  0  0  0  0  0  0  0  0  0  0  0
   37.8697   25.3789   42.4785 H   0  0  0  0  0  0  0  0  0  0  0  0
   39.4443   29.7067   42.3807 H   0  0  0  0  0  0  0  0  0  0  0  0
   36.2285   26.8272   42.4473 H   0  0  0  0  0  0  0  0  0  0  0  0
   35.7384   30.6208   40.5419 H   0  0  0  0  0  0  0  0  0  0  0  0
   37.4664   24.7465   40.5509 H   0  0  0  0  0  0  0  0  0  0  0  0
   38.0294   24.7376   38.1660 H   0  0  0  0  0  0  0  0  0  0  0  0
   41.5037   26.9718   39.0235 H   0  0  0  0  0  0  0  0  0  0  0  0
  1  2  1  0
  2  3  1  0
  4  3  1  0
  5  1  1  0
  5  4  1  0
  6  7  2  0
  7  1  1  0
  8  7  1  0
  9  8  2  0
 10 11  2  0
 10  9  1  0
 11  6  1  0
 12  5  1  0
 13 12  2  0
 14 13  1  0
 15 14  2  0
 15 16  1  0
 16 17  2  0
 17 12  1  0
  1 18  1  1
  2 19  1  0
  2 20  1  0
  3 21  1  0
  3 22  1  0
  4 23  1  0
  4 24  1  0
  5 25  1  6
  6 26  1  0
  8 27  1  0
 10 28  1  0
 13 29  1  0
 14 30  1  0
 16 31  1  0
M  ISO  8  18  13  19  13  20  13  21  13  22  13  23  13  24  13  25  13
M  ISO  6  26  14  27  14  28  14  29  14  30  14  31  14
M  END
>  <minimizedAffinity>  (1) 
-4.20151472

>  <minimizedRMSD>  (1) 
0.642801821

$$$$
