
     RDKit          3D

 32 34  0  0  1  0  0  0  0  0999 V2000
   38.4080   26.9970   43.1620 C   0  0  2  0  0  0  0  0  0  0  0  0
   39.7560   27.2660   43.6570 C   0  0  0  0  0  0  0  0  0  0  0  0
   40.3770   25.8830   43.8460 C   0  0  0  0  0  0  0  0  0  0  0  0
   39.4560   24.9120   43.1510 C   0  0  0  0  0  0  0  0  0  0  0  0
   38.5820   25.7850   42.2730 C   0  0  2  0  0  0  0  0  0  0  0  0
   38.3110   29.3510   42.2020 C   0  0  0  0  0  0  0  0  0  0  0  0
   37.7280   28.0800   42.4490 C   0  0  0  0  0  0  0  0  0  0  0  0
   36.4330   27.8280   41.9800 C   0  0  0  0  0  0  0  0  0  0  0  0
   35.7980   28.8320   41.3070 N   0  0  0  0  0  0  0  0  0  0  0  0
   36.3740   30.0510   41.0790 C   0  0  0  0  0  0  0  0  0  0  0  0
   37.6420   30.2940   41.5380 N   0  0  0  0  0  0  0  0  0  0  0  0
   39.1330   26.0480   40.9540 C   0  0  0  0  0  0  0  0  0  0  0  0
   40.4510   26.4510   40.7570 C   0  0  0  0  0  0  0  0  0  0  0  0
   41.0300   26.7150   39.5460 C   0  0  0  0  0  0  0  0  0  0  0  0
   40.2470   26.5730   38.4080 C   0  0  0  0  0  0  0  0  0  0  0  0
   38.9370   26.1720   38.6010 C   0  0  0  0  0  0  0  0  0  0  0  0
   38.4210   25.9260   39.8210 N   0  0  0  0  0  0  0  0  0  0  0  0
   37.7377   26.8534   44.0223 H   0  0  0  0  0  0  0  0  0  0  0  0
   40.3294   27.8529   42.9243 H   0  0  0  0  0  0  0  0  0  0  0  0
   39.7507   27.8529   44.5874 H   0  0  0  0  0  0  0  0  0  0  0  0
   41.3790   25.8494   43.3933 H   0  0  0  0  0  0  0  0  0  0  0  0
   40.4908   25.6360   44.9119 H   0  0  0  0  0  0  0  0  0  0  0  0
   40.0304   24.1985   42.5419 H   0  0  0  0  0  0  0  0  0  0  0  0
   38.8693   24.3094   43.8600 H   0  0  0  0  0  0  0  0  0  0  0  0
   37.6275   25.3242   41.9786 H   0  0  0  0  0  0  0  0  0  0  0  0
   39.3286   29.5605   42.5634 H   0  0  0  0  0  0  0  0  0  0  0  0
   35.9450   26.8565   42.1476 H   0  0  0  0  0  0  0  0  0  0  0  0
   35.8238   30.8304   40.5314 H   0  0  0  0  0  0  0  0  0  0  0  0
   41.0806   26.5670   41.6515 H   0  0  0  0  0  0  0  0  0  0  0  0
   42.0817   27.0296   39.4760 H   0  0  0  0  0  0  0  0  0  0  0  0
   40.6484   26.7696   37.4029 H   0  0  0  0  0  0  0  0  0  0  0  0
   38.2890   26.0488   37.7207 H   0  0  0  0  0  0  0  0  0  0  0  0
  1  2  1  0
  2  3  1  0
  4  3  1  0
  5  4  1  0
  5  1  1  0
  6  7  2  0
  7  1  1  0
  8  7  1  0
  9  8  2  0
 10  9  1  0
 10 11  2  0
 11  6  1  0
 12  5  1  0
 13 12  2  0
 14 13  1  0
 15 16  1  0
 15 14  2  0
 16 17  2  0
 17 12  1  0
  1 18  1  1
  2 19  1  0
  2 20  1  0
  3 21  1  0
  3 22  1  0
  4 23  1  0
  4 24  1  0
  5 25  1  6
  6 26  1  0
  8 27  1  0
 10 28  1  0
 13 29  1  0
 14 30  1  0
 15 31  1  0
 16 32  1  0
M  ISO  8  18  13  19  13  20  13  21  13  22  13  23  13  24  13  25  13
M  ISO  7  26  14  27  14  28  14  29  14  30  14  31  14  32  14
M  END
>  <minimizedAffinity>  (1) 
-4.17742252

>  <minimizedRMSD>  (1) 
0.715377867

$$$$
