
     RDKit          3D

 26 27  0  0  1  0  0  0  0  0999 V2000
   38.5420   27.0720   43.1670 C   0  0  2  0  0  0  0  0  0  0  0  0
   39.9230   27.3960   43.5630 C   0  0  0  0  0  0  0  0  0  0  0  0
   40.5230   26.0290   43.8980 C   0  0  0  0  0  0  0  0  0  0  0  0
   39.6340   25.0160   43.2240 C   0  0  0  0  0  0  0  0  0  0  0  0
   38.7350   25.8310   42.2990 C   0  0  2  0  0  0  0  0  0  0  0  0
   38.2400   29.4150   42.2900 C   0  0  0  0  0  0  0  0  0  0  0  0
   37.7980   28.0990   42.4640 C   0  0  0  0  0  0  0  0  0  0  0  0
   36.5560   27.7470   41.9230 C   0  0  0  0  0  0  0  0  0  0  0  0
   35.8380   28.7010   41.2550 N   0  0  0  0  0  0  0  0  0  0  0  0
   36.2930   29.9800   41.1010 C   0  0  0  0  0  0  0  0  0  0  0  0
   37.5090   30.3270   41.6290 N   0  0  0  0  0  0  0  0  0  0  0  0
   39.4880   26.1050   41.0460 C   0  0  0  0  0  0  0  0  0  0  0  0
   37.9143   26.9405   44.0607 H   0  0  0  0  0  0  0  0  0  0  0  0
   40.4684   27.8737   42.7357 H   0  0  0  0  0  0  0  0  0  0  0  0
   39.9750   28.1061   44.4015 H   0  0  0  0  0  0  0  0  0  0  0  0
   41.5499   25.9558   43.5106 H   0  0  0  0  0  0  0  0  0  0  0  0
   40.5748   25.8640   44.9843 H   0  0  0  0  0  0  0  0  0  0  0  0
   40.2348   24.2988   42.6455 H   0  0  0  0  0  0  0  0  0  0  0  0
   39.0539   24.4280   43.9504 H   0  0  0  0  0  0  0  0  0  0  0  0
   37.7868   25.3780   41.9738 H   0  0  0  0  0  0  0  0  0  0  0  0
   39.2141   29.7110   42.7066 H   0  0  0  0  0  0  0  0  0  0  0  0
   36.1653   26.7246   42.0326 H   0  0  0  0  0  0  0  0  0  0  0  0
   35.6897   30.7232   40.5590 H   0  0  0  0  0  0  0  0  0  0  0  0
   40.4947   26.4713   41.2958 H   0  0  0  0  0  0  0  0  0  0  0  0
   39.5702   25.1792   40.4577 H   0  0  0  0  0  0  0  0  0  0  0  0
   38.9560   26.8672   40.4577 H   0  0  0  0  0  0  0  0  0  0  0  0
  1  2  1  0
  2  3  1  0
  4  3  1  0
  5  1  1  0
  5  4  1  0
  6  7  2  0
  7  1  1  0
  8  7  1  0
  9  8  2  0
 10  9  1  0
 10 11  2  0
 11  6  1  0
 12  5  1  0
  1 13  1  1
  2 14  1  0
  2 15  1  0
  3 16  1  0
  3 17  1  0
  4 18  1  0
  4 19  1  0
  5 20  1  6
  6 21  1  0
  8 22  1  0
 10 23  1  0
 12 24  1  0
 12 25  1  0
 12 26  1  0
M  ISO  8  13  13  14  13  15  13  16  13  17  13  18  13  19  13  20  13
M  ISO  6  21  14  22  14  23  14  24   8  25   8  26   8
M  END
>  <minimizedAffinity>  (1) 
-3.89270186

>  <minimizedRMSD>  (1) 
0.0752296299

$$$$
