
     RDKit          3D

 25 26  0  0  1  0  0  0  0  0999 V2000
   38.5810   27.1050   43.1510 C   0  0  2  0  0  0  0  0  0  0  0  0
   39.9810   27.4420   43.5170 C   0  0  0  0  0  0  0  0  0  0  0  0
   40.5370   26.0740   43.9290 C   0  0  0  0  0  0  0  0  0  0  0  0
   39.6650   25.0490   43.2530 C   0  0  0  0  0  0  0  0  0  0  0  0
   38.7980   25.8600   42.2800 C   0  0  2  0  0  0  0  0  0  0  0  0
   38.2420   29.4240   42.2900 C   0  0  0  0  0  0  0  0  0  0  0  0
   37.8050   28.0940   42.4440 C   0  0  0  0  0  0  0  0  0  0  0  0
   36.5740   27.7360   41.9010 C   0  0  0  0  0  0  0  0  0  0  0  0
   35.8480   28.6920   41.2480 N   0  0  0  0  0  0  0  0  0  0  0  0
   36.2880   29.9780   41.1110 C   0  0  0  0  0  0  0  0  0  0  0  0
   37.4990   30.3380   41.6410 N   0  0  0  0  0  0  0  0  0  0  0  0
   39.5750   26.1120   41.1210 N   0  0  0  0  0  0  0  0  0  0  0  0
   37.9704   26.9915   44.0589 H   0  0  0  0  0  0  0  0  0  0  0  0
   40.5307   27.8554   42.6586 H   0  0  0  0  0  0  0  0  0  0  0  0
   40.0635   28.2100   44.3002 H   0  0  0  0  0  0  0  0  0  0  0  0
   41.5796   25.9689   43.5943 H   0  0  0  0  0  0  0  0  0  0  0  0
   40.5305   25.9497   45.0219 H   0  0  0  0  0  0  0  0  0  0  0  0
   40.2782   24.3159   42.7083 H   0  0  0  0  0  0  0  0  0  0  0  0
   39.0610   24.4757   43.9717 H   0  0  0  0  0  0  0  0  0  0  0  0
   37.8620   25.4162   41.9100 H   0  0  0  0  0  0  0  0  0  0  0  0
   39.2138   29.7222   42.7104 H   0  0  0  0  0  0  0  0  0  0  0  0
   36.1947   26.7078   41.9954 H   0  0  0  0  0  0  0  0  0  0  0  0
   35.6741   30.7195   40.5787 H   0  0  0  0  0  0  0  0  0  0  0  0
   40.5182   26.4179   41.3998 H   0  0  0  0  0  0  0  0  0  0  0  0
   39.6451   25.2506   40.5606 H   0  0  0  0  0  0  0  0  0  0  0  0
  1  2  1  0
  2  3  1  0
  4  3  1  0
  5  1  1  0
  5  4  1  0
  6  7  2  0
  7  1  1  0
  8  7  1  0
  9  8  2  0
 10  9  1  0
 10 11  2  0
 11  6  1  0
 12  5  1  0
  1 13  1  1
  2 14  1  0
  2 15  1  0
  3 16  1  0
  3 17  1  0
  4 18  1  0
  4 19  1  0
  5 20  1  6
  6 21  1  0
  8 22  1  0
 10 23  1  0
 12 24  1  0
 12 25  1  0
M  ISO  8  13  13  14  13  15  13  16  13  17  13  18  13  19  13  20  13
M  ISO  5  21  14  22  14  23  14  24   5  25   5
M  END
>  <minimizedAffinity>  (1) 
-3.83410168

>  <minimizedRMSD>  (1) 
0.0869289786

$$$$
