
     RDKit          3D

 39 43  0  0  1  0  0  0  0  0999 V2000
   37.8800   27.3790   42.7350 C   0  0  2  0  0  0  0  0  0  0  0  0
   38.9080   27.7230   43.7230 C   0  0  0  0  0  0  0  0  0  0  0  0
   39.7130   26.4480   43.9160 C   0  0  0  0  0  0  0  0  0  0  0  0
   39.3060   25.5360   42.8180 C   0  0  0  0  0  0  0  0  0  0  0  0
   38.5640   26.3970   41.8030 C   0  0  1  0  0  0  0  0  0  0  0  0
   37.6330   25.4050   41.1940 C   0  0  0  0  0  0  0  0  0  0  0  0
   36.9340   24.5200   41.9120 N   0  0  0  0  0  0  0  0  0  0  0  0
   36.2050   23.8160   41.0750 O   0  0  0  0  0  0  0  0  0  0  0  0
   36.4550   24.2690   39.8380 C   0  0  0  0  0  0  0  0  0  0  0  0
   37.3380   25.2560   39.8630 N   0  0  0  0  0  0  0  0  0  0  0  0
   35.8280   23.7320   38.6500 N   0  0  0  0  0  0  0  0  0  0  0  0
   36.3450   23.8120   37.4050 C   0  0  0  0  0  0  0  0  0  0  0  0
   35.4750   23.1980   36.5630 N   0  0  0  0  0  0  0  0  0  0  0  0
   34.4440   22.7550   37.3090 C   0  0  0  0  0  0  0  0  0  0  0  0
   33.2650   22.0600   37.0100 C   0  0  0  0  0  0  0  0  0  0  0  0
   32.4340   21.7670   38.0090 N   0  0  0  0  0  0  0  0  0  0  0  0
   32.6500   22.0960   39.2980 C   0  0  0  0  0  0  0  0  0  0  0  0
   33.7740   22.7640   39.6200 N   0  0  0  0  0  0  0  0  0  0  0  0
   34.6470   23.0830   38.6350 C   0  0  0  0  0  0  0  0  0  0  0  0
   37.8720   29.7710   41.8640 C   0  0  0  0  0  0  0  0  0  0  0  0
   37.2790   28.4930   42.0180 C   0  0  0  0  0  0  0  0  0  0  0  0
   36.0370   28.2720   41.4400 C   0  0  0  0  0  0  0  0  0  0  0  0
   35.4370   29.3040   40.7450 N   0  0  0  0  0  0  0  0  0  0  0  0
   36.0370   30.5330   40.6150 C   0  0  0  0  0  0  0  0  0  0  0  0
   37.2750   30.7520   41.1900 N   0  0  0  0  0  0  0  0  0  0  0  0
   37.0029   26.9600   43.2499 H   0  0  0  0  0  0  0  0  0  0  0  0
   39.5506   28.5323   43.3461 H   0  0  0  0  0  0  0  0  0  0  0  0
   38.4700   28.0811   44.6664 H   0  0  0  0  0  0  0  0  0  0  0  0
   40.7900   26.6632   43.8545 H   0  0  0  0  0  0  0  0  0  0  0  0
   39.5255   25.9990   44.9025 H   0  0  0  0  0  0  0  0  0  0  0  0
   40.1922   25.0783   42.3543 H   0  0  0  0  0  0  0  0  0  0  0  0
   38.6711   24.7186   43.1905 H   0  0  0  0  0  0  0  0  0  0  0  0
   39.1023   26.9303   41.0056 H   0  0  0  0  0  0  0  0  0  0  0  0
   37.2965   24.2874   37.1246 H   0  0  0  0  0  0  0  0  0  0  0  0
   33.0314   21.7638   35.9767 H   0  0  0  0  0  0  0  0  0  0  0  0
   31.9200   21.8233   40.0744 H   0  0  0  0  0  0  0  0  0  0  0  0
   38.8572   29.9586   42.3158 H   0  0  0  0  0  0  0  0  0  0  0  0
   35.5404   27.2949   41.5334 H   0  0  0  0  0  0  0  0  0  0  0  0
   35.5356   31.3376   40.0570 H   0  0  0  0  0  0  0  0  0  0  0  0
  1  2  1  0
  2  3  1  0
  4  3  1  0
  5  1  1  0
  5  4  1  0
  6  5  1  0
  6  7  2  0
  8  7  1  0
  9 10  2  0
  9  8  1  0
 10  6  1  0
 11  9  1  0
 12 11  1  0
 13 14  1  0
 13 12  2  0
 14 19  2  0
 15 14  1  0
 15 16  2  0
 16 17  1  0
 17 18  2  0
 19 11  1  0
 19 18  1  0
 20 21  2  0
 21  1  1  0
 22 21  1  0
 23 22  2  0
 24 23  1  0
 24 25  2  0
 25 20  1  0
  1 26  1  1
  2 27  1  0
  2 28  1  0
  3 29  1  0
  3 30  1  0
  4 31  1  0
  4 32  1  0
  5 33  1  6
 12 34  1  0
 15 35  1  0
 17 36  1  0
 20 37  1  0
 22 38  1  0
 24 39  1  0
M  ISO  8  26  13  27  13  28  13  29  13  30  13  31  13  32  13  33  13
M  ISO  6  34  14  35  14  36  14  37  14  38  14  39  14
M  END
>  <minimizedAffinity>  (1) 
-5.50956631

>  <minimizedRMSD>  (1) 
0.625605881

$$$$
