
     RDKit          3D

 40 43  0  0  1  0  0  0  0  0999 V2000
   37.9200   27.3550   42.7160 C   0  0  2  0  0  0  0  0  0  0  0  0
   38.9960   27.6980   43.6620 C   0  0  0  0  0  0  0  0  0  0  0  0
   39.7510   26.4040   43.8790 C   0  0  0  0  0  0  0  0  0  0  0  0
   39.3280   25.4850   42.7780 C   0  0  0  0  0  0  0  0  0  0  0  0
   38.5650   26.3580   41.7740 C   0  0  1  0  0  0  0  0  0  0  0  0
   37.6040   25.3900   41.1750 C   0  0  0  0  0  0  0  0  0  0  0  0
   36.8330   24.5930   41.9480 N   0  0  0  0  0  0  0  0  0  0  0  0
   36.1100   23.8600   41.1000 O   0  0  0  0  0  0  0  0  0  0  0  0
   36.4380   24.2090   39.8590 C   0  0  0  0  0  0  0  0  0  0  0  0
   37.3690   25.1630   39.8610 N   0  0  0  0  0  0  0  0  0  0  0  0
   35.6410   23.4010   39.0080 N   0  0  0  0  0  0  0  0  0  0  0  0
   34.6920   23.9430   38.0240 C   0  0  0  0  0  0  0  0  0  0  0  0
   33.4310   23.2400   38.5070 C   0  0  0  0  0  0  0  0  0  0  0  0
   33.9310   21.9130   39.0920 C   0  0  0  0  0  0  0  0  0  0  0  0
   35.4240   21.9990   38.7500 C   0  0  0  0  0  0  0  0  0  0  0  0
   37.8950   29.7570   41.8760 C   0  0  0  0  0  0  0  0  0  0  0  0
   37.3230   28.4840   42.0240 C   0  0  0  0  0  0  0  0  0  0  0  0
   36.0660   28.2590   41.4480 C   0  0  0  0  0  0  0  0  0  0  0  0
   35.4610   29.2960   40.7690 N   0  0  0  0  0  0  0  0  0  0  0  0
   36.0600   30.5270   40.6510 C   0  0  0  0  0  0  0  0  0  0  0  0
   37.2930   30.7490   41.2150 N   0  0  0  0  0  0  0  0  0  0  0  0
   37.0498   26.9435   43.2484 H   0  0  0  0  0  0  0  0  0  0  0  0
   39.6579   28.4651   43.2337 H   0  0  0  0  0  0  0  0  0  0  0  0
   38.6039   28.1115   44.6029 H   0  0  0  0  0  0  0  0  0  0  0  0
   40.8354   26.5825   43.8313 H   0  0  0  0  0  0  0  0  0  0  0  0
   39.5324   25.9731   44.8672 H   0  0  0  0  0  0  0  0  0  0  0  0
   40.2079   25.0306   42.2992 H   0  0  0  0  0  0  0  0  0  0  0  0
   38.7031   24.6622   43.1555 H   0  0  0  0  0  0  0  0  0  0  0  0
   39.0964   26.8784   40.9636 H   0  0  0  0  0  0  0  0  0  0  0  0
   34.9558   23.6582   36.9948 H   0  0  0  0  0  0  0  0  0  0  0  0
   34.6348   25.0403   37.9729 H   0  0  0  0  0  0  0  0  0  0  0  0
   32.9235   23.8382   39.2781 H   0  0  0  0  0  0  0  0  0  0  0  0
   32.6994   23.0916   37.6991 H   0  0  0  0  0  0  0  0  0  0  0  0
   33.7660   21.8607   40.1783 H   0  0  0  0  0  0  0  0  0  0  0  0
   33.4226   21.0197   38.7001 H   0  0  0  0  0  0  0  0  0  0  0  0
   35.6210   21.7388   37.6995 H   0  0  0  0  0  0  0  0  0  0  0  0
   36.0752   21.3114   39.3096 H   0  0  0  0  0  0  0  0  0  0  0  0
   38.8818   29.9458   42.3238 H   0  0  0  0  0  0  0  0  0  0  0  0
   35.5735   27.2793   41.5351 H   0  0  0  0  0  0  0  0  0  0  0  0
   35.5520   31.3353   40.1046 H   0  0  0  0  0  0  0  0  0  0  0  0
  1  2  1  0
  2  3  1  0
  4  3  1  0
  5  1  1  0
  5  4  1  0
  6  5  1  0
  6  7  2  0
  8  7  1  0
  9 10  2  0
  9  8  1  0
 10  6  1  0
 11  9  1  0
 12 13  1  0
 12 11  1  0
 13 14  1  0
 15 11  1  0
 15 14  1  0
 16 17  2  0
 17  1  1  0
 18 17  1  0
 19 18  2  0
 20 19  1  0
 20 21  2  0
 21 16  1  0
  1 22  1  1
  2 23  1  0
  2 24  1  0
  3 25  1  0
  3 26  1  0
  4 27  1  0
  4 28  1  0
  5 29  1  6
 12 30  1  0
 12 31  1  0
 13 32  1  0
 13 33  1  0
 14 34  1  0
 14 35  1  0
 15 36  1  0
 15 37  1  0
 16 38  1  0
 18 39  1  0
 20 40  1  0
M  ISO  8  22  13  23  13  24  13  25  13  26  13  27  13  28  13  29  13
M  ISO  8  30  13  31  13  32  13  33  13  34  13  35  13  36  13  37  13
M  ISO  3  38  14  39  14  40  14
M  END
>  <minimizedAffinity>  (1) 
-5.31800032

>  <minimizedRMSD>  (1) 
0.59276104

$$$$
