
     RDKit          3D

 41 44  0  0  1  0  0  0  0  0999 V2000
   37.9980   27.3550   42.7310 C   0  0  2  0  0  0  0  0  0  0  0  0
   39.0720   27.6480   43.6910 C   0  0  0  0  0  0  0  0  0  0  0  0
   39.8060   26.3360   43.8680 C   0  0  0  0  0  0  0  0  0  0  0  0
   39.3030   25.4360   42.7910 C   0  0  0  0  0  0  0  0  0  0  0  0
   38.6080   26.3530   41.7800 C   0  0  1  0  0  0  0  0  0  0  0  0
   37.6080   25.4130   41.1790 C   0  0  0  0  0  0  0  0  0  0  0  0
   37.1580   24.3240   41.8270 N   0  0  0  0  0  0  0  0  0  0  0  0
   36.3080   23.7350   41.0000 O   0  0  0  0  0  0  0  0  0  0  0  0
   36.2380   24.4390   39.8820 C   0  0  0  0  0  0  0  0  0  0  0  0
   37.0400   25.5100   39.9420 N   0  0  0  0  0  0  0  0  0  0  0  0
   35.3340   23.8320   38.9720 N   0  0  0  0  0  0  0  0  0  0  0  0
   35.3830   24.1050   37.5330 C   0  0  0  0  0  0  0  0  0  0  0  0
   34.0810   24.7920   37.1350 C   0  0  0  0  0  0  0  0  0  0  0  0
   32.9930   24.1060   37.6690 O   0  0  0  0  0  0  0  0  0  0  0  0
   33.3040   22.8570   38.1600 C   0  0  0  0  0  0  0  0  0  0  0  0
   34.2710   22.8970   39.3410 C   0  0  0  0  0  0  0  0  0  0  0  0
   38.1150   29.7140   41.7890 C   0  0  0  0  0  0  0  0  0  0  0  0
   37.4330   28.5040   42.0340 C   0  0  0  0  0  0  0  0  0  0  0  0
   36.1300   28.3880   41.5760 C   0  0  0  0  0  0  0  0  0  0  0  0
   35.5690   29.4480   40.9130 N   0  0  0  0  0  0  0  0  0  0  0  0
   36.2560   30.6160   40.6890 C   0  0  0  0  0  0  0  0  0  0  0  0
   37.5450   30.7290   41.1410 N   0  0  0  0  0  0  0  0  0  0  0  0
   37.1170   26.9729   43.2674 H   0  0  0  0  0  0  0  0  0  0  0  0
   39.7479   28.4187   43.2920 H   0  0  0  0  0  0  0  0  0  0  0  0
   38.6812   28.0353   44.6435 H   0  0  0  0  0  0  0  0  0  0  0  0
   40.8905   26.4876   43.7641 H   0  0  0  0  0  0  0  0  0  0  0  0
   39.6311   25.9076   44.8659 H   0  0  0  0  0  0  0  0  0  0  0  0
   40.1388   24.9027   42.3146 H   0  0  0  0  0  0  0  0  0  0  0  0
   38.6176   24.6717   43.1860 H   0  0  0  0  0  0  0  0  0  0  0  0
   39.1650   26.8604   40.9785 H   0  0  0  0  0  0  0  0  0  0  0  0
   36.2354   24.7627   37.3074 H   0  0  0  0  0  0  0  0  0  0  0  0
   35.5052   23.1669   36.9717 H   0  0  0  0  0  0  0  0  0  0  0  0
   34.0830   25.8237   37.5166 H   0  0  0  0  0  0  0  0  0  0  0  0
   33.9987   24.7977   36.0381 H   0  0  0  0  0  0  0  0  0  0  0  0
   32.3741   22.3684   38.4863 H   0  0  0  0  0  0  0  0  0  0  0  0
   33.8008   22.3025   37.3502 H   0  0  0  0  0  0  0  0  0  0  0  0
   34.6905   21.8966   39.5235 H   0  0  0  0  0  0  0  0  0  0  0  0
   33.7621   23.2149   40.2629 H   0  0  0  0  0  0  0  0  0  0  0  0
   39.1503   29.8231   42.1442 H   0  0  0  0  0  0  0  0  0  0  0  0
   35.5575   27.4634   41.7414 H   0  0  0  0  0  0  0  0  0  0  0  0
   35.7780   31.4498   40.1539 H   0  0  0  0  0  0  0  0  0  0  0  0
  1  2  1  0
  2  3  1  0
  4  3  1  0
  5  1  1  0
  5  4  1  0
  6  5  1  0
  6  7  2  0
  8  7  1  0
  9 10  2  0
  9  8  1  0
 10  6  1  0
 11 16  1  0
 11  9  1  0
 12 11  1  0
 13 12  1  0
 13 14  1  0
 14 15  1  0
 15 16  1  0
 17 18  2  0
 18  1  1  0
 19 18  1  0
 20 19  2  0
 21 20  1  0
 21 22  2  0
 22 17  1  0
  1 23  1  1
  2 24  1  0
  2 25  1  0
  3 26  1  0
  3 27  1  0
  4 28  1  0
  4 29  1  0
  5 30  1  6
 12 31  1  0
 12 32  1  0
 13 33  1  0
 13 34  1  0
 15 35  1  0
 15 36  1  0
 16 37  1  0
 16 38  1  0
 17 39  1  0
 19 40  1  0
 21 41  1  0
M  ISO  8  23  13  24  13  25  13  26  13  27  13  28  13  29  13  30  13
M  ISO  8  31  13  32  13  33  13  34  13  35  13  36  13  37  13  38  13
M  ISO  3  39  14  40  14  41  14
M  END
>  <minimizedAffinity>  (1) 
-5.22723579

>  <minimizedRMSD>  (1) 
0.729046643

$$$$
