
     RDKit          3D

 34 37  0  0  1  0  0  0  0  0999 V2000
   37.9400   27.3640   42.7390 C   0  0  2  0  0  0  0  0  0  0  0  0
   39.0100   27.6530   43.7000 C   0  0  0  0  0  0  0  0  0  0  0  0
   39.7600   26.3440   43.8590 C   0  0  0  0  0  0  0  0  0  0  0  0
   39.2740   25.4490   42.7670 C   0  0  0  0  0  0  0  0  0  0  0  0
   38.5550   26.3660   41.7780 C   0  0  1  0  0  0  0  0  0  0  0  0
   37.5670   25.4310   41.1700 C   0  0  0  0  0  0  0  0  0  0  0  0
   36.8660   24.5440   41.9060 N   0  0  0  0  0  0  0  0  0  0  0  0
   36.0970   23.8770   41.0720 O   0  0  0  0  0  0  0  0  0  0  0  0
   36.3080   24.3270   39.8510 C   0  0  0  0  0  0  0  0  0  0  0  0
   37.2200   25.2980   39.8690 N   0  0  0  0  0  0  0  0  0  0  0  0
   35.5720   23.7360   38.7870 N   0  0  0  0  0  0  0  0  0  0  0  0
   35.7990   23.7020   37.4600 C   0  0  0  0  0  0  0  0  0  0  0  0
   34.7670   22.9980   36.9200 N   0  0  0  0  0  0  0  0  0  0  0  0
   33.9330   22.6180   37.9170 C   0  0  0  0  0  0  0  0  0  0  0  0
   34.4460   23.0860   39.0890 N   0  0  0  0  0  0  0  0  0  0  0  0
   37.9950   29.7700   41.9290 C   0  0  0  0  0  0  0  0  0  0  0  0
   37.3550   28.5070   42.0570 C   0  0  0  0  0  0  0  0  0  0  0  0
   36.0990   28.3300   41.4960 C   0  0  0  0  0  0  0  0  0  0  0  0
   35.5310   29.3980   40.8360 N   0  0  0  0  0  0  0  0  0  0  0  0
   36.1730   30.6090   40.7270 C   0  0  0  0  0  0  0  0  0  0  0  0
   37.4150   30.7810   41.2840 N   0  0  0  0  0  0  0  0  0  0  0  0
   37.0622   26.9749   43.2757 H   0  0  0  0  0  0  0  0  0  0  0  0
   39.6775   28.4361   43.3112 H   0  0  0  0  0  0  0  0  0  0  0  0
   38.6157   28.0220   44.6583 H   0  0  0  0  0  0  0  0  0  0  0  0
   40.8429   26.5109   43.7615 H   0  0  0  0  0  0  0  0  0  0  0  0
   39.5837   25.8993   44.8495 H   0  0  0  0  0  0  0  0  0  0  0  0
   40.1203   24.9444   42.2781 H   0  0  0  0  0  0  0  0  0  0  0  0
   38.6094   24.6608   43.1504 H   0  0  0  0  0  0  0  0  0  0  0  0
   39.1027   26.8870   40.9789 H   0  0  0  0  0  0  0  0  0  0  0  0
   36.6464   24.1518   36.9219 H   0  0  0  0  0  0  0  0  0  0  0  0
   33.0070   22.0356   37.8012 H   0  0  0  0  0  0  0  0  0  0  0  0
   38.9911   29.9156   42.3724 H   0  0  0  0  0  0  0  0  0  0  0  0
   35.5728   27.3673   41.5754 H   0  0  0  0  0  0  0  0  0  0  0  0
   35.6904   31.4407   40.1927 H   0  0  0  0  0  0  0  0  0  0  0  0
  1  2  1  0
  2  3  1  0
  4  3  1  0
  5  1  1  0
  5  4  1  0
  6  5  1  0
  6  7  2  0
  8  7  1  0
  9 10  2  0
  9  8  1  0
 10  6  1  0
 11 15  1  0
 11  9  1  0
 12 11  1  0
 13 12  2  0
 13 14  1  0
 14 15  2  0
 16 17  2  0
 17  1  1  0
 18 17  1  0
 19 18  2  0
 20 19  1  0
 20 21  2  0
 21 16  1  0
  1 22  1  1
  2 23  1  0
  2 24  1  0
  3 25  1  0
  3 26  1  0
  4 27  1  0
  4 28  1  0
  5 29  1  6
 12 30  1  0
 14 31  1  0
 16 32  1  0
 18 33  1  0
 20 34  1  0
M  ISO  8  22  13  23  13  24  13  25  13  26  13  27  13  28  13  29  13
M  ISO  5  30  14  31  14  32  14  33  14  34  14
M  END
>  <minimizedAffinity>  (1) 
-5.07764864

>  <minimizedRMSD>  (1) 
0.539932251

$$$$
