
     RDKit          3D

 35 38  0  0  1  0  0  0  0  0999 V2000
   37.9710   27.3680   42.7530 C   0  0  2  0  0  0  0  0  0  0  0  0
   39.0610   27.6540   43.6910 C   0  0  0  0  0  0  0  0  0  0  0  0
   39.7990   26.3360   43.8480 C   0  0  0  0  0  0  0  0  0  0  0  0
   39.3160   25.4530   42.7480 C   0  0  0  0  0  0  0  0  0  0  0  0
   38.5580   26.3640   41.7810 C   0  0  1  0  0  0  0  0  0  0  0  0
   38.0230   29.7740   41.9310 C   0  0  0  0  0  0  0  0  0  0  0  0
   37.3860   28.5120   42.0720 C   0  0  0  0  0  0  0  0  0  0  0  0
   36.1280   28.3440   41.5210 C   0  0  0  0  0  0  0  0  0  0  0  0
   35.5500   29.4080   40.8620 N   0  0  0  0  0  0  0  0  0  0  0  0
   36.1960   30.6190   40.7430 C   0  0  0  0  0  0  0  0  0  0  0  0
   37.4520   30.7900   41.2910 N   0  0  0  0  0  0  0  0  0  0  0  0
   37.5500   25.4290   41.2070 C   0  0  0  0  0  0  0  0  0  0  0  0
   36.8360   24.5760   41.9640 N   0  0  0  0  0  0  0  0  0  0  0  0
   36.0520   23.9020   41.1500 O   0  0  0  0  0  0  0  0  0  0  0  0
   36.2660   24.3170   39.9180 C   0  0  0  0  0  0  0  0  0  0  0  0
   37.1940   25.2700   39.9100 N   0  0  0  0  0  0  0  0  0  0  0  0
   35.5110   23.7240   38.7840 C   0  0  0  0  0  0  0  0  0  0  0  0
   34.5310   22.6220   39.0160 C   0  0  0  0  0  0  0  0  0  0  0  0
   35.8330   22.3180   38.3730 C   0  0  0  0  0  0  0  0  0  0  0  0
   37.1036   26.9877   43.3125 H   0  0  0  0  0  0  0  0  0  0  0  0
   39.7301   28.4257   43.2827 H   0  0  0  0  0  0  0  0  0  0  0  0
   38.6892   28.0370   44.6528 H   0  0  0  0  0  0  0  0  0  0  0  0
   40.8841   26.4942   43.7609 H   0  0  0  0  0  0  0  0  0  0  0  0
   39.6099   25.8866   44.8340 H   0  0  0  0  0  0  0  0  0  0  0  0
   40.1665   24.9770   42.2380 H   0  0  0  0  0  0  0  0  0  0  0  0
   38.6733   24.6463   43.1305 H   0  0  0  0  0  0  0  0  0  0  0  0
   39.0814   26.8805   40.9629 H   0  0  0  0  0  0  0  0  0  0  0  0
   39.0232   29.9155   42.3664 H   0  0  0  0  0  0  0  0  0  0  0  0
   35.6006   27.3825   41.6069 H   0  0  0  0  0  0  0  0  0  0  0  0
   35.7108   31.4506   40.2109 H   0  0  0  0  0  0  0  0  0  0  0  0
   35.4600   24.7049   38.2887 H   0  0  0  0  0  0  0  0  0  0  0  0
   34.3300   22.2731   40.0397 H   0  0  0  0  0  0  0  0  0  0  0  0
   33.4772   22.4535   38.7495 H   0  0  0  0  0  0  0  0  0  0  0  0
   35.8706   22.0519   37.3063 H   0  0  0  0  0  0  0  0  0  0  0  0
   36.6562   21.6175   38.5770 H   0  0  0  0  0  0  0  0  0  0  0  0
  1  2  1  0
  2  3  1  0
  4  3  1  0
  5  4  1  0
  5  1  1  0
  6  7  2  0
  7  1  1  0
  8  7  1  0
  9  8  2  0
 10  9  1  0
 10 11  2  0
 11  6  1  0
 12  5  1  0
 12 13  2  0
 14 13  1  0
 15 14  1  0
 16 15  2  0
 16 12  1  0
 17 18  1  0
 17 15  1  0
 19 17  1  0
 19 18  1  0
  1 20  1  1
  2 21  1  0
  2 22  1  0
  3 23  1  0
  3 24  1  0
  4 25  1  0
  4 26  1  0
  5 27  1  6
  6 28  1  0
  8 29  1  0
 10 30  1  0
 17 31  1  0
 18 32  1  0
 18 33  1  0
 19 34  1  0
 19 35  1  0
M  ISO  8  20  13  21  13  22  13  23  13  24  13  25  13  26  13  27  13
M  ISO  8  28  14  29  14  30  14  31  13  32  13  33  13  34  13  35  13
M  END
>  <minimizedAffinity>  (1) 
-4.85155153

>  <minimizedRMSD>  (1) 
0.594911158

$$$$
