
     RDKit          3D

 35 38  0  0  1  0  0  0  0  0999 V2000
   37.9440   27.3740   42.7310 C   0  0  2  0  0  0  0  0  0  0  0  0
   39.0390   27.6780   43.6600 C   0  0  0  0  0  0  0  0  0  0  0  0
   39.7510   26.3550   43.8670 C   0  0  0  0  0  0  0  0  0  0  0  0
   39.3000   25.4700   42.7460 C   0  0  0  0  0  0  0  0  0  0  0  0
   38.5580   26.3770   41.7630 C   0  0  1  0  0  0  0  0  0  0  0  0
   37.9720   29.7770   41.9070 C   0  0  0  0  0  0  0  0  0  0  0  0
   37.3510   28.5090   42.0450 C   0  0  0  0  0  0  0  0  0  0  0  0
   36.0980   28.3290   41.4870 C   0  0  0  0  0  0  0  0  0  0  0  0
   35.5190   29.3920   40.8240 N   0  0  0  0  0  0  0  0  0  0  0  0
   36.1460   30.6050   40.7090 C   0  0  0  0  0  0  0  0  0  0  0  0
   37.3960   30.7900   41.2650 N   0  0  0  0  0  0  0  0  0  0  0  0
   37.5670   25.4340   41.1730 C   0  0  0  0  0  0  0  0  0  0  0  0
   36.8730   24.5480   41.9130 N   0  0  0  0  0  0  0  0  0  0  0  0
   36.1010   23.8760   41.0870 O   0  0  0  0  0  0  0  0  0  0  0  0
   36.3030   24.3220   39.8630 C   0  0  0  0  0  0  0  0  0  0  0  0
   37.2100   25.2930   39.8750 N   0  0  0  0  0  0  0  0  0  0  0  0
   35.6120   23.8000   38.6910 C   0  0  0  0  0  0  0  0  0  0  0  0
   36.0890   23.6460   37.4130 C   0  0  0  0  0  0  0  0  0  0  0  0
   35.1310   23.1230   36.6010 N   0  0  0  0  0  0  0  0  0  0  0  0
   34.0310   22.9430   37.3820 C   0  0  0  0  0  0  0  0  0  0  0  0
   34.3460   23.3510   38.6100 N   0  0  0  0  0  0  0  0  0  0  0  0
   37.0778   26.9863   43.2872 H   0  0  0  0  0  0  0  0  0  0  0  0
   39.7222   28.4214   43.2235 H   0  0  0  0  0  0  0  0  0  0  0  0
   38.6742   28.1053   44.6057 H   0  0  0  0  0  0  0  0  0  0  0  0
   40.8412   26.4965   43.8287 H   0  0  0  0  0  0  0  0  0  0  0  0
   39.5157   25.9175   44.8484 H   0  0  0  0  0  0  0  0  0  0  0  0
   40.1669   25.0034   42.2553 H   0  0  0  0  0  0  0  0  0  0  0  0
   38.6539   24.6575   43.1099 H   0  0  0  0  0  0  0  0  0  0  0  0
   39.0923   26.8980   40.9548 H   0  0  0  0  0  0  0  0  0  0  0  0
   38.9683   29.9285   42.3479 H   0  0  0  0  0  0  0  0  0  0  0  0
   35.5768   27.3639   41.5696 H   0  0  0  0  0  0  0  0  0  0  0  0
   35.6538   31.4306   40.1741 H   0  0  0  0  0  0  0  0  0  0  0  0
   37.1069   23.9095   37.0897 H   0  0  0  0  0  0  0  0  0  0  0  0
   33.0615   22.5360   37.0589 H   0  0  0  0  0  0  0  0  0  0  0  0
   33.6945   23.3257   39.4074 H   0  0  0  0  0  0  0  0  0  0  0  0
  1  2  1  0
  2  3  1  0
  4  3  1  0
  5  1  1  0
  5  4  1  0
  6  7  2  0
  7  1  1  0
  8  7  1  0
  9  8  2  0
 10  9  1  0
 10 11  2  0
 11  6  1  0
 12  5  1  0
 12 13  2  0
 14 13  1  0
 15 16  2  0
 15 14  1  0
 16 12  1  0
 17 15  1  0
 18 17  2  0
 19 20  2  0
 19 18  1  0
 20 21  1  0
 21 17  1  0
  1 22  1  1
  2 23  1  0
  2 24  1  0
  3 25  1  0
  3 26  1  0
  4 27  1  0
  4 28  1  0
  5 29  1  6
  6 30  1  0
  8 31  1  0
 10 32  1  0
 18 33  1  0
 20 34  1  0
 21 35  1  0
M  ISO  8  22  13  23  13  24  13  25  13  26  13  27  13  28  13  29  13
M  ISO  6  30  14  31  14  32  14  33  14  34  14  35   9
M  END
>  <minimizedAffinity>  (1) 
-4.78841352

>  <minimizedRMSD>  (1) 
0.579205513

$$$$
