
     RDKit          3D

 31 33  0  0  1  0  0  0  0  0999 V2000
   37.9610   27.3690   42.7430 C   0  0  2  0  0  0  0  0  0  0  0  0
   39.0440   27.6480   43.6930 C   0  0  0  0  0  0  0  0  0  0  0  0
   39.7680   26.3270   43.8620 C   0  0  0  0  0  0  0  0  0  0  0  0
   39.3060   25.4510   42.7390 C   0  0  0  0  0  0  0  0  0  0  0  0
   38.5630   26.3710   41.7690 C   0  0  1  0  0  0  0  0  0  0  0  0
   38.0310   29.7730   41.9280 C   0  0  0  0  0  0  0  0  0  0  0  0
   37.3780   28.5170   42.0670 C   0  0  0  0  0  0  0  0  0  0  0  0
   36.1140   28.3550   41.5230 C   0  0  0  0  0  0  0  0  0  0  0  0
   35.5470   29.4240   40.8700 N   0  0  0  0  0  0  0  0  0  0  0  0
   36.1990   30.6320   40.7480 C   0  0  0  0  0  0  0  0  0  0  0  0
   37.4510   30.7870   41.2880 N   0  0  0  0  0  0  0  0  0  0  0  0
   37.5590   25.4390   41.1780 C   0  0  0  0  0  0  0  0  0  0  0  0
   36.8940   24.5270   41.9100 N   0  0  0  0  0  0  0  0  0  0  0  0
   36.1000   23.8760   41.0860 O   0  0  0  0  0  0  0  0  0  0  0  0
   36.2620   24.3630   39.8710 C   0  0  0  0  0  0  0  0  0  0  0  0
   37.1660   25.3410   39.8870 N   0  0  0  0  0  0  0  0  0  0  0  0
   35.4930   23.8270   38.6980 C   0  0  0  0  0  0  0  0  0  0  0  0
   34.5980   22.8730   39.1510 F   0  0  0  0  0  0  0  0  0  0  0  0
   34.7990   24.8520   38.0710 F   0  0  0  0  0  0  0  0  0  0  0  0
   36.3570   23.2410   37.7840 F   0  0  0  0  0  0  0  0  0  0  0  0
   37.0871   26.9848   43.2895 H   0  0  0  0  0  0  0  0  0  0  0  0
   39.7242   28.4128   43.2901 H   0  0  0  0  0  0  0  0  0  0  0  0
   38.6645   28.0364   44.6496 H   0  0  0  0  0  0  0  0  0  0  0  0
   40.8560   26.4784   43.8048 H   0  0  0  0  0  0  0  0  0  0  0  0
   39.5507   25.8730   44.8401 H   0  0  0  0  0  0  0  0  0  0  0  0
   40.1671   24.9833   42.2393 H   0  0  0  0  0  0  0  0  0  0  0  0
   38.6593   24.6379   43.1005 H   0  0  0  0  0  0  0  0  0  0  0  0
   39.0983   26.8931   40.9623 H   0  0  0  0  0  0  0  0  0  0  0  0
   39.0345   29.9096   42.3574 H   0  0  0  0  0  0  0  0  0  0  0  0
   35.5790   27.3979   41.6111 H   0  0  0  0  0  0  0  0  0  0  0  0
   35.7178   31.4685   40.2200 H   0  0  0  0  0  0  0  0  0  0  0  0
  1  2  1  0
  2  3  1  0
  4  3  1  0
  5  4  1  0
  5  1  1  0
  6  7  2  0
  7  1  1  0
  8  7  1  0
  9  8  2  0
 10  9  1  0
 10 11  2  0
 11  6  1  0
 12  5  1  0
 12 13  2  0
 14 13  1  0
 15 16  2  0
 15 14  1  0
 16 12  1  0
 17 18  1  0
 17 15  1  0
 19 17  1  0
 20 17  1  0
  1 21  1  1
  2 22  1  0
  2 23  1  0
  3 24  1  0
  3 25  1  0
  4 26  1  0
  4 27  1  0
  5 28  1  6
  6 29  1  0
  8 30  1  0
 10 31  1  0
M  ISO  8  21  13  22  13  23  13  24  13  25  13  26  13  27  13  28  13
M  ISO  3  29  14  30  14  31  14
M  END
>  <minimizedAffinity>  (1) 
-4.8852973

>  <minimizedRMSD>  (1) 
0.549756825

$$$$
