
     RDKit          3D

 34 36  0  0  1  0  0  0  0  0999 V2000
   39.5170   26.7490   43.1410 C   0  0  2  0  0  0  0  0  0  0  0  0
   40.6400   27.1140   43.9870 C   0  0  0  0  0  0  0  0  0  0  0  0
   41.5560   25.8940   43.9840 C   0  0  0  0  0  0  0  0  0  0  0  0
   41.0970   25.0340   42.8390 C   0  0  0  0  0  0  0  0  0  0  0  0
   40.1390   25.8890   42.0330 C   0  0  1  0  0  0  0  0  0  0  0  0
   39.2750   29.0130   42.0200 C   0  0  0  0  0  0  0  0  0  0  0  0
   38.7070   27.8290   42.5940 C   0  0  0  0  0  0  0  0  0  0  0  0
   37.3370   27.6760   42.6360 C   0  0  0  0  0  0  0  0  0  0  0  0
   36.5680   28.6930   42.1100 N   0  0  0  0  0  0  0  0  0  0  0  0
   37.1310   29.8310   41.5570 C   0  0  0  0  0  0  0  0  0  0  0  0
   38.5050   29.9760   41.5200 N   0  0  0  0  0  0  0  0  0  0  0  0
   36.2670   30.8840   41.0100 C   0  0  0  0  0  0  0  0  0  0  0  0
   39.2060   24.8660   41.4790 C   0  0  0  0  0  0  0  0  0  0  0  0
   38.2900   24.2290   42.2480 N   0  0  0  0  0  0  0  0  0  0  0  0
   37.6320   23.4010   41.4650 O   0  0  0  0  0  0  0  0  0  0  0  0
   38.1090   23.5100   40.2500 C   0  0  0  0  0  0  0  0  0  0  0  0
   39.0910   24.4120   40.2160 N   0  0  0  0  0  0  0  0  0  0  0  0
   37.5570   22.6870   39.1200 C   0  0  0  0  0  0  0  0  0  0  0  0
   36.5860   21.8440   39.6050 F   0  0  0  0  0  0  0  0  0  0  0  0
   37.0140   23.5160   38.1470 F   0  0  0  0  0  0  0  0  0  0  0  0
   38.5690   21.9270   38.5480 F   0  0  0  0  0  0  0  0  0  0  0  0
   38.7699   26.2302   43.7595 H   0  0  0  0  0  0  0  0  0  0  0  0
   41.1633   27.9903   43.5767 H   0  0  0  0  0  0  0  0  0  0  0  0
   40.3182   27.3841   45.0036 H   0  0  0  0  0  0  0  0  0  0  0  0
   42.6017   26.2015   43.8358 H   0  0  0  0  0  0  0  0  0  0  0  0
   41.5079   25.3517   44.9398 H   0  0  0  0  0  0  0  0  0  0  0  0
   41.9545   24.7328   42.2194 H   0  0  0  0  0  0  0  0  0  0  0  0
   40.6130   24.1128   43.1954 H   0  0  0  0  0  0  0  0  0  0  0  0
   40.5083   26.5270   41.2166 H   0  0  0  0  0  0  0  0  0  0  0  0
   40.3686   29.1278   41.9923 H   0  0  0  0  0  0  0  0  0  0  0  0
   36.8755   26.7777   43.0721 H   0  0  0  0  0  0  0  0  0  0  0  0
   35.8060   31.4458   41.8357 H   0  0  0  0  0  0  0  0  0  0  0  0
   36.8681   31.5674   40.3922 H   0  0  0  0  0  0  0  0  0  0  0  0
   35.4794   30.4279   40.3922 H   0  0  0  0  0  0  0  0  0  0  0  0
  1  2  1  0
  3  2  1  0
  4  3  1  0
  5  4  1  0
  5  1  1  0
  6  7  2  0
  7  8  1  0
  7  1  1  0
  9  8  2  0
 10  9  1  0
 11 10  2  0
 11  6  1  0
 12 10  1  0
 13  5  1  0
 13 14  2  0
 15 14  1  0
 16 15  1  0
 17 16  2  0
 17 13  1  0
 18 19  1  0
 18 16  1  0
 20 18  1  0
 21 18  1  0
  1 22  1  1
  2 23  1  0
  2 24  1  0
  3 25  1  0
  3 26  1  0
  4 27  1  0
  4 28  1  0
  5 29  1  6
  6 30  1  0
  8 31  1  0
 12 32  1  0
 12 33  1  0
 12 34  1  0
M  ISO  8  22  13  23  13  24  13  25  13  26  13  27  13  28  13  29  13
M  ISO  5  30  14  31  14  32   8  33   8  34   8
M  END
>  <minimizedAffinity>  (1) 
-4.71996641

>  <minimizedRMSD>  (1) 
1.88104844

$$$$
