
     RDKit          3D

 33 35  0  0  1  0  0  0  0  0999 V2000
   38.3610   26.9230   42.8670 C   0  0  2  0  0  0  0  0  0  0  0  0
   39.4690   26.9710   43.8040 C   0  0  0  0  0  0  0  0  0  0  0  0
   40.0660   25.5650   43.7830 C   0  0  0  0  0  0  0  0  0  0  0  0
   39.4900   24.8880   42.5720 C   0  0  0  0  0  0  0  0  0  0  0  0
   38.8340   25.9830   41.7520 C   0  0  1  0  0  0  0  0  0  0  0  0
   38.7130   29.3480   42.1860 C   0  0  0  0  0  0  0  0  0  0  0  0
   37.8810   28.1910   42.3310 C   0  0  0  0  0  0  0  0  0  0  0  0
   36.5600   28.2550   41.9410 C   0  0  0  0  0  0  0  0  0  0  0  0
   36.1030   29.4470   41.4260 N   0  0  0  0  0  0  0  0  0  0  0  0
   36.9200   30.5560   41.2930 C   0  0  0  0  0  0  0  0  0  0  0  0
   38.2430   30.4870   41.6850 N   0  0  0  0  0  0  0  0  0  0  0  0
   36.3470   31.7400   40.7480 N   0  0  0  0  0  0  0  0  0  0  0  0
   37.7220   25.2450   41.0840 C   0  0  0  0  0  0  0  0  0  0  0  0
   36.9800   24.3160   41.7370 N   0  0  0  0  0  0  0  0  0  0  0  0
   36.0920   23.8580   40.8820 O   0  0  0  0  0  0  0  0  0  0  0  0
   36.2630   24.4690   39.7370 C   0  0  0  0  0  0  0  0  0  0  0  0
   37.2730   25.3440   39.8220 N   0  0  0  0  0  0  0  0  0  0  0  0
   35.3970   24.1630   38.5490 C   0  0  0  0  0  0  0  0  0  0  0  0
   34.3040   23.4390   38.9630 F   0  0  0  0  0  0  0  0  0  0  0  0
   34.9850   25.3370   37.9400 F   0  0  0  0  0  0  0  0  0  0  0  0
   36.1080   23.4070   37.6220 F   0  0  0  0  0  0  0  0  0  0  0  0
   37.4684   26.5747   43.4074 H   0  0  0  0  0  0  0  0  0  0  0  0
   40.2151   27.7126   43.4827 H   0  0  0  0  0  0  0  0  0  0  0  0
   39.1446   27.2670   44.8125 H   0  0  0  0  0  0  0  0  0  0  0  0
   41.1622   25.6164   43.7069 H   0  0  0  0  0  0  0  0  0  0  0  0
   39.8284   25.0128   44.7042 H   0  0  0  0  0  0  0  0  0  0  0  0
   40.2872   24.4012   41.9910 H   0  0  0  0  0  0  0  0  0  0  0  0
   38.7674   24.1076   42.8527 H   0  0  0  0  0  0  0  0  0  0  0  0
   39.4070   26.5393   40.9955 H   0  0  0  0  0  0  0  0  0  0  0  0
   39.7668   29.2932   42.4967 H   0  0  0  0  0  0  0  0  0  0  0  0
   35.8948   27.3843   42.0380 H   0  0  0  0  0  0  0  0  0  0  0  0
   36.9237   32.5857   40.6336 H   0  0  0  0  0  0  0  0  0  0  0  0
   35.3558   31.7508   40.4681 H   0  0  0  0  0  0  0  0  0  0  0  0
  1  2  1  0
  3  2  1  0
  4  3  1  0
  5  4  1  0
  5  1  1  0
  6  7  2  0
  7  1  1  0
  8  7  1  0
  9  8  2  0
 10  9  1  0
 10 11  2  0
 11  6  1  0
 12 10  1  0
 13 14  2  0
 13  5  1  0
 15 14  1  0
 16 17  2  0
 16 15  1  0
 17 13  1  0
 18 19  1  0
 18 16  1  0
 20 18  1  0
 21 18  1  0
  1 22  1  1
  2 23  1  0
  2 24  1  0
  3 25  1  0
  3 26  1  0
  4 27  1  0
  4 28  1  0
  5 29  1  6
  6 30  1  0
  8 31  1  0
 12 32  1  0
 12 33  1  0
M  ISO  8  22  13  23  13  24  13  25  13  26  13  27  13  28  13  29  13
M  ISO  2  30  14  31  14
M  END
>  <minimizedAffinity>  (1) 
-5.36419201

>  <minimizedRMSD>  (1) 
0.636681914

$$$$
