
     RDKit          3D

 47 50  0  0  1  0  0  0  0  0999 V2000
   38.5290   28.5850   43.0500 C   0  0  2  0  0  0  0  0  0  0  0  0
   38.1400   27.4360   43.8270 C   0  0  0  0  0  0  0  0  0  0  0  0
   36.6470   27.2240   43.5280 C   0  0  0  0  0  0  0  0  0  0  0  0
   36.3810   27.9940   42.2560 C   0  0  0  0  0  0  0  0  0  0  0  0
   37.7240   28.4060   41.7100 C   0  0  1  0  0  0  0  0  0  0  0  0
   40.6300   30.0270   42.7600 C   0  0  0  0  0  0  0  0  0  0  0  0
   39.9520   28.7450   42.7400 C   0  0  0  0  0  0  0  0  0  0  0  0
   40.6120   27.5950   42.3800 C   0  0  0  0  0  0  0  0  0  0  0  0
   41.9490   27.7150   42.0450 N   0  0  0  0  0  0  0  0  0  0  0  0
   42.5990   28.9550   42.0680 C   0  0  0  0  0  0  0  0  0  0  0  0
   41.9160   30.1210   42.4320 N   0  0  0  0  0  0  0  0  0  0  0  0
   43.9850   28.9750   41.7210 N   0  0  0  0  0  0  0  0  0  0  0  0
   40.2490   26.2560   42.1860 N   0  0  0  0  0  0  0  0  0  0  0  0
   39.2250   25.5660   42.9550 C   0  0  0  0  0  0  0  0  0  0  0  0
   38.2140   24.9010   42.0580 C   0  0  0  0  0  0  0  0  0  0  0  0
   38.3250   25.2680   40.6700 N   0  0  0  0  0  0  0  0  0  0  0  0
   39.6510   25.1350   40.1170 C   0  0  0  0  0  0  0  0  0  0  0  0
   40.7090   25.3010   41.2030 C   0  0  0  0  0  0  0  0  0  0  0  0
   37.4070   29.7160   41.0650 C   0  0  0  0  0  0  0  0  0  0  0  0
   36.3080   30.4430   41.3940 N   0  0  0  0  0  0  0  0  0  0  0  0
   36.3130   31.5270   40.6560 O   0  0  0  0  0  0  0  0  0  0  0  0
   37.3790   31.4960   39.8810 C   0  0  0  0  0  0  0  0  0  0  0  0
   38.0660   30.3880   40.1190 N   0  0  0  0  0  0  0  0  0  0  0  0
   37.6580   32.6080   38.9230 C   0  0  0  0  0  0  0  0  0  0  0  0
   36.8800   33.7030   39.2370 F   0  0  0  0  0  0  0  0  0  0  0  0
   38.9930   32.9720   38.9940 F   0  0  0  0  0  0  0  0  0  0  0  0
   37.3580   32.2160   37.6330 F   0  0  0  0  0  0  0  0  0  0  0  0
   38.3155   29.4885   43.6400 H   0  0  0  0  0  0  0  0  0  0  0  0
   38.7218   26.5527   43.5247 H   0  0  0  0  0  0  0  0  0  0  0  0
   38.3234   27.5886   44.9008 H   0  0  0  0  0  0  0  0  0  0  0  0
   36.4312   26.1551   43.3834 H   0  0  0  0  0  0  0  0  0  0  0  0
   36.0103   27.5685   44.3562 H   0  0  0  0  0  0  0  0  0  0  0  0
   35.8559   27.3563   41.5296 H   0  0  0  0  0  0  0  0  0  0  0  0
   35.7468   28.8715   42.4501 H   0  0  0  0  0  0  0  0  0  0  0  0
   38.2596   27.7567   41.0018 H   0  0  0  0  0  0  0  0  0  0  0  0
   40.0749   30.9315   43.0495 H   0  0  0  0  0  0  0  0  0  0  0  0
   44.5039   29.8647   41.7242 H   0  0  0  0  0  0  0  0  0  0  0  0
   44.4651   28.0997   41.4676 H   0  0  0  0  0  0  0  0  0  0  0  0
   39.7046   24.8001   43.5822 H   0  0  0  0  0  0  0  0  0  0  0  0
   38.7006   26.3082   43.5747 H   0  0  0  0  0  0  0  0  0  0  0  0
   38.3450   23.8118   42.1384 H   0  0  0  0  0  0  0  0  0  0  0  0
   37.2224   25.2369   42.3956 H   0  0  0  0  0  0  0  0  0  0  0  0
   37.6888   24.6669   40.1270 H   0  0  0  0  0  0  0  0  0  0  0  0
   39.7540   24.1387   39.6623 H   0  0  0  0  0  0  0  0  0  0  0  0
   39.7975   25.9185   39.3589 H   0  0  0  0  0  0  0  0  0  0  0  0
   40.8885   24.3314   41.6905 H   0  0  0  0  0  0  0  0  0  0  0  0
   41.6435   25.6640   40.7503 H   0  0  0  0  0  0  0  0  0  0  0  0
  1  2  1  0
  3  2  1  0
  4  3  1  0
  5  4  1  0
  5  1  1  0
  7  6  2  0
  7  1  1  0
  8  7  1  0
  9 10  1  0
  9  8  2  0
 10 11  2  0
 11  6  1  0
 12 10  1  0
 13  8  1  0
 13 14  1  0
 15 14  1  0
 16 15  1  0
 17 16  1  0
 17 18  1  0
 18 13  1  0
 19 20  2  0
 19  5  1  0
 21 20  1  0
 22 23  2  0
 22 21  1  0
 23 19  1  0
 24 26  1  0
 24 25  1  0
 24 22  1  0
 27 24  1  0
  1 28  1  1
  2 29  1  0
  2 30  1  0
  3 31  1  0
  3 32  1  0
  4 33  1  0
  4 34  1  0
  5 35  1  6
  6 36  1  0
 12 37  1  0
 12 38  1  0
 14 39  1  0
 14 40  1  0
 15 41  1  0
 15 42  1  0
 16 43  1  0
 17 44  1  0
 17 45  1  0
 18 46  1  0
 18 47  1  0
M  ISO  8  28  13  29  13  30  13  31  13  32  13  33  13  34  13  35  13
M  ISO  8  36  14  39  13  40  13  41  13  42  13  43   5  44  13  45  13
M  ISO  2  46  13  47  13
M  END
>  <minimizedAffinity>  (1) 
-6.28723192

>  <minimizedRMSD>  (1) 
5.91947174

$$$$
