
     RDKit          3D

 35 37  0  0  1  0  0  0  0  0999 V2000
   39.0100   27.2210   42.9200 C   0  0  2  0  0  0  0  0  0  0  0  0
   40.2290   27.3470   43.6520 C   0  0  0  0  0  0  0  0  0  0  0  0
   40.8760   25.9530   43.6260 C   0  0  0  0  0  0  0  0  0  0  0  0
   40.1060   25.1540   42.6000 C   0  0  0  0  0  0  0  0  0  0  0  0
   39.3110   26.1560   41.8060 C   0  0  1  0  0  0  0  0  0  0  0  0
   39.2500   29.3390   41.4920 C   0  0  0  0  0  0  0  0  0  0  0  0
   38.4580   28.4230   42.2810 C   0  0  0  0  0  0  0  0  0  0  0  0
   37.1130   28.6770   42.5200 C   0  0  0  0  0  0  0  0  0  0  0  0
   36.5790   29.8190   41.9800 N   0  0  0  0  0  0  0  0  0  0  0  0
   37.3510   30.6970   41.2190 C   0  0  0  0  0  0  0  0  0  0  0  0
   38.7010   30.4390   40.9830 N   0  0  0  0  0  0  0  0  0  0  0  0
   36.7010   31.8550   40.7010 N   0  0  0  0  0  0  0  0  0  0  0  0
   36.2840   27.8440   43.2720 N   0  0  0  0  0  0  0  0  0  0  0  0
   38.0970   25.3660   41.4380 C   0  0  0  0  0  0  0  0  0  0  0  0
   37.2260   24.8770   42.3700 N   0  0  0  0  0  0  0  0  0  0  0  0
   36.2790   24.2400   41.7220 O   0  0  0  0  0  0  0  0  0  0  0  0
   36.5220   24.3120   40.4490 C   0  0  0  0  0  0  0  0  0  0  0  0
   37.6380   25.0010   40.2400 N   0  0  0  0  0  0  0  0  0  0  0  0
   35.6060   23.6700   39.4460 C   0  0  0  0  0  0  0  0  0  0  0  0
   34.5140   23.1570   40.0830 F   0  0  0  0  0  0  0  0  0  0  0  0
   35.2280   24.5890   38.4850 F   0  0  0  0  0  0  0  0  0  0  0  0
   36.2710   22.6150   38.8090 F   0  0  0  0  0  0  0  0  0  0  0  0
   38.2332   26.9562   43.6525 H   0  0  0  0  0  0  0  0  0  0  0  0
   40.8892   28.0852   43.1733 H   0  0  0  0  0  0  0  0  0  0  0  0
   40.0507   27.6926   44.6810 H   0  0  0  0  0  0  0  0  0  0  0  0
   41.9343   26.0284   43.3357 H   0  0  0  0  0  0  0  0  0  0  0  0
   40.8421   25.4752   44.6162 H   0  0  0  0  0  0  0  0  0  0  0  0
   40.7984   24.6079   41.9425 H   0  0  0  0  0  0  0  0  0  0  0  0
   39.4531   24.4082   43.0770 H   0  0  0  0  0  0  0  0  0  0  0  0
   39.7422   26.6235   40.9085 H   0  0  0  0  0  0  0  0  0  0  0  0
   40.3138   29.1254   41.3111 H   0  0  0  0  0  0  0  0  0  0  0  0
   37.2303   32.5321   40.1333 H   0  0  0  0  0  0  0  0  0  0  0  0
   35.7020   32.0147   40.8943 H   0  0  0  0  0  0  0  0  0  0  0  0
   35.2939   28.0919   43.4107 H   0  0  0  0  0  0  0  0  0  0  0  0
   36.6621   26.9811   43.6885 H   0  0  0  0  0  0  0  0  0  0  0  0
  1  2  1  0
  3  2  1  0
  4  3  1  0
  5  4  1  0
  5  1  1  0
  6  7  2  0
  7  8  1  0
  7  1  1  0
  8 13  1  0
  9  8  2  0
 10  9  1  0
 11 10  2  0
 11  6  1  0
 12 10  1  0
 14  5  1  0
 14 15  2  0
 16 15  1  0
 17 16  1  0
 18 17  2  0
 18 14  1  0
 19 20  1  0
 19 17  1  0
 21 19  1  0
 22 19  1  0
  1 23  1  1
  2 24  1  0
  2 25  1  0
  3 26  1  0
  3 27  1  0
  4 28  1  0
  4 29  1  0
  5 30  1  6
  6 31  1  0
 12 32  1  0
 12 33  1  0
 13 34  1  0
 13 35  1  0
M  ISO  8  23  13  24  13  25  13  26  13  27  13  28  13  29  13  30  13
M  ISO  1  31  14
M  END
>  <minimizedAffinity>  (1) 
-5.6131115

>  <minimizedRMSD>  (1) 
0.881240964

$$$$
