
     RDKit          3D

 36 38  0  0  1  0  0  0  0  0999 V2000
   39.3190   27.0650   42.9980 C   0  0  2  0  0  0  0  0  0  0  0  0
   40.5460   27.3590   43.6810 C   0  0  0  0  0  0  0  0  0  0  0  0
   41.3260   26.0380   43.7050 C   0  0  0  0  0  0  0  0  0  0  0  0
   40.7090   25.1880   42.6170 C   0  0  0  0  0  0  0  0  0  0  0  0
   39.7850   26.0960   41.8430 C   0  0  1  0  0  0  0  0  0  0  0  0
   39.2580   29.2070   41.5860 C   0  0  0  0  0  0  0  0  0  0  0  0
   38.6030   28.1980   42.3910 C   0  0  0  0  0  0  0  0  0  0  0  0
   37.2500   28.2860   42.6700 C   0  0  0  0  0  0  0  0  0  0  0  0
   36.5730   29.3570   42.1510 N   0  0  0  0  0  0  0  0  0  0  0  0
   37.2080   30.3270   41.3760 C   0  0  0  0  0  0  0  0  0  0  0  0
   38.5700   30.2360   41.1000 N   0  0  0  0  0  0  0  0  0  0  0  0
   36.4250   31.4130   40.8720 N   0  0  0  0  0  0  0  0  0  0  0  0
   36.4040   27.4230   43.4510 C   0  0  0  0  0  0  0  0  0  0  0  0
   38.7070   25.1580   41.4250 C   0  0  0  0  0  0  0  0  0  0  0  0
   38.4850   23.9710   42.0530 N   0  0  0  0  0  0  0  0  0  0  0  0
   37.4750   23.3860   41.4550 O   0  0  0  0  0  0  0  0  0  0  0  0
   37.0650   24.1530   40.4910 C   0  0  0  0  0  0  0  0  0  0  0  0
   37.8060   25.2560   40.4450 N   0  0  0  0  0  0  0  0  0  0  0  0
   35.9120   23.7530   39.6150 C   0  0  0  0  0  0  0  0  0  0  0  0
   34.8630   23.3510   40.3940 F   0  0  0  0  0  0  0  0  0  0  0  0
   35.5210   24.8170   38.8190 F   0  0  0  0  0  0  0  0  0  0  0  0
   36.2820   22.6900   38.7970 F   0  0  0  0  0  0  0  0  0  0  0  0
   38.5951   26.6715   43.7268 H   0  0  0  0  0  0  0  0  0  0  0  0
   41.1126   28.1306   43.1392 H   0  0  0  0  0  0  0  0  0  0  0  0
   40.3670   27.7467   44.6947 H   0  0  0  0  0  0  0  0  0  0  0  0
   42.3913   26.2162   43.4967 H   0  0  0  0  0  0  0  0  0  0  0  0
   41.2706   25.5478   44.6882 H   0  0  0  0  0  0  0  0  0  0  0  0
   41.4920   24.7882   41.9559 H   0  0  0  0  0  0  0  0  0  0  0  0
   40.1651   24.3304   43.0397 H   0  0  0  0  0  0  0  0  0  0  0  0
   40.1535   26.6551   40.9703 H   0  0  0  0  0  0  0  0  0  0  0  0
   40.3341   29.1219   41.3744 H   0  0  0  0  0  0  0  0  0  0  0  0
   36.8678   32.1437   40.2968 H   0  0  0  0  0  0  0  0  0  0  0  0
   35.4184   31.4642   41.0843 H   0  0  0  0  0  0  0  0  0  0  0  0
   36.5825   27.6051   44.5210 H   0  0  0  0  0  0  0  0  0  0  0  0
   35.3500   27.6308   43.2145 H   0  0  0  0  0  0  0  0  0  0  0  0
   36.6328   26.3734   43.2145 H   0  0  0  0  0  0  0  0  0  0  0  0
  1  2  1  0
  2  3  1  0
  4  3  1  0
  5  4  1  0
  5  1  1  0
  6  7  2  0
  7  8  1  0
  7  1  1  0
  8 13  1  0
  9  8  2  0
 10  9  1  0
 11 10  2  0
 11  6  1  0
 12 10  1  0
 14  5  1  0
 14 15  2  0
 16 15  1  0
 17 16  1  0
 18 17  2  0
 18 14  1  0
 19 20  1  0
 19 17  1  0
 21 19  1  0
 22 19  1  0
  1 23  1  1
  2 24  1  0
  2 25  1  0
  3 26  1  0
  3 27  1  0
  4 28  1  0
  4 29  1  0
  5 30  1  6
  6 31  1  0
 12 32  1  0
 12 33  1  0
 13 34  1  0
 13 35  1  0
 13 36  1  0
M  ISO  8  23  13  24  13  25  13  26  13  27  13  28  13  29  13  30  13
M  ISO  4  31  14  34   8  35   8  36   8
M  END
>  <minimizedAffinity>  (1) 
-5.51255703

>  <minimizedRMSD>  (1) 
1.13358581

$$$$
