
     RDKit          3D

 46 49  0  0  1  0  0  0  0  0999 V2000
   38.4620   31.4530   39.7390 C   0  0  2  0  0  0  0  0  0  0  0  0
   37.7070   32.4760   40.3990 C   0  0  0  0  0  0  0  0  0  0  0  0
   38.6590   33.6730   40.5200 C   0  0  0  0  0  0  0  0  0  0  0  0
   39.7470   33.4250   39.4930 C   0  0  0  0  0  0  0  0  0  0  0  0
   39.2990   32.2650   38.6690 C   0  0  1  0  0  0  0  0  0  0  0  0
   36.8460   30.6470   37.9560 C   0  0  0  0  0  0  0  0  0  0  0  0
   37.7090   30.3930   39.0770 C   0  0  0  0  0  0  0  0  0  0  0  0
   37.8380   29.1210   39.5600 C   0  0  0  0  0  0  0  0  0  0  0  0
   37.1090   28.1400   38.9180 N   0  0  0  0  0  0  0  0  0  0  0  0
   36.2820   28.3900   37.8430 C   0  0  0  0  0  0  0  0  0  0  0  0
   36.1530   29.6780   37.3570 N   0  0  0  0  0  0  0  0  0  0  0  0
   35.5690   27.2960   37.2590 N   0  0  0  0  0  0  0  0  0  0  0  0
   38.6140   28.6230   40.6730 C   0  0  0  0  0  0  0  0  0  0  0  0
   37.8770   28.3010   41.8750 N   0  0  0  0  0  0  0  0  0  0  0  0
   37.0130   27.3440   42.2430 C   0  0  0  0  0  0  0  0  0  0  0  0
   36.4250   27.2660   43.4810 C   0  0  0  0  0  0  0  0  0  0  0  0
   36.6920   28.2020   44.4560 C   0  0  0  0  0  0  0  0  0  0  0  0
   36.1010   28.0310   45.5380 O   0  0  0  0  0  0  0  0  0  0  0  0
   37.5550   29.1720   44.1110 N   0  0  0  0  0  0  0  0  0  0  0  0
   38.1050   29.2020   42.8850 C   0  0  0  0  0  0  0  0  0  0  0  0
   38.8960   30.1980   42.7500 O   0  0  0  0  0  0  0  0  0  0  0  0
   40.5800   31.5890   38.3260 C   0  0  0  0  0  0  0  0  0  0  0  0
   41.2640   30.8310   39.2460 N   0  0  0  0  0  0  0  0  0  0  0  0
   42.3390   30.3690   38.6480 O   0  0  0  0  0  0  0  0  0  0  0  0
   42.3400   30.8080   37.4160 C   0  0  0  0  0  0  0  0  0  0  0  0
   41.2600   31.5690   37.1820 N   0  0  0  0  0  0  0  0  0  0  0  0
   43.4490   30.4490   36.4680 C   0  0  0  0  0  0  0  0  0  0  0  0
   44.2390   31.5380   36.2530 F   0  0  0  0  0  0  0  0  0  0  0  0
   44.2190   29.4200   36.9910 F   0  0  0  0  0  0  0  0  0  0  0  0
   42.9230   30.0510   35.2450 F   0  0  0  0  0  0  0  0  0  0  0  0
   39.0385   30.8917   40.4891 H   0  0  0  0  0  0  0  0  0  0  0  0
   36.8228   32.7465   39.8031 H   0  0  0  0  0  0  0  0  0  0  0  0
   37.3412   32.1440   41.3818 H   0  0  0  0  0  0  0  0  0  0  0  0
   38.1283   34.6111   40.3001 H   0  0  0  0  0  0  0  0  0  0  0  0
   39.0689   33.7697   41.5362 H   0  0  0  0  0  0  0  0  0  0  0  0
   39.8789   34.3133   38.8578 H   0  0  0  0  0  0  0  0  0  0  0  0
   40.7115   33.2171   39.9793 H   0  0  0  0  0  0  0  0  0  0  0  0
   38.7179   32.4393   37.7514 H   0  0  0  0  0  0  0  0  0  0  0  0
   36.7540   31.6764   37.5792 H   0  0  0  0  0  0  0  0  0  0  0  0
   34.9454   27.4580   36.4554 H   0  0  0  0  0  0  0  0  0  0  0  0
   35.6792   26.3463   37.6421 H   0  0  0  0  0  0  0  0  0  0  0  0
   39.1286   27.7094   40.3406 H   0  0  0  0  0  0  0  0  0  0  0  0
   39.2868   29.4469   40.9534 H   0  0  0  0  0  0  0  0  0  0  0  0
   36.7585   26.5701   41.5039 H   0  0  0  0  0  0  0  0  0  0  0  0
   35.7290   26.4424   43.6982 H   0  0  0  0  0  0  0  0  0  0  0  0
   37.7984   29.9025   44.7951 H   0  0  0  0  0  0  0  0  0  0  0  0
  1  2  1  0
  2  3  1  0
  4  3  1  0
  5  4  1  0
  5  1  1  0
  6  7  2  0
  7  8  1  0
  7  1  1  0
  8 13  1  0
  9  8  2  0
 10  9  1  0
 11 10  2  0
 11  6  1  0
 12 10  1  0
 13 14  1  0
 14 15  1  0
 14 20  1  0
 15 16  2  0
 16 17  1  0
 17 18  2  0
 19 17  1  0
 20 19  1  0
 21 20  2  0
 22  5  1  0
 22 23  2  0
 24 23  1  0
 25 24  1  0
 26 25  2  0
 26 22  1  0
 27 29  1  0
 27 25  1  0
 28 27  1  0
 30 27  1  0
  1 31  1  1
  2 32  1  0
  2 33  1  0
  3 34  1  0
  3 35  1  0
  4 36  1  0
  4 37  1  0
  5 38  1  6
  6 39  1  0
 12 40  1  0
 12 41  1  0
 13 42  1  0
 13 43  1  0
 15 44  1  0
 16 45  1  0
 19 46  1  0
M  ISO  8  31  13  32  13  33  13  34  13  35  13  36  13  37  13  38  13
M  ISO  6  39  14  42   8  43   8  44  14  45  14  46   9
M  END
>  <minimizedAffinity>  (1) 
-6.33539438

>  <minimizedRMSD>  (1) 
6.70326996

$$$$
