
     RDKit          3D

 37 39  0  0  1  0  0  0  0  0999 V2000
   39.2280   26.9960   42.9320 C   0  0  2  0  0  0  0  0  0  0  0  0
   40.4490   27.3370   43.6190 C   0  0  0  0  0  0  0  0  0  0  0  0
   41.2880   26.0530   43.6060 C   0  0  0  0  0  0  0  0  0  0  0  0
   40.7060   25.2000   42.4950 C   0  0  0  0  0  0  0  0  0  0  0  0
   39.7390   26.0630   41.7630 C   0  0  1  0  0  0  0  0  0  0  0  0
   38.9450   28.9260   41.3070 C   0  0  0  0  0  0  0  0  0  0  0  0
   38.4530   28.1040   42.3860 C   0  0  0  0  0  0  0  0  0  0  0  0
   37.2190   28.3500   42.9540 C   0  0  0  0  0  0  0  0  0  0  0  0
   36.5150   29.4080   42.4380 N   0  0  0  0  0  0  0  0  0  0  0  0
   36.9830   30.2040   41.4100 C   0  0  0  0  0  0  0  0  0  0  0  0
   38.2250   29.9470   40.8370 N   0  0  0  0  0  0  0  0  0  0  0  0
   36.1670   31.2910   40.9650 N   0  0  0  0  0  0  0  0  0  0  0  0
   36.5430   27.6780   44.0150 C   0  0  0  0  0  0  0  0  0  0  0  0
   36.3900   28.4510   45.1800 O   0  0  0  0  0  0  0  0  0  0  0  0
   38.6950   25.1090   41.3010 C   0  0  0  0  0  0  0  0  0  0  0  0
   38.6570   23.8210   41.7810 N   0  0  0  0  0  0  0  0  0  0  0  0
   37.6360   23.2200   41.2150 O   0  0  0  0  0  0  0  0  0  0  0  0
   37.0550   24.0740   40.4200 C   0  0  0  0  0  0  0  0  0  0  0  0
   37.6890   25.2480   40.4540 N   0  0  0  0  0  0  0  0  0  0  0  0
   35.8440   23.6860   39.6180 C   0  0  0  0  0  0  0  0  0  0  0  0
   34.8260   23.3380   40.4730 F   0  0  0  0  0  0  0  0  0  0  0  0
   35.4300   24.7450   38.8220 F   0  0  0  0  0  0  0  0  0  0  0  0
   36.1280   22.5930   38.8160 F   0  0  0  0  0  0  0  0  0  0  0  0
   38.5181   26.5447   43.6407 H   0  0  0  0  0  0  0  0  0  0  0  0
   40.9749   28.1471   43.0924 H   0  0  0  0  0  0  0  0  0  0  0  0
   40.2598   27.6949   44.6418 H   0  0  0  0  0  0  0  0  0  0  0  0
   42.3432   26.2853   43.3997 H   0  0  0  0  0  0  0  0  0  0  0  0
   41.2576   25.5357   44.5763 H   0  0  0  0  0  0  0  0  0  0  0  0
   41.5038   24.8630   41.8168 H   0  0  0  0  0  0  0  0  0  0  0  0
   40.2131   24.3031   42.8983 H   0  0  0  0  0  0  0  0  0  0  0  0
   40.0897   26.6522   40.9028 H   0  0  0  0  0  0  0  0  0  0  0  0
   39.9284   28.7079   40.8650 H   0  0  0  0  0  0  0  0  0  0  0  0
   36.4922   31.8997   40.2004 H   0  0  0  0  0  0  0  0  0  0  0  0
   35.2541   31.4651   41.4091 H   0  0  0  0  0  0  0  0  0  0  0  0
   35.5433   27.3885   43.6589 H   0  0  0  0  0  0  0  0  0  0  0  0
   37.1642   26.8123   44.2884 H   0  0  0  0  0  0  0  0  0  0  0  0
   36.5042   27.8739   45.9763 H   0  0  0  0  0  0  0  0  0  0  0  0
  1  2  1  0
  3  2  1  0
  4  3  1  0
  5  4  1  0
  5  1  1  0
  6  7  2  0
  7  1  1  0
  7  8  1  0
  8 13  1  0
  9  8  2  0
 10  9  1  0
 11  6  1  0
 11 10  2  0
 12 10  1  0
 13 14  1  0
 15  5  1  0
 15 16  2  0
 17 16  1  0
 18 19  2  0
 18 17  1  0
 19 15  1  0
 20 18  1  0
 20 21  1  0
 22 20  1  0
 23 20  1  0
  1 24  1  1
  2 25  1  0
  2 26  1  0
  3 27  1  0
  3 28  1  0
  4 29  1  0
  4 30  1  0
  5 31  1  6
  6 32  1  0
 12 33  1  0
 12 34  1  0
 13 35  1  0
 13 36  1  0
 14 37  1  0
M  ISO  8  24  13  25  13  26  13  27  13  28  13  29  13  30  13  31  13
M  ISO  4  32  14  35   8  36   8  37   3
M  END
>  <minimizedAffinity>  (1) 
-5.70154572

>  <minimizedRMSD>  (1) 
0.447253019

$$$$
