
     RDKit          3D

 46 49  0  0  1  0  0  0  0  0999 V2000
   39.0530   27.6380   42.2940 C   0  0  2  0  0  0  0  0  0  0  0  0
   38.8340   28.8690   42.9880 C   0  0  0  0  0  0  0  0  0  0  0  0
   37.3380   29.1740   42.8190 C   0  0  0  0  0  0  0  0  0  0  0  0
   36.6970   27.8320   42.4830 C   0  0  0  0  0  0  0  0  0  0  0  0
   37.7590   26.8000   42.6570 C   0  0  1  0  0  0  0  0  0  0  0  0
   40.6980   26.7490   44.0110 C   0  0  0  0  0  0  0  0  0  0  0  0
   40.2460   26.8720   42.6410 C   0  0  0  0  0  0  0  0  0  0  0  0
   40.9480   26.2710   41.6290 C   0  0  0  0  0  0  0  0  0  0  0  0
   42.0760   25.5690   42.0090 N   0  0  0  0  0  0  0  0  0  0  0  0
   42.5040   25.4550   43.3100 C   0  0  0  0  0  0  0  0  0  0  0  0
   41.7940   26.0600   44.3300 N   0  0  0  0  0  0  0  0  0  0  0  0
   43.6980   24.7020   43.5530 N   0  0  0  0  0  0  0  0  0  0  0  0
   40.7100   26.2780   40.2160 C   0  0  0  0  0  0  0  0  0  0  0  0
   40.6210   27.6080   39.5600 C   0  0  0  0  0  0  0  0  0  0  0  0
   39.4940   27.6520   38.7220 C   0  0  0  0  0  0  0  0  0  0  0  0
   39.1170   28.7510   37.9710 C   0  0  0  0  0  0  0  0  0  0  0  0
   39.9030   29.9010   38.0430 C   0  0  0  0  0  0  0  0  0  0  0  0
   41.0120   29.8660   38.8630 C   0  0  0  0  0  0  0  0  0  0  0  0
   41.3680   28.7620   39.6020 C   0  0  0  0  0  0  0  0  0  0  0  0
   37.4210   25.7980   41.6080 C   0  0  0  0  0  0  0  0  0  0  0  0
   36.7310   26.1480   40.4740 N   0  0  0  0  0  0  0  0  0  0  0  0
   36.5960   25.0610   39.7450 O   0  0  0  0  0  0  0  0  0  0  0  0
   37.1670   24.0650   40.3720 C   0  0  0  0  0  0  0  0  0  0  0  0
   37.6870   24.4970   41.5310 N   0  0  0  0  0  0  0  0  0  0  0  0
   37.1800   22.6810   39.7890 C   0  0  0  0  0  0  0  0  0  0  0  0
   37.8380   22.6980   38.5960 F   0  0  0  0  0  0  0  0  0  0  0  0
   37.7920   21.8010   40.6710 F   0  0  0  0  0  0  0  0  0  0  0  0
   35.8800   22.2510   39.5560 F   0  0  0  0  0  0  0  0  0  0  0  0
   39.2239   27.8539   41.2290 H   0  0  0  0  0  0  0  0  0  0  0  0
   39.0864   28.7602   44.0531 H   0  0  0  0  0  0  0  0  0  0  0  0
   39.4634   29.6792   42.5911 H   0  0  0  0  0  0  0  0  0  0  0  0
   36.9185   29.5802   43.7512 H   0  0  0  0  0  0  0  0  0  0  0  0
   37.1555   29.9262   42.0374 H   0  0  0  0  0  0  0  0  0  0  0  0
   36.3349   27.8333   41.4443 H   0  0  0  0  0  0  0  0  0  0  0  0
   35.8345   27.6289   43.1348 H   0  0  0  0  0  0  0  0  0  0  0  0
   37.8718   26.2934   43.6269 H   0  0  0  0  0  0  0  0  0  0  0  0
   40.1215   27.2373   44.8105 H   0  0  0  0  0  0  0  0  0  0  0  0
   44.0516   24.5932   44.5143 H   0  0  0  0  0  0  0  0  0  0  0  0
   44.2030   24.2693   42.7665 H   0  0  0  0  0  0  0  0  0  0  0  0
   41.5313   25.7246   39.7371 H   0  0  0  0  0  0  0  0  0  0  0  0
   39.7152   25.8262   40.0886 H   0  0  0  0  0  0  0  0  0  0  0  0
   38.8679   26.7498   38.6587 H   0  0  0  0  0  0  0  0  0  0  0  0
   38.2209   28.7187   37.3338 H   0  0  0  0  0  0  0  0  0  0  0  0
   39.6480   30.8028   37.4671 H   0  0  0  0  0  0  0  0  0  0  0  0
   41.6423   30.7651   38.9290 H   0  0  0  0  0  0  0  0  0  0  0  0
   42.2651   28.8027   40.2372 H   0  0  0  0  0  0  0  0  0  0  0  0
  1  7  1  0
  1  5  1  0
  1  2  1  0
  3  2  1  0
  4  5  1  0
  4  3  1  0
  6 11  2  0
  7  6  1  0
  8  9  1  0
  8  7  2  0
  9 10  2  0
 10 12  1  0
 10 11  1  0
 13  8  1  0
 14 19  1  0
 14 13  1  0
 15 14  2  0
 16 17  2  0
 16 15  1  0
 17 18  1  0
 18 19  2  0
 20  5  1  0
 21 20  2  0
 22 23  1  0
 22 21  1  0
 23 24  2  0
 24 20  1  0
 25 23  1  0
 25 27  1  0
 26 25  1  0
 28 25  1  0
  1 29  1  6
  2 30  1  0
  2 31  1  0
  3 32  1  0
  3 33  1  0
  4 34  1  0
  4 35  1  0
  5 36  1  1
  6 37  1  0
 12 38  1  0
 12 39  1  0
 13 40  1  0
 13 41  1  0
 15 42  1  0
 16 43  1  0
 17 44  1  0
 18 45  1  0
 19 46  1  0
M  ISO  8  29  13  30  13  31  13  32  13  33  13  34  13  35  13  36  13
M  ISO  8  37  14  40   8  41   8  42  14  43  14  44  14  45  14  46  14
M  END
>  <minimizedAffinity>  (1) 
-5.52064085

>  <minimizedRMSD>  (1) 
5.612463

$$$$
