
     RDKit          3D

 38 42  0  0  0  0  0  0  0  0999 V2000
   40.4940   32.1920   41.0040 C   0  0  0  0  0  0  0  0  0  0  0  0
   39.5520   31.1670   40.9090 C   0  0  0  0  0  0  0  0  0  0  0  0
   38.4240   31.7180   40.4870 N   0  0  0  0  0  0  0  0  0  0  0  0
   38.5470   33.0420   40.2920 C   0  0  0  0  0  0  0  0  0  0  0  0
   37.6170   33.9730   39.8610 C   0  0  0  0  0  0  0  0  0  0  0  0
   38.0460   35.3030   39.7550 C   0  0  0  0  0  0  0  0  0  0  0  0
   39.3460   35.6490   40.0710 C   0  0  0  0  0  0  0  0  0  0  0  0
   40.2650   34.7110   40.5000 C   0  0  0  0  0  0  0  0  0  0  0  0
   39.8580   33.3780   40.6130 C   0  0  0  0  0  0  0  0  0  0  0  0
   37.2540   30.9230   40.2860 C   0  0  0  0  0  0  0  0  0  0  0  0
   36.4540   30.6070   41.3700 C   0  0  0  0  0  0  0  0  0  0  0  0
   35.4190   29.8590   40.9560 N   0  0  0  0  0  0  0  0  0  0  0  0
   35.5440   29.6890   39.6100 C   0  0  0  0  0  0  0  0  0  0  0  0
   34.8010   29.0250   38.6390 C   0  0  0  0  0  0  0  0  0  0  0  0
   35.2240   29.0530   37.3250 C   0  0  0  0  0  0  0  0  0  0  0  0
   36.3730   29.7240   36.9340 C   0  0  0  0  0  0  0  0  0  0  0  0
   37.1360   30.3970   37.8850 C   0  0  0  0  0  0  0  0  0  0  0  0
   36.6750   30.3390   39.1740 C   0  0  0  0  0  0  0  0  0  0  0  0
   43.4020   31.6430   43.1400 C   0  0  0  0  0  0  0  0  0  0  0  0
   44.5000   31.8680   42.2490 C   0  0  0  0  0  0  0  0  0  0  0  0
   44.2030   32.2070   40.9120 C   0  0  0  0  0  0  0  0  0  0  0  0
   42.9040   32.2960   40.5750 N   0  0  0  0  0  0  0  0  0  0  0  0
   41.8850   32.0820   41.4260 C   0  0  0  0  0  0  0  0  0  0  0  0
   42.1440   31.7600   42.6940 N   0  0  0  0  0  0  0  0  0  0  0  0
   39.7151   30.1041   41.1405 H   0  0  0  0  0  0  0  0  0  0  0  0
   36.5859   33.6813   39.6125 H   0  0  0  0  0  0  0  0  0  0  0  0
   37.3420   36.0779   39.4175 H   0  0  0  0  0  0  0  0  0  0  0  0
   39.6575   36.6999   39.9784 H   0  0  0  0  0  0  0  0  0  0  0  0
   41.2953   35.0065   40.7475 H   0  0  0  0  0  0  0  0  0  0  0  0
   36.6375   30.9198   42.4085 H   0  0  0  0  0  0  0  0  0  0  0  0
   34.6661   29.4816   41.5490 H   0  0  0  0  0  0  0  0  0  0  0  0
   33.8849   28.4826   38.9157 H   0  0  0  0  0  0  0  0  0  0  0  0
   34.6304   28.5260   36.5635 H   0  0  0  0  0  0  0  0  0  0  0  0
   36.6802   29.7246   35.8778 H   0  0  0  0  0  0  0  0  0  0  0  0
   38.0532   30.9421   37.6175 H   0  0  0  0  0  0  0  0  0  0  0  0
   43.5911   31.3743   44.1898 H   0  0  0  0  0  0  0  0  0  0  0  0
   45.5403   31.7795   42.5953 H   0  0  0  0  0  0  0  0  0  0  0  0
   45.0000   32.3907   40.1765 H   0  0  0  0  0  0  0  0  0  0  0  0
  1 23  1  0
  2  1  2  0
  3  2  1  0
  4  3  1  0
  4  9  2  0
  5  4  1  0
  6  5  2  0
  6  7  1  0
  7  8  2  0
  8  9  1  0
  9  1  1  0
 10  3  1  0
 10 11  2  0
 12 11  1  0
 13 12  1  0
 14 13  2  0
 15 14  1  0
 16 15  2  0
 16 17  1  0
 17 18  2  0
 18 13  1  0
 18 10  1  0
 20 19  2  0
 21 20  1  0
 22 21  2  0
 22 23  1  0
 23 24  2  0
 24 19  1  0
  2 25  1  0
  5 26  1  0
  6 27  1  0
  7 28  1  0
  8 29  1  0
 11 30  1  0
 12 31  1  0
 14 32  1  0
 15 33  1  0
 16 34  1  0
 17 35  1  0
 19 36  1  0
 20 37  1  0
 21 38  1  0
M  ISO  8  25  14  26  14  27  14  28  14  29  14  30  14  31   9  32  14
M  ISO  6  33  14  34  14  35  14  36  14  37  14  38  14
M  END
>  <minimizedAffinity>  (1) 
-6.10777664

>  <minimizedRMSD>  (1) 
5.38022614

$$$$
