
     RDKit          3D

 31 34  0  0  0  0  0  0  0  0999 V2000
   38.7930   31.9950   40.1850 C   0  0  0  0  0  0  0  0  0  0  0  0
   38.8260   31.1150   41.2550 C   0  0  0  0  0  0  0  0  0  0  0  0
   38.2280   29.9990   40.8690 N   0  0  0  0  0  0  0  0  0  0  0  0
   37.7960   30.0830   39.5980 C   0  0  0  0  0  0  0  0  0  0  0  0
   37.1300   29.1440   38.8310 C   0  0  0  0  0  0  0  0  0  0  0  0
   36.8020   29.5130   37.5270 C   0  0  0  0  0  0  0  0  0  0  0  0
   37.1300   30.7560   37.0410 C   0  0  0  0  0  0  0  0  0  0  0  0
   37.7970   31.6920   37.8100 C   0  0  0  0  0  0  0  0  0  0  0  0
   38.1390   31.3510   39.1210 C   0  0  0  0  0  0  0  0  0  0  0  0
   38.0770   26.9880   42.8290 N   0  0  0  0  0  0  0  0  0  0  0  0
   38.3330   27.5870   41.6690 N   0  0  0  0  0  0  0  0  0  0  0  0
   38.1160   28.9080   41.7770 C   0  0  0  0  0  0  0  0  0  0  0  0
   37.6980   29.1850   43.0700 C   0  0  0  0  0  0  0  0  0  0  0  0
   37.6830   27.9450   43.7170 C   0  0  0  0  0  0  0  0  0  0  0  0
   38.9580   35.6590   40.1440 C   0  0  0  0  0  0  0  0  0  0  0  0
   40.3340   35.9210   39.9490 C   0  0  0  0  0  0  0  0  0  0  0  0
   41.1670   34.8080   39.8380 C   0  0  0  0  0  0  0  0  0  0  0  0
   40.6540   33.5540   39.9170 N   0  0  0  0  0  0  0  0  0  0  0  0
   39.3230   33.3540   40.1050 C   0  0  0  0  0  0  0  0  0  0  0  0
   38.4870   34.4070   40.2180 N   0  0  0  0  0  0  0  0  0  0  0  0
   39.2680   31.3084   42.2436 H   0  0  0  0  0  0  0  0  0  0  0  0
   36.8713   28.1526   39.2311 H   0  0  0  0  0  0  0  0  0  0  0  0
   36.2733   28.7992   36.8782 H   0  0  0  0  0  0  0  0  0  0  0  0
   36.8534   31.0144   36.0082 H   0  0  0  0  0  0  0  0  0  0  0  0
   38.0519   32.6803   37.3998 H   0  0  0  0  0  0  0  0  0  0  0  0
   38.1615   25.9798   43.0222 H   0  0  0  0  0  0  0  0  0  0  0  0
   37.4356   30.1655   43.4940 H   0  0  0  0  0  0  0  0  0  0  0  0
   37.4008   27.7710   44.7659 H   0  0  0  0  0  0  0  0  0  0  0  0
   38.2583   36.5027   40.2371 H   0  0  0  0  0  0  0  0  0  0  0  0
   40.7260   36.9470   39.8882 H   0  0  0  0  0  0  0  0  0  0  0  0
   42.2474   34.9475   39.6853 H   0  0  0  0  0  0  0  0  0  0  0  0
  1  2  2  0
  3  2  1  0
  3 12  1  0
  4  3  1  0
  5  4  2  0
  6  5  1  0
  7  6  2  0
  7  8  1  0
  8  9  2  0
  9  4  1  0
  9  1  1  0
 10 14  1  0
 11 12  2  0
 11 10  1  0
 12 13  1  0
 13 14  2  0
 15 20  2  0
 16 15  1  0
 17 18  1  0
 17 16  2  0
 18 19  2  0
 19  1  1  0
 19 20  1  0
  2 21  1  0
  5 22  1  0
  6 23  1  0
  7 24  1  0
  8 25  1  0
 10 26  1  0
 13 27  1  0
 14 28  1  0
 15 29  1  0
 16 30  1  0
 17 31  1  0
M  ISO  8  21  14  22  14  23  14  24  14  25  14  26   9  27  14  28  14
M  ISO  3  29  14  30  14  31  14
M  END
>  <minimizedAffinity>  (1) 
-5.92143536

>  <minimizedRMSD>  (1) 
5.94083166

$$$$
