
     RDKit          3D

 33 35  0  0  0  0  0  0  0  0999 V2000
   38.6040   31.0220   41.4390 C   0  0  0  0  0  0  0  0  0  0  0  0
   38.9870   30.2270   42.5090 C   0  0  0  0  0  0  0  0  0  0  0  0
   38.0970   29.2460   42.6020 N   0  0  0  0  0  0  0  0  0  0  0  0
   37.1460   29.3390   41.6580 C   0  0  0  0  0  0  0  0  0  0  0  0
   36.0510   28.5390   41.4000 C   0  0  0  0  0  0  0  0  0  0  0  0
   35.2230   28.8810   40.3410 C   0  0  0  0  0  0  0  0  0  0  0  0
   35.5090   29.9970   39.5810 C   0  0  0  0  0  0  0  0  0  0  0  0
   36.5980   30.8100   39.8220 C   0  0  0  0  0  0  0  0  0  0  0  0
   37.4440   30.4760   40.8900 C   0  0  0  0  0  0  0  0  0  0  0  0
   39.1970   34.5290   40.5560 C   0  0  0  0  0  0  0  0  0  0  0  0
   40.5060   34.5090   40.0020 C   0  0  0  0  0  0  0  0  0  0  0  0
   41.1600   33.2680   39.9460 C   0  0  0  0  0  0  0  0  0  0  0  0
   40.5070   32.1820   40.4190 N   0  0  0  0  0  0  0  0  0  0  0  0
   39.2680   32.2250   40.9390 C   0  0  0  0  0  0  0  0  0  0  0  0
   38.6380   33.3980   40.9980 N   0  0  0  0  0  0  0  0  0  0  0  0
   38.1390   28.1780   43.6130 C   0  0  0  0  0  0  0  0  0  0  0  0
   36.8840   28.0880   44.4180 C   0  0  0  0  0  0  0  0  0  0  0  0
   38.4230   26.8270   42.9750 C   0  0  0  0  0  0  0  0  0  0  0  0
   39.8621   30.3801   43.1576 H   0  0  0  0  0  0  0  0  0  0  0  0
   35.8406   27.6536   42.0179 H   0  0  0  0  0  0  0  0  0  0  0  0
   34.3419   28.2652   40.1078 H   0  0  0  0  0  0  0  0  0  0  0  0
   34.8391   30.2498   38.7459 H   0  0  0  0  0  0  0  0  0  0  0  0
   36.7964   31.6925   39.1960 H   0  0  0  0  0  0  0  0  0  0  0  0
   38.6430   35.4770   40.6211 H   0  0  0  0  0  0  0  0  0  0  0  0
   40.9862   35.4272   39.6328 H   0  0  0  0  0  0  0  0  0  0  0  0
   42.1744   33.1813   39.5294 H   0  0  0  0  0  0  0  0  0  0  0  0
   38.9590   28.4457   44.2956 H   0  0  0  0  0  0  0  0  0  0  0  0
   37.1334   28.1059   45.4892 H   0  0  0  0  0  0  0  0  0  0  0  0
   36.2329   28.9418   44.1788 H   0  0  0  0  0  0  0  0  0  0  0  0
   36.3614   27.1501   44.1788 H   0  0  0  0  0  0  0  0  0  0  0  0
   38.5810   26.0755   43.7626 H   0  0  0  0  0  0  0  0  0  0  0  0
   37.5678   26.5294   42.3505 H   0  0  0  0  0  0  0  0  0  0  0  0
   39.3257   26.8989   42.3505 H   0  0  0  0  0  0  0  0  0  0  0  0
  1  2  2  0
  2  3  1  0
  3 16  1  0
  4  3  1  0
  5  4  2  0
  6  5  1  0
  7  8  1  0
  7  6  2  0
  8  9  2  0
  9  1  1  0
  9  4  1  0
 10 15  2  0
 11 10  1  0
 12 11  2  0
 12 13  1  0
 13 14  2  0
 14 15  1  0
 14  1  1  0
 16 17  1  0
 18 16  1  0
  2 19  1  0
  5 20  1  0
  6 21  1  0
  7 22  1  0
  8 23  1  0
 10 24  1  0
 11 25  1  0
 12 26  1  0
 16 27  1  0
 17 28  1  0
 17 29  1  0
 17 30  1  0
 18 31  1  0
 18 32  1  0
 18 33  1  0
M  ISO  8  19  14  20  14  21  14  22  14  23  14  24  14  25  14  26  14
M  ISO  7  27   8  28   8  29   8  30   8  31   8  32   8  33   8
M  END
>  <minimizedAffinity>  (1) 
-5.52509642

>  <minimizedRMSD>  (1) 
5.14580679

$$$$
