
     RDKit          3D

 31 34  0  0  0  0  0  0  0  0999 V2000
   41.3400   31.8480   39.0700 C   0  0  0  0  0  0  0  0  0  0  0  0
   40.5680   30.8220   39.6080 C   0  0  0  0  0  0  0  0  0  0  0  0
   39.5760   31.3830   40.2910 N   0  0  0  0  0  0  0  0  0  0  0  0
   39.6360   32.7260   40.2440 C   0  0  0  0  0  0  0  0  0  0  0  0
   38.8050   33.6740   40.8150 C   0  0  0  0  0  0  0  0  0  0  0  0
   39.1290   35.0190   40.5840 C   0  0  0  0  0  0  0  0  0  0  0  0
   40.2240   35.3600   39.8260 C   0  0  0  0  0  0  0  0  0  0  0  0
   41.0520   34.4020   39.2580 C   0  0  0  0  0  0  0  0  0  0  0  0
   40.7480   33.0460   39.4730 C   0  0  0  0  0  0  0  0  0  0  0  0
   44.8100   32.1600   37.9580 C   0  0  0  0  0  0  0  0  0  0  0  0
   44.8000   31.5230   36.6960 C   0  0  0  0  0  0  0  0  0  0  0  0
   43.5930   30.9960   36.2480 C   0  0  0  0  0  0  0  0  0  0  0  0
   42.4990   31.1210   37.0430 N   0  0  0  0  0  0  0  0  0  0  0  0
   42.5360   31.7330   38.2430 C   0  0  0  0  0  0  0  0  0  0  0  0
   43.6950   32.2490   38.6940 N   0  0  0  0  0  0  0  0  0  0  0  0
   38.6180   30.5580   40.9580 C   0  0  0  0  0  0  0  0  0  0  0  0
   38.4510   30.0340   42.1640 C   0  0  0  0  0  0  0  0  0  0  0  0
   37.3820   29.2600   42.4870 C   0  0  0  0  0  0  0  0  0  0  0  0
   36.4490   29.0570   41.4170 C   0  0  0  0  0  0  0  0  0  0  0  0
   37.2420   30.0390   40.0060 S   0  0  0  0  0  0  0  0  0  0  0  0
   40.7468   29.7431   39.4892 H   0  0  0  0  0  0  0  0  0  0  0  0
   37.9328   33.3867   41.4206 H   0  0  0  0  0  0  0  0  0  0  0  0
   38.4989   35.8110   41.0149 H   0  0  0  0  0  0  0  0  0  0  0  0
   40.4507   36.4242   39.6648 H   0  0  0  0  0  0  0  0  0  0  0  0
   41.9238   34.6959   38.6550 H   0  0  0  0  0  0  0  0  0  0  0  0
   45.7477   32.5889   38.3410 H   0  0  0  0  0  0  0  0  0  0  0  0
   45.7145   31.4467   36.0895 H   0  0  0  0  0  0  0  0  0  0  0  0
   43.5263   30.4903   35.2734 H   0  0  0  0  0  0  0  0  0  0  0  0
   39.2093   30.2340   42.9353 H   0  0  0  0  0  0  0  0  0  0  0  0
   37.2435   28.8246   43.4876 H   0  0  0  0  0  0  0  0  0  0  0  0
   35.5130   28.4791   41.4163 H   0  0  0  0  0  0  0  0  0  0  0  0
  1  9  1  0
  1  2  2  0
  2  3  1  0
  3 16  1  0
  4  3  1  0
  4  5  2  0
  6  5  1  0
  7  6  2  0
  8  9  2  0
  8  7  1  0
  9  4  1  0
 10 15  2  0
 11 10  1  0
 12 11  2  0
 12 13  1  0
 13 14  2  0
 14 15  1  0
 14  1  1  0
 16 17  2  0
 17 18  1  0
 19 18  2  0
 20 16  1  0
 20 19  1  0
  2 21  1  0
  5 22  1  0
  6 23  1  0
  7 24  1  0
  8 25  1  0
 10 26  1  0
 11 27  1  0
 12 28  1  0
 17 29  1  0
 18 30  1  0
 19 31  1  0
M  ISO  8  21  14  22  14  23  14  24  14  25  14  26  14  27  14  28  14
M  ISO  3  29  14  30  14  31  14
M  END
>  <minimizedAffinity>  (1) 
-4.83977699

>  <minimizedRMSD>  (1) 
6.1218729

$$$$
