
     RDKit          3D

 39 42  0  0  0  0  0  0  0  0999 V2000
   37.8760   27.9630   40.9270 C   0  0  0  0  0  0  0  0  0  0  0  0
   36.9430   27.4820   39.9990 C   0  0  0  0  0  0  0  0  0  0  0  0
   36.4600   28.5520   39.3610 N   0  0  0  0  0  0  0  0  0  0  0  0
   37.0080   29.6940   39.8030 C   0  0  0  0  0  0  0  0  0  0  0  0
   36.7790   30.9910   39.4060 C   0  0  0  0  0  0  0  0  0  0  0  0
   37.5040   31.9980   40.0550 C   0  0  0  0  0  0  0  0  0  0  0  0
   38.4110   31.6760   41.0520 C   0  0  0  0  0  0  0  0  0  0  0  0
   38.6330   30.3630   41.4430 C   0  0  0  0  0  0  0  0  0  0  0  0
   37.9200   29.3590   40.8080 C   0  0  0  0  0  0  0  0  0  0  0  0
   39.3710   26.7840   44.0460 C   0  0  0  0  0  0  0  0  0  0  0  0
   40.1800   25.7000   43.6360 C   0  0  0  0  0  0  0  0  0  0  0  0
   40.1940   25.3940   42.2790 C   0  0  0  0  0  0  0  0  0  0  0  0
   39.4380   26.1490   41.4430 N   0  0  0  0  0  0  0  0  0  0  0  0
   38.6750   27.1790   41.8650 C   0  0  0  0  0  0  0  0  0  0  0  0
   38.6430   27.4950   43.1770 N   0  0  0  0  0  0  0  0  0  0  0  0
   33.5470   29.1900   36.3430 N   0  0  0  0  0  0  0  0  0  0  0  0
   34.8850   28.8010   35.9880 C   0  0  0  0  0  0  0  0  0  0  0  0
   35.8950   29.1740   37.0570 C   0  0  0  0  0  0  0  0  0  0  0  0
   35.4620   28.4500   38.3160 C   0  0  0  0  0  0  0  0  0  0  0  0
   34.1390   29.0430   38.7410 C   0  0  0  0  0  0  0  0  0  0  0  0
   33.1300   28.8230   37.6560 C   0  0  0  0  0  0  0  0  0  0  0  0
   36.6635   26.4317   39.8293 H   0  0  0  0  0  0  0  0  0  0  0  0
   36.0561   31.2274   38.6114 H   0  0  0  0  0  0  0  0  0  0  0  0
   37.3528   33.0501   39.7719 H   0  0  0  0  0  0  0  0  0  0  0  0
   38.9704   32.4834   41.5472 H   0  0  0  0  0  0  0  0  0  0  0  0
   39.3565   30.1255   42.2368 H   0  0  0  0  0  0  0  0  0  0  0  0
   39.3388   27.0515   45.1125 H   0  0  0  0  0  0  0  0  0  0  0  0
   40.7738   25.1224   44.3597 H   0  0  0  0  0  0  0  0  0  0  0  0
   40.8019   24.5620   41.8941 H   0  0  0  0  0  0  0  0  0  0  0  0
   32.9004   28.7531   35.6708 H   0  0  0  0  0  0  0  0  0  0  0  0
   34.9098   27.7109   35.8426 H   0  0  0  0  0  0  0  0  0  0  0  0
   35.1577   29.3352   35.0659 H   0  0  0  0  0  0  0  0  0  0  0  0
   36.9033   28.8511   36.7587 H   0  0  0  0  0  0  0  0  0  0  0  0
   35.9322   30.2624   37.2122 H   0  0  0  0  0  0  0  0  0  0  0  0
   35.3487   27.3737   38.1193 H   0  0  0  0  0  0  0  0  0  0  0  0
   33.7972   28.5552   39.6658 H   0  0  0  0  0  0  0  0  0  0  0  0
   34.2582   30.1214   38.9220 H   0  0  0  0  0  0  0  0  0  0  0  0
   32.2338   29.4110   37.9031 H   0  0  0  0  0  0  0  0  0  0  0  0
   32.9550   27.7375   37.6236 H   0  0  0  0  0  0  0  0  0  0  0  0
  1 14  1  0
  2  1  2  0
  3  4  1  0
  3  2  1  0
  4  9  2  0
  5  4  1  0
  5  6  2  0
  6  7  1  0
  7  8  2  0
  9  1  1  0
  9  8  1  0
 11 10  2  0
 12 11  1  0
 13 14  1  0
 13 12  2  0
 14 15  2  0
 15 10  1  0
 16 21  1  0
 17 16  1  0
 17 18  1  0
 18 19  1  0
 19 20  1  0
 19  3  1  0
 21 20  1  0
  2 22  1  0
  5 23  1  0
  6 24  1  0
  7 25  1  0
  8 26  1  0
 10 27  1  0
 11 28  1  0
 12 29  1  0
 16 30  1  0
 17 31  1  0
 17 32  1  0
 18 33  1  0
 18 34  1  0
 19 35  1  0
 20 36  1  0
 20 37  1  0
 21 38  1  0
 21 39  1  0
M  ISO  8  22  14  23  14  24  14  25  14  26  14  27  14  28  14  29  14
M  ISO  8  30   5  31  13  32  13  33  13  34  13  35  13  36  13  37  13
M  ISO  2  38  13  39  13
M  END
>  <minimizedAffinity>  (1) 
-4.7706871

>  <minimizedRMSD>  (1) 
2.85668898

$$$$
