
     RDKit          3D

 31 34  0  0  0  0  0  0  0  0999 V2000
   36.9640   26.9550   41.4130 C   0  0  0  0  0  0  0  0  0  0  0  0
   37.0230   26.0560   40.3440 C   0  0  0  0  0  0  0  0  0  0  0  0
   37.1370   24.8280   40.9400 C   0  0  0  0  0  0  0  0  0  0  0  0
   37.1480   24.9570   42.2930 N   0  0  0  0  0  0  0  0  0  0  0  0
   37.0420   26.2490   42.5660 N   0  0  0  0  0  0  0  0  0  0  0  0
   37.2400   23.5220   40.3870 N   0  0  0  0  0  0  0  0  0  0  0  0
   38.3430   22.7220   40.3350 C   0  0  0  0  0  0  0  0  0  0  0  0
   38.0670   21.5490   39.7360 N   0  0  0  0  0  0  0  0  0  0  0  0
   36.7660   21.6010   39.4010 C   0  0  0  0  0  0  0  0  0  0  0  0
   36.0110   20.6420   38.7670 C   0  0  0  0  0  0  0  0  0  0  0  0
   36.5140   19.5390   38.4130 O   0  0  0  0  0  0  0  0  0  0  0  0
   34.7160   20.8900   38.5210 N   0  0  0  0  0  0  0  0  0  0  0  0
   34.2230   22.0870   38.9180 C   0  0  0  0  0  0  0  0  0  0  0  0
   32.8340   22.2860   38.6260 N   0  0  0  0  0  0  0  0  0  0  0  0
   34.9620   23.0360   39.5450 N   0  0  0  0  0  0  0  0  0  0  0  0
   36.2520   22.8240   39.8050 C   0  0  0  0  0  0  0  0  0  0  0  0
   37.8450   29.2890   41.6320 C   0  0  0  0  0  0  0  0  0  0  0  0
   36.8380   28.3890   41.2500 C   0  0  0  0  0  0  0  0  0  0  0  0
   35.6750   28.9070   40.6910 C   0  0  0  0  0  0  0  0  0  0  0  0
   35.5660   30.2650   40.5410 N   0  0  0  0  0  0  0  0  0  0  0  0
   36.5610   31.0950   40.9230 C   0  0  0  0  0  0  0  0  0  0  0  0
   37.7150   30.6140   41.4750 N   0  0  0  0  0  0  0  0  0  0  0  0
   36.9862   26.2832   39.2684 H   0  0  0  0  0  0  0  0  0  0  0  0
   37.2245   24.1923   42.9787 H   0  0  0  0  0  0  0  0  0  0  0  0
   39.3308   22.9996   40.7315 H   0  0  0  0  0  0  0  0  0  0  0  0
   34.1193   20.1963   38.0481 H   0  0  0  0  0  0  0  0  0  0  0  0
   32.3731   23.1679   38.8918 H   0  0  0  0  0  0  0  0  0  0  0  0
   32.2967   21.5471   38.1504 H   0  0  0  0  0  0  0  0  0  0  0  0
   38.7713   28.8942   42.0748 H   0  0  0  0  0  0  0  0  0  0  0  0
   34.8589   28.2403   40.3755 H   0  0  0  0  0  0  0  0  0  0  0  0
   36.4400   32.1798   40.7870 H   0  0  0  0  0  0  0  0  0  0  0  0
  1  5  2  0
  2  3  2  0
  2  1  1  0
  3  4  1  0
  4  5  1  0
  6  3  1  0
  7  6  1  0
  8  7  2  0
  9  8  1  0
  9 16  2  0
 10  9  1  0
 11 10  2  0
 12 10  1  0
 12 13  1  0
 13 15  2  0
 14 13  1  0
 15 16  1  0
 16  6  1  0
 18  1  1  0
 18 17  2  0
 19 18  1  0
 20 19  2  0
 20 21  1  0
 21 22  2  0
 22 17  1  0
  2 23  1  0
  4 24  1  0
  7 25  1  0
 12 26  1  0
 14 27  1  0
 14 28  1  0
 17 29  1  0
 19 30  1  0
 21 31  1  0
M  ISO  7  23  14  24   9  25  14  26   9  29  14  30  14  31  14
M  END
>  <minimizedAffinity>  (1) 
-4.5634594

>  <minimizedRMSD>  (1) 
0.507665813

$$$$
