
     RDKit          3D

 27 29  0  0  0  0  0  0  0  0999 V2000
   36.9020   26.9270   41.4670 C   0  0  0  0  0  0  0  0  0  0  0  0
   36.8040   26.0250   40.3900 C   0  0  0  0  0  0  0  0  0  0  0  0
   36.9360   24.7940   41.0210 C   0  0  0  0  0  0  0  0  0  0  0  0
   37.0960   24.9320   42.3440 N   0  0  0  0  0  0  0  0  0  0  0  0
   37.0740   26.2220   42.5950 N   0  0  0  0  0  0  0  0  0  0  0  0
   37.8510   29.2350   41.6590 C   0  0  0  0  0  0  0  0  0  0  0  0
   36.8170   28.3670   41.2750 C   0  0  0  0  0  0  0  0  0  0  0  0
   35.6750   28.9170   40.6930 C   0  0  0  0  0  0  0  0  0  0  0  0
   35.6160   30.2770   40.5220 N   0  0  0  0  0  0  0  0  0  0  0  0
   36.6330   31.0790   40.9050 C   0  0  0  0  0  0  0  0  0  0  0  0
   37.7470   30.5510   41.4730 N   0  0  0  0  0  0  0  0  0  0  0  0
   36.9060   23.4970   40.3500 C   0  0  0  0  0  0  0  0  0  0  0  0
   35.8320   23.1810   39.5440 C   0  0  0  0  0  0  0  0  0  0  0  0
   35.8140   21.9380   38.9070 C   0  0  0  0  0  0  0  0  0  0  0  0
   36.8610   21.0450   39.0890 C   0  0  0  0  0  0  0  0  0  0  0  0
   37.9280   21.3560   39.8890 C   0  0  0  0  0  0  0  0  0  0  0  0
   37.9430   22.5850   40.5180 C   0  0  0  0  0  0  0  0  0  0  0  0
   36.6596   26.2402   39.3210 H   0  0  0  0  0  0  0  0  0  0  0  0
   37.2135   24.1739   43.0314 H   0  0  0  0  0  0  0  0  0  0  0  0
   38.7608   28.8233   42.1203 H   0  0  0  0  0  0  0  0  0  0  0  0
   34.8397   28.2743   40.3779 H   0  0  0  0  0  0  0  0  0  0  0  0
   36.5581   32.1663   40.7558 H   0  0  0  0  0  0  0  0  0  0  0  0
   35.0059   23.8940   39.4056 H   0  0  0  0  0  0  0  0  0  0  0  0
   34.9676   21.6660   38.2592 H   0  0  0  0  0  0  0  0  0  0  0  0
   36.8331   20.0696   38.5813 H   0  0  0  0  0  0  0  0  0  0  0  0
   38.7542   20.6430   40.0273 H   0  0  0  0  0  0  0  0  0  0  0  0
   38.7924   22.8485   41.1653 H   0  0  0  0  0  0  0  0  0  0  0  0
  1  5  2  0
  2  3  2  0
  2  1  1  0
  3  4  1  0
  4  5  1  0
  7  1  1  0
  7  6  2  0
  8  7  1  0
  9  8  2  0
  9 10  1  0
 10 11  2  0
 11  6  1  0
 12 17  1  0
 12  3  1  0
 13 12  2  0
 14 15  2  0
 14 13  1  0
 15 16  1  0
 16 17  2  0
  2 18  1  0
  4 19  1  0
  6 20  1  0
  8 21  1  0
 10 22  1  0
 13 23  1  0
 14 24  1  0
 15 25  1  0
 16 26  1  0
 17 27  1  0
M  ISO  8  18  14  19   9  20  14  21  14  22  14  23  14  24  14  25  14
M  ISO  2  26  14  27  14
M  END
>  <minimizedAffinity>  (1) 
-4.50916815

>  <minimizedRMSD>  (1) 
0.539935946

$$$$
