
     RDKit          3D

 27 29  0  0  0  0  0  0  0  0999 V2000
   36.9040   26.9270   41.4690 C   0  0  0  0  0  0  0  0  0  0  0  0
   36.8020   26.0040   40.4220 C   0  0  0  0  0  0  0  0  0  0  0  0
   36.9280   24.7830   41.0330 C   0  0  0  0  0  0  0  0  0  0  0  0
   37.0950   24.9300   42.3560 N   0  0  0  0  0  0  0  0  0  0  0  0
   37.0790   26.2380   42.6150 N   0  0  0  0  0  0  0  0  0  0  0  0
   37.8420   29.2420   41.6480 C   0  0  0  0  0  0  0  0  0  0  0  0
   36.8250   28.3670   41.2780 C   0  0  0  0  0  0  0  0  0  0  0  0
   35.6710   28.8920   40.6960 C   0  0  0  0  0  0  0  0  0  0  0  0
   35.5980   30.2510   40.5170 N   0  0  0  0  0  0  0  0  0  0  0  0
   36.6210   31.0680   40.8960 C   0  0  0  0  0  0  0  0  0  0  0  0
   37.7530   30.5580   41.4670 N   0  0  0  0  0  0  0  0  0  0  0  0
   36.8860   23.4990   40.3410 C   0  0  0  0  0  0  0  0  0  0  0  0
   35.8400   23.1500   39.5160 C   0  0  0  0  0  0  0  0  0  0  0  0
   35.8600   21.9110   38.8870 C   0  0  0  0  0  0  0  0  0  0  0  0
   36.8820   21.0150   39.0500 C   0  0  0  0  0  0  0  0  0  0  0  0
   37.9560   21.3390   39.8780 C   0  0  0  0  0  0  0  0  0  0  0  0
   37.8970   22.5710   40.4820 C   0  0  0  0  0  0  0  0  0  0  0  0
   36.6543   26.2111   39.3518 H   0  0  0  0  0  0  0  0  0  0  0  0
   37.2136   24.1729   43.0442 H   0  0  0  0  0  0  0  0  0  0  0  0
   38.7532   28.8310   42.1071 H   0  0  0  0  0  0  0  0  0  0  0  0
   34.8432   28.2357   40.3893 H   0  0  0  0  0  0  0  0  0  0  0  0
   36.5342   32.1534   40.7400 H   0  0  0  0  0  0  0  0  0  0  0  0
   35.0002   23.8425   39.3571 H   0  0  0  0  0  0  0  0  0  0  0  0
   35.0199   21.6390   38.2310 H   0  0  0  0  0  0  0  0  0  0  0  0
   36.8561   20.0455   38.5310 H   0  0  0  0  0  0  0  0  0  0  0  0
   38.7987   20.6502   40.0376 H   0  0  0  0  0  0  0  0  0  0  0  0
   38.7350   22.8436   41.1404 H   0  0  0  0  0  0  0  0  0  0  0  0
  1  5  2  0
  2  3  2  0
  2  1  1  0
  3  4  1  0
  4  5  1  0
  7  1  1  0
  7  6  2  0
  8  7  1  0
  9  8  2  0
  9 10  1  0
 10 11  2  0
 11  6  1  0
 12 17  1  0
 12  3  1  0
 13 12  2  0
 14 15  2  0
 14 13  1  0
 15 16  1  0
 16 17  2  0
  2 18  1  0
  4 19  1  0
  6 20  1  0
  8 21  1  0
 10 22  1  0
 13 23  1  0
 14 24  1  0
 15 25  1  0
 16 26  1  0
 17 27  1  0
M  ISO  8  18  14  19   9  20  14  21  14  22  14  23  14  24  14  25  14
M  ISO  2  26  14  27  14
M  END
>  <minimizedAffinity>  (1) 
-4.50221539

>  <minimizedRMSD>  (1) 
0.468734205

$$$$
