
     RDKit          3D

 44 47  0  0  0  0  0  0  0  0999 V2000
   38.4290   30.3780   41.0870 C   0  0  0  0  0  0  0  0  0  0  0  0
   38.9300   31.6680   41.2210 C   0  0  0  0  0  0  0  0  0  0  0  0
   38.7190   32.3080   40.0670 N   0  0  0  0  0  0  0  0  0  0  0  0
   38.1070   31.5140   39.1820 C   0  0  0  0  0  0  0  0  0  0  0  0
   37.7130   31.7870   37.8840 C   0  0  0  0  0  0  0  0  0  0  0  0
   37.0860   30.7580   37.1730 C   0  0  0  0  0  0  0  0  0  0  0  0
   36.8750   29.5090   37.7710 C   0  0  0  0  0  0  0  0  0  0  0  0
   37.2750   29.2580   39.0630 C   0  0  0  0  0  0  0  0  0  0  0  0
   37.8980   30.2660   39.7810 C   0  0  0  0  0  0  0  0  0  0  0  0
   39.5750   27.5480   43.0890 C   0  0  0  0  0  0  0  0  0  0  0  0
   38.4680   27.2990   43.9470 C   0  0  0  0  0  0  0  0  0  0  0  0
   37.3240   28.1280   43.8150 C   0  0  0  0  0  0  0  0  0  0  0  0
   37.3770   29.0950   42.8800 N   0  0  0  0  0  0  0  0  0  0  0  0
   38.4320   29.3160   42.0780 C   0  0  0  0  0  0  0  0  0  0  0  0
   39.5160   28.5390   42.1940 N   0  0  0  0  0  0  0  0  0  0  0  0
   39.1290   33.6800   39.8830 C   0  0  0  0  0  0  0  0  0  0  0  0
   40.4860   33.8100   39.2640 C   0  0  0  0  0  0  0  0  0  0  0  0
   41.3730   34.7190   39.8900 N   0  0  0  0  0  0  0  0  0  0  0  0
   41.0570   36.0920   39.8430 C   0  0  0  0  0  0  0  0  0  0  0  0
   40.9360   36.5460   41.3030 C   0  0  0  0  0  0  0  0  0  0  0  0
   42.2820   36.4740   41.8880 N   0  0  0  0  0  0  0  0  0  0  0  0
   42.9860   35.2770   41.5400 C   0  0  0  0  0  0  0  0  0  0  0  0
   41.9570   34.2360   41.1010 C   0  0  0  0  0  0  0  0  0  0  0  0
   39.4132   32.0866   42.1161 H   0  0  0  0  0  0  0  0  0  0  0  0
   37.8858   32.7736   37.4293 H   0  0  0  0  0  0  0  0  0  0  0  0
   36.7566   30.9309   36.1378 H   0  0  0  0  0  0  0  0  0  0  0  0
   36.3795   28.7129   37.1959 H   0  0  0  0  0  0  0  0  0  0  0  0
   37.1029   28.2720   39.5192 H   0  0  0  0  0  0  0  0  0  0  0  0
   40.4789   26.9254   43.1620 H   0  0  0  0  0  0  0  0  0  0  0  0
   38.4979   26.4885   44.6901 H   0  0  0  0  0  0  0  0  0  0  0  0
   36.4351   27.9870   44.4474 H   0  0  0  0  0  0  0  0  0  0  0  0
   38.3975   34.1794   39.2307 H   0  0  0  0  0  0  0  0  0  0  0  0
   39.1773   34.1441   40.8791 H   0  0  0  0  0  0  0  0  0  0  0  0
   40.9581   32.8166   39.2780 H   0  0  0  0  0  0  0  0  0  0  0  0
   40.3127   34.2141   38.2557 H   0  0  0  0  0  0  0  0  0  0  0  0
   41.8556   36.6511   39.3334 H   0  0  0  0  0  0  0  0  0  0  0  0
   40.1263   36.2732   39.2854 H   0  0  0  0  0  0  0  0  0  0  0  0
   40.5594   37.5786   41.3476 H   0  0  0  0  0  0  0  0  0  0  0  0
   40.2327   35.9062   41.8562 H   0  0  0  0  0  0  0  0  0  0  0  0
   42.8269   37.2824   41.5556 H   0  0  0  0  0  0  0  0  0  0  0  0
   43.6855   35.4813   40.7160 H   0  0  0  0  0  0  0  0  0  0  0  0
   43.5609   34.9070   42.4018 H   0  0  0  0  0  0  0  0  0  0  0  0
   41.1834   34.1186   41.8741 H   0  0  0  0  0  0  0  0  0  0  0  0
   42.4290   33.2543   40.9478 H   0  0  0  0  0  0  0  0  0  0  0  0
  1  2  2  0
  1 14  1  0
  3  2  1  0
  4  9  2  0
  4  3  1  0
  5  4  1  0
  6  7  1  0
  6  5  2  0
  7  8  2  0
  8  9  1  0
  9  1  1  0
 10 11  2  0
 12 11  1  0
 13 12  2  0
 14 15  2  0
 14 13  1  0
 15 10  1  0
 16  3  1  0
 17 16  1  0
 17 18  1  0
 18 23  1  0
 19 18  1  0
 19 20  1  0
 20 21  1  0
 22 21  1  0
 23 22  1  0
  2 24  1  0
  5 25  1  0
  6 26  1  0
  7 27  1  0
  8 28  1  0
 10 29  1  0
 11 30  1  0
 12 31  1  0
 16 32  1  0
 16 33  1  0
 17 34  1  0
 17 35  1  0
 19 36  1  0
 19 37  1  0
 20 38  1  0
 20 39  1  0
 21 40  1  0
 22 41  1  0
 22 42  1  0
 23 43  1  0
 23 44  1  0
M  ISO  8  24  14  25  14  26  14  27  14  28  14  29  14  30  14  31  14
M  ISO  8  32   8  33   8  34   8  35   8  36  13  37  13  38  13  39  13
M  ISO  5  40   5  41  13  42  13  43  13  44  13
M  END
>  <minimizedAffinity>  (1) 
-5.65980482

>  <minimizedRMSD>  (1) 
6.73184013

$$$$
