
     RDKit          3D

 37 40  0  0  0  0  0  0  0  0999 V2000
   36.3350   29.9910   39.2520 C   0  0  0  0  0  0  0  0  0  0  0  0
   36.9830   31.2220   39.2950 C   0  0  0  0  0  0  0  0  0  0  0  0
   37.6430   31.2750   40.4560 N   0  0  0  0  0  0  0  0  0  0  0  0
   37.4730   30.1570   41.1840 C   0  0  0  0  0  0  0  0  0  0  0  0
   37.9810   29.8290   42.4200 C   0  0  0  0  0  0  0  0  0  0  0  0
   37.6300   28.5860   42.9320 C   0  0  0  0  0  0  0  0  0  0  0  0
   36.7960   27.7170   42.2140 C   0  0  0  0  0  0  0  0  0  0  0  0
   36.3010   28.0700   40.9790 C   0  0  0  0  0  0  0  0  0  0  0  0
   36.6400   29.3090   40.4470 C   0  0  0  0  0  0  0  0  0  0  0  0
   33.4290   28.6130   37.5220 C   0  0  0  0  0  0  0  0  0  0  0  0
   33.8890   28.4790   36.1810 C   0  0  0  0  0  0  0  0  0  0  0  0
   35.2040   28.8690   35.8990 C   0  0  0  0  0  0  0  0  0  0  0  0
   35.9460   29.3470   36.9180 N   0  0  0  0  0  0  0  0  0  0  0  0
   35.4860   29.4650   38.1860 C   0  0  0  0  0  0  0  0  0  0  0  0
   34.2330   29.0990   38.4830 N   0  0  0  0  0  0  0  0  0  0  0  0
   38.4180   32.4360   40.7950 C   0  0  0  0  0  0  0  0  0  0  0  0
   37.9160   33.7110   40.1570 C   0  0  0  0  0  0  0  0  0  0  0  0
   39.1180   34.5390   39.9690 N   0  0  0  0  0  0  0  0  0  0  0  0
   40.2910   34.0530   39.5890 N   0  0  0  0  0  0  0  0  0  0  0  0
   41.1980   35.0410   39.5010 C   0  0  0  0  0  0  0  0  0  0  0  0
   40.5520   36.2330   39.8500 C   0  0  0  0  0  0  0  0  0  0  0  0
   39.2390   35.8680   40.1380 C   0  0  0  0  0  0  0  0  0  0  0  0
   36.9569   32.0028   38.5207 H   0  0  0  0  0  0  0  0  0  0  0  0
   38.6338   30.5179   42.9761 H   0  0  0  0  0  0  0  0  0  0  0  0
   38.0125   28.2786   43.9165 H   0  0  0  0  0  0  0  0  0  0  0  0
   36.5335   26.7391   42.6439 H   0  0  0  0  0  0  0  0  0  0  0  0
   35.6475   27.3826   40.4218 H   0  0  0  0  0  0  0  0  0  0  0  0
   32.4009   28.3145   37.7749 H   0  0  0  0  0  0  0  0  0  0  0  0
   33.2328   28.0821   35.3924 H   0  0  0  0  0  0  0  0  0  0  0  0
   35.6167   28.7882   34.8826 H   0  0  0  0  0  0  0  0  0  0  0  0
   38.3944   32.5620   41.8875 H   0  0  0  0  0  0  0  0  0  0  0  0
   39.4354   32.2652   40.4132 H   0  0  0  0  0  0  0  0  0  0  0  0
   37.4379   33.4975   39.1896 H   0  0  0  0  0  0  0  0  0  0  0  0
   37.1593   34.2142   40.7769 H   0  0  0  0  0  0  0  0  0  0  0  0
   42.2530   34.9330   39.2088 H   0  0  0  0  0  0  0  0  0  0  0  0
   40.9881   37.2421   39.8885 H   0  0  0  0  0  0  0  0  0  0  0  0
   38.4361   36.5516   40.4510 H   0  0  0  0  0  0  0  0  0  0  0  0
  1  2  2  0
  1  9  1  0
  2  3  1  0
  3 16  1  0
  3  4  1  0
  4  5  2  0
  5  6  1  0
  7  6  2  0
  8  7  1  0
  9  8  2  0
  9  4  1  0
 10 15  2  0
 11 10  1  0
 12 11  2  0
 12 13  1  0
 13 14  2  0
 14 15  1  0
 14  1  1  0
 17 16  1  0
 18 22  1  0
 18 17  1  0
 19 18  1  0
 20 19  2  0
 20 21  1  0
 21 22  2  0
  2 23  1  0
  5 24  1  0
  6 25  1  0
  7 26  1  0
  8 27  1  0
 10 28  1  0
 11 29  1  0
 12 30  1  0
 16 31  1  0
 16 32  1  0
 17 33  1  0
 17 34  1  0
 20 35  1  0
 21 36  1  0
 22 37  1  0
M  ISO  8  23  14  24  14  25  14  26  14  27  14  28  14  29  14  30  14
M  ISO  7  31   8  32   8  33   8  34   8  35  14  36  14  37  14
M  END
>  <minimizedAffinity>  (1) 
-5.57849503

>  <minimizedRMSD>  (1) 
7.0321517

$$$$
