
     RDKit          3D

 40 43  0  0  0  0  0  0  0  0999 V2000
   37.5890   28.1840   41.4110 C   0  0  0  0  0  0  0  0  0  0  0  0
   36.3540   27.9270   40.8390 C   0  0  0  0  0  0  0  0  0  0  0  0
   35.9090   29.0890   40.3260 N   0  0  0  0  0  0  0  0  0  0  0  0
   36.7840   30.0830   40.5340 C   0  0  0  0  0  0  0  0  0  0  0  0
   36.6990   31.4030   40.1680 C   0  0  0  0  0  0  0  0  0  0  0  0
   37.7630   32.2300   40.5150 C   0  0  0  0  0  0  0  0  0  0  0  0
   38.8600   31.7140   41.2040 C   0  0  0  0  0  0  0  0  0  0  0  0
   38.9340   30.3850   41.5670 C   0  0  0  0  0  0  0  0  0  0  0  0
   37.8690   29.5440   41.2240 C   0  0  0  0  0  0  0  0  0  0  0  0
   39.6040   26.6260   44.0430 C   0  0  0  0  0  0  0  0  0  0  0  0
   40.1130   25.4500   43.3880 C   0  0  0  0  0  0  0  0  0  0  0  0
   39.7420   25.2340   42.0550 C   0  0  0  0  0  0  0  0  0  0  0  0
   38.9310   26.1350   41.4590 N   0  0  0  0  0  0  0  0  0  0  0  0
   38.4680   27.2290   42.0960 C   0  0  0  0  0  0  0  0  0  0  0  0
   38.8040   27.4660   43.3710 N   0  0  0  0  0  0  0  0  0  0  0  0
   34.6340   29.1500   39.6550 C   0  0  0  0  0  0  0  0  0  0  0  0
   34.6260   28.4380   38.3310 C   0  0  0  0  0  0  0  0  0  0  0  0
   33.6260   28.9610   37.3960 C   0  0  0  0  0  0  0  0  0  0  0  0
   34.0560   28.9670   36.0750 C   0  0  0  0  0  0  0  0  0  0  0  0
   33.2340   29.4300   35.0560 C   0  0  0  0  0  0  0  0  0  0  0  0
   31.9720   29.8890   35.3910 C   0  0  0  0  0  0  0  0  0  0  0  0
   31.5730   29.8720   36.7180 C   0  0  0  0  0  0  0  0  0  0  0  0
   32.3720   29.4160   37.7480 C   0  0  0  0  0  0  0  0  0  0  0  0
   35.8354   26.9574   40.8096 H   0  0  0  0  0  0  0  0  0  0  0  0
   35.8260   31.7912   39.6229 H   0  0  0  0  0  0  0  0  0  0  0  0
   37.7386   33.2959   40.2445 H   0  0  0  0  0  0  0  0  0  0  0  0
   39.6905   32.3861   41.4657 H   0  0  0  0  0  0  0  0  0  0  0  0
   39.8071   29.9965   42.1117 H   0  0  0  0  0  0  0  0  0  0  0  0
   39.8700   26.8346   45.0898 H   0  0  0  0  0  0  0  0  0  0  0  0
   40.7712   24.7447   43.9165 H   0  0  0  0  0  0  0  0  0  0  0  0
   40.1025   24.3514   41.5062 H   0  0  0  0  0  0  0  0  0  0  0  0
   33.8750   28.6891   40.3042 H   0  0  0  0  0  0  0  0  0  0  0  0
   34.4198   30.2106   39.4567 H   0  0  0  0  0  0  0  0  0  0  0  0
   35.6205   28.5425   37.8727 H   0  0  0  0  0  0  0  0  0  0  0  0
   34.3682   27.3870   38.5285 H   0  0  0  0  0  0  0  0  0  0  0  0
   35.0638   28.5991   35.8323 H   0  0  0  0  0  0  0  0  0  0  0  0
   33.5767   29.4319   34.0107 H   0  0  0  0  0  0  0  0  0  0  0  0
   31.2923   30.2637   34.6115 H   0  0  0  0  0  0  0  0  0  0  0  0
   30.5665   30.2413   36.9640 H   0  0  0  0  0  0  0  0  0  0  0  0
   32.0272   29.4156   38.7926 H   0  0  0  0  0  0  0  0  0  0  0  0
  1 14  1  0
  2  1  2  0
  3  4  1  0
  3  2  1  0
  4  9  2  0
  5  6  2  0
  5  4  1  0
  6  7  1  0
  7  8  2  0
  9  1  1  0
  9  8  1  0
 11 10  2  0
 12 11  1  0
 13 12  2  0
 13 14  1  0
 14 15  2  0
 15 10  1  0
 16  3  1  0
 17 16  1  0
 18 23  1  0
 18 17  1  0
 19 18  2  0
 20 21  2  0
 20 19  1  0
 21 22  1  0
 22 23  2  0
  2 24  1  0
  5 25  1  0
  6 26  1  0
  7 27  1  0
  8 28  1  0
 10 29  1  0
 11 30  1  0
 12 31  1  0
 16 32  1  0
 16 33  1  0
 17 34  1  0
 17 35  1  0
 19 36  1  0
 20 37  1  0
 21 38  1  0
 22 39  1  0
 23 40  1  0
M  ISO  8  24  14  25  14  26  14  27  14  28  14  29  14  30  14  31  14
M  ISO  8  32   8  33   8  34   8  35   8  36  14  37  14  38  14  39  14
M  ISO  1  40  14
M  END
>  <minimizedAffinity>  (1) 
-5.38850164

>  <minimizedRMSD>  (1) 
0.846934736

$$$$
