
     RDKit          3D

 40 43  0  0  0  0  0  0  0  0999 V2000
   38.4570   28.1610   41.9420 C   0  0  0  0  0  0  0  0  0  0  0  0
   37.1730   28.5410   41.5290 C   0  0  0  0  0  0  0  0  0  0  0  0
   37.2160   29.8500   41.2360 N   0  0  0  0  0  0  0  0  0  0  0  0
   38.4370   30.3500   41.4280 C   0  0  0  0  0  0  0  0  0  0  0  0
   38.8940   31.6360   41.2440 C   0  0  0  0  0  0  0  0  0  0  0  0
   40.2320   31.8860   41.5250 C   0  0  0  0  0  0  0  0  0  0  0  0
   41.0650   30.8600   41.9740 C   0  0  0  0  0  0  0  0  0  0  0  0
   40.5960   29.5800   42.1530 C   0  0  0  0  0  0  0  0  0  0  0  0
   39.2650   29.3120   41.8790 C   0  0  0  0  0  0  0  0  0  0  0  0
   40.1130   25.5440   43.8700 C   0  0  0  0  0  0  0  0  0  0  0  0
   39.7430   24.3600   43.1780 C   0  0  0  0  0  0  0  0  0  0  0  0
   38.9230   24.4890   42.0510 C   0  0  0  0  0  0  0  0  0  0  0  0
   38.5400   25.7350   41.7000 N   0  0  0  0  0  0  0  0  0  0  0  0
   38.8960   26.8390   42.3600 C   0  0  0  0  0  0  0  0  0  0  0  0
   39.6830   26.7480   43.4470 N   0  0  0  0  0  0  0  0  0  0  0  0
   36.0230   30.5140   40.7790 C   0  0  0  0  0  0  0  0  0  0  0  0
   35.2030   29.6760   39.8260 C   0  0  0  0  0  0  0  0  0  0  0  0
   35.6750   29.7000   38.4740 N   0  0  0  0  0  0  0  0  0  0  0  0
   36.7380   30.4150   38.0580 C   0  0  0  0  0  0  0  0  0  0  0  0
   37.0770   30.3390   36.7160 C   0  0  0  0  0  0  0  0  0  0  0  0
   36.3790   29.5750   35.8250 C   0  0  0  0  0  0  0  0  0  0  0  0
   36.6480   29.4740   34.5970 O   0  0  0  0  0  0  0  0  0  0  0  0
   35.3060   28.8560   36.2580 N   0  0  0  0  0  0  0  0  0  0  0  0
   35.0000   28.9520   37.5760 C   0  0  0  0  0  0  0  0  0  0  0  0
   33.9980   28.2690   37.9340 O   0  0  0  0  0  0  0  0  0  0  0  0
   36.2917   27.8866   41.4580 H   0  0  0  0  0  0  0  0  0  0  0  0
   38.2260   32.4343   40.8884 H   0  0  0  0  0  0  0  0  0  0  0  0
   40.6375   32.8999   41.3926 H   0  0  0  0  0  0  0  0  0  0  0  0
   42.1209   31.0805   42.1896 H   0  0  0  0  0  0  0  0  0  0  0  0
   41.2660   28.7829   42.5075 H   0  0  0  0  0  0  0  0  0  0  0  0
   40.7566   25.4768   44.7595 H   0  0  0  0  0  0  0  0  0  0  0  0
   40.0900   23.3728   43.5171 H   0  0  0  0  0  0  0  0  0  0  0  0
   38.6030   23.6091   41.4736 H   0  0  0  0  0  0  0  0  0  0  0  0
   35.4018   30.7577   41.6535 H   0  0  0  0  0  0  0  0  0  0  0  0
   36.3393   31.4149   40.2327 H   0  0  0  0  0  0  0  0  0  0  0  0
   35.2195   28.6345   40.1795 H   0  0  0  0  0  0  0  0  0  0  0  0
   34.1900   30.1047   39.8167 H   0  0  0  0  0  0  0  0  0  0  0  0
   37.3160   31.0366   38.7577 H   0  0  0  0  0  0  0  0  0  0  0  0
   37.9411   30.9161   36.3551 H   0  0  0  0  0  0  0  0  0  0  0  0
   34.7544   28.2686   35.6164 H   0  0  0  0  0  0  0  0  0  0  0  0
  1 14  1  0
  2  1  2  0
  3  4  1  0
  3  2  1  0
  4  9  2  0
  5  4  1  0
  5  6  2  0
  6  7  1  0
  7  8  2  0
  9  1  1  0
  9  8  1  0
 11 10  2  0
 12 11  1  0
 13 12  2  0
 13 14  1  0
 14 15  2  0
 15 10  1  0
 16  3  1  0
 17 16  1  0
 18 17  1  0
 19 18  1  0
 20 19  2  0
 21 23  1  0
 21 20  1  0
 22 21  2  0
 23 24  1  0
 24 25  2  0
 24 18  1  0
  2 26  1  0
  5 27  1  0
  6 28  1  0
  7 29  1  0
  8 30  1  0
 10 31  1  0
 11 32  1  0
 12 33  1  0
 16 34  1  0
 16 35  1  0
 17 36  1  0
 17 37  1  0
 19 38  1  0
 20 39  1  0
 23 40  1  0
M  ISO  8  26  14  27  14  28  14  29  14  30  14  31  14  32  14  33  14
M  ISO  7  34   8  35   8  36   8  37   8  38  14  39  14  40   9
M  END
>  <minimizedAffinity>  (1) 
-5.23213863

>  <minimizedRMSD>  (1) 
3.10436988

$$$$
