
     RDKit          3D

 36 39  0  0  0  0  0  0  0  0999 V2000
   36.8600   29.6840   40.1360 C   0  0  0  0  0  0  0  0  0  0  0  0
   37.7590   30.7450   40.2580 C   0  0  0  0  0  0  0  0  0  0  0  0
   38.3400   30.6240   41.4640 N   0  0  0  0  0  0  0  0  0  0  0  0
   37.8730   29.5580   42.1240 C   0  0  0  0  0  0  0  0  0  0  0  0
   38.2170   29.1000   43.3780 C   0  0  0  0  0  0  0  0  0  0  0  0
   37.5750   27.9530   43.8380 C   0  0  0  0  0  0  0  0  0  0  0  0
   36.6230   27.3090   43.0380 C   0  0  0  0  0  0  0  0  0  0  0  0
   36.2930   27.7870   41.7790 C   0  0  0  0  0  0  0  0  0  0  0  0
   36.9310   28.9320   41.3150 C   0  0  0  0  0  0  0  0  0  0  0  0
   33.8530   28.8550   38.2270 C   0  0  0  0  0  0  0  0  0  0  0  0
   34.3240   28.8340   36.8850 C   0  0  0  0  0  0  0  0  0  0  0  0
   35.6800   29.1100   36.6660 C   0  0  0  0  0  0  0  0  0  0  0  0
   36.4640   29.3770   37.7350 N   0  0  0  0  0  0  0  0  0  0  0  0
   35.9900   29.3890   38.9930 C   0  0  0  0  0  0  0  0  0  0  0  0
   34.6840   29.1290   39.2510 N   0  0  0  0  0  0  0  0  0  0  0  0
   39.3280   31.5860   41.8810 C   0  0  0  0  0  0  0  0  0  0  0  0
   40.7330   31.2200   41.4750 C   0  0  0  0  0  0  0  0  0  0  0  0
   41.2190   32.2570   40.5270 C   0  0  0  0  0  0  0  0  0  0  0  0
   42.3240   32.9720   40.8630 C   0  0  0  0  0  0  0  0  0  0  0  0
   42.5960   34.1320   39.4570 S   0  0  0  0  0  0  0  0  0  0  0  0
   41.0650   33.4000   38.6030 C   0  0  0  0  0  0  0  0  0  0  0  0
   40.7650   32.6420   39.3650 N   0  0  0  0  0  0  0  0  0  0  0  0
   37.9542   31.5288   39.5113 H   0  0  0  0  0  0  0  0  0  0  0  0
   38.9684   29.6197   43.9906 H   0  0  0  0  0  0  0  0  0  0  0  0
   37.8165   27.5515   44.8332 H   0  0  0  0  0  0  0  0  0  0  0  0
   36.1259   26.4038   43.4168 H   0  0  0  0  0  0  0  0  0  0  0  0
   35.5430   27.2718   41.1609 H   0  0  0  0  0  0  0  0  0  0  0  0
   32.7930   28.6441   38.4318 H   0  0  0  0  0  0  0  0  0  0  0  0
   33.6469   28.6088   36.0479 H   0  0  0  0  0  0  0  0  0  0  0  0
   36.0972   29.1095   35.6482 H   0  0  0  0  0  0  0  0  0  0  0  0
   39.0781   32.5586   41.4320 H   0  0  0  0  0  0  0  0  0  0  0  0
   39.3064   31.6159   42.9804 H   0  0  0  0  0  0  0  0  0  0  0  0
   41.3828   31.1905   42.3621 H   0  0  0  0  0  0  0  0  0  0  0  0
   40.7486   30.2283   40.9994 H   0  0  0  0  0  0  0  0  0  0  0  0
   42.9272   32.8786   41.7781 H   0  0  0  0  0  0  0  0  0  0  0  0
   40.6061   33.6512   37.6354 H   0  0  0  0  0  0  0  0  0  0  0  0
  1  2  2  0
  1  9  1  0
  2  3  1  0
  3 16  1  0
  3  4  1  0
  4  5  2  0
  5  6  1  0
  7  6  2  0
  8  7  1  0
  9  8  2  0
  9  4  1  0
 10 15  2  0
 11 10  1  0
 12 11  2  0
 12 13  1  0
 13 14  2  0
 14 15  1  0
 14  1  1  0
 17 16  1  0
 18 19  2  0
 18 17  1  0
 20 19  1  0
 21 22  2  0
 21 20  1  0
 22 18  1  0
  2 23  1  0
  5 24  1  0
  6 25  1  0
  7 26  1  0
  8 27  1  0
 10 28  1  0
 11 29  1  0
 12 30  1  0
 16 31  1  0
 16 32  1  0
 17 33  1  0
 17 34  1  0
 19 35  1  0
 21 36  1  0
M  ISO  8  23  14  24  14  25  14  26  14  27  14  28  14  29  14  30  14
M  ISO  6  31   8  32   8  33   8  34   8  35  14  36  14
M  END
>  <minimizedAffinity>  (1) 
-5.06758499

>  <minimizedRMSD>  (1) 
7.06607103

$$$$
