
     RDKit          3D

 45 48  0  0  0  0  0  0  0  0999 V2000
   37.6210   28.2190   41.4570 C   0  0  0  0  0  0  0  0  0  0  0  0
   36.3660   27.9790   40.9190 C   0  0  0  0  0  0  0  0  0  0  0  0
   35.9080   29.1340   40.4090 N   0  0  0  0  0  0  0  0  0  0  0  0
   36.8040   30.1310   40.5830 C   0  0  0  0  0  0  0  0  0  0  0  0
   36.7290   31.4530   40.2130 C   0  0  0  0  0  0  0  0  0  0  0  0
   37.8150   32.2660   40.5250 C   0  0  0  0  0  0  0  0  0  0  0  0
   38.9180   31.7390   41.1840 C   0  0  0  0  0  0  0  0  0  0  0  0
   38.9860   30.4110   41.5520 C   0  0  0  0  0  0  0  0  0  0  0  0
   37.9130   29.5840   41.2510 C   0  0  0  0  0  0  0  0  0  0  0  0
   39.6260   26.6250   44.0590 C   0  0  0  0  0  0  0  0  0  0  0  0
   40.1640   25.4900   43.3950 C   0  0  0  0  0  0  0  0  0  0  0  0
   39.8200   25.2910   42.0360 C   0  0  0  0  0  0  0  0  0  0  0  0
   38.9980   26.2030   41.4690 N   0  0  0  0  0  0  0  0  0  0  0  0
   38.5020   27.2690   42.1170 C   0  0  0  0  0  0  0  0  0  0  0  0
   38.8120   27.4890   43.4200 N   0  0  0  0  0  0  0  0  0  0  0  0
   34.6150   29.2010   39.7760 C   0  0  0  0  0  0  0  0  0  0  0  0
   34.5760   28.5090   38.4480 C   0  0  0  0  0  0  0  0  0  0  0  0
   33.8700   29.1160   37.4000 N   0  0  0  0  0  0  0  0  0  0  0  0
   34.1440   28.3490   36.1760 C   0  0  0  0  0  0  0  0  0  0  0  0
   33.8240   29.2850   35.0380 C   0  0  0  0  0  0  0  0  0  0  0  0
   32.4110   29.7790   35.0640 C   0  0  0  0  0  0  0  0  0  0  0  0
   31.8090   29.9220   36.4180 C   0  0  0  0  0  0  0  0  0  0  0  0
   32.4480   29.1840   37.5260 C   0  0  0  0  0  0  0  0  0  0  0  0
   35.8387   27.0136   40.9112 H   0  0  0  0  0  0  0  0  0  0  0  0
   35.8465   31.8521   39.6915 H   0  0  0  0  0  0  0  0  0  0  0  0
   37.7994   33.3305   40.2484 H   0  0  0  0  0  0  0  0  0  0  0  0
   39.7641   32.4012   41.4200 H   0  0  0  0  0  0  0  0  0  0  0  0
   39.8711   30.0165   42.0725 H   0  0  0  0  0  0  0  0  0  0  0  0
   39.8785   26.8022   45.1149 H   0  0  0  0  0  0  0  0  0  0  0  0
   40.8274   24.7874   43.9206 H   0  0  0  0  0  0  0  0  0  0  0  0
   40.2045   24.4322   41.4663 H   0  0  0  0  0  0  0  0  0  0  0  0
   33.8754   28.7286   40.4391 H   0  0  0  0  0  0  0  0  0  0  0  0
   34.3899   30.2632   39.5999 H   0  0  0  0  0  0  0  0  0  0  0  0
   35.6169   28.3899   38.1127 H   0  0  0  0  0  0  0  0  0  0  0  0
   34.0220   27.5791   38.6440 H   0  0  0  0  0  0  0  0  0  0  0  0
   35.2009   28.0462   36.1399 H   0  0  0  0  0  0  0  0  0  0  0  0
   33.5462   27.4269   36.1282 H   0  0  0  0  0  0  0  0  0  0  0  0
   33.9917   28.7534   34.0897 H   0  0  0  0  0  0  0  0  0  0  0  0
   34.4802   30.1620   35.1400 H   0  0  0  0  0  0  0  0  0  0  0  0
   32.3871   30.7647   34.5763 H   0  0  0  0  0  0  0  0  0  0  0  0
   31.8133   29.0146   34.5459 H   0  0  0  0  0  0  0  0  0  0  0  0
   31.8302   30.9907   36.6776 H   0  0  0  0  0  0  0  0  0  0  0  0
   30.8051   29.4815   36.3280 H   0  0  0  0  0  0  0  0  0  0  0  0
   32.0475   28.1597   37.5429 H   0  0  0  0  0  0  0  0  0  0  0  0
   32.2240   29.7257   38.4568 H   0  0  0  0  0  0  0  0  0  0  0  0
  1 14  1  0
  2  1  2  0
  3  4  1  0
  3  2  1  0
  4  9  2  0
  5  6  2  0
  5  4  1  0
  6  7  1  0
  7  8  2  0
  9  1  1  0
  9  8  1  0
 11 10  2  0
 12 11  1  0
 13 12  2  0
 13 14  1  0
 14 15  2  0
 15 10  1  0
 16  3  1  0
 17 16  1  0
 18 23  1  0
 18 17  1  0
 19 18  1  0
 20 21  1  0
 20 19  1  0
 21 22  1  0
 22 23  1  0
  2 24  1  0
  5 25  1  0
  6 26  1  0
  7 27  1  0
  8 28  1  0
 10 29  1  0
 11 30  1  0
 12 31  1  0
 16 32  1  0
 16 33  1  0
 17 34  1  0
 17 35  1  0
 19 36  1  0
 19 37  1  0
 20 38  1  0
 20 39  1  0
 21 40  1  0
 21 41  1  0
 22 42  1  0
 22 43  1  0
 23 44  1  0
 23 45  1  0
M  ISO  8  24  14  25  14  26  14  27  14  28  14  29  14  30  14  31  14
M  ISO  8  32   8  33   8  34   8  35   8  36  13  37  13  38  13  39  13
M  ISO  6  40  13  41  13  42  13  43  13  44  13  45  13
M  END
>  <minimizedAffinity>  (1) 
-5.06300783

>  <minimizedRMSD>  (1) 
0.876665592

$$$$
