
     RDKit          3D

 43 46  0  0  0  0  0  0  0  0999 V2000
   37.6290   28.2010   41.4000 C   0  0  0  0  0  0  0  0  0  0  0  0
   36.3890   27.9360   40.8120 C   0  0  0  0  0  0  0  0  0  0  0  0
   35.9480   29.0910   40.3010 N   0  0  0  0  0  0  0  0  0  0  0  0
   36.8160   30.0950   40.5150 C   0  0  0  0  0  0  0  0  0  0  0  0
   36.7080   31.4090   40.1400 C   0  0  0  0  0  0  0  0  0  0  0  0
   37.7740   32.2440   40.5000 C   0  0  0  0  0  0  0  0  0  0  0  0
   38.8710   31.7390   41.1990 C   0  0  0  0  0  0  0  0  0  0  0  0
   38.9520   30.4140   41.5620 C   0  0  0  0  0  0  0  0  0  0  0  0
   37.9020   29.5680   41.2140 C   0  0  0  0  0  0  0  0  0  0  0  0
   39.5920   26.6430   44.0600 C   0  0  0  0  0  0  0  0  0  0  0  0
   40.1500   25.5060   43.4130 C   0  0  0  0  0  0  0  0  0  0  0  0
   39.8390   25.2950   42.0600 C   0  0  0  0  0  0  0  0  0  0  0  0
   39.0240   26.1860   41.4530 N   0  0  0  0  0  0  0  0  0  0  0  0
   38.5030   27.2600   42.0870 C   0  0  0  0  0  0  0  0  0  0  0  0
   38.7900   27.4780   43.3790 N   0  0  0  0  0  0  0  0  0  0  0  0
   34.6680   29.1390   39.6150 C   0  0  0  0  0  0  0  0  0  0  0  0
   34.6750   28.3540   38.3200 C   0  0  0  0  0  0  0  0  0  0  0  0
   33.9450   29.1780   37.2900 C   0  0  0  0  0  0  0  0  0  0  0  0
   34.1460   28.6830   35.8940 C   0  0  0  0  0  0  0  0  0  0  0  0
   33.0090   29.3420   35.1370 C   0  0  0  0  0  0  0  0  0  0  0  0
   32.0680   29.9220   36.1770 C   0  0  0  0  0  0  0  0  0  0  0  0
   32.4440   29.0840   37.4070 C   0  0  0  0  0  0  0  0  0  0  0  0
   35.8746   26.9644   40.7763 H   0  0  0  0  0  0  0  0  0  0  0  0
   35.8345   31.7863   39.5881 H   0  0  0  0  0  0  0  0  0  0  0  0
   37.7458   33.3096   40.2285 H   0  0  0  0  0  0  0  0  0  0  0  0
   39.6934   32.4185   41.4672 H   0  0  0  0  0  0  0  0  0  0  0  0
   39.8243   30.0327   42.1132 H   0  0  0  0  0  0  0  0  0  0  0  0
   39.8173   26.8387   45.1187 H   0  0  0  0  0  0  0  0  0  0  0  0
   40.8068   24.8114   43.9572 H   0  0  0  0  0  0  0  0  0  0  0  0
   40.2456   24.4323   41.5118 H   0  0  0  0  0  0  0  0  0  0  0  0
   33.8966   28.7197   40.2776 H   0  0  0  0  0  0  0  0  0  0  0  0
   34.4603   30.1905   39.3676 H   0  0  0  0  0  0  0  0  0  0  0  0
   35.7103   28.1756   37.9940 H   0  0  0  0  0  0  0  0  0  0  0  0
   34.1859   27.3779   38.4546 H   0  0  0  0  0  0  0  0  0  0  0  0
   34.3480   30.1846   37.4754 H   0  0  0  0  0  0  0  0  0  0  0  0
   35.1220   29.0000   35.4979 H   0  0  0  0  0  0  0  0  0  0  0  0
   34.1428   27.5858   35.8163 H   0  0  0  0  0  0  0  0  0  0  0  0
   33.3982   30.1422   34.4903 H   0  0  0  0  0  0  0  0  0  0  0  0
   32.4888   28.6157   34.4953 H   0  0  0  0  0  0  0  0  0  0  0  0
   32.2589   30.9925   36.3431 H   0  0  0  0  0  0  0  0  0  0  0  0
   31.0036   29.8757   35.9033 H   0  0  0  0  0  0  0  0  0  0  0  0
   32.0860   28.0469   37.3273 H   0  0  0  0  0  0  0  0  0  0  0  0
   32.0170   29.4204   38.3633 H   0  0  0  0  0  0  0  0  0  0  0  0
  1 14  1  0
  2  1  2  0
  3  4  1  0
  3  2  1  0
  4  9  2  0
  5  6  2  0
  5  4  1  0
  6  7  1  0
  7  8  2  0
  9  1  1  0
  9  8  1  0
 11 10  2  0
 12 11  1  0
 13 12  2  0
 13 14  1  0
 14 15  2  0
 15 10  1  0
 16  3  1  0
 17 16  1  0
 18 22  1  0
 18 17  1  0
 19 18  1  0
 20 19  1  0
 20 21  1  0
 21 22  1  0
  2 23  1  0
  5 24  1  0
  6 25  1  0
  7 26  1  0
  8 27  1  0
 10 28  1  0
 11 29  1  0
 12 30  1  0
 16 31  1  0
 16 32  1  0
 17 33  1  0
 17 34  1  0
 18 35  1  0
 19 36  1  0
 19 37  1  0
 20 38  1  0
 20 39  1  0
 21 40  1  0
 21 41  1  0
 22 42  1  0
 22 43  1  0
M  ISO  8  23  14  24  14  25  14  26  14  27  14  28  14  29  14  30  14
M  ISO  8  31   8  32   8  33   8  34   8  35  13  36  13  37  13  38  13
M  ISO  5  39  13  40  13  41  13  42  13  43  13
M  END
>  <minimizedAffinity>  (1) 
-5.05857801

>  <minimizedRMSD>  (1) 
1.01471996

$$$$
