
     RDKit          3D

 38 41  0  0  0  0  0  0  0  0999 V2000
   37.6180   28.2210   41.4030 C   0  0  0  0  0  0  0  0  0  0  0  0
   36.3730   27.9570   40.8270 C   0  0  0  0  0  0  0  0  0  0  0  0
   35.9390   29.1170   40.3210 N   0  0  0  0  0  0  0  0  0  0  0  0
   36.8010   30.1200   40.5200 C   0  0  0  0  0  0  0  0  0  0  0  0
   36.7250   31.4440   40.1590 C   0  0  0  0  0  0  0  0  0  0  0  0
   37.7920   32.2710   40.5060 C   0  0  0  0  0  0  0  0  0  0  0  0
   38.8820   31.7520   41.1920 C   0  0  0  0  0  0  0  0  0  0  0  0
   38.9530   30.4250   41.5520 C   0  0  0  0  0  0  0  0  0  0  0  0
   37.8900   29.5830   41.2110 C   0  0  0  0  0  0  0  0  0  0  0  0
   39.5880   26.6550   44.0600 C   0  0  0  0  0  0  0  0  0  0  0  0
   40.1340   25.5100   43.4090 C   0  0  0  0  0  0  0  0  0  0  0  0
   39.8070   25.2990   42.0460 C   0  0  0  0  0  0  0  0  0  0  0  0
   38.9960   26.2020   41.4570 N   0  0  0  0  0  0  0  0  0  0  0  0
   38.4940   27.2690   42.0850 C   0  0  0  0  0  0  0  0  0  0  0  0
   38.7880   27.4980   43.3840 N   0  0  0  0  0  0  0  0  0  0  0  0
   34.6500   29.1730   39.6460 C   0  0  0  0  0  0  0  0  0  0  0  0
   34.6480   28.3910   38.3510 C   0  0  0  0  0  0  0  0  0  0  0  0
   33.7300   28.9020   37.3340 C   0  0  0  0  0  0  0  0  0  0  0  0
   32.4600   29.3710   37.5880 C   0  0  0  0  0  0  0  0  0  0  0  0
   31.7400   29.8140   36.4890 C   0  0  0  0  0  0  0  0  0  0  0  0
   32.2810   29.7760   35.2490 N   0  0  0  0  0  0  0  0  0  0  0  0
   33.5260   29.3130   35.0220 C   0  0  0  0  0  0  0  0  0  0  0  0
   34.2390   28.8760   36.0970 N   0  0  0  0  0  0  0  0  0  0  0  0
   35.8530   26.9882   40.7957 H   0  0  0  0  0  0  0  0  0  0  0  0
   35.8531   31.8370   39.6155 H   0  0  0  0  0  0  0  0  0  0  0  0
   37.7705   33.3371   40.2358 H   0  0  0  0  0  0  0  0  0  0  0  0
   39.7140   32.4214   41.4558 H   0  0  0  0  0  0  0  0  0  0  0  0
   39.8265   30.0359   42.0957 H   0  0  0  0  0  0  0  0  0  0  0  0
   39.8217   26.8490   45.1172 H   0  0  0  0  0  0  0  0  0  0  0  0
   40.7898   24.8109   43.9487 H   0  0  0  0  0  0  0  0  0  0  0  0
   40.1987   24.4339   41.4909 H   0  0  0  0  0  0  0  0  0  0  0  0
   33.8822   28.7547   40.3135 H   0  0  0  0  0  0  0  0  0  0  0  0
   34.4408   30.2257   39.4049 H   0  0  0  0  0  0  0  0  0  0  0  0
   35.6664   28.4118   37.9358 H   0  0  0  0  0  0  0  0  0  0  0  0
   34.3048   27.3759   38.5997 H   0  0  0  0  0  0  0  0  0  0  0  0
   32.0409   29.3928   38.6048 H   0  0  0  0  0  0  0  0  0  0  0  0
   30.7192   30.2001   36.6263 H   0  0  0  0  0  0  0  0  0  0  0  0
   33.9502   29.2889   34.0074 H   0  0  0  0  0  0  0  0  0  0  0  0
  1 14  1  0
  2  1  2  0
  3  4  1  0
  3  2  1  0
  4  9  2  0
  5  6  2  0
  5  4  1  0
  6  7  1  0
  7  8  2  0
  9  1  1  0
  9  8  1  0
 11 10  2  0
 12 11  1  0
 13 12  2  0
 13 14  1  0
 14 15  2  0
 15 10  1  0
 16  3  1  0
 17 16  1  0
 18 19  2  0
 18 17  1  0
 20 19  1  0
 21 20  2  0
 22 21  1  0
 22 23  2  0
 23 18  1  0
  2 24  1  0
  5 25  1  0
  6 26  1  0
  7 27  1  0
  8 28  1  0
 10 29  1  0
 11 30  1  0
 12 31  1  0
 16 32  1  0
 16 33  1  0
 17 34  1  0
 17 35  1  0
 19 36  1  0
 20 37  1  0
 22 38  1  0
M  ISO  8  24  14  25  14  26  14  27  14  28  14  29  14  30  14  31  14
M  ISO  7  32   8  33   8  34   8  35   8  36  14  37  14  38  14
M  END
>  <minimizedAffinity>  (1) 
-5.01281548

>  <minimizedRMSD>  (1) 
0.900302231

$$$$
