
     RDKit          3D

 43 47  0  0  0  0  0  0  0  0999 V2000
   37.3490   28.2540   40.7500 C   0  0  0  0  0  0  0  0  0  0  0  0
   36.0090   28.1120   40.4190 C   0  0  0  0  0  0  0  0  0  0  0  0
   35.6990   29.1120   39.5800 N   0  0  0  0  0  0  0  0  0  0  0  0
   36.7500   29.8980   39.3410 C   0  0  0  0  0  0  0  0  0  0  0  0
   36.8380   31.0160   38.5450 C   0  0  0  0  0  0  0  0  0  0  0  0
   38.0780   31.6550   38.4760 C   0  0  0  0  0  0  0  0  0  0  0  0
   39.1700   31.1600   39.1950 C   0  0  0  0  0  0  0  0  0  0  0  0
   39.0590   30.0370   39.9890 C   0  0  0  0  0  0  0  0  0  0  0  0
   37.8300   29.3930   40.0650 C   0  0  0  0  0  0  0  0  0  0  0  0
   39.0730   27.0590   43.7460 C   0  0  0  0  0  0  0  0  0  0  0  0
   39.6570   25.8380   43.3050 C   0  0  0  0  0  0  0  0  0  0  0  0
   39.4450   25.4480   41.9740 C   0  0  0  0  0  0  0  0  0  0  0  0
   38.6980   26.2570   41.1960 N   0  0  0  0  0  0  0  0  0  0  0  0
   38.1490   27.4130   41.6300 C   0  0  0  0  0  0  0  0  0  0  0  0
   38.3340   27.8170   42.9020 N   0  0  0  0  0  0  0  0  0  0  0  0
   34.3540   29.2160   39.0670 C   0  0  0  0  0  0  0  0  0  0  0  0
   34.0480   28.2180   37.9720 C   0  0  0  0  0  0  0  0  0  0  0  0
   33.3670   28.9040   36.8890 N   0  0  0  0  0  0  0  0  0  0  0  0
   33.6940   29.0420   35.5990 C   0  0  0  0  0  0  0  0  0  0  0  0
   32.7200   29.7780   34.9920 N   0  0  0  0  0  0  0  0  0  0  0  0
   31.8120   30.0800   35.9270 C   0  0  0  0  0  0  0  0  0  0  0  0
   30.6420   30.8040   35.8210 C   0  0  0  0  0  0  0  0  0  0  0  0
   29.8950   30.9630   36.9340 N   0  0  0  0  0  0  0  0  0  0  0  0
   30.2650   30.4400   38.1080 C   0  0  0  0  0  0  0  0  0  0  0  0
   31.4020   29.7310   38.2260 N   0  0  0  0  0  0  0  0  0  0  0  0
   32.1900   29.5410   37.1400 C   0  0  0  0  0  0  0  0  0  0  0  0
   30.1550   31.4020   34.6280 N   0  0  0  0  0  0  0  0  0  0  0  0
   35.3279   27.3261   40.7776 H   0  0  0  0  0  0  0  0  0  0  0  0
   35.9681   31.3913   37.9860 H   0  0  0  0  0  0  0  0  0  0  0  0
   38.1961   32.5532   37.8521 H   0  0  0  0  0  0  0  0  0  0  0  0
   40.1385   31.6769   39.1263 H   0  0  0  0  0  0  0  0  0  0  0  0
   39.9261   29.6591   40.5506 H   0  0  0  0  0  0  0  0  0  0  0  0
   39.2238   27.3903   44.7840 H   0  0  0  0  0  0  0  0  0  0  0  0
   40.2569   25.2184   43.9877 H   0  0  0  0  0  0  0  0  0  0  0  0
   39.8732   24.5149   41.5791 H   0  0  0  0  0  0  0  0  0  0  0  0
   33.6509   29.0496   39.8965 H   0  0  0  0  0  0  0  0  0  0  0  0
   34.2511   30.2196   38.6286 H   0  0  0  0  0  0  0  0  0  0  0  0
   34.9854   27.7790   37.5997 H   0  0  0  0  0  0  0  0  0  0  0  0
   33.4074   27.4156   38.3667 H   0  0  0  0  0  0  0  0  0  0  0  0
   34.5920   28.6330   35.1129 H   0  0  0  0  0  0  0  0  0  0  0  0
   29.6286   30.5922   38.9922 H   0  0  0  0  0  0  0  0  0  0  0  0
   29.2687   31.9267   34.6396 H   0  0  0  0  0  0  0  0  0  0  0  0
   30.6882   31.3109   33.7514 H   0  0  0  0  0  0  0  0  0  0  0  0
  1 14  1  0
  2  1  2  0
  3  2  1  0
  4  3  1  0
  4  9  2  0
  5  4  1  0
  6  5  2  0
  6  7  1  0
  7  8  2  0
  8  9  1  0
  9  1  1  0
 11 10  2  0
 12 11  1  0
 13 14  1  0
 13 12  2  0
 14 15  2  0
 15 10  1  0
 16  3  1  0
 17 16  1  0
 18 26  1  0
 18 17  1  0
 19 18  1  0
 20 19  2  0
 20 21  1  0
 21 26  2  0
 22 21  1  0
 22 23  2  0
 23 24  1  0
 24 25  2  0
 26 25  1  0
 27 22  1  0
  2 28  1  0
  5 29  1  0
  6 30  1  0
  7 31  1  0
  8 32  1  0
 10 33  1  0
 11 34  1  0
 12 35  1  0
 16 36  1  0
 16 37  1  0
 17 38  1  0
 17 39  1  0
 19 40  1  0
 24 41  1  0
 27 42  1  0
 27 43  1  0
M  ISO  8  28  14  29  14  30  14  31  14  32  14  33  14  34  14  35  14
M  ISO  6  36   8  37   8  38   8  39   8  40  14  41  14
M  END
>  <minimizedAffinity>  (1) 
-4.99600458

>  <minimizedRMSD>  (1) 
2.11661577

$$$$
