
     RDKit          3D

 36 39  0  0  0  0  0  0  0  0999 V2000
   37.5880   28.1850   41.4190 C   0  0  0  0  0  0  0  0  0  0  0  0
   36.3440   27.9400   40.8520 C   0  0  0  0  0  0  0  0  0  0  0  0
   35.9080   29.0980   40.3470 N   0  0  0  0  0  0  0  0  0  0  0  0
   36.7850   30.0910   40.5460 C   0  0  0  0  0  0  0  0  0  0  0  0
   36.6920   31.4100   40.1760 C   0  0  0  0  0  0  0  0  0  0  0  0
   37.7690   32.2330   40.5180 C   0  0  0  0  0  0  0  0  0  0  0  0
   38.8740   31.7160   41.2030 C   0  0  0  0  0  0  0  0  0  0  0  0
   38.9380   30.3880   41.5610 C   0  0  0  0  0  0  0  0  0  0  0  0
   37.8740   29.5580   41.2280 C   0  0  0  0  0  0  0  0  0  0  0  0
   39.6070   26.6270   44.0450 C   0  0  0  0  0  0  0  0  0  0  0  0
   40.1230   25.4710   43.4020 C   0  0  0  0  0  0  0  0  0  0  0  0
   39.7560   25.2490   42.0510 C   0  0  0  0  0  0  0  0  0  0  0  0
   38.9410   26.1490   41.4580 N   0  0  0  0  0  0  0  0  0  0  0  0
   38.4640   27.2410   42.0930 C   0  0  0  0  0  0  0  0  0  0  0  0
   38.8030   27.4660   43.3790 N   0  0  0  0  0  0  0  0  0  0  0  0
   34.6140   29.1570   39.6800 C   0  0  0  0  0  0  0  0  0  0  0  0
   34.6400   28.5040   38.3140 C   0  0  0  0  0  0  0  0  0  0  0  0
   33.4930   28.9670   37.5570 N   0  0  0  0  0  0  0  0  0  0  0  0
   33.3320   29.0740   36.2240 C   0  0  0  0  0  0  0  0  0  0  0  0
   32.0740   29.5600   36.0190 N   0  0  0  0  0  0  0  0  0  0  0  0
   31.4740   29.7480   37.2190 C   0  0  0  0  0  0  0  0  0  0  0  0
   32.3940   29.3670   38.1370 N   0  0  0  0  0  0  0  0  0  0  0  0
   35.8170   26.9749   40.8239 H   0  0  0  0  0  0  0  0  0  0  0  0
   35.8150   31.7991   39.6380 H   0  0  0  0  0  0  0  0  0  0  0  0
   37.7475   33.2985   40.2456 H   0  0  0  0  0  0  0  0  0  0  0  0
   39.7088   32.3842   41.4609 H   0  0  0  0  0  0  0  0  0  0  0  0
   39.8122   29.9925   42.0989 H   0  0  0  0  0  0  0  0  0  0  0  0
   39.8683   26.8341   45.0932 H   0  0  0  0  0  0  0  0  0  0  0  0
   40.7848   24.7717   43.9340 H   0  0  0  0  0  0  0  0  0  0  0  0
   40.1238   24.3699   41.5015 H   0  0  0  0  0  0  0  0  0  0  0  0
   33.8704   28.6404   40.3047 H   0  0  0  0  0  0  0  0  0  0  0  0
   34.3558   30.2172   39.5408 H   0  0  0  0  0  0  0  0  0  0  0  0
   35.5663   28.7802   37.7890 H   0  0  0  0  0  0  0  0  0  0  0  0
   34.6028   27.4098   38.4202 H   0  0  0  0  0  0  0  0  0  0  0  0
   34.0715   28.8189   35.4507 H   0  0  0  0  0  0  0  0  0  0  0  0
   30.4590   30.1280   37.4071 H   0  0  0  0  0  0  0  0  0  0  0  0
  1 14  1  0
  2  1  2  0
  3  4  1  0
  3  2  1  0
  4  9  2  0
  5  6  2  0
  5  4  1  0
  6  7  1  0
  7  8  2  0
  9  1  1  0
  9  8  1  0
 11 10  2  0
 12 11  1  0
 13 12  2  0
 13 14  1  0
 14 15  2  0
 15 10  1  0
 16  3  1  0
 17 16  1  0
 18 22  1  0
 18 17  1  0
 19 18  1  0
 20 19  2  0
 20 21  1  0
 21 22  2  0
  2 23  1  0
  5 24  1  0
  6 25  1  0
  7 26  1  0
  8 27  1  0
 10 28  1  0
 11 29  1  0
 12 30  1  0
 16 31  1  0
 16 32  1  0
 17 33  1  0
 17 34  1  0
 19 35  1  0
 21 36  1  0
M  ISO  8  23  14  24  14  25  14  26  14  27  14  28  14  29  14  30  14
M  ISO  6  31   8  32   8  33   8  34   8  35  14  36  14
M  END
>  <minimizedAffinity>  (1) 
-4.63246202

>  <minimizedRMSD>  (1) 
0.545927405

$$$$
