
     RDKit          3D

 31 33  0  0  0  0  0  0  0  0999 V2000
   37.6300   28.2190   41.5490 C   0  0  0  0  0  0  0  0  0  0  0  0
   36.3320   27.9840   41.0840 C   0  0  0  0  0  0  0  0  0  0  0  0
   35.8800   29.1450   40.5880 N   0  0  0  0  0  0  0  0  0  0  0  0
   36.7900   30.1130   40.6980 C   0  0  0  0  0  0  0  0  0  0  0  0
   36.7060   31.4380   40.3080 C   0  0  0  0  0  0  0  0  0  0  0  0
   37.8230   32.2390   40.5480 C   0  0  0  0  0  0  0  0  0  0  0  0
   38.9650   31.7180   41.1520 C   0  0  0  0  0  0  0  0  0  0  0  0
   39.0280   30.3950   41.5340 C   0  0  0  0  0  0  0  0  0  0  0  0
   37.9190   29.5650   41.3060 C   0  0  0  0  0  0  0  0  0  0  0  0
   39.7140   26.5900   44.0690 C   0  0  0  0  0  0  0  0  0  0  0  0
   40.2520   25.4670   43.3530 C   0  0  0  0  0  0  0  0  0  0  0  0
   39.8760   25.3060   42.0150 C   0  0  0  0  0  0  0  0  0  0  0  0
   39.0340   26.2130   41.4840 N   0  0  0  0  0  0  0  0  0  0  0  0
   38.5380   27.2660   42.1750 C   0  0  0  0  0  0  0  0  0  0  0  0
   38.8770   27.4510   43.4600 N   0  0  0  0  0  0  0  0  0  0  0  0
   34.5580   29.2140   40.0310 C   0  0  0  0  0  0  0  0  0  0  0  0
   34.4910   28.8110   38.5750 C   0  0  0  0  0  0  0  0  0  0  0  0
   33.1260   28.8290   38.2210 O   0  0  0  0  0  0  0  0  0  0  0  0
   35.7864   27.0295   41.1185 H   0  0  0  0  0  0  0  0  0  0  0  0
   35.8006   31.8411   39.8309 H   0  0  0  0  0  0  0  0  0  0  0  0
   37.8014   33.2992   40.2555 H   0  0  0  0  0  0  0  0  0  0  0  0
   39.8310   32.3733   41.3271 H   0  0  0  0  0  0  0  0  0  0  0  0
   39.9349   29.9951   42.0110 H   0  0  0  0  0  0  0  0  0  0  0  0
   39.9878   26.7477   45.1226 H   0  0  0  0  0  0  0  0  0  0  0  0
   40.9367   24.7573   43.8403 H   0  0  0  0  0  0  0  0  0  0  0  0
   40.2560   24.4654   41.4159 H   0  0  0  0  0  0  0  0  0  0  0  0
   33.9027   28.5443   40.6074 H   0  0  0  0  0  0  0  0  0  0  0  0
   34.2387   30.2650   40.0891 H   0  0  0  0  0  0  0  0  0  0  0  0
   35.0543   29.5249   37.9560 H   0  0  0  0  0  0  0  0  0  0  0  0
   34.9321   27.8161   38.4152 H   0  0  0  0  0  0  0  0  0  0  0  0
   32.5723   28.8363   39.0417 H   0  0  0  0  0  0  0  0  0  0  0  0
  1 14  1  0
  2  1  2  0
  3  4  1  0
  3  2  1  0
  4  9  2  0
  5  6  2  0
  5  4  1  0
  6  7  1  0
  7  8  2  0
  9  8  1  0
  9  1  1  0
 11 10  2  0
 12 11  1  0
 13 12  2  0
 13 14  1  0
 14 15  2  0
 15 10  1  0
 16  3  1  0
 17 16  1  0
 18 17  1  0
  2 19  1  0
  5 20  1  0
  6 21  1  0
  7 22  1  0
  8 23  1  0
 10 24  1  0
 11 25  1  0
 12 26  1  0
 16 27  1  0
 16 28  1  0
 17 29  1  0
 17 30  1  0
 18 31  1  0
M  ISO  8  19  14  20  14  21  14  22  14  23  14  24  14  25  14  26  14
M  ISO  5  27   8  28   8  29   8  30   8  31   3
M  END
>  <minimizedAffinity>  (1) 
-4.56683254

>  <minimizedRMSD>  (1) 
0.0362073556

$$$$
