
     RDKit          3D

 28 30  0  0  0  0  0  0  0  0999 V2000
   36.8920   26.8800   41.4810 C   0  0  0  0  0  0  0  0  0  0  0  0
   36.9890   25.9610   40.4390 C   0  0  0  0  0  0  0  0  0  0  0  0
   37.0280   24.7430   41.0680 C   0  0  0  0  0  0  0  0  0  0  0  0
   36.9600   24.9030   42.3970 N   0  0  0  0  0  0  0  0  0  0  0  0
   36.8770   26.2100   42.6610 N   0  0  0  0  0  0  0  0  0  0  0  0
   37.1270   23.4970   40.3900 N   0  0  0  0  0  0  0  0  0  0  0  0
   38.2840   22.7840   40.4090 C   0  0  0  0  0  0  0  0  0  0  0  0
   38.4830   21.5720   39.7870 C   0  0  0  0  0  0  0  0  0  0  0  0
   37.4120   21.0500   39.0900 C   0  0  0  0  0  0  0  0  0  0  0  0
   37.5470   19.8120   38.4290 N   0  0  0  0  0  0  0  0  0  0  0  0
   36.2700   21.7750   39.0830 N   0  0  0  0  0  0  0  0  0  0  0  0
   36.1250   22.9430   39.7000 C   0  0  0  0  0  0  0  0  0  0  0  0
   35.0320   23.5220   39.6270 O   0  0  0  0  0  0  0  0  0  0  0  0
   37.8400   29.2030   41.6530 C   0  0  0  0  0  0  0  0  0  0  0  0
   36.8180   28.3300   41.2860 C   0  0  0  0  0  0  0  0  0  0  0  0
   35.6510   28.8490   40.7030 C   0  0  0  0  0  0  0  0  0  0  0  0
   35.5820   30.2120   40.5230 N   0  0  0  0  0  0  0  0  0  0  0  0
   36.6180   31.0260   40.9030 C   0  0  0  0  0  0  0  0  0  0  0  0
   37.7350   30.5210   41.4620 N   0  0  0  0  0  0  0  0  0  0  0  0
   37.0259   26.1654   39.3588 H   0  0  0  0  0  0  0  0  0  0  0  0
   36.9700   24.1467   43.0961 H   0  0  0  0  0  0  0  0  0  0  0  0
   39.1307   23.2102   40.9670 H   0  0  0  0  0  0  0  0  0  0  0  0
   39.4474   21.0458   39.8427 H   0  0  0  0  0  0  0  0  0  0  0  0
   36.7514   19.4173   37.9073 H   0  0  0  0  0  0  0  0  0  0  0  0
   38.4412   19.3023   38.4678 H   0  0  0  0  0  0  0  0  0  0  0  0
   38.7545   28.7976   42.1106 H   0  0  0  0  0  0  0  0  0  0  0  0
   34.8227   28.1910   40.4013 H   0  0  0  0  0  0  0  0  0  0  0  0
   36.5355   32.1120   40.7485 H   0  0  0  0  0  0  0  0  0  0  0  0
  1  5  2  0
  2  3  2  0
  2  1  1  0
  3  4  1  0
  4  5  1  0
  6  7  1  0
  6  3  1  0
  8  7  2  0
  9  8  1  0
 10  9  1  0
 11  9  2  0
 11 12  1  0
 12  6  1  0
 13 12  2  0
 15  1  1  0
 15 14  2  0
 16 15  1  0
 17 16  2  0
 17 18  1  0
 18 19  2  0
 19 14  1  0
  2 20  1  0
  4 21  1  0
  7 22  1  0
  8 23  1  0
 10 24  1  0
 10 25  1  0
 14 26  1  0
 16 27  1  0
 18 28  1  0
M  ISO  7  20  14  21   9  22  14  23  14  26  14  27  14  28  14
M  END
>  <minimizedAffinity>  (1) 
-4.3366766

>  <minimizedRMSD>  (1) 
0.548965633

$$$$
