
     RDKit          3D

 26 28  0  0  0  0  0  0  0  0999 V2000
   36.9130   26.9130   41.5080 C   0  0  0  0  0  0  0  0  0  0  0  0
   36.7840   25.9760   40.4630 C   0  0  0  0  0  0  0  0  0  0  0  0
   36.9570   24.7630   41.1120 C   0  0  0  0  0  0  0  0  0  0  0  0
   37.1710   24.9390   42.4240 N   0  0  0  0  0  0  0  0  0  0  0  0
   37.1400   26.2360   42.6370 N   0  0  0  0  0  0  0  0  0  0  0  0
   37.8370   29.2340   41.6510 C   0  0  0  0  0  0  0  0  0  0  0  0
   36.8010   28.3480   41.2840 C   0  0  0  0  0  0  0  0  0  0  0  0
   35.6550   28.8580   40.6980 C   0  0  0  0  0  0  0  0  0  0  0  0
   35.5730   30.2140   40.4970 N   0  0  0  0  0  0  0  0  0  0  0  0
   36.5820   31.0380   40.8600 C   0  0  0  0  0  0  0  0  0  0  0  0
   37.7170   30.5490   41.4370 N   0  0  0  0  0  0  0  0  0  0  0  0
   36.8940   23.4960   40.3530 C   0  0  0  0  0  0  0  0  0  0  0  0
   37.9560   22.6240   40.5050 C   0  0  0  0  0  0  0  0  0  0  0  0
   37.9900   21.4060   39.8330 C   0  0  0  0  0  0  0  0  0  0  0  0
   36.9400   21.0800   39.0060 C   0  0  0  0  0  0  0  0  0  0  0  0
   35.9050   21.9710   38.8810 C   0  0  0  0  0  0  0  0  0  0  0  0
   35.8650   23.1500   39.5280 N   0  0  0  0  0  0  0  0  0  0  0  0
   36.5931   26.1614   39.3957 H   0  0  0  0  0  0  0  0  0  0  0  0
   37.3287   24.2027   43.1268 H   0  0  0  0  0  0  0  0  0  0  0  0
   38.7517   28.8392   42.1174 H   0  0  0  0  0  0  0  0  0  0  0  0
   34.8304   28.1934   40.4007 H   0  0  0  0  0  0  0  0  0  0  0  0
   36.4858   32.1201   40.6871 H   0  0  0  0  0  0  0  0  0  0  0  0
   38.7890   22.8979   41.1691 H   0  0  0  0  0  0  0  0  0  0  0  0
   38.8388   20.7181   39.9604 H   0  0  0  0  0  0  0  0  0  0  0  0
   36.9308   20.1265   38.4576 H   0  0  0  0  0  0  0  0  0  0  0  0
   35.0663   21.7089   38.2193 H   0  0  0  0  0  0  0  0  0  0  0  0
  1  5  2  0
  2  3  2  0
  2  1  1  0
  3  4  1  0
  4  5  1  0
  7  1  1  0
  7  6  2  0
  8  7  1  0
  9  8  2  0
  9 10  1  0
 10 11  2  0
 11  6  1  0
 12 13  2  0
 12  3  1  0
 14 13  1  0
 15 14  2  0
 16 15  1  0
 16 17  2  0
 17 12  1  0
  2 18  1  0
  4 19  1  0
  6 20  1  0
  8 21  1  0
 10 22  1  0
 13 23  1  0
 14 24  1  0
 15 25  1  0
 16 26  1  0
M  ISO  8  18  14  19   9  20  14  21  14  22  14  23  14  24  14  25  14
M  ISO  1  26  14
M  END
>  <minimizedAffinity>  (1) 
-4.27464437

>  <minimizedRMSD>  (1) 
0.664810479

$$$$
