
     RDKit          3D

 17 18  0  0  0  0  0  0  0  0999 V2000
   38.5530   28.9630   43.0990 C   0  0  0  0  0  0  0  0  0  0  0  0
   38.0010   27.6740   43.2300 C   0  0  0  0  0  0  0  0  0  0  0  0
   36.8120   27.4010   42.5310 C   0  0  0  0  0  0  0  0  0  0  0  0
   36.2590   28.3860   41.7680 N   0  0  0  0  0  0  0  0  0  0  0  0
   36.8270   29.6170   41.6700 C   0  0  0  0  0  0  0  0  0  0  0  0
   37.9600   29.8890   42.3310 N   0  0  0  0  0  0  0  0  0  0  0  0
   36.1880   30.6490   40.8300 C   0  0  0  0  0  0  0  0  0  0  0  0
   37.1120   31.7750   40.4130 C   0  0  0  0  0  0  0  0  0  0  0  0
   36.7070   30.7840   39.3980 C   0  0  0  0  0  0  0  0  0  0  0  0
   39.4816   29.2133   43.6329 H   0  0  0  0  0  0  0  0  0  0  0  0
   38.4825   26.9087   43.8564 H   0  0  0  0  0  0  0  0  0  0  0  0
   36.3369   26.4112   42.5986 H   0  0  0  0  0  0  0  0  0  0  0  0
   35.1943   30.5539   41.2920 H   0  0  0  0  0  0  0  0  0  0  0  0
   36.7272   32.8039   40.3553 H   0  0  0  0  0  0  0  0  0  0  0  0
   38.0793   32.1509   40.7776 H   0  0  0  0  0  0  0  0  0  0  0  0
   36.0193   31.0756   38.5905 H   0  0  0  0  0  0  0  0  0  0  0  0
   37.2452   30.1222   38.7035 H   0  0  0  0  0  0  0  0  0  0  0  0
  1  2  2  0
  3  2  1  0
  4  3  2  0
  5  4  1  0
  5  6  2  0
  6  1  1  0
  7  5  1  0
  8  7  1  0
  9  8  1  0
  9  7  1  0
  1 10  1  0
  2 11  1  0
  3 12  1  0
  7 13  1  0
  8 14  1  0
  8 15  1  0
  9 16  1  0
  9 17  1  0
M  ISO  8  10  14  11  14  12  14  13  13  14  13  15  13  16  13  17  13
M  END
>  <minimizedAffinity>  (1) 
-3.30920339

>  <minimizedRMSD>  (1) 
1.08400202

$$$$
