
     RDKit          3D

 30 32  0  0  1  0  0  0  0  0999 V2000
   37.4650   28.1770   43.0930 C   0  0  1  0  0  0  0  0  0  0  0  0
   38.3040   29.4070   42.9380 C   0  0  0  0  0  0  0  0  0  0  0  0
   37.4650   29.0000   41.7880 C   0  0  2  0  0  0  0  0  0  0  0  0
   40.0630   25.6310   43.7000 C   0  0  0  0  0  0  0  0  0  0  0  0
   39.5470   24.5160   43.0220 C   0  0  0  0  0  0  0  0  0  0  0  0
   38.3080   24.6490   42.3460 C   0  0  0  0  0  0  0  0  0  0  0  0
   37.6670   25.8650   42.3880 N   0  0  0  0  0  0  0  0  0  0  0  0
   38.2140   26.9010   43.0570 C   0  0  0  0  0  0  0  0  0  0  0  0
   39.3930   26.8000   43.7090 N   0  0  0  0  0  0  0  0  0  0  0  0
   36.2060   29.7570   41.4270 C   0  0  0  0  0  0  0  0  0  0  0  0
   35.4660   29.0400   40.3140 C   0  0  0  0  0  0  0  0  0  0  0  0
   36.3890   29.3770   39.1390 C   0  0  0  0  0  0  0  0  0  0  0  0
   36.6990   30.8620   39.3700 C   0  0  0  0  0  0  0  0  0  0  0  0
   36.4420   31.1010   40.8230 C   0  0  0  0  0  0  0  0  0  0  0  0
   36.6962   27.8217   43.7949 H   0  0  0  0  0  0  0  0  0  0  0  0
   38.0469   30.3147   43.5036 H   0  0  0  0  0  0  0  0  0  0  0  0
   39.3758   29.6207   43.0632 H   0  0  0  0  0  0  0  0  0  0  0  0
   37.6693   28.8139   40.7233 H   0  0  0  0  0  0  0  0  0  0  0  0
   41.0239   25.5499   44.2293 H   0  0  0  0  0  0  0  0  0  0  0  0
   40.0916   23.5603   43.0152 H   0  0  0  0  0  0  0  0  0  0  0  0
   37.8698   23.7999   41.8009 H   0  0  0  0  0  0  0  0  0  0  0  0
   35.6710   29.8342   42.3851 H   0  0  0  0  0  0  0  0  0  0  0  0
   35.4074   27.9561   40.4920 H   0  0  0  0  0  0  0  0  0  0  0  0
   34.4148   29.3366   40.1837 H   0  0  0  0  0  0  0  0  0  0  0  0
   35.8787   29.2232   38.1767 H   0  0  0  0  0  0  0  0  0  0  0  0
   37.2881   28.7448   39.0944 H   0  0  0  0  0  0  0  0  0  0  0  0
   37.7492   31.0784   39.1244 H   0  0  0  0  0  0  0  0  0  0  0  0
   36.0810   31.5123   38.7334 H   0  0  0  0  0  0  0  0  0  0  0  0
   37.3134   31.5823   41.2909 H   0  0  0  0  0  0  0  0  0  0  0  0
   35.5800   31.7673   40.9748 H   0  0  0  0  0  0  0  0  0  0  0  0
  2  1  1  0
  3  2  1  0
  3  1  1  0
  4  9  2  0
  5  4  1  0
  6  7  1  0
  6  5  2  0
  7  8  2  0
  8  1  1  0
  8  9  1  0
 10  3  1  0
 11 10  1  0
 12 13  1  0
 12 11  1  0
 13 14  1  0
 14 10  1  0
  1 15  1  1
  2 16  1  0
  2 17  1  0
  3 18  1  6
  4 19  1  0
  5 20  1  0
  6 21  1  0
 10 22  1  0
 11 23  1  0
 11 24  1  0
 12 25  1  0
 12 26  1  0
 13 27  1  0
 13 28  1  0
 14 29  1  0
 14 30  1  0
M  ISO  8  15  13  16  13  17  13  18  13  19  14  20  14  21  14  22  13
M  ISO  8  23  13  24  13  25  13  26  13  27  13  28  13  29  13  30  13
M  END
>  <minimizedAffinity>  (1) 
-4.62254047

>  <minimizedRMSD>  (1) 
3.3146615

$$$$
