
     RDKit          3D

 20 21  0  0  1  0  0  0  0  0999 V2000
   38.1150   29.1630   41.9000 C   0  0  1  0  0  0  0  0  0  0  0  0
   39.2270   29.1100   42.8930 C   0  0  0  0  0  0  0  0  0  0  0  0
   37.8460   29.2130   43.4130 C   0  0  2  0  0  0  0  0  0  0  0  0
   38.7370   32.6070   40.7280 C   0  0  0  0  0  0  0  0  0  0  0  0
   37.6720   32.8120   39.8140 C   0  0  0  0  0  0  0  0  0  0  0  0
   36.7520   31.7480   39.6310 C   0  0  0  0  0  0  0  0  0  0  0  0
   36.9210   30.5960   40.3200 N   0  0  0  0  0  0  0  0  0  0  0  0
   37.9620   30.4460   41.1890 C   0  0  0  0  0  0  0  0  0  0  0  0
   38.8530   31.4330   41.3890 N   0  0  0  0  0  0  0  0  0  0  0  0
   37.2250   27.9480   43.9470 C   0  0  0  0  0  0  0  0  0  0  0  0
   36.1510   27.5130   43.1800 F   0  0  0  0  0  0  0  0  0  0  0  0
   36.6980   28.1330   45.2190 F   0  0  0  0  0  0  0  0  0  0  0  0
   38.1470   26.9330   43.9490 F   0  0  0  0  0  0  0  0  0  0  0  0
   37.7789   28.5386   41.0591 H   0  0  0  0  0  0  0  0  0  0  0  0
   39.7904   28.1750   43.0286 H   0  0  0  0  0  0  0  0  0  0  0  0
   40.1455   29.6963   43.0433 H   0  0  0  0  0  0  0  0  0  0  0  0
   37.3446   29.8909   44.1194 H   0  0  0  0  0  0  0  0  0  0  0  0
   39.4722   33.4069   40.9000 H   0  0  0  0  0  0  0  0  0  0  0  0
   37.5636   33.7605   39.2676 H   0  0  0  0  0  0  0  0  0  0  0  0
   35.9079   31.8586   38.9344 H   0  0  0  0  0  0  0  0  0  0  0  0
  1  2  1  0
  1  3  1  0
  2  3  1  0
  3 10  1  0
  4  9  2  0
  5  4  1  0
  6  5  2  0
  6  7  1  0
  7  8  2  0
  8  9  1  0
  8  1  1  0
 10 13  1  0
 10 12  1  0
 11 10  1  0
  1 14  1  6
  2 15  1  0
  2 16  1  0
  3 17  1  6
  4 18  1  0
  5 19  1  0
  6 20  1  0
M  ISO  7  14  13  15  13  16  13  17  13  18  14  19  14  20  14
M  END
>  <minimizedAffinity>  (1) 
-4.51471376

>  <minimizedRMSD>  (1) 
5.24737978

$$$$
