
     RDKit          3D

 29 30  0  0  1  0  0  0  0  0999 V2000
   36.2400   30.7450   41.0660 C   0  0  1  0  0  0  0  0  0  0  0  0
   37.1590   31.7860   40.5170 C   0  0  0  0  0  0  0  0  0  0  0  0
   36.4790   30.8570   39.5810 C   0  0  1  0  0  0  0  0  0  0  0  0
   38.7250   28.8450   43.0130 C   0  0  0  0  0  0  0  0  0  0  0  0
   38.1120   27.5910   43.1180 C   0  0  0  0  0  0  0  0  0  0  0  0
   36.8520   27.4060   42.5160 C   0  0  0  0  0  0  0  0  0  0  0  0
   36.2720   28.4330   41.8580 N   0  0  0  0  0  0  0  0  0  0  0  0
   36.9110   29.6430   41.7810 C   0  0  0  0  0  0  0  0  0  0  0  0
   38.1210   29.8320   42.3560 N   0  0  0  0  0  0  0  0  0  0  0  0
   37.1420   29.8470   38.7470 C   0  0  0  0  0  0  0  0  0  0  0  0
   36.2700   28.6270   38.5900 C   0  0  0  0  0  0  0  0  0  0  0  0
   37.3240   30.4620   37.3500 C   0  0  0  0  0  0  0  0  0  0  0  0
   38.5100   29.3940   39.1750 C   0  0  0  0  0  0  0  0  0  0  0  0
   35.3415   30.7272   41.7003 H   0  0  0  0  0  0  0  0  0  0  0  0
   36.8657   32.8458   40.5462 H   0  0  0  0  0  0  0  0  0  0  0  0
   38.2063   32.0672   40.7018 H   0  0  0  0  0  0  0  0  0  0  0  0
   35.8413   30.9725   38.6922 H   0  0  0  0  0  0  0  0  0  0  0  0
   39.7087   29.0150   43.4749 H   0  0  0  0  0  0  0  0  0  0  0  0
   38.6032   26.7685   43.6585 H   0  0  0  0  0  0  0  0  0  0  0  0
   36.3443   26.4324   42.5813 H   0  0  0  0  0  0  0  0  0  0  0  0
   35.9952   28.2425   39.5833 H   0  0  0  0  0  0  0  0  0  0  0  0
   35.3587   28.8965   38.0361 H   0  0  0  0  0  0  0  0  0  0  0  0
   36.8200   27.8520   38.0361 H   0  0  0  0  0  0  0  0  0  0  0  0
   37.6349   31.5125   37.4495 H   0  0  0  0  0  0  0  0  0  0  0  0
   38.0949   29.9019   36.8004 H   0  0  0  0  0  0  0  0  0  0  0  0
   36.3725   30.4117   36.8004 H   0  0  0  0  0  0  0  0  0  0  0  0
   38.5634   29.3763   40.2736 H   0  0  0  0  0  0  0  0  0  0  0  0
   38.7015   28.3845   38.7823 H   0  0  0  0  0  0  0  0  0  0  0  0
   39.2662   30.0897   38.7823 H   0  0  0  0  0  0  0  0  0  0  0  0
  1  8  1  0
  2  1  1  0
  3  2  1  0
  3  1  1  0
  4  5  2  0
  6  5  1  0
  7  6  2  0
  8  7  1  0
  8  9  2  0
  9  4  1  0
 10 13  1  0
 10  3  1  0
 11 10  1  0
 12 10  1  0
  1 14  1  6
  2 15  1  0
  2 16  1  0
  3 17  1  6
  4 18  1  0
  5 19  1  0
  6 20  1  0
 11 21  1  0
 11 22  1  0
 11 23  1  0
 12 24  1  0
 12 25  1  0
 12 26  1  0
 13 27  1  0
 13 28  1  0
 13 29  1  0
M  ISO  8  14  13  15  13  16  13  17  13  18  14  19  14  20  14  21   8
M  ISO  8  22   8  23   8  24   8  25   8  26   8  27   8  28   8  29   8
M  END
>  <minimizedAffinity>  (1) 
-4.02399206

>  <minimizedRMSD>  (1) 
0.817249119

$$$$
