
     RDKit          3D

 32 34  0  0  1  0  0  0  0  0999 V2000
   36.2720   30.7940   41.1870 C   0  0  1  0  0  0  0  0  0  0  0  0
   37.2510   31.6980   40.5030 C   0  0  0  0  0  0  0  0  0  0  0  0
   36.4220   30.8360   39.6530 C   0  0  1  0  0  0  0  0  0  0  0  0
   36.8610   27.4120   42.5680 C   0  0  0  0  0  0  0  0  0  0  0  0
   38.1710   27.5300   43.0620 C   0  0  0  0  0  0  0  0  0  0  0  0
   38.8310   28.7710   42.9130 C   0  0  0  0  0  0  0  0  0  0  0  0
   38.1870   29.7910   42.3090 N   0  0  0  0  0  0  0  0  0  0  0  0
   36.9070   29.6220   41.8450 C   0  0  0  0  0  0  0  0  0  0  0  0
   36.2590   28.4430   41.9770 N   0  0  0  0  0  0  0  0  0  0  0  0
   36.7520   29.6280   39.0440 N   0  0  0  0  0  0  0  0  0  0  0  0
   35.7110   28.9050   38.4110 C   0  0  0  0  0  0  0  0  0  0  0  0
   35.8600   28.8420   36.9020 C   0  0  0  0  0  0  0  0  0  0  0  0
   36.9340   29.8170   36.4740 C   0  0  0  0  0  0  0  0  0  0  0  0
   38.2610   29.4790   37.1130 C   0  0  0  0  0  0  0  0  0  0  0  0
   38.0730   29.4130   38.5960 C   0  0  0  0  0  0  0  0  0  0  0  0
   35.4408   30.9052   41.8988 H   0  0  0  0  0  0  0  0  0  0  0  0
   37.0792   32.7845   40.5051 H   0  0  0  0  0  0  0  0  0  0  0  0
   38.3351   31.8583   40.5982 H   0  0  0  0  0  0  0  0  0  0  0  0
   35.8572   31.0823   38.7418 H   0  0  0  0  0  0  0  0  0  0  0  0
   36.3258   26.4564   42.6705 H   0  0  0  0  0  0  0  0  0  0  0  0
   38.6692   26.6800   43.5512 H   0  0  0  0  0  0  0  0  0  0  0  0
   39.8576   28.9035   43.2851 H   0  0  0  0  0  0  0  0  0  0  0  0
   35.7083   27.8781   38.8054 H   0  0  0  0  0  0  0  0  0  0  0  0
   34.7694   29.4318   38.6252 H   0  0  0  0  0  0  0  0  0  0  0  0
   36.1454   27.8231   36.6015 H   0  0  0  0  0  0  0  0  0  0  0  0
   34.9057   29.1049   36.4222 H   0  0  0  0  0  0  0  0  0  0  0  0
   37.0412   29.7761   35.3800 H   0  0  0  0  0  0  0  0  0  0  0  0
   36.6381   30.8264   36.7958 H   0  0  0  0  0  0  0  0  0  0  0  0
   38.6147   28.5063   36.7405 H   0  0  0  0  0  0  0  0  0  0  0  0
   39.0060   30.2485   36.8623 H   0  0  0  0  0  0  0  0  0  0  0  0
   38.3894   28.4156   38.9352 H   0  0  0  0  0  0  0  0  0  0  0  0
   38.6753   30.2315   39.0170 H   0  0  0  0  0  0  0  0  0  0  0  0
  1  8  1  0
  2  1  1  0
  3  2  1  0
  3  1  1  0
  4  5  2  0
  6  5  1  0
  7  6  2  0
  8  9  2  0
  8  7  1  0
  9  4  1  0
 10  3  1  0
 11 10  1  0
 12 11  1  0
 13 12  1  0
 13 14  1  0
 14 15  1  0
 15 10  1  0
  1 16  1  6
  2 17  1  0
  2 18  1  0
  3 19  1  6
  4 20  1  0
  5 21  1  0
  6 22  1  0
 11 23  1  0
 11 24  1  0
 12 25  1  0
 12 26  1  0
 13 27  1  0
 13 28  1  0
 14 29  1  0
 14 30  1  0
 15 31  1  0
 15 32  1  0
M  ISO  8  16  13  17  13  18  13  19  13  20  14  21  14  22  14  23  13
M  ISO  8  24  13  25  13  26  13  27  13  28  13  29  13  30  13  31  13
M  ISO  1  32  13
M  END
>  <minimizedAffinity>  (1) 
-4.00527334

>  <minimizedRMSD>  (1) 
2.24304891

$$$$
