
     RDKit          3D

 23 25  0  0  1  0  0  0  0  0999 V2000
   36.2970   30.8990   40.8600 C   0  0  1  0  0  0  0  0  0  0  0  0
   37.2490   31.9780   40.4540 C   0  0  0  0  0  0  0  0  0  0  0  0
   36.7860   31.0640   39.4180 C   0  0  1  0  0  0  0  0  0  0  0  0
   38.6280   28.9790   42.9760 C   0  0  0  0  0  0  0  0  0  0  0  0
   37.9830   27.7160   43.0450 C   0  0  0  0  0  0  0  0  0  0  0  0
   36.7550   27.5510   42.3550 C   0  0  0  0  0  0  0  0  0  0  0  0
   36.2360   28.5860   41.6580 N   0  0  0  0  0  0  0  0  0  0  0  0
   36.8940   29.7860   41.6200 C   0  0  0  0  0  0  0  0  0  0  0  0
   38.0640   29.9670   42.2680 N   0  0  0  0  0  0  0  0  0  0  0  0
   37.6060   30.0370   38.7800 C   0  0  0  0  0  0  0  0  0  0  0  0
   38.9820   30.3210   38.6040 C   0  0  0  0  0  0  0  0  0  0  0  0
   39.6550   28.7540   37.7730 S   0  0  0  0  0  0  0  0  0  0  0  0
   37.9060   28.0300   37.8350 C   0  0  0  0  0  0  0  0  0  0  0  0
   37.3120   28.8410   38.3190 N   0  0  0  0  0  0  0  0  0  0  0  0
   35.3192   30.8456   41.3611 H   0  0  0  0  0  0  0  0  0  0  0  0
   36.9114   33.0249   40.4450 H   0  0  0  0  0  0  0  0  0  0  0  0
   38.2428   32.2910   40.8067 H   0  0  0  0  0  0  0  0  0  0  0  0
   36.3302   31.2134   38.4281 H   0  0  0  0  0  0  0  0  0  0  0  0
   39.5815   29.1448   43.4987 H   0  0  0  0  0  0  0  0  0  0  0  0
   38.4241   26.8874   43.6185 H   0  0  0  0  0  0  0  0  0  0  0  0
   36.2279   26.5860   42.3870 H   0  0  0  0  0  0  0  0  0  0  0  0
   39.5302   31.2330   38.8827 H   0  0  0  0  0  0  0  0  0  0  0  0
   37.5598   27.0481   37.4800 H   0  0  0  0  0  0  0  0  0  0  0  0
  1  8  1  0
  2  1  1  0
  3  2  1  0
  3  1  1  0
  4  5  2  0
  6  5  1  0
  7  6  2  0
  8  7  1  0
  8  9  2  0
  9  4  1  0
 10  3  1  0
 11 10  2  0
 12 13  1  0
 12 11  1  0
 13 14  2  0
 14 10  1  0
  1 15  1  6
  2 16  1  0
  2 17  1  0
  3 18  1  6
  4 19  1  0
  5 20  1  0
  6 21  1  0
 11 22  1  0
 13 23  1  0
M  ISO  8  15  13  16  13  17  13  18  13  19  14  20  14  21  14  22  14
M  ISO  1  23  14
M  END
>  <minimizedAffinity>  (1) 
-3.8703692

>  <minimizedRMSD>  (1) 
0.413011283

$$$$
