
     RDKit          3D

 24 26  0  0  1  0  0  0  0  0999 V2000
   36.1900   30.7430   40.8210 C   0  0  1  0  0  0  0  0  0  0  0  0
   37.1020   31.8600   40.4300 C   0  0  0  0  0  0  0  0  0  0  0  0
   36.7470   30.8710   39.3830 C   0  0  1  0  0  0  0  0  0  0  0  0
   38.5180   28.9750   43.0840 C   0  0  0  0  0  0  0  0  0  0  0  0
   37.9310   27.6860   43.1770 C   0  0  0  0  0  0  0  0  0  0  0  0
   36.7410   27.4660   42.4380 C   0  0  0  0  0  0  0  0  0  0  0  0
   36.2200   28.4660   41.6900 N   0  0  0  0  0  0  0  0  0  0  0  0
   36.8240   29.6850   41.6360 C   0  0  0  0  0  0  0  0  0  0  0  0
   37.9600   29.9410   42.3220 N   0  0  0  0  0  0  0  0  0  0  0  0
   37.6620   29.8630   38.9500 N   0  0  0  0  0  0  0  0  0  0  0  0
   37.3550   28.6680   38.4660 N   0  0  0  0  0  0  0  0  0  0  0  0
   38.4510   27.9670   38.1550 C   0  0  0  0  0  0  0  0  0  0  0  0
   39.5270   28.7880   38.4690 C   0  0  0  0  0  0  0  0  0  0  0  0
   39.0050   29.9740   38.9670 C   0  0  0  0  0  0  0  0  0  0  0  0
   35.1924   30.6612   41.2771 H   0  0  0  0  0  0  0  0  0  0  0  0
   36.7076   32.8848   40.3644 H   0  0  0  0  0  0  0  0  0  0  0  0
   38.0546   32.2406   40.8272 H   0  0  0  0  0  0  0  0  0  0  0  0
   36.3485   30.9642   38.3620 H   0  0  0  0  0  0  0  0  0  0  0  0
   39.4417   29.1908   43.6411 H   0  0  0  0  0  0  0  0  0  0  0  0
   38.3790   26.8935   43.7945 H   0  0  0  0  0  0  0  0  0  0  0  0
   36.2431   26.4858   42.4727 H   0  0  0  0  0  0  0  0  0  0  0  0
   38.4919   26.9504   37.7369 H   0  0  0  0  0  0  0  0  0  0  0  0
   40.5925   28.5440   38.3461 H   0  0  0  0  0  0  0  0  0  0  0  0
   39.5818   30.8447   39.3122 H   0  0  0  0  0  0  0  0  0  0  0  0
  1  8  1  0
  2  1  1  0
  3  2  1  0
  3  1  1  0
  4  5  2  0
  6  5  1  0
  7  6  2  0
  8  7  1  0
  8  9  2  0
  9  4  1  0
 10 14  1  0
 10  3  1  0
 11 10  1  0
 12 11  2  0
 12 13  1  0
 13 14  2  0
  1 15  1  6
  2 16  1  0
  2 17  1  0
  3 18  1  6
  4 19  1  0
  5 20  1  0
  6 21  1  0
 12 22  1  0
 13 23  1  0
 14 24  1  0
M  ISO  8  15  13  16  13  17  13  18  13  19  14  20  14  21  14  22  14
M  ISO  2  23  14  24  14
M  END
>  <minimizedAffinity>  (1) 
-3.76070714

>  <minimizedRMSD>  (1) 
0.295235872

$$$$
