
     RDKit          3D

 18 19  0  0  1  0  0  0  0  0999 V2000
   38.6230   28.9410   43.0680 C   0  0  0  0  0  0  0  0  0  0  0  0
   38.0480   27.6550   43.2120 C   0  0  0  0  0  0  0  0  0  0  0  0
   36.8260   27.4140   42.5330 C   0  0  0  0  0  0  0  0  0  0  0  0
   36.2560   28.3870   41.7880 N   0  0  0  0  0  0  0  0  0  0  0  0
   36.8640   29.6140   41.6870 C   0  0  0  0  0  0  0  0  0  0  0  0
   38.0280   29.8830   42.3170 N   0  0  0  0  0  0  0  0  0  0  0  0
   36.1960   30.6480   40.8590 C   0  0  1  0  0  0  0  0  0  0  0  0
   37.0940   31.7500   40.4070 C   0  0  0  0  0  0  0  0  0  0  0  0
   36.7050   30.7290   39.4040 C   0  0  1  0  0  0  0  0  0  0  0  0
   37.5000   29.6800   39.0300 O   0  0  0  0  0  0  0  0  0  0  0  0
   39.5699   29.1720   43.5780 H   0  0  0  0  0  0  0  0  0  0  0  0
   38.5279   26.8769   43.8237 H   0  0  0  0  0  0  0  0  0  0  0  0
   36.3400   26.4304   42.6132 H   0  0  0  0  0  0  0  0  0  0  0  0
   35.2130   30.5809   41.3480 H   0  0  0  0  0  0  0  0  0  0  0  0
   36.6981   32.7728   40.3222 H   0  0  0  0  0  0  0  0  0  0  0  0
   38.0586   32.1419   40.7618 H   0  0  0  0  0  0  0  0  0  0  0  0
   36.3144   30.8284   38.3805 H   0  0  0  0  0  0  0  0  0  0  0  0
   37.8458   29.2237   39.8376 H   0  0  0  0  0  0  0  0  0  0  0  0
  1  2  2  0
  3  2  1  0
  4  3  2  0
  5  4  1  0
  5  6  2  0
  6  1  1  0
  7  5  1  0
  8  7  1  0
  9  8  1  0
  9  7  1  0
 10  9  1  0
  1 11  1  0
  2 12  1  0
  3 13  1  0
  7 14  1  6
  8 15  1  0
  8 16  1  0
  9 17  1  6
 10 18  1  0
M  ISO  8  11  14  12  14  13  14  14  13  15  13  16  13  17  13  18   3
M  END
>  <minimizedAffinity>  (1) 
-3.37587214

>  <minimizedRMSD>  (1) 
0.0456460454

$$$$
