
     RDKit          3D

 24 26  0  0  0  0  0  0  0  0999 V2000
   36.9260   26.9140   41.4680 C   0  0  0  0  0  0  0  0  0  0  0  0
   36.9400   26.0080   40.4130 C   0  0  0  0  0  0  0  0  0  0  0  0
   37.0560   24.7970   41.0400 C   0  0  0  0  0  0  0  0  0  0  0  0
   37.1100   24.9320   42.3670 N   0  0  0  0  0  0  0  0  0  0  0  0
   37.0300   26.2390   42.6200 N   0  0  0  0  0  0  0  0  0  0  0  0
   37.8350   29.2570   41.6430 C   0  0  0  0  0  0  0  0  0  0  0  0
   36.8150   28.3580   41.2720 C   0  0  0  0  0  0  0  0  0  0  0  0
   35.6480   28.8690   40.6970 C   0  0  0  0  0  0  0  0  0  0  0  0
   35.5600   30.2320   40.5210 N   0  0  0  0  0  0  0  0  0  0  0  0
   36.5600   31.0650   40.8880 C   0  0  0  0  0  0  0  0  0  0  0  0
   37.7030   30.5760   41.4510 N   0  0  0  0  0  0  0  0  0  0  0  0
   37.1190   23.5150   40.4510 C   0  0  0  0  0  0  0  0  0  0  0  0
   37.9260   22.4260   40.4170 C   0  0  0  0  0  0  0  0  0  0  0  0
   37.6090   21.3210   39.6790 C   0  0  0  0  0  0  0  0  0  0  0  0
   36.3780   21.3760   38.9430 C   0  0  0  0  0  0  0  0  0  0  0  0
   35.6940   22.9980   39.3140 S   0  0  0  0  0  0  0  0  0  0  0  0
   36.8738   26.2148   39.3346 H   0  0  0  0  0  0  0  0  0  0  0  0
   37.1965   24.1749   43.0599 H   0  0  0  0  0  0  0  0  0  0  0  0
   38.7573   28.8679   42.0990 H   0  0  0  0  0  0  0  0  0  0  0  0
   34.8260   28.2036   40.3947 H   0  0  0  0  0  0  0  0  0  0  0  0
   36.4510   32.1483   40.7311 H   0  0  0  0  0  0  0  0  0  0  0  0
   38.8597   22.4324   40.9985 H   0  0  0  0  0  0  0  0  0  0  0  0
   38.2622   20.4364   39.6503 H   0  0  0  0  0  0  0  0  0  0  0  0
   35.9478   20.5981   38.2951 H   0  0  0  0  0  0  0  0  0  0  0  0
  1  5  2  0
  2  3  2  0
  2  1  1  0
  3  4  1  0
  4  5  1  0
  7  1  1  0
  7  6  2  0
  8  7  1  0
  9  8  2  0
  9 10  1  0
 10 11  2  0
 11  6  1  0
 12  3  1  0
 13 12  2  0
 14 13  1  0
 15 16  1  0
 15 14  2  0
 16 12  1  0
  2 17  1  0
  4 18  1  0
  6 19  1  0
  8 20  1  0
 10 21  1  0
 13 22  1  0
 14 23  1  0
 15 24  1  0
M  ISO  8  17  14  18   9  19  14  20  14  21  14  22  14  23  14  24  14
M  END
>  <minimizedAffinity>  (1) 
-4.107934

>  <minimizedRMSD>  (1) 
0.62377131

$$$$
