
     RDKit          3D

 44 48  0  0  1  0  0  0  0  0999 V2000
   38.3010   29.7650   40.2460 N   0  0  0  0  0  0  0  0  0  0  0  0
   36.9870   29.4730   39.6580 C   0  0  0  0  0  0  0  0  0  0  0  0
   37.1000   28.6050   38.4430 C   0  0  0  0  0  0  0  0  0  0  0  0
   38.1390   29.0150   37.6200 O   0  0  0  0  0  0  0  0  0  0  0  0
   38.3780   30.3540   37.8740 C   0  0  0  0  0  0  0  0  0  0  0  0
   38.9970   30.5740   39.2690 C   0  0  1  0  0  0  0  0  0  0  0  0
   38.8300   32.0270   39.5330 C   0  0  0  0  0  0  0  0  0  0  0  0
   37.5990   32.5950   39.3710 N   0  0  0  0  0  0  0  0  0  0  0  0
   37.3900   33.9050   39.5950 C   0  0  0  0  0  0  0  0  0  0  0  0
   38.3820   34.7530   39.9960 N   0  0  0  0  0  0  0  0  0  0  0  0
   39.6130   34.2270   40.1680 C   0  0  0  0  0  0  0  0  0  0  0  0
   40.6670   35.0320   40.5740 C   0  0  0  0  0  0  0  0  0  0  0  0
   41.9530   34.5160   40.7590 C   0  0  0  0  0  0  0  0  0  0  0  0
   42.1430   33.1600   40.5200 C   0  0  0  0  0  0  0  0  0  0  0  0
   41.0650   32.3950   40.1170 C   0  0  0  0  0  0  0  0  0  0  0  0
   39.8150   32.8840   39.9350 C   0  0  0  0  0  0  0  0  0  0  0  0
   37.9870   29.4220   42.7910 C   0  0  1  0  0  0  0  0  0  0  0  0
   39.1720   30.2920   42.6150 C   0  0  0  0  0  0  0  0  0  0  0  0
   38.1800   30.3000   41.5360 C   0  0  1  0  0  0  0  0  0  0  0  0
   39.7080   26.1710   42.6230 C   0  0  0  0  0  0  0  0  0  0  0  0
   38.6530   25.2700   42.3790 C   0  0  0  0  0  0  0  0  0  0  0  0
   37.3440   25.8130   42.2630 C   0  0  0  0  0  0  0  0  0  0  0  0
   37.1690   27.1860   42.3930 N   0  0  0  0  0  0  0  0  0  0  0  0
   38.2270   27.9660   42.6240 C   0  0  0  0  0  0  0  0  0  0  0  0
   39.4850   27.4880   42.7410 N   0  0  0  0  0  0  0  0  0  0  0  0
   36.3686   28.9572   40.4074 H   0  0  0  0  0  0  0  0  0  0  0  0
   36.5294   30.4263   39.3549 H   0  0  0  0  0  0  0  0  0  0  0  0
   37.2834   27.5679   38.7604 H   0  0  0  0  0  0  0  0  0  0  0  0
   36.1603   28.6807   37.8762 H   0  0  0  0  0  0  0  0  0  0  0  0
   39.0705   30.7421   37.1126 H   0  0  0  0  0  0  0  0  0  0  0  0
   37.4146   30.8840   37.8415 H   0  0  0  0  0  0  0  0  0  0  0  0
   40.0557   30.2805   39.3241 H   0  0  0  0  0  0  0  0  0  0  0  0
   36.3776   34.3097   39.4490 H   0  0  0  0  0  0  0  0  0  0  0  0
   40.4867   36.1020   40.7547 H   0  0  0  0  0  0  0  0  0  0  0  0
   42.7844   35.1598   41.0820 H   0  0  0  0  0  0  0  0  0  0  0  0
   43.1353   32.7032   40.6495 H   0  0  0  0  0  0  0  0  0  0  0  0
   41.2323   31.3235   39.9328 H   0  0  0  0  0  0  0  0  0  0  0  0
   37.1991   29.2945   43.5479 H   0  0  0  0  0  0  0  0  0  0  0  0
   39.2881   31.1829   43.2497 H   0  0  0  0  0  0  0  0  0  0  0  0
   40.2567   30.1119   42.6468 H   0  0  0  0  0  0  0  0  0  0  0  0
   37.6442   31.1026   41.0080 H   0  0  0  0  0  0  0  0  0  0  0  0
   40.7343   25.7869   42.7186 H   0  0  0  0  0  0  0  0  0  0  0  0
   38.8346   24.1894   42.2821 H   0  0  0  0  0  0  0  0  0  0  0  0
   36.4823   25.1562   42.0731 H   0  0  0  0  0  0  0  0  0  0  0  0
  1  2  1  0
  1 19  1  0
  3  2  1  0
  4  5  1  0
  4  3  1  0
  5  6  1  0
  6  7  1  0
  6  1  1  0
  7 16  1  0
  8  7  2  0
  8  9  1  0
  9 10  2  0
 10 11  1  0
 11 12  2  0
 12 13  1  0
 14 13  2  0
 15 14  1  0
 16 15  2  0
 16 11  1  0
 18 17  1  0
 19 18  1  0
 19 17  1  0
 20 25  2  0
 21 20  1  0
 22 21  2  0
 22 23  1  0
 23 24  2  0
 24 25  1  0
 24 17  1  0
  2 26  1  0
  2 27  1  0
  3 28  1  0
  3 29  1  0
  5 30  1  0
  5 31  1  0
  6 32  1  6
  9 33  1  0
 12 34  1  0
 13 35  1  0
 14 36  1  0
 15 37  1  0
 17 38  1  1
 18 39  1  0
 18 40  1  0
 19 41  1  6
 20 42  1  0
 21 43  1  0
 22 44  1  0
M  ISO  8  26  13  27  13  28  13  29  13  30  13  31  13  32  13  33  14
M  ISO  8  34  14  35  14  36  14  37  14  38  13  39  13  40  13  41  13
M  ISO  3  42  14  43  14  44  14
M  END
>  <minimizedAffinity>  (1) 
-5.78925514

>  <minimizedRMSD>  (1) 
2.03155112

$$$$
