
     RDKit          3D

 37 39  0  0  1  0  0  0  0  0999 V2000
   38.4200   30.6740   39.5620 N   0  0  0  0  0  0  0  0  0  0  0  0
   38.7550   29.9740   38.2960 C   0  0  0  0  0  0  0  0  0  0  0  0
   40.1750   29.4990   38.2840 C   0  0  0  0  0  0  0  0  0  0  0  0
   41.0370   30.4590   38.7930 O   0  0  0  0  0  0  0  0  0  0  0  0
   40.4390   31.6980   38.6440 C   0  0  0  0  0  0  0  0  0  0  0  0
   39.2230   31.8460   39.5840 C   0  0  1  0  0  0  0  0  0  0  0  0
   38.5180   33.0510   39.2050 N   0  0  0  0  0  0  0  0  0  0  0  0
   38.6300   34.1570   40.1280 C   0  0  0  0  0  0  0  0  0  0  0  0
   38.8330   34.0160   41.4130 N   0  0  0  0  0  0  0  0  0  0  0  0
   38.5260   35.5350   39.7120 N   0  0  0  0  0  0  0  0  0  0  0  0
   38.9340   33.1210   41.9010 H   0  0  0  0  0  0  0  0  0  0  0  0
   36.1750   29.8640   40.5570 C   0  0  1  0  0  0  0  0  0  0  0  0
   36.2960   31.3060   40.8630 C   0  0  0  0  0  0  0  0  0  0  0  0
   37.0320   30.8160   39.6940 C   0  0  1  0  0  0  0  0  0  0  0  0
   38.0180   28.5800   43.4700 C   0  0  0  0  0  0  0  0  0  0  0  0
   38.2070   27.2130   43.1460 C   0  0  0  0  0  0  0  0  0  0  0  0
   37.6910   26.7640   41.8960 C   0  0  0  0  0  0  0  0  0  0  0  0
   37.0400   27.6690   41.0690 N   0  0  0  0  0  0  0  0  0  0  0  0
   36.9070   28.9390   41.4550 C   0  0  0  0  0  0  0  0  0  0  0  0
   37.3800   29.4100   42.6300 N   0  0  0  0  0  0  0  0  0  0  0  0
   38.0882   29.1068   38.1811 H   0  0  0  0  0  0  0  0  0  0  0  0
   38.6245   30.6847   37.4666 H   0  0  0  0  0  0  0  0  0  0  0  0
   40.2524   28.5885   38.8964 H   0  0  0  0  0  0  0  0  0  0  0  0
   40.4619   29.2958   37.2417 H   0  0  0  0  0  0  0  0  0  0  0  0
   41.1734   32.4820   38.8807 H   0  0  0  0  0  0  0  0  0  0  0  0
   40.0908   31.7948   37.6051 H   0  0  0  0  0  0  0  0  0  0  0  0
   39.5367   31.9498   40.6332 H   0  0  0  0  0  0  0  0  0  0  0  0
   37.9719   33.1163   38.3341 H   0  0  0  0  0  0  0  0  0  0  0  0
   38.6125   36.2906   40.4066 H   0  0  0  0  0  0  0  0  0  0  0  0
   38.3653   35.7629   38.7205 H   0  0  0  0  0  0  0  0  0  0  0  0
   35.3512   29.1590   40.3720 H   0  0  0  0  0  0  0  0  0  0  0  0
   35.4268   31.9644   40.7178 H   0  0  0  0  0  0  0  0  0  0  0  0
   36.5886   31.8682   41.7620 H   0  0  0  0  0  0  0  0  0  0  0  0
   37.0875   31.1353   38.6428 H   0  0  0  0  0  0  0  0  0  0  0  0
   38.4006   28.9671   44.4259 H   0  0  0  0  0  0  0  0  0  0  0  0
   38.7296   26.5283   43.8302 H   0  0  0  0  0  0  0  0  0  0  0  0
   37.8071   25.7137   41.5903 H   0  0  0  0  0  0  0  0  0  0  0  0
  1  2  1  0
  1  6  1  0
  1 14  1  0
  3  2  1  0
  3  4  1  0
  5  4  1  0
  5  6  1  0
  7  6  1  0
  7  8  1  0
  8  9  2  0
  9 11  1  0
 10  8  1  0
 12 13  1  0
 12 19  1  0
 14 12  1  0
 14 13  1  0
 16 15  2  0
 17 16  1  0
 18 19  1  0
 18 17  2  0
 19 20  2  0
 20 15  1  0
  2 21  1  0
  2 22  1  0
  3 23  1  0
  3 24  1  0
  5 25  1  0
  5 26  1  0
  6 27  1  1
  7 28  1  0
 10 29  1  0
 10 30  1  0
 12 31  1  6
 13 32  1  0
 13 33  1  0
 14 34  1  6
 15 35  1  0
 16 36  1  0
 17 37  1  0
M  ISO  8  21  13  22  13  23  13  24  13  25  13  26  13  27  13  31  13
M  ISO  6  32  13  33  13  34  13  35  14  36  14  37  14
M  END
>  <minimizedAffinity>  (1) 
-5.40763903

>  <minimizedRMSD>  (1) 
1.9572866

$$$$
