
     RDKit          3D

 36 39  0  0  1  0  0  0  0  0999 V2000
   38.2530   30.7750   40.6020 N   0  0  0  0  0  0  0  0  0  0  0  0
   36.8280   31.0560   40.9260 C   0  0  0  0  0  0  0  0  0  0  0  0
   35.9050   30.4780   39.8960 C   0  0  0  0  0  0  0  0  0  0  0  0
   36.3800   30.7070   38.6050 O   0  0  0  0  0  0  0  0  0  0  0  0
   37.2150   31.7980   38.6480 C   0  0  0  0  0  0  0  0  0  0  0  0
   38.5210   31.4980   39.4130 C   0  0  1  0  0  0  0  0  0  0  0  0
   39.1230   30.0490   42.9260 C   0  0  1  0  0  0  0  0  0  0  0  0
   40.3020   30.3250   42.0740 C   0  0  0  0  0  0  0  0  0  0  0  0
   39.0600   31.0140   41.7220 C   0  0  1  0  0  0  0  0  0  0  0  0
   38.6010   26.5470   41.9210 C   0  0  0  0  0  0  0  0  0  0  0  0
   37.3360   26.2520   42.4710 C   0  0  0  0  0  0  0  0  0  0  0  0
   36.6770   27.2840   43.1760 C   0  0  0  0  0  0  0  0  0  0  0  0
   37.2930   28.5220   43.2940 N   0  0  0  0  0  0  0  0  0  0  0  0
   38.4940   28.7190   42.7430 C   0  0  0  0  0  0  0  0  0  0  0  0
   39.1570   27.7590   42.0600 N   0  0  0  0  0  0  0  0  0  0  0  0
   39.1730   32.8290   39.6080 C   0  0  0  0  0  0  0  0  0  0  0  0
   40.5490   33.1180   39.3470 C   0  0  0  0  0  0  0  0  0  0  0  0
   40.6420   34.9310   39.8080 S   0  0  0  0  0  0  0  0  0  0  0  0
   38.7980   34.9010   40.2530 C   0  0  0  0  0  0  0  0  0  0  0  0
   38.4740   33.8490   40.0520 N   0  0  0  0  0  0  0  0  0  0  0  0
   36.5908   30.6155   41.9056 H   0  0  0  0  0  0  0  0  0  0  0  0
   36.6868   32.1468   40.9420 H   0  0  0  0  0  0  0  0  0  0  0  0
   35.8197   29.3936   40.0594 H   0  0  0  0  0  0  0  0  0  0  0  0
   34.9238   30.9649   39.9966 H   0  0  0  0  0  0  0  0  0  0  0  0
   37.4665   32.0933   37.6186 H   0  0  0  0  0  0  0  0  0  0  0  0
   36.6898   32.6066   39.1775 H   0  0  0  0  0  0  0  0  0  0  0  0
   39.2107   30.8368   38.8679 H   0  0  0  0  0  0  0  0  0  0  0  0
   38.8829   30.1112   43.9977 H   0  0  0  0  0  0  0  0  0  0  0  0
   41.1429   30.9027   42.4852 H   0  0  0  0  0  0  0  0  0  0  0  0
   40.9987   29.6845   41.5133 H   0  0  0  0  0  0  0  0  0  0  0  0
   38.7993   32.0668   41.5385 H   0  0  0  0  0  0  0  0  0  0  0  0
   39.1425   25.7664   41.3665 H   0  0  0  0  0  0  0  0  0  0  0  0
   36.8804   25.2575   42.3556 H   0  0  0  0  0  0  0  0  0  0  0  0
   35.6885   27.1085   43.6255 H   0  0  0  0  0  0  0  0  0  0  0  0
   41.3418   32.4526   38.9746 H   0  0  0  0  0  0  0  0  0  0  0  0
   38.1834   35.7335   40.6260 H   0  0  0  0  0  0  0  0  0  0  0  0
  1  2  1  0
  1  9  1  0
  3  2  1  0
  4  5  1  0
  4  3  1  0
  5  6  1  0
  6 16  1  0
  6  1  1  0
  8  7  1  0
  9  8  1  0
  9  7  1  0
 10 15  2  0
 10 11  1  0
 11 12  2  0
 12 13  1  0
 14  7  1  0
 14 13  2  0
 15 14  1  0
 16 20  1  0
 17 16  2  0
 17 18  1  0
 18 19  1  0
 20 19  2  0
  2 21  1  0
  2 22  1  0
  3 23  1  0
  3 24  1  0
  5 25  1  0
  5 26  1  0
  6 27  1  6
  7 28  1  1
  8 29  1  0
  8 30  1  0
  9 31  1  1
 10 32  1  0
 11 33  1  0
 12 34  1  0
 17 35  1  0
 19 36  1  0
M  ISO  8  21  13  22  13  23  13  24  13  25  13  26  13  27  13  28  13
M  ISO  8  29  13  30  13  31  13  32  14  33  14  34  14  35  14  36  14
M  END
>  <minimizedAffinity>  (1) 
-5.30758333

>  <minimizedRMSD>  (1) 
2.64484596

$$$$
