
     RDKit          3D

 37 40  0  0  1  0  0  0  0  0999 V2000
   37.6860   29.9160   39.2830 N   0  0  0  0  0  0  0  0  0  0  0  0
   37.4950   29.4810   37.8750 C   0  0  0  0  0  0  0  0  0  0  0  0
   38.7300   28.8280   37.3290 C   0  0  0  0  0  0  0  0  0  0  0  0
   39.8710   29.5260   37.6790 O   0  0  0  0  0  0  0  0  0  0  0  0
   39.5120   30.8340   37.9500 C   0  0  0  0  0  0  0  0  0  0  0  0
   38.6700   30.9360   39.2380 C   0  0  1  0  0  0  0  0  0  0  0  0
   35.8190   29.3050   40.9640 C   0  0  1  0  0  0  0  0  0  0  0  0
   36.2190   30.7030   41.2360 C   0  0  0  0  0  0  0  0  0  0  0  0
   36.4520   30.2020   39.8790 C   0  0  1  0  0  0  0  0  0  0  0  0
   38.1430   27.5670   43.2250 C   0  0  0  0  0  0  0  0  0  0  0  0
   38.2320   26.2810   42.6410 C   0  0  0  0  0  0  0  0  0  0  0  0
   37.4850   26.0380   41.4510 C   0  0  0  0  0  0  0  0  0  0  0  0
   36.7150   27.0660   40.9290 N   0  0  0  0  0  0  0  0  0  0  0  0
   36.6860   28.2510   41.5430 C   0  0  0  0  0  0  0  0  0  0  0  0
   37.3790   28.5220   42.6710 N   0  0  0  0  0  0  0  0  0  0  0  0
   38.2170   32.3150   39.3860 C   0  0  0  0  0  0  0  0  0  0  0  0
   38.8020   33.2190   40.2290 C   0  0  0  0  0  0  0  0  0  0  0  0
   38.0990   34.4020   40.0980 C   0  0  0  0  0  0  0  0  0  0  0  0
   37.1270   34.1790   39.1930 N   0  0  0  0  0  0  0  0  0  0  0  0
   37.1770   32.9330   38.7500 N   0  0  0  0  0  0  0  0  0  0  0  0
   36.6626   28.7632   37.8325 H   0  0  0  0  0  0  0  0  0  0  0  0
   37.2767   30.3704   37.2656 H   0  0  0  0  0  0  0  0  0  0  0  0
   38.6579   28.7885   36.2321 H   0  0  0  0  0  0  0  0  0  0  0  0
   38.8013   27.8160   37.7543 H   0  0  0  0  0  0  0  0  0  0  0  0
   40.4241   31.4368   38.0710 H   0  0  0  0  0  0  0  0  0  0  0  0
   38.9045   31.2050   37.1114 H   0  0  0  0  0  0  0  0  0  0  0  0
   39.2608   30.7302   40.1427 H   0  0  0  0  0  0  0  0  0  0  0  0
   34.8977   28.7114   41.0576 H   0  0  0  0  0  0  0  0  0  0  0  0
   35.4433   31.4642   41.4057 H   0  0  0  0  0  0  0  0  0  0  0  0
   36.8649   31.1736   41.9919 H   0  0  0  0  0  0  0  0  0  0  0  0
   36.1917   30.5716   38.8762 H   0  0  0  0  0  0  0  0  0  0  0  0
   38.7065   27.7868   44.1438 H   0  0  0  0  0  0  0  0  0  0  0  0
   38.8567   25.4949   43.0902 H   0  0  0  0  0  0  0  0  0  0  0  0
   37.5189   25.0555   40.9575 H   0  0  0  0  0  0  0  0  0  0  0  0
   39.6662   33.0393   40.8854 H   0  0  0  0  0  0  0  0  0  0  0  0
   38.2957   35.3442   40.6305 H   0  0  0  0  0  0  0  0  0  0  0  0
   36.4389   34.8819   38.8875 H   0  0  0  0  0  0  0  0  0  0  0  0
  1  2  1  0
  1  9  1  0
  3  4  1  0
  3  2  1  0
  4  5  1  0
  5  6  1  0
  6  1  1  0
  6 16  1  0
  7  8  1  0
  7 14  1  0
  9  7  1  0
  9  8  1  0
 11 10  2  0
 12 11  1  0
 13 12  2  0
 13 14  1  0
 14 15  2  0
 15 10  1  0
 16 17  1  0
 18 17  2  0
 19 18  1  0
 20 19  1  0
 20 16  2  0
  2 21  1  0
  2 22  1  0
  3 23  1  0
  3 24  1  0
  5 25  1  0
  5 26  1  0
  6 27  1  1
  7 28  1  6
  8 29  1  0
  8 30  1  0
  9 31  1  6
 10 32  1  0
 11 33  1  0
 12 34  1  0
 17 35  1  0
 18 36  1  0
 19 37  1  0
M  ISO  8  21  13  22  13  23  13  24  13  25  13  26  13  27  13  28  13
M  ISO  8  29  13  30  13  31  13  32  14  33  14  34  14  35  14  36  14
M  ISO  1  37   9
M  END
>  <minimizedAffinity>  (1) 
-5.09158516

>  <minimizedRMSD>  (1) 
1.4547379

$$$$
