
     RDKit          3D

 36 39  0  0  1  0  0  0  0  0999 V2000
   37.1550   29.5560   40.7470 N   0  0  0  0  0  0  0  0  0  0  0  0
   35.6780   29.6650   40.6260 C   0  0  0  0  0  0  0  0  0  0  0  0
   35.1720   28.9480   39.4100 C   0  0  0  0  0  0  0  0  0  0  0  0
   35.9690   29.2030   38.3040 O   0  0  0  0  0  0  0  0  0  0  0  0
   36.6360   30.3980   38.5170 C   0  0  0  0  0  0  0  0  0  0  0  0
   37.6920   30.2600   39.6340 C   0  0  1  0  0  0  0  0  0  0  0  0
   37.8990   28.8920   43.1330 C   0  0  1  0  0  0  0  0  0  0  0  0
   38.9220   29.8130   42.5920 C   0  0  0  0  0  0  0  0  0  0  0  0
   37.5720   29.9250   42.0320 C   0  0  1  0  0  0  0  0  0  0  0  0
   39.3360   25.7140   41.9520 C   0  0  0  0  0  0  0  0  0  0  0  0
   38.2060   24.8470   41.9740 C   0  0  0  0  0  0  0  0  0  0  0  0
   36.9730   25.3860   42.3860 C   0  0  0  0  0  0  0  0  0  0  0  0
   36.9080   26.7250   42.7480 N   0  0  0  0  0  0  0  0  0  0  0  0
   38.0110   27.4770   42.7020 C   0  0  0  0  0  0  0  0  0  0  0  0
   39.2150   27.0010   42.3130 N   0  0  0  0  0  0  0  0  0  0  0  0
   38.2030   31.5820   39.9110 N   0  0  0  0  0  0  0  0  0  0  0  0
   39.5230   31.9170   39.7890 C   0  0  0  0  0  0  0  0  0  0  0  0
   39.6660   33.2140   40.1180 N   0  0  0  0  0  0  0  0  0  0  0  0
   38.4480   33.6850   40.4410 C   0  0  0  0  0  0  0  0  0  0  0  0
   37.5580   32.6840   40.3140 N   0  0  0  0  0  0  0  0  0  0  0  0
   35.2126   29.2246   41.5201 H   0  0  0  0  0  0  0  0  0  0  0  0
   35.4169   30.7295   40.5327 H   0  0  0  0  0  0  0  0  0  0  0  0
   35.1697   27.8659   39.6076 H   0  0  0  0  0  0  0  0  0  0  0  0
   34.1551   29.3075   39.1942 H   0  0  0  0  0  0  0  0  0  0  0  0
   37.1373   30.6995   37.5854 H   0  0  0  0  0  0  0  0  0  0  0  0
   35.9007   31.1554   38.8263 H   0  0  0  0  0  0  0  0  0  0  0  0
   38.5499   29.6422   39.3303 H   0  0  0  0  0  0  0  0  0  0  0  0
   37.4958   28.6470   44.1267 H   0  0  0  0  0  0  0  0  0  0  0  0
   39.3124   30.6212   43.2279 H   0  0  0  0  0  0  0  0  0  0  0  0
   39.9171   29.6639   42.1475 H   0  0  0  0  0  0  0  0  0  0  0  0
   36.8769   30.7647   41.8845 H   0  0  0  0  0  0  0  0  0  0  0  0
   40.3156   25.3256   41.6366 H   0  0  0  0  0  0  0  0  0  0  0  0
   38.2942   23.7911   41.6787 H   0  0  0  0  0  0  0  0  0  0  0  0
   36.0727   24.7550   42.4208 H   0  0  0  0  0  0  0  0  0  0  0  0
   40.3315   31.2405   39.4749 H   0  0  0  0  0  0  0  0  0  0  0  0
   38.2186   34.7138   40.7555 H   0  0  0  0  0  0  0  0  0  0  0  0
  1  2  1  0
  1  9  1  0
  3  2  1  0
  4  5  1  0
  4  3  1  0
  5  6  1  0
  6 16  1  0
  6  1  1  0
  8  7  1  0
  9  8  1  0
  9  7  1  0
 10 11  2  0
 10 15  1  0
 11 12  1  0
 12 13  2  0
 14 13  1  0
 14  7  1  0
 15 14  2  0
 16 20  1  0
 17 16  1  0
 17 18  2  0
 18 19  1  0
 20 19  2  0
  2 21  1  0
  2 22  1  0
  3 23  1  0
  3 24  1  0
  5 25  1  0
  5 26  1  0
  6 27  1  6
  7 28  1  1
  8 29  1  0
  8 30  1  0
  9 31  1  1
 10 32  1  0
 11 33  1  0
 12 34  1  0
 17 35  1  0
 19 36  1  0
M  ISO  8  21  13  22  13  23  13  24  13  25  13  26  13  27  13  28  13
M  ISO  8  29  13  30  13  31  13  32  14  33  14  34  14  35  14  36  14
M  END
>  <minimizedAffinity>  (1) 
-4.88080168

>  <minimizedRMSD>  (1) 
2.79498672

$$$$
