
     RDKit          3D

 37 40  0  0  1  0  0  0  0  0999 V2000
   37.8070   30.0290   39.2620 N   0  0  0  0  0  0  0  0  0  0  0  0
   37.7080   29.7980   37.7960 C   0  0  0  0  0  0  0  0  0  0  0  0
   38.8870   29.0290   37.2800 C   0  0  0  0  0  0  0  0  0  0  0  0
   40.0730   29.4920   37.8210 O   0  0  0  0  0  0  0  0  0  0  0  0
   39.8790   30.8040   38.2360 C   0  0  0  0  0  0  0  0  0  0  0  0
   38.9310   30.8690   39.4510 C   0  0  1  0  0  0  0  0  0  0  0  0
   35.6510   29.4830   40.5850 C   0  0  1  0  0  0  0  0  0  0  0  0
   36.2400   30.7030   41.1790 C   0  0  0  0  0  0  0  0  0  0  0  0
   36.5680   30.4300   39.7790 C   0  0  1  0  0  0  0  0  0  0  0  0
   37.1170   26.8760   42.7260 C   0  0  0  0  0  0  0  0  0  0  0  0
   37.2800   25.7880   41.8310 C   0  0  0  0  0  0  0  0  0  0  0  0
   36.8800   25.9930   40.4760 C   0  0  0  0  0  0  0  0  0  0  0  0
   36.3600   27.2260   40.1060 N   0  0  0  0  0  0  0  0  0  0  0  0
   36.2430   28.1930   41.0160 C   0  0  0  0  0  0  0  0  0  0  0  0
   36.6080   28.0450   42.3100 N   0  0  0  0  0  0  0  0  0  0  0  0
   38.6870   32.2650   39.7910 C   0  0  0  0  0  0  0  0  0  0  0  0
   39.2580   32.9180   40.8570 C   0  0  0  0  0  0  0  0  0  0  0  0
   38.7750   34.2080   40.8320 C   0  0  0  0  0  0  0  0  0  0  0  0
   37.9230   34.2960   39.7470 C   0  0  0  0  0  0  0  0  0  0  0  0
   37.9010   33.1450   39.1700 O   0  0  0  0  0  0  0  0  0  0  0  0
   36.7903   29.2294   37.5849 H   0  0  0  0  0  0  0  0  0  0  0  0
   37.6871   30.7761   37.2932 H   0  0  0  0  0  0  0  0  0  0  0  0
   38.7644   27.9681   37.5437 H   0  0  0  0  0  0  0  0  0  0  0  0
   38.9323   29.1597   36.1887 H   0  0  0  0  0  0  0  0  0  0  0  0
   40.8499   31.2398   38.5144 H   0  0  0  0  0  0  0  0  0  0  0  0
   39.4244   31.3681   37.4083 H   0  0  0  0  0  0  0  0  0  0  0  0
   39.3876   30.4442   40.3571 H   0  0  0  0  0  0  0  0  0  0  0  0
   34.6391   29.0698   40.4610 H   0  0  0  0  0  0  0  0  0  0  0  0
   35.5874   31.5535   41.4253 H   0  0  0  0  0  0  0  0  0  0  0  0
   36.8473   30.8914   42.0766 H   0  0  0  0  0  0  0  0  0  0  0  0
   36.5124   31.0238   38.8547 H   0  0  0  0  0  0  0  0  0  0  0  0
   37.4130   26.7591   43.7790 H   0  0  0  0  0  0  0  0  0  0  0  0
   37.6969   24.8270   42.1666 H   0  0  0  0  0  0  0  0  0  0  0  0
   36.9823   25.1858   39.7358 H   0  0  0  0  0  0  0  0  0  0  0  0
   39.9628   32.4937   41.5873 H   0  0  0  0  0  0  0  0  0  0  0  0
   39.0203   35.0135   41.5398 H   0  0  0  0  0  0  0  0  0  0  0  0
   37.3638   35.1896   39.4327 H   0  0  0  0  0  0  0  0  0  0  0  0
  1  2  1  0
  1  6  1  0
  1  9  1  0
  3  2  1  0
  3  4  1  0
  4  5  1  0
  5  6  1  0
  6 16  1  0
  7 14  1  0
  7  8  1  0
  9  7  1  0
  9  8  1  0
 11 10  2  0
 12 11  1  0
 13 12  2  0
 13 14  1  0
 14 15  2  0
 15 10  1  0
 16 17  2  0
 18 17  1  0
 19 18  2  0
 20 19  1  0
 20 16  1  0
  2 21  1  0
  2 22  1  0
  3 23  1  0
  3 24  1  0
  5 25  1  0
  5 26  1  0
  6 27  1  1
  7 28  1  6
  8 29  1  0
  8 30  1  0
  9 31  1  6
 10 32  1  0
 11 33  1  0
 12 34  1  0
 17 35  1  0
 18 36  1  0
 19 37  1  0
M  ISO  8  21  13  22  13  23  13  24  13  25  13  26  13  27  13  28  13
M  ISO  8  29  13  30  13  31  13  32  14  33  14  34  14  35  14  36  14
M  ISO  1  37  14
M  END
>  <minimizedAffinity>  (1) 
-4.75248623

>  <minimizedRMSD>  (1) 
1.61433136

$$$$
