
     RDKit          3D

 31 33  0  0  0  0  0  0  0  0999 V2000
   36.8910   26.8760   41.4120 C   0  0  0  0  0  0  0  0  0  0  0  0
   36.8240   25.9860   40.3490 C   0  0  0  0  0  0  0  0  0  0  0  0
   36.9340   24.7560   40.9470 C   0  0  0  0  0  0  0  0  0  0  0  0
   37.0590   24.8830   42.2740 N   0  0  0  0  0  0  0  0  0  0  0  0
   37.0310   26.1860   42.5560 N   0  0  0  0  0  0  0  0  0  0  0  0
   37.8290   29.1950   41.6400 C   0  0  0  0  0  0  0  0  0  0  0  0
   36.8150   28.3230   41.2540 C   0  0  0  0  0  0  0  0  0  0  0  0
   35.6590   28.8780   40.6830 C   0  0  0  0  0  0  0  0  0  0  0  0
   35.5850   30.2390   40.5340 N   0  0  0  0  0  0  0  0  0  0  0  0
   36.6230   31.0410   40.9370 C   0  0  0  0  0  0  0  0  0  0  0  0
   37.7380   30.5180   41.4870 N   0  0  0  0  0  0  0  0  0  0  0  0
   36.9260   23.4920   40.3220 N   0  0  0  0  0  0  0  0  0  0  0  0
   37.9260   22.4740   40.4690 C   0  0  0  0  0  0  0  0  0  0  0  0
   38.2940   21.9710   39.0930 C   0  0  0  0  0  0  0  0  0  0  0  0
   37.1810   21.3740   38.3990 N   0  0  0  0  0  0  0  0  0  0  0  0
   35.9020   21.7350   38.9530 C   0  0  0  0  0  0  0  0  0  0  0  0
   35.8270   23.1420   39.4420 C   0  0  0  0  0  0  0  0  0  0  0  0
   36.7096   26.2133   39.2788 H   0  0  0  0  0  0  0  0  0  0  0  0
   37.1586   24.1148   42.9528 H   0  0  0  0  0  0  0  0  0  0  0  0
   38.7420   28.7771   42.0892 H   0  0  0  0  0  0  0  0  0  0  0  0
   34.8280   28.2331   40.3611 H   0  0  0  0  0  0  0  0  0  0  0  0
   36.5443   32.1307   40.8091 H   0  0  0  0  0  0  0  0  0  0  0  0
   38.8152   22.8940   40.9619 H   0  0  0  0  0  0  0  0  0  0  0  0
   37.5396   21.6482   41.0844 H   0  0  0  0  0  0  0  0  0  0  0  0
   38.6659   22.8177   38.4974 H   0  0  0  0  0  0  0  0  0  0  0  0
   39.0606   21.1924   39.2198 H   0  0  0  0  0  0  0  0  0  0  0  0
   37.2792   20.3497   38.4445 H   0  0  0  0  0  0  0  0  0  0  0  0
   35.1370   21.5983   38.1745 H   0  0  0  0  0  0  0  0  0  0  0  0
   35.7392   21.0860   39.8261 H   0  0  0  0  0  0  0  0  0  0  0  0
   35.8438   23.8170   38.5736 H   0  0  0  0  0  0  0  0  0  0  0  0
   34.8962   23.2421   40.0196 H   0  0  0  0  0  0  0  0  0  0  0  0
  1  5  2  0
  2  3  2  0
  2  1  1  0
  3  4  1  0
  4  5  1  0
  7  1  1  0
  7  6  2  0
  8  7  1  0
  9  8  2  0
  9 10  1  0
 10 11  2  0
 11  6  1  0
 12 13  1  0
 12  3  1  0
 14 13  1  0
 15 16  1  0
 15 14  1  0
 16 17  1  0
 17 12  1  0
  2 18  1  0
  4 19  1  0
  6 20  1  0
  8 21  1  0
 10 22  1  0
 13 23  1  0
 13 24  1  0
 14 25  1  0
 14 26  1  0
 15 27  1  0
 16 28  1  0
 16 29  1  0
 17 30  1  0
 17 31  1  0
M  ISO  8  18  14  19   9  20  14  21  14  22  14  23  13  24  13  25  13
M  ISO  6  26  13  27   5  28  13  29  13  30  13  31  13
M  END
>  <minimizedAffinity>  (1) 
-4.01495552

>  <minimizedRMSD>  (1) 
0.606214166

$$$$
