
     RDKit          3D

 32 34  0  0  1  0  0  0  0  0999 V2000
   36.2410   30.6030   40.5100 C   0  0  1  0  0  0  0  0  0  0  0  0
   36.9300   31.9110   40.5000 C   0  0  0  0  0  0  0  0  0  0  0  0
   37.1670   31.0300   39.3510 C   0  0  1  0  0  0  0  0  0  0  0  0
   38.3500   30.3460   39.0370 N   0  0  0  0  0  0  0  0  0  0  0  0
   38.1620   29.5040   37.8300 C   0  0  0  0  0  0  0  0  0  0  0  0
   39.2770   28.5130   37.6710 C   0  0  0  0  0  0  0  0  0  0  0  0
   40.5110   29.0940   37.9190 O   0  0  0  0  0  0  0  0  0  0  0  0
   40.4010   30.4660   37.7080 C   0  0  0  0  0  0  0  0  0  0  0  0
   39.5160   31.1290   38.7800 C   0  0  1  0  0  0  0  0  0  0  0  0
   39.1090   32.4040   38.2260 N   0  0  0  0  0  0  0  0  0  0  0  0
   38.1660   29.0700   43.2450 C   0  0  0  0  0  0  0  0  0  0  0  0
   37.7220   27.7310   43.2280 C   0  0  0  0  0  0  0  0  0  0  0  0
   36.7540   27.3740   42.2430 C   0  0  0  0  0  0  0  0  0  0  0  0
   36.3050   28.3460   41.3650 N   0  0  0  0  0  0  0  0  0  0  0  0
   36.7780   29.5920   41.4510 C   0  0  0  0  0  0  0  0  0  0  0  0
   37.6950   29.9700   42.3680 N   0  0  0  0  0  0  0  0  0  0  0  0
   35.2015   30.2543   40.5992 H   0  0  0  0  0  0  0  0  0  0  0  0
   36.3423   32.8309   40.3641 H   0  0  0  0  0  0  0  0  0  0  0  0
   37.5933   32.4243   41.2117 H   0  0  0  0  0  0  0  0  0  0  0  0
   37.0985   31.1663   38.2616 H   0  0  0  0  0  0  0  0  0  0  0  0
   37.2102   28.9598   37.9187 H   0  0  0  0  0  0  0  0  0  0  0  0
   38.1568   30.1616   36.9482 H   0  0  0  0  0  0  0  0  0  0  0  0
   39.1230   27.6848   38.3784 H   0  0  0  0  0  0  0  0  0  0  0  0
   39.2693   28.1476   36.6335 H   0  0  0  0  0  0  0  0  0  0  0  0
   41.4044   30.9154   37.7439 H   0  0  0  0  0  0  0  0  0  0  0  0
   39.9357   30.6294   36.7247 H   0  0  0  0  0  0  0  0  0  0  0  0
   40.0669   31.2329   39.7264 H   0  0  0  0  0  0  0  0  0  0  0  0
   38.8996   33.0600   38.9920 H   0  0  0  0  0  0  0  0  0  0  0  0
   39.8702   32.7850   37.6461 H   0  0  0  0  0  0  0  0  0  0  0  0
   38.9119   29.3820   43.9908 H   0  0  0  0  0  0  0  0  0  0  0  0
   38.1070   26.9917   43.9458 H   0  0  0  0  0  0  0  0  0  0  0  0
   36.3710   26.3447   42.1820 H   0  0  0  0  0  0  0  0  0  0  0  0
  1 15  1  0
  2  1  1  0
  3  2  1  0
  3  1  1  0
  4  5  1  0
  4  3  1  0
  6  5  1  0
  6  7  1  0
  8  7  1  0
  8  9  1  0
  9  4  1  0
 10  9  1  0
 12 11  2  0
 13 12  1  0
 14 15  1  0
 14 13  2  0
 15 16  2  0
 16 11  1  0
  1 17  1  6
  2 18  1  0
  2 19  1  0
  3 20  1  6
  5 21  1  0
  5 22  1  0
  6 23  1  0
  6 24  1  0
  8 25  1  0
  8 26  1  0
  9 27  1  1
 10 28  1  0
 10 29  1  0
 11 30  1  0
 12 31  1  0
 13 32  1  0
M  ISO  8  17  13  18  13  19  13  20  13  21  13  22  13  23  13  24  13
M  ISO  8  25  13  26  13  27  13  28   5  29   5  30  14  31  14  32  14
M  END
>  <minimizedAffinity>  (1) 
-4.15027142

>  <minimizedRMSD>  (1) 
0.572654784

$$$$
