
     RDKit          3D

 31 33  0  0  1  0  0  0  0  0999 V2000
   36.1860   30.6280   40.7630 C   0  0  1  0  0  0  0  0  0  0  0  0
   37.0250   31.8220   40.5170 C   0  0  0  0  0  0  0  0  0  0  0  0
   36.8770   30.8780   39.4040 C   0  0  1  0  0  0  0  0  0  0  0  0
   37.8590   30.0200   38.8820 N   0  0  0  0  0  0  0  0  0  0  0  0
   37.6090   29.7660   37.4400 C   0  0  0  0  0  0  0  0  0  0  0  0
   38.4180   28.6070   36.9420 C   0  0  0  0  0  0  0  0  0  0  0  0
   39.7220   28.6570   37.4200 O   0  0  0  0  0  0  0  0  0  0  0  0
   40.0080   29.9790   37.7250 C   0  0  0  0  0  0  0  0  0  0  0  0
   39.2210   30.4380   38.9730 C   0  0  2  0  0  0  0  0  0  0  0  0
   39.9010   29.7500   40.0050 O   0  0  0  0  0  0  0  0  0  0  0  0
   38.4190   28.9740   43.1780 C   0  0  0  0  0  0  0  0  0  0  0  0
   37.8680   27.6690   43.2690 C   0  0  0  0  0  0  0  0  0  0  0  0
   36.7310   27.3880   42.4760 C   0  0  0  0  0  0  0  0  0  0  0  0
   36.2130   28.3830   41.6570 N   0  0  0  0  0  0  0  0  0  0  0  0
   36.7930   29.5860   41.6300 C   0  0  0  0  0  0  0  0  0  0  0  0
   37.8780   29.8950   42.3700 N   0  0  0  0  0  0  0  0  0  0  0  0
   35.1561   30.4347   41.0975 H   0  0  0  0  0  0  0  0  0  0  0  0
   36.5507   32.8124   40.4528 H   0  0  0  0  0  0  0  0  0  0  0  0
   37.8943   32.2570   41.0318 H   0  0  0  0  0  0  0  0  0  0  0  0
   36.5833   30.9855   38.3494 H   0  0  0  0  0  0  0  0  0  0  0  0
   36.5410   29.5459   37.2950 H   0  0  0  0  0  0  0  0  0  0  0  0
   37.9025   30.6624   36.8740 H   0  0  0  0  0  0  0  0  0  0  0  0
   38.4386   28.6309   35.8425 H   0  0  0  0  0  0  0  0  0  0  0  0
   37.9519   27.6784   37.3033 H   0  0  0  0  0  0  0  0  0  0  0  0
   41.0857   30.0785   37.9218 H   0  0  0  0  0  0  0  0  0  0  0  0
   39.7142   30.6086   36.8722 H   0  0  0  0  0  0  0  0  0  0  0  0
   39.1845   31.5280   39.1166 H   0  0  0  0  0  0  0  0  0  0  0  0
   39.5809   30.0738   40.8841 H   0  0  0  0  0  0  0  0  0  0  0  0
   39.3029   29.2325   43.7796 H   0  0  0  0  0  0  0  0  0  0  0  0
   38.3075   26.9071   43.9295 H   0  0  0  0  0  0  0  0  0  0  0  0
   36.2625   26.3932   42.5075 H   0  0  0  0  0  0  0  0  0  0  0  0
  1 15  1  0
  2  1  1  0
  3  2  1  0
  3  1  1  0
  4  5  1  0
  4  9  1  0
  4  3  1  0
  6  7  1  0
  6  5  1  0
  7  8  1  0
  8  9  1  0
  9 10  1  0
 11 12  2  0
 13 12  1  0
 14 13  2  0
 15 14  1  0
 15 16  2  0
 16 11  1  0
  1 17  1  6
  2 18  1  0
  2 19  1  0
  3 20  1  6
  5 21  1  0
  5 22  1  0
  6 23  1  0
  6 24  1  0
  8 25  1  0
  8 26  1  0
  9 27  1  1
 10 28  1  0
 11 29  1  0
 12 30  1  0
 13 31  1  0
M  ISO  8  17  13  18  13  19  13  20  13  21  13  22  13  23  13  24  13
M  ISO  7  25  13  26  13  27  13  28   3  29  14  30  14  31  14
M  END
>  <minimizedAffinity>  (1) 
-4.14433765

>  <minimizedRMSD>  (1) 
0.0208643358

$$$$
