
     RDKit          3D

 31 33  0  0  1  0  0  0  0  0999 V2000
   36.2120   30.6160   40.7580 C   0  0  1  0  0  0  0  0  0  0  0  0
   37.0550   31.8150   40.5600 C   0  0  0  0  0  0  0  0  0  0  0  0
   36.9730   30.8760   39.4380 C   0  0  1  0  0  0  0  0  0  0  0  0
   37.9820   30.0240   38.9660 N   0  0  0  0  0  0  0  0  0  0  0  0
   37.6700   29.5570   37.5920 C   0  0  0  0  0  0  0  0  0  0  0  0
   38.5240   28.3930   37.1950 C   0  0  0  0  0  0  0  0  0  0  0  0
   39.8440   28.5750   37.5790 O   0  0  0  0  0  0  0  0  0  0  0  0
   40.0750   29.9440   37.7080 C   0  0  0  0  0  0  0  0  0  0  0  0
   39.3120   30.5260   38.9130 C   0  0  1  0  0  0  0  0  0  0  0  0
   39.4540   32.3160   38.7830 S   0  0  0  0  0  0  0  0  0  0  0  0
   38.3140   28.9450   43.2710 C   0  0  0  0  0  0  0  0  0  0  0  0
   37.7510   27.6540   43.3420 C   0  0  0  0  0  0  0  0  0  0  0  0
   36.6470   27.3770   42.4980 C   0  0  0  0  0  0  0  0  0  0  0  0
   36.1750   28.3730   41.6520 N   0  0  0  0  0  0  0  0  0  0  0  0
   36.7670   29.5690   41.6490 C   0  0  0  0  0  0  0  0  0  0  0  0
   37.8210   29.8730   42.4380 N   0  0  0  0  0  0  0  0  0  0  0  0
   35.1672   30.4177   41.0394 H   0  0  0  0  0  0  0  0  0  0  0  0
   36.5784   32.8027   40.4742 H   0  0  0  0  0  0  0  0  0  0  0  0
   37.8932   32.2531   41.1217 H   0  0  0  0  0  0  0  0  0  0  0  0
   36.7372   30.9884   38.3695 H   0  0  0  0  0  0  0  0  0  0  0  0
   36.6132   29.2545   37.5497 H   0  0  0  0  0  0  0  0  0  0  0  0
   37.8718   30.3837   36.8949 H   0  0  0  0  0  0  0  0  0  0  0  0
   38.4829   28.2762   36.1020 H   0  0  0  0  0  0  0  0  0  0  0  0
   38.1389   27.4950   37.7003 H   0  0  0  0  0  0  0  0  0  0  0  0
   41.1525   30.1144   37.8491 H   0  0  0  0  0  0  0  0  0  0  0  0
   39.7196   30.4450   36.7954 H   0  0  0  0  0  0  0  0  0  0  0  0
   39.7381   30.2147   39.8782 H   0  0  0  0  0  0  0  0  0  0  0  0
   39.4974   32.8630   40.0383 H   0  0  0  0  0  0  0  0  0  0  0  0
   39.1732   29.1953   43.9106 H   0  0  0  0  0  0  0  0  0  0  0  0
   38.1531   26.8919   44.0258 H   0  0  0  0  0  0  0  0  0  0  0  0
   36.1697   26.3860   42.5124 H   0  0  0  0  0  0  0  0  0  0  0  0
  1 15  1  0
  2  1  1  0
  3  2  1  0
  3  1  1  0
  4  5  1  0
  4  3  1  0
  6  7  1  0
  6  5  1  0
  7  8  1  0
  8  9  1  0
  9  4  1  0
 10  9  1  0
 11 12  2  0
 13 12  1  0
 14 13  2  0
 15 14  1  0
 15 16  2  0
 16 11  1  0
  1 17  1  6
  2 18  1  0
  2 19  1  0
  3 20  1  6
  5 21  1  0
  5 22  1  0
  6 23  1  0
  6 24  1  0
  8 25  1  0
  8 26  1  0
  9 27  1  1
 10 28  1  0
 11 29  1  0
 12 30  1  0
 13 31  1  0
M  ISO  8  17  13  18  13  19  13  20  13  21  13  22  13  23  13  24  13
M  ISO  7  25  13  26  13  27  13  28  11  29  14  30  14  31  14
M  END
>  <minimizedAffinity>  (1) 
-4.11992931

>  <minimizedRMSD>  (1) 
0.162886739

$$$$
