
     RDKit          3D

 37 40  0  0  0  0  0  0  0  0999 V2000
   39.8890   29.6970   41.6360 C   0  0  0  0  0  0  0  0  0  0  0  0
   40.9180   29.1620   42.4000 C   0  0  0  0  0  0  0  0  0  0  0  0
   40.4130   28.1790   43.1760 N   0  0  0  0  0  0  0  0  0  0  0  0
   39.0940   28.0430   42.9560 C   0  0  0  0  0  0  0  0  0  0  0  0
   38.1170   27.2020   43.4790 C   0  0  0  0  0  0  0  0  0  0  0  0
   36.7990   27.2840   43.0570 C   0  0  0  0  0  0  0  0  0  0  0  0
   36.4930   28.2390   42.0950 C   0  0  0  0  0  0  0  0  0  0  0  0
   37.4630   29.0600   41.5890 C   0  0  0  0  0  0  0  0  0  0  0  0
   38.7670   28.9860   42.0000 C   0  0  0  0  0  0  0  0  0  0  0  0
   40.0100   31.4500   38.3500 C   0  0  0  0  0  0  0  0  0  0  0  0
   39.9370   30.4150   39.3010 C   0  0  0  0  0  0  0  0  0  0  0  0
   39.9650   30.7630   40.6700 C   0  0  0  0  0  0  0  0  0  0  0  0
   40.0610   32.0820   40.9760 N   0  0  0  0  0  0  0  0  0  0  0  0
   40.1310   33.0540   40.0480 C   0  0  0  0  0  0  0  0  0  0  0  0
   40.1050   32.7400   38.7230 N   0  0  0  0  0  0  0  0  0  0  0  0
   40.2350   34.4730   40.4740 C   0  0  0  0  0  0  0  0  0  0  0  0
   41.0570   35.3100   39.5080 C   0  0  0  0  0  0  0  0  0  0  0  0
   40.6580   36.7100   39.9710 C   0  0  0  0  0  0  0  0  0  0  0  0
   39.1350   36.5770   39.9360 C   0  0  0  0  0  0  0  0  0  0  0  0
   38.8850   35.1520   40.3910 C   0  0  0  0  0  0  0  0  0  0  0  0
   41.9692   29.4851   42.3769 H   0  0  0  0  0  0  0  0  0  0  0  0
   40.9602   27.6143   43.8412 H   0  0  0  0  0  0  0  0  0  0  0  0
   38.3952   26.4589   44.2408 H   0  0  0  0  0  0  0  0  0  0  0  0
   36.0253   26.6188   43.4678 H   0  0  0  0  0  0  0  0  0  0  0  0
   35.4578   28.3359   41.7359 H   0  0  0  0  0  0  0  0  0  0  0  0
   37.1865   29.8038   40.8272 H   0  0  0  0  0  0  0  0  0  0  0  0
   39.9890   31.1995   37.2791 H   0  0  0  0  0  0  0  0  0  0  0  0
   39.8602   29.3636   38.9869 H   0  0  0  0  0  0  0  0  0  0  0  0
   40.6699   34.4275   41.4833 H   0  0  0  0  0  0  0  0  0  0  0  0
   40.7694   35.1277   38.4620 H   0  0  0  0  0  0  0  0  0  0  0  0
   42.1380   35.1067   39.5203 H   0  0  0  0  0  0  0  0  0  0  0  0
   41.0259   36.9249   40.9851 H   0  0  0  0  0  0  0  0  0  0  0  0
   41.0654   37.5323   39.3645 H   0  0  0  0  0  0  0  0  0  0  0  0
   38.6631   37.2958   40.6221 H   0  0  0  0  0  0  0  0  0  0  0  0
   38.7127   36.7861   38.9420 H   0  0  0  0  0  0  0  0  0  0  0  0
   38.3993   35.1499   41.3780 H   0  0  0  0  0  0  0  0  0  0  0  0
   38.2222   34.6253   39.6886 H   0  0  0  0  0  0  0  0  0  0  0  0
  1  9  1  0
  1  2  2  0
  2  3  1  0
  4  3  1  0
  4  5  2  0
  6  5  1  0
  7  6  2  0
  8  9  2  0
  8  7  1  0
  9  4  1  0
 10 15  2  0
 10 11  1  0
 11 12  2  0
 12 13  1  0
 12  1  1  0
 14 16  1  0
 14 13  2  0
 15 14  1  0
 17 18  1  0
 17 16  1  0
 19 18  1  0
 19 20  1  0
 20 16  1  0
  2 21  1  0
  3 22  1  0
  5 23  1  0
  6 24  1  0
  7 25  1  0
  8 26  1  0
 10 27  1  0
 11 28  1  0
 16 29  1  0
 17 30  1  0
 17 31  1  0
 18 32  1  0
 18 33  1  0
 19 34  1  0
 19 35  1  0
 20 36  1  0
 20 37  1  0
M  ISO  8  21  14  22   9  23  14  24  14  25  14  26  14  27  14  28  14
M  ISO  8  29  13  30  13  31  13  32  13  33  13  34  13  35  13  36  13
M  ISO  1  37  13
M  END
>  <minimizedAffinity>  (1) 
-5.84923601

>  <minimizedRMSD>  (1) 
3.67448425

$$$$
