
     RDKit          3D

 31 33  0  0  0  0  0  0  0  0999 V2000
   39.9500   31.6990   41.6510 C   0  0  0  0  0  0  0  0  0  0  0  0
   39.4770   30.5150   42.2490 C   0  0  0  0  0  0  0  0  0  0  0  0
   38.1770   30.0880   41.8900 C   0  0  0  0  0  0  0  0  0  0  0  0
   37.4700   30.8350   41.0010 N   0  0  0  0  0  0  0  0  0  0  0  0
   37.9680   31.9690   40.4530 C   0  0  0  0  0  0  0  0  0  0  0  0
   39.2080   32.3970   40.7810 N   0  0  0  0  0  0  0  0  0  0  0  0
   37.1910   32.7200   39.5270 N   0  0  0  0  0  0  0  0  0  0  0  0
   37.4030   34.1320   39.4760 C   0  0  0  0  0  0  0  0  0  0  0  0
   38.4770   34.6900   39.9230 N   0  0  0  0  0  0  0  0  0  0  0  0
   36.3770   34.9360   38.9050 N   0  0  0  0  0  0  0  0  0  0  0  0
   38.5970   35.7230   39.8670 H   0  0  0  0  0  0  0  0  0  0  0  0
   37.6800   28.8680   42.5000 C   0  0  0  0  0  0  0  0  0  0  0  0
   37.2850   28.6800   43.8120 C   0  0  0  0  0  0  0  0  0  0  0  0
   36.8900   27.4030   43.9760 N   0  0  0  0  0  0  0  0  0  0  0  0
   37.0100   26.7320   42.8070 C   0  0  0  0  0  0  0  0  0  0  0  0
   36.7470   25.4220   42.4340 C   0  0  0  0  0  0  0  0  0  0  0  0
   36.9720   25.0010   41.1330 C   0  0  0  0  0  0  0  0  0  0  0  0
   37.4670   25.9360   40.2260 C   0  0  0  0  0  0  0  0  0  0  0  0
   37.7220   27.2250   40.6070 C   0  0  0  0  0  0  0  0  0  0  0  0
   37.5010   27.6420   41.8920 C   0  0  0  0  0  0  0  0  0  0  0  0
   40.9571   32.0609   41.9054 H   0  0  0  0  0  0  0  0  0  0  0  0
   40.0912   29.9474   42.9636 H   0  0  0  0  0  0  0  0  0  0  0  0
   36.5004   32.2619   38.9153 H   0  0  0  0  0  0  0  0  0  0  0  0
   36.4937   35.9579   38.8507 H   0  0  0  0  0  0  0  0  0  0  0  0
   35.5177   34.4960   38.5460 H   0  0  0  0  0  0  0  0  0  0  0  0
   37.2923   29.4508   44.5967 H   0  0  0  0  0  0  0  0  0  0  0  0
   36.5478   26.9978   44.8589 H   0  0  0  0  0  0  0  0  0  0  0  0
   36.3565   24.7113   43.1773 H   0  0  0  0  0  0  0  0  0  0  0  0
   36.7669   23.9646   40.8268 H   0  0  0  0  0  0  0  0  0  0  0  0
   37.6560   25.6324   39.1857 H   0  0  0  0  0  0  0  0  0  0  0  0
   38.1118   27.9395   39.8671 H   0  0  0  0  0  0  0  0  0  0  0  0
  1  2  2  0
  3  2  1  0
  3 12  1  0
  4  3  2  0
  5  6  2  0
  5  4  1  0
  6  1  1  0
  7  5  1  0
  8  7  1  0
  8  9  2  0
 10  8  1  0
 11  9  1  0
 12 13  2  0
 13 14  1  0
 15 14  1  0
 16 15  2  0
 17 16  1  0
 18 19  1  0
 18 17  2  0
 19 20  2  0
 20 12  1  0
 20 15  1  0
  1 21  1  0
  2 22  1  0
  7 23  1  0
 10 24  1  0
 10 25  1  0
 13 26  1  0
 14 27  1  0
 16 28  1  0
 17 29  1  0
 18 30  1  0
 19 31  1  0
M  ISO  8  21  14  22  14  26  14  27   9  28  14  29  14  30  14  31  14
M  END
>  <minimizedAffinity>  (1) 
-5.8232913

>  <minimizedRMSD>  (1) 
0.991272449

$$$$
