
     RDKit          3D

 25 27  0  0  0  0  0  0  0  0999 V2000
   37.7220   28.9440   42.4170 C   0  0  0  0  0  0  0  0  0  0  0  0
   37.4330   28.6900   43.7450 C   0  0  0  0  0  0  0  0  0  0  0  0
   37.0840   27.4020   43.8890 N   0  0  0  0  0  0  0  0  0  0  0  0
   37.1290   26.7850   42.7090 C   0  0  0  0  0  0  0  0  0  0  0  0
   36.8740   25.4740   42.2660 C   0  0  0  0  0  0  0  0  0  0  0  0
   37.0050   25.1060   40.9380 C   0  0  0  0  0  0  0  0  0  0  0  0
   37.4020   26.0850   40.0540 C   0  0  0  0  0  0  0  0  0  0  0  0
   37.6570   27.3700   40.4540 C   0  0  0  0  0  0  0  0  0  0  0  0
   37.5240   27.7310   41.7810 C   0  0  0  0  0  0  0  0  0  0  0  0
   39.8380   31.8600   41.4600 C   0  0  0  0  0  0  0  0  0  0  0  0
   39.4370   30.6350   42.0450 C   0  0  0  0  0  0  0  0  0  0  0  0
   38.1360   30.1900   41.8250 C   0  0  0  0  0  0  0  0  0  0  0  0
   37.3230   30.9770   41.0500 N   0  0  0  0  0  0  0  0  0  0  0  0
   37.7300   32.1410   40.5050 C   0  0  0  0  0  0  0  0  0  0  0  0
   38.9890   32.5770   40.7130 N   0  0  0  0  0  0  0  0  0  0  0  0
   36.7150   32.7390   39.7670 O   0  0  0  0  0  0  0  0  0  0  0  0
   37.4816   29.4294   44.5580 H   0  0  0  0  0  0  0  0  0  0  0  0
   36.8205   26.9567   44.7796 H   0  0  0  0  0  0  0  0  0  0  0  0
   36.5602   24.7165   42.9993 H   0  0  0  0  0  0  0  0  0  0  0  0
   36.8012   24.0780   40.6037 H   0  0  0  0  0  0  0  0  0  0  0  0
   37.5181   25.8262   38.9912 H   0  0  0  0  0  0  0  0  0  0  0  0
   37.9701   28.1203   39.7130 H   0  0  0  0  0  0  0  0  0  0  0  0
   40.8619   32.2283   41.6214 H   0  0  0  0  0  0  0  0  0  0  0  0
   40.1365   30.0485   42.6588 H   0  0  0  0  0  0  0  0  0  0  0  0
   35.8292   32.3021   39.6988 H   0  0  0  0  0  0  0  0  0  0  0  0
  1  2  2  0
  2  3  1  0
  4  3  1  0
  5  4  2  0
  6  5  1  0
  7  8  1  0
  7  6  2  0
  8  9  2  0
  9  1  1  0
  9  4  1  0
 10 11  2  0
 12 11  1  0
 12  1  1  0
 13 12  2  0
 14 15  2  0
 14 13  1  0
 15 10  1  0
 16 14  1  0
  2 17  1  0
  3 18  1  0
  5 19  1  0
  6 20  1  0
  7 21  1  0
  8 22  1  0
 10 23  1  0
 11 24  1  0
 16 25  1  0
M  ISO  8  17  14  18   9  19  14  20  14  21  14  22  14  23  14  24  14
M  ISO  1  25   3
M  END
>  <minimizedAffinity>  (1) 
-5.03718328

>  <minimizedRMSD>  (1) 
0.611804366

$$$$
