
     RDKit          3D

 45 50  0  0  1  0  0  0  0  0999 V2000
   37.6770   29.0910   37.1810 C   0  0  0  0  0  0  0  0  0  0  0  0
   37.2730   28.2950   38.2670 C   0  0  0  0  0  0  0  0  0  0  0  0
   38.1130   28.2120   39.3880 C   0  0  0  0  0  0  0  0  0  0  0  0
   39.2720   28.9150   39.3390 N   0  0  0  0  0  0  0  0  0  0  0  0
   39.6400   29.6720   38.2830 C   0  0  0  0  0  0  0  0  0  0  0  0
   38.8420   29.7630   37.1970 N   0  0  0  0  0  0  0  0  0  0  0  0
   37.7090   27.3910   40.4910 C   0  0  0  0  0  0  0  0  0  0  0  0
   37.1330   27.7910   41.6730 C   0  0  0  0  0  0  0  0  0  0  0  0
   36.9040   26.7290   42.4610 N   0  0  0  0  0  0  0  0  0  0  0  0
   37.3130   25.6010   41.8390 C   0  0  0  0  0  0  0  0  0  0  0  0
   37.3260   24.2420   42.1570 C   0  0  0  0  0  0  0  0  0  0  0  0
   37.8240   23.2870   41.2870 C   0  0  0  0  0  0  0  0  0  0  0  0
   38.3150   23.7400   40.0720 C   0  0  0  0  0  0  0  0  0  0  0  0
   38.3130   25.0630   39.7390 C   0  0  0  0  0  0  0  0  0  0  0  0
   37.8170   26.0140   40.6070 C   0  0  0  0  0  0  0  0  0  0  0  0
   40.9350   30.4180   38.3240 C   0  0  1  0  0  0  0  0  0  0  0  0
   41.0820   31.6320   37.4220 C   0  0  0  0  0  0  0  0  0  0  0  0
   40.9600   31.7830   38.9120 C   0  0  1  0  0  0  0  0  0  0  0  0
   39.7490   32.5080   39.3370 C   0  0  0  0  0  0  0  0  0  0  0  0
   38.4690   32.0770   39.5450 N   0  0  0  0  0  0  0  0  0  0  0  0
   37.5040   32.9320   39.9190 C   0  0  0  0  0  0  0  0  0  0  0  0
   37.7050   34.2460   40.1160 N   0  0  0  0  0  0  0  0  0  0  0  0
   38.9720   34.7130   39.9190 C   0  0  0  0  0  0  0  0  0  0  0  0
   39.1070   36.0690   40.1390 C   0  0  0  0  0  0  0  0  0  0  0  0
   40.3380   36.6300   39.9670 C   0  0  0  0  0  0  0  0  0  0  0  0
   41.3940   35.8300   39.5820 C   0  0  0  0  0  0  0  0  0  0  0  0
   41.2200   34.4780   39.3720 C   0  0  0  0  0  0  0  0  0  0  0  0
   39.9980   33.8640   39.5320 C   0  0  0  0  0  0  0  0  0  0  0  0
   37.0254   29.1660   36.2979 H   0  0  0  0  0  0  0  0  0  0  0  0
   36.3186   27.7488   38.2386 H   0  0  0  0  0  0  0  0  0  0  0  0
   36.8940   28.8321   41.9355 H   0  0  0  0  0  0  0  0  0  0  0  0
   36.4802   26.7678   43.3990 H   0  0  0  0  0  0  0  0  0  0  0  0
   36.9277   23.9193   43.1303 H   0  0  0  0  0  0  0  0  0  0  0  0
   37.8299   22.2183   41.5476 H   0  0  0  0  0  0  0  0  0  0  0  0
   38.7185   23.0103   39.3546 H   0  0  0  0  0  0  0  0  0  0  0  0
   38.7130   25.3764   38.7634 H   0  0  0  0  0  0  0  0  0  0  0  0
   41.5061   29.4936   38.4951 H   0  0  0  0  0  0  0  0  0  0  0  0
   42.0402   31.8367   36.9221 H   0  0  0  0  0  0  0  0  0  0  0  0
   40.5457   32.0284   36.5472 H   0  0  0  0  0  0  0  0  0  0  0  0
   41.5405   32.1870   39.7545 H   0  0  0  0  0  0  0  0  0  0  0  0
   36.4902   32.5340   40.0731 H   0  0  0  0  0  0  0  0  0  0  0  0
   38.2452   36.6804   40.4447 H   0  0  0  0  0  0  0  0  0  0  0  0
   40.4872   37.7071   40.1332 H   0  0  0  0  0  0  0  0  0  0  0  0
   42.3891   36.2769   39.4405 H   0  0  0  0  0  0  0  0  0  0  0  0
   42.0851   33.8709   39.0670 H   0  0  0  0  0  0  0  0  0  0  0  0
  1  6  2  0
  1  2  1  0
  2  3  2  0
  3  7  1  0
  4  3  1  0
  5 16  1  0
  5  4  2  0
  6  5  1  0
  7 15  1  0
  7  8  2  0
  8  9  1  0
 10 11  2  0
 10  9  1  0
 12 11  1  0
 13 12  2  0
 14 13  1  0
 14 15  2  0
 15 10  1  0
 16 18  1  0
 17 16  1  0
 17 18  1  0
 18 19  1  0
 19 28  1  0
 19 20  2  0
 20 21  1  0
 21 22  2  0
 23 22  1  0
 23 24  2  0
 25 24  1  0
 26 25  2  0
 27 28  2  0
 27 26  1  0
 28 23  1  0
  1 29  1  0
  2 30  1  0
  8 31  1  0
  9 32  1  0
 11 33  1  0
 12 34  1  0
 13 35  1  0
 14 36  1  0
 16 37  1  1
 17 38  1  0
 17 39  1  0
 18 40  1  1
 21 41  1  0
 24 42  1  0
 25 43  1  0
 26 44  1  0
 27 45  1  0
M  ISO  8  29  14  30  14  31  14  32   9  33  14  34  14  35  14  36  14
M  ISO  8  37  13  38  13  39  13  40  13  41  14  42  14  43  14  44  14
M  ISO  1  45  14
M  END
>  <minimizedAffinity>  (1) 
-6.18325949

>  <minimizedRMSD>  (1) 
4.08718157

$$$$
