
     RDKit          3D

 23 25  0  0  0  0  0  0  0  0999 V2000
   37.0530   26.9640   41.5830 C   0  0  0  0  0  0  0  0  0  0  0  0
   36.9040   25.9830   40.6170 C   0  0  0  0  0  0  0  0  0  0  0  0
   37.1830   24.8100   41.2860 C   0  0  0  0  0  0  0  0  0  0  0  0
   37.4800   25.0620   42.5680 N   0  0  0  0  0  0  0  0  0  0  0  0
   37.3960   26.3660   42.7250 N   0  0  0  0  0  0  0  0  0  0  0  0
   37.8070   29.3520   41.6420 C   0  0  0  0  0  0  0  0  0  0  0  0
   36.8520   28.3920   41.3140 C   0  0  0  0  0  0  0  0  0  0  0  0
   35.6640   28.7970   40.7110 C   0  0  0  0  0  0  0  0  0  0  0  0
   35.4930   30.1370   40.4680 N   0  0  0  0  0  0  0  0  0  0  0  0
   36.4650   31.0450   40.8100 C   0  0  0  0  0  0  0  0  0  0  0  0
   37.6130   30.6490   41.3930 N   0  0  0  0  0  0  0  0  0  0  0  0
   37.1170   23.5500   40.5470 C   0  0  0  0  0  0  0  0  0  0  0  0
   35.9450   23.3940   39.6630 C   0  0  0  0  0  0  0  0  0  0  0  0
   36.1580   21.7040   38.8780 S   0  0  0  0  0  0  0  0  0  0  0  0
   37.7620   21.5090   39.8680 C   0  0  0  0  0  0  0  0  0  0  0  0
   37.8470   22.4630   40.4500 N   0  0  0  0  0  0  0  0  0  0  0  0
   36.6270   26.1102   39.5601 H   0  0  0  0  0  0  0  0  0  0  0  0
   37.7261   24.3699   43.2901 H   0  0  0  0  0  0  0  0  0  0  0  0
   38.7455   29.0327   42.1187 H   0  0  0  0  0  0  0  0  0  0  0  0
   34.8878   28.0668   40.4383 H   0  0  0  0  0  0  0  0  0  0  0  0
   36.3034   32.1135   40.6044 H   0  0  0  0  0  0  0  0  0  0  0  0
   35.1269   24.1111   39.5005 H   0  0  0  0  0  0  0  0  0  0  0  0
   38.4532   20.6533   39.8708 H   0  0  0  0  0  0  0  0  0  0  0  0
  1  5  2  0
  2  3  2  0
  2  1  1  0
  3  4  1  0
  4  5  1  0
  7  1  1  0
  7  6  2  0
  8  7  1  0
  9  8  2  0
  9 10  1  0
 10 11  2  0
 11  6  1  0
 12  3  1  0
 13 12  2  0
 14 13  1  0
 14 15  1  0
 15 16  2  0
 16 12  1  0
  2 17  1  0
  4 18  1  0
  6 19  1  0
  8 20  1  0
 10 21  1  0
 13 22  1  0
 15 23  1  0
M  ISO  7  17  14  18   9  19  14  20  14  21  14  22  14  23  14
M  END
>  <minimizedAffinity>  (1) 
-3.95004463

>  <minimizedRMSD>  (1) 
0.646030664

$$$$
