
     RDKit          3D

 44 48  0  0  1  0  0  0  0  0999 V2000
   36.2340   30.4640   41.4200 C   0  0  0  0  0  0  0  0  0  0  0  0
   37.0850   29.5970   42.1280 C   0  0  0  0  0  0  0  0  0  0  0  0
   38.2420   29.1280   41.4910 C   0  0  0  0  0  0  0  0  0  0  0  0
   38.4480   29.5580   40.2240 N   0  0  0  0  0  0  0  0  0  0  0  0
   37.6260   30.3850   39.5590 C   0  0  0  0  0  0  0  0  0  0  0  0
   36.5080   30.8430   40.1630 N   0  0  0  0  0  0  0  0  0  0  0  0
   39.1070   28.2310   42.2070 C   0  0  0  0  0  0  0  0  0  0  0  0
   40.2450   28.5380   42.9140 C   0  0  0  0  0  0  0  0  0  0  0  0
   40.7770   27.4270   43.4350 N   0  0  0  0  0  0  0  0  0  0  0  0
   40.0300   26.3700   43.1020 C   0  0  0  0  0  0  0  0  0  0  0  0
   40.0900   24.9890   43.3570 C   0  0  0  0  0  0  0  0  0  0  0  0
   39.1340   24.1010   42.8650 C   0  0  0  0  0  0  0  0  0  0  0  0
   38.1110   24.6450   42.1050 C   0  0  0  0  0  0  0  0  0  0  0  0
   38.0340   25.9830   41.8450 C   0  0  0  0  0  0  0  0  0  0  0  0
   38.9810   26.8610   42.3330 C   0  0  0  0  0  0  0  0  0  0  0  0
   37.9640   30.7970   38.1700 C   0  0  1  0  0  0  0  0  0  0  0  0
   37.6750   32.2290   37.7570 C   0  0  0  0  0  0  0  0  0  0  0  0
   39.0760   31.7520   37.9360 C   0  0  1  0  0  0  0  0  0  0  0  0
   39.8130   32.4240   38.9670 N   0  0  0  0  0  0  0  0  0  0  0  0
   41.0720   31.9380   38.9930 C   0  0  0  0  0  0  0  0  0  0  0  0
   42.0370   32.4190   39.8790 C   0  0  0  0  0  0  0  0  0  0  0  0
   43.4380   31.9540   39.9840 C   0  0  0  0  0  0  0  0  0  0  0  0
   41.6970   33.4400   40.7750 C   0  0  0  0  0  0  0  0  0  0  0  0
   42.4720   33.9530   41.6120 O   0  0  0  0  0  0  0  0  0  0  0  0
   40.4300   33.8880   40.7070 N   0  0  0  0  0  0  0  0  0  0  0  0
   39.5270   33.4030   39.8420 C   0  0  0  0  0  0  0  0  0  0  0  0
   38.3400   33.8010   39.7570 O   0  0  0  0  0  0  0  0  0  0  0  0
   35.3228   30.8400   41.9082 H   0  0  0  0  0  0  0  0  0  0  0  0
   36.8480   29.2937   43.1585 H   0  0  0  0  0  0  0  0  0  0  0  0
   40.6582   29.5504   43.0339 H   0  0  0  0  0  0  0  0  0  0  0  0
   41.6331   27.3914   44.0066 H   0  0  0  0  0  0  0  0  0  0  0  0
   40.9183   24.5958   43.9647 H   0  0  0  0  0  0  0  0  0  0  0  0
   39.1893   23.0217   43.0701 H   0  0  0  0  0  0  0  0  0  0  0  0
   37.3367   23.9778   41.6984 H   0  0  0  0  0  0  0  0  0  0  0  0
   37.2029   26.3682   41.2360 H   0  0  0  0  0  0  0  0  0  0  0  0
   37.7111   29.7979   37.7856 H   0  0  0  0  0  0  0  0  0  0  0  0
   37.2350   32.9338   38.4779 H   0  0  0  0  0  0  0  0  0  0  0  0
   37.1096   32.7111   36.9459 H   0  0  0  0  0  0  0  0  0  0  0  0
   39.9961   31.6384   37.3439 H   0  0  0  0  0  0  0  0  0  0  0  0
   41.3466   31.1358   38.2922 H   0  0  0  0  0  0  0  0  0  0  0  0
   43.7153   31.8620   41.0445 H   0  0  0  0  0  0  0  0  0  0  0  0
   43.5371   30.9748   39.4928 H   0  0  0  0  0  0  0  0  0  0  0  0
   44.1030   32.6796   39.4928 H   0  0  0  0  0  0  0  0  0  0  0  0
   40.1399   34.6389   41.3496 H   0  0  0  0  0  0  0  0  0  0  0  0
  1  2  2  0
  3  2  1  0
  3  7  1  0
  4  3  2  0
  5  6  2  0
  5  4  1  0
  6  1  1  0
  7 15  1  0
  7  8  2  0
  8  9  1  0
 10 11  2  0
 10  9  1  0
 12 11  1  0
 13 12  2  0
 14 13  1  0
 14 15  2  0
 15 10  1  0
 16  5  1  0
 17 18  1  0
 17 16  1  0
 18 16  1  0
 18 19  1  0
 19 20  1  0
 19 26  1  0
 20 21  2  0
 21 22  1  0
 21 23  1  0
 23 24  2  0
 25 23  1  0
 26 25  1  0
 27 26  2  0
  1 28  1  0
  2 29  1  0
  8 30  1  0
  9 31  1  0
 11 32  1  0
 12 33  1  0
 13 34  1  0
 14 35  1  0
 16 36  1  6
 17 37  1  0
 17 38  1  0
 18 39  1  6
 20 40  1  0
 22 41  1  0
 22 42  1  0
 22 43  1  0
 25 44  1  0
M  ISO  8  28  14  29  14  30  14  31   9  32  14  33  14  34  14  35  14
M  ISO  8  36  13  37  13  38  13  39  13  40  14  41   8  42   8  43   8
M  ISO  1  44   9
M  END
>  <minimizedAffinity>  (1) 
-6.13625717

>  <minimizedRMSD>  (1) 
2.61546922

$$$$
