
     RDKit          3D

 41 45  0  0  1  0  0  0  0  0999 V2000
   36.4900   30.9440   41.2060 C   0  0  0  0  0  0  0  0  0  0  0  0
   36.8340   29.7200   41.8060 C   0  0  0  0  0  0  0  0  0  0  0  0
   38.0240   29.0910   41.4340 C   0  0  0  0  0  0  0  0  0  0  0  0
   38.7660   29.7270   40.5030 N   0  0  0  0  0  0  0  0  0  0  0  0
   38.4310   30.9020   39.9300 C   0  0  0  0  0  0  0  0  0  0  0  0
   37.2790   31.5160   40.2850 N   0  0  0  0  0  0  0  0  0  0  0  0
   38.3820   27.8340   42.0420 C   0  0  0  0  0  0  0  0  0  0  0  0
   39.2270   27.6130   43.1080 C   0  0  0  0  0  0  0  0  0  0  0  0
   39.2830   26.2810   43.3580 N   0  0  0  0  0  0  0  0  0  0  0  0
   38.4950   25.6100   42.4850 C   0  0  0  0  0  0  0  0  0  0  0  0
   38.1840   24.2670   42.2890 C   0  0  0  0  0  0  0  0  0  0  0  0
   37.3180   23.8590   41.2830 C   0  0  0  0  0  0  0  0  0  0  0  0
   36.7860   24.8480   40.4970 C   0  0  0  0  0  0  0  0  0  0  0  0
   37.0820   26.1690   40.6790 C   0  0  0  0  0  0  0  0  0  0  0  0
   37.9400   26.5760   41.6740 C   0  0  0  0  0  0  0  0  0  0  0  0
   39.3360   31.5290   38.9170 C   0  0  1  0  0  0  0  0  0  0  0  0
   39.8320   32.9350   39.1750 C   0  0  0  0  0  0  0  0  0  0  0  0
   40.7580   31.7720   39.2740 C   0  0  1  0  0  0  0  0  0  0  0  0
   41.3270   31.5020   40.5500 N   0  0  0  0  0  0  0  0  0  0  0  0
   41.5000   30.3110   41.1350 C   0  0  0  0  0  0  0  0  0  0  0  0
   42.0590   30.1530   42.3860 C   0  0  0  0  0  0  0  0  0  0  0  0
   42.4790   31.2760   43.1080 C   0  0  0  0  0  0  0  0  0  0  0  0
   42.9900   31.1480   44.2470 O   0  0  0  0  0  0  0  0  0  0  0  0
   42.3050   32.4730   42.5200 N   0  0  0  0  0  0  0  0  0  0  0  0
   41.7590   32.5520   41.3110 C   0  0  0  0  0  0  0  0  0  0  0  0
   41.6300   33.7270   40.8260 O   0  0  0  0  0  0  0  0  0  0  0  0
   35.5541   31.4428   41.4982 H   0  0  0  0  0  0  0  0  0  0  0  0
   36.1743   29.2637   42.5587 H   0  0  0  0  0  0  0  0  0  0  0  0
   39.7685   28.3911   43.6660 H   0  0  0  0  0  0  0  0  0  0  0  0
   39.8434   25.8437   44.1034 H   0  0  0  0  0  0  0  0  0  0  0  0
   38.6355   23.5103   42.9475 H   0  0  0  0  0  0  0  0  0  0  0  0
   37.0720   22.7985   41.1253 H   0  0  0  0  0  0  0  0  0  0  0  0
   36.0944   24.5672   39.6890 H   0  0  0  0  0  0  0  0  0  0  0  0
   36.6260   26.9208   40.0180 H   0  0  0  0  0  0  0  0  0  0  0  0
   38.8199   31.0176   38.0911 H   0  0  0  0  0  0  0  0  0  0  0  0
   39.9282   33.6477   38.3427 H   0  0  0  0  0  0  0  0  0  0  0  0
   39.5366   33.7581   39.8422 H   0  0  0  0  0  0  0  0  0  0  0  0
   41.6936   31.4327   38.8055 H   0  0  0  0  0  0  0  0  0  0  0  0
   41.1797   29.4110   40.5897 H   0  0  0  0  0  0  0  0  0  0  0  0
   42.1744   29.1468   42.8152 H   0  0  0  0  0  0  0  0  0  0  0  0
   42.5960   33.3318   43.0086 H   0  0  0  0  0  0  0  0  0  0  0  0
  1  2  2  0
  3  2  1  0
  3  7  1  0
  4  3  2  0
  5  6  2  0
  5  4  1  0
  6  1  1  0
  7  8  2  0
  8  9  1  0
 10  9  1  0
 11 10  2  0
 12 11  1  0
 13 14  1  0
 13 12  2  0
 14 15  2  0
 15  7  1  0
 15 10  1  0
 16 17  1  0
 16 18  1  0
 16  5  1  0
 17 18  1  0
 18 19  1  0
 19 20  1  0
 19 25  1  0
 20 21  2  0
 21 22  1  0
 22 23  2  0
 24 22  1  0
 25 24  1  0
 26 25  2  0
  1 27  1  0
  2 28  1  0
  8 29  1  0
  9 30  1  0
 11 31  1  0
 12 32  1  0
 13 33  1  0
 14 34  1  0
 16 35  1  6
 17 36  1  0
 17 37  1  0
 18 38  1  6
 20 39  1  0
 21 40  1  0
 24 41  1  0
M  ISO  8  27  14  28  14  29  14  30   9  31  14  32  14  33  14  34  14
M  ISO  7  35  13  36  13  37  13  38  13  39  14  40  14  41   9
M  END
>  <minimizedAffinity>  (1) 
-6.02727985

>  <minimizedRMSD>  (1) 
1.39042807

$$$$
