
     RDKit          3D

 38 42  0  0  1  0  0  0  0  0999 V2000
   35.8860   30.4450   40.9110 C   0  0  0  0  0  0  0  0  0  0  0  0
   36.6010   29.4000   41.5180 C   0  0  0  0  0  0  0  0  0  0  0  0
   37.9930   29.4640   41.5330 C   0  0  0  0  0  0  0  0  0  0  0  0
   38.5670   30.5460   40.9550 N   0  0  0  0  0  0  0  0  0  0  0  0
   37.8690   31.5400   40.3770 C   0  0  0  0  0  0  0  0  0  0  0  0
   36.5160   31.4930   40.3520 N   0  0  0  0  0  0  0  0  0  0  0  0
   38.7380   28.3820   42.1480 C   0  0  0  0  0  0  0  0  0  0  0  0
   39.8960   28.4560   42.8900 C   0  0  0  0  0  0  0  0  0  0  0  0
   40.2620   27.2110   43.2750 N   0  0  0  0  0  0  0  0  0  0  0  0
   39.3780   26.3050   42.8120 C   0  0  0  0  0  0  0  0  0  0  0  0
   39.2680   24.9270   42.9070 C   0  0  0  0  0  0  0  0  0  0  0  0
   38.2190   24.2410   42.3090 C   0  0  0  0  0  0  0  0  0  0  0  0
   37.2950   24.9860   41.6210 C   0  0  0  0  0  0  0  0  0  0  0  0
   37.3940   26.3480   41.5210 C   0  0  0  0  0  0  0  0  0  0  0  0
   38.4290   27.0330   42.1100 C   0  0  0  0  0  0  0  0  0  0  0  0
   38.5850   32.7050   39.7680 C   0  0  1  0  0  0  0  0  0  0  0  0
   38.9050   33.8860   40.6770 C   0  0  0  0  0  0  0  0  0  0  0  0
   39.9940   32.9840   40.1750 C   0  0  2  0  0  0  0  0  0  0  0  0
   40.9240   33.5540   39.1980 N   0  0  0  0  0  0  0  0  0  0  0  0
   41.2660   32.8540   38.1250 N   0  0  0  0  0  0  0  0  0  0  0  0
   42.1300   33.6230   37.4060 C   0  0  0  0  0  0  0  0  0  0  0  0
   42.2990   34.8260   38.0920 C   0  0  0  0  0  0  0  0  0  0  0  0
   41.5160   34.7740   39.2490 C   0  0  0  0  0  0  0  0  0  0  0  0
   34.7869   30.4054   40.8924 H   0  0  0  0  0  0  0  0  0  0  0  0
   36.0733   28.5485   41.9723 H   0  0  0  0  0  0  0  0  0  0  0  0
   40.4385   29.3819   43.1319 H   0  0  0  0  0  0  0  0  0  0  0  0
   41.0944   26.9885   43.8393 H   0  0  0  0  0  0  0  0  0  0  0  0
   40.0282   24.3641   43.4684 H   0  0  0  0  0  0  0  0  0  0  0  0
   38.1326   23.1469   42.3838 H   0  0  0  0  0  0  0  0  0  0  0  0
   36.4505   24.4746   41.1359 H   0  0  0  0  0  0  0  0  0  0  0  0
   36.6301   26.9045   40.9582 H   0  0  0  0  0  0  0  0  0  0  0  0
   38.0744   32.5664   38.8036 H   0  0  0  0  0  0  0  0  0  0  0  0
   38.8205   34.9146   40.2965 H   0  0  0  0  0  0  0  0  0  0  0  0
   38.5650   34.2274   41.6659 H   0  0  0  0  0  0  0  0  0  0  0  0
   40.7826   32.3715   40.6364 H   0  0  0  0  0  0  0  0  0  0  0  0
   42.6086   33.3455   36.4552 H   0  0  0  0  0  0  0  0  0  0  0  0
   42.9355   35.6665   37.7782 H   0  0  0  0  0  0  0  0  0  0  0  0
   41.4050   35.5464   40.0243 H   0  0  0  0  0  0  0  0  0  0  0  0
  1  2  2  0
  2  3  1  0
  3  7  1  0
  4  3  2  0
  5  4  1  0
  6  5  2  0
  6  1  1  0
  7  8  2  0
  8  9  1  0
 10 11  2  0
 10  9  1  0
 12 11  1  0
 13 12  2  0
 14 13  1  0
 14 15  2  0
 15  7  1  0
 15 10  1  0
 16 18  1  0
 16  5  1  0
 16 17  1  0
 18 17  1  0
 19 23  1  0
 19 18  1  0
 20 19  1  0
 21 22  1  0
 21 20  2  0
 22 23  2  0
  1 24  1  0
  2 25  1  0
  8 26  1  0
  9 27  1  0
 11 28  1  0
 12 29  1  0
 13 30  1  0
 14 31  1  0
 16 32  1  6
 17 33  1  0
 17 34  1  0
 18 35  1  1
 21 36  1  0
 22 37  1  0
 23 38  1  0
M  ISO  8  24  14  25  14  26  14  27   9  28  14  29  14  30  14  31  14
M  ISO  7  32  13  33  13  34  13  35  13  36  14  37  14  38  14
M  END
>  <minimizedAffinity>  (1) 
-5.97409534

>  <minimizedRMSD>  (1) 
1.05252719

$$$$
