
     RDKit          3D

 42 47  0  0  1  0  0  0  0  0999 V2000
   36.4410   30.9040   40.9740 C   0  0  0  0  0  0  0  0  0  0  0  0
   36.6280   29.6240   41.5370 C   0  0  0  0  0  0  0  0  0  0  0  0
   37.4030   28.6780   40.8330 C   0  0  0  0  0  0  0  0  0  0  0  0
   37.9160   29.0850   39.6490 N   0  0  0  0  0  0  0  0  0  0  0  0
   37.7280   30.3150   39.1220 C   0  0  0  0  0  0  0  0  0  0  0  0
   36.9870   31.2300   39.7870 N   0  0  0  0  0  0  0  0  0  0  0  0
   37.5800   27.3730   41.4060 C   0  0  0  0  0  0  0  0  0  0  0  0
   38.1870   27.0540   42.5990 C   0  0  0  0  0  0  0  0  0  0  0  0
   38.1380   25.7010   42.7600 N   0  0  0  0  0  0  0  0  0  0  0  0
   37.5240   25.1260   41.7220 C   0  0  0  0  0  0  0  0  0  0  0  0
   37.2130   23.8190   41.3830 C   0  0  0  0  0  0  0  0  0  0  0  0
   36.5460   23.5040   40.1960 C   0  0  0  0  0  0  0  0  0  0  0  0
   36.2110   24.5630   39.3750 C   0  0  0  0  0  0  0  0  0  0  0  0
   36.5100   25.8510   39.6930 C   0  0  0  0  0  0  0  0  0  0  0  0
   37.1720   26.1630   40.8710 C   0  0  0  0  0  0  0  0  0  0  0  0
   38.3390   30.6740   37.8080 C   0  0  1  0  0  0  0  0  0  0  0  0
   38.5960   32.1490   37.5300 C   0  0  0  0  0  0  0  0  0  0  0  0
   39.7320   31.2020   37.7900 C   0  0  1  0  0  0  0  0  0  0  0  0
   40.4370   31.4650   39.0230 N   0  0  0  0  0  0  0  0  0  0  0  0
   40.7670   30.6560   40.0450 C   0  0  0  0  0  0  0  0  0  0  0  0
   41.4270   31.3480   40.9910 N   0  0  0  0  0  0  0  0  0  0  0  0
   41.5090   32.6150   40.5440 C   0  0  0  0  0  0  0  0  0  0  0  0
   42.1100   33.6650   41.2050 C   0  0  0  0  0  0  0  0  0  0  0  0
   42.0800   34.8690   40.5710 N   0  0  0  0  0  0  0  0  0  0  0  0
   41.4720   34.9580   39.3530 C   0  0  0  0  0  0  0  0  0  0  0  0
   40.8900   33.9200   38.7250 N   0  0  0  0  0  0  0  0  0  0  0  0
   40.8970   32.7180   39.3120 C   0  0  0  0  0  0  0  0  0  0  0  0
   35.8384   31.6490   41.5143 H   0  0  0  0  0  0  0  0  0  0  0  0
   36.1777   29.3680   42.5074 H   0  0  0  0  0  0  0  0  0  0  0  0
   38.6359   27.7696   43.3036 H   0  0  0  0  0  0  0  0  0  0  0  0
   38.5212   25.1926   43.5697 H   0  0  0  0  0  0  0  0  0  0  0  0
   37.4991   23.0066   42.0673 H   0  0  0  0  0  0  0  0  0  0  0  0
   36.3003   22.4655   39.9291 H   0  0  0  0  0  0  0  0  0  0  0  0
   35.6842   24.3575   38.4315 H   0  0  0  0  0  0  0  0  0  0  0  0
   36.2219   26.6589   39.0043 H   0  0  0  0  0  0  0  0  0  0  0  0
   37.8148   29.8570   37.2906 H   0  0  0  0  0  0  0  0  0  0  0  0
   38.3265   32.9078   38.2794 H   0  0  0  0  0  0  0  0  0  0  0  0
   38.3307   32.8529   36.7274 H   0  0  0  0  0  0  0  0  0  0  0  0
   40.6374   30.8572   37.2690 H   0  0  0  0  0  0  0  0  0  0  0  0
   40.5312   29.5830   40.0996 H   0  0  0  0  0  0  0  0  0  0  0  0
   42.5864   33.5371   42.1882 H   0  0  0  0  0  0  0  0  0  0  0  0
   41.4566   35.9381   38.8538 H   0  0  0  0  0  0  0  0  0  0  0  0
  1  2  2  0
  3  7  1  0
  3  2  1  0
  4  3  2  0
  5  4  1  0
  5  6  2  0
  6  1  1  0
  7  8  2  0
  8  9  1  0
 10  9  1  0
 11 10  2  0
 12 11  1  0
 13 14  1  0
 13 12  2  0
 14 15  2  0
 15  7  1  0
 15 10  1  0
 16  5  1  0
 17 18  1  0
 17 16  1  0
 18 16  1  0
 18 19  1  0
 19 27  1  0
 19 20  1  0
 20 21  2  0
 22 21  1  0
 22 23  2  0
 24 23  1  0
 25 24  2  0
 26 27  2  0
 26 25  1  0
 27 22  1  0
  1 28  1  0
  2 29  1  0
  8 30  1  0
  9 31  1  0
 11 32  1  0
 12 33  1  0
 13 34  1  0
 14 35  1  0
 16 36  1  6
 17 37  1  0
 17 38  1  0
 18 39  1  6
 20 40  1  0
 23 41  1  0
 25 42  1  0
M  ISO  8  28  14  29  14  30  14  31   9  32  14  33  14  34  14  35  14
M  ISO  7  36  13  37  13  38  13  39  13  40  14  41  14  42  14
M  END
>  <minimizedAffinity>  (1) 
-5.74379015

>  <minimizedRMSD>  (1) 
2.67547083

$$$$
