
     RDKit          3D

 38 42  0  0  1  0  0  0  0  0999 V2000
   36.4850   30.2010   38.4530 C   0  0  0  0  0  0  0  0  0  0  0  0
   36.6380   29.2370   39.4650 C   0  0  0  0  0  0  0  0  0  0  0  0
   37.2190   29.6210   40.6680 C   0  0  0  0  0  0  0  0  0  0  0  0
   37.6020   30.9150   40.7860 N   0  0  0  0  0  0  0  0  0  0  0  0
   37.4460   31.8320   39.8000 C   0  0  0  0  0  0  0  0  0  0  0  0
   36.8840   31.4690   38.6260 N   0  0  0  0  0  0  0  0  0  0  0  0
   37.3930   28.6350   41.7170 C   0  0  0  0  0  0  0  0  0  0  0  0
   36.4360   27.8810   42.3530 C   0  0  0  0  0  0  0  0  0  0  0  0
   37.0340   27.0900   43.2730 N   0  0  0  0  0  0  0  0  0  0  0  0
   38.3680   27.3020   43.2640 C   0  0  0  0  0  0  0  0  0  0  0  0
   39.4180   26.7670   43.9920 C   0  0  0  0  0  0  0  0  0  0  0  0
   40.7330   27.1820   43.7670 C   0  0  0  0  0  0  0  0  0  0  0  0
   40.9270   28.1390   42.7980 C   0  0  0  0  0  0  0  0  0  0  0  0
   39.8950   28.6710   42.0790 C   0  0  0  0  0  0  0  0  0  0  0  0
   38.5890   28.2600   42.2990 C   0  0  0  0  0  0  0  0  0  0  0  0
   37.8940   33.2380   40.0260 C   0  0  1  0  0  0  0  0  0  0  0  0
   38.9980   33.4820   41.0290 C   0  0  0  0  0  0  0  0  0  0  0  0
   39.2460   33.6570   39.5620 C   0  0  1  0  0  0  0  0  0  0  0  0
   40.1760   32.6740   39.0220 N   0  0  0  0  0  0  0  0  0  0  0  0
   40.3670   32.2880   37.7370 C   0  0  0  0  0  0  0  0  0  0  0  0
   41.3420   31.3320   37.6420 C   0  0  0  0  0  0  0  0  0  0  0  0
   41.7680   31.1190   38.9080 N   0  0  0  0  0  0  0  0  0  0  0  0
   41.0620   31.9280   39.7210 C   0  0  0  0  0  0  0  0  0  0  0  0
   36.0271   29.9078   37.4968 H   0  0  0  0  0  0  0  0  0  0  0  0
   36.3049   28.2005   39.3080 H   0  0  0  0  0  0  0  0  0  0  0  0
   35.3560   27.9153   42.1468 H   0  0  0  0  0  0  0  0  0  0  0  0
   36.5449   26.4249   43.8889 H   0  0  0  0  0  0  0  0  0  0  0  0
   39.2136   26.0046   44.7581 H   0  0  0  0  0  0  0  0  0  0  0  0
   41.5744   26.7628   44.3383 H   0  0  0  0  0  0  0  0  0  0  0  0
   41.9501   28.4883   42.5950 H   0  0  0  0  0  0  0  0  0  0  0  0
   40.1024   29.4353   41.3156 H   0  0  0  0  0  0  0  0  0  0  0  0
   36.8734   33.6187   39.8729 H   0  0  0  0  0  0  0  0  0  0  0  0
   38.9584   34.3599   41.6906 H   0  0  0  0  0  0  0  0  0  0  0  0
   39.4638   32.8979   41.8364 H   0  0  0  0  0  0  0  0  0  0  0  0
   39.5695   34.4550   38.8775 H   0  0  0  0  0  0  0  0  0  0  0  0
   39.8092   32.6918   36.8792 H   0  0  0  0  0  0  0  0  0  0  0  0
   41.7036   30.8397   36.7272 H   0  0  0  0  0  0  0  0  0  0  0  0
   41.1894   31.9760   40.8125 H   0  0  0  0  0  0  0  0  0  0  0  0
  1  6  2  0
  1  2  1  0
  2  3  2  0
  3  4  1  0
  3  7  1  0
  5 16  1  0
  5  4  2  0
  6  5  1  0
  7 15  1  0
  7  8  2  0
  8  9  1  0
 10  9  1  0
 10 11  2  0
 12 11  1  0
 13 12  2  0
 14 15  2  0
 14 13  1  0
 15 10  1  0
 16 17  1  0
 18 16  1  0
 18 17  1  0
 19 18  1  0
 19 23  1  0
 20 19  1  0
 21 20  2  0
 21 22  1  0
 22 23  2  0
  1 24  1  0
  2 25  1  0
  8 26  1  0
  9 27  1  0
 11 28  1  0
 12 29  1  0
 13 30  1  0
 14 31  1  0
 16 32  1  1
 17 33  1  0
 17 34  1  0
 18 35  1  1
 20 36  1  0
 21 37  1  0
 23 38  1  0
M  ISO  8  24  14  25  14  26  14  27   9  28  14  29  14  30  14  31  14
M  ISO  7  32  13  33  13  34  13  35  13  36  14  37  14  38  14
M  END
>  <minimizedAffinity>  (1) 
-5.57321978

>  <minimizedRMSD>  (1) 
3.19660234

$$$$
