
     RDKit          3D

 20 21  0  0  0  0  0  0  0  0999 V2000
   36.9040   26.9170   41.4620 C   0  0  0  0  0  0  0  0  0  0  0  0
   36.8570   26.0100   40.3830 C   0  0  0  0  0  0  0  0  0  0  0  0
   36.9880   24.7820   40.9880 C   0  0  0  0  0  0  0  0  0  0  0  0
   37.1060   24.9210   42.3290 N   0  0  0  0  0  0  0  0  0  0  0  0
   37.0540   26.2150   42.6000 N   0  0  0  0  0  0  0  0  0  0  0  0
   37.8290   29.2320   41.6440 C   0  0  0  0  0  0  0  0  0  0  0  0
   36.8000   28.3470   41.2700 C   0  0  0  0  0  0  0  0  0  0  0  0
   35.6590   28.8880   40.7020 C   0  0  0  0  0  0  0  0  0  0  0  0
   35.5810   30.2450   40.5290 N   0  0  0  0  0  0  0  0  0  0  0  0
   36.6040   31.0570   40.9070 C   0  0  0  0  0  0  0  0  0  0  0  0
   37.7400   30.5530   41.4700 N   0  0  0  0  0  0  0  0  0  0  0  0
   36.9930   23.5010   40.2280 C   0  0  0  0  0  0  0  0  0  0  0  0
   35.6930   23.0910   39.9690 F   0  0  0  0  0  0  0  0  0  0  0  0
   37.5990   23.6730   38.9830 F   0  0  0  0  0  0  0  0  0  0  0  0
   37.6680   22.5070   40.9140 F   0  0  0  0  0  0  0  0  0  0  0  0
   36.7427   26.2321   39.3117 H   0  0  0  0  0  0  0  0  0  0  0  0
   37.2161   24.1591   43.0133 H   0  0  0  0  0  0  0  0  0  0  0  0
   38.7422   28.8191   42.0974 H   0  0  0  0  0  0  0  0  0  0  0  0
   34.8270   28.2377   40.3940 H   0  0  0  0  0  0  0  0  0  0  0  0
   36.5139   32.1428   40.7558 H   0  0  0  0  0  0  0  0  0  0  0  0
  1  5  2  0
  2  3  2  0
  2  1  1  0
  3  4  1  0
  4  5  1  0
  7  1  1  0
  7  6  2  0
  8  7  1  0
  9  8  2  0
  9 10  1  0
 10 11  2  0
 11  6  1  0
 12 15  1  0
 12  3  1  0
 13 12  1  0
 14 12  1  0
  2 16  1  0
  4 17  1  0
  6 18  1  0
  8 19  1  0
 10 20  1  0
M  ISO  5  16  14  17   9  18  14  19  14  20  14
M  END
>  <minimizedAffinity>  (1) 
-3.93203449

>  <minimizedRMSD>  (1) 
0.472901762

$$$$
