
     RDKit          3D

 32 35  0  0  1  0  0  0  0  0999 V2000
   36.2000   30.7760   41.0940 C   0  0  0  0  0  0  0  0  0  0  0  0
   36.6500   29.5760   41.6840 C   0  0  0  0  0  0  0  0  0  0  0  0
   38.0300   29.2930   41.6600 C   0  0  0  0  0  0  0  0  0  0  0  0
   38.8270   30.2070   41.0640 N   0  0  0  0  0  0  0  0  0  0  0  0
   38.3750   31.3470   40.5060 C   0  0  0  0  0  0  0  0  0  0  0  0
   37.0550   31.6350   40.5200 N   0  0  0  0  0  0  0  0  0  0  0  0
   38.4880   28.0580   42.2550 C   0  0  0  0  0  0  0  0  0  0  0  0
   39.4130   27.8980   43.2630 C   0  0  0  0  0  0  0  0  0  0  0  0
   39.5580   26.5800   43.5270 N   0  0  0  0  0  0  0  0  0  0  0  0
   38.7490   25.8520   42.7180 C   0  0  0  0  0  0  0  0  0  0  0  0
   38.5000   24.4950   42.5620 C   0  0  0  0  0  0  0  0  0  0  0  0
   37.5870   24.0220   41.6170 C   0  0  0  0  0  0  0  0  0  0  0  0
   36.9530   24.9680   40.8560 C   0  0  0  0  0  0  0  0  0  0  0  0
   37.1900   26.3030   41.0010 C   0  0  0  0  0  0  0  0  0  0  0  0
   38.0920   26.7740   41.9350 C   0  0  0  0  0  0  0  0  0  0  0  0
   39.3490   32.2930   39.8770 C   0  0  1  0  0  0  0  0  0  0  0  0
   39.6070   33.6120   40.5910 C   0  0  0  0  0  0  0  0  0  0  0  0
   40.6550   32.5420   40.5530 C   0  0  2  0  0  0  0  0  0  0  0  0
   41.7850   32.8400   39.7980 O   0  0  0  0  0  0  0  0  0  0  0  0
   35.1256   31.0119   41.1051 H   0  0  0  0  0  0  0  0  0  0  0  0
   35.9402   28.8778   42.1517 H   0  0  0  0  0  0  0  0  0  0  0  0
   39.9485   28.7129   43.7721 H   0  0  0  0  0  0  0  0  0  0  0  0
   40.1904   26.1865   44.2384 H   0  0  0  0  0  0  0  0  0  0  0  0
   39.0350   23.7748   43.1984 H   0  0  0  0  0  0  0  0  0  0  0  0
   37.3878   22.9476   41.4906 H   0  0  0  0  0  0  0  0  0  0  0  0
   36.2255   24.6385   40.0996 H   0  0  0  0  0  0  0  0  0  0  0  0
   36.6524   27.0187   40.3617 H   0  0  0  0  0  0  0  0  0  0  0  0
   39.0511   31.9897   38.8625 H   0  0  0  0  0  0  0  0  0  0  0  0
   39.7409   34.5370   40.0110 H   0  0  0  0  0  0  0  0  0  0  0  0
   39.1022   34.1852   41.3826 H   0  0  0  0  0  0  0  0  0  0  0  0
   41.2336   31.9645   41.2890 H   0  0  0  0  0  0  0  0  0  0  0  0
   42.5428   33.0398   40.4029 H   0  0  0  0  0  0  0  0  0  0  0  0
  1  2  2  0
  3  2  1  0
  3  7  1  0
  4  3  2  0
  5  6  2  0
  5  4  1  0
  6  1  1  0
  7  8  2  0
  8  9  1  0
 10  9  1  0
 11 10  2  0
 12 11  1  0
 13 14  1  0
 13 12  2  0
 14 15  2  0
 15  7  1  0
 15 10  1  0
 16  5  1  0
 16 18  1  0
 16 17  1  0
 18 17  1  0
 19 18  1  0
  1 20  1  0
  2 21  1  0
  8 22  1  0
  9 23  1  0
 11 24  1  0
 12 25  1  0
 13 26  1  0
 14 27  1  0
 16 28  1  6
 17 29  1  0
 17 30  1  0
 18 31  1  1
 19 32  1  0
M  ISO  8  20  14  21  14  22  14  23   9  24  14  25  14  26  14  27  14
M  ISO  5  28  13  29  13  30  13  31  13  32   3
M  END
>  <minimizedAffinity>  (1) 
-5.12885523

>  <minimizedRMSD>  (1) 
0.0137965214

$$$$
