
     RDKit          3D

 33 36  0  0  1  0  0  0  0  0999 V2000
   36.9140   31.9910   40.0390 C   0  0  0  0  0  0  0  0  0  0  0  0
   36.7330   30.8900   40.8980 C   0  0  0  0  0  0  0  0  0  0  0  0
   37.7540   29.9180   40.9740 C   0  0  0  0  0  0  0  0  0  0  0  0
   38.8490   30.1200   40.2060 N   0  0  0  0  0  0  0  0  0  0  0  0
   38.9950   31.1920   39.3880 C   0  0  0  0  0  0  0  0  0  0  0  0
   38.0260   32.1330   39.3040 N   0  0  0  0  0  0  0  0  0  0  0  0
   37.5610   28.7880   41.8470 C   0  0  0  0  0  0  0  0  0  0  0  0
   37.5660   28.7740   43.2260 C   0  0  0  0  0  0  0  0  0  0  0  0
   37.3460   27.5190   43.6590 N   0  0  0  0  0  0  0  0  0  0  0  0
   37.1960   26.6940   42.6160 C   0  0  0  0  0  0  0  0  0  0  0  0
   36.9490   25.3210   42.4720 C   0  0  0  0  0  0  0  0  0  0  0  0
   36.8350   24.7210   41.2130 C   0  0  0  0  0  0  0  0  0  0  0  0
   36.9760   25.5430   40.1140 C   0  0  0  0  0  0  0  0  0  0  0  0
   37.2160   26.8820   40.2510 C   0  0  0  0  0  0  0  0  0  0  0  0
   37.3290   27.4840   41.4800 C   0  0  0  0  0  0  0  0  0  0  0  0
   40.2500   31.3310   38.5850 C   0  0  1  0  0  0  0  0  0  0  0  0
   40.6400   32.7320   38.1260 C   0  0  0  0  0  0  0  0  0  0  0  0
   41.4280   32.0180   39.1840 C   0  0  1  0  0  0  0  0  0  0  0  0
   41.3250   32.6450   40.5290 C   0  0  0  0  0  0  0  0  0  0  0  0
   40.9790   33.8020   40.6830 O   0  0  0  0  0  0  0  0  0  0  0  0
   36.1237   32.7530   39.9694 H   0  0  0  0  0  0  0  0  0  0  0  0
   35.8158   30.7895   41.4969 H   0  0  0  0  0  0  0  0  0  0  0  0
   37.7249   29.6510   43.8707 H   0  0  0  0  0  0  0  0  0  0  0  0
   37.2998   27.2351   44.6480 H   0  0  0  0  0  0  0  0  0  0  0  0
   36.8420   24.6991   43.3730 H   0  0  0  0  0  0  0  0  0  0  0  0
   36.6419   23.6435   41.1045 H   0  0  0  0  0  0  0  0  0  0  0  0
   36.8935   25.1117   39.1055 H   0  0  0  0  0  0  0  0  0  0  0  0
   37.3222   27.4980   39.3459 H   0  0  0  0  0  0  0  0  0  0  0  0
   40.0924   30.3556   38.1016 H   0  0  0  0  0  0  0  0  0  0  0  0
   41.0706   32.8861   37.1256 H   0  0  0  0  0  0  0  0  0  0  0  0
   40.1285   33.7029   38.0511 H   0  0  0  0  0  0  0  0  0  0  0  0
   42.4671   31.6908   39.3365 H   0  0  0  0  0  0  0  0  0  0  0  0
   41.5701   32.0420   41.4157 H   0  0  0  0  0  0  0  0  0  0  0  0
  1  2  2  0
  2  3  1  0
  3  7  1  0
  4  3  2  0
  5  4  1  0
  6  5  2  0
  6  1  1  0
  7  8  2  0
  8  9  1  0
 10  9  1  0
 11 10  2  0
 12 11  1  0
 13 14  1  0
 13 12  2  0
 14 15  2  0
 15  7  1  0
 15 10  1  0
 16 18  1  0
 16  5  1  0
 17 16  1  0
 17 18  1  0
 18 19  1  0
 19 20  2  0
  1 21  1  0
  2 22  1  0
  8 23  1  0
  9 24  1  0
 11 25  1  0
 12 26  1  0
 13 27  1  0
 14 28  1  0
 16 29  1  6
 17 30  1  0
 17 31  1  0
 18 32  1  6
 19 33  1  0
M  ISO  8  21  14  22  14  23  14  24   9  25  14  26  14  27  14  28  14
M  ISO  5  29  13  30  13  31  13  32  13  33   6
M  END
>  <minimizedAffinity>  (1) 
-4.96205425

>  <minimizedRMSD>  (1) 
1.73361075

$$$$
