
     RDKit          3D

 36 40  0  0  1  0  0  0  0  0999 V2000
   35.9180   30.4470   40.9050 C   0  0  0  0  0  0  0  0  0  0  0  0
   36.6840   29.4330   41.5130 C   0  0  0  0  0  0  0  0  0  0  0  0
   38.0700   29.5630   41.5340 C   0  0  0  0  0  0  0  0  0  0  0  0
   38.5850   30.6750   40.9570 N   0  0  0  0  0  0  0  0  0  0  0  0
   37.8470   31.6380   40.3790 C   0  0  0  0  0  0  0  0  0  0  0  0
   36.5000   31.5140   40.3570 N   0  0  0  0  0  0  0  0  0  0  0  0
   38.8670   28.5270   42.1460 C   0  0  0  0  0  0  0  0  0  0  0  0
   40.0620   28.6560   42.8140 C   0  0  0  0  0  0  0  0  0  0  0  0
   40.4750   27.4300   43.2250 N   0  0  0  0  0  0  0  0  0  0  0  0
   39.5880   26.4910   42.8480 C   0  0  0  0  0  0  0  0  0  0  0  0
   39.5210   25.1210   43.0000 C   0  0  0  0  0  0  0  0  0  0  0  0
   38.4480   24.3820   42.4870 C   0  0  0  0  0  0  0  0  0  0  0  0
   37.4710   25.0840   41.8280 C   0  0  0  0  0  0  0  0  0  0  0  0
   37.5310   26.4400   41.6720 C   0  0  0  0  0  0  0  0  0  0  0  0
   38.5880   27.1680   42.1770 C   0  0  0  0  0  0  0  0  0  0  0  0
   38.5100   32.8380   39.7750 C   0  0  1  0  0  0  0  0  0  0  0  0
   38.8290   33.9970   40.7090 C   0  0  0  0  0  0  0  0  0  0  0  0
   39.9200   33.1320   40.1710 C   0  0  2  0  0  0  0  0  0  0  0  0
   40.8760   33.6570   39.1710 C   0  0  0  0  0  0  0  0  0  0  0  0
   41.4070   34.8920   39.1260 N   0  0  0  0  0  0  0  0  0  0  0  0
   42.2130   34.9750   38.0900 O   0  0  0  0  0  0  0  0  0  0  0  0
   42.2340   33.8250   37.4390 C   0  0  0  0  0  0  0  0  0  0  0  0
   41.3950   32.9940   38.1170 N   0  0  0  0  0  0  0  0  0  0  0  0
   34.8219   30.3570   40.8820 H   0  0  0  0  0  0  0  0  0  0  0  0
   36.1964   28.5554   41.9625 H   0  0  0  0  0  0  0  0  0  0  0  0
   40.5974   29.6011   42.9875 H   0  0  0  0  0  0  0  0  0  0  0  0
   41.3419   27.2452   43.7496 H   0  0  0  0  0  0  0  0  0  0  0  0
   40.3275   24.5986   43.5354 H   0  0  0  0  0  0  0  0  0  0  0  0
   38.3912   23.2900   42.6068 H   0  0  0  0  0  0  0  0  0  0  0  0
   36.6117   24.5377   41.4118 H   0  0  0  0  0  0  0  0  0  0  0  0
   36.7235   26.9593   41.1351 H   0  0  0  0  0  0  0  0  0  0  0  0
   37.9795   32.7207   38.8185 H   0  0  0  0  0  0  0  0  0  0  0  0
   38.7231   35.0340   40.3576 H   0  0  0  0  0  0  0  0  0  0  0  0
   38.4994   34.3058   41.7120 H   0  0  0  0  0  0  0  0  0  0  0  0
   40.7326   32.5494   40.6295 H   0  0  0  0  0  0  0  0  0  0  0  0
   42.8118   33.5875   36.5336 H   0  0  0  0  0  0  0  0  0  0  0  0
  1  2  2  0
  2  3  1  0
  3  7  1  0
  4  3  2  0
  5  4  1  0
  6  5  2  0
  6  1  1  0
  7 15  1  0
  7  8  2  0
  8  9  1  0
 10 11  2  0
 10  9  1  0
 12 11  1  0
 13 12  2  0
 14 13  1  0
 14 15  2  0
 15 10  1  0
 16 18  1  0
 16  5  1  0
 16 17  1  0
 18 17  1  0
 19 18  1  0
 20 19  2  0
 21 20  1  0
 22 21  1  0
 22 23  2  0
 23 19  1  0
  1 24  1  0
  2 25  1  0
  8 26  1  0
  9 27  1  0
 11 28  1  0
 12 29  1  0
 13 30  1  0
 14 31  1  0
 16 32  1  6
 17 33  1  0
 17 34  1  0
 18 35  1  1
 22 36  1  0
M  ISO  8  24  14  25  14  26  14  27   9  28  14  29  14  30  14  31  14
M  ISO  5  32  13  33  13  34  13  35  13  36  14
M  END
>  <minimizedAffinity>  (1) 
-5.98974752

>  <minimizedRMSD>  (1) 
1.22293007

$$$$
