
     RDKit          3D

 29 30  0  0  0  0  0  0  0  0999 V2000
   36.9110   26.7560   41.2270 C   0  0  0  0  0  0  0  0  0  0  0  0
   36.9030   25.9480   40.0920 C   0  0  0  0  0  0  0  0  0  0  0  0
   37.0760   24.6780   40.5930 C   0  0  0  0  0  0  0  0  0  0  0  0
   37.1860   24.7010   41.9470 N   0  0  0  0  0  0  0  0  0  0  0  0
   37.0830   25.9630   42.3120 N   0  0  0  0  0  0  0  0  0  0  0  0
   37.6520   29.0850   41.7850 C   0  0  0  0  0  0  0  0  0  0  0  0
   36.7570   28.1990   41.1900 C   0  0  0  0  0  0  0  0  0  0  0  0
   35.6500   28.7370   40.5240 C   0  0  0  0  0  0  0  0  0  0  0  0
   35.4970   30.0940   40.4840 N   0  0  0  0  0  0  0  0  0  0  0  0
   36.4120   30.9150   41.0890 C   0  0  0  0  0  0  0  0  0  0  0  0
   37.4930   30.4040   41.7400 N   0  0  0  0  0  0  0  0  0  0  0  0
   37.1420   23.4230   39.7790 C   0  0  0  0  0  0  0  0  0  0  0  0
   37.8370   23.7150   38.4550 C   0  0  0  0  0  0  0  0  0  0  0  0
   37.9150   22.3300   40.4690 C   0  0  0  0  0  0  0  0  0  0  0  0
   35.7390   22.9140   39.4680 C   0  0  0  0  0  0  0  0  0  0  0  0
   36.7859   26.2535   39.0418 H   0  0  0  0  0  0  0  0  0  0  0  0
   37.3231   23.8902   42.5672 H   0  0  0  0  0  0  0  0  0  0  0  0
   38.5259   28.6766   42.3136 H   0  0  0  0  0  0  0  0  0  0  0  0
   34.9145   28.0775   40.0402 H   0  0  0  0  0  0  0  0  0  0  0  0
   36.2708   32.0051   41.0480 H   0  0  0  0  0  0  0  0  0  0  0  0
   38.8351   24.1344   38.6495 H   0  0  0  0  0  0  0  0  0  0  0  0
   37.9367   22.7827   37.8798 H   0  0  0  0  0  0  0  0  0  0  0  0
   37.2409   24.4388   37.8798 H   0  0  0  0  0  0  0  0  0  0  0  0
   37.8288   22.4518   41.5588 H   0  0  0  0  0  0  0  0  0  0  0  0
   37.5071   21.3513   40.1761 H   0  0  0  0  0  0  0  0  0  0  0  0
   38.9737   22.3885   40.1761 H   0  0  0  0  0  0  0  0  0  0  0  0
   35.2027   22.7194   40.4085 H   0  0  0  0  0  0  0  0  0  0  0  0
   35.1947   23.6720   38.8856 H   0  0  0  0  0  0  0  0  0  0  0  0
   35.8073   21.9834   38.8856 H   0  0  0  0  0  0  0  0  0  0  0  0
  1  5  2  0
  2  3  2  0
  2  1  1  0
  3  4  1  0
  4  5  1  0
  7  1  1  0
  7  6  2  0
  8  7  1  0
  9  8  2  0
  9 10  1  0
 10 11  2  0
 11  6  1  0
 12 14  1  0
 12  3  1  0
 13 12  1  0
 15 12  1  0
  2 16  1  0
  4 17  1  0
  6 18  1  0
  8 19  1  0
 10 20  1  0
 13 21  1  0
 13 22  1  0
 13 23  1  0
 14 24  1  0
 14 25  1  0
 14 26  1  0
 15 27  1  0
 15 28  1  0
 15 29  1  0
M  ISO  8  16  14  17   9  18  14  19  14  20  14  21   8  22   8  23   8
M  ISO  6  24   8  25   8  26   8  27   8  28   8  29   8
M  END
>  <minimizedAffinity>  (1) 
-3.86991525

>  <minimizedRMSD>  (1) 
0.446645886

$$$$
