
     RDKit          3D

 45 49  0  0  1  0  0  0  0  0999 V2000
   35.9520   30.5470   40.9220 C   0  0  0  0  0  0  0  0  0  0  0  0
   36.6740   29.5020   41.5260 C   0  0  0  0  0  0  0  0  0  0  0  0
   38.0510   29.5640   41.5470 C   0  0  0  0  0  0  0  0  0  0  0  0
   38.6040   30.6600   40.9710 N   0  0  0  0  0  0  0  0  0  0  0  0
   37.9170   31.6610   40.3970 C   0  0  0  0  0  0  0  0  0  0  0  0
   36.5800   31.5910   40.3780 N   0  0  0  0  0  0  0  0  0  0  0  0
   38.7890   28.4880   42.1410 C   0  0  0  0  0  0  0  0  0  0  0  0
   39.9750   28.5710   42.8590 C   0  0  0  0  0  0  0  0  0  0  0  0
   40.3390   27.3210   43.2470 N   0  0  0  0  0  0  0  0  0  0  0  0
   39.4460   26.4200   42.8180 C   0  0  0  0  0  0  0  0  0  0  0  0
   39.3410   25.0590   42.9340 C   0  0  0  0  0  0  0  0  0  0  0  0
   38.2610   24.3490   42.3650 C   0  0  0  0  0  0  0  0  0  0  0  0
   37.3170   25.0950   41.6840 C   0  0  0  0  0  0  0  0  0  0  0  0
   37.4340   26.4520   41.5750 C   0  0  0  0  0  0  0  0  0  0  0  0
   38.4800   27.1450   42.1280 C   0  0  0  0  0  0  0  0  0  0  0  0
   38.6360   32.8510   39.8230 C   0  0  1  0  0  0  0  0  0  0  0  0
   38.8360   34.0530   40.7660 C   0  0  0  0  0  0  0  0  0  0  0  0
   39.9710   33.1910   40.3710 C   0  0  2  0  0  0  0  0  0  0  0  0
   41.0490   33.6930   39.4990 C   0  0  0  0  0  0  0  0  0  0  0  0
   41.2260   34.9410   39.0480 N   0  0  0  0  0  0  0  0  0  0  0  0
   42.2960   34.9790   38.2930 O   0  0  0  0  0  0  0  0  0  0  0  0
   42.8430   33.7930   38.2230 C   0  0  0  0  0  0  0  0  0  0  0  0
   42.0560   32.9830   38.9840 N   0  0  0  0  0  0  0  0  0  0  0  0
   44.0310   33.2470   37.5380 C   0  0  0  0  0  0  0  0  0  0  0  0
   43.9200   31.7650   37.3360 C   0  0  0  0  0  0  0  0  0  0  0  0
   45.3020   33.5140   38.3370 C   0  0  0  0  0  0  0  0  0  0  0  0
   34.8532   30.5029   40.8977 H   0  0  0  0  0  0  0  0  0  0  0  0
   36.1473   28.6472   41.9753 H   0  0  0  0  0  0  0  0  0  0  0  0
   40.5283   29.4963   43.0775 H   0  0  0  0  0  0  0  0  0  0  0  0
   41.1828   27.0978   43.7940 H   0  0  0  0  0  0  0  0  0  0  0  0
   40.1168   24.5058   43.4837 H   0  0  0  0  0  0  0  0  0  0  0  0
   38.1751   23.2564   42.4590 H   0  0  0  0  0  0  0  0  0  0  0  0
   36.4572   24.5876   41.2221 H   0  0  0  0  0  0  0  0  0  0  0  0
   36.6615   27.0084   41.0239 H   0  0  0  0  0  0  0  0  0  0  0  0
   38.2275   32.6895   38.8145 H   0  0  0  0  0  0  0  0  0  0  0  0
   38.7595   35.0795   40.3780 H   0  0  0  0  0  0  0  0  0  0  0  0
   38.3969   34.3853   41.7182 H   0  0  0  0  0  0  0  0  0  0  0  0
   40.7306   32.6284   40.9336 H   0  0  0  0  0  0  0  0  0  0  0  0
   44.0828   33.7533   36.5628 H   0  0  0  0  0  0  0  0  0  0  0  0
   43.8824   31.2634   38.3143 H   0  0  0  0  0  0  0  0  0  0  0  0
   43.0024   31.5394   36.7728 H   0  0  0  0  0  0  0  0  0  0  0  0
   44.7937   31.4052   36.7728 H   0  0  0  0  0  0  0  0  0  0  0  0
   45.0758   33.4665   39.4124 H   0  0  0  0  0  0  0  0  0  0  0  0
   46.0582   32.7551   38.0875 H   0  0  0  0  0  0  0  0  0  0  0  0
   45.6889   34.5130   38.0875 H   0  0  0  0  0  0  0  0  0  0  0  0
  1  2  2  0
  2  3  1  0
  3  7  1  0
  4  3  2  0
  5  4  1  0
  6  5  2  0
  6  1  1  0
  7  8  2  0
  8  9  1  0
 10 11  2  0
 10  9  1  0
 12 11  1  0
 13 12  2  0
 14 13  1  0
 14 15  2  0
 15  7  1  0
 15 10  1  0
 16 18  1  0
 16  5  1  0
 16 17  1  0
 18 17  1  0
 19 18  1  0
 20 19  2  0
 21 20  1  0
 22 21  1  0
 22 23  2  0
 23 19  1  0
 24 22  1  0
 24 26  1  0
 25 24  1  0
  1 27  1  0
  2 28  1  0
  8 29  1  0
  9 30  1  0
 11 31  1  0
 12 32  1  0
 13 33  1  0
 14 34  1  0
 16 35  1  6
 17 36  1  0
 17 37  1  0
 18 38  1  1
 24 39  1  0
 25 40  1  0
 25 41  1  0
 25 42  1  0
 26 43  1  0
 26 44  1  0
 26 45  1  0
M  ISO  8  27  14  28  14  29  14  30   9  31  14  32  14  33  14  34  14
M  ISO  8  35  13  36  13  37  13  38  13  39   8  40   8  41   8  42   8
M  ISO  3  43   8  44   8  45   8
M  END
>  <minimizedAffinity>  (1) 
-6.05071545

>  <minimizedRMSD>  (1) 
0.695464849

$$$$
