
     RDKit          3D

 26 27  0  0  0  0  0  0  0  0999 V2000
   36.9000   26.7470   41.2830 C   0  0  0  0  0  0  0  0  0  0  0  0
   36.8950   25.9210   40.1440 C   0  0  0  0  0  0  0  0  0  0  0  0
   37.0700   24.6480   40.6510 C   0  0  0  0  0  0  0  0  0  0  0  0
   37.1740   24.6910   42.0050 N   0  0  0  0  0  0  0  0  0  0  0  0
   37.0700   25.9680   42.3740 N   0  0  0  0  0  0  0  0  0  0  0  0
   37.6660   29.0690   41.7860 C   0  0  0  0  0  0  0  0  0  0  0  0
   36.7410   28.1880   41.2050 C   0  0  0  0  0  0  0  0  0  0  0  0
   35.6460   28.7200   40.5370 C   0  0  0  0  0  0  0  0  0  0  0  0
   35.5150   30.0850   40.4760 N   0  0  0  0  0  0  0  0  0  0  0  0
   36.4410   30.9030   41.0570 C   0  0  0  0  0  0  0  0  0  0  0  0
   37.5230   30.3960   41.7160 N   0  0  0  0  0  0  0  0  0  0  0  0
   37.1270   23.4360   39.7750 C   0  0  0  0  0  0  0  0  0  0  0  0
   37.9120   22.3670   40.4630 C   0  0  0  0  0  0  0  0  0  0  0  0
   35.7530   22.9080   39.4420 C   0  0  0  0  0  0  0  0  0  0  0  0
   36.7785   26.2201   39.0919 H   0  0  0  0  0  0  0  0  0  0  0  0
   37.3085   23.8847   42.6317 H   0  0  0  0  0  0  0  0  0  0  0  0
   38.5363   28.6543   42.3158 H   0  0  0  0  0  0  0  0  0  0  0  0
   34.9001   28.0621   40.0671 H   0  0  0  0  0  0  0  0  0  0  0  0
   36.3121   31.9935   40.9925 H   0  0  0  0  0  0  0  0  0  0  0  0
   37.6109   23.7281   38.8313 H   0  0  0  0  0  0  0  0  0  0  0  0
   37.8220   22.4896   41.5524 H   0  0  0  0  0  0  0  0  0  0  0  0
   37.5221   21.3806   40.1715 H   0  0  0  0  0  0  0  0  0  0  0  0
   38.9699   22.4438   40.1715 H   0  0  0  0  0  0  0  0  0  0  0  0
   35.2056   22.6976   40.3726 H   0  0  0  0  0  0  0  0  0  0  0  0
   35.2038   23.6591   38.8553 H   0  0  0  0  0  0  0  0  0  0  0  0
   35.8481   21.9824   38.8553 H   0  0  0  0  0  0  0  0  0  0  0  0
  1  5  2  0
  2  3  2  0
  2  1  1  0
  3  4  1  0
  4  5  1  0
  7  1  1  0
  7  6  2  0
  8  7  1  0
  9  8  2  0
  9 10  1  0
 10 11  2  0
 11  6  1  0
 12 13  1  0
 12  3  1  0
 14 12  1  0
  2 15  1  0
  4 16  1  0
  6 17  1  0
  8 18  1  0
 10 19  1  0
 12 20  1  0
 13 21  1  0
 13 22  1  0
 13 23  1  0
 14 24  1  0
 14 25  1  0
 14 26  1  0
M  ISO  8  15  14  16   9  17  14  18  14  19  14  20   8  21   8  22   8
M  ISO  4  23   8  24   8  25   8  26   8
M  END
>  <minimizedAffinity>  (1) 
-3.79941654

>  <minimizedRMSD>  (1) 
0.256136239

$$$$
