
     RDKit          3D

 17 18  0  0  0  0  0  0  0  0999 V2000
   36.7180   28.5820   41.6510 C   0  0  0  0  0  0  0  0  0  0  0  0
   36.0350   28.1980   40.4680 C   0  0  0  0  0  0  0  0  0  0  0  0
   35.6830   29.2140   39.5790 C   0  0  0  0  0  0  0  0  0  0  0  0
   36.0100   30.5040   39.8930 N   0  0  0  0  0  0  0  0  0  0  0  0
   36.6610   30.8250   41.0330 C   0  0  0  0  0  0  0  0  0  0  0  0
   37.0120   29.8570   41.9070 N   0  0  0  0  0  0  0  0  0  0  0  0
   37.0890   27.4730   42.5930 C   0  0  0  0  0  0  0  0  0  0  0  0
   37.7350   27.7580   43.8710 C   0  0  0  0  0  0  0  0  0  0  0  0
   36.2820   27.4600   43.9250 C   0  0  0  0  0  0  0  0  0  0  0  0
   35.7935   27.1450   40.2608 H   0  0  0  0  0  0  0  0  0  0  0  0
   35.1527   28.9818   38.6437 H   0  0  0  0  0  0  0  0  0  0  0  0
   36.9052   31.8755   41.2492 H   0  0  0  0  0  0  0  0  0  0  0  0
   37.3296   26.7832   41.7706 H   0  0  0  0  0  0  0  0  0  0  0  0
   38.4498   27.0328   44.2872 H   0  0  0  0  0  0  0  0  0  0  0  0
   38.3474   28.5955   44.2365 H   0  0  0  0  0  0  0  0  0  0  0  0
   35.5573   28.2577   44.1454 H   0  0  0  0  0  0  0  0  0  0  0  0
   35.6385   26.7428   44.4557 H   0  0  0  0  0  0  0  0  0  0  0  0
  1  6  1  0
  1  7  1  0
  2  1  2  0
  3  4  2  0
  3  2  1  0
  4  5  1  0
  5  6  2  0
  7  8  1  0
  7  9  1  0
  8  9  1  0
  2 10  1  0
  3 11  1  0
  5 12  1  0
  7 13  1  0
  8 14  1  0
  8 15  1  0
  9 16  1  0
  9 17  1  0
M  ISO  8  10  14  11  14  12  14  13  13  14  13  15  13  16  13  17  13
M  END
>  <minimizedAffinity>  (1) 
-3.32456064

>  <minimizedRMSD>  (1) 
3.15482426

$$$$
