
     RDKit          3D

 33 36  0  0  1  0  0  0  0  0999 V2000
   40.6180   30.6320   41.7550 C   0  0  1  0  0  0  0  0  0  0  0  0
   40.0560   31.2300   42.9450 C   0  0  0  0  0  0  0  0  0  0  0  0
   39.0700   30.8440   41.8940 C   0  0  2  0  0  0  0  0  0  0  0  0
   38.3210   29.5970   42.1890 C   0  0  0  0  0  0  0  0  0  0  0  0
   38.1490   28.9880   43.4160 C   0  0  0  0  0  0  0  0  0  0  0  0
   37.4180   27.8230   43.5270 C   0  0  0  0  0  0  0  0  0  0  0  0
   36.8270   27.2130   42.4250 C   0  0  0  0  0  0  0  0  0  0  0  0
   36.9890   27.8110   41.1930 C   0  0  0  0  0  0  0  0  0  0  0  0
   36.4030   27.2090   40.0980 C   0  0  0  0  0  0  0  0  0  0  0  0
   36.5440   27.7750   38.8570 C   0  0  0  0  0  0  0  0  0  0  0  0
   37.2680   28.9460   38.6920 C   0  0  0  0  0  0  0  0  0  0  0  0
   37.8310   29.5030   39.8210 C   0  0  0  0  0  0  0  0  0  0  0  0
   37.7240   28.9770   41.1040 C   0  0  0  0  0  0  0  0  0  0  0  0
   41.2640   31.4550   40.6780 C   0  0  0  0  0  0  0  0  0  0  0  0
   41.8260   30.7380   39.6030 C   0  0  0  0  0  0  0  0  0  0  0  0
   42.4530   31.5020   38.6100 C   0  0  0  0  0  0  0  0  0  0  0  0
   42.4760   32.8730   38.7460 N   0  0  0  0  0  0  0  0  0  0  0  0
   41.9230   33.5070   39.7940 C   0  0  0  0  0  0  0  0  0  0  0  0
   41.3110   32.7760   40.7650 N   0  0  0  0  0  0  0  0  0  0  0  0
   41.3297   29.8062   41.6085 H   0  0  0  0  0  0  0  0  0  0  0  0
   40.0802   30.6688   43.8908 H   0  0  0  0  0  0  0  0  0  0  0  0
   40.2552   32.1720   43.4770 H   0  0  0  0  0  0  0  0  0  0  0  0
   38.2721   31.3441   41.3254 H   0  0  0  0  0  0  0  0  0  0  0  0
   38.5992   29.4360   44.3141 H   0  0  0  0  0  0  0  0  0  0  0  0
   37.2987   27.3618   44.5185 H   0  0  0  0  0  0  0  0  0  0  0  0
   36.2490   26.2834   42.5330 H   0  0  0  0  0  0  0  0  0  0  0  0
   35.8261   26.2804   40.2201 H   0  0  0  0  0  0  0  0  0  0  0  0
   36.0781   27.2953   37.9836 H   0  0  0  0  0  0  0  0  0  0  0  0
   37.3882   29.4110   37.7024 H   0  0  0  0  0  0  0  0  0  0  0  0
   38.4072   30.4319   39.6977 H   0  0  0  0  0  0  0  0  0  0  0  0
   41.7753   29.6406   39.5466 H   0  0  0  0  0  0  0  0  0  0  0  0
   42.9178   31.0169   37.7390 H   0  0  0  0  0  0  0  0  0  0  0  0
   41.9646   34.6039   39.8660 H   0  0  0  0  0  0  0  0  0  0  0  0
  1  3  1  0
  1  2  1  0
  3  4  1  0
  3  2  1  0
  4  5  2  0
  5  6  1  0
  7  6  2  0
  8  7  1  0
  9  8  2  0
 10  9  1  0
 11 10  2  0
 11 12  1  0
 12 13  2  0
 13  8  1  0
 13  4  1  0
 14 19  1  0
 14  1  1  0
 15 14  2  0
 16 17  2  0
 16 15  1  0
 17 18  1  0
 18 19  2  0
  1 20  1  1
  2 21  1  0
  2 22  1  0
  3 23  1  6
  5 24  1  0
  6 25  1  0
  7 26  1  0
  9 27  1  0
 10 28  1  0
 11 29  1  0
 12 30  1  0
 15 31  1  0
 16 32  1  0
 18 33  1  0
M  ISO  8  20  13  21  13  22  13  23  13  24  14  25  14  26  14  27  14
M  ISO  6  28  14  29  14  30  14  31  14  32  14  33  14
M  END
>  <minimizedAffinity>  (1) 
-4.51746178

>  <minimizedRMSD>  (1) 
5.50869799

$$$$
