
     RDKit          3D

 24 25  0  0  1  0  0  0  0  0999 V2000
   36.0500   28.7830   40.6230 C   0  0  1  0  0  0  0  0  0  0  0  0
   36.3640   27.4500   40.1490 C   0  0  0  0  0  0  0  0  0  0  0  0
   37.1990   27.9490   41.2820 C   0  0  2  0  0  0  0  0  0  0  0  0
   36.5220   30.0060   39.9170 C   0  0  0  0  0  0  0  0  0  0  0  0
   36.6240   31.1620   40.7180 C   0  0  0  0  0  0  0  0  0  0  0  0
   37.0360   32.3380   40.0610 C   0  0  0  0  0  0  0  0  0  0  0  0
   37.3100   32.2940   38.7100 N   0  0  0  0  0  0  0  0  0  0  0  0
   37.1920   31.1440   37.9990 C   0  0  0  0  0  0  0  0  0  0  0  0
   36.7940   30.0000   38.6210 N   0  0  0  0  0  0  0  0  0  0  0  0
   36.9250   27.5340   42.6420 N   0  0  0  0  0  0  0  0  0  0  0  0
   37.1810   28.4480   43.7020 C   0  0  0  0  0  0  0  0  0  0  0  0
   38.0980   29.3410   43.5980 N   0  0  0  0  0  0  0  0  0  0  0  0
   36.4320   28.4110   44.9190 N   0  0  0  0  0  0  0  0  0  0  0  0
   38.6910   29.4280   42.7300 H   0  0  0  0  0  0  0  0  0  0  0  0
   35.0990   29.2565   40.9082 H   0  0  0  0  0  0  0  0  0  0  0  0
   35.6487   26.6335   40.3269 H   0  0  0  0  0  0  0  0  0  0  0  0
   36.6088   27.0430   39.1568 H   0  0  0  0  0  0  0  0  0  0  0  0
   38.2829   28.0133   41.4579 H   0  0  0  0  0  0  0  0  0  0  0  0
   36.3951   31.1464   41.7938 H   0  0  0  0  0  0  0  0  0  0  0  0
   37.1380   33.2805   40.6190 H   0  0  0  0  0  0  0  0  0  0  0  0
   37.4174   31.1361   36.9224 H   0  0  0  0  0  0  0  0  0  0  0  0
   36.5516   26.5944   42.8384 H   0  0  0  0  0  0  0  0  0  0  0  0
   36.6375   29.0843   45.6709 H   0  0  0  0  0  0  0  0  0  0  0  0
   35.6868   27.7111   45.0440 H   0  0  0  0  0  0  0  0  0  0  0  0
  1  3  1  0
  2  1  1  0
  2  3  1  0
  3 10  1  0
  4  1  1  0
  4  5  2  0
  6  5  1  0
  7  6  2  0
  8  9  2  0
  8  7  1  0
  9  4  1  0
 10 11  1  0
 11 13  1  0
 12 11  2  0
 14 12  1  0
  1 15  1  1
  2 16  1  0
  2 17  1  0
  3 18  1  6
  5 19  1  0
  6 20  1  0
  8 21  1  0
 10 22  1  0
 13 23  1  0
 13 24  1  0
M  ISO  7  15  13  16  13  17  13  18  13  19  14  20  14  21  14
M  END
>  <minimizedAffinity>  (1) 
-4.45940447

>  <minimizedRMSD>  (1) 
3.31356025

$$$$
