
     RDKit          3D

 24 26  0  0  1  0  0  0  0  0999 V2000
   38.3190   31.4580   39.9640 C   0  0  1  0  0  0  0  0  0  0  0  0
   37.3430   32.0330   39.0660 C   0  0  0  0  0  0  0  0  0  0  0  0
   37.6770   32.8600   40.2580 C   0  0  2  0  0  0  0  0  0  0  0  0
   37.9470   30.4070   40.9840 C   0  0  0  0  0  0  0  0  0  0  0  0
   38.7940   30.3000   42.1050 C   0  0  0  0  0  0  0  0  0  0  0  0
   38.4590   29.3210   43.0280 C   0  0  0  0  0  0  0  0  0  0  0  0
   37.3590   28.5260   42.8230 N   0  0  0  0  0  0  0  0  0  0  0  0
   36.5750   28.6690   41.7270 C   0  0  0  0  0  0  0  0  0  0  0  0
   36.8850   29.6220   40.8070 N   0  0  0  0  0  0  0  0  0  0  0  0
   38.6180   33.9930   40.1460 C   0  0  0  0  0  0  0  0  0  0  0  0
   39.9870   33.8710   40.0460 C   0  0  0  0  0  0  0  0  0  0  0  0
   40.5320   35.1500   39.9590 C   0  0  0  0  0  0  0  0  0  0  0  0
   39.4410   35.9690   40.0130 C   0  0  0  0  0  0  0  0  0  0  0  0
   38.3400   35.2720   40.1230 O   0  0  0  0  0  0  0  0  0  0  0  0
   39.3096   31.0147   39.7845 H   0  0  0  0  0  0  0  0  0  0  0  0
   37.6644   32.3724   38.0703 H   0  0  0  0  0  0  0  0  0  0  0  0
   36.3931   31.6613   38.6542 H   0  0  0  0  0  0  0  0  0  0  0  0
   37.0773   33.3575   41.0344 H   0  0  0  0  0  0  0  0  0  0  0  0
   39.6683   30.9538   42.2398 H   0  0  0  0  0  0  0  0  0  0  0  0
   39.0767   29.1810   43.9273 H   0  0  0  0  0  0  0  0  0  0  0  0
   35.6975   28.0216   41.5828 H   0  0  0  0  0  0  0  0  0  0  0  0
   40.5517   32.9270   40.0365 H   0  0  0  0  0  0  0  0  0  0  0  0
   41.5910   35.4332   39.8682 H   0  0  0  0  0  0  0  0  0  0  0  0
   39.4825   37.0674   39.9698 H   0  0  0  0  0  0  0  0  0  0  0  0
  1  3  1  0
  1  4  1  0
  2  1  1  0
  2  3  1  0
  4  5  2  0
  5  6  1  0
  7  6  2  0
  8  7  1  0
  9  4  1  0
  9  8  2  0
 10  3  1  0
 11 10  2  0
 12 13  2  0
 12 11  1  0
 13 14  1  0
 14 10  1  0
  1 15  1  6
  2 16  1  0
  2 17  1  0
  3 18  1  1
  5 19  1  0
  6 20  1  0
  8 21  1  0
 11 22  1  0
 12 23  1  0
 13 24  1  0
M  ISO  8  15  13  16  13  17  13  18  13  19  14  20  14  21  14  22  14
M  ISO  2  23  14  24  14
M  END
>  <minimizedAffinity>  (1) 
-4.35451317

>  <minimizedRMSD>  (1) 
7.76383352

$$$$
