
     RDKit          3D

 24 26  0  0  1  0  0  0  0  0999 V2000
   38.5450   32.4290   39.8710 C   0  0  1  0  0  0  0  0  0  0  0  0
   37.2160   32.3320   40.4380 C   0  0  0  0  0  0  0  0  0  0  0  0
   37.2800   32.3880   38.9460 C   0  0  2  0  0  0  0  0  0  0  0  0
   39.3010   33.7240   39.8300 C   0  0  0  0  0  0  0  0  0  0  0  0
   40.5920   33.6650   39.2670 C   0  0  0  0  0  0  0  0  0  0  0  0
   41.3100   34.8750   39.2510 C   0  0  0  0  0  0  0  0  0  0  0  0
   40.7240   36.0050   39.7700 N   0  0  0  0  0  0  0  0  0  0  0  0
   39.4840   35.9970   40.2950 C   0  0  0  0  0  0  0  0  0  0  0  0
   38.7790   34.8380   40.3170 N   0  0  0  0  0  0  0  0  0  0  0  0
   37.0610   31.1140   38.2900 N   0  0  0  0  0  0  0  0  0  0  0  0
   37.4780   30.9700   37.0160 C   0  0  0  0  0  0  0  0  0  0  0  0
   37.1350   29.6660   36.6650 C   0  0  0  0  0  0  0  0  0  0  0  0
   36.5460   29.1180   37.7250 N   0  0  0  0  0  0  0  0  0  0  0  0
   36.4920   29.9970   38.7350 C   0  0  0  0  0  0  0  0  0  0  0  0
   39.4641   31.8491   40.0411 H   0  0  0  0  0  0  0  0  0  0  0  0
   36.9076   31.3967   40.9281 H   0  0  0  0  0  0  0  0  0  0  0  0
   36.6747   32.9255   41.1895 H   0  0  0  0  0  0  0  0  0  0  0  0
   36.8499   33.0125   38.1491 H   0  0  0  0  0  0  0  0  0  0  0  0
   41.0120   32.7311   38.8652 H   0  0  0  0  0  0  0  0  0  0  0  0
   42.3252   34.9161   38.8294 H   0  0  0  0  0  0  0  0  0  0  0  0
   39.0470   36.9208   40.7019 H   0  0  0  0  0  0  0  0  0  0  0  0
   37.9809   31.7206   36.3886 H   0  0  0  0  0  0  0  0  0  0  0  0
   37.3168   29.1809   35.6946 H   0  0  0  0  0  0  0  0  0  0  0  0
   36.0625   29.8284   39.7336 H   0  0  0  0  0  0  0  0  0  0  0  0
  1  2  1  0
  3  1  1  0
  3  2  1  0
  4  1  1  0
  4  9  1  0
  5  4  2  0
  6  5  1  0
  6  7  2  0
  7  8  1  0
  8  9  2  0
 10 14  1  0
 10  3  1  0
 11 10  1  0
 12 11  2  0
 12 13  1  0
 13 14  2  0
  1 15  1  6
  2 16  1  0
  2 17  1  0
  3 18  1  6
  5 19  1  0
  6 20  1  0
  8 21  1  0
 11 22  1  0
 12 23  1  0
 14 24  1  0
M  ISO  8  15  13  16  13  17  13  18  13  19  14  20  14  21  14  22  14
M  ISO  2  23  14  24  14
M  END
>  <minimizedAffinity>  (1) 
-3.96749926

>  <minimizedRMSD>  (1) 
7.52847147

$$$$
