
     RDKit          3D

 24 26  0  0  1  0  0  0  0  0999 V2000
   38.8720   28.9540   41.5270 C   0  0  1  0  0  0  0  0  0  0  0  0
   38.7860   29.0590   42.9650 C   0  0  0  0  0  0  0  0  0  0  0  0
   37.9090   28.0230   42.3490 C   0  0  2  0  0  0  0  0  0  0  0  0
   38.1350   29.9010   40.6110 C   0  0  0  0  0  0  0  0  0  0  0  0
   37.9200   29.4620   39.2910 C   0  0  0  0  0  0  0  0  0  0  0  0
   37.2550   30.3450   38.4560 C   0  0  0  0  0  0  0  0  0  0  0  0
   36.8540   31.5550   38.9280 N   0  0  0  0  0  0  0  0  0  0  0  0
   37.0780   31.9440   40.2010 C   0  0  0  0  0  0  0  0  0  0  0  0
   37.7250   31.1050   41.0480 N   0  0  0  0  0  0  0  0  0  0  0  0
   38.3920   26.6490   42.5290 C   0  0  0  0  0  0  0  0  0  0  0  0
   37.9700   25.4890   41.9980 C   0  0  0  0  0  0  0  0  0  0  0  0
   38.5690   24.3160   42.3050 C   0  0  0  0  0  0  0  0  0  0  0  0
   39.6600   24.4110   43.2190 C   0  0  0  0  0  0  0  0  0  0  0  0
   39.7450   26.2450   43.5800 S   0  0  0  0  0  0  0  0  0  0  0  0
   39.7346   28.8740   40.8492 H   0  0  0  0  0  0  0  0  0  0  0  0
   39.6422   28.7414   43.5782 H   0  0  0  0  0  0  0  0  0  0  0  0
   38.5870   29.9014   43.6438 H   0  0  0  0  0  0  0  0  0  0  0  0
   36.8369   27.7770   42.3400 H   0  0  0  0  0  0  0  0  0  0  0  0
   38.2601   28.4755   38.9429 H   0  0  0  0  0  0  0  0  0  0  0  0
   37.0515   30.0670   37.4113 H   0  0  0  0  0  0  0  0  0  0  0  0
   36.7393   32.9314   40.5480 H   0  0  0  0  0  0  0  0  0  0  0  0
   37.1202   25.4936   41.2995 H   0  0  0  0  0  0  0  0  0  0  0  0
   38.2384   23.3568   41.8800 H   0  0  0  0  0  0  0  0  0  0  0  0
   40.2951   23.6045   43.6143 H   0  0  0  0  0  0  0  0  0  0  0  0
  1  3  1  0
  1  2  1  0
  3 10  1  0
  3  2  1  0
  4  9  1  0
  4  1  1  0
  5  4  2  0
  6  7  2  0
  6  5  1  0
  7  8  1  0
  8  9  2  0
 10 14  1  0
 11 12  1  0
 11 10  2  0
 12 13  2  0
 13 14  1  0
  1 15  1  1
  2 16  1  0
  2 17  1  0
  3 18  1  6
  5 19  1  0
  6 20  1  0
  8 21  1  0
 11 22  1  0
 12 23  1  0
 13 24  1  0
M  ISO  8  15  13  16  13  17  13  18  13  19  14  20  14  21  14  22  14
M  ISO  2  23  14  24  14
M  END
>  <minimizedAffinity>  (1) 
-3.80765224

>  <minimizedRMSD>  (1) 
3.04470348

$$$$
