
     RDKit          3D

 19 20  0  0  1  0  0  0  0  0999 V2000
   37.6810   28.0650   42.9750 C   0  0  1  0  0  0  0  0  0  0  0  0
   36.4840   27.4210   43.4770 C   0  0  0  0  0  0  0  0  0  0  0  0
   37.0600   26.8330   42.2310 C   0  0  2  0  0  0  0  0  0  0  0  0
   37.6200   29.3380   42.1830 C   0  0  0  0  0  0  0  0  0  0  0  0
   38.8200   30.0550   42.0550 C   0  0  0  0  0  0  0  0  0  0  0  0
   38.7500   31.2600   41.3330 C   0  0  0  0  0  0  0  0  0  0  0  0
   37.5390   31.6520   40.8080 N   0  0  0  0  0  0  0  0  0  0  0  0
   36.4160   30.9260   40.9600 C   0  0  0  0  0  0  0  0  0  0  0  0
   36.4570   29.7580   41.6530 N   0  0  0  0  0  0  0  0  0  0  0  0
   37.7880   25.5500   42.4140 C   0  0  0  0  0  0  0  0  0  0  0  0
   37.1820   24.4770   42.2850 O   0  0  0  0  0  0  0  0  0  0  0  0
   38.6238   28.3502   43.4647 H   0  0  0  0  0  0  0  0  0  0  0  0
   36.5347   26.8484   44.4149 H   0  0  0  0  0  0  0  0  0  0  0  0
   35.4830   27.7949   43.7382 H   0  0  0  0  0  0  0  0  0  0  0  0
   36.7049   26.6083   41.2144 H   0  0  0  0  0  0  0  0  0  0  0  0
   39.7619   29.6948   42.4945 H   0  0  0  0  0  0  0  0  0  0  0  0
   39.6480   31.8791   41.1901 H   0  0  0  0  0  0  0  0  0  0  0  0
   35.4686   31.2769   40.5249 H   0  0  0  0  0  0  0  0  0  0  0  0
   38.8595   25.5531   42.6627 H   0  0  0  0  0  0  0  0  0  0  0  0
  1  2  1  0
  3 10  1  0
  3  1  1  0
  3  2  1  0
  4  1  1  0
  5  4  2  0
  6  5  1  0
  7  8  1  0
  7  6  2  0
  8  9  2  0
  9  4  1  0
 11 10  2  0
  1 12  1  1
  2 13  1  0
  2 14  1  0
  3 15  1  6
  5 16  1  0
  6 17  1  0
  8 18  1  0
 10 19  1  0
M  ISO  8  12  13  13  13  14  13  15  13  16  14  17  14  18  14  19   6
M  END
>  <minimizedAffinity>  (1) 
-3.66412926

>  <minimizedRMSD>  (1) 
2.23384786

$$$$
