
     RDKit          3D

 18 19  0  0  1  0  0  0  0  0999 V2000
   36.8320   28.5490   41.5070 C   0  0  0  0  0  0  0  0  0  0  0  0
   35.6020   28.8610   40.8820 C   0  0  0  0  0  0  0  0  0  0  0  0
   35.6760   29.6400   39.7370 C   0  0  0  0  0  0  0  0  0  0  0  0
   36.9050   30.0600   39.2770 N   0  0  0  0  0  0  0  0  0  0  0  0
   38.0490   29.7320   39.9130 C   0  0  0  0  0  0  0  0  0  0  0  0
   37.9990   28.9690   41.0400 N   0  0  0  0  0  0  0  0  0  0  0  0
   36.7530   27.6850   42.7330 C   0  0  1  0  0  0  0  0  0  0  0  0
   37.9260   27.3090   43.4860 C   0  0  0  0  0  0  0  0  0  0  0  0
   37.1200   28.4260   44.0620 C   0  0  2  0  0  0  0  0  0  0  0  0
   36.2900   28.1200   45.1360 O   0  0  0  0  0  0  0  0  0  0  0  0
   34.6408   28.5057   41.2817 H   0  0  0  0  0  0  0  0  0  0  0  0
   34.7586   29.9210   39.1990 H   0  0  0  0  0  0  0  0  0  0  0  0
   39.0172   30.0792   39.5231 H   0  0  0  0  0  0  0  0  0  0  0  0
   35.9257   27.0920   42.3159 H   0  0  0  0  0  0  0  0  0  0  0  0
   37.9447   26.3379   44.0023 H   0  0  0  0  0  0  0  0  0  0  0  0
   38.9888   27.2089   43.2205 H   0  0  0  0  0  0  0  0  0  0  0  0
   37.3277   29.4545   44.3923 H   0  0  0  0  0  0  0  0  0  0  0  0
   36.7691   28.2966   45.9841 H   0  0  0  0  0  0  0  0  0  0  0  0
  1  7  1  0
  2  1  2  0
  3  2  1  0
  4  3  2  0
  4  5  1  0
  5  6  2  0
  6  1  1  0
  7  8  1  0
  7  9  1  0
  8  9  1  0
  9 10  1  0
  2 11  1  0
  3 12  1  0
  5 13  1  0
  7 14  1  1
  8 15  1  0
  8 16  1  0
  9 17  1  6
 10 18  1  0
M  ISO  8  11  14  12  14  13  14  14  13  15  13  16  13  17  13  18   3
M  END
>  <minimizedAffinity>  (1) 
-3.57632565

>  <minimizedRMSD>  (1) 
1.27287734

$$$$
