
     RDKit          3D

 20 21  0  0  1  0  0  0  0  0999 V2000
   37.7640   30.2570   40.7140 C   0  0  0  0  0  0  0  0  0  0  0  0
   37.1530   29.8970   39.4960 C   0  0  0  0  0  0  0  0  0  0  0  0
   36.8240   30.9600   38.6340 C   0  0  0  0  0  0  0  0  0  0  0  0
   37.1100   32.2540   39.0180 N   0  0  0  0  0  0  0  0  0  0  0  0
   37.6980   32.5280   40.2020 C   0  0  0  0  0  0  0  0  0  0  0  0
   38.0210   31.5140   41.0460 N   0  0  0  0  0  0  0  0  0  0  0  0
   38.1390   29.1230   41.6190 C   0  0  1  0  0  0  0  0  0  0  0  0
   38.4730   29.3510   43.0080 C   0  0  0  0  0  0  0  0  0  0  0  0
   37.0920   28.8350   42.7490 C   0  0  2  0  0  0  0  0  0  0  0  0
   36.9350   27.3770   43.1320 C   0  0  0  0  0  0  0  0  0  0  0  0
   36.9458   28.8487   39.2348 H   0  0  0  0  0  0  0  0  0  0  0  0
   36.3439   30.7612   37.6645 H   0  0  0  0  0  0  0  0  0  0  0  0
   37.9149   33.5693   40.4823 H   0  0  0  0  0  0  0  0  0  0  0  0
   38.6527   28.5771   40.8140 H   0  0  0  0  0  0  0  0  0  0  0  0
   39.2083   28.6964   43.4986 H   0  0  0  0  0  0  0  0  0  0  0  0
   38.8588   30.2241   43.5547 H   0  0  0  0  0  0  0  0  0  0  0  0
   36.0546   29.1374   42.9550 H   0  0  0  0  0  0  0  0  0  0  0  0
   36.9251   27.2848   44.2281 H   0  0  0  0  0  0  0  0  0  0  0  0
   35.9900   26.9901   42.7229 H   0  0  0  0  0  0  0  0  0  0  0  0
   37.7760   26.7978   42.7229 H   0  0  0  0  0  0  0  0  0  0  0  0
  1  6  1  0
  1  7  1  0
  2  1  2  0
  3  4  2  0
  3  2  1  0
  4  5  1  0
  5  6  2  0
  7  9  1  0
  7  8  1  0
  9  8  1  0
  9 10  1  0
  2 11  1  0
  3 12  1  0
  5 13  1  0
  7 14  1  6
  8 15  1  0
  8 16  1  0
  9 17  1  6
 10 18  1  0
 10 19  1  0
 10 20  1  0
M  ISO  8  11  14  12  14  13  14  14  13  15  13  16  13  17  13  18   8
M  ISO  2  19   8  20   8
M  END
>  <minimizedAffinity>  (1) 
-3.13663554

>  <minimizedRMSD>  (1) 
2.14998674

$$$$
