
     RDKit          3D

 41 45  0  0  1  0  0  0  0  0999 V2000
   37.0350   27.2890   41.4600 C   0  0  0  0  0  0  0  0  0  0  0  0
   37.0240   26.3770   42.5030 C   0  0  0  0  0  0  0  0  0  0  0  0
   36.9070   25.0310   42.2580 C   0  0  0  0  0  0  0  0  0  0  0  0
   36.8020   24.5940   40.9520 C   0  0  0  0  0  0  0  0  0  0  0  0
   36.8170   25.4920   39.9260 C   0  0  0  0  0  0  0  0  0  0  0  0
   36.9390   26.8670   40.2060 C   0  0  0  0  0  0  0  0  0  0  0  0
   37.0370   27.4990   38.9090 C   0  0  0  0  0  0  0  0  0  0  0  0
   38.3210   27.4410   38.4350 N   0  0  0  0  0  0  0  0  0  0  0  0
   38.6440   27.9650   37.2360 C   0  0  0  0  0  0  0  0  0  0  0  0
   37.6840   28.5610   36.4810 N   0  0  0  0  0  0  0  0  0  0  0  0
   36.4360   28.6060   36.9660 C   0  0  0  0  0  0  0  0  0  0  0  0
   35.4080   29.2090   36.2280 C   0  0  0  0  0  0  0  0  0  0  0  0
   34.1150   29.2490   36.7410 C   0  0  0  0  0  0  0  0  0  0  0  0
   33.7890   28.7040   37.9840 C   0  0  0  0  0  0  0  0  0  0  0  0
   34.7950   28.0970   38.7420 C   0  0  0  0  0  0  0  0  0  0  0  0
   36.0300   28.0950   38.1780 C   0  0  0  0  0  0  0  0  0  0  0  0
   38.3270   29.4920   41.6160 C   0  0  1  0  0  0  0  0  0  0  0  0
   37.6940   29.2380   42.9260 C   0  0  0  0  0  0  0  0  0  0  0  0
   36.9440   28.7330   41.7820 C   0  0  2  0  0  0  0  0  0  0  0  0
   38.1730   30.8480   40.9810 C   0  0  0  0  0  0  0  0  0  0  0  0
   37.2460   30.9690   39.9040 C   0  0  0  0  0  0  0  0  0  0  0  0
   37.1000   32.2030   39.3070 C   0  0  0  0  0  0  0  0  0  0  0  0
   37.8490   33.2580   39.7800 N   0  0  0  0  0  0  0  0  0  0  0  0
   38.7220   33.1010   40.8120 C   0  0  0  0  0  0  0  0  0  0  0  0
   38.8720   31.8720   41.4080 N   0  0  0  0  0  0  0  0  0  0  0  0
   37.1100   26.7354   43.5394 H   0  0  0  0  0  0  0  0  0  0  0  0
   36.8970   24.3112   43.0898 H   0  0  0  0  0  0  0  0  0  0  0  0
   36.7061   23.5191   40.7391 H   0  0  0  0  0  0  0  0  0  0  0  0
   36.7343   25.1446   38.8856 H   0  0  0  0  0  0  0  0  0  0  0  0
   39.6800   27.9105   36.8702 H   0  0  0  0  0  0  0  0  0  0  0  0
   35.6233   29.6504   35.2437 H   0  0  0  0  0  0  0  0  0  0  0  0
   33.3224   29.7267   36.1463 H   0  0  0  0  0  0  0  0  0  0  0  0
   32.7568   28.7513   38.3613 H   0  0  0  0  0  0  0  0  0  0  0  0
   34.5991   27.6513   39.7284 H   0  0  0  0  0  0  0  0  0  0  0  0
   39.3325   29.3125   41.2076 H   0  0  0  0  0  0  0  0  0  0  0  0
   38.1630   28.5212   43.6161 H   0  0  0  0  0  0  0  0  0  0  0  0
   37.4214   29.8992   43.7618 H   0  0  0  0  0  0  0  0  0  0  0  0
   35.9012   28.8406   41.4487 H   0  0  0  0  0  0  0  0  0  0  0  0
   36.6637   30.1018   39.5592 H   0  0  0  0  0  0  0  0  0  0  0  0
   36.3998   32.3424   38.4701 H   0  0  0  0  0  0  0  0  0  0  0  0
   39.3089   33.9598   41.1699 H   0  0  0  0  0  0  0  0  0  0  0  0
  1 19  1  0
  1  2  2  0
  3  2  1  0
  4  3  2  0
  5  6  2  0
  5  4  1  0
  6  1  1  0
  7  6  1  0
  8  7  2  0
  9  8  1  0
 10 11  1  0
 10  9  2  0
 11 16  2  0
 12 13  2  0
 12 11  1  0
 13 14  1  0
 14 15  2  0
 16 15  1  0
 16  7  1  0
 17 19  1  0
 17 18  1  0
 19 18  1  0
 20 25  1  0
 20 17  1  0
 21 20  2  0
 22 23  2  0
 22 21  1  0
 23 24  1  0
 24 25  2  0
  2 26  1  0
  3 27  1  0
  4 28  1  0
  5 29  1  0
  9 30  1  0
 12 31  1  0
 13 32  1  0
 14 33  1  0
 15 34  1  0
 17 35  1  1
 18 36  1  0
 18 37  1  0
 19 38  1  6
 21 39  1  0
 22 40  1  0
 24 41  1  0
M  ISO  8  26  14  27  14  28  14  29  14  30  14  31  14  32  14  33  14
M  ISO  8  34  14  35  13  36  13  37  13  38  13  39  14  40  14  41  14
M  END
>  <minimizedAffinity>  (1) 
-6.07238007

>  <minimizedRMSD>  (1) 
1.28139901

$$$$
