
     RDKit          3D

 37 40  0  0  1  0  0  0  0  0999 V2000
   38.4200   28.4500   42.3970 C   0  0  0  0  0  0  0  0  0  0  0  0
   39.2170   27.6800   43.2120 C   0  0  0  0  0  0  0  0  0  0  0  0
   39.0410   26.3270   43.3230 C   0  0  0  0  0  0  0  0  0  0  0  0
   38.0360   25.7250   42.5940 C   0  0  0  0  0  0  0  0  0  0  0  0
   37.2340   26.4790   41.7730 C   0  0  0  0  0  0  0  0  0  0  0  0
   37.4590   27.8700   41.6950 C   0  0  0  0  0  0  0  0  0  0  0  0
   36.5120   28.3080   40.6830 C   0  0  0  0  0  0  0  0  0  0  0  0
   37.0440   27.9640   39.4260 C   0  0  0  0  0  0  0  0  0  0  0  0
   36.3420   28.2680   38.2640 C   0  0  0  0  0  0  0  0  0  0  0  0
   35.1080   28.9170   38.3690 C   0  0  0  0  0  0  0  0  0  0  0  0
   34.6000   29.2480   39.6080 C   0  0  0  0  0  0  0  0  0  0  0  0
   35.2900   28.9490   40.7630 C   0  0  0  0  0  0  0  0  0  0  0  0
   39.3500   30.5560   41.2870 C   0  0  1  0  0  0  0  0  0  0  0  0
   39.8010   30.5330   42.6950 C   0  0  0  0  0  0  0  0  0  0  0  0
   38.4950   29.9170   42.4480 C   0  0  2  0  0  0  0  0  0  0  0  0
   38.7590   31.8170   40.7320 C   0  0  0  0  0  0  0  0  0  0  0  0
   37.7240   31.6760   39.8010 C   0  0  0  0  0  0  0  0  0  0  0  0
   37.1310   32.8170   39.2560 C   0  0  0  0  0  0  0  0  0  0  0  0
   37.6100   34.0410   39.6770 N   0  0  0  0  0  0  0  0  0  0  0  0
   38.6190   34.1270   40.5860 C   0  0  0  0  0  0  0  0  0  0  0  0
   39.1860   32.9990   41.1070 N   0  0  0  0  0  0  0  0  0  0  0  0
   40.0175   28.1647   43.7902 H   0  0  0  0  0  0  0  0  0  0  0  0
   39.6892   25.7303   43.9816 H   0  0  0  0  0  0  0  0  0  0  0  0
   37.8770   24.6393   42.6706 H   0  0  0  0  0  0  0  0  0  0  0  0
   36.4312   26.0076   41.1871 H   0  0  0  0  0  0  0  0  0  0  0  0
   38.0165   27.4539   39.3624 H   0  0  0  0  0  0  0  0  0  0  0  0
   36.7513   28.0020   37.2782 H   0  0  0  0  0  0  0  0  0  0  0  0
   34.5401   29.1646   37.4601 H   0  0  0  0  0  0  0  0  0  0  0  0
   33.6282   29.7590   39.6753 H   0  0  0  0  0  0  0  0  0  0  0  0
   34.8704   29.2191   41.7433 H   0  0  0  0  0  0  0  0  0  0  0  0
   39.8066   30.2519   40.3336 H   0  0  0  0  0  0  0  0  0  0  0  0
   40.6510   29.8936   42.9754 H   0  0  0  0  0  0  0  0  0  0  0  0
   40.1390   31.3196   43.3857 H   0  0  0  0  0  0  0  0  0  0  0  0
   37.4931   30.0420   42.8844 H   0  0  0  0  0  0  0  0  0  0  0  0
   37.3803   30.6751   39.5009 H   0  0  0  0  0  0  0  0  0  0  0  0
   36.3156   32.7432   38.5213 H   0  0  0  0  0  0  0  0  0  0  0  0
   38.9818   35.1154   40.9045 H   0  0  0  0  0  0  0  0  0  0  0  0
  1 15  1  0
  1  2  2  0
  2  3  1  0
  4  3  2  0
  5  4  1  0
  6  5  2  0
  6  1  1  0
  7 12  1  0
  7  6  1  0
  8  7  2  0
  9 10  2  0
  9  8  1  0
 10 11  1  0
 11 12  2  0
 13 15  1  0
 13 14  1  0
 15 14  1  0
 16 21  1  0
 16 13  1  0
 17 16  2  0
 18 19  2  0
 18 17  1  0
 19 20  1  0
 20 21  2  0
  2 22  1  0
  3 23  1  0
  4 24  1  0
  5 25  1  0
  8 26  1  0
  9 27  1  0
 10 28  1  0
 11 29  1  0
 12 30  1  0
 13 31  1  6
 14 32  1  0
 14 33  1  0
 15 34  1  1
 17 35  1  0
 18 36  1  0
 20 37  1  0
M  ISO  8  22  14  23  14  24  14  25  14  26  14  27  14  28  14  29  14
M  ISO  8  30  14  31  13  32  13  33  13  34  13  35  14  36  14  37  14
M  END
>  <minimizedAffinity>  (1) 
-5.94543457

>  <minimizedRMSD>  (1) 
1.66025186

$$$$
