
     RDKit          3D

 38 42  0  0  1  0  0  0  0  0999 V2000
   37.2670   27.7600   41.6280 C   0  0  0  0  0  0  0  0  0  0  0  0
   37.6390   26.7530   42.5190 C   0  0  0  0  0  0  0  0  0  0  0  0
   37.4980   25.4260   42.2900 C   0  0  0  0  0  0  0  0  0  0  0  0
   36.9490   25.0580   41.0850 C   0  0  0  0  0  0  0  0  0  0  0  0
   36.5740   26.0210   40.1880 C   0  0  0  0  0  0  0  0  0  0  0  0
   36.7360   27.4040   40.4640 C   0  0  0  0  0  0  0  0  0  0  0  0
   36.2260   28.0890   39.3390 N   0  0  0  0  0  0  0  0  0  0  0  0
   35.0220   28.7430   39.3380 C   0  0  0  0  0  0  0  0  0  0  0  0
   34.8670   29.2490   38.0930 N   0  0  0  0  0  0  0  0  0  0  0  0
   35.9290   28.9360   37.3210 C   0  0  0  0  0  0  0  0  0  0  0  0
   36.3150   29.1660   36.0250 C   0  0  0  0  0  0  0  0  0  0  0  0
   37.4750   28.7110   35.5130 N   0  0  0  0  0  0  0  0  0  0  0  0
   38.3130   27.9920   36.2920 C   0  0  0  0  0  0  0  0  0  0  0  0
   37.9720   27.7360   37.5890 N   0  0  0  0  0  0  0  0  0  0  0  0
   36.8150   28.1880   38.1070 C   0  0  0  0  0  0  0  0  0  0  0  0
   38.6380   29.9170   41.3810 C   0  0  1  0  0  0  0  0  0  0  0  0
   38.4230   29.6550   42.8180 C   0  0  0  0  0  0  0  0  0  0  0  0
   37.3240   29.2040   41.9660 C   0  0  2  0  0  0  0  0  0  0  0  0
   38.3830   31.2820   40.8380 C   0  0  0  0  0  0  0  0  0  0  0  0
   37.4720   31.3730   39.8060 C   0  0  0  0  0  0  0  0  0  0  0  0
   37.1920   32.6300   39.2520 C   0  0  0  0  0  0  0  0  0  0  0  0
   37.8430   33.7180   39.7670 N   0  0  0  0  0  0  0  0  0  0  0  0
   38.7280   33.5850   40.7790 C   0  0  0  0  0  0  0  0  0  0  0  0
   38.9760   32.3520   41.2910 N   0  0  0  0  0  0  0  0  0  0  0  0
   38.0797   27.0599   43.4790 H   0  0  0  0  0  0  0  0  0  0  0  0
   37.8084   24.6773   43.0338 H   0  0  0  0  0  0  0  0  0  0  0  0
   36.8116   23.9939   40.8426 H   0  0  0  0  0  0  0  0  0  0  0  0
   36.1351   25.7151   39.2269 H   0  0  0  0  0  0  0  0  0  0  0  0
   34.3216   28.8377   40.1809 H   0  0  0  0  0  0  0  0  0  0  0  0
   35.6467   29.7487   35.3739 H   0  0  0  0  0  0  0  0  0  0  0  0
   39.2628   27.6158   35.8842 H   0  0  0  0  0  0  0  0  0  0  0  0
   39.4573   29.7049   40.6783 H   0  0  0  0  0  0  0  0  0  0  0  0
   39.0490   28.9033   43.3211 H   0  0  0  0  0  0  0  0  0  0  0  0
   38.4528   30.3098   43.7014 H   0  0  0  0  0  0  0  0  0  0  0  0
   36.2352   29.3606   41.9726 H   0  0  0  0  0  0  0  0  0  0  0  0
   36.9720   30.4712   39.4229 H   0  0  0  0  0  0  0  0  0  0  0  0
   36.4710   32.7385   38.4284 H   0  0  0  0  0  0  0  0  0  0  0  0
   39.2433   34.4680   41.1848 H   0  0  0  0  0  0  0  0  0  0  0  0
  1 18  1  0
  1  2  2  0
  3  2  1  0
  4  3  2  0
  5  6  2  0
  5  4  1  0
  6  1  1  0
  7  6  1  0
  8  7  1  0
  9  8  2  0
 10  9  1  0
 10 15  2  0
 11 10  1  0
 12 11  2  0
 12 13  1  0
 13 14  2  0
 14 15  1  0
 15  7  1  0
 16 18  1  0
 16 17  1  0
 18 17  1  0
 19 24  1  0
 19 16  1  0
 20 19  2  0
 21 22  2  0
 21 20  1  0
 22 23  1  0
 23 24  2  0
  2 25  1  0
  3 26  1  0
  4 27  1  0
  5 28  1  0
  8 29  1  0
 11 30  1  0
 13 31  1  0
 16 32  1  6
 17 33  1  0
 17 34  1  0
 18 35  1  1
 20 36  1  0
 21 37  1  0
 23 38  1  0
M  ISO  8  25  14  26  14  27  14  28  14  29  14  30  14  31  14  32  13
M  ISO  6  33  13  34  13  35  13  36  14  37  14  38  14
M  END
>  <minimizedAffinity>  (1) 
-5.67391062

>  <minimizedRMSD>  (1) 
0.41416952

$$$$
