
     RDKit          3D

 34 37  0  0  1  0  0  0  0  0999 V2000
   37.2300   27.7520   41.5650 C   0  0  0  0  0  0  0  0  0  0  0  0
   37.4240   26.7330   42.4680 C   0  0  0  0  0  0  0  0  0  0  0  0
   37.2350   25.4140   42.1890 C   0  0  0  0  0  0  0  0  0  0  0  0
   36.8240   25.0830   40.9170 C   0  0  0  0  0  0  0  0  0  0  0  0
   36.6220   26.0560   39.9920 C   0  0  0  0  0  0  0  0  0  0  0  0
   36.8360   27.4200   40.3470 C   0  0  0  0  0  0  0  0  0  0  0  0
   38.6250   29.8900   41.4490 C   0  0  1  0  0  0  0  0  0  0  0  0
   38.2960   29.6080   42.8650 C   0  0  0  0  0  0  0  0  0  0  0  0
   37.2800   29.1660   41.9080 C   0  0  2  0  0  0  0  0  0  0  0  0
   38.3980   31.2740   40.9080 C   0  0  0  0  0  0  0  0  0  0  0  0
   37.3760   31.4270   39.9790 C   0  0  0  0  0  0  0  0  0  0  0  0
   37.1450   32.7000   39.4980 C   0  0  0  0  0  0  0  0  0  0  0  0
   37.8970   33.7480   39.9280 N   0  0  0  0  0  0  0  0  0  0  0  0
   38.8870   33.5570   40.8370 C   0  0  0  0  0  0  0  0  0  0  0  0
   39.0940   32.3140   41.2910 N   0  0  0  0  0  0  0  0  0  0  0  0
   36.5070   28.1210   39.1540 N   0  0  0  0  0  0  0  0  0  0  0  0
   37.3010   28.4210   38.1070 N   0  0  0  0  0  0  0  0  0  0  0  0
   36.5900   29.0740   37.1670 C   0  0  0  0  0  0  0  0  0  0  0  0
   35.2940   29.1810   37.6640 C   0  0  0  0  0  0  0  0  0  0  0  0
   35.2360   28.5770   38.9270 C   0  0  0  0  0  0  0  0  0  0  0  0
   37.7536   27.0014   43.4825 H   0  0  0  0  0  0  0  0  0  0  0  0
   37.4045   24.6403   42.9523 H   0  0  0  0  0  0  0  0  0  0  0  0
   36.6591   24.0287   40.6500 H   0  0  0  0  0  0  0  0  0  0  0  0
   36.2953   25.7935   38.9750 H   0  0  0  0  0  0  0  0  0  0  0  0
   39.5002   29.6912   40.8129 H   0  0  0  0  0  0  0  0  0  0  0  0
   38.8817   28.8523   43.4089 H   0  0  0  0  0  0  0  0  0  0  0  0
   38.2474   30.2476   43.7586 H   0  0  0  0  0  0  0  0  0  0  0  0
   36.1951   29.3215   41.8140 H   0  0  0  0  0  0  0  0  0  0  0  0
   36.7760   30.5693   39.6410 H   0  0  0  0  0  0  0  0  0  0  0  0
   36.3460   32.8680   38.7608 H   0  0  0  0  0  0  0  0  0  0  0  0
   39.5012   34.3984   41.1903 H   0  0  0  0  0  0  0  0  0  0  0  0
   36.9595   29.4476   36.2006 H   0  0  0  0  0  0  0  0  0  0  0  0
   34.4505   29.6626   37.1478 H   0  0  0  0  0  0  0  0  0  0  0  0
   34.3625   28.4887   39.5897 H   0  0  0  0  0  0  0  0  0  0  0  0
  1  9  1  0
  1  2  2  0
  3  2  1  0
  4  3  2  0
  5  6  2  0
  5  4  1  0
  6  1  1  0
  7  9  1  0
  7  8  1  0
  9  8  1  0
 10 15  1  0
 10  7  1  0
 11 10  2  0
 12 13  2  0
 12 11  1  0
 13 14  1  0
 14 15  2  0
 16  6  1  0
 17 16  1  0
 18 19  1  0
 18 17  2  0
 19 20  2  0
 20 16  1  0
  2 21  1  0
  3 22  1  0
  4 23  1  0
  5 24  1  0
  7 25  1  6
  8 26  1  0
  8 27  1  0
  9 28  1  1
 11 29  1  0
 12 30  1  0
 14 31  1  0
 18 32  1  0
 19 33  1  0
 20 34  1  0
M  ISO  8  21  14  22  14  23  14  24  14  25  13  26  13  27  13  28  13
M  ISO  6  29  14  30  14  31  14  32  14  33  14  34  14
M  END
>  <minimizedAffinity>  (1) 
-5.26861048

>  <minimizedRMSD>  (1) 
0.29926765

$$$$
