
     RDKit          3D

 34 37  0  0  1  0  0  0  0  0999 V2000
   37.3650   27.8180   41.4780 C   0  0  0  0  0  0  0  0  0  0  0  0
   37.6410   26.9000   42.5010 C   0  0  0  0  0  0  0  0  0  0  0  0
   37.3940   25.5670   42.3120 C   0  0  0  0  0  0  0  0  0  0  0  0
   36.8710   25.1610   41.0990 C   0  0  0  0  0  0  0  0  0  0  0  0
   36.6110   26.0680   40.1100 C   0  0  0  0  0  0  0  0  0  0  0  0
   36.8690   27.4330   40.3020 C   0  0  0  0  0  0  0  0  0  0  0  0
   38.7160   29.9860   41.3830 C   0  0  1  0  0  0  0  0  0  0  0  0
   38.4600   29.6930   42.8020 C   0  0  0  0  0  0  0  0  0  0  0  0
   37.4030   29.2510   41.8990 C   0  0  2  0  0  0  0  0  0  0  0  0
   38.4090   31.3830   40.8650 C   0  0  0  0  0  0  0  0  0  0  0  0
   37.3810   31.5360   39.8800 C   0  0  0  0  0  0  0  0  0  0  0  0
   37.1370   32.8010   39.4030 C   0  0  0  0  0  0  0  0  0  0  0  0
   37.8850   33.8490   39.8970 N   0  0  0  0  0  0  0  0  0  0  0  0
   38.8520   33.6600   40.8360 C   0  0  0  0  0  0  0  0  0  0  0  0
   39.1100   32.3970   41.3230 N   0  0  0  0  0  0  0  0  0  0  0  0
   36.5710   28.0860   39.0470 C   0  0  0  0  0  0  0  0  0  0  0  0
   35.3290   28.6120   38.6530 C   0  0  0  0  0  0  0  0  0  0  0  0
   35.3760   29.2140   37.4200 C   0  0  0  0  0  0  0  0  0  0  0  0
   36.6550   29.0550   37.0580 N   0  0  0  0  0  0  0  0  0  0  0  0
   37.2990   28.4260   37.9780 N   0  0  0  0  0  0  0  0  0  0  0  0
   38.0566   27.2514   43.4569 H   0  0  0  0  0  0  0  0  0  0  0  0
   37.6067   24.8366   43.1065 H   0  0  0  0  0  0  0  0  0  0  0  0
   36.6614   24.0949   40.9273 H   0  0  0  0  0  0  0  0  0  0  0  0
   36.1944   25.7231   39.1521 H   0  0  0  0  0  0  0  0  0  0  0  0
   39.5675   29.8037   40.7108 H   0  0  0  0  0  0  0  0  0  0  0  0
   39.0774   28.9379   43.3105 H   0  0  0  0  0  0  0  0  0  0  0  0
   38.4514   30.3268   43.7010 H   0  0  0  0  0  0  0  0  0  0  0  0
   36.3118   29.3899   41.8898 H   0  0  0  0  0  0  0  0  0  0  0  0
   36.8066   30.6706   39.5178 H   0  0  0  0  0  0  0  0  0  0  0  0
   36.3611   32.9744   38.6428 H   0  0  0  0  0  0  0  0  0  0  0  0
   39.4299   34.5190   41.2077 H   0  0  0  0  0  0  0  0  0  0  0  0
   34.4179   28.5483   39.2660 H   0  0  0  0  0  0  0  0  0  0  0  0
   34.5629   29.7059   36.8660 H   0  0  0  0  0  0  0  0  0  0  0  0
   37.0638   29.3873   36.1729 H   0  0  0  0  0  0  0  0  0  0  0  0
  1  9  1  0
  1  2  2  0
  3  2  1  0
  4  3  2  0
  5  6  2  0
  5  4  1  0
  6  1  1  0
  7  9  1  0
  7  8  1  0
  9  8  1  0
 10 15  1  0
 10  7  1  0
 11 10  2  0
 12 11  1  0
 12 13  2  0
 13 14  1  0
 14 15  2  0
 16  6  1  0
 17 16  1  0
 18 17  2  0
 19 18  1  0
 19 20  1  0
 20 16  2  0
  2 21  1  0
  3 22  1  0
  4 23  1  0
  5 24  1  0
  7 25  1  6
  8 26  1  0
  8 27  1  0
  9 28  1  1
 11 29  1  0
 12 30  1  0
 14 31  1  0
 17 32  1  0
 18 33  1  0
 19 34  1  0
M  ISO  8  21  14  22  14  23  14  24  14  25  13  26  13  27  13  28  13
M  ISO  6  29  14  30  14  31  14  32  14  33  14  34   9
M  END
>  <minimizedAffinity>  (1) 
-5.18494081

>  <minimizedRMSD>  (1) 
0.44134438

$$$$
