
     RDKit          3D

 33 35  0  0  1  0  0  0  0  0999 V2000
   38.3100   29.2430   41.8270 C   0  0  1  0  0  0  0  0  0  0  0  0
   37.5960   28.9580   43.0960 C   0  0  0  0  0  0  0  0  0  0  0  0
   36.9440   28.4890   41.8790 C   0  0  2  0  0  0  0  0  0  0  0  0
   36.9900   27.0680   41.5340 C   0  0  0  0  0  0  0  0  0  0  0  0
   37.1110   26.1230   42.5200 C   0  0  0  0  0  0  0  0  0  0  0  0
   36.9910   24.7910   42.2880 C   0  0  0  0  0  0  0  0  0  0  0  0
   36.7390   24.3800   41.0020 C   0  0  0  0  0  0  0  0  0  0  0  0
   36.6200   25.3050   40.0200 C   0  0  0  0  0  0  0  0  0  0  0  0
   36.7460   26.6830   40.2730 C   0  0  0  0  0  0  0  0  0  0  0  0
   36.5890   27.4920   39.0710 C   0  0  0  0  0  0  0  0  0  0  0  0
   35.6070   26.8630   38.1050 C   0  0  0  0  0  0  0  0  0  0  0  0
   38.2230   30.6190   41.2480 C   0  0  0  0  0  0  0  0  0  0  0  0
   37.1640   30.8880   40.3880 C   0  0  0  0  0  0  0  0  0  0  0  0
   37.0230   32.1550   39.8180 C   0  0  0  0  0  0  0  0  0  0  0  0
   37.9810   33.0960   40.1590 N   0  0  0  0  0  0  0  0  0  0  0  0
   38.9980   32.7930   41.0030 C   0  0  0  0  0  0  0  0  0  0  0  0
   39.1080   31.5340   41.5480 N   0  0  0  0  0  0  0  0  0  0  0  0
   39.3332   29.0657   41.4643 H   0  0  0  0  0  0  0  0  0  0  0  0
   38.0180   28.2236   43.7979 H   0  0  0  0  0  0  0  0  0  0  0  0
   37.2641   29.5914   43.9318 H   0  0  0  0  0  0  0  0  0  0  0  0
   35.9355   28.6132   41.4577 H   0  0  0  0  0  0  0  0  0  0  0  0
   37.3148   26.4600   43.5471 H   0  0  0  0  0  0  0  0  0  0  0  0
   37.0926   24.0623   43.1058 H   0  0  0  0  0  0  0  0  0  0  0  0
   36.6348   23.3094   40.7717 H   0  0  0  0  0  0  0  0  0  0  0  0
   36.4185   24.9682   38.9924 H   0  0  0  0  0  0  0  0  0  0  0  0
   36.2216   28.4888   39.3562 H   0  0  0  0  0  0  0  0  0  0  0  0
   37.5668   27.5638   38.5723 H   0  0  0  0  0  0  0  0  0  0  0  0
   34.8121   26.3539   38.6698 H   0  0  0  0  0  0  0  0  0  0  0  0
   35.1633   27.6454   37.4718 H   0  0  0  0  0  0  0  0  0  0  0  0
   36.1322   26.1328   37.4718 H   0  0  0  0  0  0  0  0  0  0  0  0
   36.4337   30.0989   40.1555 H   0  0  0  0  0  0  0  0  0  0  0  0
   36.1949   32.3934   39.1343 H   0  0  0  0  0  0  0  0  0  0  0  0
   39.7433   33.5618   41.2549 H   0  0  0  0  0  0  0  0  0  0  0  0
  1  3  1  0
  1  2  1  0
  3  2  1  0
  4  3  1  0
  4  5  2  0
  6  5  1  0
  7  6  2  0
  8  9  2  0
  8  7  1  0
  9  4  1  0
 10  9  1  0
 11 10  1  0
 12 17  1  0
 12  1  1  0
 13 12  2  0
 14 15  2  0
 14 13  1  0
 15 16  1  0
 16 17  2  0
  1 18  1  1
  2 19  1  0
  2 20  1  0
  3 21  1  6
  5 22  1  0
  6 23  1  0
  7 24  1  0
  8 25  1  0
 10 26  1  0
 10 27  1  0
 11 28  1  0
 11 29  1  0
 11 30  1  0
 13 31  1  0
 14 32  1  0
 16 33  1  0
M  ISO  8  18  13  19  13  20  13  21  13  22  14  23  14  24  14  25  14
M  ISO  8  26   8  27   8  28   8  29   8  30   8  31  14  32  14  33  14
M  END
>  <minimizedAffinity>  (1) 
-4.95625639

>  <minimizedRMSD>  (1) 
0.796212494

$$$$
