
     RDKit          3D

 30 32  0  0  1  0  0  0  0  0999 V2000
   38.2360   29.3020   41.6580 C   0  0  1  0  0  0  0  0  0  0  0  0
   37.5410   29.0350   42.9410 C   0  0  0  0  0  0  0  0  0  0  0  0
   36.8930   28.5180   41.7410 C   0  0  2  0  0  0  0  0  0  0  0  0
   36.9600   27.0870   41.4570 C   0  0  0  0  0  0  0  0  0  0  0  0
   37.1170   26.1800   42.4700 C   0  0  0  0  0  0  0  0  0  0  0  0
   37.0130   24.8380   42.2800 C   0  0  0  0  0  0  0  0  0  0  0  0
   36.7420   24.3860   41.0130 C   0  0  0  0  0  0  0  0  0  0  0  0
   36.5860   25.2700   40.0000 C   0  0  0  0  0  0  0  0  0  0  0  0
   36.6970   26.6550   40.2200 C   0  0  0  0  0  0  0  0  0  0  0  0
   36.5070   27.4120   38.9810 C   0  0  0  0  0  0  0  0  0  0  0  0
   38.1130   30.6550   41.0390 C   0  0  0  0  0  0  0  0  0  0  0  0
   37.1670   30.8080   40.0330 C   0  0  0  0  0  0  0  0  0  0  0  0
   36.9860   32.0460   39.4070 C   0  0  0  0  0  0  0  0  0  0  0  0
   37.7930   33.0820   39.8480 N   0  0  0  0  0  0  0  0  0  0  0  0
   38.7050   32.8900   40.8360 C   0  0  0  0  0  0  0  0  0  0  0  0
   38.8590   31.6600   41.4300 N   0  0  0  0  0  0  0  0  0  0  0  0
   39.2609   29.1404   41.2928 H   0  0  0  0  0  0  0  0  0  0  0  0
   37.9866   28.3306   43.6588 H   0  0  0  0  0  0  0  0  0  0  0  0
   37.2002   29.6819   43.7628 H   0  0  0  0  0  0  0  0  0  0  0  0
   35.8841   28.6089   41.3121 H   0  0  0  0  0  0  0  0  0  0  0  0
   37.3368   26.5530   43.4812 H   0  0  0  0  0  0  0  0  0  0  0  0
   37.1422   24.1356   43.1166 H   0  0  0  0  0  0  0  0  0  0  0  0
   36.6517   23.3067   40.8209 H   0  0  0  0  0  0  0  0  0  0  0  0
   36.3687   24.8991   38.9875 H   0  0  0  0  0  0  0  0  0  0  0  0
   36.2458   28.4527   39.2235 H   0  0  0  0  0  0  0  0  0  0  0  0
   37.4374   27.3946   38.3944 H   0  0  0  0  0  0  0  0  0  0  0  0
   35.6951   26.9574   38.3944 H   0  0  0  0  0  0  0  0  0  0  0  0
   36.5545   29.9475   39.7258 H   0  0  0  0  0  0  0  0  0  0  0  0
   36.2434   32.1889   38.6082 H   0  0  0  0  0  0  0  0  0  0  0  0
   39.3305   33.7325   41.1662 H   0  0  0  0  0  0  0  0  0  0  0  0
  1  3  1  0
  1  2  1  0
  3  2  1  0
  4  3  1  0
  4  5  2  0
  6  5  1  0
  7  6  2  0
  8  9  2  0
  8  7  1  0
  9  4  1  0
 10  9  1  0
 11 16  1  0
 11  1  1  0
 12 11  2  0
 13 14  2  0
 13 12  1  0
 14 15  1  0
 15 16  2  0
  1 17  1  1
  2 18  1  0
  2 19  1  0
  3 20  1  6
  5 21  1  0
  6 22  1  0
  7 23  1  0
  8 24  1  0
 10 25  1  0
 10 26  1  0
 10 27  1  0
 12 28  1  0
 13 29  1  0
 15 30  1  0
M  ISO  8  17  13  18  13  19  13  20  13  21  14  22  14  23  14  24  14
M  ISO  6  25   8  26   8  27   8  28  14  29  14  30  14
M  END
>  <minimizedAffinity>  (1) 
-4.93761873

>  <minimizedRMSD>  (1) 
0.778277934

$$$$
