
     RDKit          3D

 28 30  0  0  1  0  0  0  0  0999 V2000
   38.2790   29.3580   41.7800 C   0  0  1  0  0  0  0  0  0  0  0  0
   37.6160   29.0770   43.0720 C   0  0  0  0  0  0  0  0  0  0  0  0
   36.8580   28.6310   41.9010 C   0  0  2  0  0  0  0  0  0  0  0  0
   36.9230   27.1980   41.5420 C   0  0  0  0  0  0  0  0  0  0  0  0
   37.0810   26.2040   42.4850 C   0  0  0  0  0  0  0  0  0  0  0  0
   37.0280   24.8740   42.2290 C   0  0  0  0  0  0  0  0  0  0  0  0
   36.8030   24.4910   40.9300 C   0  0  0  0  0  0  0  0  0  0  0  0
   36.6440   25.4540   39.9690 C   0  0  0  0  0  0  0  0  0  0  0  0
   36.7040   26.8300   40.2860 C   0  0  0  0  0  0  0  0  0  0  0  0
   36.4300   27.7110   38.7750 S   0  0  0  0  0  0  0  0  0  0  0  0
   38.1930   30.7330   41.2020 C   0  0  0  0  0  0  0  0  0  0  0  0
   37.1450   30.9860   40.3330 C   0  0  0  0  0  0  0  0  0  0  0  0
   37.0120   32.2570   39.7630 C   0  0  0  0  0  0  0  0  0  0  0  0
   37.9520   33.2100   40.1070 N   0  0  0  0  0  0  0  0  0  0  0  0
   38.9500   32.9230   40.9520 C   0  0  0  0  0  0  0  0  0  0  0  0
   39.0530   31.6730   41.4910 N   0  0  0  0  0  0  0  0  0  0  0  0
   39.2823   29.1591   41.3752 H   0  0  0  0  0  0  0  0  0  0  0  0
   38.0535   28.3228   43.7426 H   0  0  0  0  0  0  0  0  0  0  0  0
   37.3525   29.7191   43.9254 H   0  0  0  0  0  0  0  0  0  0  0  0
   35.8238   28.7811   41.5576 H   0  0  0  0  0  0  0  0  0  0  0  0
   37.2640   26.5143   43.5243 H   0  0  0  0  0  0  0  0  0  0  0  0
   37.1599   24.1315   43.0298 H   0  0  0  0  0  0  0  0  0  0  0  0
   36.7511   23.4248   40.6644 H   0  0  0  0  0  0  0  0  0  0  0  0
   36.4656   25.1496   38.9271 H   0  0  0  0  0  0  0  0  0  0  0  0
   36.0319   28.9909   39.0584 H   0  0  0  0  0  0  0  0  0  0  0  0
   36.4217   30.1930   40.0923 H   0  0  0  0  0  0  0  0  0  0  0  0
   36.1913   32.4886   39.0682 H   0  0  0  0  0  0  0  0  0  0  0  0
   39.6883   33.6957   41.2124 H   0  0  0  0  0  0  0  0  0  0  0  0
  1  3  1  0
  1  2  1  0
  3  2  1  0
  4  3  1  0
  4  5  2  0
  6  5  1  0
  7  6  2  0
  8  9  2  0
  8  7  1  0
  9  4  1  0
 10  9  1  0
 11 16  1  0
 11  1  1  0
 12 11  2  0
 13 14  2  0
 13 12  1  0
 14 15  1  0
 15 16  2  0
  1 17  1  1
  2 18  1  0
  2 19  1  0
  3 20  1  6
  5 21  1  0
  6 22  1  0
  7 23  1  0
  8 24  1  0
 10 25  1  0
 12 26  1  0
 13 27  1  0
 15 28  1  0
M  ISO  8  17  13  18  13  19  13  20  13  21  14  22  14  23  14  24  14
M  ISO  4  25  11  26  14  27  14  28  14
M  END
>  <minimizedAffinity>  (1) 
-4.88666105

>  <minimizedRMSD>  (1) 
0.704289556

$$$$
