
     RDKit          3D

 20 21  0  0  0  0  0  0  0  0999 V2000
   39.6590   29.1890   42.6710 C   0  0  0  0  0  0  0  0  0  0  0  0
   40.1590   28.0190   43.1730 C   0  0  0  0  0  0  0  0  0  0  0  0
   39.0920   27.1920   43.4460 C   0  0  0  0  0  0  0  0  0  0  0  0
   37.9980   27.9060   43.0940 N   0  0  0  0  0  0  0  0  0  0  0  0
   38.3130   29.0840   42.6360 N   0  0  0  0  0  0  0  0  0  0  0  0
   42.3510   31.7490   42.3520 C   0  0  0  0  0  0  0  0  0  0  0  0
   41.6670   30.6160   42.8000 C   0  0  0  0  0  0  0  0  0  0  0  0
   40.4100   30.3440   42.2480 C   0  0  0  0  0  0  0  0  0  0  0  0
   39.9150   31.1930   41.3050 N   0  0  0  0  0  0  0  0  0  0  0  0
   40.6030   32.2820   40.8920 C   0  0  0  0  0  0  0  0  0  0  0  0
   41.8290   32.5570   41.4240 N   0  0  0  0  0  0  0  0  0  0  0  0
   36.6550   27.3770   43.2290 C   0  0  0  0  0  0  0  0  0  0  0  0
   36.6430   26.0300   42.9150 F   0  0  0  0  0  0  0  0  0  0  0  0
   36.1990   27.6150   44.5200 F   0  0  0  0  0  0  0  0  0  0  0  0
   35.8050   28.0190   42.3190 F   0  0  0  0  0  0  0  0  0  0  0  0
   41.2215   27.7815   43.3303 H   0  0  0  0  0  0  0  0  0  0  0  0
   39.1226   26.1733   43.8599 H   0  0  0  0  0  0  0  0  0  0  0  0
   43.3407   31.9811   42.7722 H   0  0  0  0  0  0  0  0  0  0  0  0
   42.1039   29.9568   43.5646 H   0  0  0  0  0  0  0  0  0  0  0  0
   40.1740   32.9460   40.1271 H   0  0  0  0  0  0  0  0  0  0  0  0
  1  2  1  0
  2  3  2  0
  4 12  1  0
  4  3  1  0
  5  1  2  0
  5  4  1  0
  6  7  2  0
  8  1  1  0
  8  7  1  0
  9  8  2  0
 10  9  1  0
 10 11  2  0
 11  6  1  0
 12 14  1  0
 13 12  1  0
 15 12  1  0
  2 16  1  0
  3 17  1  0
  6 18  1  0
  7 19  1  0
 10 20  1  0
M  ISO  5  16  14  17  14  18  14  19  14  20  14
M  END
>  <minimizedAffinity>  (1) 
-4.40147495

>  <minimizedRMSD>  (1) 
6.33841753

$$$$
