
     RDKit          3D

 26 27  0  0  0  0  0  0  0  0999 V2000
   40.8530   25.9090   43.4920 C   0  0  0  0  0  0  0  0  0  0  0  0
   41.2400   26.8200   44.4370 C   0  0  0  0  0  0  0  0  0  0  0  0
   42.6210   26.7250   44.5610 C   0  0  0  0  0  0  0  0  0  0  0  0
   42.9760   25.7610   43.6790 N   0  0  0  0  0  0  0  0  0  0  0  0
   41.9600   25.2750   43.0480 N   0  0  0  0  0  0  0  0  0  0  0  0
   37.2650   26.3630   42.5830 C   0  0  0  0  0  0  0  0  0  0  0  0
   38.5610   26.6830   43.0330 C   0  0  0  0  0  0  0  0  0  0  0  0
   39.5030   25.6670   43.0460 C   0  0  0  0  0  0  0  0  0  0  0  0
   39.1430   24.4260   42.6290 N   0  0  0  0  0  0  0  0  0  0  0  0
   37.8860   24.1590   42.2030 C   0  0  0  0  0  0  0  0  0  0  0  0
   36.9470   25.1260   42.1800 N   0  0  0  0  0  0  0  0  0  0  0  0
   44.3810   25.3730   43.5210 C   0  0  0  0  0  0  0  0  0  0  0  0
   45.2740   26.1590   44.4390 C   0  0  0  0  0  0  0  0  0  0  0  0
   44.8080   25.7200   42.0860 C   0  0  0  0  0  0  0  0  0  0  0  0
   40.5805   27.5010   44.9949 H   0  0  0  0  0  0  0  0  0  0  0  0
   43.2784   27.3035   45.2267 H   0  0  0  0  0  0  0  0  0  0  0  0
   36.4952   27.1485   42.5621 H   0  0  0  0  0  0  0  0  0  0  0  0
   38.8156   27.7014   43.3618 H   0  0  0  0  0  0  0  0  0  0  0  0
   37.6281   23.1421   41.8721 H   0  0  0  0  0  0  0  0  0  0  0  0
   44.4722   24.3007   43.7485 H   0  0  0  0  0  0  0  0  0  0  0  0
   45.0163   25.9322   45.4841 H   0  0  0  0  0  0  0  0  0  0  0  0
   46.3231   25.8859   44.2525 H   0  0  0  0  0  0  0  0  0  0  0  0
   45.1363   27.2343   44.2525 H   0  0  0  0  0  0  0  0  0  0  0  0
   45.6614   26.4135   42.1149 H   0  0  0  0  0  0  0  0  0  0  0  0
   45.1006   24.8004   41.5580 H   0  0  0  0  0  0  0  0  0  0  0  0
   43.9677   26.1945   41.5580 H   0  0  0  0  0  0  0  0  0  0  0  0
  1  2  1  0
  2  3  2  0
  4  3  1  0
  5  1  2  0
  5  4  1  0
  6  7  2  0
  7  8  1  0
  8  1  1  0
  9  8  2  0
 10  9  1  0
 11 10  2  0
 11  6  1  0
 12  4  1  0
 12 13  1  0
 14 12  1  0
  2 15  1  0
  3 16  1  0
  6 17  1  0
  7 18  1  0
 10 19  1  0
 12 20  1  0
 13 21  1  0
 13 22  1  0
 13 23  1  0
 14 24  1  0
 14 25  1  0
 14 26  1  0
M  ISO  8  15  14  16  14  17  14  18  14  19  14  20   8  21   8  22   8
M  ISO  4  23   8  24   8  25   8  26   8
M  END
>  <minimizedAffinity>  (1) 
-3.4138391

>  <minimizedRMSD>  (1) 
1.51298285

$$$$
