
     RDKit          3D

 34 36  0  0  0  0  0  0  0  0999 V2000
   38.8170   28.2100   42.7430 C   0  0  0  0  0  0  0  0  0  0  0  0
   37.7150   27.4230   42.8180 C   0  0  0  0  0  0  0  0  0  0  0  0
   36.6670   28.1540   42.2690 C   0  0  0  0  0  0  0  0  0  0  0  0
   37.2070   29.3380   41.8960 N   0  0  0  0  0  0  0  0  0  0  0  0
   38.4590   29.3760   42.1680 N   0  0  0  0  0  0  0  0  0  0  0  0
   41.6670   26.4860   44.3990 C   0  0  0  0  0  0  0  0  0  0  0  0
   40.3710   26.7430   43.9460 C   0  0  0  0  0  0  0  0  0  0  0  0
   40.1460   27.8970   43.2140 C   0  0  0  0  0  0  0  0  0  0  0  0
   41.1810   28.7330   42.9620 N   0  0  0  0  0  0  0  0  0  0  0  0
   42.4360   28.4400   43.4260 C   0  0  0  0  0  0  0  0  0  0  0  0
   42.6700   27.3320   44.1350 N   0  0  0  0  0  0  0  0  0  0  0  0
   36.3170   30.3010   41.3240 C   0  0  0  0  0  0  0  0  0  0  0  0
   35.5210   29.8720   40.1750 C   0  0  0  0  0  0  0  0  0  0  0  0
   36.1240   29.7520   38.9030 N   0  0  0  0  0  0  0  0  0  0  0  0
   35.9470   28.4900   38.3950 C   0  0  0  0  0  0  0  0  0  0  0  0
   36.3970   28.0690   37.1510 C   0  0  0  0  0  0  0  0  0  0  0  0
   37.0760   28.9410   36.3310 C   0  0  0  0  0  0  0  0  0  0  0  0
   37.5850   28.6590   35.0580 N   0  0  0  0  0  0  0  0  0  0  0  0
   37.2460   30.1790   36.8360 N   0  0  0  0  0  0  0  0  0  0  0  0
   36.7920   30.5160   38.0280 C   0  0  0  0  0  0  0  0  0  0  0  0
   36.9950   31.6850   38.4300 O   0  0  0  0  0  0  0  0  0  0  0  0
   37.6607   26.4054   43.2321 H   0  0  0  0  0  0  0  0  0  0  0  0
   35.6193   27.8367   42.1606 H   0  0  0  0  0  0  0  0  0  0  0  0
   41.8664   25.5745   44.9816 H   0  0  0  0  0  0  0  0  0  0  0  0
   39.5490   26.0458   44.1653 H   0  0  0  0  0  0  0  0  0  0  0  0
   43.2660   29.1292   43.2111 H   0  0  0  0  0  0  0  0  0  0  0  0
   35.6177   30.6156   42.1127 H   0  0  0  0  0  0  0  0  0  0  0  0
   36.9698   31.0972   40.9368 H   0  0  0  0  0  0  0  0  0  0  0  0
   35.1089   28.8834   40.4256 H   0  0  0  0  0  0  0  0  0  0  0  0
   34.8072   30.6979   40.0395 H   0  0  0  0  0  0  0  0  0  0  0  0
   35.4101   27.7594   39.0179 H   0  0  0  0  0  0  0  0  0  0  0  0
   36.2105   27.0366   36.8202 H   0  0  0  0  0  0  0  0  0  0  0  0
   37.4666   27.7196   34.6525 H   0  0  0  0  0  0  0  0  0  0  0  0
   38.0780   29.3909   34.5267 H   0  0  0  0  0  0  0  0  0  0  0  0
  1  2  1  0
  1  8  1  0
  3  2  2  0
  4  5  1  0
  4  3  1  0
  5  1  2  0
  7  6  2  0
  8  7  1  0
  9  8  2  0
  9 10  1  0
 10 11  2  0
 11  6  1  0
 12  4  1  0
 13 12  1  0
 14 13  1  0
 15 14  1  0
 16 15  2  0
 17 19  2  0
 17 16  1  0
 18 17  1  0
 19 20  1  0
 20 21  2  0
 20 14  1  0
  2 22  1  0
  3 23  1  0
  6 24  1  0
  7 25  1  0
 10 26  1  0
 12 27  1  0
 12 28  1  0
 13 29  1  0
 13 30  1  0
 15 31  1  0
 16 32  1  0
 18 33  1  0
 18 34  1  0
M  ISO  8  22  14  23  14  24  14  25  14  26  14  27   8  28   8  29   8
M  ISO  3  30   8  31  14  32  14
M  END
>  <minimizedAffinity>  (1) 
-4.98229599

>  <minimizedRMSD>  (1) 
1.54395306

$$$$
