
     RDKit          3D

 36 38  0  0  0  0  0  0  0  0999 V2000
   39.7690   25.7600   42.9150 C   0  0  0  0  0  0  0  0  0  0  0  0
   39.6210   27.0690   43.2620 C   0  0  0  0  0  0  0  0  0  0  0  0
   40.7630   27.4400   43.9610 C   0  0  0  0  0  0  0  0  0  0  0  0
   41.5360   26.3190   43.9920 N   0  0  0  0  0  0  0  0  0  0  0  0
   40.9500   25.3470   43.3810 N   0  0  0  0  0  0  0  0  0  0  0  0
   36.5850   24.4550   41.4780 C   0  0  0  0  0  0  0  0  0  0  0  0
   37.4380   25.2600   42.2200 C   0  0  0  0  0  0  0  0  0  0  0  0
   38.8100   24.9670   42.1710 C   0  0  0  0  0  0  0  0  0  0  0  0
   39.2580   23.9200   41.4120 N   0  0  0  0  0  0  0  0  0  0  0  0
   38.3620   23.1760   40.7120 C   0  0  0  0  0  0  0  0  0  0  0  0
   37.0540   23.4440   40.7490 N   0  0  0  0  0  0  0  0  0  0  0  0
   42.8140   26.4260   44.6740 C   0  0  0  0  0  0  0  0  0  0  0  0
   42.9540   27.6800   45.4900 C   0  0  0  0  0  0  0  0  0  0  0  0
   43.2140   27.2090   46.9280 C   0  0  0  0  0  0  0  0  0  0  0  0
   43.0620   28.3290   47.9160 C   0  0  0  0  0  0  0  0  0  0  0  0
   44.0350   28.0070   49.0560 C   0  0  0  0  0  0  0  0  0  0  0  0
   44.7730   26.7730   48.6250 C   0  0  0  0  0  0  0  0  0  0  0  0
   44.6650   26.8320   47.1160 C   0  0  0  0  0  0  0  0  0  0  0  0
   38.7587   27.7120   43.0318 H   0  0  0  0  0  0  0  0  0  0  0  0
   40.9927   28.4244   44.3948 H   0  0  0  0  0  0  0  0  0  0  0  0
   35.5035   24.6554   41.4923 H   0  0  0  0  0  0  0  0  0  0  0  0
   37.0537   26.0956   42.8234 H   0  0  0  0  0  0  0  0  0  0  0  0
   38.7217   22.3346   40.1015 H   0  0  0  0  0  0  0  0  0  0  0  0
   42.9250   25.5604   45.3437 H   0  0  0  0  0  0  0  0  0  0  0  0
   43.5935   26.4556   43.8984 H   0  0  0  0  0  0  0  0  0  0  0  0
   43.7981   28.2836   45.1250 H   0  0  0  0  0  0  0  0  0  0  0  0
   42.0555   28.3112   45.4243 H   0  0  0  0  0  0  0  0  0  0  0  0
   42.5049   26.3831   47.0864 H   0  0  0  0  0  0  0  0  0  0  0  0
   43.3218   29.2907   47.4494 H   0  0  0  0  0  0  0  0  0  0  0  0
   42.0265   28.4162   48.2767 H   0  0  0  0  0  0  0  0  0  0  0  0
   44.7370   28.8402   49.2077 H   0  0  0  0  0  0  0  0  0  0  0  0
   43.5069   27.8519   50.0084 H   0  0  0  0  0  0  0  0  0  0  0  0
   45.8236   26.8054   48.9492 H   0  0  0  0  0  0  0  0  0  0  0  0
   44.3652   25.8469   49.0564 H   0  0  0  0  0  0  0  0  0  0  0  0
   44.8884   25.8565   46.6594 H   0  0  0  0  0  0  0  0  0  0  0  0
   45.3726   27.5297   46.6443 H   0  0  0  0  0  0  0  0  0  0  0  0
  1  2  1  0
  1  5  2  0
  2  3  2  0
  3  4  1  0
  4 12  1  0
  5  4  1  0
  6  7  2  0
  8  7  1  0
  8  1  1  0
  9  8  2  0
 10 11  2  0
 10  9  1  0
 11  6  1  0
 12 13  1  0
 13 14  1  0
 14 18  1  0
 14 15  1  0
 15 16  1  0
 17 16  1  0
 18 17  1  0
  2 19  1  0
  3 20  1  0
  6 21  1  0
  7 22  1  0
 10 23  1  0
 12 24  1  0
 12 25  1  0
 13 26  1  0
 13 27  1  0
 14 28  1  0
 15 29  1  0
 15 30  1  0
 16 31  1  0
 16 32  1  0
 17 33  1  0
 17 34  1  0
 18 35  1  0
 18 36  1  0
M  ISO  8  19  14  20  14  21  14  22  14  23  14  24   8  25   8  26   8
M  ISO  8  27   8  28  13  29  13  30  13  31  13  32  13  33  13  34  13
M  ISO  2  35  13  36  13
M  END
>  <minimizedAffinity>  (1) 
-4.579

>  <minimizedRMSD>  (1) 
9.08938122

$$$$
