
     RDKit          3D

 39 42  0  0  0  0  0  0  0  0999 V2000
   38.7190   28.1560   42.7410 C   0  0  0  0  0  0  0  0  0  0  0  0
   37.6360   27.3280   42.8750 C   0  0  0  0  0  0  0  0  0  0  0  0
   36.5530   28.0010   42.3040 C   0  0  0  0  0  0  0  0  0  0  0  0
   37.0600   29.1760   41.8700 N   0  0  0  0  0  0  0  0  0  0  0  0
   38.3230   29.2800   42.1180 N   0  0  0  0  0  0  0  0  0  0  0  0
   41.6470   26.5400   44.3880 C   0  0  0  0  0  0  0  0  0  0  0  0
   40.3300   26.7340   43.9590 C   0  0  0  0  0  0  0  0  0  0  0  0
   40.0570   27.8860   43.2060 C   0  0  0  0  0  0  0  0  0  0  0  0
   41.0560   28.7670   42.9150 N   0  0  0  0  0  0  0  0  0  0  0  0
   42.3260   28.5170   43.3670 C   0  0  0  0  0  0  0  0  0  0  0  0
   42.6110   27.4230   44.0880 N   0  0  0  0  0  0  0  0  0  0  0  0
   36.1590   30.1020   41.2500 C   0  0  0  0  0  0  0  0  0  0  0  0
   35.3320   29.5430   40.1570 C   0  0  0  0  0  0  0  0  0  0  0  0
   35.8990   29.6780   38.7980 C   0  0  0  0  0  0  0  0  0  0  0  0
   37.1340   30.1510   38.4240 C   0  0  0  0  0  0  0  0  0  0  0  0
   37.5930   30.2670   37.1520 C   0  0  0  0  0  0  0  0  0  0  0  0
   36.7810   29.8880   36.1020 C   0  0  0  0  0  0  0  0  0  0  0  0
   35.5280   29.4020   36.4040 C   0  0  0  0  0  0  0  0  0  0  0  0
   34.7790   29.0320   35.3100 C   0  0  0  0  0  0  0  0  0  0  0  0
   33.5170   28.5230   35.5110 C   0  0  0  0  0  0  0  0  0  0  0  0
   33.0320   28.3960   36.7940 C   0  0  0  0  0  0  0  0  0  0  0  0
   33.8300   28.7820   37.8360 C   0  0  0  0  0  0  0  0  0  0  0  0
   35.1010   29.2990   37.7130 C   0  0  0  0  0  0  0  0  0  0  0  0
   37.6218   26.3312   43.3399 H   0  0  0  0  0  0  0  0  0  0  0  0
   35.5133   27.6505   42.2249 H   0  0  0  0  0  0  0  0  0  0  0  0
   41.8964   25.6481   44.9815 H   0  0  0  0  0  0  0  0  0  0  0  0
   39.5380   26.0106   44.2028 H   0  0  0  0  0  0  0  0  0  0  0  0
   43.1298   29.2305   43.1327 H   0  0  0  0  0  0  0  0  0  0  0  0
   35.4814   30.4882   42.0257 H   0  0  0  0  0  0  0  0  0  0  0  0
   36.7885   30.8776   40.7895 H   0  0  0  0  0  0  0  0  0  0  0  0
   35.1840   28.4717   40.3577 H   0  0  0  0  0  0  0  0  0  0  0  0
   34.3994   30.1262   40.1549 H   0  0  0  0  0  0  0  0  0  0  0  0
   37.8134   30.4646   39.2303 H   0  0  0  0  0  0  0  0  0  0  0  0
   38.6025   30.6593   36.9596 H   0  0  0  0  0  0  0  0  0  0  0  0
   37.1228   29.9712   35.0598 H   0  0  0  0  0  0  0  0  0  0  0  0
   35.1827   29.1415   34.2926 H   0  0  0  0  0  0  0  0  0  0  0  0
   32.8993   28.2194   34.6530 H   0  0  0  0  0  0  0  0  0  0  0  0
   32.0249   27.9930   36.9767 H   0  0  0  0  0  0  0  0  0  0  0  0
   33.4247   28.6707   38.8525 H   0  0  0  0  0  0  0  0  0  0  0  0
  1  2  1  0
  1  8  1  0
  3  2  2  0
  4  5  1  0
  4  3  1  0
  5  1  2  0
  7  6  2  0
  8  7  1  0
  9  8  2  0
  9 10  1  0
 10 11  2  0
 11  6  1  0
 12  4  1  0
 13 12  1  0
 14 13  1  0
 15 14  2  0
 16 15  1  0
 17 18  1  0
 17 16  2  0
 18 23  2  0
 19 20  2  0
 19 18  1  0
 20 21  1  0
 21 22  2  0
 23 22  1  0
 23 14  1  0
  2 24  1  0
  3 25  1  0
  6 26  1  0
  7 27  1  0
 10 28  1  0
 12 29  1  0
 12 30  1  0
 13 31  1  0
 13 32  1  0
 15 33  1  0
 16 34  1  0
 17 35  1  0
 19 36  1  0
 20 37  1  0
 21 38  1  0
 22 39  1  0
M  ISO  8  24  14  25  14  26  14  27  14  28  14  29   8  30   8  31   8
M  ISO  8  32   8  33  14  34  14  35  14  36  14  37  14  38  14  39  14
M  END
>  <minimizedAffinity>  (1) 
-5.63416958

>  <minimizedRMSD>  (1) 
1.74526346

$$$$
