
     RDKit          3D

 52 56  0  0  0  0  0  0  0  0999 V2000
   38.3640   29.7940   37.5480 C   0  0  0  0  0  0  0  0  0  0  0  0
   39.6250   30.3600   37.6670 C   0  0  0  0  0  0  0  0  0  0  0  0
   40.8200   29.7640   37.3980 C   0  0  0  0  0  0  0  0  0  0  0  0
   40.8290   28.4590   36.9590 C   0  0  0  0  0  0  0  0  0  0  0  0
   39.6060   27.8200   36.8160 C   0  0  0  0  0  0  0  0  0  0  0  0
   39.7100   26.5280   36.3790 C   0  0  0  0  0  0  0  0  0  0  0  0
   38.5530   25.8090   36.2080 C   0  0  0  0  0  0  0  0  0  0  0  0
   37.3310   26.4070   36.4810 C   0  0  0  0  0  0  0  0  0  0  0  0
   37.3130   27.7180   36.9180 C   0  0  0  0  0  0  0  0  0  0  0  0
   38.4300   28.4720   37.1020 C   0  0  0  0  0  0  0  0  0  0  0  0
   35.9510   28.0510   37.1340 N   0  0  0  0  0  0  0  0  0  0  0  0
   35.2180   28.6280   36.1110 C   0  0  0  0  0  0  0  0  0  0  0  0
   33.9250   29.0990   36.1170 C   0  0  0  0  0  0  0  0  0  0  0  0
   33.3380   29.6770   34.9080 C   0  0  0  0  0  0  0  0  0  0  0  0
   33.2760   28.9730   37.3220 C   0  0  0  0  0  0  0  0  0  0  0  0
   32.0990   29.3720   37.4260 O   0  0  0  0  0  0  0  0  0  0  0  0
   33.9150   28.4250   38.3650 N   0  0  0  0  0  0  0  0  0  0  0  0
   35.1780   27.9880   38.2840 C   0  0  0  0  0  0  0  0  0  0  0  0
   35.8340   27.4600   39.2480 O   0  0  0  0  0  0  0  0  0  0  0  0
   37.0610   30.4220   37.7940 C   0  0  0  0  0  0  0  0  0  0  0  0
   36.9780   31.1250   39.1370 C   0  0  0  0  0  0  0  0  0  0  0  0
   37.9700   28.8230   41.6340 C   0  0  0  0  0  0  0  0  0  0  0  0
   36.9260   29.4380   42.2500 C   0  0  0  0  0  0  0  0  0  0  0  0
   36.4350   30.3830   41.3500 C   0  0  0  0  0  0  0  0  0  0  0  0
   37.2240   30.2690   40.2470 N   0  0  0  0  0  0  0  0  0  0  0  0
   38.1070   29.3650   40.4220 N   0  0  0  0  0  0  0  0  0  0  0  0
   39.6780   26.5620   44.0470 C   0  0  0  0  0  0  0  0  0  0  0  0
   38.8530   27.5830   43.5840 C   0  0  0  0  0  0  0  0  0  0  0  0
   38.7970   27.7750   42.1870 C   0  0  0  0  0  0  0  0  0  0  0  0
   39.5280   26.9810   41.3370 N   0  0  0  0  0  0  0  0  0  0  0  0
   40.3140   26.0000   41.8910 C   0  0  0  0  0  0  0  0  0  0  0  0
   40.3870   25.7940   43.2250 N   0  0  0  0  0  0  0  0  0  0  0  0
   39.6641   31.4024   38.0162 H   0  0  0  0  0  0  0  0  0  0  0  0
   41.7623   30.3162   37.5293 H   0  0  0  0  0  0  0  0  0  0  0  0
   41.7723   27.9416   36.7298 H   0  0  0  0  0  0  0  0  0  0  0  0
   40.6920   26.0782   36.1707 H   0  0  0  0  0  0  0  0  0  0  0  0
   38.5944   24.7672   35.8574 H   0  0  0  0  0  0  0  0  0  0  0  0
   36.3929   25.8473   36.3518 H   0  0  0  0  0  0  0  0  0  0  0  0
   35.7474   28.7242   35.1516 H   0  0  0  0  0  0  0  0  0  0  0  0
   32.5802   30.4232   35.1890 H   0  0  0  0  0  0  0  0  0  0  0  0
   34.1264   30.1612   34.3130 H   0  0  0  0  0  0  0  0  0  0  0  0
   32.8661   28.8812   34.3130 H   0  0  0  0  0  0  0  0  0  0  0  0
   33.4161   28.3368   39.2618 H   0  0  0  0  0  0  0  0  0  0  0  0
   36.8741   31.1609   37.0008 H   0  0  0  0  0  0  0  0  0  0  0  0
   36.3081   29.6200   37.7986 H   0  0  0  0  0  0  0  0  0  0  0  0
   37.7221   31.9350   39.1515 H   0  0  0  0  0  0  0  0  0  0  0  0
   35.9487   31.4987   39.2412 H   0  0  0  0  0  0  0  0  0  0  0  0
   36.5435   29.2308   43.2603 H   0  0  0  0  0  0  0  0  0  0  0  0
   35.5911   31.0726   41.4994 H   0  0  0  0  0  0  0  0  0  0  0  0
   39.7458   26.3843   45.1304 H   0  0  0  0  0  0  0  0  0  0  0  0
   38.2716   28.2111   44.2750 H   0  0  0  0  0  0  0  0  0  0  0  0
   40.9068   25.3574   41.2234 H   0  0  0  0  0  0  0  0  0  0  0  0
  1  2  2  0
  1 20  1  0
  3  2  1  0
  4  3  2  0
  5  4  1  0
  5 10  2  0
  6  5  1  0
  7  6  2  0
  7  8  1  0
  8  9  2  0
  9 10  1  0
  9 11  1  0
 10  1  1  0
 11 18  1  0
 12 13  2  0
 12 11  1  0
 13 15  1  0
 14 13  1  0
 15 16  2  0
 15 17  1  0
 18 17  1  0
 18 19  2  0
 20 21  1  0
 21 25  1  0
 22 29  1  0
 22 23  1  0
 24 23  2  0
 25 26  1  0
 25 24  1  0
 26 22  2  0
 28 27  2  0
 29 28  1  0
 30 31  1  0
 30 29  2  0
 31 32  2  0
 32 27  1  0
  2 33  1  0
  3 34  1  0
  4 35  1  0
  6 36  1  0
  7 37  1  0
  8 38  1  0
 12 39  1  0
 14 40  1  0
 14 41  1  0
 14 42  1  0
 17 43  1  0
 20 44  1  0
 20 45  1  0
 21 46  1  0
 21 47  1  0
 23 48  1  0
 24 49  1  0
 27 50  1  0
 28 51  1  0
 31 52  1  0
M  ISO  8  33  14  34  14  35  14  36  14  37  14  38  14  39  14  40   8
M  ISO  8  41   8  42   8  43   9  44   8  45   8  46   8  47   8  48  14
M  ISO  4  49  14  50  14  51  14  52  14
M  END
>  <minimizedAffinity>  (1) 
-5.52027702

>  <minimizedRMSD>  (1) 
3.61047411

$$$$
