
     RDKit          3D

 46 50  0  0  0  0  0  0  0  0999 V2000
   35.6480   29.0190   39.6580 C   0  0  0  0  0  0  0  0  0  0  0  0
   36.3870   29.8860   38.7350 C   0  0  0  0  0  0  0  0  0  0  0  0
   37.1460   31.0020   38.9870 C   0  0  0  0  0  0  0  0  0  0  0  0
   37.7260   31.8310   38.0950 C   0  0  0  0  0  0  0  0  0  0  0  0
   37.5710   31.5730   36.7610 C   0  0  0  0  0  0  0  0  0  0  0  0
   36.8210   30.4650   36.3920 C   0  0  0  0  0  0  0  0  0  0  0  0
   36.6980   30.2780   35.0520 C   0  0  0  0  0  0  0  0  0  0  0  0
   35.9610   29.2140   34.6000 C   0  0  0  0  0  0  0  0  0  0  0  0
   35.3760   28.3720   35.5000 C   0  0  0  0  0  0  0  0  0  0  0  0
   35.5260   28.5940   36.8660 C   0  0  0  0  0  0  0  0  0  0  0  0
   36.2470   29.6440   37.3590 C   0  0  0  0  0  0  0  0  0  0  0  0
   34.8890   27.5670   37.7260 C   0  0  0  0  0  0  0  0  0  0  0  0
   35.5120   26.1430   37.7280 C   0  0  0  0  0  0  0  0  0  0  0  0
   34.1800   26.3730   37.2810 C   0  0  0  0  0  0  0  0  0  0  0  0
   35.7880   29.4660   41.1040 C   0  0  0  0  0  0  0  0  0  0  0  0
   38.5110   27.9480   42.7770 C   0  0  0  0  0  0  0  0  0  0  0  0
   37.4780   27.1200   43.1380 C   0  0  0  0  0  0  0  0  0  0  0  0
   36.3340   27.6260   42.5290 C   0  0  0  0  0  0  0  0  0  0  0  0
   36.7680   28.7230   41.8460 N   0  0  0  0  0  0  0  0  0  0  0  0
   38.0230   28.9130   41.9860 N   0  0  0  0  0  0  0  0  0  0  0  0
   41.6400   26.6670   44.3510 C   0  0  0  0  0  0  0  0  0  0  0  0
   40.2880   26.7290   43.9730 C   0  0  0  0  0  0  0  0  0  0  0  0
   39.8920   27.8180   43.1840 C   0  0  0  0  0  0  0  0  0  0  0  0
   40.7960   28.7680   42.8070 N   0  0  0  0  0  0  0  0  0  0  0  0
   42.0950   28.6440   43.2110 C   0  0  0  0  0  0  0  0  0  0  0  0
   42.5110   27.6080   43.9720 N   0  0  0  0  0  0  0  0  0  0  0  0
   36.0339   27.9931   39.5657 H   0  0  0  0  0  0  0  0  0  0  0  0
   34.5824   29.0722   39.3903 H   0  0  0  0  0  0  0  0  0  0  0  0
   37.3001   31.2508   40.0474 H   0  0  0  0  0  0  0  0  0  0  0  0
   38.3123   32.6978   38.4340 H   0  0  0  0  0  0  0  0  0  0  0  0
   38.0278   32.2251   36.0020 H   0  0  0  0  0  0  0  0  0  0  0  0
   37.1805   30.9671   34.3433 H   0  0  0  0  0  0  0  0  0  0  0  0
   35.8423   29.0406   33.5203 H   0  0  0  0  0  0  0  0  0  0  0  0
   34.7842   27.5153   35.1453 H   0  0  0  0  0  0  0  0  0  0  0  0
   34.6205   28.3807   38.4157 H   0  0  0  0  0  0  0  0  0  0  0  0
   36.3012   25.8823   37.0075 H   0  0  0  0  0  0  0  0  0  0  0  0
   35.9897   25.4942   38.4769 H   0  0  0  0  0  0  0  0  0  0  0  0
   33.3409   25.9938   37.8828 H   0  0  0  0  0  0  0  0  0  0  0  0
   33.6530   26.1231   36.3484 H   0  0  0  0  0  0  0  0  0  0  0  0
   36.0770   30.5273   41.1129 H   0  0  0  0  0  0  0  0  0  0  0  0
   34.8167   29.2912   41.5898 H   0  0  0  0  0  0  0  0  0  0  0  0
   37.5419   26.2308   43.7824 H   0  0  0  0  0  0  0  0  0  0  0  0
   35.3094   27.2298   42.5859 H   0  0  0  0  0  0  0  0  0  0  0  0
   41.9886   25.8278   44.9709 H   0  0  0  0  0  0  0  0  0  0  0  0
   39.5703   25.9553   44.2833 H   0  0  0  0  0  0  0  0  0  0  0  0
   42.8238   29.4101   42.9078 H   0  0  0  0  0  0  0  0  0  0  0  0
  1 15  1  0
  2  3  2  0
  2  1  1  0
  4  3  1  0
  5  4  2  0
  6  5  1  0
  6 11  2  0
  7  6  1  0
  8  7  2  0
  8  9  1  0
  9 10  2  0
 10 11  1  0
 10 12  1  0
 11  2  1  0
 12 13  1  0
 14 12  1  0
 14 13  1  0
 15 19  1  0
 16 17  1  0
 16 23  1  0
 18 17  2  0
 19 20  1  0
 19 18  1  0
 20 16  2  0
 22 21  2  0
 23 22  1  0
 24 23  2  0
 24 25  1  0
 25 26  2  0
 26 21  1  0
  1 27  1  0
  1 28  1  0
  3 29  1  0
  4 30  1  0
  5 31  1  0
  7 32  1  0
  8 33  1  0
  9 34  1  0
 12 35  1  0
 13 36  1  0
 13 37  1  0
 14 38  1  0
 14 39  1  0
 15 40  1  0
 15 41  1  0
 17 42  1  0
 18 43  1  0
 21 44  1  0
 22 45  1  0
 25 46  1  0
M  ISO  8  27   8  28   8  29  14  30  14  31  14  32  14  33  14  34  14
M  ISO  8  35  13  36  13  37  13  38  13  39  13  40   8  41   8  42  14
M  ISO  4  43  14  44  14  45  14  46  14
M  END
>  <minimizedAffinity>  (1) 
-5.51507187

>  <minimizedRMSD>  (1) 
1.84362888

$$$$
