
     RDKit          3D

 42 45  0  0  0  0  0  0  0  0999 V2000
   35.3760   29.5600   40.0900 C   0  0  0  0  0  0  0  0  0  0  0  0
   36.0420   29.4250   38.7900 C   0  0  0  0  0  0  0  0  0  0  0  0
   37.3840   29.4980   38.4660 C   0  0  0  0  0  0  0  0  0  0  0  0
   37.9450   29.4470   37.2340 C   0  0  0  0  0  0  0  0  0  0  0  0
   37.1190   29.3050   36.1550 C   0  0  0  0  0  0  0  0  0  0  0  0
   35.7650   29.2220   36.3680 C   0  0  0  0  0  0  0  0  0  0  0  0
   35.0010   29.1240   35.2480 C   0  0  0  0  0  0  0  0  0  0  0  0
   33.6500   29.0750   35.3480 C   0  0  0  0  0  0  0  0  0  0  0  0
   33.0820   29.1230   36.5900 C   0  0  0  0  0  0  0  0  0  0  0  0
   33.8660   29.2200   37.7490 C   0  0  0  0  0  0  0  0  0  0  0  0
   35.2300   29.2770   37.6510 C   0  0  0  0  0  0  0  0  0  0  0  0
   33.1070   29.2160   39.0180 C   0  0  0  0  0  0  0  0  0  0  0  0
   36.2830   30.2390   41.1160 C   0  0  0  0  0  0  0  0  0  0  0  0
   38.7310   28.2430   42.7120 C   0  0  0  0  0  0  0  0  0  0  0  0
   37.6110   27.4670   42.8470 C   0  0  0  0  0  0  0  0  0  0  0  0
   36.5700   28.1690   42.2510 C   0  0  0  0  0  0  0  0  0  0  0  0
   37.1490   29.3200   41.8000 N   0  0  0  0  0  0  0  0  0  0  0  0
   38.3940   29.3640   42.0640 N   0  0  0  0  0  0  0  0  0  0  0  0
   41.5920   26.5150   44.3770 C   0  0  0  0  0  0  0  0  0  0  0  0
   40.2820   26.7580   43.9290 C   0  0  0  0  0  0  0  0  0  0  0  0
   40.0620   27.9320   43.1890 C   0  0  0  0  0  0  0  0  0  0  0  0
   41.0900   28.7860   42.9240 N   0  0  0  0  0  0  0  0  0  0  0  0
   42.3440   28.4910   43.3890 C   0  0  0  0  0  0  0  0  0  0  0  0
   42.5850   27.3710   44.1050 N   0  0  0  0  0  0  0  0  0  0  0  0
   35.1055   28.5595   40.4587 H   0  0  0  0  0  0  0  0  0  0  0  0
   34.4796   30.1833   39.9556 H   0  0  0  0  0  0  0  0  0  0  0  0
   38.0801   29.6111   39.3102 H   0  0  0  0  0  0  0  0  0  0  0  0
   39.0352   29.5179   37.1059 H   0  0  0  0  0  0  0  0  0  0  0  0
   37.5304   29.2581   35.1359 H   0  0  0  0  0  0  0  0  0  0  0  0
   35.4800   29.0844   34.2585 H   0  0  0  0  0  0  0  0  0  0  0  0
   33.0233   28.9981   34.4472 H   0  0  0  0  0  0  0  0  0  0  0  0
   31.9866   29.0847   36.6828 H   0  0  0  0  0  0  0  0  0  0  0  0
   33.8088   29.2197   39.8650 H   0  0  0  0  0  0  0  0  0  0  0  0
   32.4690   30.1108   39.0665 H   0  0  0  0  0  0  0  0  0  0  0  0
   32.4785   28.3145   39.0665 H   0  0  0  0  0  0  0  0  0  0  0  0
   36.9037   30.9834   40.5958 H   0  0  0  0  0  0  0  0  0  0  0  0
   35.6323   30.7009   41.8731 H   0  0  0  0  0  0  0  0  0  0  0  0
   37.5476   26.4817   43.3319 H   0  0  0  0  0  0  0  0  0  0  0  0
   35.5164   27.8654   42.1626 H   0  0  0  0  0  0  0  0  0  0  0  0
   41.8048   25.6070   44.9604 H   0  0  0  0  0  0  0  0  0  0  0  0
   39.4626   26.0577   44.1487 H   0  0  0  0  0  0  0  0  0  0  0  0
   43.1733   29.1812   43.1748 H   0  0  0  0  0  0  0  0  0  0  0  0
  1 13  1  0
  2  1  1  0
  3  2  2  0
  4  3  1  0
  5  6  1  0
  5  4  2  0
  6 11  2  0
  7  8  2  0
  7  6  1  0
  8  9  1  0
  9 10  2  0
 10 12  1  0
 11 10  1  0
 11  2  1  0
 13 17  1  0
 14 15  1  0
 14 21  1  0
 16 15  2  0
 17 18  1  0
 17 16  1  0
 18 14  2  0
 20 19  2  0
 21 20  1  0
 22 21  2  0
 22 23  1  0
 23 24  2  0
 24 19  1  0
  1 25  1  0
  1 26  1  0
  3 27  1  0
  4 28  1  0
  5 29  1  0
  7 30  1  0
  8 31  1  0
  9 32  1  0
 12 33  1  0
 12 34  1  0
 12 35  1  0
 13 36  1  0
 13 37  1  0
 15 38  1  0
 16 39  1  0
 19 40  1  0
 20 41  1  0
 23 42  1  0
M  ISO  8  25   8  26   8  27  14  28  14  29  14  30  14  31  14  32  14
M  ISO  8  33   8  34   8  35   8  36   8  37   8  38  14  39  14  40  14
M  ISO  2  41  14  42  14
M  END
>  <minimizedAffinity>  (1) 
-5.40220976

>  <minimizedRMSD>  (1) 
0.395351917

$$$$
