
     RDKit          3D

 53 57  0  0  0  0  0  0  0  0999 V2000
   35.9880   29.9870   40.9460 C   0  0  0  0  0  0  0  0  0  0  0  0
   38.4380   28.0920   42.6150 C   0  0  0  0  0  0  0  0  0  0  0  0
   37.3570   27.2580   42.7040 C   0  0  0  0  0  0  0  0  0  0  0  0
   36.2990   27.9100   42.0640 C   0  0  0  0  0  0  0  0  0  0  0  0
   36.8210   29.0670   41.6470 N   0  0  0  0  0  0  0  0  0  0  0  0
   38.0690   29.2110   41.9500 N   0  0  0  0  0  0  0  0  0  0  0  0
   41.3810   26.4090   44.1570 C   0  0  0  0  0  0  0  0  0  0  0  0
   40.0820   26.5850   43.6690 C   0  0  0  0  0  0  0  0  0  0  0  0
   39.7680   27.8590   43.1300 C   0  0  0  0  0  0  0  0  0  0  0  0
   40.7090   28.8300   43.1060 N   0  0  0  0  0  0  0  0  0  0  0  0
   41.9620   28.5830   43.6040 C   0  0  0  0  0  0  0  0  0  0  0  0
   42.2830   27.3930   44.1170 N   0  0  0  0  0  0  0  0  0  0  0  0
   42.9150   29.6420   43.5550 N   0  0  0  0  0  0  0  0  0  0  0  0
   42.8990   30.6440   42.5400 C   0  0  0  0  0  0  0  0  0  0  0  0
   43.4800   31.9610   42.9350 C   0  0  0  0  0  0  0  0  0  0  0  0
   44.3880   31.9130   43.9650 O   0  0  0  0  0  0  0  0  0  0  0  0
   43.9820   31.1570   45.0430 C   0  0  0  0  0  0  0  0  0  0  0  0
   43.9410   29.7170   44.5610 C   0  0  0  0  0  0  0  0  0  0  0  0
   35.1370   29.3970   39.8660 C   0  0  0  0  0  0  0  0  0  0  0  0
   35.7740   29.3570   38.5340 C   0  0  0  0  0  0  0  0  0  0  0  0
   37.1020   29.4930   38.2370 C   0  0  0  0  0  0  0  0  0  0  0  0
   37.6500   29.5250   36.9890 C   0  0  0  0  0  0  0  0  0  0  0  0
   36.8240   29.4130   35.8900 C   0  0  0  0  0  0  0  0  0  0  0  0
   35.4730   29.2720   36.1190 C   0  0  0  0  0  0  0  0  0  0  0  0
   34.6950   29.1700   34.9870 C   0  0  0  0  0  0  0  0  0  0  0  0
   33.3520   29.0300   35.1120 C   0  0  0  0  0  0  0  0  0  0  0  0
   32.7700   28.9860   36.3550 C   0  0  0  0  0  0  0  0  0  0  0  0
   33.5970   29.0910   37.4450 C   0  0  0  0  0  0  0  0  0  0  0  0
   34.9430   29.2390   37.4100 C   0  0  0  0  0  0  0  0  0  0  0  0
   32.9620   29.0230   38.6800 O   0  0  0  0  0  0  0  0  0  0  0  0
   35.3213   30.4654   41.6785 H   0  0  0  0  0  0  0  0  0  0  0  0
   36.6709   30.6866   40.4418 H   0  0  0  0  0  0  0  0  0  0  0  0
   37.3265   26.2690   43.1846 H   0  0  0  0  0  0  0  0  0  0  0  0
   35.2676   27.5509   41.9330 H   0  0  0  0  0  0  0  0  0  0  0  0
   41.6666   25.4364   44.5841 H   0  0  0  0  0  0  0  0  0  0  0  0
   39.3394   25.7742   43.7016 H   0  0  0  0  0  0  0  0  0  0  0  0
   41.8531   30.8095   42.2422 H   0  0  0  0  0  0  0  0  0  0  0  0
   43.5337   30.2631   41.7263 H   0  0  0  0  0  0  0  0  0  0  0  0
   43.9846   32.3881   42.0558 H   0  0  0  0  0  0  0  0  0  0  0  0
   42.6387   32.5703   43.2970 H   0  0  0  0  0  0  0  0  0  0  0  0
   44.6971   31.2611   45.8724 H   0  0  0  0  0  0  0  0  0  0  0  0
   42.9990   31.4833   45.4133 H   0  0  0  0  0  0  0  0  0  0  0  0
   43.7002   29.0448   45.3977 H   0  0  0  0  0  0  0  0  0  0  0  0
   44.9155   29.4104   44.1531 H   0  0  0  0  0  0  0  0  0  0  0  0
   34.8811   28.3669   40.1550 H   0  0  0  0  0  0  0  0  0  0  0  0
   34.2568   30.0498   39.7711 H   0  0  0  0  0  0  0  0  0  0  0  0
   37.7945   29.5855   39.0866 H   0  0  0  0  0  0  0  0  0  0  0  0
   38.7365   29.6386   36.8602 H   0  0  0  0  0  0  0  0  0  0  0  0
   37.2295   29.4355   34.8677 H   0  0  0  0  0  0  0  0  0  0  0  0
   35.1591   29.2018   33.9902 H   0  0  0  0  0  0  0  0  0  0  0  0
   32.7247   28.9512   34.2118 H   0  0  0  0  0  0  0  0  0  0  0  0
   31.6824   28.8710   36.4725 H   0  0  0  0  0  0  0  0  0  0  0  0
   33.4919   29.0911   39.5135 H   0  0  0  0  0  0  0  0  0  0  0  0
  1  5  1  0
  2  3  1  0
  2  9  1  0
  4  3  2  0
  5  6  1  0
  5  4  1  0
  6  2  2  0
  8  7  2  0
  9  8  1  0
 10  9  2  0
 10 11  1  0
 11 12  2  0
 12  7  1  0
 13 11  1  0
 13 18  1  0
 14 15  1  0
 14 13  1  0
 15 16  1  0
 16 17  1  0
 18 17  1  0
 19  1  1  0
 20 19  1  0
 21 20  2  0
 22 21  1  0
 23 24  1  0
 23 22  2  0
 24 29  2  0
 25 26  2  0
 25 24  1  0
 26 27  1  0
 27 28  2  0
 28 30  1  0
 29 28  1  0
 29 20  1  0
  1 31  1  0
  1 32  1  0
  3 33  1  0
  4 34  1  0
  7 35  1  0
  8 36  1  0
 14 37  1  0
 14 38  1  0
 15 39  1  0
 15 40  1  0
 17 41  1  0
 17 42  1  0
 18 43  1  0
 18 44  1  0
 19 45  1  0
 19 46  1  0
 21 47  1  0
 22 48  1  0
 23 49  1  0
 25 50  1  0
 26 51  1  0
 27 52  1  0
 30 53  1  0
M  ISO  8  31   8  32   8  33  14  34  14  35  14  36  14  37  13  38  13
M  ISO  8  39  13  40  13  41  13  42  13  43  13  44  13  45   8  46   8
M  ISO  7  47  14  48  14  49  14  50  14  51  14  52  14  53   3
M  END
>  <minimizedAffinity>  (1) 
-6.41489983

>  <minimizedRMSD>  (1) 
0.543085694

$$$$
