
     RDKit          3D

 49 53  0  0  0  0  0  0  0  0999 V2000
   36.1740   30.0750   41.1250 C   0  0  0  0  0  0  0  0  0  0  0  0
   38.6310   28.1240   42.7050 C   0  0  0  0  0  0  0  0  0  0  0  0
   37.5420   27.2990   42.8090 C   0  0  0  0  0  0  0  0  0  0  0  0
   36.4770   27.9740   42.2030 C   0  0  0  0  0  0  0  0  0  0  0  0
   37.0040   29.1370   41.7880 N   0  0  0  0  0  0  0  0  0  0  0  0
   38.2630   29.2620   42.0630 N   0  0  0  0  0  0  0  0  0  0  0  0
   41.5670   26.4270   44.2450 C   0  0  0  0  0  0  0  0  0  0  0  0
   40.2570   26.6250   43.7940 C   0  0  0  0  0  0  0  0  0  0  0  0
   39.9680   27.8610   43.1880 C   0  0  0  0  0  0  0  0  0  0  0  0
   40.9360   28.7840   43.0690 N   0  0  0  0  0  0  0  0  0  0  0  0
   42.2010   28.5360   43.5290 C   0  0  0  0  0  0  0  0  0  0  0  0
   42.5060   27.3670   44.1100 N   0  0  0  0  0  0  0  0  0  0  0  0
   43.2200   29.5690   43.3770 C   0  0  0  0  0  0  0  0  0  0  0  0
   42.9190   30.8910   43.6300 C   0  0  0  0  0  0  0  0  0  0  0  0
   43.9100   31.8410   43.4750 C   0  0  0  0  0  0  0  0  0  0  0  0
   45.1760   31.4530   43.0720 C   0  0  0  0  0  0  0  0  0  0  0  0
   45.4560   30.1110   42.8220 C   0  0  0  0  0  0  0  0  0  0  0  0
   44.4580   29.2340   42.9880 N   0  0  0  0  0  0  0  0  0  0  0  0
   35.2780   29.5190   40.0650 C   0  0  0  0  0  0  0  0  0  0  0  0
   35.8900   29.4320   38.7160 C   0  0  0  0  0  0  0  0  0  0  0  0
   37.2070   29.5660   38.3910 C   0  0  0  0  0  0  0  0  0  0  0  0
   37.7260   29.5450   37.1300 C   0  0  0  0  0  0  0  0  0  0  0  0
   36.8800   29.3770   36.0550 C   0  0  0  0  0  0  0  0  0  0  0  0
   35.5280   29.2340   36.3190 C   0  0  0  0  0  0  0  0  0  0  0  0
   34.7340   29.0730   35.2100 C   0  0  0  0  0  0  0  0  0  0  0  0
   33.3860   28.9220   35.3620 C   0  0  0  0  0  0  0  0  0  0  0  0
   32.8420   28.9300   36.6290 C   0  0  0  0  0  0  0  0  0  0  0  0
   33.6880   29.0940   37.6880 C   0  0  0  0  0  0  0  0  0  0  0  0
   35.0300   29.2560   37.6170 C   0  0  0  0  0  0  0  0  0  0  0  0
   33.0840   29.0770   38.9390 O   0  0  0  0  0  0  0  0  0  0  0  0
   35.5400   30.5588   41.8826 H   0  0  0  0  0  0  0  0  0  0  0  0
   36.8576   30.7632   40.6063 H   0  0  0  0  0  0  0  0  0  0  0  0
   37.5112   26.3036   43.2762 H   0  0  0  0  0  0  0  0  0  0  0  0
   35.4386   27.6286   42.0913 H   0  0  0  0  0  0  0  0  0  0  0  0
   41.8301   25.4720   44.7233 H   0  0  0  0  0  0  0  0  0  0  0  0
   39.4869   25.8479   43.9085 H   0  0  0  0  0  0  0  0  0  0  0  0
   41.9079   31.1837   43.9495 H   0  0  0  0  0  0  0  0  0  0  0  0
   43.6938   32.9016   43.6711 H   0  0  0  0  0  0  0  0  0  0  0  0
   45.9659   32.2085   42.9483 H   0  0  0  0  0  0  0  0  0  0  0  0
   46.4565   29.7853   42.5012 H   0  0  0  0  0  0  0  0  0  0  0  0
   34.9752   28.5063   40.3694 H   0  0  0  0  0  0  0  0  0  0  0  0
   34.4322   30.2167   39.9770 H   0  0  0  0  0  0  0  0  0  0  0  0
   37.9155   29.7036   39.2212 H   0  0  0  0  0  0  0  0  0  0  0  0
   38.8085   29.6609   36.9725 H   0  0  0  0  0  0  0  0  0  0  0  0
   37.2647   29.3572   35.0247 H   0  0  0  0  0  0  0  0  0  0  0  0
   35.1817   29.0658   34.2053 H   0  0  0  0  0  0  0  0  0  0  0  0
   32.7392   28.7950   34.4814 H   0  0  0  0  0  0  0  0  0  0  0  0
   31.7595   28.8080   36.7819 H   0  0  0  0  0  0  0  0  0  0  0  0
   33.6328   29.1898   39.7552 H   0  0  0  0  0  0  0  0  0  0  0  0
  1  5  1  0
  2  3  1  0
  2  9  1  0
  4  3  2  0
  5  6  1  0
  5  4  1  0
  6  2  2  0
  8  7  2  0
  9  8  1  0
 10  9  2  0
 10 11  1  0
 11 12  2  0
 12  7  1  0
 13 11  1  0
 13 14  2  0
 15 14  1  0
 16 15  2  0
 17 18  2  0
 17 16  1  0
 18 13  1  0
 19  1  1  0
 20 19  1  0
 21 20  2  0
 22 21  1  0
 23 24  1  0
 23 22  2  0
 24 29  2  0
 25 26  2  0
 25 24  1  0
 26 27  1  0
 27 28  2  0
 28 30  1  0
 29 28  1  0
 29 20  1  0
  1 31  1  0
  1 32  1  0
  3 33  1  0
  4 34  1  0
  7 35  1  0
  8 36  1  0
 14 37  1  0
 15 38  1  0
 16 39  1  0
 17 40  1  0
 19 41  1  0
 19 42  1  0
 21 43  1  0
 22 44  1  0
 23 45  1  0
 25 46  1  0
 26 47  1  0
 27 48  1  0
 30 49  1  0
M  ISO  8  31   8  32   8  33  14  34  14  35  14  36  14  37  14  38  14
M  ISO  8  39  14  40  14  41   8  42   8  43  14  44  14  45  14  46  14
M  ISO  3  47  14  48  14  49   3
M  END
>  <minimizedAffinity>  (1) 
-6.09833241

>  <minimizedRMSD>  (1) 
0.290044755

$$$$
