
     RDKit          3D

 47 51  0  0  0  0  0  0  0  0999 V2000
   35.1520   29.4040   39.8710 C   0  0  0  0  0  0  0  0  0  0  0  0
   35.7790   29.3640   38.5270 C   0  0  0  0  0  0  0  0  0  0  0  0
   37.1040   29.5020   38.2280 C   0  0  0  0  0  0  0  0  0  0  0  0
   37.6420   29.5340   36.9750 C   0  0  0  0  0  0  0  0  0  0  0  0
   36.8060   29.4200   35.8790 C   0  0  0  0  0  0  0  0  0  0  0  0
   35.4570   29.2770   36.1210 C   0  0  0  0  0  0  0  0  0  0  0  0
   34.6710   29.1730   34.9950 C   0  0  0  0  0  0  0  0  0  0  0  0
   33.3210   29.0270   35.1280 C   0  0  0  0  0  0  0  0  0  0  0  0
   32.7570   28.9840   36.3790 C   0  0  0  0  0  0  0  0  0  0  0  0
   33.5950   29.0920   37.4640 C   0  0  0  0  0  0  0  0  0  0  0  0
   34.9400   29.2450   37.4150 C   0  0  0  0  0  0  0  0  0  0  0  0
   32.9700   29.0220   38.7040 O   0  0  0  0  0  0  0  0  0  0  0  0
   36.0050   30.0090   40.9430 C   0  0  0  0  0  0  0  0  0  0  0  0
   38.4680   28.1430   42.6150 C   0  0  0  0  0  0  0  0  0  0  0  0
   37.3850   27.3090   42.7350 C   0  0  0  0  0  0  0  0  0  0  0  0
   36.3210   27.9510   42.0950 C   0  0  0  0  0  0  0  0  0  0  0  0
   36.8400   29.1010   41.6490 N   0  0  0  0  0  0  0  0  0  0  0  0
   38.0970   29.2480   41.9350 N   0  0  0  0  0  0  0  0  0  0  0  0
   41.3800   26.5380   44.3050 C   0  0  0  0  0  0  0  0  0  0  0  0
   40.0750   26.7220   43.8280 C   0  0  0  0  0  0  0  0  0  0  0  0
   39.8010   27.9030   43.1260 C   0  0  0  0  0  0  0  0  0  0  0  0
   40.7850   28.8240   42.9300 N   0  0  0  0  0  0  0  0  0  0  0  0
   42.0400   28.5910   43.4200 C   0  0  0  0  0  0  0  0  0  0  0  0
   42.3240   27.4590   44.0980 N   0  0  0  0  0  0  0  0  0  0  0  0
   43.0730   29.6360   43.1730 C   0  0  0  0  0  0  0  0  0  0  0  0
   43.4930   30.4880   44.3730 C   0  0  0  0  0  0  0  0  0  0  0  0
   42.7080   31.0910   43.2190 C   0  0  0  0  0  0  0  0  0  0  0  0
   34.9105   28.3725   40.1670 H   0  0  0  0  0  0  0  0  0  0  0  0
   34.2648   30.0479   39.7803 H   0  0  0  0  0  0  0  0  0  0  0  0
   37.8006   29.5959   39.0741 H   0  0  0  0  0  0  0  0  0  0  0  0
   38.7273   29.6490   36.8378 H   0  0  0  0  0  0  0  0  0  0  0  0
   37.2029   29.4426   34.8533 H   0  0  0  0  0  0  0  0  0  0  0  0
   35.1284   29.2074   33.9952 H   0  0  0  0  0  0  0  0  0  0  0  0
   32.6853   28.9439   34.2341 H   0  0  0  0  0  0  0  0  0  0  0  0
   31.6710   28.8671   36.5091 H   0  0  0  0  0  0  0  0  0  0  0  0
   33.5063   29.0918   39.5333 H   0  0  0  0  0  0  0  0  0  0  0  0
   36.6496   30.7675   40.4748 H   0  0  0  0  0  0  0  0  0  0  0  0
   35.3068   30.4175   41.6884 H   0  0  0  0  0  0  0  0  0  0  0  0
   37.3592   26.3298   43.2354 H   0  0  0  0  0  0  0  0  0  0  0  0
   35.2876   27.5912   41.9830 H   0  0  0  0  0  0  0  0  0  0  0  0
   41.6302   25.6208   44.8583 H   0  0  0  0  0  0  0  0  0  0  0  0
   39.2941   25.9663   43.9987 H   0  0  0  0  0  0  0  0  0  0  0  0
   43.5780   29.0069   42.4252 H   0  0  0  0  0  0  0  0  0  0  0  0
   43.0123   30.3403   45.3513 H   0  0  0  0  0  0  0  0  0  0  0  0
   44.4429   30.7157   44.8788 H   0  0  0  0  0  0  0  0  0  0  0  0
   43.1974   31.8002   42.5352 H   0  0  0  0  0  0  0  0  0  0  0  0
   41.7670   31.6546   43.1356 H   0  0  0  0  0  0  0  0  0  0  0  0
  1 13  1  0
  2  1  1  0
  3  2  2  0
  4  3  1  0
  5  6  1  0
  5  4  2  0
  6 11  2  0
  7  8  2  0
  7  6  1  0
  8  9  1  0
  9 10  2  0
 10 12  1  0
 11 10  1  0
 11  2  1  0
 13 17  1  0
 14 15  1  0
 14 21  1  0
 16 15  2  0
 17 18  1  0
 17 16  1  0
 18 14  2  0
 20 19  2  0
 21 20  1  0
 22 21  2  0
 22 23  1  0
 23 24  2  0
 24 19  1  0
 25 27  1  0
 25 23  1  0
 25 26  1  0
 27 26  1  0
  1 28  1  0
  1 29  1  0
  3 30  1  0
  4 31  1  0
  5 32  1  0
  7 33  1  0
  8 34  1  0
  9 35  1  0
 12 36  1  0
 13 37  1  0
 13 38  1  0
 15 39  1  0
 16 40  1  0
 19 41  1  0
 20 42  1  0
 25 43  1  0
 26 44  1  0
 26 45  1  0
 27 46  1  0
 27 47  1  0
M  ISO  8  28   8  29   8  30  14  31  14  32  14  33  14  34  14  35  14
M  ISO  8  36   3  37   8  38   8  39  14  40  14  41  14  42  14  43  13
M  ISO  4  44  13  45  13  46  13  47  13
M  END
>  <minimizedAffinity>  (1) 
-6.04329062

>  <minimizedRMSD>  (1) 
0.529361784

$$$$
