
     RDKit          3D

 43 47  0  0  1  0  0  0  0  0999 V2000
   36.8540   28.1600   39.4260 N   0  0  0  0  0  0  0  0  0  0  0  0
   37.2110   27.7800   38.0420 C   0  0  0  0  0  0  0  0  0  0  0  0
   35.9160   27.0620   37.6970 C   0  0  0  0  0  0  0  0  0  0  0  0
   35.8710   26.1020   38.8810 C   0  0  0  0  0  0  0  0  0  0  0  0
   36.5970   26.8230   39.9760 C   0  0  1  0  0  0  0  0  0  0  0  0
   37.8340   26.0890   40.3080 C   0  0  0  0  0  0  0  0  0  0  0  0
   38.5320   25.2200   39.5580 N   0  0  0  0  0  0  0  0  0  0  0  0
   39.6460   24.6150   39.9320 C   0  0  0  0  0  0  0  0  0  0  0  0
   40.1870   24.8290   41.1310 N   0  0  0  0  0  0  0  0  0  0  0  0
   39.5630   25.6940   41.9780 C   0  0  0  0  0  0  0  0  0  0  0  0
   40.1640   25.8740   43.2000 C   0  0  0  0  0  0  0  0  0  0  0  0
   39.5760   26.7310   44.0930 C   0  0  0  0  0  0  0  0  0  0  0  0
   38.3980   27.3880   43.7350 C   0  0  0  0  0  0  0  0  0  0  0  0
   37.8610   27.1550   42.4940 C   0  0  0  0  0  0  0  0  0  0  0  0
   38.3870   26.3160   41.5520 C   0  0  0  0  0  0  0  0  0  0  0  0
   37.4260   31.5470   40.3460 C   0  0  0  0  0  0  0  0  0  0  0  0
   37.8440   30.3550   39.7030 C   0  0  0  0  0  0  0  0  0  0  0  0
   36.7980   29.4940   39.9420 C   0  0  0  0  0  0  0  0  0  0  0  0
   35.8270   30.0980   40.6640 N   0  0  0  0  0  0  0  0  0  0  0  0
   36.2300   31.3320   40.8940 N   0  0  0  0  0  0  0  0  0  0  0  0
   39.6130   32.7120   40.6950 C   0  0  0  0  0  0  0  0  0  0  0  0
   38.2550   32.7490   40.3400 C   0  0  0  0  0  0  0  0  0  0  0  0
   37.6780   33.9620   39.9700 C   0  0  0  0  0  0  0  0  0  0  0  0
   38.4730   35.0860   39.9690 N   0  0  0  0  0  0  0  0  0  0  0  0
   39.7770   35.0080   40.3180 C   0  0  0  0  0  0  0  0  0  0  0  0
   40.3610   33.8240   40.6840 N   0  0  0  0  0  0  0  0  0  0  0  0
   37.3893   28.6550   37.3997 H   0  0  0  0  0  0  0  0  0  0  0  0
   38.1386   27.2020   37.9175 H   0  0  0  0  0  0  0  0  0  0  0  0
   35.0538   27.7449   37.6835 H   0  0  0  0  0  0  0  0  0  0  0  0
   35.8774   26.5962   36.7012 H   0  0  0  0  0  0  0  0  0  0  0  0
   34.8313   25.8949   39.1745 H   0  0  0  0  0  0  0  0  0  0  0  0
   36.3263   25.1282   38.6477 H   0  0  0  0  0  0  0  0  0  0  0  0
   36.0320   26.8955   40.9170 H   0  0  0  0  0  0  0  0  0  0  0  0
   40.1382   23.9185   39.2373 H   0  0  0  0  0  0  0  0  0  0  0  0
   41.0934   25.3438   43.4551 H   0  0  0  0  0  0  0  0  0  0  0  0
   40.0278   26.8993   45.0817 H   0  0  0  0  0  0  0  0  0  0  0  0
   37.9085   28.0806   44.4355 H   0  0  0  0  0  0  0  0  0  0  0  0
   36.9327   27.6861   42.2366 H   0  0  0  0  0  0  0  0  0  0  0  0
   38.7753   30.1651   39.1493 H   0  0  0  0  0  0  0  0  0  0  0  0
   34.9411   29.6745   40.9750 H   0  0  0  0  0  0  0  0  0  0  0  0
   40.0702   31.7550   40.9868 H   0  0  0  0  0  0  0  0  0  0  0  0
   36.6167   34.0200   39.6866 H   0  0  0  0  0  0  0  0  0  0  0  0
   40.3875   35.9230   40.3077 H   0  0  0  0  0  0  0  0  0  0  0  0
  1 18  1  0
  1  5  1  0
  2  1  1  0
  3  2  1  0
  3  4  1  0
  4  5  1  0
  5  6  1  0
  6 15  2  0
  7  8  2  0
  7  6  1  0
  8  9  1  0
  9 10  2  0
 10 11  1  0
 11 12  2  0
 13 12  1  0
 14 13  2  0
 15 10  1  0
 15 14  1  0
 16 20  2  0
 17 18  2  0
 17 16  1  0
 18 19  1  0
 19 20  1  0
 22 16  1  0
 22 21  2  0
 23 22  1  0
 24 23  2  0
 24 25  1  0
 25 26  2  0
 26 21  1  0
  2 27  1  0
  2 28  1  0
  3 29  1  0
  3 30  1  0
  4 31  1  0
  4 32  1  0
  5 33  1  1
  8 34  1  0
 11 35  1  0
 12 36  1  0
 13 37  1  0
 14 38  1  0
 17 39  1  0
 19 40  1  0
 21 41  1  0
 23 42  1  0
 25 43  1  0
M  ISO  8  27  13  28  13  29  13  30  13  31  13  32  13  33  13  34  14
M  ISO  8  35  14  36  14  37  14  38  14  39  14  40   9  41  14  42  14
M  ISO  1  43  14
M  END
>  <minimizedAffinity>  (1) 
-6.11464834

>  <minimizedRMSD>  (1) 
4.91186428

$$$$
