
     RDKit          3D

 13 13  0  0  0  0  0  0  0  0999 V2000
   37.9720   28.8840   43.3700 C   0  0  0  0  0  0  0  0  0  0  0  0
   38.0860   27.4690   43.3110 C   0  0  0  0  0  0  0  0  0  0  0  0
   37.4360   26.8180   42.2550 C   0  0  0  0  0  0  0  0  0  0  0  0
   36.7310   27.5750   41.3430 N   0  0  0  0  0  0  0  0  0  0  0  0
   36.6570   28.9150   41.4480 C   0  0  0  0  0  0  0  0  0  0  0  0
   37.2720   29.5540   42.4520 N   0  0  0  0  0  0  0  0  0  0  0  0
   37.5280   25.3350   42.1530 C   0  0  0  0  0  0  0  0  0  0  0  0
   37.6540   25.0540   40.8090 F   0  0  0  0  0  0  0  0  0  0  0  0
   38.6280   24.8390   42.7950 F   0  0  0  0  0  0  0  0  0  0  0  0
   36.3820   24.7120   42.6370 F   0  0  0  0  0  0  0  0  0  0  0  0
   38.4673   29.4348   44.1832 H   0  0  0  0  0  0  0  0  0  0  0  0
   38.6606   26.9084   44.0631 H   0  0  0  0  0  0  0  0  0  0  0  0
   36.0869   29.4899   40.7034 H   0  0  0  0  0  0  0  0  0  0  0  0
  2  1  2  0
  3  2  1  0
  4  5  1  0
  4  3  2  0
  5  6  2  0
  6  1  1  0
  7  3  1  0
  7 10  1  0
  7  9  1  0
  8  7  1  0
  1 11  1  0
  2 12  1  0
  5 13  1  0
M  ISO  3  11  14  12  14  13  14
M  END
>  <minimizedAffinity>  (1) 
-3.36677527

>  <minimizedRMSD>  (1) 
1.67683041

$$$$
