
     RDKit          3D

 45 49  0  0  1  0  0  0  0  0999 V2000
   36.2770   27.5190   38.5940 N   0  0  0  0  0  0  0  0  0  0  0  0
   35.7630   27.3640   37.1970 C   0  0  0  0  0  0  0  0  0  0  0  0
   34.7330   26.2790   37.4570 C   0  0  0  0  0  0  0  0  0  0  0  0
   35.6520   25.2720   38.1310 C   0  0  0  0  0  0  0  0  0  0  0  0
   36.7500   26.1780   38.6730 C   0  0  2  0  0  0  0  0  0  0  0  0
   37.3270   25.6920   39.9040 C   0  0  0  0  0  0  0  0  0  0  0  0
   36.6020   24.9040   40.8050 C   0  0  0  0  0  0  0  0  0  0  0  0
   37.0300   24.3430   41.9840 C   0  0  0  0  0  0  0  0  0  0  0  0
   38.3380   24.5760   42.3390 C   0  0  0  0  0  0  0  0  0  0  0  0
   39.1460   25.3400   41.5240 C   0  0  0  0  0  0  0  0  0  0  0  0
   40.4510   25.5540   41.9130 C   0  0  0  0  0  0  0  0  0  0  0  0
   41.3080   26.3080   41.1440 C   0  0  0  0  0  0  0  0  0  0  0  0
   40.7870   26.8350   39.9700 C   0  0  0  0  0  0  0  0  0  0  0  0
   39.4850   26.6100   39.6020 C   0  0  0  0  0  0  0  0  0  0  0  0
   38.6190   25.8570   40.3610 C   0  0  0  0  0  0  0  0  0  0  0  0
   36.8010   30.6970   40.0820 C   0  0  0  0  0  0  0  0  0  0  0  0
   37.1410   29.7210   39.1350 C   0  0  0  0  0  0  0  0  0  0  0  0
   36.2230   28.6990   39.3720 C   0  0  0  0  0  0  0  0  0  0  0  0
   35.4110   29.0280   40.3630 N   0  0  0  0  0  0  0  0  0  0  0  0
   35.7580   30.2270   40.7890 N   0  0  0  0  0  0  0  0  0  0  0  0
   37.0550   33.1270   39.5640 C   0  0  0  0  0  0  0  0  0  0  0  0
   37.5050   31.9620   40.2010 C   0  0  0  0  0  0  0  0  0  0  0  0
   38.6640   32.0020   40.9710 C   0  0  0  0  0  0  0  0  0  0  0  0
   39.3400   33.1910   41.0890 N   0  0  0  0  0  0  0  0  0  0  0  0
   38.8760   34.3060   40.4570 C   0  0  0  0  0  0  0  0  0  0  0  0
   37.7380   34.2780   39.6960 N   0  0  0  0  0  0  0  0  0  0  0  0
   36.5476   27.0328   36.5008 H   0  0  0  0  0  0  0  0  0  0  0  0
   35.3827   28.2808   36.7228 H   0  0  0  0  0  0  0  0  0  0  0  0
   33.9278   26.6201   38.1243 H   0  0  0  0  0  0  0  0  0  0  0  0
   34.1816   25.9160   36.5771 H   0  0  0  0  0  0  0  0  0  0  0  0
   35.1359   24.7369   38.9418 H   0  0  0  0  0  0  0  0  0  0  0  0
   36.0152   24.4782   37.4617 H   0  0  0  0  0  0  0  0  0  0  0  0
   37.6614   26.1638   38.0573 H   0  0  0  0  0  0  0  0  0  0  0  0
   35.5539   24.7084   40.5343 H   0  0  0  0  0  0  0  0  0  0  0  0
   36.3600   23.7379   42.6124 H   0  0  0  0  0  0  0  0  0  0  0  0
   38.7391   24.1534   43.2720 H   0  0  0  0  0  0  0  0  0  0  0  0
   40.8136   25.1147   42.8540 H   0  0  0  0  0  0  0  0  0  0  0  0
   42.3516   26.4839   41.4440 H   0  0  0  0  0  0  0  0  0  0  0  0
   41.4320   27.4459   39.3213 H   0  0  0  0  0  0  0  0  0  0  0  0
   39.1185   27.0492   38.6624 H   0  0  0  0  0  0  0  0  0  0  0  0
   37.9428   29.7538   38.3826 H   0  0  0  0  0  0  0  0  0  0  0  0
   34.6440   28.4504   40.7358 H   0  0  0  0  0  0  0  0  0  0  0  0
   36.1400   33.0996   38.9540 H   0  0  0  0  0  0  0  0  0  0  0  0
   39.0318   31.0967   41.4761 H   0  0  0  0  0  0  0  0  0  0  0  0
   39.4291   35.2511   40.5608 H   0  0  0  0  0  0  0  0  0  0  0  0
  1  5  1  0
  1 18  1  0
  2  3  1  0
  2  1  1  0
  3  4  1  0
  4  5  1  0
  5  6  1  0
  6 15  1  0
  6  7  2  0
  7  8  1  0
  8  9  2  0
 10 11  2  0
 10  9  1  0
 12 11  1  0
 13 12  2  0
 14 13  1  0
 14 15  2  0
 15 10  1  0
 16 22  1  0
 16 20  2  0
 17 18  2  0
 17 16  1  0
 18 19  1  0
 19 20  1  0
 21 26  2  0
 21 22  1  0
 22 23  2  0
 23 24  1  0
 25 24  2  0
 26 25  1  0
  2 27  1  0
  2 28  1  0
  3 29  1  0
  3 30  1  0
  4 31  1  0
  4 32  1  0
  5 33  1  6
  7 34  1  0
  8 35  1  0
  9 36  1  0
 11 37  1  0
 12 38  1  0
 13 39  1  0
 14 40  1  0
 17 41  1  0
 19 42  1  0
 21 43  1  0
 23 44  1  0
 25 45  1  0
M  ISO  8  27  13  28  13  29  13  30  13  31  13  32  13  33  13  34  14
M  ISO  8  35  14  36  14  37  14  38  14  39  14  40  14  41  14  42   9
M  ISO  3  43  14  44  14  45  14
M  END
>  <minimizedAffinity>  (1) 
-5.5941

>  <minimizedRMSD>  (1) 
4.35149193

$$$$
