
     RDKit          3D

 36 39  0  0  1  0  0  0  0  0999 V2000
   38.1870   26.4250   41.5170 N   0  0  0  0  0  0  0  0  0  0  0  0
   36.9720   25.7580   41.0070 C   0  0  0  0  0  0  0  0  0  0  0  0
   36.8610   24.6710   42.0710 C   0  0  0  0  0  0  0  0  0  0  0  0
   38.2810   24.1000   41.9710 C   0  0  0  0  0  0  0  0  0  0  0  0
   39.0420   25.2700   41.3730 C   0  0  2  0  0  0  0  0  0  0  0  0
   38.3910   29.9600   41.7860 C   0  0  0  0  0  0  0  0  0  0  0  0
   38.2400   28.7930   41.0260 C   0  0  0  0  0  0  0  0  0  0  0  0
   38.3070   27.7700   41.9620 C   0  0  0  0  0  0  0  0  0  0  0  0
   38.4820   28.2780   43.1800 N   0  0  0  0  0  0  0  0  0  0  0  0
   38.5310   29.5910   43.0610 N   0  0  0  0  0  0  0  0  0  0  0  0
   39.4970   32.1450   41.2780 C   0  0  0  0  0  0  0  0  0  0  0  0
   38.3800   31.2910   41.1760 C   0  0  0  0  0  0  0  0  0  0  0  0
   37.2620   31.7100   40.4940 C   0  0  0  0  0  0  0  0  0  0  0  0
   37.2720   32.9640   39.9280 N   0  0  0  0  0  0  0  0  0  0  0  0
   38.3580   33.7630   40.0420 C   0  0  0  0  0  0  0  0  0  0  0  0
   39.4600   33.3630   40.7090 N   0  0  0  0  0  0  0  0  0  0  0  0
   40.3420   25.4170   41.9640 N   0  0  0  0  0  0  0  0  0  0  0  0
   40.6230   25.2430   43.2450 N   0  0  0  0  0  0  0  0  0  0  0  0
   41.9390   25.4690   43.4030 C   0  0  0  0  0  0  0  0  0  0  0  0
   42.5210   25.8000   42.1740 C   0  0  0  0  0  0  0  0  0  0  0  0
   41.4710   25.7550   41.2840 C   0  0  0  0  0  0  0  0  0  0  0  0
   36.0996   26.4280   41.0038 H   0  0  0  0  0  0  0  0  0  0  0  0
   37.0153   25.4093   39.9646 H   0  0  0  0  0  0  0  0  0  0  0  0
   36.6521   25.0876   43.0674 H   0  0  0  0  0  0  0  0  0  0  0  0
   36.0461   23.9463   41.9269 H   0  0  0  0  0  0  0  0  0  0  0  0
   38.6751   23.8297   42.9617 H   0  0  0  0  0  0  0  0  0  0  0  0
   38.3495   23.1743   41.3807 H   0  0  0  0  0  0  0  0  0  0  0  0
   39.2630   25.1150   40.3066 H   0  0  0  0  0  0  0  0  0  0  0  0
   38.1005   28.7070   39.9383 H   0  0  0  0  0  0  0  0  0  0  0  0
   38.5642   27.7430   44.0563 H   0  0  0  0  0  0  0  0  0  0  0  0
   40.3954   31.8164   41.8209 H   0  0  0  0  0  0  0  0  0  0  0  0
   36.3806   31.0582   40.4031 H   0  0  0  0  0  0  0  0  0  0  0  0
   38.3418   34.7613   39.5803 H   0  0  0  0  0  0  0  0  0  0  0  0
   42.4794   25.4033   44.3589 H   0  0  0  0  0  0  0  0  0  0  0  0
   43.5742   26.0406   41.9667 H   0  0  0  0  0  0  0  0  0  0  0  0
   41.5344   25.9582   40.2048 H   0  0  0  0  0  0  0  0  0  0  0  0
  1  8  1  0
  2  1  1  0
  2  3  1  0
  4  3  1  0
  5  1  1  0
  5 17  1  0
  5  4  1  0
  6 10  2  0
  7  6  1  0
  7  8  2  0
  8  9  1  0
 10  9  1  0
 12 11  2  0
 12  6  1  0
 13 12  1  0
 14 15  1  0
 14 13  2  0
 15 16  2  0
 16 11  1  0
 17 18  1  0
 18 19  2  0
 20 19  1  0
 21 17  1  0
 21 20  2  0
  2 22  1  0
  2 23  1  0
  3 24  1  0
  3 25  1  0
  4 26  1  0
  4 27  1  0
  5 28  1  6
  7 29  1  0
  9 30  1  0
 11 31  1  0
 13 32  1  0
 15 33  1  0
 19 34  1  0
 20 35  1  0
 21 36  1  0
M  ISO  8  22  13  23  13  24  13  25  13  26  13  27  13  28  13  29  14
M  ISO  7  30   9  31  14  32  14  33  14  34  14  35  14  36  14
M  END
>  <minimizedAffinity>  (1) 
-5.06377697

>  <minimizedRMSD>  (1) 
3.77889109

$$$$
