
     RDKit          3D

 36 38  0  0  1  0  0  0  0  0999 V2000
   37.0880   25.3090   40.1200 N   0  0  0  0  0  0  0  0  0  0  0  0
   36.6660   24.8300   38.7820 C   0  0  0  0  0  0  0  0  0  0  0  0
   35.5920   23.8440   39.2300 C   0  0  0  0  0  0  0  0  0  0  0  0
   36.4730   23.0150   40.1810 C   0  0  0  0  0  0  0  0  0  0  0  0
   37.5450   24.0160   40.5530 C   0  0  2  0  0  0  0  0  0  0  0  0
   37.6950   23.9740   41.9920 N   0  0  0  0  0  0  0  0  0  0  0  0
   39.0720   24.2220   42.3220 C   0  0  0  0  0  0  0  0  0  0  0  0
   40.0870   24.6940   41.7050 N   0  0  0  0  0  0  0  0  0  0  0  0
   39.7730   23.9940   43.5590 N   0  0  0  0  0  0  0  0  0  0  0  0
   40.1280   25.0280   40.7380 H   0  0  0  0  0  0  0  0  0  0  0  0
   37.0270   28.8280   40.5860 C   0  0  0  0  0  0  0  0  0  0  0  0
   37.1620   27.7000   39.7570 C   0  0  0  0  0  0  0  0  0  0  0  0
   37.0060   26.6270   40.6340 C   0  0  0  0  0  0  0  0  0  0  0  0
   36.7980   27.0660   41.8690 N   0  0  0  0  0  0  0  0  0  0  0  0
   36.8130   28.3860   41.8300 N   0  0  0  0  0  0  0  0  0  0  0  0
   37.2750   31.2940   40.9240 C   0  0  0  0  0  0  0  0  0  0  0  0
   37.1220   30.1880   40.0750 C   0  0  0  0  0  0  0  0  0  0  0  0
   37.0580   30.3820   38.6970 C   0  0  0  0  0  0  0  0  0  0  0  0
   37.1460   31.6570   38.2000 N   0  0  0  0  0  0  0  0  0  0  0  0
   37.2960   32.7110   39.0670 C   0  0  0  0  0  0  0  0  0  0  0  0
   37.3590   32.5360   40.4110 N   0  0  0  0  0  0  0  0  0  0  0  0
   37.4853   24.3343   38.2408 H   0  0  0  0  0  0  0  0  0  0  0  0
   36.3394   25.6069   38.0751 H   0  0  0  0  0  0  0  0  0  0  0  0
   34.7600   24.3385   39.7528 H   0  0  0  0  0  0  0  0  0  0  0  0
   35.0739   23.2891   38.4339 H   0  0  0  0  0  0  0  0  0  0  0  0
   35.9084   22.6843   41.0652 H   0  0  0  0  0  0  0  0  0  0  0  0
   36.8621   22.0874   39.7359 H   0  0  0  0  0  0  0  0  0  0  0  0
   38.5150   23.7968   40.0828 H   0  0  0  0  0  0  0  0  0  0  0  0
   36.9391   23.7957   42.6686 H   0  0  0  0  0  0  0  0  0  0  0  0
   40.7731   24.2284   43.6350 H   0  0  0  0  0  0  0  0  0  0  0  0
   39.2743   23.5965   44.3679 H   0  0  0  0  0  0  0  0  0  0  0  0
   37.3469   27.6710   38.6730 H   0  0  0  0  0  0  0  0  0  0  0  0
   36.6515   26.4833   42.7056 H   0  0  0  0  0  0  0  0  0  0  0  0
   37.3265   31.1461   42.0128 H   0  0  0  0  0  0  0  0  0  0  0  0
   36.9386   29.5251   38.0177 H   0  0  0  0  0  0  0  0  0  0  0  0
   37.3674   33.7300   38.6589 H   0  0  0  0  0  0  0  0  0  0  0  0
  1  5  1  0
  1 13  1  0
  2  3  1  0
  2  1  1  0
  3  4  1  0
  4  5  1  0
  5  6  1  0
  6  7  1  0
  7  9  1  0
  8  7  2  0
 10  8  1  0
 11 15  2  0
 12 11  1  0
 12 13  2  0
 13 14  1  0
 15 14  1  0
 17 11  1  0
 17 16  2  0
 18 17  1  0
 19 18  2  0
 19 20  1  0
 20 21  2  0
 21 16  1  0
  2 22  1  0
  2 23  1  0
  3 24  1  0
  3 25  1  0
  4 26  1  0
  4 27  1  0
  5 28  1  6
  6 29  1  0
  9 30  1  0
  9 31  1  0
 12 32  1  0
 14 33  1  0
 16 34  1  0
 18 35  1  0
 20 36  1  0
M  ISO  8  22  13  23  13  24  13  25  13  26  13  27  13  28  13  32  14
M  ISO  4  33   9  34  14  35  14  36  14
M  END
>  <minimizedAffinity>  (1) 
-4.64491844

>  <minimizedRMSD>  (1) 
2.30309868

$$$$
