
     RDKit          3D

 41 44  0  0  1  0  0  0  0  0999 V2000
   36.2860   23.1270   39.6580 N   0  0  0  0  0  0  0  0  0  0  0  0
   35.1840   23.6510   38.8540 C   0  0  0  0  0  0  0  0  0  0  0  0
   34.1010   22.6500   39.3220 C   0  0  0  0  0  0  0  0  0  0  0  0
   34.8710   21.3800   38.9680 C   0  0  0  0  0  0  0  0  0  0  0  0
   36.3020   21.8150   39.0460 C   0  0  1  0  0  0  0  0  0  0  0  0
   37.7770   25.5200   41.8350 C   0  0  0  0  0  0  0  0  0  0  0  0
   36.9620   25.1990   40.7400 C   0  0  0  0  0  0  0  0  0  0  0  0
   37.0250   23.8060   40.6870 C   0  0  0  0  0  0  0  0  0  0  0  0
   37.8030   23.3400   41.6560 N   0  0  0  0  0  0  0  0  0  0  0  0
   38.2470   24.3860   42.3370 N   0  0  0  0  0  0  0  0  0  0  0  0
   39.2520   27.3370   42.7200 C   0  0  0  0  0  0  0  0  0  0  0  0
   37.9930   26.9070   42.2510 C   0  0  0  0  0  0  0  0  0  0  0  0
   36.9570   27.8040   42.1850 C   0  0  0  0  0  0  0  0  0  0  0  0
   37.1840   29.1030   42.5830 N   0  0  0  0  0  0  0  0  0  0  0  0
   38.4050   29.4830   43.0270 C   0  0  0  0  0  0  0  0  0  0  0  0
   39.4460   28.6050   43.0990 N   0  0  0  0  0  0  0  0  0  0  0  0
   36.9890   21.9010   37.8050 N   0  0  0  0  0  0  0  0  0  0  0  0
   38.4070   22.0640   38.0800 C   0  0  0  0  0  0  0  0  0  0  0  0
   38.7510   20.6600   38.5800 C   0  0  0  0  0  0  0  0  0  0  0  0
   37.7860   19.7420   37.8280 C   0  0  0  0  0  0  0  0  0  0  0  0
   37.0120   20.7150   37.0120 C   0  0  0  0  0  0  0  0  0  0  0  0
   35.3821   23.5795   37.7743 H   0  0  0  0  0  0  0  0  0  0  0  0
   34.9505   24.7182   38.9824 H   0  0  0  0  0  0  0  0  0  0  0  0
   33.8892   22.7294   40.3985 H   0  0  0  0  0  0  0  0  0  0  0  0
   33.0990   22.7615   38.8820 H   0  0  0  0  0  0  0  0  0  0  0  0
   34.6182   21.0349   37.9546 H   0  0  0  0  0  0  0  0  0  0  0  0
   34.6398   20.5354   39.6338 H   0  0  0  0  0  0  0  0  0  0  0  0
   36.8491   21.0491   39.6153 H   0  0  0  0  0  0  0  0  0  0  0  0
   36.4061   25.8818   40.0807 H   0  0  0  0  0  0  0  0  0  0  0  0
   38.0207   22.3509   41.8434 H   0  0  0  0  0  0  0  0  0  0  0  0
   40.0848   26.6204   42.7747 H   0  0  0  0  0  0  0  0  0  0  0  0
   35.9664   27.4925   41.8221 H   0  0  0  0  0  0  0  0  0  0  0  0
   38.5615   30.5266   43.3376 H   0  0  0  0  0  0  0  0  0  0  0  0
   38.9708   22.3221   37.1714 H   0  0  0  0  0  0  0  0  0  0  0  0
   38.6498   22.8753   38.7820 H   0  0  0  0  0  0  0  0  0  0  0  0
   39.7946   20.4067   38.3419 H   0  0  0  0  0  0  0  0  0  0  0  0
   38.6530   20.5677   39.6717 H   0  0  0  0  0  0  0  0  0  0  0  0
   38.3278   19.0271   37.1912 H   0  0  0  0  0  0  0  0  0  0  0  0
   37.1630   19.1173   38.4850 H   0  0  0  0  0  0  0  0  0  0  0  0
   35.9912   20.3471   36.8315 H   0  0  0  0  0  0  0  0  0  0  0  0
   37.4587   20.8811   36.0206 H   0  0  0  0  0  0  0  0  0  0  0  0
  1  8  1  0
  2  3  1  0
  2  1  1  0
  4  5  1  0
  4  3  1  0
  5  1  1  0
  6 12  1  0
  6 10  2  0
  7  6  1  0
  8  7  2  0
  8  9  1  0
  9 10  1  0
 11 16  2  0
 12 11  1  0
 13 12  2  0
 13 14  1  0
 14 15  2  0
 15 16  1  0
 17 18  1  0
 17  5  1  0
 18 19  1  0
 20 19  1  0
 21 17  1  0
 21 20  1  0
  2 22  1  0
  2 23  1  0
  3 24  1  0
  3 25  1  0
  4 26  1  0
  4 27  1  0
  5 28  1  1
  7 29  1  0
  9 30  1  0
 11 31  1  0
 13 32  1  0
 15 33  1  0
 18 34  1  0
 18 35  1  0
 19 36  1  0
 19 37  1  0
 20 38  1  0
 20 39  1  0
 21 40  1  0
 21 41  1  0
M  ISO  8  22  13  23  13  24  13  25  13  26  13  27  13  28  13  29  14
M  ISO  8  30   9  31  14  32  14  33  14  34  13  35  13  36  13  37  13
M  ISO  4  38  13  39  13  40  13  41  13
M  END
>  <minimizedAffinity>  (1) 
-4.31164837

>  <minimizedRMSD>  (1) 
2.27955031

$$$$
