
     RDKit          3D

 31 33  0  0  1  0  0  0  0  0999 V2000
   36.8960   26.5700   41.3030 C   0  0  0  0  0  0  0  0  0  0  0  0
   36.8350   25.7790   40.1320 C   0  0  0  0  0  0  0  0  0  0  0  0
   37.0190   24.4960   40.6010 C   0  0  0  0  0  0  0  0  0  0  0  0
   37.1780   24.4850   41.9290 N   0  0  0  0  0  0  0  0  0  0  0  0
   37.1000   25.7520   42.3310 N   0  0  0  0  0  0  0  0  0  0  0  0
   37.0140   23.4180   39.6570 N   0  0  0  0  0  0  0  0  0  0  0  0
   36.1930   23.2560   38.4680 C   0  0  0  0  0  0  0  0  0  0  0  0
   35.4700   21.9700   38.8780 C   0  0  0  0  0  0  0  0  0  0  0  0
   36.7270   21.1290   39.1390 C   0  0  0  0  0  0  0  0  0  0  0  0
   37.7560   22.1640   39.5160 C   0  0  2  0  0  0  0  0  0  0  0  0
   38.2480   21.8230   40.8430 N   0  0  0  0  0  0  0  0  0  0  0  0
   37.6480   28.8720   41.9370 C   0  0  0  0  0  0  0  0  0  0  0  0
   36.7470   28.0130   41.2540 C   0  0  0  0  0  0  0  0  0  0  0  0
   35.7170   28.5730   40.5370 C   0  0  0  0  0  0  0  0  0  0  0  0
   35.5780   29.9330   40.4920 N   0  0  0  0  0  0  0  0  0  0  0  0
   36.4670   30.7350   41.1640 C   0  0  0  0  0  0  0  0  0  0  0  0
   37.5010   30.2040   41.8860 N   0  0  0  0  0  0  0  0  0  0  0  0
   36.6781   26.1090   39.0945 H   0  0  0  0  0  0  0  0  0  0  0  0
   37.3308   23.6583   42.5241 H   0  0  0  0  0  0  0  0  0  0  0  0
   36.7983   23.1215   37.5594 H   0  0  0  0  0  0  0  0  0  0  0  0
   35.5487   24.1087   38.2078 H   0  0  0  0  0  0  0  0  0  0  0  0
   34.8558   22.1014   39.7810 H   0  0  0  0  0  0  0  0  0  0  0  0
   34.7430   21.5619   38.1604 H   0  0  0  0  0  0  0  0  0  0  0  0
   36.5626   20.4172   39.9614 H   0  0  0  0  0  0  0  0  0  0  0  0
   37.0252   20.5161   38.2756 H   0  0  0  0  0  0  0  0  0  0  0  0
   38.5765   22.2259   38.7859 H   0  0  0  0  0  0  0  0  0  0  0  0
   37.6365   22.2468   41.5553 H   0  0  0  0  0  0  0  0  0  0  0  0
   38.2487   20.7993   40.9563 H   0  0  0  0  0  0  0  0  0  0  0  0
   38.4775   28.4392   42.5155 H   0  0  0  0  0  0  0  0  0  0  0  0
   35.0054   27.9285   40.0001 H   0  0  0  0  0  0  0  0  0  0  0  0
   36.3455   31.8274   41.1211 H   0  0  0  0  0  0  0  0  0  0  0  0
  1  5  2  0
  2  3  2  0
  2  1  1  0
  3  4  1  0
  4  5  1  0
  6  3  1  0
  7  8  1  0
  7  6  1  0
  8  9  1  0
  9 10  1  0
 10  6  1  0
 10 11  1  0
 13  1  1  0
 13 12  2  0
 14 13  1  0
 15 14  2  0
 15 16  1  0
 16 17  2  0
 17 12  1  0
  2 18  1  0
  4 19  1  0
  7 20  1  0
  7 21  1  0
  8 22  1  0
  8 23  1  0
  9 24  1  0
  9 25  1  0
 10 26  1  6
 11 27  1  0
 11 28  1  0
 12 29  1  0
 14 30  1  0
 16 31  1  0
M  ISO  8  18  14  19   9  20  13  21  13  22  13  23  13  24  13  25  13
M  ISO  6  26  13  27   5  28   5  29  14  30  14  31  14
M  END
>  <minimizedAffinity>  (1) 
-4.22659826

>  <minimizedRMSD>  (1) 
0.563903272

$$$$
