
     RDKit          3D

 42 45  0  0  1  0  0  0  0  0999 V2000
   37.0760   23.2030   39.2870 N   0  0  0  0  0  0  0  0  0  0  0  0
   36.4350   23.8210   38.0880 C   0  0  0  0  0  0  0  0  0  0  0  0
   35.2360   22.8970   38.0010 C   0  0  0  0  0  0  0  0  0  0  0  0
   35.9910   21.5760   37.9710 C   0  0  0  0  0  0  0  0  0  0  0  0
   37.2730   21.8760   38.7170 C   0  0  2  0  0  0  0  0  0  0  0  0
   38.5550   24.8330   42.0870 C   0  0  0  0  0  0  0  0  0  0  0  0
   38.6420   24.2280   40.8280 C   0  0  0  0  0  0  0  0  0  0  0  0
   37.3570   23.8630   40.5060 C   0  0  0  0  0  0  0  0  0  0  0  0
   36.5490   24.2180   41.4910 N   0  0  0  0  0  0  0  0  0  0  0  0
   37.2690   24.7940   42.4270 N   0  0  0  0  0  0  0  0  0  0  0  0
   41.0090   24.7760   42.5870 C   0  0  0  0  0  0  0  0  0  0  0  0
   39.7240   25.3550   42.7880 C   0  0  0  0  0  0  0  0  0  0  0  0
   39.5830   26.4180   43.6420 C   0  0  0  0  0  0  0  0  0  0  0  0
   40.7050   26.8930   44.2840 N   0  0  0  0  0  0  0  0  0  0  0  0
   41.9130   26.3230   44.0730 C   0  0  0  0  0  0  0  0  0  0  0  0
   42.0800   25.2630   43.2270 N   0  0  0  0  0  0  0  0  0  0  0  0
   37.6200   20.8350   39.7020 C   0  0  0  0  0  0  0  0  0  0  0  0
   39.0220   20.2130   39.4430 C   0  0  0  0  0  0  0  0  0  0  0  0
   39.0150   19.2310   40.6270 C   0  0  0  0  0  0  0  0  0  0  0  0
   37.5590   18.7580   40.7240 C   0  0  0  0  0  0  0  0  0  0  0  0
   36.8540   19.5280   39.5870 C   0  0  0  0  0  0  0  0  0  0  0  0
   36.1445   24.8676   38.2620 H   0  0  0  0  0  0  0  0  0  0  0  0
   37.0598   23.8927   37.1855 H   0  0  0  0  0  0  0  0  0  0  0  0
   34.5793   22.9821   38.8794 H   0  0  0  0  0  0  0  0  0  0  0  0
   34.5455   23.0784   37.1641 H   0  0  0  0  0  0  0  0  0  0  0  0
   35.4182   20.7857   38.4782 H   0  0  0  0  0  0  0  0  0  0  0  0
   36.1691   21.2109   36.9488 H   0  0  0  0  0  0  0  0  0  0  0  0
   38.1497   21.8688   38.0526 H   0  0  0  0  0  0  0  0  0  0  0  0
   39.5484   24.0765   40.2234 H   0  0  0  0  0  0  0  0  0  0  0  0
   35.5303   24.0686   41.5195 H   0  0  0  0  0  0  0  0  0  0  0  0
   41.1230   23.9232   41.9017 H   0  0  0  0  0  0  0  0  0  0  0  0
   38.5989   26.8798   43.8102 H   0  0  0  0  0  0  0  0  0  0  0  0
   42.7904   26.7261   44.5999 H   0  0  0  0  0  0  0  0  0  0  0  0
   37.4549   21.4006   40.6309 H   0  0  0  0  0  0  0  0  0  0  0  0
   39.0816   19.7002   38.4717 H   0  0  0  0  0  0  0  0  0  0  0  0
   39.8685   20.9134   39.3901 H   0  0  0  0  0  0  0  0  0  0  0  0
   39.6875   18.3825   40.4326 H   0  0  0  0  0  0  0  0  0  0  0  0
   39.3668   19.6969   41.5593 H   0  0  0  0  0  0  0  0  0  0  0  0
   37.4871   17.6717   40.5668 H   0  0  0  0  0  0  0  0  0  0  0  0
   37.1118   18.9469   41.7111 H   0  0  0  0  0  0  0  0  0  0  0  0
   35.7785   19.6583   39.7777 H   0  0  0  0  0  0  0  0  0  0  0  0
   36.8708   19.0465   38.5981 H   0  0  0  0  0  0  0  0  0  0  0  0
  1  8  1  0
  2  1  1  0
  3  2  1  0
  4  3  1  0
  4  5  1  0
  5  1  1  0
  5 17  1  0
  6 10  2  0
  6 12  1  0
  7  6  1  0
  8  7  2  0
  8  9  1  0
  9 10  1  0
 11 12  2  0
 11 16  1  0
 12 13  1  0
 13 14  2  0
 15 14  1  0
 16 15  2  0
 18 17  1  0
 18 19  1  0
 19 20  1  0
 21 17  1  0
 21 20  1  0
  2 22  1  0
  2 23  1  0
  3 24  1  0
  3 25  1  0
  4 26  1  0
  4 27  1  0
  5 28  1  6
  7 29  1  0
  9 30  1  0
 11 31  1  0
 13 32  1  0
 15 33  1  0
 17 34  1  0
 18 35  1  0
 18 36  1  0
 19 37  1  0
 19 38  1  0
 20 39  1  0
 20 40  1  0
 21 41  1  0
 21 42  1  0
M  ISO  8  22  13  23  13  24  13  25  13  26  13  27  13  28  13  29  14
M  ISO  8  30   9  31  14  32  14  33  14  34  13  35  13  36  13  37  13
M  ISO  5  38  13  39  13  40  13  41  13  42  13
M  END
>  <minimizedAffinity>  (1) 
-4.17251158

>  <minimizedRMSD>  (1) 
4.03639698

$$$$
