
     RDKit          3D

 32 34  0  0  1  0  0  0  0  0999 V2000
   36.8980   26.7130   41.3650 C   0  0  0  0  0  0  0  0  0  0  0  0
   36.9730   25.8880   40.2150 C   0  0  0  0  0  0  0  0  0  0  0  0
   37.1240   24.6180   40.7680 C   0  0  0  0  0  0  0  0  0  0  0  0
   37.1380   24.6670   42.1000 N   0  0  0  0  0  0  0  0  0  0  0  0
   37.0010   25.9350   42.4470 N   0  0  0  0  0  0  0  0  0  0  0  0
   37.2370   23.4950   39.8780 N   0  0  0  0  0  0  0  0  0  0  0  0
   36.5000   23.2770   38.6280 C   0  0  0  0  0  0  0  0  0  0  0  0
   35.7960   21.9800   39.0310 C   0  0  0  0  0  0  0  0  0  0  0  0
   37.0550   21.1880   39.4110 C   0  0  0  0  0  0  0  0  0  0  0  0
   38.0110   22.2780   39.8400 C   0  0  1  0  0  0  0  0  0  0  0  0
   39.1630   22.4250   38.9490 C   0  0  0  0  0  0  0  0  0  0  0  0
   39.5750   21.6620   38.0650 O   0  0  0  0  0  0  0  0  0  0  0  0
   39.9720   23.5740   39.0470 O   0  0  0  0  0  0  0  0  0  0  0  0
   37.6510   29.0490   41.8240 C   0  0  0  0  0  0  0  0  0  0  0  0
   36.7330   28.1580   41.2440 C   0  0  0  0  0  0  0  0  0  0  0  0
   35.6550   28.6610   40.5460 C   0  0  0  0  0  0  0  0  0  0  0  0
   35.5130   30.0260   40.4410 N   0  0  0  0  0  0  0  0  0  0  0  0
   36.4240   30.8530   41.0170 C   0  0  0  0  0  0  0  0  0  0  0  0
   37.4980   30.3750   41.7120 N   0  0  0  0  0  0  0  0  0  0  0  0
   36.9243   26.1770   39.1548 H   0  0  0  0  0  0  0  0  0  0  0  0
   37.2371   23.8659   42.7397 H   0  0  0  0  0  0  0  0  0  0  0  0
   37.1696   23.1391   37.7663 H   0  0  0  0  0  0  0  0  0  0  0  0
   35.8502   24.1004   38.2966 H   0  0  0  0  0  0  0  0  0  0  0  0
   35.1143   22.1193   39.8830 H   0  0  0  0  0  0  0  0  0  0  0  0
   35.1387   21.5237   38.2762 H   0  0  0  0  0  0  0  0  0  0  0  0
   36.8515   20.4903   40.2367 H   0  0  0  0  0  0  0  0  0  0  0  0
   37.4423   20.5621   38.5936 H   0  0  0  0  0  0  0  0  0  0  0  0
   38.4428   22.0257   40.8197 H   0  0  0  0  0  0  0  0  0  0  0  0
   40.7532   23.6819   38.4485 H   0  0  0  0  0  0  0  0  0  0  0  0
   38.5119   28.6503   42.3807 H   0  0  0  0  0  0  0  0  0  0  0  0
   34.9226   27.9840   40.0820 H   0  0  0  0  0  0  0  0  0  0  0  0
   36.2925   31.9409   40.9206 H   0  0  0  0  0  0  0  0  0  0  0  0
  1  5  2  0
  2  3  2  0
  2  1  1  0
  3  4  1  0
  4  5  1  0
  6  3  1  0
  7  8  1  0
  7  6  1  0
  8  9  1  0
  9 10  1  0
 10  6  1  0
 11 13  1  0
 11 10  1  0
 12 11  2  0
 15  1  1  0
 15 14  2  0
 16 15  1  0
 17 16  2  0
 17 18  1  0
 18 19  2  0
 19 14  1  0
  2 20  1  0
  4 21  1  0
  7 22  1  0
  7 23  1  0
  8 24  1  0
  8 25  1  0
  9 26  1  0
  9 27  1  0
 10 28  1  1
 13 29  1  0
 14 30  1  0
 16 31  1  0
 18 32  1  0
M  ISO  8  20  14  21   9  22  13  23  13  24  13  25  13  26  13  27  13
M  ISO  5  28  13  29   3  30  14  31  14  32  14
M  END
>  <minimizedAffinity>  (1) 
-3.99960899

>  <minimizedRMSD>  (1) 
0.400827616

$$$$
