
     RDKit          3D

 30 32  0  0  0  0  0  0  0  0999 V2000
   41.2160   82.8740   58.6830 C   0  0  0  0  0  0  0  0  0  0  0  0
   41.9870   83.9100   58.1060 C   0  0  0  0  0  0  0  0  0  0  0  0
   42.3080   83.9780   56.7880 C   0  0  0  0  0  0  0  0  0  0  0  0
   41.8670   82.9860   55.9360 C   0  0  0  0  0  0  0  0  0  0  0  0
   41.1130   81.9560   56.4700 C   0  0  0  0  0  0  0  0  0  0  0  0
   40.6400   80.9290   55.7020 C   0  0  0  0  0  0  0  0  0  0  0  0
   39.8950   79.9020   56.2580 C   0  0  0  0  0  0  0  0  0  0  0  0
   39.5950   79.8660   57.6170 C   0  0  0  0  0  0  0  0  0  0  0  0
   40.0750   80.9060   58.3870 C   0  0  0  0  0  0  0  0  0  0  0  0
   40.7940   81.8950   57.8160 C   0  0  0  0  0  0  0  0  0  0  0  0
   39.8500   82.5550   60.8340 C   0  0  0  0  0  0  0  0  0  0  0  0
   40.9320   83.0630   60.0870 C   0  0  0  0  0  0  0  0  0  0  0  0
   41.9140   83.9010   60.7380 C   0  0  0  0  0  0  0  0  0  0  0  0
   41.7150   84.1410   62.0620 N   0  0  0  0  0  0  0  0  0  0  0  0
   40.6410   83.6160   62.7520 C   0  0  0  0  0  0  0  0  0  0  0  0
   39.7250   82.8350   62.1350 N   0  0  0  0  0  0  0  0  0  0  0  0
   40.4560   83.9010   64.1790 C   0  0  0  0  0  0  0  0  0  0  0  0
   40.3060   82.9930   65.0230 O   0  0  0  0  0  0  0  0  0  0  0  0
   40.4610   85.2940   64.5130 N   0  0  0  0  0  0  0  0  0  0  0  0
   42.3496   84.7114   58.7665 H   0  0  0  0  0  0  0  0  0  0  0  0
   42.9120   84.8135   56.4044 H   0  0  0  0  0  0  0  0  0  0  0  0
   42.1080   83.0133   54.8631 H   0  0  0  0  0  0  0  0  0  0  0  0
   40.8548   80.9178   54.6232 H   0  0  0  0  0  0  0  0  0  0  0  0
   39.5305   79.0929   55.6080 H   0  0  0  0  0  0  0  0  0  0  0  0
   39.0041   79.0484   58.0557 H   0  0  0  0  0  0  0  0  0  0  0  0
   39.8712   80.9288   59.4677 H   0  0  0  0  0  0  0  0  0  0  0  0
   39.0993   81.9204   60.3403 H   0  0  0  0  0  0  0  0  0  0  0  0
   42.7729   84.3205   60.1937 H   0  0  0  0  0  0  0  0  0  0  0  0
   40.3377   85.5893   65.4920 H   0  0  0  0  0  0  0  0  0  0  0  0
   40.5879   86.0003   63.7741 H   0  0  0  0  0  0  0  0  0  0  0  0
  1 12  1  0
  2  1  2  0
  3  2  1  0
  4  5  1  0
  4  3  2  0
  5 10  2  0
  6  7  2  0
  6  5  1  0
  7  8  1  0
  8  9  2  0
 10  9  1  0
 10  1  1  0
 11 16  2  0
 12 13  2  0
 12 11  1  0
 13 14  1  0
 14 15  2  0
 15 17  1  0
 16 15  1  0
 17 19  1  0
 17 18  2  0
  2 20  1  0
  3 21  1  0
  4 22  1  0
  6 23  1  0
  7 24  1  0
  8 25  1  0
  9 26  1  0
 11 27  1  0
 13 28  1  0
 19 29  1  0
 19 30  1  0
M  ISO  8  20  14  21  14  22  14  23  14  24  14  25  14  26  14  27  14
M  ISO  1  28  14
M  END
>  <minimizedAffinity>  (1) 
-5.54331779

>  <minimizedRMSD>  (1) 
0.183749914

$$$$
