
     RDKit          3D

 27 29  0  0  0  0  0  0  0  0999 V2000
   42.3370   80.4070   61.4830 C   0  0  0  0  0  0  0  0  0  0  0  0
   40.9660   80.4610   61.7230 C   0  0  0  0  0  0  0  0  0  0  0  0
   40.2730   81.4900   61.1890 C   0  0  0  0  0  0  0  0  0  0  0  0
   40.9330   82.4550   60.4260 C   0  0  0  0  0  0  0  0  0  0  0  0
   42.6870   81.8720   60.4540 S   0  0  0  0  0  0  0  0  0  0  0  0
   40.5680   83.6490   59.7190 C   0  0  0  0  0  0  0  0  0  0  0  0
   39.4880   84.3710   60.1520 C   0  0  0  0  0  0  0  0  0  0  0  0
   39.2250   85.5110   59.3910 C   0  0  0  0  0  0  0  0  0  0  0  0
   39.9710   85.8690   58.3210 N   0  0  0  0  0  0  0  0  0  0  0  0
   41.0260   85.0880   57.9680 C   0  0  0  0  0  0  0  0  0  0  0  0
   41.3330   83.9600   58.6740 N   0  0  0  0  0  0  0  0  0  0  0  0
   41.7970   85.4770   56.8440 N   0  0  0  0  0  0  0  0  0  0  0  0
   45.3960   78.7250   62.5900 C   0  0  0  0  0  0  0  0  0  0  0  0
   44.9410   77.4230   62.9320 C   0  0  0  0  0  0  0  0  0  0  0  0
   43.5880   77.1470   62.7770 C   0  0  0  0  0  0  0  0  0  0  0  0
   42.7940   78.1270   62.3120 N   0  0  0  0  0  0  0  0  0  0  0  0
   43.2360   79.3460   61.9940 C   0  0  0  0  0  0  0  0  0  0  0  0
   44.5220   79.6450   62.1310 N   0  0  0  0  0  0  0  0  0  0  0  0
   40.4643   79.6910   62.3275 H   0  0  0  0  0  0  0  0  0  0  0  0
   39.1884   81.5677   61.3553 H   0  0  0  0  0  0  0  0  0  0  0  0
   38.8818   84.0786   61.0220 H   0  0  0  0  0  0  0  0  0  0  0  0
   38.3731   86.1467   59.6740 H   0  0  0  0  0  0  0  0  0  0  0  0
   42.6030   84.9070   56.5502 H   0  0  0  0  0  0  0  0  0  0  0  0
   41.5512   86.3296   56.3210 H   0  0  0  0  0  0  0  0  0  0  0  0
   46.4598   78.9827   62.6993 H   0  0  0  0  0  0  0  0  0  0  0  0
   45.6372   76.6585   63.3072 H   0  0  0  0  0  0  0  0  0  0  0  0
   43.1792   76.1569   63.0271 H   0  0  0  0  0  0  0  0  0  0  0  0
  1  2  2  0
  1 17  1  0
  3  2  1  0
  4  5  1  0
  4  3  2  0
  5  1  1  0
  6  7  2  0
  6  4  1  0
  8  7  1  0
  9  8  2  0
 10  9  1  0
 10 11  2  0
 11  6  1  0
 12 10  1  0
 13 14  2  0
 15 14  1  0
 16 15  2  0
 17 18  2  0
 17 16  1  0
 18 13  1  0
  2 19  1  0
  3 20  1  0
  7 21  1  0
  8 22  1  0
 12 23  1  0
 12 24  1  0
 13 25  1  0
 14 26  1  0
 15 27  1  0
M  ISO  7  19  14  20  14  21  14  22  14  25  14  26  14  27  14
M  END
>  <minimizedAffinity>  (1) 
-4.54606152

>  <minimizedRMSD>  (1) 
1.51600158

$$$$
