
     RDKit          3D

 30 32  0  0  0  0  0  0  0  0999 V2000
   41.8230   84.2370   61.5800 C   0  0  0  0  0  0  0  0  0  0  0  0
   41.4380   83.9680   62.8860 C   0  0  0  0  0  0  0  0  0  0  0  0
   40.1460   83.5580   63.1920 C   0  0  0  0  0  0  0  0  0  0  0  0
   39.2170   83.4140   62.1700 C   0  0  0  0  0  0  0  0  0  0  0  0
   39.5990   83.6820   60.8650 C   0  0  0  0  0  0  0  0  0  0  0  0
   40.8870   84.0890   60.5780 C   0  0  0  0  0  0  0  0  0  0  0  0
   41.2380   84.3590   59.1850 C   0  0  0  0  0  0  0  0  0  0  0  0
   40.7680   85.6140   58.7740 C   0  0  0  0  0  0  0  0  0  0  0  0
   40.9970   86.0630   57.4800 C   0  0  0  0  0  0  0  0  0  0  0  0
   41.6770   85.2550   56.6560 N   0  0  0  0  0  0  0  0  0  0  0  0
   42.1330   84.0330   57.0630 C   0  0  0  0  0  0  0  0  0  0  0  0
   41.9110   83.6000   58.3120 N   0  0  0  0  0  0  0  0  0  0  0  0
   42.8590   83.1250   56.2460 N   0  0  0  0  0  0  0  0  0  0  0  0
   45.3800   84.1000   60.7580 C   0  0  0  0  0  0  0  0  0  0  0  0
   45.7500   85.4490   60.7890 C   0  0  0  0  0  0  0  0  0  0  0  0
   44.7720   86.4100   61.0940 C   0  0  0  0  0  0  0  0  0  0  0  0
   43.5080   85.9810   61.3460 N   0  0  0  0  0  0  0  0  0  0  0  0
   43.1720   84.6600   61.3100 C   0  0  0  0  0  0  0  0  0  0  0  0
   44.1090   83.7480   61.0180 N   0  0  0  0  0  0  0  0  0  0  0  0
   42.1722   84.0819   63.6972 H   0  0  0  0  0  0  0  0  0  0  0  0
   39.8618   83.3495   64.2340 H   0  0  0  0  0  0  0  0  0  0  0  0
   38.1896   83.0909   62.3936 H   0  0  0  0  0  0  0  0  0  0  0  0
   38.8690   83.5694   60.0498 H   0  0  0  0  0  0  0  0  0  0  0  0
   40.2137   86.2479   59.4817 H   0  0  0  0  0  0  0  0  0  0  0  0
   40.6336   87.0454   57.1442 H   0  0  0  0  0  0  0  0  0  0  0  0
   43.1679   82.2205   56.6300 H   0  0  0  0  0  0  0  0  0  0  0  0
   43.0764   83.3713   55.2698 H   0  0  0  0  0  0  0  0  0  0  0  0
   46.1279   83.3289   60.5213 H   0  0  0  0  0  0  0  0  0  0  0  0
   46.7866   85.7511   60.5786 H   0  0  0  0  0  0  0  0  0  0  0  0
   45.0228   87.4805   61.1279 H   0  0  0  0  0  0  0  0  0  0  0  0
  1  2  2  0
  2  3  1  0
  4  3  2  0
  5  4  1  0
  6  5  2  0
  6  1  1  0
  7  6  1  0
  8  7  2  0
  9  8  1  0
 10 11  1  0
 10  9  2  0
 11 12  2  0
 12  7  1  0
 13 11  1  0
 14 15  2  0
 14 19  1  0
 15 16  1  0
 16 17  2  0
 18 17  1  0
 18  1  1  0
 19 18  2  0
  2 20  1  0
  3 21  1  0
  4 22  1  0
  5 23  1  0
  8 24  1  0
  9 25  1  0
 13 26  1  0
 13 27  1  0
 14 28  1  0
 15 29  1  0
 16 30  1  0
M  ISO  8  20  14  21  14  22  14  23  14  24  14  25  14  28  14  29  14
M  ISO  1  30  14
M  END
>  <minimizedAffinity>  (1) 
-5.29459333

>  <minimizedRMSD>  (1) 
0.0331809223

$$$$
