
     RDKit          3D

 29 31  0  0  1  0  0  0  0  0999 V2000
   41.7110   83.9130   61.3910 C   0  0  0  0  0  0  0  0  0  0  0  0
   40.9690   84.2830   62.4680 C   0  0  0  0  0  0  0  0  0  0  0  0
   40.5060   83.3310   63.3840 C   0  0  0  0  0  0  0  0  0  0  0  0
   40.7850   82.0390   63.2150 N   0  0  0  0  0  0  0  0  0  0  0  0
   41.5250   81.6890   62.1360 C   0  0  0  0  0  0  0  0  0  0  0  0
   41.9830   82.5860   61.2420 N   0  0  0  0  0  0  0  0  0  0  0  0
   43.6970   86.5240   59.7660 C   0  0  0  0  0  0  0  0  0  0  0  0
   43.0660   86.6530   58.5380 C   0  0  0  0  0  0  0  0  0  0  0  0
   41.9530   85.8520   58.2450 C   0  0  0  0  0  0  0  0  0  0  0  0
   41.5660   84.9810   59.2230 N   0  0  0  0  0  0  0  0  0  0  0  0
   42.1970   84.8760   60.4070 C   0  0  0  0  0  0  0  0  0  0  0  0
   43.2630   85.6370   60.7000 N   0  0  0  0  0  0  0  0  0  0  0  0
   44.8040   87.3800   59.9110 N   0  0  0  0  0  0  0  0  0  0  0  0
   41.7940   80.2140   61.9760 C   0  0  1  0  0  0  0  0  0  0  0  0
   40.8040   79.2360   62.3640 C   0  0  0  0  0  0  0  0  0  0  0  0
   40.8590   79.5850   60.9260 C   0  0  1  0  0  0  0  0  0  0  0  0
   39.9060   80.4290   60.2930 N   0  0  0  0  0  0  0  0  0  0  0  0
   40.7289   85.3454   62.6220 H   0  0  0  0  0  0  0  0  0  0  0  0
   39.9076   83.6518   64.2495 H   0  0  0  0  0  0  0  0  0  0  0  0
   43.4360   87.3787   57.7988 H   0  0  0  0  0  0  0  0  0  0  0  0
   41.4227   85.9212   57.2837 H   0  0  0  0  0  0  0  0  0  0  0  0
   45.0616   88.0225   59.1483 H   0  0  0  0  0  0  0  0  0  0  0  0
   45.3569   87.3643   60.7799 H   0  0  0  0  0  0  0  0  0  0  0  0
   42.8681   80.2922   62.2002 H   0  0  0  0  0  0  0  0  0  0  0  0
   41.1303   78.2374   62.6902 H   0  0  0  0  0  0  0  0  0  0  0  0
   39.9967   79.2321   63.1112 H   0  0  0  0  0  0  0  0  0  0  0  0
   40.9360   78.9970   59.9995 H   0  0  0  0  0  0  0  0  0  0  0  0
   39.3522   80.9195   61.0097 H   0  0  0  0  0  0  0  0  0  0  0  0
   40.3953   81.1191   59.7054 H   0  0  0  0  0  0  0  0  0  0  0  0
  1  2  2  0
  2  3  1  0
  4  3  2  0
  5  4  1  0
  6  1  1  0
  6  5  2  0
  7 13  1  0
  7 12  2  0
  8  7  1  0
  9  8  2  0
  9 10  1  0
 10 11  2  0
 11 12  1  0
 11  1  1  0
 14  5  1  0
 14 15  1  0
 16 14  1  0
 16 15  1  0
 17 16  1  0
  2 18  1  0
  3 19  1  0
  8 20  1  0
  9 21  1  0
 13 22  1  0
 13 23  1  0
 14 24  1  6
 15 25  1  0
 15 26  1  0
 16 27  1  6
 17 28  1  0
 17 29  1  0
M  ISO  8  18  14  19  14  20  14  21  14  24  13  25  13  26  13  27  13
M  ISO  2  28   5  29   5
M  END
>  <minimizedAffinity>  (1) 
-4.76316166

>  <minimizedRMSD>  (1) 
0.254255444

$$$$
