
     RDKit          3D

 37 40  0  0  0  0  0  0  0  0999 V2000
   39.7320   77.1330   59.4200 C   0  0  0  0  0  0  0  0  0  0  0  0
   40.3230   75.9270   59.2420 C   0  0  0  0  0  0  0  0  0  0  0  0
   39.7530   75.1770   58.2050 C   0  0  0  0  0  0  0  0  0  0  0  0
   38.7210   75.5940   57.4490 N   0  0  0  0  0  0  0  0  0  0  0  0
   38.1900   76.8050   57.6910 C   0  0  0  0  0  0  0  0  0  0  0  0
   38.7070   77.5780   58.6890 N   0  0  0  0  0  0  0  0  0  0  0  0
   40.9870   80.1990   61.8040 C   0  0  0  0  0  0  0  0  0  0  0  0
   41.0000   78.9810   62.4560 C   0  0  0  0  0  0  0  0  0  0  0  0
   40.6090   77.8870   61.7760 C   0  0  0  0  0  0  0  0  0  0  0  0
   40.2030   78.0060   60.4450 C   0  0  0  0  0  0  0  0  0  0  0  0
   40.3890   79.8230   60.1160 S   0  0  0  0  0  0  0  0  0  0  0  0
   43.0560   83.0710   62.7520 C   0  0  0  0  0  0  0  0  0  0  0  0
   42.1690   83.8580   63.5380 C   0  0  0  0  0  0  0  0  0  0  0  0
   40.8860   83.3920   63.7280 C   0  0  0  0  0  0  0  0  0  0  0  0
   40.5290   82.2100   63.1570 N   0  0  0  0  0  0  0  0  0  0  0  0
   41.3900   81.4850   62.4160 C   0  0  0  0  0  0  0  0  0  0  0  0
   42.6080   81.9210   62.2340 N   0  0  0  0  0  0  0  0  0  0  0  0
   37.0760   77.2520   56.8810 C   0  0  0  0  0  0  0  0  0  0  0  0
   35.9110   76.9320   57.2690 O   0  0  0  0  0  0  0  0  0  0  0  0
   37.1090   78.0490   55.6390 C   0  0  0  0  0  0  0  0  0  0  0  0
   37.3870   79.4100   55.7740 C   0  0  0  0  0  0  0  0  0  0  0  0
   37.4340   80.2320   54.6500 C   0  0  0  0  0  0  0  0  0  0  0  0
   37.1990   79.6680   53.4080 C   0  0  0  0  0  0  0  0  0  0  0  0
   36.9230   78.3210   53.2600 C   0  0  0  0  0  0  0  0  0  0  0  0
   36.8740   77.5030   54.3690 C   0  0  0  0  0  0  0  0  0  0  0  0
   41.1670   75.5718   59.8515 H   0  0  0  0  0  0  0  0  0  0  0  0
   40.1763   74.1836   57.9954 H   0  0  0  0  0  0  0  0  0  0  0  0
   41.3220   78.9070   63.5052 H   0  0  0  0  0  0  0  0  0  0  0  0
   40.6093   76.9027   62.2670 H   0  0  0  0  0  0  0  0  0  0  0  0
   44.0900   83.4012   62.5734 H   0  0  0  0  0  0  0  0  0  0  0  0
   42.4974   84.8099   63.9808 H   0  0  0  0  0  0  0  0  0  0  0  0
   40.1647   83.9646   64.3296 H   0  0  0  0  0  0  0  0  0  0  0  0
   37.5697   79.8354   56.7718 H   0  0  0  0  0  0  0  0  0  0  0  0
   37.6530   81.3056   54.7475 H   0  0  0  0  0  0  0  0  0  0  0  0
   37.2327   80.3086   52.5144 H   0  0  0  0  0  0  0  0  0  0  0  0
   36.7428   77.9026   52.2588 H   0  0  0  0  0  0  0  0  0  0  0  0
   36.6524   76.4312   54.2583 H   0  0  0  0  0  0  0  0  0  0  0  0
  1 10  1  0
  2  1  2  0
  3  2  1  0
  4  5  1  0
  4  3  2  0
  5  6  2  0
  6  1  1  0
  7 16  1  0
  7  8  2  0
  9  8  1  0
 10  9  2  0
 11 10  1  0
 11  7  1  0
 12 13  2  0
 13 14  1  0
 15 14  2  0
 16 15  1  0
 17 16  2  0
 17 12  1  0
 18 19  2  0
 18  5  1  0
 20 21  2  0
 20 18  1  0
 22 21  1  0
 23 22  2  0
 24 23  1  0
 24 25  2  0
 25 20  1  0
  2 26  1  0
  3 27  1  0
  8 28  1  0
  9 29  1  0
 12 30  1  0
 13 31  1  0
 14 32  1  0
 21 33  1  0
 22 34  1  0
 23 35  1  0
 24 36  1  0
 25 37  1  0
M  ISO  8  26  14  27  14  28  14  29  14  30  14  31  14  32  14  33  14
M  ISO  4  34  14  35  14  36  14  37  14
M  END
>  <minimizedAffinity>  (1) 
-6.85774565

>  <minimizedRMSD>  (1) 
0.84792465

$$$$
