
     RDKit          3D

 38 40  0  0  0  0  0  0  0  0999 V2000
   43.1210   84.1240   58.6750 Cl  0  0  0  0  0  0  0  0  0  0  0  0
   41.9410   82.9000   58.2560 C   0  0  0  0  0  0  0  0  0  0  0  0
   41.0700   82.3280   59.1860 C   0  0  0  0  0  0  0  0  0  0  0  0
   40.2080   81.3840   58.6920 C   0  0  0  0  0  0  0  0  0  0  0  0
   40.1040   80.9400   57.3980 C   0  0  0  0  0  0  0  0  0  0  0  0
   40.9740   81.5240   56.5200 C   0  0  0  0  0  0  0  0  0  0  0  0
   40.9570   81.0560   54.8230 Cl  0  0  0  0  0  0  0  0  0  0  0  0
   41.8810   82.4900   56.9360 C   0  0  0  0  0  0  0  0  0  0  0  0
   41.9810   82.2400   61.5570 C   0  0  0  0  0  0  0  0  0  0  0  0
   41.1400   82.7540   60.5350 C   0  0  0  0  0  0  0  0  0  0  0  0
   40.2920   83.7860   60.8970 C   0  0  0  0  0  0  0  0  0  0  0  0
   40.3350   84.2200   62.1880 N   0  0  0  0  0  0  0  0  0  0  0  0
   41.1360   83.7160   63.1210 C   0  0  0  0  0  0  0  0  0  0  0  0
   41.9860   82.6960   62.8010 N   0  0  0  0  0  0  0  0  0  0  0  0
   41.0250   84.3310   64.4640 C   0  0  0  0  0  0  0  0  0  0  0  0
   40.6570   85.6570   64.4140 F   0  0  0  0  0  0  0  0  0  0  0  0
   40.0890   83.6440   65.2340 F   0  0  0  0  0  0  0  0  0  0  0  0
   42.2820   84.3160   65.1260 F   0  0  0  0  0  0  0  0  0  0  0  0
   42.7380   83.0500   56.0060 O   0  0  0  0  0  0  0  0  0  0  0  0
   42.4500   84.1690   55.2360 C   0  0  0  0  0  0  0  0  0  0  0  0
   43.6480   84.6260   54.6370 O   0  0  0  0  0  0  0  0  0  0  0  0
   43.8630   84.7180   53.2930 C   0  0  0  0  0  0  0  0  0  0  0  0
   44.6010   85.6190   52.5630 C   0  0  0  0  0  0  0  0  0  0  0  0
   44.6730   85.5110   51.1790 C   0  0  0  0  0  0  0  0  0  0  0  0
   44.0050   84.4960   50.4960 C   0  0  0  0  0  0  0  0  0  0  0  0
   43.2520   83.5740   51.2200 C   0  0  0  0  0  0  0  0  0  0  0  0
   43.1900   83.6980   52.6110 C   0  0  0  0  0  0  0  0  0  0  0  0
   39.5185   80.9288   59.4183 H   0  0  0  0  0  0  0  0  0  0  0  0
   39.3771   80.1737   57.0909 H   0  0  0  0  0  0  0  0  0  0  0  0
   42.6661   81.4180   61.3020 H   0  0  0  0  0  0  0  0  0  0  0  0
   39.6062   84.2407   60.1670 H   0  0  0  0  0  0  0  0  0  0  0  0
   41.7228   83.9038   54.4545 H   0  0  0  0  0  0  0  0  0  0  0  0
   42.0209   84.9600   55.8687 H   0  0  0  0  0  0  0  0  0  0  0  0
   45.1377   86.4301   53.0769 H   0  0  0  0  0  0  0  0  0  0  0  0
   45.2689   86.2410   50.6116 H   0  0  0  0  0  0  0  0  0  0  0  0
   44.0714   84.4239   49.4004 H   0  0  0  0  0  0  0  0  0  0  0  0
   42.7157   82.7627   50.7060 H   0  0  0  0  0  0  0  0  0  0  0  0
   42.5952   82.9730   53.1860 H   0  0  0  0  0  0  0  0  0  0  0  0
  2  1  1  0
  2  3  2  0
  3 10  1  0
  4  3  1  0
  5  4  2  0
  6  8  2  0
  6  5  1  0
  7  6  1  0
  8  2  1  0
  9 14  2  0
 10 11  2  0
 10  9  1  0
 11 12  1  0
 12 13  2  0
 13 15  1  0
 14 13  1  0
 15 18  1  0
 15 17  1  0
 16 15  1  0
 19  8  1  0
 20 19  1  0
 21 20  1  0
 22 21  1  0
 23 22  2  0
 24 23  1  0
 25 24  2  0
 25 26  1  0
 26 27  2  0
 27 22  1  0
  4 28  1  0
  5 29  1  0
  9 30  1  0
 11 31  1  0
 20 32  1  0
 20 33  1  0
 23 34  1  0
 24 35  1  0
 25 36  1  0
 26 37  1  0
 27 38  1  0
M  ISO  8  28  14  29  14  30  14  31  14  32   8  33   8  34  14  35  14
M  ISO  3  36  14  37  14  38  14
M  END
>  <minimizedAffinity>  (1) 
-4.90039492

>  <minimizedRMSD>  (1) 
1.71290243

$$$$
