
     RDKit          3D

 43 47  0  0  0  0  0  0  0  0999 V2000
   40.6810   81.7980   57.0920 C   0  0  0  0  0  0  0  0  0  0  0  0
   41.7460   82.3920   56.3970 C   0  0  0  0  0  0  0  0  0  0  0  0
   42.5320   83.2990   57.0810 C   0  0  0  0  0  0  0  0  0  0  0  0
   42.2740   83.5960   58.3860 N   0  0  0  0  0  0  0  0  0  0  0  0
   41.2250   82.9900   59.0280 C   0  0  0  0  0  0  0  0  0  0  0  0
   40.4240   82.0930   58.3900 N   0  0  0  0  0  0  0  0  0  0  0  0
   39.6770   83.0970   60.9090 C   0  0  0  0  0  0  0  0  0  0  0  0
   40.9730   83.2880   60.4290 C   0  0  0  0  0  0  0  0  0  0  0  0
   41.9930   83.7400   61.2660 C   0  0  0  0  0  0  0  0  0  0  0  0
   41.7610   84.0160   62.6000 C   0  0  0  0  0  0  0  0  0  0  0  0
   42.4650   84.4480   63.6590 N   0  0  0  0  0  0  0  0  0  0  0  0
   41.6950   84.5330   64.7440 C   0  0  0  0  0  0  0  0  0  0  0  0
   40.4680   84.1360   64.3320 N   0  0  0  0  0  0  0  0  0  0  0  0
   40.4810   83.8140   63.0240 C   0  0  0  0  0  0  0  0  0  0  0  0
   39.4290   83.3730   62.2590 C   0  0  0  0  0  0  0  0  0  0  0  0
   42.4180   83.3820   54.1020 Cl  0  0  0  0  0  0  0  0  0  0  0  0
   43.7260   84.0500   55.0560 C   0  0  0  0  0  0  0  0  0  0  0  0
   43.6360   83.9540   56.4180 C   0  0  0  0  0  0  0  0  0  0  0  0
   44.7030   84.5420   57.0920 C   0  0  0  0  0  0  0  0  0  0  0  0
   45.7640   85.1650   56.4930 C   0  0  0  0  0  0  0  0  0  0  0  0
   45.7920   85.2250   55.0970 C   0  0  0  0  0  0  0  0  0  0  0  0
   47.1130   86.0040   54.2560 Cl  0  0  0  0  0  0  0  0  0  0  0  0
   44.7590   84.6590   54.3780 C   0  0  0  0  0  0  0  0  0  0  0  0
   44.8250   84.7420   52.9220 C   0  0  0  0  0  0  0  0  0  0  0  0
   45.3630   83.8110   52.0830 C   0  0  0  0  0  0  0  0  0  0  0  0
   45.3400   84.0530   50.7250 C   0  0  0  0  0  0  0  0  0  0  0  0
   44.8060   85.1800   50.1350 C   0  0  0  0  0  0  0  0  0  0  0  0
   44.2620   86.1140   51.0140 C   0  0  0  0  0  0  0  0  0  0  0  0
   44.2790   85.8850   52.3740 C   0  0  0  0  0  0  0  0  0  0  0  0
   40.0381   81.0742   56.5698 H   0  0  0  0  0  0  0  0  0  0  0  0
   41.9477   82.1440   55.3445 H   0  0  0  0  0  0  0  0  0  0  0  0
   38.8743   82.7403   60.2468 H   0  0  0  0  0  0  0  0  0  0  0  0
   43.0039   83.8798   60.8554 H   0  0  0  0  0  0  0  0  0  0  0  0
   43.4676   84.6827   63.6359 H   0  0  0  0  0  0  0  0  0  0  0  0
   41.9917   84.8552   65.7531 H   0  0  0  0  0  0  0  0  0  0  0  0
   38.4264   83.2412   62.6920 H   0  0  0  0  0  0  0  0  0  0  0  0
   44.6923   84.5027   58.1912 H   0  0  0  0  0  0  0  0  0  0  0  0
   46.5727   85.6065   57.0939 H   0  0  0  0  0  0  0  0  0  0  0  0
   45.8061   82.8862   52.4809 H   0  0  0  0  0  0  0  0  0  0  0  0
   45.7797   83.2915   50.0641 H   0  0  0  0  0  0  0  0  0  0  0  0
   44.8095   85.3308   49.0454 H   0  0  0  0  0  0  0  0  0  0  0  0
   43.8162   87.0397   50.6210 H   0  0  0  0  0  0  0  0  0  0  0  0
   43.8423   86.6394   53.0450 H   0  0  0  0  0  0  0  0  0  0  0  0
  1  6  2  0
  2  3  2  0
  2  1  1  0
  3  4  1  0
  4  5  2  0
  5  8  1  0
  6  5  1  0
  7 15  2  0
  8  7  1  0
  8  9  2  0
  9 10  1  0
 10 14  2  0
 10 11  1  0
 11 12  1  0
 13 12  2  0
 14 13  1  0
 15 14  1  0
 16 17  1  0
 17 18  2  0
 18  3  1  0
 18 19  1  0
 20 19  2  0
 21 20  1  0
 22 21  1  0
 23 17  1  0
 23 21  2  0
 24 23  1  0
 25 24  2  0
 26 25  1  0
 27 26  2  0
 27 28  1  0
 28 29  2  0
 29 24  1  0
  1 30  1  0
  2 31  1  0
  7 32  1  0
  9 33  1  0
 11 34  1  0
 12 35  1  0
 15 36  1  0
 19 37  1  0
 20 38  1  0
 25 39  1  0
 26 40  1  0
 27 41  1  0
 28 42  1  0
 29 43  1  0
M  ISO  8  30  14  31  14  32  14  33  14  34   9  35  14  36  14  37  14
M  ISO  6  38  14  39  14  40  14  41  14  42  14  43  14
M  END
>  <minimizedAffinity>  (1) 
-5.11479044

>  <minimizedRMSD>  (1) 
0.385084182

$$$$
