
     RDKit          3D

 30 32  0  0  0  0  0  0  0  0999 V2000
   41.6530   83.8690   61.4260 C   0  0  0  0  0  0  0  0  0  0  0  0
   41.3580   84.1930   62.7310 C   0  0  0  0  0  0  0  0  0  0  0  0
   40.8570   83.2490   63.6310 C   0  0  0  0  0  0  0  0  0  0  0  0
   40.6520   81.9770   63.2130 N   0  0  0  0  0  0  0  0  0  0  0  0
   40.9410   81.6690   61.9430 C   0  0  0  0  0  0  0  0  0  0  0  0
   41.4330   82.5870   61.0520 N   0  0  0  0  0  0  0  0  0  0  0  0
   43.6820   86.5120   59.9410 C   0  0  0  0  0  0  0  0  0  0  0  0
   43.1130   86.6480   58.6710 C   0  0  0  0  0  0  0  0  0  0  0  0
   42.0270   85.8250   58.3300 C   0  0  0  0  0  0  0  0  0  0  0  0
   41.6160   84.9500   59.2820 N   0  0  0  0  0  0  0  0  0  0  0  0
   42.1730   84.8400   60.4810 C   0  0  0  0  0  0  0  0  0  0  0  0
   43.2100   85.6130   60.8310 N   0  0  0  0  0  0  0  0  0  0  0  0
   44.7700   87.4080   60.1460 N   0  0  0  0  0  0  0  0  0  0  0  0
   40.7220   80.2980   61.4880 C   0  0  0  0  0  0  0  0  0  0  0  0
   40.7770   79.2380   62.3720 C   0  0  0  0  0  0  0  0  0  0  0  0
   40.5700   77.9310   61.9440 C   0  0  0  0  0  0  0  0  0  0  0  0
   40.3120   77.8100   60.5940 C   0  0  0  0  0  0  0  0  0  0  0  0
   40.2410   78.8190   59.6570 C   0  0  0  0  0  0  0  0  0  0  0  0
   40.4580   80.0900   60.1520 C   0  0  0  0  0  0  0  0  0  0  0  0
   41.5214   85.2249   63.0752 H   0  0  0  0  0  0  0  0  0  0  0  0
   40.6313   83.5359   64.6687 H   0  0  0  0  0  0  0  0  0  0  0  0
   43.5073   87.3836   57.9545 H   0  0  0  0  0  0  0  0  0  0  0  0
   41.5375   85.8864   57.3468 H   0  0  0  0  0  0  0  0  0  0  0  0
   45.0507   88.0571   59.3972 H   0  0  0  0  0  0  0  0  0  0  0  0
   45.2761   87.4069   61.0431 H   0  0  0  0  0  0  0  0  0  0  0  0
   40.9884   79.4312   63.4341 H   0  0  0  0  0  0  0  0  0  0  0  0
   40.6087   77.0672   62.6240 H   0  0  0  0  0  0  0  0  0  0  0  0
   40.1432   76.7888   60.2216 H   0  0  0  0  0  0  0  0  0  0  0  0
   40.0276   78.6262   58.5953 H   0  0  0  0  0  0  0  0  0  0  0  0
   40.4194   80.9506   59.4680 H   0  0  0  0  0  0  0  0  0  0  0  0
  1  2  2  0
  2  3  1  0
  4  3  2  0
  5  4  1  0
  6  1  1  0
  6  5  2  0
  7 13  1  0
  7 12  2  0
  8  7  1  0
  9  8  2  0
  9 10  1  0
 10 11  2  0
 11 12  1  0
 11  1  1  0
 14  5  1  0
 14 15  2  0
 16 15  1  0
 17 16  2  0
 18 19  2  0
 18 17  1  0
 19 14  1  0
  2 20  1  0
  3 21  1  0
  8 22  1  0
  9 23  1  0
 13 24  1  0
 13 25  1  0
 15 26  1  0
 16 27  1  0
 17 28  1  0
 18 29  1  0
 19 30  1  0
M  ISO  8  20  14  21  14  22  14  23  14  26  14  27  14  28  14  29  14
M  ISO  1  30  14
M  END
>  <minimizedAffinity>  (1) 
-5.49956131

>  <minimizedRMSD>  (1) 
0.735902369

$$$$
