
     RDKit          3D

 44 48  0  0  1  0  0  0  0  0999 V2000
   39.8030   77.4270   59.1790 C   0  0  0  0  0  0  0  0  0  0  0  0
   40.5270   76.3190   58.8740 C   0  0  0  0  0  0  0  0  0  0  0  0
   39.9780   75.6090   57.7910 C   0  0  0  0  0  0  0  0  0  0  0  0
   38.8660   75.9780   57.1290 N   0  0  0  0  0  0  0  0  0  0  0  0
   38.2170   77.1130   57.5230 C   0  0  0  0  0  0  0  0  0  0  0  0
   38.6980   77.8380   58.5570 N   0  0  0  0  0  0  0  0  0  0  0  0
   40.9880   80.3580   61.7590 C   0  0  0  0  0  0  0  0  0  0  0  0
   40.9880   79.1180   62.3450 C   0  0  0  0  0  0  0  0  0  0  0  0
   40.6170   78.0610   61.6010 C   0  0  0  0  0  0  0  0  0  0  0  0
   40.2500   78.2640   60.2750 C   0  0  0  0  0  0  0  0  0  0  0  0
   40.4380   80.0790   60.0490 S   0  0  0  0  0  0  0  0  0  0  0  0
   43.0480   83.1620   62.9230 C   0  0  0  0  0  0  0  0  0  0  0  0
   42.1410   83.9120   63.7180 C   0  0  0  0  0  0  0  0  0  0  0  0
   40.8200   83.4510   63.8490 C   0  0  0  0  0  0  0  0  0  0  0  0
   40.4750   82.3110   63.2090 N   0  0  0  0  0  0  0  0  0  0  0  0
   41.3710   81.6160   62.4530 C   0  0  0  0  0  0  0  0  0  0  0  0
   42.6270   82.0500   62.3270 N   0  0  0  0  0  0  0  0  0  0  0  0
   37.0260   77.4970   56.7920 C   0  0  0  0  0  0  0  0  0  0  0  0
   35.9480   77.0070   57.1580 O   0  0  0  0  0  0  0  0  0  0  0  0
   37.0690   78.4460   55.6190 C   0  0  1  0  0  0  0  0  0  0  0  0
   37.2540   79.8840   56.0310 C   0  0  0  0  0  0  0  0  0  0  0  0
   38.2960   79.1540   55.3080 C   0  0  2  0  0  0  0  0  0  0  0  0
   38.6220   79.5980   53.9250 C   0  0  0  0  0  0  0  0  0  0  0  0
   37.5950   79.8500   53.0230 C   0  0  0  0  0  0  0  0  0  0  0  0
   37.8380   80.2640   51.7280 C   0  0  0  0  0  0  0  0  0  0  0  0
   39.1470   80.4280   51.3270 C   0  0  0  0  0  0  0  0  0  0  0  0
   40.1790   80.1770   52.2250 C   0  0  0  0  0  0  0  0  0  0  0  0
   39.9390   79.7670   53.5090 C   0  0  0  0  0  0  0  0  0  0  0  0
   41.4366   76.0126   59.4113 H   0  0  0  0  0  0  0  0  0  0  0  0
   40.4910   74.6925   57.4639 H   0  0  0  0  0  0  0  0  0  0  0  0
   41.2839   78.9913   63.3968 H   0  0  0  0  0  0  0  0  0  0  0  0
   40.6040   77.0503   62.0350 H   0  0  0  0  0  0  0  0  0  0  0  0
   44.0885   83.4975   62.8014 H   0  0  0  0  0  0  0  0  0  0  0  0
   42.4659   84.8348   64.2209 H   0  0  0  0  0  0  0  0  0  0  0  0
   40.0866   84.0025   64.4556 H   0  0  0  0  0  0  0  0  0  0  0  0
   36.3787   77.8487   55.0052 H   0  0  0  0  0  0  0  0  0  0  0  0
   36.6864   80.6817   55.5295 H   0  0  0  0  0  0  0  0  0  0  0  0
   37.1974   80.4456   56.9751 H   0  0  0  0  0  0  0  0  0  0  0  0
   39.3543   78.9098   55.4823 H   0  0  0  0  0  0  0  0  0  0  0  0
   36.5539   79.7152   53.3515 H   0  0  0  0  0  0  0  0  0  0  0  0
   37.0075   80.4582   51.0334 H   0  0  0  0  0  0  0  0  0  0  0  0
   39.3740   80.7558   50.3018 H   0  0  0  0  0  0  0  0  0  0  0  0
   41.2192   80.3119   51.8936 H   0  0  0  0  0  0  0  0  0  0  0  0
   40.7730   79.5745   54.1999 H   0  0  0  0  0  0  0  0  0  0  0  0
  1 10  1  0
  2  1  2  0
  3  2  1  0
  4  5  1  0
  4  3  2  0
  5  6  2  0
  6  1  1  0
  7  8  2  0
  7 16  1  0
  9  8  1  0
 10  9  2  0
 11 10  1  0
 11  7  1  0
 12 13  2  0
 13 14  1  0
 15 14  2  0
 16 15  1  0
 17 16  2  0
 17 12  1  0
 18 19  2  0
 18  5  1  0
 20 21  1  0
 20 18  1  0
 22 20  1  0
 22 21  1  0
 23 22  1  0
 24 23  2  0
 25 24  1  0
 26 25  2  0
 26 27  1  0
 27 28  2  0
 28 23  1  0
  2 29  1  0
  3 30  1  0
  8 31  1  0
  9 32  1  0
 12 33  1  0
 13 34  1  0
 14 35  1  0
 20 36  1  6
 21 37  1  0
 21 38  1  0
 22 39  1  1
 24 40  1  0
 25 41  1  0
 26 42  1  0
 27 43  1  0
 28 44  1  0
M  ISO  8  29  14  30  14  31  14  32  14  33  14  34  14  35  14  36  13
M  ISO  8  37  13  38  13  39  13  40  14  41  14  42  14  43  14  44  14
M  END
>  <minimizedAffinity>  (1) 
-6.53146982

>  <minimizedRMSD>  (1) 
0.33127889

$$$$
