
     RDKit          3D

 20 21  0  0  0  0  0  0  0  0999 V2000
   39.9060   81.8710   61.0180 C   0  0  0  0  0  0  0  0  0  0  0  0
   40.1200   82.6240   59.8550 C   0  0  0  0  0  0  0  0  0  0  0  0
   39.6810   83.9450   59.7820 C   0  0  0  0  0  0  0  0  0  0  0  0
   39.0530   84.4330   60.8830 N   0  0  0  0  0  0  0  0  0  0  0  0
   38.8550   83.6980   61.9890 C   0  0  0  0  0  0  0  0  0  0  0  0
   39.2800   82.4120   62.0670 N   0  0  0  0  0  0  0  0  0  0  0  0
   40.3470   80.4860   61.1390 C   0  0  0  0  0  0  0  0  0  0  0  0
   40.2680   79.6810   60.0350 C   0  0  0  0  0  0  0  0  0  0  0  0
   40.6660   78.3410   60.0520 C   0  0  0  0  0  0  0  0  0  0  0  0
   41.1660   77.7820   61.2220 C   0  0  0  0  0  0  0  0  0  0  0  0
   41.2490   78.5890   62.3380 C   0  0  0  0  0  0  0  0  0  0  0  0
   40.8470   79.9030   62.2830 C   0  0  0  0  0  0  0  0  0  0  0  0
   40.6366   82.1704   58.9963 H   0  0  0  0  0  0  0  0  0  0  0  0
   39.8348   84.5586   58.8821 H   0  0  0  0  0  0  0  0  0  0  0  0
   38.3377   84.1477   62.8493 H   0  0  0  0  0  0  0  0  0  0  0  0
   39.8763   80.1046   59.0984 H   0  0  0  0  0  0  0  0  0  0  0  0
   40.5836   77.7301   59.1409 H   0  0  0  0  0  0  0  0  0  0  0  0
   41.4853   76.7300   61.2572 H   0  0  0  0  0  0  0  0  0  0  0  0
   41.6402   78.1777   63.2802 H   0  0  0  0  0  0  0  0  0  0  0  0
   40.9282   80.5159   63.1928 H   0  0  0  0  0  0  0  0  0  0  0  0
  1  7  1  0
  1  6  1  0
  2  1  2  0
  3  2  1  0
  3  4  2  0
  4  5  1  0
  5  6  2  0
  7 12  2  0
  8  9  2  0
  8  7  1  0
  9 10  1  0
 10 11  2  0
 12 11  1  0
  2 13  1  0
  3 14  1  0
  5 15  1  0
  8 16  1  0
  9 17  1  0
 10 18  1  0
 11 19  1  0
 12 20  1  0
M  ISO  8  13  14  14  14  15  14  16  14  17  14  18  14  19  14  20  14
M  END
>  <minimizedAffinity>  (1) 
-4.62585926

>  <minimizedRMSD>  (1) 
0.542866647

$$$$
