
     RDKit          3D

 20 21  0  0  0  0  0  0  0  0999 V2000
   40.3000   81.6640   61.3040 C   0  0  0  0  0  0  0  0  0  0  0  0
   41.1910   82.5260   60.6090 C   0  0  0  0  0  0  0  0  0  0  0  0
   40.9310   83.8950   60.6340 C   0  0  0  0  0  0  0  0  0  0  0  0
   39.8470   84.3400   61.3160 N   0  0  0  0  0  0  0  0  0  0  0  0
   39.0150   83.4810   61.9710 C   0  0  0  0  0  0  0  0  0  0  0  0
   39.2400   82.1570   61.9650 N   0  0  0  0  0  0  0  0  0  0  0  0
   41.7730   84.8740   59.9590 C   0  0  0  0  0  0  0  0  0  0  0  0
   41.3290   85.3440   58.7410 C   0  0  0  0  0  0  0  0  0  0  0  0
   42.0550   86.2840   58.0080 C   0  0  0  0  0  0  0  0  0  0  0  0
   43.2410   86.7200   58.5630 C   0  0  0  0  0  0  0  0  0  0  0  0
   43.7300   86.2730   59.7930 C   0  0  0  0  0  0  0  0  0  0  0  0
   42.9500   85.3410   60.4550 C   0  0  0  0  0  0  0  0  0  0  0  0
   40.4810   80.5790   61.3004 H   0  0  0  0  0  0  0  0  0  0  0  0
   42.0602   82.1245   60.0674 H   0  0  0  0  0  0  0  0  0  0  0  0
   38.1448   83.8792   62.5135 H   0  0  0  0  0  0  0  0  0  0  0  0
   40.3776   84.9682   58.3365 H   0  0  0  0  0  0  0  0  0  0  0  0
   41.6997   86.6586   57.0367 H   0  0  0  0  0  0  0  0  0  0  0  0
   43.8341   87.4604   58.0061 H   0  0  0  0  0  0  0  0  0  0  0  0
   44.6791   86.6402   60.2107 H   0  0  0  0  0  0  0  0  0  0  0  0
   43.2979   84.9606   61.4267 H   0  0  0  0  0  0  0  0  0  0  0  0
  1  6  2  0
  2  3  2  0
  2  1  1  0
  3  4  1  0
  4  5  2  0
  6  5  1  0
  7 12  1  0
  7  3  1  0
  8  7  2  0
  9 10  2  0
  9  8  1  0
 10 11  1  0
 11 12  2  0
  1 13  1  0
  2 14  1  0
  5 15  1  0
  8 16  1  0
  9 17  1  0
 10 18  1  0
 11 19  1  0
 12 20  1  0
M  ISO  8  13  14  14  14  15  14  16  14  17  14  18  14  19  14  20  14
M  END
>  <minimizedAffinity>  (1) 
-3.90900469

>  <minimizedRMSD>  (1) 
2.56289554

$$$$
