
     RDKit          3D

 40 43  0  0  1  0  0  0  0  0999 V2000
   39.7450   77.2620   59.2330 C   0  0  0  0  0  0  0  0  0  0  0  0
   40.4140   76.1120   58.9880 C   0  0  0  0  0  0  0  0  0  0  0  0
   39.8570   75.3800   57.9260 C   0  0  0  0  0  0  0  0  0  0  0  0
   38.7760   75.7760   57.2250 N   0  0  0  0  0  0  0  0  0  0  0  0
   38.1770   76.9570   57.5580 C   0  0  0  0  0  0  0  0  0  0  0  0
   38.6700   77.7050   58.5720 N   0  0  0  0  0  0  0  0  0  0  0  0
   40.9770   80.2420   61.7320 C   0  0  0  0  0  0  0  0  0  0  0  0
   40.9590   79.0190   62.3520 C   0  0  0  0  0  0  0  0  0  0  0  0
   40.5710   77.9470   61.6360 C   0  0  0  0  0  0  0  0  0  0  0  0
   40.2050   78.1240   60.3040 C   0  0  0  0  0  0  0  0  0  0  0  0
   40.4210   79.9260   60.0310 S   0  0  0  0  0  0  0  0  0  0  0  0
   43.0740   83.0550   62.8080 C   0  0  0  0  0  0  0  0  0  0  0  0
   42.1820   83.8260   63.6000 C   0  0  0  0  0  0  0  0  0  0  0  0
   40.8710   83.3820   63.7580 C   0  0  0  0  0  0  0  0  0  0  0  0
   40.4940   82.2270   63.1480 N   0  0  0  0  0  0  0  0  0  0  0  0
   41.3820   81.5120   62.3940 C   0  0  0  0  0  0  0  0  0  0  0  0
   42.6390   81.9290   62.2370 N   0  0  0  0  0  0  0  0  0  0  0  0
   37.0230   77.3650   56.7820 C   0  0  0  0  0  0  0  0  0  0  0  0
   35.9030   77.0720   57.2270 O   0  0  0  0  0  0  0  0  0  0  0  0
   37.1570   78.1110   55.4740 C   0  0  1  0  0  0  0  0  0  0  0  0
   37.4310   79.5830   55.6650 C   0  0  0  0  0  0  0  0  0  0  0  0
   38.4260   78.6850   55.0910 C   0  0  2  0  0  0  0  0  0  0  0  0
   38.7890   78.7200   53.7500 O   0  0  0  0  0  0  0  0  0  0  0  0
   38.0540   79.1950   51.3160 O   0  0  0  0  0  0  0  0  0  0  0  0
   37.5760   79.2930   52.7560 P   0  0  0  0  0  0  0  0  0  0  0  0
   36.1000   78.4930   52.9630 O   0  0  0  0  0  0  0  0  0  0  0  0
   37.3000   80.9520   53.0490 O   0  0  0  0  0  0  0  0  0  0  0  0
   41.2968   75.7859   59.5575 H   0  0  0  0  0  0  0  0  0  0  0  0
   40.3315   74.4267   57.6501 H   0  0  0  0  0  0  0  0  0  0  0  0
   41.2539   78.9166   63.4068 H   0  0  0  0  0  0  0  0  0  0  0  0
   40.5435   76.9479   62.0954 H   0  0  0  0  0  0  0  0  0  0  0  0
   44.1144   83.3827   62.6662 H   0  0  0  0  0  0  0  0  0  0  0  0
   42.5200   84.7564   64.0797 H   0  0  0  0  0  0  0  0  0  0  0  0
   40.1545   83.9551   64.3648 H   0  0  0  0  0  0  0  0  0  0  0  0
   36.4438   77.4655   54.9405 H   0  0  0  0  0  0  0  0  0  0  0  0
   36.9257   80.3280   55.0329 H   0  0  0  0  0  0  0  0  0  0  0  0
   37.3990   80.2875   56.5092 H   0  0  0  0  0  0  0  0  0  0  0  0
   39.4793   78.4875   55.3391 H   0  0  0  0  0  0  0  0  0  0  0  0
   35.9125   78.3914   53.9297 H   0  0  0  0  0  0  0  0  0  0  0  0
   37.2729   81.1147   54.0252 H   0  0  0  0  0  0  0  0  0  0  0  0
  1 10  1  0
  2  1  2  0
  3  2  1  0
  4  5  1  0
  4  3  2  0
  5  6  2  0
  6  1  1  0
  7  8  2  0
  7 16  1  0
  9  8  1  0
 10  9  2  0
 11 10  1  0
 11  7  1  0
 12 13  2  0
 13 14  1  0
 15 14  2  0
 16 15  1  0
 17 16  2  0
 17 12  1  0
 18 19  2  0
 18  5  1  0
 20 21  1  0
 20 18  1  0
 22 20  1  0
 22 21  1  0
 23 22  1  0
 24 25  2  0
 25 26  1  0
 25 27  1  0
 25 23  1  0
  2 28  1  0
  3 29  1  0
  8 30  1  0
  9 31  1  0
 12 32  1  0
 13 33  1  0
 14 34  1  0
 20 35  1  6
 21 36  1  0
 21 37  1  0
 22 38  1  1
 26 39  1  0
 27 40  1  0
M  ISO  8  28  14  29  14  30  14  31  14  32  14  33  14  34  14  35  13
M  ISO  5  36  13  37  13  38  13  39   3  40   3
M  END
>  <minimizedAffinity>  (1) 
-6.66689062

>  <minimizedRMSD>  (1) 
0.370652229

$$$$
