
     RDKit          3D

 23 24  0  0  0  0  0  0  0  0999 V2000
   39.4910   82.6630   61.5220 C   0  0  0  0  0  0  0  0  0  0  0  0
   40.6030   82.2190   60.7870 C   0  0  0  0  0  0  0  0  0  0  0  0
   41.8790   82.4700   61.3100 C   0  0  0  0  0  0  0  0  0  0  0  0
   41.9640   83.1300   62.5010 N   0  0  0  0  0  0  0  0  0  0  0  0
   40.8820   83.5370   63.1700 C   0  0  0  0  0  0  0  0  0  0  0  0
   39.6440   83.3050   62.6830 N   0  0  0  0  0  0  0  0  0  0  0  0
   40.4180   81.5350   59.5480 N   0  0  0  0  0  0  0  0  0  0  0  0
   40.3060   80.2210   59.6620 C   0  0  0  0  0  0  0  0  0  0  0  0
   40.1230   79.4670   58.5100 C   0  0  0  0  0  0  0  0  0  0  0  0
   40.0630   80.1120   57.2770 C   0  0  0  0  0  0  0  0  0  0  0  0
   39.9000   79.5110   56.1880 O   0  0  0  0  0  0  0  0  0  0  0  0
   40.1850   81.4710   57.2360 N   0  0  0  0  0  0  0  0  0  0  0  0
   40.3660   82.2050   58.3740 C   0  0  0  0  0  0  0  0  0  0  0  0
   40.4770   83.4390   58.3400 O   0  0  0  0  0  0  0  0  0  0  0  0
   41.0440   84.2480   64.4570 C   0  0  0  0  0  0  0  0  0  0  0  0
   42.3120   84.1600   64.9680 F   0  0  0  0  0  0  0  0  0  0  0  0
   40.7340   85.6040   64.3070 F   0  0  0  0  0  0  0  0  0  0  0  0
   40.1390   83.7330   65.3650 F   0  0  0  0  0  0  0  0  0  0  0  0
   38.4780   82.4788   61.1349 H   0  0  0  0  0  0  0  0  0  0  0  0
   42.7843   82.1447   60.7764 H   0  0  0  0  0  0  0  0  0  0  0  0
   40.3568   79.7365   60.6482 H   0  0  0  0  0  0  0  0  0  0  0  0
   40.0266   78.3729   58.5707 H   0  0  0  0  0  0  0  0  0  0  0  0
   40.1396   81.9536   56.3272 H   0  0  0  0  0  0  0  0  0  0  0  0
  1  6  2  0
  2  3  2  0
  2  1  1  0
  3  4  1  0
  4  5  2  0
  5 15  1  0
  6  5  1  0
  7  8  1  0
  7  2  1  0
  9  8  2  0
 10  9  1  0
 11 10  2  0
 12 10  1  0
 12 13  1  0
 13  7  1  0
 14 13  2  0
 15 16  1  0
 15 18  1  0
 17 15  1  0
  1 19  1  0
  3 20  1  0
  8 21  1  0
  9 22  1  0
 12 23  1  0
M  ISO  5  19  14  20  14  21  14  22  14  23   9
M  END
>  <minimizedAffinity>  (1) 
-5.15214729

>  <minimizedRMSD>  (1) 
2.28152466

$$$$
