
     RDKit          3D

 13 13  0  0  0  0  0  0  0  0999 V2000
   40.0220   81.8580   61.0660 C   0  0  0  0  0  0  0  0  0  0  0  0
   40.3650   82.7060   59.9910 C   0  0  0  0  0  0  0  0  0  0  0  0
   39.8610   84.0080   59.9830 C   0  0  0  0  0  0  0  0  0  0  0  0
   39.0640   84.3960   61.0140 N   0  0  0  0  0  0  0  0  0  0  0  0
   38.7530   83.5520   62.0350 C   0  0  0  0  0  0  0  0  0  0  0  0
   39.2310   82.3010   62.0510 N   0  0  0  0  0  0  0  0  0  0  0  0
   40.1610   84.9840   58.8980 C   0  0  0  0  0  0  0  0  0  0  0  0
   41.1840   85.8450   59.2500 F   0  0  0  0  0  0  0  0  0  0  0  0
   40.6170   84.3240   57.7560 F   0  0  0  0  0  0  0  0  0  0  0  0
   39.0500   85.7570   58.6340 F   0  0  0  0  0  0  0  0  0  0  0  0
   40.4066   80.8278   61.0945 H   0  0  0  0  0  0  0  0  0  0  0  0
   41.0146   82.3492   59.1781 H   0  0  0  0  0  0  0  0  0  0  0  0
   38.1046   83.8995   62.8528 H   0  0  0  0  0  0  0  0  0  0  0  0
  1  6  2  0
  2  1  1  0
  3  2  2  0
  3  4  1  0
  4  5  2  0
  5  6  1  0
  7  8  1  0
  7  3  1  0
  9  7  1  0
 10  7  1  0
  1 11  1  0
  2 12  1  0
  5 13  1  0
M  ISO  3  11  14  12  14  13  14
M  END
>  <minimizedAffinity>  (1) 
-3.83893418

>  <minimizedRMSD>  (1) 
0.486427963

$$$$
