
     RDKit          3D

 30 32  0  0  1  0  0  0  0  0999 V2000
   43.3140   84.8200   61.2120 C   0  0  0  0  0  0  0  0  0  0  0  0
   44.1890   84.0610   61.9610 C   0  0  0  0  0  0  0  0  0  0  0  0
   43.7220   83.1190   62.8730 C   0  0  0  0  0  0  0  0  0  0  0  0
   42.3970   82.9380   63.0340 N   0  0  0  0  0  0  0  0  0  0  0  0
   41.5590   83.6940   62.2870 C   0  0  0  0  0  0  0  0  0  0  0  0
   41.9810   84.6160   61.3930 N   0  0  0  0  0  0  0  0  0  0  0  0
   44.4730   86.4090   58.1360 C   0  0  0  0  0  0  0  0  0  0  0  0
   44.6560   87.7270   58.5260 C   0  0  0  0  0  0  0  0  0  0  0  0
   44.3870   88.0840   59.8370 C   0  0  0  0  0  0  0  0  0  0  0  0
   43.9530   87.0900   60.6580 N   0  0  0  0  0  0  0  0  0  0  0  0
   43.7820   85.8190   60.2570 C   0  0  0  0  0  0  0  0  0  0  0  0
   44.0370   85.4670   59.0060 N   0  0  0  0  0  0  0  0  0  0  0  0
   44.7960   86.1810   56.7600 N   0  0  0  0  0  0  0  0  0  0  0  0
   40.0940   83.4640   62.5120 C   0  0  1  0  0  0  0  0  0  0  0  0
   39.1070   83.8660   61.5370 C   0  0  0  0  0  0  0  0  0  0  0  0
   39.5260   82.4330   61.5110 C   0  0  1  0  0  0  0  0  0  0  0  0
   40.3390   81.9990   60.3480 C   0  0  0  0  0  0  0  0  0  0  0  0
   40.5920   83.1250   59.5590 F   0  0  0  0  0  0  0  0  0  0  0  0
   41.5710   81.5300   60.7500 F   0  0  0  0  0  0  0  0  0  0  0  0
   39.7130   81.1040   59.5160 F   0  0  0  0  0  0  0  0  0  0  0  0
   45.2726   84.2024   61.8356 H   0  0  0  0  0  0  0  0  0  0  0  0
   44.4345   82.5227   63.4619 H   0  0  0  0  0  0  0  0  0  0  0  0
   45.0097   88.4783   57.8046 H   0  0  0  0  0  0  0  0  0  0  0  0
   44.5173   89.1159   60.1950 H   0  0  0  0  0  0  0  0  0  0  0  0
   44.6985   85.2379   56.3575 H   0  0  0  0  0  0  0  0  0  0  0  0
   45.1259   86.9601   56.1725 H   0  0  0  0  0  0  0  0  0  0  0  0
   40.1486   83.6375   63.5969 H   0  0  0  0  0  0  0  0  0  0  0  0
   38.0919   84.1260   61.8715 H   0  0  0  0  0  0  0  0  0  0  0  0
   39.0745   84.6591   60.7755 H   0  0  0  0  0  0  0  0  0  0  0  0
   39.0549   81.4429   61.5989 H   0  0  0  0  0  0  0  0  0  0  0  0
  1  6  1  0
  1  2  2  0
  2  3  1  0
  3  4  2  0
  5 14  1  0
  5  4  1  0
  6  5  2  0
  7  8  2  0
  7 12  1  0
  8  9  1  0
  9 10  2  0
 11 10  1  0
 11  1  1  0
 12 11  2  0
 13  7  1  0
 15 14  1  0
 16 15  1  0
 16 14  1  0
 17 19  1  0
 17 16  1  0
 18 17  1  0
 20 17  1  0
  2 21  1  0
  3 22  1  0
  8 23  1  0
  9 24  1  0
 13 25  1  0
 13 26  1  0
 14 27  1  1
 15 28  1  0
 15 29  1  0
 16 30  1  1
M  ISO  8  21  14  22  14  23  14  24  14  27  13  28  13  29  13  30  13
M  END
>  <minimizedAffinity>  (1) 
-5.13489437

>  <minimizedRMSD>  (1) 
2.922647

$$$$
