
     RDKit          3D

 13 13  0  0  0  0  0  0  0  0999 V2000
   39.4340   85.4690   59.0810 C   0  0  0  0  0  0  0  0  0  0  0  0
   40.7980   85.5090   58.7640 C   0  0  0  0  0  0  0  0  0  0  0  0
   41.6760   84.7900   59.5870 C   0  0  0  0  0  0  0  0  0  0  0  0
   41.1680   84.0890   60.6500 N   0  0  0  0  0  0  0  0  0  0  0  0
   39.8390   84.0850   60.9110 C   0  0  0  0  0  0  0  0  0  0  0  0
   38.9820   84.7730   60.1260 N   0  0  0  0  0  0  0  0  0  0  0  0
   39.2720   83.3300   62.0590 C   0  0  0  0  0  0  0  0  0  0  0  0
   37.9500   83.6420   62.3020 F   0  0  0  0  0  0  0  0  0  0  0  0
   40.0000   83.6170   63.2090 F   0  0  0  0  0  0  0  0  0  0  0  0
   39.4630   81.9870   61.8030 F   0  0  0  0  0  0  0  0  0  0  0  0
   38.7198   86.0236   58.4546 H   0  0  0  0  0  0  0  0  0  0  0  0
   41.1664   86.0833   57.9012 H   0  0  0  0  0  0  0  0  0  0  0  0
   42.7569   84.7883   59.3828 H   0  0  0  0  0  0  0  0  0  0  0  0
  1  6  2  0
  2  1  1  0
  2  3  2  0
  3  4  1  0
  4  5  2  0
  5  7  1  0
  6  5  1  0
  7  8  1  0
  7  9  1  0
 10  7  1  0
  1 11  1  0
  2 12  1  0
  3 13  1  0
M  ISO  3  11  14  12  14  13  14
M  END
>  <minimizedAffinity>  (1) 
-4.20905972

>  <minimizedRMSD>  (1) 
2.49447894

$$$$
