
     RDKit          3D

 26 28  0  0  0  0  0  0  0  0999 V2000
   39.5070   83.0780   61.0880 C   0  0  0  0  0  0  0  0  0  0  0  0
   40.7890   83.0790   60.5120 C   0  0  0  0  0  0  0  0  0  0  0  0
   41.8940   83.4550   61.2490 C   0  0  0  0  0  0  0  0  0  0  0  0
   41.7670   83.8430   62.5770 C   0  0  0  0  0  0  0  0  0  0  0  0
   42.6090   84.2550   63.5520 N   0  0  0  0  0  0  0  0  0  0  0  0
   41.9080   84.5020   64.6750 C   0  0  0  0  0  0  0  0  0  0  0  0
   40.6060   84.2280   64.3650 N   0  0  0  0  0  0  0  0  0  0  0  0
   40.5040   83.8270   63.0950 C   0  0  0  0  0  0  0  0  0  0  0  0
   39.3570   83.4610   62.4150 C   0  0  0  0  0  0  0  0  0  0  0  0
   40.4860   81.1150   57.4340 C   0  0  0  0  0  0  0  0  0  0  0  0
   41.1300   81.9310   56.4750 C   0  0  0  0  0  0  0  0  0  0  0  0
   41.6550   83.1410   56.9140 C   0  0  0  0  0  0  0  0  0  0  0  0
   41.5310   83.4880   58.2250 N   0  0  0  0  0  0  0  0  0  0  0  0
   40.9000   82.6710   59.1220 C   0  0  0  0  0  0  0  0  0  0  0  0
   40.3920   81.5060   58.7120 N   0  0  0  0  0  0  0  0  0  0  0  0
   42.3370   84.0180   55.9300 C   0  0  0  0  0  0  0  0  0  0  0  0
   43.6700   84.1740   56.1660 F   0  0  0  0  0  0  0  0  0  0  0  0
   42.1750   83.4900   54.6580 F   0  0  0  0  0  0  0  0  0  0  0  0
   41.6870   85.2510   55.9880 F   0  0  0  0  0  0  0  0  0  0  0  0
   38.6313   82.7770   60.4942 H   0  0  0  0  0  0  0  0  0  0  0  0
   42.8883   83.4473   60.7786 H   0  0  0  0  0  0  0  0  0  0  0  0
   43.6283   84.3631   63.4512 H   0  0  0  0  0  0  0  0  0  0  0  0
   42.3018   84.8516   65.6408 H   0  0  0  0  0  0  0  0  0  0  0  0
   38.3709   83.4726   62.9024 H   0  0  0  0  0  0  0  0  0  0  0  0
   40.0578   80.1493   57.1274 H   0  0  0  0  0  0  0  0  0  0  0  0
   41.2122   81.6204   55.4230 H   0  0  0  0  0  0  0  0  0  0  0  0
  1  9  2  0
  2  1  1  0
  2  3  2  0
  3  4  1  0
  4  8  2  0
  4  5  1  0
  5  6  1  0
  7  6  2  0
  8  7  1  0
  9  8  1  0
 10 15  2  0
 11 12  2  0
 11 10  1  0
 12 13  1  0
 13 14  2  0
 14  2  1  0
 15 14  1  0
 16 19  1  0
 16 17  1  0
 16 12  1  0
 18 16  1  0
  1 20  1  0
  3 21  1  0
  5 22  1  0
  6 23  1  0
  9 24  1  0
 10 25  1  0
 11 26  1  0
M  ISO  7  20  14  21  14  22   9  23  14  24  14  25  14  26  14
M  END
>  <minimizedAffinity>  (1) 
-4.90193176

>  <minimizedRMSD>  (1) 
0.294513792

$$$$
