
     RDKit          3D

 15 15  0  0  0  0  0  0  0  0999 V2000
   39.7720   84.0110   61.1400 C   0  0  0  0  0  0  0  0  0  0  0  0
   39.7450   83.4510   62.4300 C   0  0  0  0  0  0  0  0  0  0  0  0
   40.9450   83.4420   63.1800 C   0  0  0  0  0  0  0  0  0  0  0  0
   42.0400   83.9760   62.5980 N   0  0  0  0  0  0  0  0  0  0  0  0
   42.0440   84.5030   61.3710 C   0  0  0  0  0  0  0  0  0  0  0  0
   40.9070   84.5240   60.6300 N   0  0  0  0  0  0  0  0  0  0  0  0
   43.2080   85.0420   60.8190 O   0  0  0  0  0  0  0  0  0  0  0  0
   44.1000   85.8290   61.5390 C   0  0  0  0  0  0  0  0  0  0  0  0
   44.1670   87.0600   61.8480 O   0  0  0  0  0  0  0  0  0  0  0  0
   45.1750   85.0190   62.0210 N   0  0  0  0  0  0  0  0  0  0  0  0
   38.8511   84.0300   60.5386 H   0  0  0  0  0  0  0  0  0  0  0  0
   38.8165   83.0315   62.8445 H   0  0  0  0  0  0  0  0  0  0  0  0
   40.9840   83.0179   64.1942 H   0  0  0  0  0  0  0  0  0  0  0  0
   45.9304   85.4438   62.5777 H   0  0  0  0  0  0  0  0  0  0  0  0
   45.1941   84.0107   61.8116 H   0  0  0  0  0  0  0  0  0  0  0  0
  1  2  2  0
  2  3  1  0
  4  3  2  0
  5  4  1  0
  6  1  1  0
  6  5  2  0
  7  5  1  0
  7  8  1  0
  8  9  2  0
  8 10  1  0
  1 11  1  0
  2 12  1  0
  3 13  1  0
 10 14  1  0
 10 15  1  0
M  ISO  3  11  14  12  14  13  14
M  END
>  <minimizedAffinity>  (1) 
-3.52375674

>  <minimizedRMSD>  (1) 
5.08708239

$$$$
