
     RDKit          3D

 32 33  0  0  0  0  0  0  0  0999 V2000
   43.0610   84.0120   58.5840 Cl  0  0  0  0  0  0  0  0  0  0  0  0
   41.8660   82.8000   58.1960 C   0  0  0  0  0  0  0  0  0  0  0  0
   41.0070   82.2540   59.1400 C   0  0  0  0  0  0  0  0  0  0  0  0
   40.1170   81.3060   58.6820 C   0  0  0  0  0  0  0  0  0  0  0  0
   39.9940   80.8510   57.3960 C   0  0  0  0  0  0  0  0  0  0  0  0
   40.8560   81.4100   56.4930 C   0  0  0  0  0  0  0  0  0  0  0  0
   40.8130   80.9200   54.7960 Cl  0  0  0  0  0  0  0  0  0  0  0  0
   41.7830   82.3750   56.8870 C   0  0  0  0  0  0  0  0  0  0  0  0
   41.9550   82.1780   61.5010 C   0  0  0  0  0  0  0  0  0  0  0  0
   41.0980   82.6960   60.4850 C   0  0  0  0  0  0  0  0  0  0  0  0
   40.2680   83.7380   60.8490 C   0  0  0  0  0  0  0  0  0  0  0  0
   40.3370   84.1820   62.1400 N   0  0  0  0  0  0  0  0  0  0  0  0
   41.1520   83.6760   63.0670 C   0  0  0  0  0  0  0  0  0  0  0  0
   41.9850   82.6450   62.7410 N   0  0  0  0  0  0  0  0  0  0  0  0
   41.0700   84.3020   64.4020 C   0  0  0  0  0  0  0  0  0  0  0  0
   40.7380   85.6360   64.3360 F   0  0  0  0  0  0  0  0  0  0  0  0
   40.1210   83.6550   65.1840 F   0  0  0  0  0  0  0  0  0  0  0  0
   42.3250   84.2650   65.0470 F   0  0  0  0  0  0  0  0  0  0  0  0
   42.6340   82.9140   55.9380 O   0  0  0  0  0  0  0  0  0  0  0  0
   42.3500   84.1020   55.2240 C   0  0  0  0  0  0  0  0  0  0  0  0
   43.6030   84.7170   54.9430 O   0  0  0  0  0  0  0  0  0  0  0  0
   44.2460   84.5930   53.7440 C   0  0  0  0  0  0  0  0  0  0  0  0
   45.0710   83.6940   53.5250 O   0  0  0  0  0  0  0  0  0  0  0  0
   43.8260   85.6280   52.8350 N   0  0  0  0  0  0  0  0  0  0  0  0
   39.4349   80.8698   59.4266 H   0  0  0  0  0  0  0  0  0  0  0  0
   39.2538   80.0894   57.1094 H   0  0  0  0  0  0  0  0  0  0  0  0
   42.6268   81.3466   61.2414 H   0  0  0  0  0  0  0  0  0  0  0  0
   39.5761   84.1944   60.1259 H   0  0  0  0  0  0  0  0  0  0  0  0
   41.8247   83.8653   54.2869 H   0  0  0  0  0  0  0  0  0  0  0  0
   41.7019   84.7712   55.8090 H   0  0  0  0  0  0  0  0  0  0  0  0
   44.2219   85.6710   51.8851 H   0  0  0  0  0  0  0  0  0  0  0  0
   43.1297   86.3253   53.1348 H   0  0  0  0  0  0  0  0  0  0  0  0
  2  1  1  0
  2  3  2  0
  3 10  1  0
  4  3  1  0
  5  4  2  0
  6  8  2  0
  6  5  1  0
  7  6  1  0
  8  2  1  0
  9 14  2  0
 10 11  2  0
 10  9  1  0
 11 12  1  0
 12 13  2  0
 13 15  1  0
 14 13  1  0
 15 18  1  0
 15 17  1  0
 16 15  1  0
 19  8  1  0
 20 19  1  0
 21 20  1  0
 22 21  1  0
 23 22  2  0
 24 22  1  0
  4 25  1  0
  5 26  1  0
  9 27  1  0
 11 28  1  0
 20 29  1  0
 20 30  1  0
 24 31  1  0
 24 32  1  0
M  ISO  6  25  14  26  14  27  14  28  14  29   8  30   8
M  END
>  <minimizedAffinity>  (1) 
-5.08335352

>  <minimizedRMSD>  (1) 
0.580704391

$$$$
