
     RDKit          3D

 23 24  0  0  1  0  0  0  0  0999 V2000
   43.6230   85.1760   60.5770 C   0  0  1  0  0  0  0  0  0  0  0  0
   44.1490   85.0530   59.1510 C   0  0  0  0  0  0  0  0  0  0  0  0
   43.0100   85.9940   59.5180 C   0  0  1  0  0  0  0  0  0  0  0  0
   42.9720   83.9890   60.9930 O   0  0  0  0  0  0  0  0  0  0  0  0
   40.0320   83.5440   63.0490 C   0  0  0  0  0  0  0  0  0  0  0  0
   40.4960   83.9170   64.3100 C   0  0  0  0  0  0  0  0  0  0  0  0
   41.8660   84.3290   64.4180 C   0  0  0  0  0  0  0  0  0  0  0  0
   42.5670   84.3100   63.2740 N   0  0  0  0  0  0  0  0  0  0  0  0
   42.1300   83.9540   62.0680 C   0  0  0  0  0  0  0  0  0  0  0  0
   40.8660   83.5720   61.9530 N   0  0  0  0  0  0  0  0  0  0  0  0
   41.7140   85.6260   59.1230 O   0  0  0  0  0  0  0  0  0  0  0  0
   41.4410   84.9540   57.9380 C   0  0  0  0  0  0  0  0  0  0  0  0
   41.0110   83.7820   58.2080 O   0  0  0  0  0  0  0  0  0  0  0  0
   41.6150   85.4880   56.6300 N   0  0  0  0  0  0  0  0  0  0  0  0
   44.0112   85.4413   61.5715 H   0  0  0  0  0  0  0  0  0  0  0  0
   43.9523   84.1450   58.5621 H   0  0  0  0  0  0  0  0  0  0  0  0
   45.1275   85.1505   58.6580 H   0  0  0  0  0  0  0  0  0  0  0  0
   42.8292   87.0690   59.3705 H   0  0  0  0  0  0  0  0  0  0  0  0
   38.9868   83.2233   62.9279 H   0  0  0  0  0  0  0  0  0  0  0  0
   39.8358   83.8961   65.1896 H   0  0  0  0  0  0  0  0  0  0  0  0
   42.3118   84.6396   65.3744 H   0  0  0  0  0  0  0  0  0  0  0  0
   41.9689   86.4476   56.5084 H   0  0  0  0  0  0  0  0  0  0  0  0
   41.3870   84.9148   55.8052 H   0  0  0  0  0  0  0  0  0  0  0  0
  1  4  1  0
  2  3  1  0
  2  1  1  0
  3  1  1  0
  4  9  1  0
  5  6  2  0
  6  7  1  0
  8  7  2  0
  9  8  1  0
 10  9  2  0
 10  5  1  0
 11  3  1  0
 12 13  2  0
 12 11  1  0
 14 12  1  0
  1 15  1  1
  2 16  1  0
  2 17  1  0
  3 18  1  1
  5 19  1  0
  6 20  1  0
  7 21  1  0
 14 22  1  0
 14 23  1  0
M  ISO  7  15  13  16  13  17  13  18  13  19  14  20  14  21  14
M  END
>  <minimizedAffinity>  (1) 
-3.9133718

>  <minimizedRMSD>  (1) 
1.9429189

$$$$
