
     RDKit          3D

 38 41  0  0  1  0  0  0  0  0999 V2000
   39.7510   77.2690   59.2430 C   0  0  0  0  0  0  0  0  0  0  0  0
   40.4040   76.1090   59.0170 C   0  0  0  0  0  0  0  0  0  0  0  0
   39.8460   75.3840   57.9460 C   0  0  0  0  0  0  0  0  0  0  0  0
   38.7840   75.7920   57.2260 N   0  0  0  0  0  0  0  0  0  0  0  0
   38.2010   76.9850   57.5410 C   0  0  0  0  0  0  0  0  0  0  0  0
   38.6880   77.7270   58.5580 N   0  0  0  0  0  0  0  0  0  0  0  0
   40.9660   80.2600   61.7430 C   0  0  0  0  0  0  0  0  0  0  0  0
   40.9470   79.0350   62.3560 C   0  0  0  0  0  0  0  0  0  0  0  0
   40.5670   77.9590   61.6440 C   0  0  0  0  0  0  0  0  0  0  0  0
   40.2050   78.1340   60.3120 C   0  0  0  0  0  0  0  0  0  0  0  0
   40.4170   79.9430   60.0390 S   0  0  0  0  0  0  0  0  0  0  0  0
   43.0520   83.0750   62.8290 C   0  0  0  0  0  0  0  0  0  0  0  0
   42.1610   83.8450   63.6220 C   0  0  0  0  0  0  0  0  0  0  0  0
   40.8380   83.3910   63.7750 C   0  0  0  0  0  0  0  0  0  0  0  0
   40.4900   82.2430   63.1570 N   0  0  0  0  0  0  0  0  0  0  0  0
   41.3630   81.5270   62.4060 C   0  0  0  0  0  0  0  0  0  0  0  0
   42.6200   81.9500   62.2540 N   0  0  0  0  0  0  0  0  0  0  0  0
   37.0640   77.4090   56.7500 C   0  0  0  0  0  0  0  0  0  0  0  0
   35.9340   77.0790   57.1440 O   0  0  0  0  0  0  0  0  0  0  0  0
   37.2150   78.2130   55.4830 C   0  0  1  0  0  0  0  0  0  0  0  0
   37.4010   79.6840   55.7260 C   0  0  0  0  0  0  0  0  0  0  0  0
   38.4800   78.8610   55.1810 C   0  0  2  0  0  0  0  0  0  0  0  0
   39.7220   79.8460   53.2310 C   0  0  0  0  0  0  0  0  0  0  0  0
   40.3640   80.6990   53.9200 O   0  0  0  0  0  0  0  0  0  0  0  0
   38.7780   78.9000   53.7370 N   0  0  0  0  0  0  0  0  0  0  0  0
   41.2716   75.7694   59.6018 H   0  0  0  0  0  0  0  0  0  0  0  0
   40.3080   74.4217   57.6805 H   0  0  0  0  0  0  0  0  0  0  0  0
   41.2374   78.9331   63.4121 H   0  0  0  0  0  0  0  0  0  0  0  0
   40.5429   76.9608   62.1055 H   0  0  0  0  0  0  0  0  0  0  0  0
   44.0925   83.4034   62.6891 H   0  0  0  0  0  0  0  0  0  0  0  0
   42.4969   84.7743   64.1053 H   0  0  0  0  0  0  0  0  0  0  0  0
   40.1109   83.9537   64.3789 H   0  0  0  0  0  0  0  0  0  0  0  0
   36.5556   77.5554   54.8976 H   0  0  0  0  0  0  0  0  0  0  0  0
   36.8894   80.4196   55.0879 H   0  0  0  0  0  0  0  0  0  0  0  0
   37.2859   80.3586   56.5872 H   0  0  0  0  0  0  0  0  0  0  0  0
   39.5333   78.7537   55.4795 H   0  0  0  0  0  0  0  0  0  0  0  0
   39.9098   79.8347   52.1472 H   0  0  0  0  0  0  0  0  0  0  0  0
   38.3068   78.2469   53.0948 H   0  0  0  0  0  0  0  0  0  0  0  0
  1 10  1  0
  2  1  2  0
  3  2  1  0
  4  5  1  0
  4  3  2  0
  5  6  2  0
  6  1  1  0
  7  8  2  0
  7 16  1  0
  9  8  1  0
 10  9  2  0
 11 10  1  0
 11  7  1  0
 12 13  2  0
 13 14  1  0
 15 14  2  0
 16 15  1  0
 17 16  2  0
 17 12  1  0
 18 19  2  0
 18  5  1  0
 20 21  1  0
 20 18  1  0
 22 20  1  0
 22 21  1  0
 23 25  1  0
 23 24  2  0
 25 22  1  0
  2 26  1  0
  3 27  1  0
  8 28  1  0
  9 29  1  0
 12 30  1  0
 13 31  1  0
 14 32  1  0
 20 33  1  6
 21 34  1  0
 21 35  1  0
 22 36  1  1
 23 37  1  0
 25 38  1  0
M  ISO  8  26  14  27  14  28  14  29  14  30  14  31  14  32  14  33  13
M  ISO  4  34  13  35  13  36  13  37   6
M  END
>  <minimizedAffinity>  (1) 
-6.08931684

>  <minimizedRMSD>  (1) 
0.809546292

$$$$
