
     RDKit          3D

 37 40  0  0  0  0  0  0  0  0999 V2000
   40.7260   81.7610   57.1240 C   0  0  0  0  0  0  0  0  0  0  0  0
   41.8040   82.3350   56.4320 C   0  0  0  0  0  0  0  0  0  0  0  0
   42.5820   83.2430   57.1060 C   0  0  0  0  0  0  0  0  0  0  0  0
   42.3000   83.5580   58.4040 N   0  0  0  0  0  0  0  0  0  0  0  0
   41.2510   82.9820   59.0450 C   0  0  0  0  0  0  0  0  0  0  0  0
   40.4540   82.0790   58.4060 N   0  0  0  0  0  0  0  0  0  0  0  0
   39.6790   83.0980   60.9180 C   0  0  0  0  0  0  0  0  0  0  0  0
   40.9780   83.2900   60.4420 C   0  0  0  0  0  0  0  0  0  0  0  0
   42.0020   83.7440   61.2760 C   0  0  0  0  0  0  0  0  0  0  0  0
   41.7520   84.0180   62.6170 C   0  0  0  0  0  0  0  0  0  0  0  0
   42.4630   84.4500   63.6730 N   0  0  0  0  0  0  0  0  0  0  0  0
   41.6710   84.5330   64.7670 C   0  0  0  0  0  0  0  0  0  0  0  0
   40.4640   84.1370   64.3350 N   0  0  0  0  0  0  0  0  0  0  0  0
   40.4680   83.8160   63.0380 C   0  0  0  0  0  0  0  0  0  0  0  0
   39.4130   83.3710   62.2640 C   0  0  0  0  0  0  0  0  0  0  0  0
   42.3460   83.6180   54.1650 Cl  0  0  0  0  0  0  0  0  0  0  0  0
   43.7390   84.1120   55.1090 C   0  0  0  0  0  0  0  0  0  0  0  0
   43.7040   83.8860   56.4590 C   0  0  0  0  0  0  0  0  0  0  0  0
   44.8390   84.3310   57.1320 C   0  0  0  0  0  0  0  0  0  0  0  0
   45.9120   84.9430   56.5360 C   0  0  0  0  0  0  0  0  0  0  0  0
   45.8810   85.1410   55.1580 C   0  0  0  0  0  0  0  0  0  0  0  0
   47.2110   85.9110   54.3300 Cl  0  0  0  0  0  0  0  0  0  0  0  0
   44.7800   84.7180   54.4430 C   0  0  0  0  0  0  0  0  0  0  0  0
   45.2690   83.8520   52.2440 C   0  0  0  0  0  0  0  0  0  0  0  0
   45.6910   82.8390   52.8860 O   0  0  0  0  0  0  0  0  0  0  0  0
   44.7540   84.9230   53.0350 N   0  0  0  0  0  0  0  0  0  0  0  0
   40.0855   81.0318   56.6063 H   0  0  0  0  0  0  0  0  0  0  0  0
   42.0177   82.0667   55.3868 H   0  0  0  0  0  0  0  0  0  0  0  0
   38.8825   82.7399   60.2491 H   0  0  0  0  0  0  0  0  0  0  0  0
   43.0142   83.8861   60.8695 H   0  0  0  0  0  0  0  0  0  0  0  0
   43.4658   84.6840   63.6523 H   0  0  0  0  0  0  0  0  0  0  0  0
   41.9529   84.8528   65.7810 H   0  0  0  0  0  0  0  0  0  0  0  0
   38.4070   83.2372   62.6883 H   0  0  0  0  0  0  0  0  0  0  0  0
   44.8778   84.1807   58.2210 H   0  0  0  0  0  0  0  0  0  0  0  0
   46.7766   85.2697   57.1324 H   0  0  0  0  0  0  0  0  0  0  0  0
   45.2989   83.9003   51.1455 H   0  0  0  0  0  0  0  0  0  0  0  0
   44.3872   85.7884   52.6137 H   0  0  0  0  0  0  0  0  0  0  0  0
  1  6  2  0
  2  3  2  0
  2  1  1  0
  3  4  1  0
  4  5  2  0
  5  8  1  0
  6  5  1  0
  7 15  2  0
  8  7  1  0
  8  9  2  0
  9 10  1  0
 10 14  2  0
 10 11  1  0
 11 12  1  0
 13 12  2  0
 14 13  1  0
 15 14  1  0
 16 17  1  0
 17 18  2  0
 18  3  1  0
 18 19  1  0
 20 19  2  0
 21 20  1  0
 22 21  1  0
 23 17  1  0
 23 21  2  0
 24 25  2  0
 24 26  1  0
 26 23  1  0
  1 27  1  0
  2 28  1  0
  7 29  1  0
  9 30  1  0
 11 31  1  0
 12 32  1  0
 15 33  1  0
 19 34  1  0
 20 35  1  0
 24 36  1  0
 26 37  1  0
M  ISO  8  27  14  28  14  29  14  30  14  31   9  32  14  33  14  34  14
M  ISO  2  35  14  36   6
M  END
>  <minimizedAffinity>  (1) 
-4.83429909

>  <minimizedRMSD>  (1) 
0.0370626748

$$$$
