
     RDKit          3D

 14 14  0  0  0  0  0  0  0  0999 V2000
   41.6570   84.6620   60.1200 C   0  0  0  0  0  0  0  0  0  0  0  0
   40.6550   84.9610   59.1680 C   0  0  0  0  0  0  0  0  0  0  0  0
   39.3180   84.8710   59.5670 C   0  0  0  0  0  0  0  0  0  0  0  0
   39.0450   84.5030   60.8440 N   0  0  0  0  0  0  0  0  0  0  0  0
   40.0350   84.2230   61.7340 C   0  0  0  0  0  0  0  0  0  0  0  0
   41.3230   84.3020   61.3750 N   0  0  0  0  0  0  0  0  0  0  0  0
   40.4930   84.0020   64.2860 C   0  0  0  0  0  0  0  0  0  0  0  0
   41.5600   84.6310   64.0600 O   0  0  0  0  0  0  0  0  0  0  0  0
   39.7810   83.8360   63.0800 N   0  0  0  0  0  0  0  0  0  0  0  0
   42.7174   84.7237   59.8339 H   0  0  0  0  0  0  0  0  0  0  0  0
   40.9201   85.2562   58.1420 H   0  0  0  0  0  0  0  0  0  0  0  0
   38.5048   85.0938   58.8606 H   0  0  0  0  0  0  0  0  0  0  0  0
   40.1667   83.6383   65.2715 H   0  0  0  0  0  0  0  0  0  0  0  0
   38.8921   83.3292   63.1977 H   0  0  0  0  0  0  0  0  0  0  0  0
  1  6  2  0
  2  3  2  0
  2  1  1  0
  3  4  1  0
  4  5  2  0
  5  9  1  0
  6  5  1  0
  8  7  2  0
  9  7  1  0
  1 10  1  0
  2 11  1  0
  3 12  1  0
  7 13  1  0
  9 14  1  0
M  ISO  4  10  14  11  14  12  14  13   6
M  END
>  <minimizedAffinity>  (1) 
-4.36195421

>  <minimizedRMSD>  (1) 
2.1615746

$$$$
