
     RDKit          3D

 14 14  0  0  0  0  0  0  0  0999 V2000
   39.9740   81.8200   60.9460 C   0  0  0  0  0  0  0  0  0  0  0  0
   40.1820   82.6410   59.8150 C   0  0  0  0  0  0  0  0  0  0  0  0
   39.6820   83.9430   59.8740 C   0  0  0  0  0  0  0  0  0  0  0  0
   39.0270   84.3530   61.0090 N   0  0  0  0  0  0  0  0  0  0  0  0
   38.8500   83.5400   62.0650 C   0  0  0  0  0  0  0  0  0  0  0  0
   39.3210   82.2770   62.0380 N   0  0  0  0  0  0  0  0  0  0  0  0
   41.1330   85.4910   58.7700 C   0  0  0  0  0  0  0  0  0  0  0  0
   41.9170   85.3410   59.7550 O   0  0  0  0  0  0  0  0  0  0  0  0
   39.8870   84.7690   58.7460 N   0  0  0  0  0  0  0  0  0  0  0  0
   40.3515   80.7868   60.9378 H   0  0  0  0  0  0  0  0  0  0  0  0
   40.7147   82.2704   58.9268 H   0  0  0  0  0  0  0  0  0  0  0  0
   38.3184   83.9070   62.9553 H   0  0  0  0  0  0  0  0  0  0  0  0
   41.4014   86.1649   57.9431 H   0  0  0  0  0  0  0  0  0  0  0  0
   39.2070   84.8476   57.9764 H   0  0  0  0  0  0  0  0  0  0  0  0
  1  6  2  0
  2  3  2  0
  2  1  1  0
  3  4  1  0
  4  5  2  0
  6  5  1  0
  7  8  2  0
  9  7  1  0
  9  3  1  0
  1 10  1  0
  2 11  1  0
  5 12  1  0
  7 13  1  0
  9 14  1  0
M  ISO  4  10  14  11  14  12  14  13   6
M  END
>  <minimizedAffinity>  (1) 
-3.70408893

>  <minimizedRMSD>  (1) 
0.591441989

$$$$
