
     RDKit          3D

 39 42  0  0  0  0  0  0  0  0999 V2000
   40.8860   80.2380   61.6950 C   0  0  0  0  0  0  0  0  0  0  0  0
   40.8090   79.0220   62.3460 C   0  0  0  0  0  0  0  0  0  0  0  0
   40.4480   77.9450   61.6250 C   0  0  0  0  0  0  0  0  0  0  0  0
   40.1680   78.0800   60.2740 C   0  0  0  0  0  0  0  0  0  0  0  0
   40.4320   79.8940   59.9720 S   0  0  0  0  0  0  0  0  0  0  0  0
   42.9460   83.0490   62.8310 C   0  0  0  0  0  0  0  0  0  0  0  0
   42.0330   83.8560   63.5470 C   0  0  0  0  0  0  0  0  0  0  0  0
   40.7240   83.4270   63.6310 C   0  0  0  0  0  0  0  0  0  0  0  0
   40.3800   82.2640   63.0280 N   0  0  0  0  0  0  0  0  0  0  0  0
   41.2720   81.5180   62.3540 C   0  0  0  0  0  0  0  0  0  0  0  0
   42.5340   81.9110   62.2620 N   0  0  0  0  0  0  0  0  0  0  0  0
   39.7630   77.2150   59.1960 C   0  0  0  0  0  0  0  0  0  0  0  0
   40.4530   76.0570   58.9870 C   0  0  0  0  0  0  0  0  0  0  0  0
   39.9460   75.3180   57.9070 C   0  0  0  0  0  0  0  0  0  0  0  0
   38.8950   75.7000   57.1500 N   0  0  0  0  0  0  0  0  0  0  0  0
   38.2760   76.8710   57.4400 C   0  0  0  0  0  0  0  0  0  0  0  0
   38.7180   77.6330   58.4750 N   0  0  0  0  0  0  0  0  0  0  0  0
   37.1510   77.2700   56.6250 C   0  0  0  0  0  0  0  0  0  0  0  0
   35.9990   77.0760   57.0850 O   0  0  0  0  0  0  0  0  0  0  0  0
   37.3580   77.8620   55.3490 N   0  0  0  0  0  0  0  0  0  0  0  0
   38.2870   78.8980   54.9750 C   0  0  0  0  0  0  0  0  0  0  0  0
   37.4760   79.8050   54.0430 C   0  0  0  0  0  0  0  0  0  0  0  0
   36.6810   78.7680   53.2620 C   0  0  0  0  0  0  0  0  0  0  0  0
   36.6550   77.5320   54.1380 C   0  0  0  0  0  0  0  0  0  0  0  0
   41.0355   78.9371   63.4191 H   0  0  0  0  0  0  0  0  0  0  0  0
   40.3751   76.9588   62.1068 H   0  0  0  0  0  0  0  0  0  0  0  0
   43.9980   83.3577   62.7415 H   0  0  0  0  0  0  0  0  0  0  0  0
   42.3550   84.7947   64.0215 H   0  0  0  0  0  0  0  0  0  0  0  0
   39.9743   84.0183   64.1772 H   0  0  0  0  0  0  0  0  0  0  0  0
   41.3111   75.7380   59.5969 H   0  0  0  0  0  0  0  0  0  0  0  0
   40.4370   74.3649   57.6609 H   0  0  0  0  0  0  0  0  0  0  0  0
   38.6300   79.4537   55.8602 H   0  0  0  0  0  0  0  0  0  0  0  0
   39.1936   78.5005   54.4953 H   0  0  0  0  0  0  0  0  0  0  0  0
   36.8165   80.4804   54.6076 H   0  0  0  0  0  0  0  0  0  0  0  0
   38.0825   80.4793   53.4205 H   0  0  0  0  0  0  0  0  0  0  0  0
   35.6586   79.1283   53.0755 H   0  0  0  0  0  0  0  0  0  0  0  0
   37.1330   78.5624   52.2805 H   0  0  0  0  0  0  0  0  0  0  0  0
   35.6160   77.2533   54.3679 H   0  0  0  0  0  0  0  0  0  0  0  0
   37.1276   76.6791   53.6289 H   0  0  0  0  0  0  0  0  0  0  0  0
  1  2  2  0
  1 10  1  0
  3  2  1  0
  4  3  2  0
  5  4  1  0
  5  1  1  0
  6  7  2  0
  7  8  1  0
  9  8  2  0
 10  9  1  0
 11 10  2  0
 11  6  1  0
 12  4  1  0
 13 12  2  0
 14 13  1  0
 15 16  1  0
 15 14  2  0
 16 17  2  0
 17 12  1  0
 18 19  2  0
 18 16  1  0
 20 18  1  0
 21 20  1  0
 22 21  1  0
 23 22  1  0
 23 24  1  0
 24 20  1  0
  2 25  1  0
  3 26  1  0
  6 27  1  0
  7 28  1  0
  8 29  1  0
 13 30  1  0
 14 31  1  0
 21 32  1  0
 21 33  1  0
 22 34  1  0
 22 35  1  0
 23 36  1  0
 23 37  1  0
 24 38  1  0
 24 39  1  0
M  ISO  8  25  14  26  14  27  14  28  14  29  14  30  14  31  14  32  13
M  ISO  7  33  13  34  13  35  13  36  13  37  13  38  13  39  13
M  END
>  <minimizedAffinity>  (1) 
-6.67889929

>  <minimizedRMSD>  (1) 
0.231041893

$$$$
