
     RDKit          3D

 32 34  0  0  0  0  0  0  0  0999 V2000
   41.5940   83.8620   61.4400 C   0  0  0  0  0  0  0  0  0  0  0  0
   41.3290   84.2250   62.7330 C   0  0  0  0  0  0  0  0  0  0  0  0
   40.8670   83.3380   63.7000 C   0  0  0  0  0  0  0  0  0  0  0  0
   40.6650   82.0420   63.3480 N   0  0  0  0  0  0  0  0  0  0  0  0
   40.9230   81.6880   62.0850 C   0  0  0  0  0  0  0  0  0  0  0  0
   41.3740   82.5650   61.1520 N   0  0  0  0  0  0  0  0  0  0  0  0
   40.7100   80.3280   61.7220 N   0  0  0  0  0  0  0  0  0  0  0  0
   40.3300   79.8770   60.3960 C   0  0  0  0  0  0  0  0  0  0  0  0
   41.3890   78.8070   60.1680 C   0  0  0  0  0  0  0  0  0  0  0  0
   41.4890   78.1700   61.5520 C   0  0  0  0  0  0  0  0  0  0  0  0
   40.8050   79.1170   62.5150 C   0  0  0  0  0  0  0  0  0  0  0  0
   43.6180   86.3770   59.7420 C   0  0  0  0  0  0  0  0  0  0  0  0
   42.9200   86.5240   58.5220 C   0  0  0  0  0  0  0  0  0  0  0  0
   41.7700   85.7650   58.2920 C   0  0  0  0  0  0  0  0  0  0  0  0
   41.4060   84.9200   59.2960 N   0  0  0  0  0  0  0  0  0  0  0  0
   42.0760   84.7970   60.4380 C   0  0  0  0  0  0  0  0  0  0  0  0
   43.1720   85.5130   60.6690 N   0  0  0  0  0  0  0  0  0  0  0  0
   44.7540   87.2100   59.8200 N   0  0  0  0  0  0  0  0  0  0  0  0
   41.4899   85.2739   63.0228 H   0  0  0  0  0  0  0  0  0  0  0  0
   40.6697   83.6789   64.7271 H   0  0  0  0  0  0  0  0  0  0  0  0
   39.3141   79.4553   60.3836 H   0  0  0  0  0  0  0  0  0  0  0  0
   40.2956   80.6659   59.6302 H   0  0  0  0  0  0  0  0  0  0  0  0
   41.0643   78.0761   59.4128 H   0  0  0  0  0  0  0  0  0  0  0  0
   42.3438   79.1980   59.7866 H   0  0  0  0  0  0  0  0  0  0  0  0
   40.9837   77.1929   61.5574 H   0  0  0  0  0  0  0  0  0  0  0  0
   42.5383   78.0040   61.8372 H   0  0  0  0  0  0  0  0  0  0  0  0
   41.4114   79.2765   63.4188 H   0  0  0  0  0  0  0  0  0  0  0  0
   39.8369   78.7512   62.8879 H   0  0  0  0  0  0  0  0  0  0  0  0
   43.2795   87.2306   57.7594 H   0  0  0  0  0  0  0  0  0  0  0  0
   41.1943   85.8449   57.3581 H   0  0  0  0  0  0  0  0  0  0  0  0
   44.9907   87.8330   59.0347 H   0  0  0  0  0  0  0  0  0  0  0  0
   45.3467   87.1951   60.6623 H   0  0  0  0  0  0  0  0  0  0  0  0
  1  2  2  0
  2  3  1  0
  4  3  2  0
  5  4  1  0
  6  1  1  0
  6  5  2  0
  7  5  1  0
  7 11  1  0
  8  7  1  0
  9  8  1  0
  9 10  1  0
 10 11  1  0
 12 18  1  0
 12 17  2  0
 13 12  1  0
 14 13  2  0
 14 15  1  0
 15 16  2  0
 16 17  1  0
 16  1  1  0
  2 19  1  0
  3 20  1  0
  8 21  1  0
  8 22  1  0
  9 23  1  0
  9 24  1  0
 10 25  1  0
 10 26  1  0
 11 27  1  0
 11 28  1  0
 13 29  1  0
 14 30  1  0
 18 31  1  0
 18 32  1  0
M  ISO  8  19  14  20  14  21  13  22  13  23  13  24  13  25  13  26  13
M  ISO  4  27  13  28  13  29  14  30  14
M  END
>  <minimizedAffinity>  (1) 
-5.30590439

>  <minimizedRMSD>  (1) 
0.47770372

$$$$
