
     RDKit          3D

 22 23  0  0  0  0  0  0  0  0999 V2000
   42.1260   83.1940   58.5990 C   0  0  0  0  0  0  0  0  0  0  0  0
   41.3680   84.1810   57.9510 C   0  0  0  0  0  0  0  0  0  0  0  0
   40.6240   85.0750   58.7370 C   0  0  0  0  0  0  0  0  0  0  0  0
   40.6820   84.9330   60.0970 N   0  0  0  0  0  0  0  0  0  0  0  0
   41.4220   83.9710   60.6870 C   0  0  0  0  0  0  0  0  0  0  0  0
   42.1360   83.1100   59.9510 N   0  0  0  0  0  0  0  0  0  0  0  0
   41.4160   83.9040   62.1250 N   0  0  0  0  0  0  0  0  0  0  0  0
   42.3680   84.6270   62.9510 C   0  0  0  0  0  0  0  0  0  0  0  0
   41.9100   84.3510   64.3450 C   0  0  0  0  0  0  0  0  0  0  0  0
   40.5210   83.7530   64.2560 C   0  0  0  0  0  0  0  0  0  0  0  0
   40.4740   83.1200   62.9040 C   0  0  0  0  0  0  0  0  0  0  0  0
   42.7172   82.4823   58.0041 H   0  0  0  0  0  0  0  0  0  0  0  0
   41.3570   84.2525   56.8534 H   0  0  0  0  0  0  0  0  0  0  0  0
   40.0137   85.8647   58.2745 H   0  0  0  0  0  0  0  0  0  0  0  0
   43.3895   84.2511   62.7923 H   0  0  0  0  0  0  0  0  0  0  0  0
   42.4029   85.7017   62.7192 H   0  0  0  0  0  0  0  0  0  0  0  0
   42.5945   83.6408   64.8319 H   0  0  0  0  0  0  0  0  0  0  0  0
   41.8969   85.2763   64.9396 H   0  0  0  0  0  0  0  0  0  0  0  0
   40.3704   83.0000   65.0436 H   0  0  0  0  0  0  0  0  0  0  0  0
   39.7311   84.5061   64.3937 H   0  0  0  0  0  0  0  0  0  0  0  0
   39.4626   83.1831   62.4761 H   0  0  0  0  0  0  0  0  0  0  0  0
   40.7249   82.0492   62.9252 H   0  0  0  0  0  0  0  0  0  0  0  0
  1  6  2  0
  2  1  1  0
  2  3  2  0
  3  4  1  0
  4  5  2  0
  5  7  1  0
  6  5  1  0
  7 11  1  0
  7  8  1  0
  8  9  1  0
 10  9  1  0
 11 10  1  0
  1 12  1  0
  2 13  1  0
  3 14  1  0
  8 15  1  0
  8 16  1  0
  9 17  1  0
  9 18  1  0
 10 19  1  0
 10 20  1  0
 11 21  1  0
 11 22  1  0
M  ISO  8  12  14  13  14  14  14  15  13  16  13  17  13  18  13  19  13
M  ISO  3  20  13  21  13  22  13
M  END
>  <minimizedAffinity>  (1) 
-3.86042666

>  <minimizedRMSD>  (1) 
3.35169911

$$$$
