
     RDKit          3D

 24 25  0  0  0  0  0  0  0  0999 V2000
   39.6340   83.3550   61.2400 C   0  0  0  0  0  0  0  0  0  0  0  0
   40.5210   84.4670   61.2690 C   0  0  0  0  0  0  0  0  0  0  0  0
   41.5080   84.5380   60.2860 C   0  0  0  0  0  0  0  0  0  0  0  0
   41.5580   83.5490   59.3700 N   0  0  0  0  0  0  0  0  0  0  0  0
   40.7090   82.5130   59.3680 C   0  0  0  0  0  0  0  0  0  0  0  0
   39.7450   82.4170   60.3060 N   0  0  0  0  0  0  0  0  0  0  0  0
   38.6830   83.4090   62.2930 N   0  0  0  0  0  0  0  0  0  0  0  0
   40.8190   81.5210   58.3880 N   0  0  0  0  0  0  0  0  0  0  0  0
   41.9680   80.6750   58.1470 C   0  0  0  0  0  0  0  0  0  0  0  0
   41.9080   80.1940   56.7280 C   0  0  0  0  0  0  0  0  0  0  0  0
   40.7530   81.0210   56.1560 C   0  0  0  0  0  0  0  0  0  0  0  0
   39.8590   81.0860   57.3920 C   0  0  0  0  0  0  0  0  0  0  0  0
   40.4314   85.2452   62.0413 H   0  0  0  0  0  0  0  0  0  0  0  0
   42.2227   85.3737   60.2586 H   0  0  0  0  0  0  0  0  0  0  0  0
   37.9787   82.6636   62.3896 H   0  0  0  0  0  0  0  0  0  0  0  0
   38.6974   84.1935   62.9602 H   0  0  0  0  0  0  0  0  0  0  0  0
   42.8927   81.2490   58.3066 H   0  0  0  0  0  0  0  0  0  0  0  0
   41.9608   79.8194   58.8383 H   0  0  0  0  0  0  0  0  0  0  0  0
   42.8485   80.4009   56.1964 H   0  0  0  0  0  0  0  0  0  0  0  0
   41.7622   79.1077   56.6353 H   0  0  0  0  0  0  0  0  0  0  0  0
   41.0826   82.0199   55.8341 H   0  0  0  0  0  0  0  0  0  0  0  0
   40.2789   80.6054   55.2546 H   0  0  0  0  0  0  0  0  0  0  0  0
   39.0448   81.8150   57.2667 H   0  0  0  0  0  0  0  0  0  0  0  0
   39.3408   80.1463   57.6336 H   0  0  0  0  0  0  0  0  0  0  0  0
  1  2  2  0
  1  7  1  0
  3  2  1  0
  4  3  2  0
  5  4  1  0
  5  6  2  0
  6  1  1  0
  8  5  1  0
  9  8  1  0
 10  9  1  0
 11 10  1  0
 11 12  1  0
 12  8  1  0
  2 13  1  0
  3 14  1  0
  7 15  1  0
  7 16  1  0
  9 17  1  0
  9 18  1  0
 10 19  1  0
 10 20  1  0
 11 21  1  0
 11 22  1  0
 12 23  1  0
 12 24  1  0
M  ISO  8  13  14  14  14  17  13  18  13  19  13  20  13  21  13  22  13
M  ISO  2  23  13  24  13
M  END
>  <minimizedAffinity>  (1) 
-3.39442825

>  <minimizedRMSD>  (1) 
5.97686148

$$$$
