
     RDKit          3D

 23 24  0  0  1  0  0  0  0  0999 V2000
   40.1050   81.9430   60.8000 C   0  0  0  0  0  0  0  0  0  0  0  0
   40.1990   82.7880   59.6780 C   0  0  0  0  0  0  0  0  0  0  0  0
   39.6080   84.0470   59.7650 C   0  0  0  0  0  0  0  0  0  0  0  0
   38.9770   84.3940   60.9160 N   0  0  0  0  0  0  0  0  0  0  0  0
   38.9040   83.5590   61.9790 C   0  0  0  0  0  0  0  0  0  0  0  0
   39.4690   82.3380   61.9130 N   0  0  0  0  0  0  0  0  0  0  0  0
   40.0130   81.5070   57.5680 C   0  0  1  0  0  0  0  0  0  0  0  0
   40.9190   82.2530   58.5090 C   0  0  1  0  0  0  0  0  0  0  0  0
   41.4420   83.2420   57.6980 O   0  0  0  0  0  0  0  0  0  0  0  0
   41.6720   82.7030   56.4620 C   0  0  0  0  0  0  0  0  0  0  0  0
   40.9850   81.3740   56.3860 C   0  0  2  0  0  0  0  0  0  0  0  0
   39.6680   80.2460   58.0500 O   0  0  0  0  0  0  0  0  0  0  0  0
   40.3110   81.1540   55.1990 O   0  0  0  0  0  0  0  0  0  0  0  0
   40.5606   80.9424   60.7634 H   0  0  0  0  0  0  0  0  0  0  0  0
   39.6519   84.7465   58.9172 H   0  0  0  0  0  0  0  0  0  0  0  0
   38.3843   83.8770   62.8949 H   0  0  0  0  0  0  0  0  0  0  0  0
   39.0459   81.9924   57.3702 H   0  0  0  0  0  0  0  0  0  0  0  0
   41.6938   81.6191   58.9648 H   0  0  0  0  0  0  0  0  0  0  0  0
   41.2723   83.3719   55.6856 H   0  0  0  0  0  0  0  0  0  0  0  0
   42.7530   82.5775   56.3015 H   0  0  0  0  0  0  0  0  0  0  0  0
   41.6780   80.5207   56.4261 H   0  0  0  0  0  0  0  0  0  0  0  0
   39.6715   80.2588   59.0399 H   0  0  0  0  0  0  0  0  0  0  0  0
   39.3884   80.8528   55.3943 H   0  0  0  0  0  0  0  0  0  0  0  0
  1  6  2  0
  2  3  2  0
  2  1  1  0
  3  4  1  0
  4  5  2  0
  6  5  1  0
  7 12  1  0
  7  8  1  0
  8  2  1  0
  9  8  1  0
 10  9  1  0
 11 13  1  0
 11 10  1  0
 11  7  1  0
  1 14  1  0
  3 15  1  0
  5 16  1  0
  7 17  1  6
  8 18  1  1
 10 19  1  0
 10 20  1  0
 11 21  1  1
 12 22  1  0
 13 23  1  0
M  ISO  8  14  14  15  14  16  14  17  13  18  13  19  13  20  13  21  13
M  ISO  2  22   3  23   3
M  END
>  <minimizedAffinity>  (1) 
-4.61197138

>  <minimizedRMSD>  (1) 
0.467516631

$$$$
