
     RDKit          3D

 23 24  0  0  1  0  0  0  0  0999 V2000
   40.0410   81.2800   61.0080 C   0  0  0  0  0  0  0  0  0  0  0  0
   40.3990   81.9730   59.8430 C   0  0  0  0  0  0  0  0  0  0  0  0
   40.1140   83.3490   59.7860 C   0  0  0  0  0  0  0  0  0  0  0  0
   39.5100   83.9310   60.8550 N   0  0  0  0  0  0  0  0  0  0  0  0
   39.1800   83.2390   61.9580 C   0  0  0  0  0  0  0  0  0  0  0  0
   39.4430   81.9180   62.0360 N   0  0  0  0  0  0  0  0  0  0  0  0
   40.4090   85.5550   58.6840 C   0  0  1  0  0  0  0  0  0  0  0  0
   40.5010   84.0520   58.5500 C   0  0  1  0  0  0  0  0  0  0  0  0
   41.8500   83.9070   58.2500 O   0  0  0  0  0  0  0  0  0  0  0  0
   42.0530   84.7840   57.2170 C   0  0  0  0  0  0  0  0  0  0  0  0
   41.1040   85.9520   57.3750 C   0  0  2  0  0  0  0  0  0  0  0  0
   39.1060   86.0190   58.7140 O   0  0  0  0  0  0  0  0  0  0  0  0
   41.7430   87.1620   57.4660 O   0  0  0  0  0  0  0  0  0  0  0  0
   40.2501   80.2028   61.0851 H   0  0  0  0  0  0  0  0  0  0  0  0
   40.8863   81.4579   59.0020 H   0  0  0  0  0  0  0  0  0  0  0  0
   38.6934   83.7514   62.8010 H   0  0  0  0  0  0  0  0  0  0  0  0
   40.8406   85.9584   59.6119 H   0  0  0  0  0  0  0  0  0  0  0  0
   39.8207   83.6182   57.8023 H   0  0  0  0  0  0  0  0  0  0  0  0
   41.8604   84.2782   56.2594 H   0  0  0  0  0  0  0  0  0  0  0  0
   43.0927   85.1429   57.2304 H   0  0  0  0  0  0  0  0  0  0  0  0
   40.4314   86.1078   56.5186 H   0  0  0  0  0  0  0  0  0  0  0  0
   38.8143   86.1229   59.6543 H   0  0  0  0  0  0  0  0  0  0  0  0
   41.8678   87.3984   58.4192 H   0  0  0  0  0  0  0  0  0  0  0  0
  1  6  2  0
  2  1  1  0
  3  2  2  0
  3  4  1  0
  4  5  2  0
  5  6  1  0
  7 12  1  0
  8  7  1  0
  8  3  1  0
  9  8  1  0
 10 11  1  0
 10  9  1  0
 11 13  1  0
 11  7  1  0
  1 14  1  0
  2 15  1  0
  5 16  1  0
  7 17  1  1
  8 18  1  6
 10 19  1  0
 10 20  1  0
 11 21  1  6
 12 22  1  0
 13 23  1  0
M  ISO  8  14  14  15  14  16  14  17  13  18  13  19  13  20  13  21  13
M  ISO  2  22   3  23   3
M  END
>  <minimizedAffinity>  (1) 
-4.56901693

>  <minimizedRMSD>  (1) 
1.46121585

$$$$
