
     RDKit          3D

 23 24  0  0  1  0  0  0  0  0999 V2000
   40.1570   82.0000   60.7970 C   0  0  0  0  0  0  0  0  0  0  0  0
   40.2190   82.8860   59.6900 C   0  0  0  0  0  0  0  0  0  0  0  0
   39.5740   84.1290   59.7990 C   0  0  0  0  0  0  0  0  0  0  0  0
   38.9280   84.4100   60.9590 N   0  0  0  0  0  0  0  0  0  0  0  0
   38.8880   83.5390   62.0020 C   0  0  0  0  0  0  0  0  0  0  0  0
   39.4980   82.3460   61.9170 N   0  0  0  0  0  0  0  0  0  0  0  0
   41.6320   80.4330   61.9190 C   0  0  1  0  0  0  0  0  0  0  0  0
   40.8400   80.6860   60.6800 C   0  0  1  0  0  0  0  0  0  0  0  0
   39.9490   79.6290   60.5290 O   0  0  0  0  0  0  0  0  0  0  0  0
   40.7000   78.5330   60.9520 C   0  0  0  0  0  0  0  0  0  0  0  0
   41.1980   79.0300   62.2950 C   0  0  2  0  0  0  0  0  0  0  0  0
   42.9830   80.3300   61.5690 O   0  0  0  0  0  0  0  0  0  0  0  0
   40.1280   79.0680   63.1590 O   0  0  0  0  0  0  0  0  0  0  0  0
   40.7572   82.6070   58.7721 H   0  0  0  0  0  0  0  0  0  0  0  0
   39.5919   84.8520   58.9702 H   0  0  0  0  0  0  0  0  0  0  0  0
   38.3519   83.8137   62.9224 H   0  0  0  0  0  0  0  0  0  0  0  0
   41.4942   81.2033   62.6920 H   0  0  0  0  0  0  0  0  0  0  0  0
   41.4771   80.7364   59.7847 H   0  0  0  0  0  0  0  0  0  0  0  0
   40.0771   77.6327   61.0593 H   0  0  0  0  0  0  0  0  0  0  0  0
   41.4956   78.2303   60.2553 H   0  0  0  0  0  0  0  0  0  0  0  0
   41.9833   78.4311   62.7795 H   0  0  0  0  0  0  0  0  0  0  0  0
   43.5344   80.2880   62.3902 H   0  0  0  0  0  0  0  0  0  0  0  0
   40.4571   79.0563   64.0926 H   0  0  0  0  0  0  0  0  0  0  0  0
  1  6  2  0
  2  3  2  0
  2  1  1  0
  3  4  1  0
  4  5  2  0
  6  5  1  0
  7 12  1  0
  7 11  1  0
  8  1  1  0
  8  7  1  0
  9  8  1  0
  9 10  1  0
 10 11  1  0
 11 13  1  0
  2 14  1  0
  3 15  1  0
  5 16  1  0
  7 17  1  1
  8 18  1  6
 10 19  1  0
 10 20  1  0
 11 21  1  1
 12 22  1  0
 13 23  1  0
M  ISO  8  14  14  15  14  16  14  17  13  18  13  19  13  20  13  21  13
M  ISO  2  22   3  23   3
M  END
>  <minimizedAffinity>  (1) 
-4.81310654

>  <minimizedRMSD>  (1) 
0.839506209

$$$$
