
     RDKit          3D

 33 35  0  0  1  0  0  0  0  0999 V2000
   42.4490   81.5510   59.2040 C   0  0  0  0  0  0  0  0  0  0  0  0
   41.6800   82.6870   59.5460 C   0  0  0  0  0  0  0  0  0  0  0  0
   41.1540   83.4680   58.4920 C   0  0  0  0  0  0  0  0  0  0  0  0
   41.4310   83.0680   57.2160 N   0  0  0  0  0  0  0  0  0  0  0  0
   42.1720   81.9730   56.9350 C   0  0  0  0  0  0  0  0  0  0  0  0
   42.6780   81.2180   57.9200 N   0  0  0  0  0  0  0  0  0  0  0  0
   43.8320   84.4320   60.8190 Cl  0  0  0  0  0  0  0  0  0  0  0  0
   42.2860   83.9600   61.5070 C   0  0  0  0  0  0  0  0  0  0  0  0
   41.3580   83.1550   60.8490 C   0  0  0  0  0  0  0  0  0  0  0  0
   40.1980   82.8830   61.5350 C   0  0  0  0  0  0  0  0  0  0  0  0
   39.8740   83.3300   62.7970 C   0  0  0  0  0  0  0  0  0  0  0  0
   40.8120   84.1230   63.4200 C   0  0  0  0  0  0  0  0  0  0  0  0
   40.5240   84.7650   65.0430 Cl  0  0  0  0  0  0  0  0  0  0  0  0
   41.9890   84.4250   62.7780 C   0  0  0  0  0  0  0  0  0  0  0  0
   41.3960   80.6430   54.9680 C   0  0  2  0  0  0  0  0  0  0  0  0
   42.4170   81.6170   55.5110 C   0  0  1  0  0  0  0  0  0  0  0  0
   42.1920   82.7260   54.7040 O   0  0  0  0  0  0  0  0  0  0  0  0
   42.0310   82.2510   53.4080 C   0  0  0  0  0  0  0  0  0  0  0  0
   41.7190   80.7840   53.4730 C   0  0  2  0  0  0  0  0  0  0  0  0
   40.0860   81.1330   55.0920 O   0  0  0  0  0  0  0  0  0  0  0  0
   40.6600   80.4170   52.6680 O   0  0  0  0  0  0  0  0  0  0  0  0
   42.8696   80.9253   60.0050 H   0  0  0  0  0  0  0  0  0  0  0  0
   40.5457   84.3625   58.6916 H   0  0  0  0  0  0  0  0  0  0  0  0
   39.4575   82.2474   61.0273 H   0  0  0  0  0  0  0  0  0  0  0  0
   38.9207   83.0686   63.2796 H   0  0  0  0  0  0  0  0  0  0  0  0
   42.7240   85.0607   63.2933 H   0  0  0  0  0  0  0  0  0  0  0  0
   41.4392   79.6539   55.4474 H   0  0  0  0  0  0  0  0  0  0  0  0
   43.4409   81.2154   55.4935 H   0  0  0  0  0  0  0  0  0  0  0  0
   42.9583   82.4081   52.8375 H   0  0  0  0  0  0  0  0  0  0  0  0
   41.2113   82.7886   52.9089 H   0  0  0  0  0  0  0  0  0  0  0  0
   42.5277   80.1333   53.1089 H   0  0  0  0  0  0  0  0  0  0  0  0
   39.8553   81.2193   56.0509 H   0  0  0  0  0  0  0  0  0  0  0  0
   39.8923   80.1509   53.2336 H   0  0  0  0  0  0  0  0  0  0  0  0
  1  2  2  0
  2  9  1  0
  3  2  1  0
  4  3  2  0
  5  4  1  0
  5  6  2  0
  6  1  1  0
  7  8  1  0
  8 14  2  0
  9  8  1  0
  9 10  2  0
 10 11  1  0
 11 12  2  0
 12 13  1  0
 14 12  1  0
 15 20  1  0
 15 16  1  0
 16  5  1  0
 17 16  1  0
 18 19  1  0
 18 17  1  0
 19 21  1  0
 19 15  1  0
  1 22  1  0
  3 23  1  0
 10 24  1  0
 11 25  1  0
 14 26  1  0
 15 27  1  1
 16 28  1  1
 18 29  1  0
 18 30  1  0
 19 31  1  6
 20 32  1  0
 21 33  1  0
M  ISO  8  22  14  23  14  24  14  25  14  26  14  27  13  28  13  29  13
M  ISO  4  30  13  31  13  32   3  33   3
M  END
>  <minimizedAffinity>  (1) 
-4.42489862

>  <minimizedRMSD>  (1) 
8.17118263

$$$$
