
     RDKit          3D

 24 25  0  0  0  0  0  0  0  0999 V2000
   40.2590   82.0970   60.7450 C   0  0  0  0  0  0  0  0  0  0  0  0
   40.2520   82.9960   59.6700 C   0  0  0  0  0  0  0  0  0  0  0  0
   39.5380   84.1840   59.8060 C   0  0  0  0  0  0  0  0  0  0  0  0
   38.8800   84.4120   60.9820 N   0  0  0  0  0  0  0  0  0  0  0  0
   38.9130   83.5190   61.9940 C   0  0  0  0  0  0  0  0  0  0  0  0
   39.5930   82.3740   61.8790 N   0  0  0  0  0  0  0  0  0  0  0  0
   40.9440   80.8570   60.7360 N   0  0  0  0  0  0  0  0  0  0  0  0
   40.9280   79.9080   59.6380 C   0  0  0  0  0  0  0  0  0  0  0  0
   40.2430   78.6390   60.0470 C   0  0  0  0  0  0  0  0  0  0  0  0
   40.2700   78.3750   61.4520 N   0  0  0  0  0  0  0  0  0  0  0  0
   41.3730   78.9190   62.1680 C   0  0  0  0  0  0  0  0  0  0  0  0
   41.7670   80.3220   61.8010 C   0  0  0  0  0  0  0  0  0  0  0  0
   40.7969   82.7690   58.7418 H   0  0  0  0  0  0  0  0  0  0  0  0
   39.5045   84.9193   58.9886 H   0  0  0  0  0  0  0  0  0  0  0  0
   38.3724   83.7369   62.9269 H   0  0  0  0  0  0  0  0  0  0  0  0
   41.9626   79.6809   59.3415 H   0  0  0  0  0  0  0  0  0  0  0  0
   40.3788   80.3513   58.7943 H   0  0  0  0  0  0  0  0  0  0  0  0
   39.1916   78.6986   59.7291 H   0  0  0  0  0  0  0  0  0  0  0  0
   40.7933   77.8178   59.5645 H   0  0  0  0  0  0  0  0  0  0  0  0
   39.4073   78.7607   61.8617 H   0  0  0  0  0  0  0  0  0  0  0  0
   41.1177   78.9097   63.2379 H   0  0  0  0  0  0  0  0  0  0  0  0
   42.2366   78.2897   61.9068 H   0  0  0  0  0  0  0  0  0  0  0  0
   42.8167   80.3213   61.4721 H   0  0  0  0  0  0  0  0  0  0  0  0
   41.6278   80.9566   62.6886 H   0  0  0  0  0  0  0  0  0  0  0  0
  1  6  2  0
  2  3  2  0
  2  1  1  0
  3  4  1  0
  4  5  2  0
  6  5  1  0
  7  1  1  0
  7 12  1  0
  8  9  1  0
  8  7  1  0
  9 10  1  0
 10 11  1  0
 12 11  1  0
  2 13  1  0
  3 14  1  0
  5 15  1  0
  8 16  1  0
  8 17  1  0
  9 18  1  0
  9 19  1  0
 10 20  1  0
 11 21  1  0
 11 22  1  0
 12 23  1  0
 12 24  1  0
M  ISO  8  13  14  14  14  15  14  16  13  17  13  18  13  19  13  20   5
M  ISO  4  21  13  22  13  23  13  24  13
M  END
>  <minimizedAffinity>  (1) 
-4.46229601

>  <minimizedRMSD>  (1) 
0.403860211

$$$$
