
     RDKit          3D

 34 36  0  0  0  0  0  0  0  0999 V2000
   42.2490   84.3230   62.3150 C   0  0  0  0  0  0  0  0  0  0  0  0
   42.6040   84.3770   63.6500 C   0  0  0  0  0  0  0  0  0  0  0  0
   41.6880   84.0970   64.6500 C   0  0  0  0  0  0  0  0  0  0  0  0
   40.3730   83.7510   64.3040 C   0  0  0  0  0  0  0  0  0  0  0  0
   40.0220   83.7000   62.9610 C   0  0  0  0  0  0  0  0  0  0  0  0
   40.9490   83.9830   61.9860 C   0  0  0  0  0  0  0  0  0  0  0  0
   44.9530   83.9820   59.8730 C   0  0  0  0  0  0  0  0  0  0  0  0
   45.0430   85.2800   59.3280 C   0  0  0  0  0  0  0  0  0  0  0  0
   44.1660   86.2510   59.8140 C   0  0  0  0  0  0  0  0  0  0  0  0
   43.2930   85.8820   60.7700 N   0  0  0  0  0  0  0  0  0  0  0  0
   43.2230   84.6150   61.2850 C   0  0  0  0  0  0  0  0  0  0  0  0
   44.0520   83.6820   60.8310 N   0  0  0  0  0  0  0  0  0  0  0  0
   40.4470   83.9000   60.6610 N   0  0  0  0  0  0  0  0  0  0  0  0
   40.6050   82.9740   59.5310 C   0  0  0  0  0  0  0  0  0  0  0  0
   41.2100   83.7130   58.3440 C   0  0  0  0  0  0  0  0  0  0  0  0
   40.6050   85.0290   58.2050 N   0  0  0  0  0  0  0  0  0  0  0  0
   39.3390   85.1060   58.9030 C   0  0  0  0  0  0  0  0  0  0  0  0
   39.5690   85.0150   60.3670 C   0  0  0  0  0  0  0  0  0  0  0  0
   43.6345   84.6478   63.9233 H   0  0  0  0  0  0  0  0  0  0  0  0
   41.9888   84.1454   65.7070 H   0  0  0  0  0  0  0  0  0  0  0  0
   39.6316   83.5237   65.0841 H   0  0  0  0  0  0  0  0  0  0  0  0
   38.9943   83.4311   62.6754 H   0  0  0  0  0  0  0  0  0  0  0  0
   45.6324   83.1973   59.5088 H   0  0  0  0  0  0  0  0  0  0  0  0
   45.7794   85.5188   58.5465 H   0  0  0  0  0  0  0  0  0  0  0  0
   44.1874   87.2814   59.4294 H   0  0  0  0  0  0  0  0  0  0  0  0
   41.2693   82.1480   59.8250 H   0  0  0  0  0  0  0  0  0  0  0  0
   39.6208   82.5727   59.2478 H   0  0  0  0  0  0  0  0  0  0  0  0
   42.2928   83.8265   58.5011 H   0  0  0  0  0  0  0  0  0  0  0  0
   41.0200   83.1340   57.4282 H   0  0  0  0  0  0  0  0  0  0  0  0
   41.2458   85.7350   58.5947 H   0  0  0  0  0  0  0  0  0  0  0  0
   38.8496   86.0628   58.6684 H   0  0  0  0  0  0  0  0  0  0  0  0
   38.6950   84.2737   58.5828 H   0  0  0  0  0  0  0  0  0  0  0  0
   40.0324   85.9474   60.7219 H   0  0  0  0  0  0  0  0  0  0  0  0
   38.6059   84.8609   60.8756 H   0  0  0  0  0  0  0  0  0  0  0  0
  1  2  2  0
  2  3  1  0
  4  3  2  0
  5  4  1  0
  6  1  1  0
  6  5  2  0
  7 12  2  0
  8  9  2  0
  8  7  1  0
  9 10  1  0
 10 11  2  0
 11  1  1  0
 12 11  1  0
 13  6  1  0
 14 13  1  0
 15 14  1  0
 16 15  1  0
 16 17  1  0
 17 18  1  0
 18 13  1  0
  2 19  1  0
  3 20  1  0
  4 21  1  0
  5 22  1  0
  7 23  1  0
  8 24  1  0
  9 25  1  0
 14 26  1  0
 14 27  1  0
 15 28  1  0
 15 29  1  0
 16 30  1  0
 17 31  1  0
 17 32  1  0
 18 33  1  0
 18 34  1  0
M  ISO  8  19  14  20  14  21  14  22  14  23  14  24  14  25  14  26  13
M  ISO  8  27  13  28  13  29  13  30   5  31  13  32  13  33  13  34  13
M  END
>  <minimizedAffinity>  (1) 
-4.86376667

>  <minimizedRMSD>  (1) 
1.56262875

$$$$
