
     RDKit          3D

 24 25  0  0  0  0  0  0  0  0999 V2000
   39.0380   83.5010   61.8730 C   0  0  0  0  0  0  0  0  0  0  0  0
   39.6040   83.9700   60.6730 C   0  0  0  0  0  0  0  0  0  0  0  0
   40.9500   84.3310   60.6910 C   0  0  0  0  0  0  0  0  0  0  0  0
   41.6500   84.2160   61.8500 N   0  0  0  0  0  0  0  0  0  0  0  0
   41.0670   83.7580   62.9870 C   0  0  0  0  0  0  0  0  0  0  0  0
   39.7710   83.4000   63.0090 N   0  0  0  0  0  0  0  0  0  0  0  0
   41.5920   84.8140   59.5160 N   0  0  0  0  0  0  0  0  0  0  0  0
   42.7180   85.7170   59.6650 C   0  0  0  0  0  0  0  0  0  0  0  0
   43.0270   86.4540   58.3810 C   0  0  0  0  0  0  0  0  0  0  0  0
   41.7510   86.7070   57.7350 N   0  0  0  0  0  0  0  0  0  0  0  0
   41.3270   85.4520   57.1560 C   0  0  0  0  0  0  0  0  0  0  0  0
   41.1300   84.4170   58.2290 C   0  0  0  0  0  0  0  0  0  0  0  0
   37.9773   83.2099   61.8897 H   0  0  0  0  0  0  0  0  0  0  0  0
   39.0054   84.0489   59.7535 H   0  0  0  0  0  0  0  0  0  0  0  0
   41.6652   83.6783   63.9066 H   0  0  0  0  0  0  0  0  0  0  0  0
   42.4824   86.4522   60.4486 H   0  0  0  0  0  0  0  0  0  0  0  0
   43.6006   85.1180   59.9338 H   0  0  0  0  0  0  0  0  0  0  0  0
   43.5368   87.4036   58.6009 H   0  0  0  0  0  0  0  0  0  0  0  0
   43.6915   85.8638   57.7329 H   0  0  0  0  0  0  0  0  0  0  0  0
   41.0601   87.0309   58.4269 H   0  0  0  0  0  0  0  0  0  0  0  0
   40.3784   85.6028   56.6199 H   0  0  0  0  0  0  0  0  0  0  0  0
   42.1036   85.1005   56.4608 H   0  0  0  0  0  0  0  0  0  0  0  0
   40.0549   84.1960   58.3017 H   0  0  0  0  0  0  0  0  0  0  0  0
   41.7269   83.5408   57.9358 H   0  0  0  0  0  0  0  0  0  0  0  0
  1  6  2  0
  2  3  2  0
  2  1  1  0
  3  4  1  0
  4  5  2  0
  5  6  1  0
  7  8  1  0
  7  3  1  0
  9  8  1  0
 10  9  1  0
 11 10  1  0
 11 12  1  0
 12  7  1  0
  1 13  1  0
  2 14  1  0
  5 15  1  0
  8 16  1  0
  8 17  1  0
  9 18  1  0
  9 19  1  0
 10 20  1  0
 11 21  1  0
 11 22  1  0
 12 23  1  0
 12 24  1  0
M  ISO  8  13  14  14  14  15  14  16  13  17  13  18  13  19  13  20   5
M  ISO  4  21  13  22  13  23  13  24  13
M  END
>  <minimizedAffinity>  (1) 
-4.41848183

>  <minimizedRMSD>  (1) 
2.4031899

$$$$
