
     RDKit          3D

 35 38  0  0  0  0  0  0  0  0999 V2000
   40.6020   80.9720   56.8370 C   0  0  0  0  0  0  0  0  0  0  0  0
   41.9750   80.8840   56.5040 C   0  0  0  0  0  0  0  0  0  0  0  0
   42.4320   80.3730   55.3200 C   0  0  0  0  0  0  0  0  0  0  0  0
   41.5230   79.9130   54.3780 C   0  0  0  0  0  0  0  0  0  0  0  0
   40.1780   79.9920   54.6870 C   0  0  0  0  0  0  0  0  0  0  0  0
   39.1850   79.5770   53.8270 C   0  0  0  0  0  0  0  0  0  0  0  0
   37.8390   79.6760   54.1660 C   0  0  0  0  0  0  0  0  0  0  0  0
   37.4280   80.1910   55.3780 C   0  0  0  0  0  0  0  0  0  0  0  0
   38.4250   80.6080   56.2460 C   0  0  0  0  0  0  0  0  0  0  0  0
   39.7280   80.5050   55.8860 C   0  0  0  0  0  0  0  0  0  0  0  0
   40.2500   82.9650   58.4230 C   0  0  0  0  0  0  0  0  0  0  0  0
   40.3470   81.6060   58.1160 C   0  0  0  0  0  0  0  0  0  0  0  0
   40.2120   80.6240   59.1700 C   0  0  0  0  0  0  0  0  0  0  0  0
   39.9920   81.0840   60.4370 N   0  0  0  0  0  0  0  0  0  0  0  0
   39.9030   82.4450   60.6830 C   0  0  0  0  0  0  0  0  0  0  0  0
   40.0310   83.3550   59.6870 N   0  0  0  0  0  0  0  0  0  0  0  0
   39.6740   82.9590   62.0360 C   0  0  0  0  0  0  0  0  0  0  0  0
   38.5660   83.3770   62.4250 O   0  0  0  0  0  0  0  0  0  0  0  0
   40.7730   83.0090   63.0320 C   0  0  0  0  0  0  0  0  0  0  0  0
   41.4490   84.3630   63.2930 C   0  0  0  0  0  0  0  0  0  0  0  0
   40.5550   83.7450   64.3240 C   0  0  0  0  0  0  0  0  0  0  0  0
   42.7130   81.2453   57.2353 H   0  0  0  0  0  0  0  0  0  0  0  0
   43.5120   80.3272   55.1164 H   0  0  0  0  0  0  0  0  0  0  0  0
   41.8616   79.4990   53.4168 H   0  0  0  0  0  0  0  0  0  0  0  0
   39.4628   79.1573   52.8489 H   0  0  0  0  0  0  0  0  0  0  0  0
   37.0806   79.3336   53.4466 H   0  0  0  0  0  0  0  0  0  0  0  0
   36.3629   80.2669   55.6422 H   0  0  0  0  0  0  0  0  0  0  0  0
   38.1584   81.0234   57.2290 H   0  0  0  0  0  0  0  0  0  0  0  0
   40.3534   83.7166   57.6265 H   0  0  0  0  0  0  0  0  0  0  0  0
   40.2839   79.5469   58.9587 H   0  0  0  0  0  0  0  0  0  0  0  0
   41.1098   81.9975   62.7609 H   0  0  0  0  0  0  0  0  0  0  0  0
   42.5346   84.4140   63.4632 H   0  0  0  0  0  0  0  0  0  0  0  0
   41.4878   85.3306   62.7712 H   0  0  0  0  0  0  0  0  0  0  0  0
   39.5743   84.1956   64.5365 H   0  0  0  0  0  0  0  0  0  0  0  0
   40.6724   83.4844   65.3862 H   0  0  0  0  0  0  0  0  0  0  0  0
  1 12  1  0
  2  1  2  0
  3  2  1  0
  4  5  1  0
  4  3  2  0
  5 10  2  0
  6  7  2  0
  6  5  1  0
  7  8  1  0
  8  9  2  0
 10  9  1  0
 10  1  1  0
 11 16  2  0
 12 11  1  0
 12 13  2  0
 13 14  1  0
 14 15  2  0
 15 17  1  0
 16 15  1  0
 17 18  2  0
 17 19  1  0
 19 20  1  0
 19 21  1  0
 20 21  1  0
  2 22  1  0
  3 23  1  0
  4 24  1  0
  6 25  1  0
  7 26  1  0
  8 27  1  0
  9 28  1  0
 11 29  1  0
 13 30  1  0
 19 31  1  0
 20 32  1  0
 20 33  1  0
 21 34  1  0
 21 35  1  0
M  ISO  8  22  14  23  14  24  14  25  14  26  14  27  14  28  14  29  14
M  ISO  6  30  14  31  13  32  13  33  13  34  13  35  13
M  END
>  <minimizedAffinity>  (1) 
-5.70571756

>  <minimizedRMSD>  (1) 
2.97199154

$$$$
