
     RDKit          3D

 27 29  0  0  0  0  0  0  0  0999 V2000
   42.5680   84.9600   61.0280 C   0  0  0  0  0  0  0  0  0  0  0  0
   43.5490   85.4500   61.8800 C   0  0  0  0  0  0  0  0  0  0  0  0
   44.2600   86.2950   61.0180 C   0  0  0  0  0  0  0  0  0  0  0  0
   43.7320   86.2900   59.7800 N   0  0  0  0  0  0  0  0  0  0  0  0
   42.6830   85.4600   59.7950 N   0  0  0  0  0  0  0  0  0  0  0  0
   40.8510   81.8780   62.2410 C   0  0  0  0  0  0  0  0  0  0  0  0
   41.8870   82.7420   61.8750 C   0  0  0  0  0  0  0  0  0  0  0  0
   41.5370   84.0180   61.4230 C   0  0  0  0  0  0  0  0  0  0  0  0
   40.2150   84.3700   61.3570 N   0  0  0  0  0  0  0  0  0  0  0  0
   39.2600   83.4730   61.7320 C   0  0  0  0  0  0  0  0  0  0  0  0
   39.5800   82.2510   62.1650 N   0  0  0  0  0  0  0  0  0  0  0  0
   44.2070   87.0460   58.6310 C   0  0  0  0  0  0  0  0  0  0  0  0
   44.3580   88.4860   59.0120 C   0  0  0  0  0  0  0  0  0  0  0  0
   44.9820   89.3730   57.9680 C   0  0  0  0  0  0  0  0  0  0  0  0
   43.5250   89.5000   58.3070 C   0  0  0  0  0  0  0  0  0  0  0  0
   43.7213   85.2332   62.9446 H   0  0  0  0  0  0  0  0  0  0  0  0
   45.1381   86.8872   61.3152 H   0  0  0  0  0  0  0  0  0  0  0  0
   41.0947   80.8671   62.5997 H   0  0  0  0  0  0  0  0  0  0  0  0
   42.9396   82.4294   61.9402 H   0  0  0  0  0  0  0  0  0  0  0  0
   38.2002   83.7625   61.6767 H   0  0  0  0  0  0  0  0  0  0  0  0
   43.4820   86.9580   57.8084 H   0  0  0  0  0  0  0  0  0  0  0  0
   45.1793   86.6479   58.3053 H   0  0  0  0  0  0  0  0  0  0  0  0
   44.5411   88.2562   60.0720 H   0  0  0  0  0  0  0  0  0  0  0  0
   45.2883   88.9528   56.9986 H   0  0  0  0  0  0  0  0  0  0  0  0
   45.8401   90.0605   57.9385 H   0  0  0  0  0  0  0  0  0  0  0  0
   43.1629   90.3859   58.8494 H   0  0  0  0  0  0  0  0  0  0  0  0
   42.5892   89.4688   57.7298 H   0  0  0  0  0  0  0  0  0  0  0  0
  1  8  1  0
  1  2  1  0
  3  2  2  0
  4  5  1  0
  4  3  1  0
  5  1  2  0
  7  6  2  0
  8  7  1  0
  9  8  2  0
  9 10  1  0
 10 11  2  0
 11  6  1  0
 12 13  1  0
 12  4  1  0
 14 15  1  0
 14 13  1  0
 15 13  1  0
  2 16  1  0
  3 17  1  0
  6 18  1  0
  7 19  1  0
 10 20  1  0
 12 21  1  0
 12 22  1  0
 13 23  1  0
 14 24  1  0
 14 25  1  0
 15 26  1  0
 15 27  1  0
M  ISO  8  16  14  17  14  18  14  19  14  20  14  21   8  22   8  23  13
M  ISO  4  24  13  25  13  26  13  27  13
M  END
>  <minimizedAffinity>  (1) 
-4.2453661

>  <minimizedRMSD>  (1) 
0.813203752

$$$$
