
     RDKit          3D

 26 28  0  0  1  0  0  0  0  0999 V2000
   41.7590   85.2530   59.5070 C   0  0  1  0  0  0  0  0  0  0  0  0
   42.6330   85.4020   58.2670 C   0  0  0  0  0  0  0  0  0  0  0  0
   41.3960   84.5250   58.2810 C   0  0  1  0  0  0  0  0  0  0  0  0
   42.4420   84.5490   60.5450 O   0  0  0  0  0  0  0  0  0  0  0  0
   40.0270   83.6160   63.0780 C   0  0  0  0  0  0  0  0  0  0  0  0
   40.7500   83.8170   64.2540 C   0  0  0  0  0  0  0  0  0  0  0  0
   42.0860   84.2810   64.1340 C   0  0  0  0  0  0  0  0  0  0  0  0
   42.5350   84.4870   62.8710 N   0  0  0  0  0  0  0  0  0  0  0  0
   41.8260   84.2880   61.7470 C   0  0  0  0  0  0  0  0  0  0  0  0
   40.5660   83.8520   61.8400 N   0  0  0  0  0  0  0  0  0  0  0  0
   41.5830   83.1380   58.2940 O   0  0  0  0  0  0  0  0  0  0  0  0
   40.3520   82.5420   58.4760 C   0  0  0  0  0  0  0  0  0  0  0  0
   40.2000   81.3130   59.2980 C   0  0  0  0  0  0  0  0  0  0  0  0
   40.1920   81.1840   57.8130 C   0  0  0  0  0  0  0  0  0  0  0  0
   41.1734   85.9005   60.1762 H   0  0  0  0  0  0  0  0  0  0  0  0
   43.6350   84.9492   58.2356 H   0  0  0  0  0  0  0  0  0  0  0  0
   43.0011   86.2392   57.6558 H   0  0  0  0  0  0  0  0  0  0  0  0
   40.4949   84.4631   57.6532 H   0  0  0  0  0  0  0  0  0  0  0  0
   38.9898   83.2561   63.1465 H   0  0  0  0  0  0  0  0  0  0  0  0
   40.3007   83.6228   65.2391 H   0  0  0  0  0  0  0  0  0  0  0  0
   42.7202   84.4629   65.0141 H   0  0  0  0  0  0  0  0  0  0  0  0
   39.8359   83.5133   58.4874 H   0  0  0  0  0  0  0  0  0  0  0  0
   41.0559   80.9323   59.8746 H   0  0  0  0  0  0  0  0  0  0  0  0
   39.5146   81.0041   60.1010 H   0  0  0  0  0  0  0  0  0  0  0  0
   39.2599   80.9334   57.2854 H   0  0  0  0  0  0  0  0  0  0  0  0
   40.7626   80.6013   57.0749 H   0  0  0  0  0  0  0  0  0  0  0  0
  1  4  1  0
  2  3  1  0
  2  1  1  0
  3 11  1  0
  3  1  1  0
  4  9  1  0
  5  6  2  0
  7  6  1  0
  8  7  2  0
  9 10  2  0
  9  8  1  0
 10  5  1  0
 11 12  1  0
 12 13  1  0
 14 12  1  0
 14 13  1  0
  1 15  1  1
  2 16  1  0
  2 17  1  0
  3 18  1  6
  5 19  1  0
  6 20  1  0
  7 21  1  0
 12 22  1  0
 13 23  1  0
 13 24  1  0
 14 25  1  0
 14 26  1  0
M  ISO  8  15  13  16  13  17  13  18  13  19  14  20  14  21  14  22  13
M  ISO  4  23  13  24  13  25  13  26  13
M  END
>  <minimizedAffinity>  (1) 
-3.85791278

>  <minimizedRMSD>  (1) 
2.47080588

$$$$
