
     RDKit          3D

 17 18  0  0  0  0  0  0  0  0999 V2000
   41.0610   81.6340   62.3710 C   0  0  0  0  0  0  0  0  0  0  0  0
   40.7650   82.0850   61.0640 C   0  0  0  0  0  0  0  0  0  0  0  0
   40.1780   83.3450   60.9350 C   0  0  0  0  0  0  0  0  0  0  0  0
   39.9270   84.0650   62.0640 N   0  0  0  0  0  0  0  0  0  0  0  0
   40.2230   83.6050   63.3070 C   0  0  0  0  0  0  0  0  0  0  0  0
   40.7910   82.3880   63.4570 N   0  0  0  0  0  0  0  0  0  0  0  0
   39.8490   83.8620   59.5920 C   0  0  0  0  0  0  0  0  0  0  0  0
   39.3950   85.2530   59.3580 C   0  0  0  0  0  0  0  0  0  0  0  0
   40.8120   84.9240   59.0810 C   0  0  0  0  0  0  0  0  0  0  0  0
   41.5225   80.6446   62.5057 H   0  0  0  0  0  0  0  0  0  0  0  0
   40.9888   81.4665   60.1823 H   0  0  0  0  0  0  0  0  0  0  0  0
   40.0008   84.2219   64.1902 H   0  0  0  0  0  0  0  0  0  0  0  0
   39.4350   82.8924   59.2783 H   0  0  0  0  0  0  0  0  0  0  0  0
   38.7128   85.4703   58.5229 H   0  0  0  0  0  0  0  0  0  0  0  0
   38.8901   86.0093   59.9769 H   0  0  0  0  0  0  0  0  0  0  0  0
   41.1777   84.8853   58.0443 H   0  0  0  0  0  0  0  0  0  0  0  0
   41.7856   85.3196   59.4060 H   0  0  0  0  0  0  0  0  0  0  0  0
  1  6  2  0
  2  1  1  0
  3  2  2  0
  3  4  1  0
  4  5  2  0
  5  6  1  0
  7  3  1  0
  8  7  1  0
  9  8  1  0
  9  7  1  0
  1 10  1  0
  2 11  1  0
  5 12  1  0
  7 13  1  0
  8 14  1  0
  8 15  1  0
  9 16  1  0
  9 17  1  0
M  ISO  8  10  14  11  14  12  14  13  13  14  13  15  13  16  13  17  13
M  END
>  <minimizedAffinity>  (1) 
-3.4786284

>  <minimizedRMSD>  (1) 
1.80274045

$$$$
