
     RDKit          3D

 30 32  0  0  0  0  0  0  0  0999 V2000
   40.2570   81.9010   58.4170 Cl  0  0  0  0  0  0  0  0  0  0  0  0
   40.1730   80.2990   59.1500 C   0  0  0  0  0  0  0  0  0  0  0  0
   40.5280   80.0620   60.4530 C   0  0  0  0  0  0  0  0  0  0  0  0
   40.4280   78.7540   60.8720 C   0  0  0  0  0  0  0  0  0  0  0  0
   40.0030   77.6850   60.0870 C   0  0  0  0  0  0  0  0  0  0  0  0
   39.6600   77.9820   58.7870 C   0  0  0  0  0  0  0  0  0  0  0  0
   39.1200   76.6620   57.7690 Cl  0  0  0  0  0  0  0  0  0  0  0  0
   39.7460   79.3000   58.3190 C   0  0  0  0  0  0  0  0  0  0  0  0
   42.2670   81.5130   61.5940 C   0  0  0  0  0  0  0  0  0  0  0  0
   40.9630   81.1410   61.2690 C   0  0  0  0  0  0  0  0  0  0  0  0
   39.9310   81.9300   61.8150 C   0  0  0  0  0  0  0  0  0  0  0  0
   40.2790   82.9810   62.6070 N   0  0  0  0  0  0  0  0  0  0  0  0
   41.5540   83.3010   62.8920 C   0  0  0  0  0  0  0  0  0  0  0  0
   42.5480   82.5580   62.3780 N   0  0  0  0  0  0  0  0  0  0  0  0
   41.7420   84.4800   63.7720 C   0  0  0  0  0  0  0  0  0  0  0  0
   40.5560   85.1030   64.0670 F   0  0  0  0  0  0  0  0  0  0  0  0
   42.3150   84.0720   64.9690 F   0  0  0  0  0  0  0  0  0  0  0  0
   42.5250   85.4400   63.1610 F   0  0  0  0  0  0  0  0  0  0  0  0
   39.3060   79.3950   56.9020 C   0  0  0  0  0  0  0  0  0  0  0  0
   39.5360   80.5840   56.0640 C   0  0  0  0  0  0  0  0  0  0  0  0
   40.3490   79.3210   55.8120 C   0  0  0  0  0  0  0  0  0  0  0  0
   40.7070   78.5353   61.9133 H   0  0  0  0  0  0  0  0  0  0  0  0
   39.9446   76.6606   60.4834 H   0  0  0  0  0  0  0  0  0  0  0  0
   43.1001   80.9208   61.1876 H   0  0  0  0  0  0  0  0  0  0  0  0
   38.8749   81.7032   61.6073 H   0  0  0  0  0  0  0  0  0  0  0  0
   38.3946   78.8411   57.1713 H   0  0  0  0  0  0  0  0  0  0  0  0
   38.7726   80.8990   55.3374 H   0  0  0  0  0  0  0  0  0  0  0  0
   39.7828   81.6371   56.2644 H   0  0  0  0  0  0  0  0  0  0  0  0
   40.1691   78.7153   54.9116 H   0  0  0  0  0  0  0  0  0  0  0  0
   41.4183   79.0686   55.7592 H   0  0  0  0  0  0  0  0  0  0  0  0
  1  2  1  0
  2  3  2  0
  3  4  1  0
  3 10  1  0
  5  4  2  0
  6  5  1  0
  7  6  1  0
  8  6  2  0
  8  2  1  0
  9 14  2  0
 10  9  1  0
 10 11  2  0
 11 12  1  0
 12 13  2  0
 13 15  1  0
 14 13  1  0
 15 16  1  0
 15 17  1  0
 18 15  1  0
 19  8  1  0
 20 19  1  0
 21 20  1  0
 21 19  1  0
  4 22  1  0
  5 23  1  0
  9 24  1  0
 11 25  1  0
 19 26  1  0
 20 27  1  0
 20 28  1  0
 21 29  1  0
 21 30  1  0
M  ISO  8  22  14  23  14  24  14  25  14  26  13  27  13  28  13  29  13
M  ISO  1  30  13
M  END
>  <minimizedAffinity>  (1) 
-5.26693153

>  <minimizedRMSD>  (1) 
2.60274196

$$$$
