
     RDKit          3D

 17 18  0  0  0  0  0  0  0  0999 V2000
   39.8370   81.8990   60.7220 C   0  0  0  0  0  0  0  0  0  0  0  0
   40.0920   82.9640   59.8440 C   0  0  0  0  0  0  0  0  0  0  0  0
   40.6940   84.1210   60.3910 C   0  0  0  0  0  0  0  0  0  0  0  0
   40.9850   84.1290   61.7180 N   0  0  0  0  0  0  0  0  0  0  0  0
   40.7230   83.0800   62.5260 C   0  0  0  0  0  0  0  0  0  0  0  0
   40.1460   81.9640   62.0200 N   0  0  0  0  0  0  0  0  0  0  0  0
   41.0780   83.1780   63.9700 C   0  0  0  0  0  0  0  0  0  0  0  0
   40.2820   84.2200   64.7210 C   0  0  0  0  0  0  0  0  0  0  0  0
   41.7430   84.4090   64.4920 C   0  0  0  0  0  0  0  0  0  0  0  0
   39.3690   80.9840   60.3298 H   0  0  0  0  0  0  0  0  0  0  0  0
   39.8347   82.9014   58.7764 H   0  0  0  0  0  0  0  0  0  0  0  0
   40.9207   84.9918   59.7584 H   0  0  0  0  0  0  0  0  0  0  0  0
   41.3143   82.1075   64.0605 H   0  0  0  0  0  0  0  0  0  0  0  0
   39.5547   84.8487   64.1864 H   0  0  0  0  0  0  0  0  0  0  0  0
   39.6255   84.2132   65.6036 H   0  0  0  0  0  0  0  0  0  0  0  0
   42.4436   84.3366   65.3369 H   0  0  0  0  0  0  0  0  0  0  0  0
   42.3588   85.2034   64.0451 H   0  0  0  0  0  0  0  0  0  0  0  0
  1  6  2  0
  2  3  2  0
  2  1  1  0
  3  4  1  0
  4  5  2  0
  5  7  1  0
  6  5  1  0
  7  9  1  0
  7  8  1  0
  9  8  1  0
  1 10  1  0
  2 11  1  0
  3 12  1  0
  7 13  1  0
  8 14  1  0
  8 15  1  0
  9 16  1  0
  9 17  1  0
M  ISO  8  10  14  11  14  12  14  13  13  14  13  15  13  16  13  17  13
M  END
>  <minimizedAffinity>  (1) 
-3.6171782

>  <minimizedRMSD>  (1) 
2.6090734

$$$$
