
     RDKit          3D

 33 36  0  0  0  0  0  0  0  0999 V2000
   40.4290   81.1310   57.0620 C   0  0  0  0  0  0  0  0  0  0  0  0
   41.6640   81.4830   56.5150 C   0  0  0  0  0  0  0  0  0  0  0  0
   42.0120   81.2480   55.2000 C   0  0  0  0  0  0  0  0  0  0  0  0
   41.1010   80.6290   54.3610 C   0  0  0  0  0  0  0  0  0  0  0  0
   39.8780   80.2770   54.8920 C   0  0  0  0  0  0  0  0  0  0  0  0
   38.9000   79.6520   54.1430 C   0  0  0  0  0  0  0  0  0  0  0  0
   37.6830   79.2990   54.6850 C   0  0  0  0  0  0  0  0  0  0  0  0
   37.3770   79.5540   56.0110 C   0  0  0  0  0  0  0  0  0  0  0  0
   38.3380   80.1790   56.7800 C   0  0  0  0  0  0  0  0  0  0  0  0
   39.5340   80.5130   56.2070 C   0  0  0  0  0  0  0  0  0  0  0  0
   40.1720   80.6670   59.5990 C   0  0  0  0  0  0  0  0  0  0  0  0
   40.2690   81.4780   58.4710 C   0  0  0  0  0  0  0  0  0  0  0  0
   40.2020   82.8820   58.6640 C   0  0  0  0  0  0  0  0  0  0  0  0
   40.0480   83.3510   59.9320 N   0  0  0  0  0  0  0  0  0  0  0  0
   39.9580   82.5130   60.9980 C   0  0  0  0  0  0  0  0  0  0  0  0
   40.0220   81.1790   60.8090 N   0  0  0  0  0  0  0  0  0  0  0  0
   39.7910   83.1190   62.3420 C   0  0  0  0  0  0  0  0  0  0  0  0
   40.9630   82.8740   63.3430 C   0  0  0  0  0  0  0  0  0  0  0  0
   40.6370   84.2320   62.7850 C   0  0  0  0  0  0  0  0  0  0  0  0
   42.4004   81.9747   57.1677 H   0  0  0  0  0  0  0  0  0  0  0  0
   43.0008   81.5488   54.8234 H   0  0  0  0  0  0  0  0  0  0  0  0
   41.3443   80.4252   53.3078 H   0  0  0  0  0  0  0  0  0  0  0  0
   39.0981   79.4298   53.0841 H   0  0  0  0  0  0  0  0  0  0  0  0
   36.9362   78.8023   54.0482 H   0  0  0  0  0  0  0  0  0  0  0  0
   36.4034   79.2689   56.4363 H   0  0  0  0  0  0  0  0  0  0  0  0
   38.1445   80.4052   57.8389 H   0  0  0  0  0  0  0  0  0  0  0  0
   40.2213   79.5745   59.4806 H   0  0  0  0  0  0  0  0  0  0  0  0
   40.2727   83.5731   57.8111 H   0  0  0  0  0  0  0  0  0  0  0  0
   38.7012   82.9726   62.3135 H   0  0  0  0  0  0  0  0  0  0  0  0
   40.7560   82.6400   64.3977 H   0  0  0  0  0  0  0  0  0  0  0  0
   41.8496   82.2242   63.3841 H   0  0  0  0  0  0  0  0  0  0  0  0
   41.3283   84.7029   62.0706 H   0  0  0  0  0  0  0  0  0  0  0  0
   40.4246   85.2086   63.2445 H   0  0  0  0  0  0  0  0  0  0  0  0
  1 12  1  0
  2  1  2  0
  3  2  1  0
  4  5  1  0
  4  3  2  0
  5 10  2  0
  6  7  2  0
  6  5  1  0
  7  8  1  0
  8  9  2  0
 10  9  1  0
 10  1  1  0
 11 16  2  0
 12 13  2  0
 12 11  1  0
 13 14  1  0
 14 15  2  0
 15 17  1  0
 16 15  1  0
 17 19  1  0
 17 18  1  0
 19 18  1  0
  2 20  1  0
  3 21  1  0
  4 22  1  0
  6 23  1  0
  7 24  1  0
  8 25  1  0
  9 26  1  0
 11 27  1  0
 13 28  1  0
 17 29  1  0
 18 30  1  0
 18 31  1  0
 19 32  1  0
 19 33  1  0
M  ISO  8  20  14  21  14  22  14  23  14  24  14  25  14  26  14  27  14
M  ISO  6  28  14  29  13  30  13  31  13  32  13  33  13
M  END
>  <minimizedAffinity>  (1) 
-5.07236958

>  <minimizedRMSD>  (1) 
2.21771955

$$$$
