
     RDKit          3D

 17 18  0  0  0  0  0  0  0  0999 V2000
   40.3570   82.1200   61.0450 C   0  0  0  0  0  0  0  0  0  0  0  0
   40.4150   82.8990   59.8800 C   0  0  0  0  0  0  0  0  0  0  0  0
   39.6510   84.0690   59.8360 C   0  0  0  0  0  0  0  0  0  0  0  0
   38.8940   84.3860   60.9250 N   0  0  0  0  0  0  0  0  0  0  0  0
   38.8620   83.6160   62.0270 C   0  0  0  0  0  0  0  0  0  0  0  0
   39.5840   82.4910   62.0930 N   0  0  0  0  0  0  0  0  0  0  0  0
   41.1710   80.8600   61.1110 C   0  0  0  0  0  0  0  0  0  0  0  0
   40.9600   79.8750   62.1690 C   0  0  0  0  0  0  0  0  0  0  0  0
   40.3120   79.6140   60.8170 C   0  0  0  0  0  0  0  0  0  0  0  0
   41.0421   82.5987   59.0276 H   0  0  0  0  0  0  0  0  0  0  0  0
   39.6603   84.7165   58.9468 H   0  0  0  0  0  0  0  0  0  0  0  0
   38.2368   83.9134   62.8818 H   0  0  0  0  0  0  0  0  0  0  0  0
   42.0933   81.3370   60.7480 H   0  0  0  0  0  0  0  0  0  0  0  0
   41.7986   79.2452   62.5007 H   0  0  0  0  0  0  0  0  0  0  0  0
   40.5816   79.9299   63.2004 H   0  0  0  0  0  0  0  0  0  0  0  0
   39.2226   79.7034   60.6935 H   0  0  0  0  0  0  0  0  0  0  0  0
   40.3176   78.8009   60.0761 H   0  0  0  0  0  0  0  0  0  0  0  0
  1  7  1  0
  1  6  1  0
  2  1  2  0
  3  2  1  0
  3  4  2  0
  4  5  1  0
  5  6  2  0
  7  8  1  0
  9  7  1  0
  9  8  1  0
  2 10  1  0
  3 11  1  0
  5 12  1  0
  7 13  1  0
  8 14  1  0
  8 15  1  0
  9 16  1  0
  9 17  1  0
M  ISO  8  10  14  11  14  12  14  13  13  14  13  15  13  16  13  17  13
M  END
>  <minimizedAffinity>  (1) 
-3.77919364

>  <minimizedRMSD>  (1) 
0.374956638

$$$$
