
     RDKit          3D

 24 25  0  0  0  0  0  0  0  0999 V2000
   41.9600   82.1490   61.4630 C   0  0  0  0  0  0  0  0  0  0  0  0
   40.9500   82.4720   60.5680 C   0  0  0  0  0  0  0  0  0  0  0  0
   39.9750   83.4050   60.9730 C   0  0  0  0  0  0  0  0  0  0  0  0
   40.1020   83.9240   62.2250 N   0  0  0  0  0  0  0  0  0  0  0  0
   41.0910   83.5940   63.0740 C   0  0  0  0  0  0  0  0  0  0  0  0
   42.0150   82.7060   62.6830 N   0  0  0  0  0  0  0  0  0  0  0  0
   42.4900   83.9580   58.3950 Cl  0  0  0  0  0  0  0  0  0  0  0  0
   41.4260   82.5770   58.1860 C   0  0  0  0  0  0  0  0  0  0  0  0
   40.7630   81.9620   59.2410 C   0  0  0  0  0  0  0  0  0  0  0  0
   39.9680   80.8920   58.8950 C   0  0  0  0  0  0  0  0  0  0  0  0
   39.7810   80.3940   57.6240 C   0  0  0  0  0  0  0  0  0  0  0  0
   40.4450   81.0210   56.6190 C   0  0  0  0  0  0  0  0  0  0  0  0
   40.2770   80.4660   54.9580 Cl  0  0  0  0  0  0  0  0  0  0  0  0
   41.2600   82.1030   56.9020 C   0  0  0  0  0  0  0  0  0  0  0  0
   42.1100   82.8860   55.5240 S   0  0  0  0  0  0  0  0  0  0  0  0
   41.0630   84.2640   64.3970 C   0  0  0  0  0  0  0  0  0  0  0  0
   40.7440   85.5950   64.2960 F   0  0  0  0  0  0  0  0  0  0  0  0
   40.1080   83.6600   65.2000 F   0  0  0  0  0  0  0  0  0  0  0  0
   42.3010   84.2200   65.0040 F   0  0  0  0  0  0  0  0  0  0  0  0
   42.7307   81.4222   61.1669 H   0  0  0  0  0  0  0  0  0  0  0  0
   39.1496   83.7003   60.3085 H   0  0  0  0  0  0  0  0  0  0  0  0
   39.4310   80.3867   59.7113 H   0  0  0  0  0  0  0  0  0  0  0  0
   39.1261   79.5311   57.4328 H   0  0  0  0  0  0  0  0  0  0  0  0
   43.0537   83.7553   56.0041 H   0  0  0  0  0  0  0  0  0  0  0  0
  1  6  2  0
  2  3  2  0
  2  1  1  0
  3  4  1  0
  4  5  2  0
  5 16  1  0
  6  5  1  0
  8  7  1  0
  8  9  2  0
  9  2  1  0
 10  9  1  0
 11 10  2  0
 12 14  2  0
 12 11  1  0
 13 12  1  0
 14  8  1  0
 15 14  1  0
 16 19  1  0
 16 18  1  0
 17 16  1  0
  1 20  1  0
  3 21  1  0
 10 22  1  0
 11 23  1  0
 15 24  1  0
M  ISO  5  20  14  21  14  22  14  23  14  24  11
M  END
>  <minimizedAffinity>  (1) 
-5.16610813

>  <minimizedRMSD>  (1) 
0.306787819

$$$$
