
     RDKit          3D

 43 46  0  0  0  0  0  0  0  0999 V2000
   40.9780   80.2340   61.8990 C   0  0  0  0  0  0  0  0  0  0  0  0
   40.9860   79.0450   62.6010 C   0  0  0  0  0  0  0  0  0  0  0  0
   40.5830   77.9280   61.9650 C   0  0  0  0  0  0  0  0  0  0  0  0
   40.1750   78.0090   60.6340 C   0  0  0  0  0  0  0  0  0  0  0  0
   40.3740   79.8060   60.2420 S   0  0  0  0  0  0  0  0  0  0  0  0
   43.0920   83.1070   62.7450 C   0  0  0  0  0  0  0  0  0  0  0  0
   42.2050   83.9410   63.4960 C   0  0  0  0  0  0  0  0  0  0  0  0
   40.9110   83.5030   63.6930 C   0  0  0  0  0  0  0  0  0  0  0  0
   40.5440   82.3110   63.1690 N   0  0  0  0  0  0  0  0  0  0  0  0
   41.3980   81.5450   62.4670 C   0  0  0  0  0  0  0  0  0  0  0  0
   42.6450   81.9380   62.2600 N   0  0  0  0  0  0  0  0  0  0  0  0
   39.6900   77.0870   59.6390 C   0  0  0  0  0  0  0  0  0  0  0  0
   40.0320   75.7810   59.7230 C   0  0  0  0  0  0  0  0  0  0  0  0
   39.4780   75.0120   58.6790 C   0  0  0  0  0  0  0  0  0  0  0  0
   38.6990   75.5060   57.7060 N   0  0  0  0  0  0  0  0  0  0  0  0
   38.4160   76.8180   57.7100 C   0  0  0  0  0  0  0  0  0  0  0  0
   38.9130   77.6300   58.6850 N   0  0  0  0  0  0  0  0  0  0  0  0
   37.5680   77.3540   56.6520 C   0  0  0  0  0  0  0  0  0  0  0  0
   36.3420   77.0290   56.6790 O   0  0  0  0  0  0  0  0  0  0  0  0
   38.2410   78.2290   55.6550 C   0  0  0  0  0  0  0  0  0  0  0  0
   38.5280   77.5100   54.3630 C   0  0  0  0  0  0  0  0  0  0  0  0
   37.3880   77.5230   53.3920 C   0  0  0  0  0  0  0  0  0  0  0  0
   36.6510   78.8190   53.3000 C   0  0  0  0  0  0  0  0  0  0  0  0
   37.3560   79.9290   54.0440 C   0  0  0  0  0  0  0  0  0  0  0  0
   37.4260   79.4750   55.4970 C   0  0  0  0  0  0  0  0  0  0  0  0
   41.3125   79.0109   63.6509 H   0  0  0  0  0  0  0  0  0  0  0  0
   40.5758   76.9616   62.4903 H   0  0  0  0  0  0  0  0  0  0  0  0
   44.1311   83.4209   62.5666 H   0  0  0  0  0  0  0  0  0  0  0  0
   42.5446   84.9041   63.9049 H   0  0  0  0  0  0  0  0  0  0  0  0
   40.1933   84.1103   64.2640 H   0  0  0  0  0  0  0  0  0  0  0  0
   40.6705   75.3656   60.5165 H   0  0  0  0  0  0  0  0  0  0  0  0
   39.6998   73.9347   58.6617 H   0  0  0  0  0  0  0  0  0  0  0  0
   39.2386   78.5178   56.0176 H   0  0  0  0  0  0  0  0  0  0  0  0
   39.3947   77.9901   53.8852 H   0  0  0  0  0  0  0  0  0  0  0  0
   38.7151   76.4569   54.6198 H   0  0  0  0  0  0  0  0  0  0  0  0
   37.7867   77.2858   52.3946 H   0  0  0  0  0  0  0  0  0  0  0  0
   36.6625   76.7826   53.7602 H   0  0  0  0  0  0  0  0  0  0  0  0
   36.5630   79.1023   52.2408 H   0  0  0  0  0  0  0  0  0  0  0  0
   35.6616   78.6788   53.7597 H   0  0  0  0  0  0  0  0  0  0  0  0
   38.3682   80.0784   53.6401 H   0  0  0  0  0  0  0  0  0  0  0  0
   36.8230   80.8860   53.9439 H   0  0  0  0  0  0  0  0  0  0  0  0
   37.8811   80.2760   56.0981 H   0  0  0  0  0  0  0  0  0  0  0  0
   36.4022   79.2574   55.8354 H   0  0  0  0  0  0  0  0  0  0  0  0
  1 10  1  0
  1  2  2  0
  3  2  1  0
  4  3  2  0
  5  4  1  0
  5  1  1  0
  6  7  2  0
  7  8  1  0
  9  8  2  0
 10  9  1  0
 11 10  2  0
 11  6  1  0
 12 13  2  0
 12  4  1  0
 14 13  1  0
 15 16  1  0
 15 14  2  0
 16 17  2  0
 17 12  1  0
 18 19  2  0
 18 16  1  0
 20 18  1  0
 21 20  1  0
 22 21  1  0
 23 22  1  0
 23 24  1  0
 24 25  1  0
 25 20  1  0
  2 26  1  0
  3 27  1  0
  6 28  1  0
  7 29  1  0
  8 30  1  0
 13 31  1  0
 14 32  1  0
 20 33  1  0
 21 34  1  0
 21 35  1  0
 22 36  1  0
 22 37  1  0
 23 38  1  0
 23 39  1  0
 24 40  1  0
 24 41  1  0
 25 42  1  0
 25 43  1  0
M  ISO  8  26  14  27  14  28  14  29  14  30  14  31  14  32  14  33  13
M  ISO  8  34  13  35  13  36  13  37  13  38  13  39  13  40  13  41  13
M  ISO  2  42  13  43  13
M  END
>  <minimizedAffinity>  (1) 
-6.47717571

>  <minimizedRMSD>  (1) 
0.886931181

$$$$
