
     RDKit          3D

 36 38  0  0  0  0  0  0  0  0999 V2000
   41.6330   83.9220   61.3930 C   0  0  0  0  0  0  0  0  0  0  0  0
   41.5310   84.2250   62.7420 C   0  0  0  0  0  0  0  0  0  0  0  0
   41.0090   83.2820   63.6480 C   0  0  0  0  0  0  0  0  0  0  0  0
   40.6060   82.0770   63.2090 N   0  0  0  0  0  0  0  0  0  0  0  0
   40.7100   81.7990   61.9060 C   0  0  0  0  0  0  0  0  0  0  0  0
   41.2110   82.6950   61.0050 N   0  0  0  0  0  0  0  0  0  0  0  0
   43.6990   86.4960   59.8410 C   0  0  0  0  0  0  0  0  0  0  0  0
   43.0810   86.6310   58.5810 C   0  0  0  0  0  0  0  0  0  0  0  0
   41.9710   85.8480   58.2690 C   0  0  0  0  0  0  0  0  0  0  0  0
   41.5610   84.9870   59.2430 N   0  0  0  0  0  0  0  0  0  0  0  0
   42.1670   84.8790   60.4350 C   0  0  0  0  0  0  0  0  0  0  0  0
   43.2200   85.6170   60.7420 N   0  0  0  0  0  0  0  0  0  0  0  0
   44.8070   87.3600   59.9970 N   0  0  0  0  0  0  0  0  0  0  0  0
   40.2830   80.4920   61.3630 C   0  0  0  0  0  0  0  0  0  0  0  0
   40.7520   79.3880   62.2610 C   0  0  0  0  0  0  0  0  0  0  0  0
   40.6560   78.0230   61.6710 C   0  0  0  0  0  0  0  0  0  0  0  0
   40.9360   77.9420   60.2070 C   0  0  0  0  0  0  0  0  0  0  0  0
   40.2040   79.0230   59.4430 C   0  0  0  0  0  0  0  0  0  0  0  0
   40.7910   80.3450   59.9490 C   0  0  0  0  0  0  0  0  0  0  0  0
   41.8602   85.2090   63.1071 H   0  0  0  0  0  0  0  0  0  0  0  0
   40.9309   83.5316   64.7164 H   0  0  0  0  0  0  0  0  0  0  0  0
   43.4731   87.3510   57.8476 H   0  0  0  0  0  0  0  0  0  0  0  0
   41.4584   85.9202   57.2984 H   0  0  0  0  0  0  0  0  0  0  0  0
   45.0791   87.9921   59.2306 H   0  0  0  0  0  0  0  0  0  0  0  0
   45.3422   87.3574   60.8770 H   0  0  0  0  0  0  0  0  0  0  0  0
   39.1851   80.4336   61.3279 H   0  0  0  0  0  0  0  0  0  0  0  0
   41.8050   79.5778   62.5163 H   0  0  0  0  0  0  0  0  0  0  0  0
   40.0865   79.3957   63.1368 H   0  0  0  0  0  0  0  0  0  0  0  0
   41.3771   77.3758   62.1917 H   0  0  0  0  0  0  0  0  0  0  0  0
   39.6100   77.7079   61.7995 H   0  0  0  0  0  0  0  0  0  0  0  0
   42.0175   78.0578   60.0428 H   0  0  0  0  0  0  0  0  0  0  0  0
   40.5875   76.9646   59.8421 H   0  0  0  0  0  0  0  0  0  0  0  0
   39.1245   78.9769   59.6494 H   0  0  0  0  0  0  0  0  0  0  0  0
   40.3256   78.9102   58.3556 H   0  0  0  0  0  0  0  0  0  0  0  0
   41.8903   80.3081   59.9366 H   0  0  0  0  0  0  0  0  0  0  0  0
   40.4935   81.1943   59.3163 H   0  0  0  0  0  0  0  0  0  0  0  0
  1  2  2  0
  2  3  1  0
  4  3  2  0
  5  4  1  0
  6  1  1  0
  6  5  2  0
  7 13  1  0
  7 12  2  0
  8  7  1  0
  9  8  2  0
  9 10  1  0
 10 11  2  0
 11 12  1  0
 11  1  1  0
 14  5  1  0
 14 15  1  0
 16 15  1  0
 17 16  1  0
 18 19  1  0
 18 17  1  0
 19 14  1  0
  2 20  1  0
  3 21  1  0
  8 22  1  0
  9 23  1  0
 13 24  1  0
 13 25  1  0
 14 26  1  0
 15 27  1  0
 15 28  1  0
 16 29  1  0
 16 30  1  0
 17 31  1  0
 17 32  1  0
 18 33  1  0
 18 34  1  0
 19 35  1  0
 19 36  1  0
M  ISO  8  20  14  21  14  22  14  23  14  26  13  27  13  28  13  29  13
M  ISO  7  30  13  31  13  32  13  33  13  34  13  35  13  36  13
M  END
>  <minimizedAffinity>  (1) 
-5.4099369

>  <minimizedRMSD>  (1) 
1.10807705

$$$$
