
     RDKit          3D

 26 27  0  0  0  0  0  0  0  0999 V2000
   40.1020   81.9370   60.9960 C   0  0  0  0  0  0  0  0  0  0  0  0
   40.2630   82.7310   59.8440 C   0  0  0  0  0  0  0  0  0  0  0  0
   39.6650   84.0030   59.8330 C   0  0  0  0  0  0  0  0  0  0  0  0
   38.9680   84.3890   60.9330 N   0  0  0  0  0  0  0  0  0  0  0  0
   38.8300   83.6020   62.0300 C   0  0  0  0  0  0  0  0  0  0  0  0
   39.4020   82.3790   62.0460 N   0  0  0  0  0  0  0  0  0  0  0  0
   41.0340   82.2380   58.6910 C   0  0  0  0  0  0  0  0  0  0  0  0
   41.8590   83.4060   58.1670 C   0  0  0  0  0  0  0  0  0  0  0  0
   41.7950   83.4980   56.6710 C   0  0  0  0  0  0  0  0  0  0  0  0
   42.0860   82.1340   56.0950 C   0  0  0  0  0  0  0  0  0  0  0  0
   41.1240   81.0820   56.5470 C   0  0  0  0  0  0  0  0  0  0  0  0
   40.1970   81.6850   57.5820 C   0  0  0  0  0  0  0  0  0  0  0  0
   40.5594   80.9373   61.0326 H   0  0  0  0  0  0  0  0  0  0  0  0
   39.7587   84.6657   58.9600 H   0  0  0  0  0  0  0  0  0  0  0  0
   38.2569   83.9575   62.8990 H   0  0  0  0  0  0  0  0  0  0  0  0
   41.6550   81.3989   59.0376 H   0  0  0  0  0  0  0  0  0  0  0  0
   41.4708   84.3400   58.5993 H   0  0  0  0  0  0  0  0  0  0  0  0
   42.9076   83.2454   58.4580 H   0  0  0  0  0  0  0  0  0  0  0  0
   40.7912   83.8250   56.3619 H   0  0  0  0  0  0  0  0  0  0  0  0
   42.5337   84.2269   56.3061 H   0  0  0  0  0  0  0  0  0  0  0  0
   43.0993   81.8349   56.4012 H   0  0  0  0  0  0  0  0  0  0  0  0
   41.9894   82.2151   55.0023 H   0  0  0  0  0  0  0  0  0  0  0  0
   40.5372   80.7234   55.6885 H   0  0  0  0  0  0  0  0  0  0  0  0
   41.6728   80.2345   56.9834 H   0  0  0  0  0  0  0  0  0  0  0  0
   39.6031   82.4908   57.1259 H   0  0  0  0  0  0  0  0  0  0  0  0
   39.5095   80.9188   57.9697 H   0  0  0  0  0  0  0  0  0  0  0  0
  1  6  2  0
  2  1  1  0
  3  2  2  0
  3  4  1  0
  4  5  2  0
  5  6  1  0
  7  2  1  0
  8  7  1  0
  9  8  1  0
 10 11  1  0
 10  9  1  0
 11 12  1  0
 12  7  1  0
  1 13  1  0
  3 14  1  0
  5 15  1  0
  7 16  1  0
  8 17  1  0
  8 18  1  0
  9 19  1  0
  9 20  1  0
 10 21  1  0
 10 22  1  0
 11 23  1  0
 11 24  1  0
 12 25  1  0
 12 26  1  0
M  ISO  8  13  14  14  14  15  14  16  13  17  13  18  13  19  13  20  13
M  ISO  6  21  13  22  13  23  13  24  13  25  13  26  13
M  END
>  <minimizedAffinity>  (1) 
-4.20495796

>  <minimizedRMSD>  (1) 
0.457824618

$$$$
