
     RDKit          3D

 36 39  0  0  0  0  0  0  0  0999 V2000
   41.8070   84.2260   61.5620 C   0  0  0  0  0  0  0  0  0  0  0  0
   41.4660   83.9500   62.8840 C   0  0  0  0  0  0  0  0  0  0  0  0
   40.1880   83.5360   63.2240 C   0  0  0  0  0  0  0  0  0  0  0  0
   39.2270   83.3950   62.2200 C   0  0  0  0  0  0  0  0  0  0  0  0
   39.5770   83.6740   60.9060 C   0  0  0  0  0  0  0  0  0  0  0  0
   40.8430   84.0820   60.5790 C   0  0  0  0  0  0  0  0  0  0  0  0
   45.3130   84.1260   60.5330 C   0  0  0  0  0  0  0  0  0  0  0  0
   45.7160   85.4550   60.6880 C   0  0  0  0  0  0  0  0  0  0  0  0
   44.7750   86.3960   61.1500 C   0  0  0  0  0  0  0  0  0  0  0  0
   43.5180   85.9600   61.4220 N   0  0  0  0  0  0  0  0  0  0  0  0
   43.1570   84.6560   61.2610 C   0  0  0  0  0  0  0  0  0  0  0  0
   44.0540   83.7790   60.8250 N   0  0  0  0  0  0  0  0  0  0  0  0
   41.1600   84.3610   59.1850 C   0  0  0  0  0  0  0  0  0  0  0  0
   40.8960   85.6900   58.8550 C   0  0  0  0  0  0  0  0  0  0  0  0
   41.1360   86.1510   57.5610 C   0  0  0  0  0  0  0  0  0  0  0  0
   41.6200   85.2760   56.6750 N   0  0  0  0  0  0  0  0  0  0  0  0
   41.8750   83.9830   56.9980 C   0  0  0  0  0  0  0  0  0  0  0  0
   41.6450   83.5440   58.2410 N   0  0  0  0  0  0  0  0  0  0  0  0
   42.4050   83.0020   56.0500 C   0  0  0  0  0  0  0  0  0  0  0  0
   41.5680   81.9420   55.7460 C   0  0  0  0  0  0  0  0  0  0  0  0
   41.9900   80.9680   54.8580 C   0  0  0  0  0  0  0  0  0  0  0  0
   43.2220   81.0920   54.3130 N   0  0  0  0  0  0  0  0  0  0  0  0
   44.0250   82.1410   54.6270 C   0  0  0  0  0  0  0  0  0  0  0  0
   43.6160   83.0870   55.4910 N   0  0  0  0  0  0  0  0  0  0  0  0
   42.2248   84.0627   63.6723 H   0  0  0  0  0  0  0  0  0  0  0  0
   39.9332   83.3209   64.2722 H   0  0  0  0  0  0  0  0  0  0  0  0
   38.2065   83.0672   62.4674 H   0  0  0  0  0  0  0  0  0  0  0  0
   38.8233   83.5654   60.1122 H   0  0  0  0  0  0  0  0  0  0  0  0
   46.0262   83.3698   60.1732 H   0  0  0  0  0  0  0  0  0  0  0  0
   46.7467   85.7600   60.4541 H   0  0  0  0  0  0  0  0  0  0  0  0
   45.0501   87.4523   61.2863 H   0  0  0  0  0  0  0  0  0  0  0  0
   40.4976   86.3760   59.6170 H   0  0  0  0  0  0  0  0  0  0  0  0
   40.9345   87.1954   57.2804 H   0  0  0  0  0  0  0  0  0  0  0  0
   40.5721   81.8742   56.2081 H   0  0  0  0  0  0  0  0  0  0  0  0
   41.3418   80.1168   54.6025 H   0  0  0  0  0  0  0  0  0  0  0  0
   45.0222   82.2180   54.1691 H   0  0  0  0  0  0  0  0  0  0  0  0
  1  2  2  0
  2  3  1  0
  4  3  2  0
  5  4  1  0
  6  5  2  0
  6  1  1  0
  7  8  2  0
  7 12  1  0
  8  9  1  0
  9 10  2  0
 11 10  1  0
 11  1  1  0
 12 11  2  0
 13  6  1  0
 14 13  2  0
 15 14  1  0
 16 17  1  0
 16 15  2  0
 17 18  2  0
 18 13  1  0
 19 17  1  0
 20 19  2  0
 21 20  1  0
 22 23  1  0
 22 21  2  0
 23 24  2  0
 24 19  1  0
  2 25  1  0
  3 26  1  0
  4 27  1  0
  5 28  1  0
  7 29  1  0
  8 30  1  0
  9 31  1  0
 14 32  1  0
 15 33  1  0
 20 34  1  0
 21 35  1  0
 23 36  1  0
M  ISO  8  25  14  26  14  27  14  28  14  29  14  30  14  31  14  32  14
M  ISO  4  33  14  34  14  35  14  36  14
M  END
>  <minimizedAffinity>  (1) 
-5.46803665

>  <minimizedRMSD>  (1) 
0.454402506

$$$$
