
     RDKit          3D

 27 29  0  0  1  0  0  0  0  0999 V2000
   42.2980   85.3700   59.7670 C   0  0  1  0  0  0  0  0  0  0  0  0
   43.3110   85.4390   58.6290 C   0  0  0  0  0  0  0  0  0  0  0  0
   42.0220   84.6270   58.5200 C   0  0  1  0  0  0  0  0  0  0  0  0
   42.8200   84.6470   60.8820 O   0  0  0  0  0  0  0  0  0  0  0  0
   40.0400   83.5160   62.9120 C   0  0  0  0  0  0  0  0  0  0  0  0
   40.5360   83.7540   64.2070 C   0  0  0  0  0  0  0  0  0  0  0  0
   41.8320   84.3030   64.3460 C   0  0  0  0  0  0  0  0  0  0  0  0
   42.4660   84.5460   63.1900 N   0  0  0  0  0  0  0  0  0  0  0  0
   42.0090   84.3260   61.9500 C   0  0  0  0  0  0  0  0  0  0  0  0
   40.7930   83.8110   61.8050 N   0  0  0  0  0  0  0  0  0  0  0  0
   42.1000   83.2500   58.5700 O   0  0  0  0  0  0  0  0  0  0  0  0
   41.3560   82.4400   57.7360 C   0  0  0  0  0  0  0  0  0  0  0  0
   40.2300   81.6690   57.9310 C   0  0  0  0  0  0  0  0  0  0  0  0
   39.7170   80.9580   56.8680 C   0  0  0  0  0  0  0  0  0  0  0  0
   40.2600   80.9810   55.6570 N   0  0  0  0  0  0  0  0  0  0  0  0
   41.3660   81.7390   55.4680 C   0  0  0  0  0  0  0  0  0  0  0  0
   41.9110   82.4600   56.4880 N   0  0  0  0  0  0  0  0  0  0  0  0
   41.6858   86.0700   60.3546 H   0  0  0  0  0  0  0  0  0  0  0  0
   43.4343   86.3663   58.0502 H   0  0  0  0  0  0  0  0  0  0  0  0
   44.3857   85.2342   58.5146 H   0  0  0  0  0  0  0  0  0  0  0  0
   41.1945   84.5990   57.7958 H   0  0  0  0  0  0  0  0  0  0  0  0
   39.0347   83.0876   62.7861 H   0  0  0  0  0  0  0  0  0  0  0  0
   39.9284   83.5180   65.0930 H   0  0  0  0  0  0  0  0  0  0  0  0
   42.2845   84.5141   65.3261 H   0  0  0  0  0  0  0  0  0  0  0  0
   39.7489   81.6221   58.9191 H   0  0  0  0  0  0  0  0  0  0  0  0
   38.8184   80.3446   57.0300 H   0  0  0  0  0  0  0  0  0  0  0  0
   41.8332   81.7735   54.4728 H   0  0  0  0  0  0  0  0  0  0  0  0
  1  4  1  0
  2  1  1  0
  3 11  1  0
  3  2  1  0
  3  1  1  0
  4  9  1  0
  5  6  2  0
  6  7  1  0
  8  7  2  0
  9  8  1  0
 10  9  2  0
 10  5  1  0
 12 13  2  0
 12 11  1  0
 14 13  1  0
 15 14  2  0
 16 15  1  0
 16 17  2  0
 17 12  1  0
  1 18  1  1
  2 19  1  0
  2 20  1  0
  3 21  1  6
  5 22  1  0
  6 23  1  0
  7 24  1  0
 13 25  1  0
 14 26  1  0
 16 27  1  0
M  ISO  8  18  13  19  13  20  13  21  13  22  14  23  14  24  14  25  14
M  ISO  2  26  14  27  14
M  END
>  <minimizedAffinity>  (1) 
-4.28761435

>  <minimizedRMSD>  (1) 
2.62040949

$$$$
