
     RDKit          3D

 35 37  0  0  0  0  0  0  0  0999 V2000
   42.9810   83.9280   58.6590 Cl  0  0  0  0  0  0  0  0  0  0  0  0
   41.7840   82.7110   58.3050 C   0  0  0  0  0  0  0  0  0  0  0  0
   40.9260   82.1730   59.2620 C   0  0  0  0  0  0  0  0  0  0  0  0
   40.0420   81.2240   58.8160 C   0  0  0  0  0  0  0  0  0  0  0  0
   39.9040   80.7450   57.5370 C   0  0  0  0  0  0  0  0  0  0  0  0
   40.7610   81.2930   56.6160 C   0  0  0  0  0  0  0  0  0  0  0  0
   40.7120   80.7830   54.9300 Cl  0  0  0  0  0  0  0  0  0  0  0  0
   41.6900   82.2670   57.0030 C   0  0  0  0  0  0  0  0  0  0  0  0
   41.9060   82.1410   61.6070 C   0  0  0  0  0  0  0  0  0  0  0  0
   41.0310   82.6400   60.6040 C   0  0  0  0  0  0  0  0  0  0  0  0
   40.1980   83.6760   60.9500 C   0  0  0  0  0  0  0  0  0  0  0  0
   40.2840   84.1370   62.2310 N   0  0  0  0  0  0  0  0  0  0  0  0
   41.1090   83.6590   63.1610 C   0  0  0  0  0  0  0  0  0  0  0  0
   41.9390   82.6380   62.8430 N   0  0  0  0  0  0  0  0  0  0  0  0
   41.0240   84.3200   64.4840 C   0  0  0  0  0  0  0  0  0  0  0  0
   40.6900   85.6490   64.3930 F   0  0  0  0  0  0  0  0  0  0  0  0
   40.0830   83.6770   65.2800 F   0  0  0  0  0  0  0  0  0  0  0  0
   42.2730   84.3050   65.1220 F   0  0  0  0  0  0  0  0  0  0  0  0
   42.5250   82.7770   56.0190 O   0  0  0  0  0  0  0  0  0  0  0  0
   42.3360   84.0310   55.4030 C   0  0  0  0  0  0  0  0  0  0  0  0
   42.9500   84.1200   54.0750 C   0  0  0  0  0  0  0  0  0  0  0  0
   42.4970   83.2730   53.0940 C   0  0  0  0  0  0  0  0  0  0  0  0
   43.0180   83.2890   51.8180 C   0  0  0  0  0  0  0  0  0  0  0  0
   44.0130   84.1830   51.5470 N   0  0  0  0  0  0  0  0  0  0  0  0
   44.4310   85.0030   52.5470 C   0  0  0  0  0  0  0  0  0  0  0  0
   43.9290   85.0030   53.8170 N   0  0  0  0  0  0  0  0  0  0  0  0
   39.3651   80.7972   59.5707 H   0  0  0  0  0  0  0  0  0  0  0  0
   39.1614   79.9786   57.2701 H   0  0  0  0  0  0  0  0  0  0  0  0
   42.5826   81.3118   61.3528 H   0  0  0  0  0  0  0  0  0  0  0  0
   39.4938   84.1138   60.2272 H   0  0  0  0  0  0  0  0  0  0  0  0
   41.2557   84.2115   55.3015 H   0  0  0  0  0  0  0  0  0  0  0  0
   42.8227   84.7847   56.0395 H   0  0  0  0  0  0  0  0  0  0  0  0
   41.6942   82.5602   53.3335 H   0  0  0  0  0  0  0  0  0  0  0  0
   42.6440   82.6035   51.0433 H   0  0  0  0  0  0  0  0  0  0  0  0
   45.2330   85.7197   52.3163 H   0  0  0  0  0  0  0  0  0  0  0  0
  2  1  1  0
  2  3  2  0
  3 10  1  0
  4  3  1  0
  5  4  2  0
  6  8  2  0
  6  5  1  0
  7  6  1  0
  8  2  1  0
  9 14  2  0
 10 11  2  0
 10  9  1  0
 11 12  1  0
 12 13  2  0
 13 15  1  0
 14 13  1  0
 15 18  1  0
 15 17  1  0
 16 15  1  0
 19  8  1  0
 20 19  1  0
 21 20  1  0
 22 21  2  0
 23 22  1  0
 24 23  2  0
 24 25  1  0
 25 26  2  0
 26 21  1  0
  4 27  1  0
  5 28  1  0
  9 29  1  0
 11 30  1  0
 20 31  1  0
 20 32  1  0
 22 33  1  0
 23 34  1  0
 25 35  1  0
M  ISO  8  27  14  28  14  29  14  30  14  31   8  32   8  33  14  34  14
M  ISO  1  35  14
M  END
>  <minimizedAffinity>  (1) 
-5.21073151

>  <minimizedRMSD>  (1) 
0.665758908

$$$$
