
     RDKit          3D

 33 35  0  0  0  0  0  0  0  0999 V2000
   44.0700   86.4410   60.0580 C   0  0  0  0  0  0  0  0  0  0  0  0
   44.5060   86.5760   61.3700 C   0  0  0  0  0  0  0  0  0  0  0  0
   43.6780   85.6640   62.0320 C   0  0  0  0  0  0  0  0  0  0  0  0
   42.8280   85.0480   61.1610 N   0  0  0  0  0  0  0  0  0  0  0  0
   43.0850   85.5420   59.9410 N   0  0  0  0  0  0  0  0  0  0  0  0
   44.9350   89.2520   57.7660 C   0  0  0  0  0  0  0  0  0  0  0  0
   44.4030   88.5670   58.8500 C   0  0  0  0  0  0  0  0  0  0  0  0
   44.6160   87.1830   58.9360 C   0  0  0  0  0  0  0  0  0  0  0  0
   45.3300   86.5680   57.9630 N   0  0  0  0  0  0  0  0  0  0  0  0
   45.8310   87.2900   56.9180 C   0  0  0  0  0  0  0  0  0  0  0  0
   45.6300   88.6140   56.8320 N   0  0  0  0  0  0  0  0  0  0  0  0
   41.8370   84.0540   61.4870 C   0  0  0  0  0  0  0  0  0  0  0  0
   40.8050   83.9860   60.5020 N   0  0  0  0  0  0  0  0  0  0  0  0
   39.5320   84.4300   60.9880 C   0  0  0  0  0  0  0  0  0  0  0  0
   38.9220   83.4480   61.9490 C   0  0  0  0  0  0  0  0  0  0  0  0
   39.4950   82.2050   61.9620 O   0  0  0  0  0  0  0  0  0  0  0  0
   39.9100   81.7100   60.7540 C   0  0  0  0  0  0  0  0  0  0  0  0
   40.6470   82.7050   59.8840 C   0  0  0  0  0  0  0  0  0  0  0  0
   45.2928   87.2268   61.7791 H   0  0  0  0  0  0  0  0  0  0  0  0
   43.7082   85.4688   63.1141 H   0  0  0  0  0  0  0  0  0  0  0  0
   44.7786   90.3374   57.6799 H   0  0  0  0  0  0  0  0  0  0  0  0
   43.8279   89.0971   59.6235 H   0  0  0  0  0  0  0  0  0  0  0  0
   46.4086   86.7782   56.1341 H   0  0  0  0  0  0  0  0  0  0  0  0
   42.3279   83.0720   61.5558 H   0  0  0  0  0  0  0  0  0  0  0  0
   41.3752   84.3352   62.4449 H   0  0  0  0  0  0  0  0  0  0  0  0
   39.6644   85.3938   61.5014 H   0  0  0  0  0  0  0  0  0  0  0  0
   38.8549   84.5276   60.1266 H   0  0  0  0  0  0  0  0  0  0  0  0
   39.0030   83.8695   62.9618 H   0  0  0  0  0  0  0  0  0  0  0  0
   37.8851   83.2999   61.6130 H   0  0  0  0  0  0  0  0  0  0  0  0
   40.5800   80.8585   60.9442 H   0  0  0  0  0  0  0  0  0  0  0  0
   39.0000   81.4291   60.2035 H   0  0  0  0  0  0  0  0  0  0  0  0
   40.0839   82.8355   58.9481 H   0  0  0  0  0  0  0  0  0  0  0  0
   41.6547   82.3010   59.7071 H   0  0  0  0  0  0  0  0  0  0  0  0
  1  2  1  0
  2  3  2  0
  4 12  1  0
  4  3  1  0
  5  1  2  0
  5  4  1  0
  6  7  2  0
  7  8  1  0
  8  1  1  0
  9  8  2  0
 10  9  1  0
 11 10  2  0
 11  6  1  0
 13 14  1  0
 13 12  1  0
 14 15  1  0
 15 16  1  0
 17 16  1  0
 18 13  1  0
 18 17  1  0
  2 19  1  0
  3 20  1  0
  6 21  1  0
  7 22  1  0
 10 23  1  0
 12 24  1  0
 12 25  1  0
 14 26  1  0
 14 27  1  0
 15 28  1  0
 15 29  1  0
 17 30  1  0
 17 31  1  0
 18 32  1  0
 18 33  1  0
M  ISO  8  19  14  20  14  21  14  22  14  23  14  24   8  25   8  26  13
M  ISO  7  27  13  28  13  29  13  30  13  31  13  32  13  33  13
M  END
>  <minimizedAffinity>  (1) 
-4.82773113

>  <minimizedRMSD>  (1) 
6.53151655

$$$$
