
     RDKit          3D

 50 53  0  0  1  0  0  0  0  0999 V2000
   42.2030   82.5120   61.5750 C   0  0  0  0  0  0  0  0  0  0  0  0
   42.5340   81.2760   61.0540 C   0  0  0  0  0  0  0  0  0  0  0  0
   43.6700   80.6200   61.4700 C   0  0  0  0  0  0  0  0  0  0  0  0
   44.5430   81.1450   62.4250 C   0  0  0  0  0  0  0  0  0  0  0  0
   44.2360   82.3690   62.9560 C   0  0  0  0  0  0  0  0  0  0  0  0
   43.0990   83.0210   62.5360 C   0  0  0  0  0  0  0  0  0  0  0  0
   39.9940   79.1270   59.4380 C   0  0  0  0  0  0  0  0  0  0  0  0
   40.1550   79.4720   58.0900 C   0  0  0  0  0  0  0  0  0  0  0  0
   41.1380   80.4300   57.7780 C   0  0  0  0  0  0  0  0  0  0  0  0
   41.8480   80.9390   58.8150 N   0  0  0  0  0  0  0  0  0  0  0  0
   41.6890   80.6090   60.0750 C   0  0  0  0  0  0  0  0  0  0  0  0
   40.7540   79.6960   60.3850 N   0  0  0  0  0  0  0  0  0  0  0  0
   39.3480   78.8700   57.0860 N   0  0  0  0  0  0  0  0  0  0  0  0
   38.2800   79.5980   56.7470 C   0  0  0  0  0  0  0  0  0  0  0  0
   37.4220   79.0940   55.7670 C   0  0  0  0  0  0  0  0  0  0  0  0
   37.7110   77.8540   55.1830 C   0  0  0  0  0  0  0  0  0  0  0  0
   37.0060   77.3220   54.3030 O   0  0  0  0  0  0  0  0  0  0  0  0
   38.8220   77.1820   55.5920 N   0  0  0  0  0  0  0  0  0  0  0  0
   39.6520   77.6760   56.5440 C   0  0  0  0  0  0  0  0  0  0  0  0
   40.6700   77.0700   56.9230 O   0  0  0  0  0  0  0  0  0  0  0  0
   40.7980   83.3690   61.0840 S   0  0  0  0  0  0  0  0  0  0  0  0
   40.0050   83.7870   62.3140 O   0  0  0  0  0  0  0  0  0  0  0  0
   39.8390   82.3330   60.4750 O   0  0  0  0  0  0  0  0  0  0  0  0
   42.1430   84.7180   59.1920 C   0  0  2  0  0  0  0  0  0  0  0  0
   40.9130   84.8050   60.1310 C   0  0  1  0  0  0  0  0  0  0  0  0
   39.8420   84.8390   59.2280 O   0  0  0  0  0  0  0  0  0  0  0  0
   39.7630   85.9560   58.4560 C   0  0  0  0  0  0  0  0  0  0  0  0
   41.0340   86.3290   57.7490 C   0  0  1  0  0  0  0  0  0  0  0  0
   42.2600   86.0870   58.5590 C   0  0  2  0  0  0  0  0  0  0  0  0
   42.0000   83.6980   58.2790 O   0  0  0  0  0  0  0  0  0  0  0  0
   41.1920   85.7070   56.5150 O   0  0  0  0  0  0  0  0  0  0  0  0
   43.3950   86.2370   57.8060 O   0  0  0  0  0  0  0  0  0  0  0  0
   43.9006   79.6383   61.0306 H   0  0  0  0  0  0  0  0  0  0  0  0
   45.4431   80.5960   62.7387 H   0  0  0  0  0  0  0  0  0  0  0  0
   44.8918   82.8270   63.7111 H   0  0  0  0  0  0  0  0  0  0  0  0
   42.8754   84.0027   62.9791 H   0  0  0  0  0  0  0  0  0  0  0  0
   39.2365   78.3818   59.7226 H   0  0  0  0  0  0  0  0  0  0  0  0
   41.3215   80.7506   56.7419 H   0  0  0  0  0  0  0  0  0  0  0  0
   38.0820   80.5679   57.2267 H   0  0  0  0  0  0  0  0  0  0  0  0
   36.5323   79.6625   55.4583 H   0  0  0  0  0  0  0  0  0  0  0  0
   39.0390   76.2701   55.1652 H   0  0  0  0  0  0  0  0  0  0  0  0
   43.0698   84.4694   59.7298 H   0  0  0  0  0  0  0  0  0  0  0  0
   40.9499   85.6596   60.8226 H   0  0  0  0  0  0  0  0  0  0  0  0
   38.9852   85.7913   57.6958 H   0  0  0  0  0  0  0  0  0  0  0  0
   39.5358   86.7872   59.1397 H   0  0  0  0  0  0  0  0  0  0  0  0
   40.9201   87.4112   57.5881 H   0  0  0  0  0  0  0  0  0  0  0  0
   42.3457   86.8372   59.3589 H   0  0  0  0  0  0  0  0  0  0  0  0
   41.8798   82.8403   58.7586 H   0  0  0  0  0  0  0  0  0  0  0  0
   41.4334   84.7568   56.6529 H   0  0  0  0  0  0  0  0  0  0  0  0
   44.1768   86.3403   58.4045 H   0  0  0  0  0  0  0  0  0  0  0  0
  1  6  2  0
  2  3  2  0
  2  1  1  0
  3  4  1  0
  4  5  2  0
  6  5  1  0
  7 12  2  0
  8  7  1  0
  9  8  2  0
  9 10  1  0
 10 11  2  0
 11 12  1  0
 11  2  1  0
 13  8  1  0
 14 13  1  0
 15 14  2  0
 16 18  1  0
 16 15  1  0
 17 16  2  0
 18 19  1  0
 19 20  2  0
 19 13  1  0
 21  1  1  0
 21 22  2  0
 23 21  2  0
 24 30  1  0
 24 25  1  0
 25 21  1  0
 26 25  1  0
 27 26  1  0
 28 31  1  0
 28 27  1  0
 28 29  1  0
 29 32  1  0
 29 24  1  0
  3 33  1  0
  4 34  1  0
  5 35  1  0
  6 36  1  0
  7 37  1  0
  9 38  1  0
 14 39  1  0
 15 40  1  0
 18 41  1  0
 24 42  1  1
 25 43  1  1
 27 44  1  0
 27 45  1  0
 28 46  1  6
 29 47  1  1
 30 48  1  0
 31 49  1  0
 32 50  1  0
M  ISO  8  33  14  34  14  35  14  36  14  37  14  38  14  39  14  40  14
M  ISO  8  41   9  42  13  43  13  44  13  45  13  46  13  47  13  48   3
M  ISO  2  49   3  50   3
M  END
>  <minimizedAffinity>  (1) 
-6.62300158

>  <minimizedRMSD>  (1) 
2.25809216

$$$$
