
     RDKit          3D

 33 35  0  0  0  0  0  0  0  0999 V2000
   43.3460   85.1390   59.2760 C   0  0  0  0  0  0  0  0  0  0  0  0
   43.1260   82.3080   61.4240 C   0  0  0  0  0  0  0  0  0  0  0  0
   42.6470   83.2580   62.3340 C   0  0  0  0  0  0  0  0  0  0  0  0
   42.6980   84.4280   61.5640 C   0  0  0  0  0  0  0  0  0  0  0  0
   43.1670   84.1600   60.3220 N   0  0  0  0  0  0  0  0  0  0  0  0
   43.4180   82.8630   60.2670 N   0  0  0  0  0  0  0  0  0  0  0  0
   44.6260   79.0270   62.3870 C   0  0  0  0  0  0  0  0  0  0  0  0
   44.4980   80.3800   62.0890 C   0  0  0  0  0  0  0  0  0  0  0  0
   43.2720   80.9010   61.7370 C   0  0  0  0  0  0  0  0  0  0  0  0
   42.1970   80.0760   61.6880 N   0  0  0  0  0  0  0  0  0  0  0  0
   42.3730   78.7480   61.9920 C   0  0  0  0  0  0  0  0  0  0  0  0
   43.5570   78.2430   62.3300 N   0  0  0  0  0  0  0  0  0  0  0  0
   42.2720   85.9870   59.1760 O   0  0  0  0  0  0  0  0  0  0  0  0
   40.9350   86.3390   56.9670 O   0  0  0  0  0  0  0  0  0  0  0  0
   41.0180   85.4570   58.2120 P   0  0  2  0  0  0  0  0  0  0  0  0
   39.5770   85.6010   59.0450 O   0  0  0  0  0  0  0  0  0  0  0  0
   41.2250   83.8600   57.7410 O   0  0  0  0  0  0  0  0  0  0  0  0
   40.7000   82.7700   58.4220 C   0  0  0  0  0  0  0  0  0  0  0  0
   40.8310   81.5250   57.7960 C   0  0  0  0  0  0  0  0  0  0  0  0
   40.2420   80.5920   58.6460 C   0  0  0  0  0  0  0  0  0  0  0  0
   39.7890   81.2700   59.7220 N   0  0  0  0  0  0  0  0  0  0  0  0
   40.0600   82.5510   59.5850 N   0  0  0  0  0  0  0  0  0  0  0  0
   44.2469   85.7312   59.4943 H   0  0  0  0  0  0  0  0  0  0  0  0
   43.4446   84.6017   58.3212 H   0  0  0  0  0  0  0  0  0  0  0  0
   42.3185   83.1224   63.3750 H   0  0  0  0  0  0  0  0  0  0  0  0
   42.3987   85.4252   61.9190 H   0  0  0  0  0  0  0  0  0  0  0  0
   45.6049   78.6109   62.6674 H   0  0  0  0  0  0  0  0  0  0  0  0
   45.3794   81.0366   62.1346 H   0  0  0  0  0  0  0  0  0  0  0  0
   41.5024   78.0766   61.9547 H   0  0  0  0  0  0  0  0  0  0  0  0
   39.7554   85.5832   60.0186 H   0  0  0  0  0  0  0  0  0  0  0  0
   41.3055   81.3232   56.8244 H   0  0  0  0  0  0  0  0  0  0  0  0
   40.1613   79.5086   58.4734 H   0  0  0  0  0  0  0  0  0  0  0  0
   39.3049   80.8490   60.5278 H   0  0  0  0  0  0  0  0  0  0  0  0
  1  5  1  0
  2  9  1  0
  2  3  1  0
  4  3  2  0
  5  4  1  0
  6  5  1  0
  6  2  2  0
  8  7  2  0
  9  8  1  0
 10  9  2  0
 10 11  1  0
 11 12  2  0
 12  7  1  0
 13  1  1  0
 15 14  2  0
 15 16  1  0
 15 13  1  0
 17 15  1  0
 17 18  1  0
 18 22  2  0
 19 18  1  0
 19 20  2  0
 20 21  1  0
 22 21  1  0
  1 23  1  0
  1 24  1  0
  3 25  1  0
  4 26  1  0
  7 27  1  0
  8 28  1  0
 11 29  1  0
 16 30  1  0
 19 31  1  0
 20 32  1  0
 21 33  1  0
M  ISO  8  23   8  24   8  25  14  26  14  27  14  28  14  29  14  30   3
M  ISO  3  31  14  32  14  33   9
M  END
>  <minimizedAffinity>  (1) 
-4.60315275

>  <minimizedRMSD>  (1) 
4.94332504

$$$$
