
     RDKit          3D

 30 32  0  0  0  0  0  0  0  0999 V2000
   40.0680   82.0470   58.4710 Cl  0  0  0  0  0  0  0  0  0  0  0  0
   40.0890   80.3700   59.0040 C   0  0  0  0  0  0  0  0  0  0  0  0
   40.4040   79.9990   60.2940 C   0  0  0  0  0  0  0  0  0  0  0  0
   40.3750   78.6400   60.5540 C   0  0  0  0  0  0  0  0  0  0  0  0
   40.0600   77.6500   59.6370 C   0  0  0  0  0  0  0  0  0  0  0  0
   39.7580   78.0610   58.3800 C   0  0  0  0  0  0  0  0  0  0  0  0
   39.3430   76.8750   57.1400 Cl  0  0  0  0  0  0  0  0  0  0  0  0
   39.7700   79.4110   58.0600 C   0  0  0  0  0  0  0  0  0  0  0  0
   42.0030   81.3150   61.7600 C   0  0  0  0  0  0  0  0  0  0  0  0
   40.7310   81.0040   61.2530 C   0  0  0  0  0  0  0  0  0  0  0  0
   39.6480   81.7470   61.7260 C   0  0  0  0  0  0  0  0  0  0  0  0
   39.9110   82.7200   62.6430 N   0  0  0  0  0  0  0  0  0  0  0  0
   41.1320   82.9950   63.1080 C   0  0  0  0  0  0  0  0  0  0  0  0
   42.1860   82.2840   62.6610 N   0  0  0  0  0  0  0  0  0  0  0  0
   41.2290   84.0930   64.1100 C   0  0  0  0  0  0  0  0  0  0  0  0
   41.0170   85.3250   63.5380 F   0  0  0  0  0  0  0  0  0  0  0  0
   40.2740   83.9030   65.0870 F   0  0  0  0  0  0  0  0  0  0  0  0
   42.4990   84.1460   64.6770 F   0  0  0  0  0  0  0  0  0  0  0  0
   39.4330   79.7780   56.6890 C   0  0  0  0  0  0  0  0  0  0  0  0
   38.0980   79.9120   56.3700 C   0  0  0  0  0  0  0  0  0  0  0  0
   38.0550   80.2620   55.0160 C   0  0  0  0  0  0  0  0  0  0  0  0
   39.3450   80.3260   54.5710 N   0  0  0  0  0  0  0  0  0  0  0  0
   40.1540   80.0380   55.5720 N   0  0  0  0  0  0  0  0  0  0  0  0
   40.6233   78.3181   61.5761 H   0  0  0  0  0  0  0  0  0  0  0  0
   40.0551   76.5855   59.9141 H   0  0  0  0  0  0  0  0  0  0  0  0
   42.8738   80.7443   61.4050 H   0  0  0  0  0  0  0  0  0  0  0  0
   38.6241   81.5549   61.3729 H   0  0  0  0  0  0  0  0  0  0  0  0
   37.2401   79.7720   57.0441 H   0  0  0  0  0  0  0  0  0  0  0  0
   37.1499   80.4507   54.4201 H   0  0  0  0  0  0  0  0  0  0  0  0
   39.6376   80.5605   53.6117 H   0  0  0  0  0  0  0  0  0  0  0  0
  1  2  1  0
  2  3  2  0
  3  4  1  0
  3 10  1  0
  5  4  2  0
  6  5  1  0
  7  6  1  0
  8  6  2  0
  8  2  1  0
  9 14  2  0
 10 11  2  0
 10  9  1  0
 11 12  1  0
 12 13  2  0
 13 15  1  0
 14 13  1  0
 15 18  1  0
 15 17  1  0
 16 15  1  0
 19  8  1  0
 20 19  1  0
 21 20  2  0
 22 21  1  0
 22 23  1  0
 23 19  2  0
  4 24  1  0
  5 25  1  0
  9 26  1  0
 11 27  1  0
 20 28  1  0
 21 29  1  0
 22 30  1  0
M  ISO  7  24  14  25  14  26  14  27  14  28  14  29  14  30   9
M  END
>  <minimizedAffinity>  (1) 
-6.13347816

>  <minimizedRMSD>  (1) 
2.76658869

$$$$
