
     RDKit          3D

 27 29  0  0  0  0  0  0  0  0999 V2000
   41.7900   84.2760   61.4110 C   0  0  0  0  0  0  0  0  0  0  0  0
   41.3870   83.9910   62.7030 C   0  0  0  0  0  0  0  0  0  0  0  0
   40.0980   83.5820   62.9880 C   0  0  0  0  0  0  0  0  0  0  0  0
   39.1730   83.4550   61.9420 C   0  0  0  0  0  0  0  0  0  0  0  0
   39.5900   83.7480   60.6290 C   0  0  0  0  0  0  0  0  0  0  0  0
   40.8810   84.1520   60.3730 C   0  0  0  0  0  0  0  0  0  0  0  0
   45.3600   84.1880   60.5970 C   0  0  0  0  0  0  0  0  0  0  0  0
   45.7510   85.5200   60.7190 C   0  0  0  0  0  0  0  0  0  0  0  0
   44.7720   86.4470   61.0850 C   0  0  0  0  0  0  0  0  0  0  0  0
   43.5010   86.0100   61.3000 N   0  0  0  0  0  0  0  0  0  0  0  0
   43.1620   84.7000   61.1700 C   0  0  0  0  0  0  0  0  0  0  0  0
   44.0860   83.7970   60.8210 N   0  0  0  0  0  0  0  0  0  0  0  0
   41.2520   84.4410   58.9990 C   0  0  0  0  0  0  0  0  0  0  0  0
   41.8860   83.8120   57.9410 C   0  0  0  0  0  0  0  0  0  0  0  0
   41.8910   84.7100   56.8860 C   0  0  0  0  0  0  0  0  0  0  0  0
   41.2730   85.8410   57.3130 N   0  0  0  0  0  0  0  0  0  0  0  0
   40.8870   85.6900   58.5790 N   0  0  0  0  0  0  0  0  0  0  0  0
   42.1111   84.0925   63.5249 H   0  0  0  0  0  0  0  0  0  0  0  0
   39.8012   83.3587   64.0234 H   0  0  0  0  0  0  0  0  0  0  0  0
   38.1407   83.1325   62.1431 H   0  0  0  0  0  0  0  0  0  0  0  0
   38.8755   83.6529   59.7980 H   0  0  0  0  0  0  0  0  0  0  0  0
   46.1086   83.4346   60.3107 H   0  0  0  0  0  0  0  0  0  0  0  0
   46.7903   85.8295   60.5343 H   0  0  0  0  0  0  0  0  0  0  0  0
   45.0240   87.5118   61.1975 H   0  0  0  0  0  0  0  0  0  0  0  0
   42.3051   82.7950   57.9385 H   0  0  0  0  0  0  0  0  0  0  0  0
   42.3172   84.5383   55.8865 H   0  0  0  0  0  0  0  0  0  0  0  0
   41.1251   86.6871   56.7445 H   0  0  0  0  0  0  0  0  0  0  0  0
  1  2  2  0
  2  3  1  0
  4  3  2  0
  5  4  1  0
  6  5  2  0
  6  1  1  0
  7  8  2  0
  7 12  1  0
  8  9  1  0
  9 10  2  0
 11 10  1  0
 11  1  1  0
 12 11  2  0
 13  6  1  0
 14 13  1  0
 15 16  1  0
 15 14  2  0
 16 17  1  0
 17 13  2  0
  2 18  1  0
  3 19  1  0
  4 20  1  0
  5 21  1  0
  7 22  1  0
  8 23  1  0
  9 24  1  0
 14 25  1  0
 15 26  1  0
 16 27  1  0
M  ISO  8  18  14  19  14  20  14  21  14  22  14  23  14  24  14  25  14
M  ISO  2  26  14  27   9
M  END
>  <minimizedAffinity>  (1) 
-5.00414515

>  <minimizedRMSD>  (1) 
2.60787654

$$$$
