
     RDKit          3D

 33 36  0  0  0  0  0  0  0  0999 V2000
   42.4530   80.9780   62.0530 C   0  0  0  0  0  0  0  0  0  0  0  0
   43.8310   80.7970   62.0440 C   0  0  0  0  0  0  0  0  0  0  0  0
   44.7410   81.7370   62.4800 C   0  0  0  0  0  0  0  0  0  0  0  0
   44.2760   82.9320   62.9570 C   0  0  0  0  0  0  0  0  0  0  0  0
   42.9070   83.1470   62.9820 C   0  0  0  0  0  0  0  0  0  0  0  0
   42.3260   84.3170   63.4380 C   0  0  0  0  0  0  0  0  0  0  0  0
   40.9620   84.5100   63.4490 C   0  0  0  0  0  0  0  0  0  0  0  0
   40.1010   83.5270   62.9970 C   0  0  0  0  0  0  0  0  0  0  0  0
   40.6480   82.3420   62.5320 C   0  0  0  0  0  0  0  0  0  0  0  0
   42.0090   82.1980   62.5410 C   0  0  0  0  0  0  0  0  0  0  0  0
   40.9970   78.8430   62.2360 C   0  0  0  0  0  0  0  0  0  0  0  0
   41.6790   79.8450   61.5510 C   0  0  0  0  0  0  0  0  0  0  0  0
   41.6710   79.8060   60.1300 C   0  0  0  0  0  0  0  0  0  0  0  0
   40.9940   78.7880   59.5290 N   0  0  0  0  0  0  0  0  0  0  0  0
   40.3440   77.8340   60.2460 C   0  0  0  0  0  0  0  0  0  0  0  0
   40.3580   77.8820   61.5740 N   0  0  0  0  0  0  0  0  0  0  0  0
   39.6390   76.7710   59.5310 C   0  0  0  0  0  0  0  0  0  0  0  0
   38.6250   77.0370   58.6230 C   0  0  0  0  0  0  0  0  0  0  0  0
   38.2140   75.8280   58.1660 N   0  0  0  0  0  0  0  0  0  0  0  0
   38.9130   74.8330   58.7400 C   0  0  0  0  0  0  0  0  0  0  0  0
   39.7820   75.4330   59.5740 N   0  0  0  0  0  0  0  0  0  0  0  0
   44.2213   79.8413   61.6642 H   0  0  0  0  0  0  0  0  0  0  0  0
   45.8207   81.5298   62.4449 H   0  0  0  0  0  0  0  0  0  0  0  0
   44.9731   83.7050   63.3128 H   0  0  0  0  0  0  0  0  0  0  0  0
   42.9777   85.1234   63.8056 H   0  0  0  0  0  0  0  0  0  0  0  0
   40.5519   85.4598   63.8228 H   0  0  0  0  0  0  0  0  0  0  0  0
   39.0119   83.6815   63.0063 H   0  0  0  0  0  0  0  0  0  0  0  0
   40.0010   81.5327   62.1628 H   0  0  0  0  0  0  0  0  0  0  0  0
   40.9864   78.8459   63.3359 H   0  0  0  0  0  0  0  0  0  0  0  0
   42.1931   80.5710   59.5365 H   0  0  0  0  0  0  0  0  0  0  0  0
   38.2349   78.0239   58.3335 H   0  0  0  0  0  0  0  0  0  0  0  0
   37.4659   75.6903   57.4716 H   0  0  0  0  0  0  0  0  0  0  0  0
   38.7983   73.7532   58.5643 H   0  0  0  0  0  0  0  0  0  0  0  0
  1 10  1  0
  2  1  2  0
  2  3  1  0
  3  4  2  0
  4  5  1  0
  5  6  2  0
  6  7  1  0
  8  7  2  0
  9 10  2  0
  9  8  1  0
 10  5  1  0
 12  1  1  0
 12 11  2  0
 13 12  1  0
 14 13  2  0
 14 15  1  0
 15 16  2  0
 16 11  1  0
 17 21  1  0
 17 15  1  0
 18 17  2  0
 19 18  1  0
 19 20  1  0
 20 21  2  0
  2 22  1  0
  3 23  1  0
  4 24  1  0
  6 25  1  0
  7 26  1  0
  8 27  1  0
  9 28  1  0
 11 29  1  0
 13 30  1  0
 18 31  1  0
 19 32  1  0
 20 33  1  0
M  ISO  8  22  14  23  14  24  14  25  14  26  14  27  14  28  14  29  14
M  ISO  4  30  14  31  14  32   9  33  14
M  END
>  <minimizedAffinity>  (1) 
-5.88658953

>  <minimizedRMSD>  (1) 
7.31565714

$$$$
