
     RDKit          3D

 27 29  0  0  0  0  0  0  0  0999 V2000
   41.5950   83.9320   61.5040 C   0  0  0  0  0  0  0  0  0  0  0  0
   41.3290   84.3740   62.7950 C   0  0  0  0  0  0  0  0  0  0  0  0
   40.8580   83.5010   63.7770 C   0  0  0  0  0  0  0  0  0  0  0  0
   40.6560   82.1940   63.4660 N   0  0  0  0  0  0  0  0  0  0  0  0
   40.9200   81.7900   62.2170 C   0  0  0  0  0  0  0  0  0  0  0  0
   41.3810   82.6330   61.2430 N   0  0  0  0  0  0  0  0  0  0  0  0
   43.6420   86.3810   59.7210 C   0  0  0  0  0  0  0  0  0  0  0  0
   42.9380   86.5070   58.5050 C   0  0  0  0  0  0  0  0  0  0  0  0
   41.7780   85.7580   58.3080 C   0  0  0  0  0  0  0  0  0  0  0  0
   41.3930   84.9350   59.3270 N   0  0  0  0  0  0  0  0  0  0  0  0
   42.0890   84.8420   60.4710 C   0  0  0  0  0  0  0  0  0  0  0  0
   43.2040   85.5520   60.6810 N   0  0  0  0  0  0  0  0  0  0  0  0
   44.7850   87.2010   59.7630 N   0  0  0  0  0  0  0  0  0  0  0  0
   40.6980   80.3830   61.8990 C   0  0  0  0  0  0  0  0  0  0  0  0
   40.5060   80.0530   60.5600 C   0  0  0  0  0  0  0  0  0  0  0  0
   40.3250   78.7040   60.5330 N   0  0  0  0  0  0  0  0  0  0  0  0
   40.3970   78.2020   61.7920 C   0  0  0  0  0  0  0  0  0  0  0  0
   40.6280   79.2370   62.6380 N   0  0  0  0  0  0  0  0  0  0  0  0
   41.4929   85.4320   63.0474 H   0  0  0  0  0  0  0  0  0  0  0  0
   40.6523   83.8679   64.7934 H   0  0  0  0  0  0  0  0  0  0  0  0
   43.2999   87.1884   57.7209 H   0  0  0  0  0  0  0  0  0  0  0  0
   41.2000   85.8272   57.3747 H   0  0  0  0  0  0  0  0  0  0  0  0
   45.0199   87.7987   58.9577 H   0  0  0  0  0  0  0  0  0  0  0  0
   45.3867   87.2034   60.5990 H   0  0  0  0  0  0  0  0  0  0  0  0
   40.5015   80.7404   59.7012 H   0  0  0  0  0  0  0  0  0  0  0  0
   40.1581   78.1468   59.6830 H   0  0  0  0  0  0  0  0  0  0  0  0
   40.2876   77.1448   62.0756 H   0  0  0  0  0  0  0  0  0  0  0  0
  1  2  2  0
  2  3  1  0
  4  3  2  0
  5  4  1  0
  6  1  1  0
  6  5  2  0
  7 13  1  0
  7 12  2  0
  8  7  1  0
  9  8  2  0
  9 10  1  0
 10 11  2  0
 11 12  1  0
 11  1  1  0
 14  5  1  0
 14 18  1  0
 15 14  2  0
 16 15  1  0
 16 17  1  0
 17 18  2  0
  2 19  1  0
  3 20  1  0
  8 21  1  0
  9 22  1  0
 13 23  1  0
 13 24  1  0
 15 25  1  0
 16 26  1  0
 17 27  1  0
M  ISO  7  19  14  20  14  21  14  22  14  25  14  26   9  27  14
M  END
>  <minimizedAffinity>  (1) 
-5.2611208

>  <minimizedRMSD>  (1) 
0.424193233

$$$$
