
     RDKit          3D

 27 29  0  0  0  0  0  0  0  0999 V2000
   41.7510   84.3560   61.3480 C   0  0  0  0  0  0  0  0  0  0  0  0
   41.3670   83.9370   62.6170 C   0  0  0  0  0  0  0  0  0  0  0  0
   40.0930   83.5360   62.9200 C   0  0  0  0  0  0  0  0  0  0  0  0
   39.1340   83.5460   61.9120 C   0  0  0  0  0  0  0  0  0  0  0  0
   39.5070   83.9640   60.6340 C   0  0  0  0  0  0  0  0  0  0  0  0
   40.7950   84.3680   60.3350 C   0  0  0  0  0  0  0  0  0  0  0  0
   45.2920   84.2260   60.4230 C   0  0  0  0  0  0  0  0  0  0  0  0
   45.7210   85.5250   60.6610 C   0  0  0  0  0  0  0  0  0  0  0  0
   44.7880   86.4590   61.1450 C   0  0  0  0  0  0  0  0  0  0  0  0
   43.5160   86.0260   61.3490 N   0  0  0  0  0  0  0  0  0  0  0  0
   43.1210   84.7620   61.1110 C   0  0  0  0  0  0  0  0  0  0  0  0
   44.0090   83.8740   60.6510 N   0  0  0  0  0  0  0  0  0  0  0  0
   41.1440   84.8000   58.9850 C   0  0  0  0  0  0  0  0  0  0  0  0
   41.2070   85.9700   58.2590 C   0  0  0  0  0  0  0  0  0  0  0  0
   41.6260   85.6400   57.0260 N   0  0  0  0  0  0  0  0  0  0  0  0
   41.8340   84.3200   56.9320 C   0  0  0  0  0  0  0  0  0  0  0  0
   41.5390   83.8160   58.1270 N   0  0  0  0  0  0  0  0  0  0  0  0
   42.1229   83.9271   63.4161 H   0  0  0  0  0  0  0  0  0  0  0  0
   39.8334   83.2128   63.9389 H   0  0  0  0  0  0  0  0  0  0  0  0
   38.1008   83.2302   62.1187 H   0  0  0  0  0  0  0  0  0  0  0  0
   38.7496   83.9724   59.8363 H   0  0  0  0  0  0  0  0  0  0  0  0
   46.0039   83.4773   60.0454 H   0  0  0  0  0  0  0  0  0  0  0  0
   46.7654   85.8163   60.4754 H   0  0  0  0  0  0  0  0  0  0  0  0
   45.0766   87.5003   61.3507 H   0  0  0  0  0  0  0  0  0  0  0  0
   40.9614   86.9797   58.6198 H   0  0  0  0  0  0  0  0  0  0  0  0
   41.7680   86.3108   56.2574 H   0  0  0  0  0  0  0  0  0  0  0  0
   42.1787   83.7657   56.0466 H   0  0  0  0  0  0  0  0  0  0  0  0
  1  2  2  0
  2  3  1  0
  4  3  2  0
  5  4  1  0
  6  5  2  0
  6  1  1  0
  7 12  2  0
  7  8  1  0
  8  9  2  0
  9 10  1  0
 11  1  1  0
 11 10  2  0
 12 11  1  0
 13  6  1  0
 14 13  2  0
 15 14  1  0
 16 15  1  0
 16 17  2  0
 17 13  1  0
  2 18  1  0
  3 19  1  0
  4 20  1  0
  5 21  1  0
  7 22  1  0
  8 23  1  0
  9 24  1  0
 14 25  1  0
 15 26  1  0
 16 27  1  0
M  ISO  8  18  14  19  14  20  14  21  14  22  14  23  14  24  14  25  14
M  ISO  2  26   9  27  14
M  END
>  <minimizedAffinity>  (1) 
-5.05553675

>  <minimizedRMSD>  (1) 
2.62938309

$$$$
