
     RDKit          3D

 47 52  0  0  0  0  0  0  0  0999 V2000
   40.7330   81.7580   57.1340 C   0  0  0  0  0  0  0  0  0  0  0  0
   41.8060   82.3350   56.4300 C   0  0  0  0  0  0  0  0  0  0  0  0
   42.5820   83.2620   57.1140 C   0  0  0  0  0  0  0  0  0  0  0  0
   42.2950   83.5730   58.3980 N   0  0  0  0  0  0  0  0  0  0  0  0
   41.2520   82.9940   59.0470 C   0  0  0  0  0  0  0  0  0  0  0  0
   40.4590   82.0800   58.4170 N   0  0  0  0  0  0  0  0  0  0  0  0
   39.6750   83.1030   60.9230 C   0  0  0  0  0  0  0  0  0  0  0  0
   40.9760   83.3000   60.4410 C   0  0  0  0  0  0  0  0  0  0  0  0
   42.0000   83.7550   61.2750 C   0  0  0  0  0  0  0  0  0  0  0  0
   41.7620   84.0280   62.6140 C   0  0  0  0  0  0  0  0  0  0  0  0
   42.4590   84.4550   63.6750 N   0  0  0  0  0  0  0  0  0  0  0  0
   41.6640   84.5290   64.7680 C   0  0  0  0  0  0  0  0  0  0  0  0
   40.4580   84.1320   64.3400 N   0  0  0  0  0  0  0  0  0  0  0  0
   40.4870   83.8220   63.0340 C   0  0  0  0  0  0  0  0  0  0  0  0
   39.4150   83.3730   62.2710 C   0  0  0  0  0  0  0  0  0  0  0  0
   42.3340   83.6330   54.1630 Cl  0  0  0  0  0  0  0  0  0  0  0  0
   43.7380   84.1110   55.1040 C   0  0  0  0  0  0  0  0  0  0  0  0
   43.6990   83.8960   56.4560 C   0  0  0  0  0  0  0  0  0  0  0  0
   44.8350   84.3330   57.1350 C   0  0  0  0  0  0  0  0  0  0  0  0
   45.9150   84.9310   56.5180 C   0  0  0  0  0  0  0  0  0  0  0  0
   45.8830   85.1150   55.1370 C   0  0  0  0  0  0  0  0  0  0  0  0
   47.2360   85.8690   54.3380 Cl  0  0  0  0  0  0  0  0  0  0  0  0
   44.7740   84.6960   54.4270 C   0  0  0  0  0  0  0  0  0  0  0  0
   45.3240   83.8230   52.3130 C   0  0  0  0  0  0  0  0  0  0  0  0
   44.7940   84.9120   52.9850 C   0  0  0  0  0  0  0  0  0  0  0  0
   44.3690   86.0130   52.2680 C   0  0  0  0  0  0  0  0  0  0  0  0
   44.4850   85.9990   50.8910 C   0  0  0  0  0  0  0  0  0  0  0  0
   44.1320   86.9640   50.0220 N   0  0  0  0  0  0  0  0  0  0  0  0
   44.4340   86.4970   48.8000 C   0  0  0  0  0  0  0  0  0  0  0  0
   44.9850   85.2220   48.8810 C   0  0  0  0  0  0  0  0  0  0  0  0
   45.0150   84.9120   50.2270 C   0  0  0  0  0  0  0  0  0  0  0  0
   45.4490   83.7870   50.9370 C   0  0  0  0  0  0  0  0  0  0  0  0
   40.0965   81.0206   56.6229 H   0  0  0  0  0  0  0  0  0  0  0  0
   42.0205   82.0643   55.3856 H   0  0  0  0  0  0  0  0  0  0  0  0
   38.8765   82.7443   60.2569 H   0  0  0  0  0  0  0  0  0  0  0  0
   43.0101   83.8989   60.8638 H   0  0  0  0  0  0  0  0  0  0  0  0
   43.4608   84.6939   63.6611 H   0  0  0  0  0  0  0  0  0  0  0  0
   41.9458   84.8452   65.7832 H   0  0  0  0  0  0  0  0  0  0  0  0
   38.4134   83.2370   62.7050 H   0  0  0  0  0  0  0  0  0  0  0  0
   44.8730   84.1932   58.2254 H   0  0  0  0  0  0  0  0  0  0  0  0
   46.7858   85.2567   57.1060 H   0  0  0  0  0  0  0  0  0  0  0  0
   45.6584   82.9530   52.8971 H   0  0  0  0  0  0  0  0  0  0  0  0
   43.9451   86.8868   52.7844 H   0  0  0  0  0  0  0  0  0  0  0  0
   43.7140   87.8776   50.2489 H   0  0  0  0  0  0  0  0  0  0  0  0
   44.2683   87.0476   47.8622 H   0  0  0  0  0  0  0  0  0  0  0  0
   45.3260   84.5916   48.0465 H   0  0  0  0  0  0  0  0  0  0  0  0
   45.8715   82.9116   50.4221 H   0  0  0  0  0  0  0  0  0  0  0  0
  1  6  2  0
  2  3  2  0
  2  1  1  0
  3  4  1  0
  4  5  2  0
  5  8  1  0
  6  5  1  0
  7 15  2  0
  8  7  1  0
  8  9  2  0
  9 10  1  0
 10 14  2  0
 10 11  1  0
 11 12  1  0
 13 12  2  0
 14 13  1  0
 15 14  1  0
 16 17  1  0
 17 18  2  0
 18  3  1  0
 18 19  1  0
 20 19  2  0
 21 20  1  0
 22 21  1  0
 23 17  1  0
 23 21  2  0
 24 25  2  0
 25 23  1  0
 26 25  1  0
 27 26  2  0
 28 27  1  0
 29 30  2  0
 29 28  1  0
 30 31  1  0
 31 27  1  0
 31 32  2  0
 32 24  1  0
  1 33  1  0
  2 34  1  0
  7 35  1  0
  9 36  1  0
 11 37  1  0
 12 38  1  0
 15 39  1  0
 19 40  1  0
 20 41  1  0
 24 42  1  0
 26 43  1  0
 28 44  1  0
 29 45  1  0
 30 46  1  0
 32 47  1  0
M  ISO  8  33  14  34  14  35  14  36  14  37   9  38  14  39  14  40  14
M  ISO  7  41  14  42  14  43  14  44   9  45  14  46  14  47  14
M  END
>  <minimizedAffinity>  (1) 
-5.17334938

>  <minimizedRMSD>  (1) 
0.437574089

$$$$
