
     RDKit          3D

 41 45  0  0  1  0  0  0  0  0999 V2000
   39.7910   77.3990   59.1750 C   0  0  0  0  0  0  0  0  0  0  0  0
   40.4970   76.2740   58.8890 C   0  0  0  0  0  0  0  0  0  0  0  0
   39.9500   75.5620   57.8090 C   0  0  0  0  0  0  0  0  0  0  0  0
   38.8530   75.9440   57.1280 N   0  0  0  0  0  0  0  0  0  0  0  0
   38.2190   77.0950   57.5000 C   0  0  0  0  0  0  0  0  0  0  0  0
   38.6980   77.8250   58.5360 N   0  0  0  0  0  0  0  0  0  0  0  0
   40.9770   80.3410   61.7390 C   0  0  0  0  0  0  0  0  0  0  0  0
   40.9620   79.1050   62.3460 C   0  0  0  0  0  0  0  0  0  0  0  0
   40.5840   78.0490   61.5880 C   0  0  0  0  0  0  0  0  0  0  0  0
   40.2340   78.2410   60.2680 C   0  0  0  0  0  0  0  0  0  0  0  0
   40.4430   80.0540   60.0310 S   0  0  0  0  0  0  0  0  0  0  0  0
   43.0410   83.1390   62.9070 C   0  0  0  0  0  0  0  0  0  0  0  0
   42.1330   83.8910   63.7000 C   0  0  0  0  0  0  0  0  0  0  0  0
   40.8110   83.4340   63.8280 C   0  0  0  0  0  0  0  0  0  0  0  0
   40.4670   82.2990   63.1880 N   0  0  0  0  0  0  0  0  0  0  0  0
   41.3620   81.5980   62.4310 C   0  0  0  0  0  0  0  0  0  0  0  0
   42.6190   82.0260   62.3060 N   0  0  0  0  0  0  0  0  0  0  0  0
   37.0420   77.4900   56.7460 C   0  0  0  0  0  0  0  0  0  0  0  0
   35.9480   77.0540   57.1300 O   0  0  0  0  0  0  0  0  0  0  0  0
   37.1310   78.3860   55.5330 C   0  0  1  0  0  0  0  0  0  0  0  0
   37.3100   79.8410   55.8930 C   0  0  0  0  0  0  0  0  0  0  0  0
   38.3660   79.0720   55.2280 C   0  0  2  0  0  0  0  0  0  0  0  0
   38.7590   79.5250   53.8980 C   0  0  0  0  0  0  0  0  0  0  0  0
   39.9990   79.8040   53.4510 C   0  0  0  0  0  0  0  0  0  0  0  0
   40.1860   80.2240   52.1560 C   0  0  0  0  0  0  0  0  0  0  0  0
   39.0610   80.3400   51.3700 C   0  0  0  0  0  0  0  0  0  0  0  0
   37.6540   79.8230   52.5310 S   0  0  0  0  0  0  0  0  0  0  0  0
   41.3945   75.9570   59.4403 H   0  0  0  0  0  0  0  0  0  0  0  0
   40.4500   74.6324   57.4995 H   0  0  0  0  0  0  0  0  0  0  0  0
   41.2451   78.9811   63.4017 H   0  0  0  0  0  0  0  0  0  0  0  0
   40.5561   77.0396   62.0242 H   0  0  0  0  0  0  0  0  0  0  0  0
   44.0828   83.4720   62.7899 H   0  0  0  0  0  0  0  0  0  0  0  0
   42.4589   84.8129   64.2038 H   0  0  0  0  0  0  0  0  0  0  0  0
   40.0775   83.9867   64.4333 H   0  0  0  0  0  0  0  0  0  0  0  0
   36.4591   77.7647   54.9227 H   0  0  0  0  0  0  0  0  0  0  0  0
   36.7612   80.6203   55.3440 H   0  0  0  0  0  0  0  0  0  0  0  0
   37.2307   80.4420   56.8109 H   0  0  0  0  0  0  0  0  0  0  0  0
   39.4091   78.7840   55.4253 H   0  0  0  0  0  0  0  0  0  0  0  0
   40.8627   79.6955   54.1235 H   0  0  0  0  0  0  0  0  0  0  0  0
   41.1876   80.4567   51.7653 H   0  0  0  0  0  0  0  0  0  0  0  0
   38.9946   80.6571   50.3188 H   0  0  0  0  0  0  0  0  0  0  0  0
  1 10  1  0
  2  1  2  0
  3  2  1  0
  4  5  1  0
  4  3  2  0
  5  6  2  0
  6  1  1  0
  7  8  2  0
  7 16  1  0
  9  8  1  0
 10  9  2  0
 11 10  1  0
 11  7  1  0
 12 13  2  0
 13 14  1  0
 15 14  2  0
 16 15  1  0
 17 16  2  0
 17 12  1  0
 18 19  2  0
 18  5  1  0
 20 21  1  0
 20 18  1  0
 22 20  1  0
 22 21  1  0
 23 22  1  0
 24 23  2  0
 25 24  1  0
 26 25  2  0
 26 27  1  0
 27 23  1  0
  2 28  1  0
  3 29  1  0
  8 30  1  0
  9 31  1  0
 12 32  1  0
 13 33  1  0
 14 34  1  0
 20 35  1  6
 21 36  1  0
 21 37  1  0
 22 38  1  1
 24 39  1  0
 25 40  1  0
 26 41  1  0
M  ISO  8  28  14  29  14  30  14  31  14  32  14  33  14  34  14  35  13
M  ISO  6  36  13  37  13  38  13  39  14  40  14  41  14
M  END
>  <minimizedAffinity>  (1) 
-6.31386995

>  <minimizedRMSD>  (1) 
0.234868035

$$$$
