
     RDKit          3D

 35 38  0  0  1  0  0  0  0  0999 V2000
   42.1070   85.2590   59.6820 C   0  0  1  0  0  0  0  0  0  0  0  0
   43.1180   85.3350   58.5410 C   0  0  0  0  0  0  0  0  0  0  0  0
   41.9820   84.3090   58.5550 C   0  0  1  0  0  0  0  0  0  0  0  0
   42.7120   84.8090   60.8890 O   0  0  0  0  0  0  0  0  0  0  0  0
   39.9930   83.6520   62.9840 C   0  0  0  0  0  0  0  0  0  0  0  0
   40.5590   83.7490   64.2550 C   0  0  0  0  0  0  0  0  0  0  0  0
   41.8890   84.2200   64.3590 C   0  0  0  0  0  0  0  0  0  0  0  0
   42.4900   84.5350   63.1950 N   0  0  0  0  0  0  0  0  0  0  0  0
   41.9410   84.4410   61.9680 C   0  0  0  0  0  0  0  0  0  0  0  0
   40.6910   83.9990   61.8530 N   0  0  0  0  0  0  0  0  0  0  0  0
   42.2900   82.9900   58.8060 O   0  0  0  0  0  0  0  0  0  0  0  0
   41.4170   81.9780   58.4610 C   0  0  0  0  0  0  0  0  0  0  0  0
   40.6670   81.7600   57.3440 C   0  0  0  0  0  0  0  0  0  0  0  0
   39.8460   80.6620   57.2040 C   0  0  0  0  0  0  0  0  0  0  0  0
   39.7380   79.7140   58.2000 C   0  0  0  0  0  0  0  0  0  0  0  0
   40.4900   79.9210   59.3350 C   0  0  0  0  0  0  0  0  0  0  0  0
   40.3510   78.9450   60.3110 C   0  0  0  0  0  0  0  0  0  0  0  0
   41.0500   79.0530   61.4710 C   0  0  0  0  0  0  0  0  0  0  0  0
   41.8830   80.1290   61.6590 C   0  0  0  0  0  0  0  0  0  0  0  0
   42.0030   81.0810   60.6790 C   0  0  0  0  0  0  0  0  0  0  0  0
   41.3260   81.0320   59.4860 C   0  0  0  0  0  0  0  0  0  0  0  0
   41.3745   85.9225   60.1649 H   0  0  0  0  0  0  0  0  0  0  0  0
   44.1585   85.0144   58.6981 H   0  0  0  0  0  0  0  0  0  0  0  0
   43.4710   86.1135   57.8487 H   0  0  0  0  0  0  0  0  0  0  0  0
   41.1854   84.0398   57.8458 H   0  0  0  0  0  0  0  0  0  0  0  0
   38.9598   83.2878   62.8846 H   0  0  0  0  0  0  0  0  0  0  0  0
   39.9873   83.4672   65.1515 H   0  0  0  0  0  0  0  0  0  0  0  0
   42.3996   84.3225   65.3279 H   0  0  0  0  0  0  0  0  0  0  0  0
   40.7191   82.4891   56.5220 H   0  0  0  0  0  0  0  0  0  0  0  0
   39.2645   80.5391   56.2784 H   0  0  0  0  0  0  0  0  0  0  0  0
   39.0837   78.8362   58.0931 H   0  0  0  0  0  0  0  0  0  0  0  0
   39.6794   78.0894   60.1468 H   0  0  0  0  0  0  0  0  0  0  0  0
   40.9498   78.2856   62.2527 H   0  0  0  0  0  0  0  0  0  0  0  0
   42.4532   80.2270   62.5946 H   0  0  0  0  0  0  0  0  0  0  0  0
   42.6787   81.9302   60.8589 H   0  0  0  0  0  0  0  0  0  0  0  0
  1  4  1  0
  2  3  1  0
  2  1  1  0
  3 11  1  0
  3  1  1  0
  4  9  1  0
  5  6  2  0
  6  7  1  0
  8  7  2  0
  9  8  1  0
 10  9  2  0
 10  5  1  0
 12 11  1  0
 12 21  1  0
 13 12  2  0
 14 13  1  0
 14 15  2  0
 15 16  1  0
 16 21  2  0
 16 17  1  0
 17 18  2  0
 18 19  1  0
 20 19  2  0
 21 20  1  0
  1 22  1  1
  2 23  1  0
  2 24  1  0
  3 25  1  6
  5 26  1  0
  6 27  1  0
  7 28  1  0
 13 29  1  0
 14 30  1  0
 15 31  1  0
 17 32  1  0
 18 33  1  0
 19 34  1  0
 20 35  1  0
M  ISO  8  22  13  23  13  24  13  25  13  26  14  27  14  28  14  29  14
M  ISO  6  30  14  31  14  32  14  33  14  34  14  35  14
M  END
>  <minimizedAffinity>  (1) 
-4.93736219

>  <minimizedRMSD>  (1) 
3.85157728

$$$$
