
     RDKit          3D

 44 47  0  0  0  0  0  0  0  0999 V2000
   43.1350   83.9830   58.6730 Cl  0  0  0  0  0  0  0  0  0  0  0  0
   41.9080   82.7960   58.2610 C   0  0  0  0  0  0  0  0  0  0  0  0
   41.0230   82.2760   59.2000 C   0  0  0  0  0  0  0  0  0  0  0  0
   40.1140   81.3490   58.7200 C   0  0  0  0  0  0  0  0  0  0  0  0
   40.0110   80.9050   57.4180 C   0  0  0  0  0  0  0  0  0  0  0  0
   40.8970   81.4420   56.5390 C   0  0  0  0  0  0  0  0  0  0  0  0
   40.8640   80.9520   54.8450 Cl  0  0  0  0  0  0  0  0  0  0  0  0
   41.8400   82.3800   56.9530 C   0  0  0  0  0  0  0  0  0  0  0  0
   41.9400   82.1810   61.5610 C   0  0  0  0  0  0  0  0  0  0  0  0
   41.1040   82.7120   60.5420 C   0  0  0  0  0  0  0  0  0  0  0  0
   40.2800   83.7680   60.8910 C   0  0  0  0  0  0  0  0  0  0  0  0
   40.3390   84.2080   62.1800 N   0  0  0  0  0  0  0  0  0  0  0  0
   41.1380   83.6880   63.1210 C   0  0  0  0  0  0  0  0  0  0  0  0
   41.9540   82.6560   62.8060 N   0  0  0  0  0  0  0  0  0  0  0  0
   41.0330   84.3290   64.4530 C   0  0  0  0  0  0  0  0  0  0  0  0
   40.6850   85.6410   64.3910 F   0  0  0  0  0  0  0  0  0  0  0  0
   40.0930   83.6490   65.2290 F   0  0  0  0  0  0  0  0  0  0  0  0
   42.2890   84.3030   65.1050 F   0  0  0  0  0  0  0  0  0  0  0  0
   42.7190   82.8930   56.0100 O   0  0  0  0  0  0  0  0  0  0  0  0
   42.4430   84.0350   55.2290 C   0  0  0  0  0  0  0  0  0  0  0  0
   43.5460   84.9020   55.3700 O   0  0  0  0  0  0  0  0  0  0  0  0
   44.8560   84.5950   55.1280 C   0  0  0  0  0  0  0  0  0  0  0  0
   45.3390   83.7930   54.0920 C   0  0  0  0  0  0  0  0  0  0  0  0
   46.6970   83.5470   53.9400 C   0  0  0  0  0  0  0  0  0  0  0  0
   47.5760   84.1240   54.8580 C   0  0  0  0  0  0  0  0  0  0  0  0
   47.1370   84.9240   55.8960 C   0  0  0  0  0  0  0  0  0  0  0  0
   48.0160   85.4810   56.7840 C   0  0  0  0  0  0  0  0  0  0  0  0
   47.5960   86.2810   57.8270 C   0  0  0  0  0  0  0  0  0  0  0  0
   46.2430   86.5190   57.9680 C   0  0  0  0  0  0  0  0  0  0  0  0
   45.3700   85.9510   57.0660 C   0  0  0  0  0  0  0  0  0  0  0  0
   45.7640   85.1520   56.0200 C   0  0  0  0  0  0  0  0  0  0  0  0
   39.4054   80.9255   59.4470 H   0  0  0  0  0  0  0  0  0  0  0  0
   39.2591   80.1631   57.1109 H   0  0  0  0  0  0  0  0  0  0  0  0
   42.6048   81.3410   61.3112 H   0  0  0  0  0  0  0  0  0  0  0  0
   39.6048   84.2334   60.1579 H   0  0  0  0  0  0  0  0  0  0  0  0
   41.5267   84.5266   55.5878 H   0  0  0  0  0  0  0  0  0  0  0  0
   42.2870   83.7634   54.1745 H   0  0  0  0  0  0  0  0  0  0  0  0
   44.6283   83.3465   53.3810 H   0  0  0  0  0  0  0  0  0  0  0  0
   47.0694   82.9156   53.1198 H   0  0  0  0  0  0  0  0  0  0  0  0
   48.6545   83.9356   54.7517 H   0  0  0  0  0  0  0  0  0  0  0  0
   49.0916   85.2850   56.6628 H   0  0  0  0  0  0  0  0  0  0  0  0
   48.3212   86.7184   58.5290 H   0  0  0  0  0  0  0  0  0  0  0  0
   45.8686   87.1513   58.7865 H   0  0  0  0  0  0  0  0  0  0  0  0
   44.2951   86.1487   57.1905 H   0  0  0  0  0  0  0  0  0  0  0  0
  2  1  1  0
  2  3  2  0
  3 10  1  0
  4  3  1  0
  5  4  2  0
  6  8  2  0
  6  5  1  0
  7  6  1  0
  8  2  1  0
  9 14  2  0
 10 11  2  0
 10  9  1  0
 11 12  1  0
 12 13  2  0
 13 15  1  0
 14 13  1  0
 15 18  1  0
 15 17  1  0
 16 15  1  0
 19  8  1  0
 20 21  1  0
 20 19  1  0
 22 21  1  0
 22 31  1  0
 23 22  2  0
 24 23  1  0
 24 25  2  0
 25 26  1  0
 26 31  2  0
 26 27  1  0
 27 28  2  0
 28 29  1  0
 30 29  2  0
 31 30  1  0
  4 32  1  0
  5 33  1  0
  9 34  1  0
 11 35  1  0
 20 36  1  0
 20 37  1  0
 23 38  1  0
 24 39  1  0
 25 40  1  0
 27 41  1  0
 28 42  1  0
 29 43  1  0
 30 44  1  0
M  ISO  8  32  14  33  14  34  14  35  14  36   8  37   8  38  14  39  14
M  ISO  5  40  14  41  14  42  14  43  14  44  14
M  END
>  <minimizedAffinity>  (1) 
-5.10175514

>  <minimizedRMSD>  (1) 
0.378189474

$$$$
