
     RDKit          3D

 36 39  0  0  0  0  0  0  0  0999 V2000
   41.8230   84.1970   61.6790 C   0  0  0  0  0  0  0  0  0  0  0  0
   41.4690   83.9940   63.0190 C   0  0  0  0  0  0  0  0  0  0  0  0
   40.1970   83.6140   63.3860 C   0  0  0  0  0  0  0  0  0  0  0  0
   39.2290   83.4270   62.3790 C   0  0  0  0  0  0  0  0  0  0  0  0
   39.5940   83.6310   61.0540 C   0  0  0  0  0  0  0  0  0  0  0  0
   40.8770   84.0140   60.6870 C   0  0  0  0  0  0  0  0  0  0  0  0
   41.1930   84.2160   59.2780 C   0  0  0  0  0  0  0  0  0  0  0  0
   41.0720   85.5190   58.7850 C   0  0  0  0  0  0  0  0  0  0  0  0
   41.3360   85.8650   57.4770 C   0  0  0  0  0  0  0  0  0  0  0  0
   41.7440   84.8890   56.5930 C   0  0  0  0  0  0  0  0  0  0  0  0
   41.8700   83.5980   57.0640 C   0  0  0  0  0  0  0  0  0  0  0  0
   42.2760   82.5920   56.2050 C   0  0  0  0  0  0  0  0  0  0  0  0
   42.3930   81.3100   56.7010 C   0  0  0  0  0  0  0  0  0  0  0  0
   42.1240   80.9650   58.0270 C   0  0  0  0  0  0  0  0  0  0  0  0
   41.7160   81.9910   58.8750 C   0  0  0  0  0  0  0  0  0  0  0  0
   41.6030   83.2570   58.3710 C   0  0  0  0  0  0  0  0  0  0  0  0
   45.3520   84.0400   60.7320 C   0  0  0  0  0  0  0  0  0  0  0  0
   45.7540   85.3770   60.7950 C   0  0  0  0  0  0  0  0  0  0  0  0
   44.8070   86.3370   61.1640 C   0  0  0  0  0  0  0  0  0  0  0  0
   43.5590   85.8990   61.4350 N   0  0  0  0  0  0  0  0  0  0  0  0
   43.1830   84.5910   61.3700 C   0  0  0  0  0  0  0  0  0  0  0  0
   44.0830   83.6790   61.0190 N   0  0  0  0  0  0  0  0  0  0  0  0
   42.2287   84.1423   63.8006 H   0  0  0  0  0  0  0  0  0  0  0  0
   39.9416   83.4595   64.4447 H   0  0  0  0  0  0  0  0  0  0  0  0
   38.2033   83.1251   62.6373 H   0  0  0  0  0  0  0  0  0  0  0  0
   38.8392   83.4837   60.2674 H   0  0  0  0  0  0  0  0  0  0  0  0
   40.7490   86.3100   59.4778 H   0  0  0  0  0  0  0  0  0  0  0  0
   41.2225   86.9068   57.1428 H   0  0  0  0  0  0  0  0  0  0  0  0
   41.9628   85.1322   55.5428 H   0  0  0  0  0  0  0  0  0  0  0  0
   42.5004   82.8096   55.1503 H   0  0  0  0  0  0  0  0  0  0  0  0
   42.7164   80.5148   56.0132 H   0  0  0  0  0  0  0  0  0  0  0  0
   42.2296   79.9303   58.3851 H   0  0  0  0  0  0  0  0  0  0  0  0
   41.4886   81.7868   59.9317 H   0  0  0  0  0  0  0  0  0  0  0  0
   46.0816   83.2689   60.4438 H   0  0  0  0  0  0  0  0  0  0  0  0
   46.7889   85.6666   60.5603 H   0  0  0  0  0  0  0  0  0  0  0  0
   45.0676   87.4036   61.2307 H   0  0  0  0  0  0  0  0  0  0  0  0
  1  2  2  0
  2  3  1  0
  4  3  2  0
  5  4  1  0
  6  5  2  0
  6  1  1  0
  7  6  1  0
  8  7  2  0
  9  8  1  0
 10 11  1  0
 10  9  2  0
 11 16  2  0
 12 13  2  0
 12 11  1  0
 13 14  1  0
 14 15  2  0
 16 15  1  0
 16  7  1  0
 17 18  2  0
 17 22  1  0
 18 19  1  0
 19 20  2  0
 21 20  1  0
 21  1  1  0
 22 21  2  0
  2 23  1  0
  3 24  1  0
  4 25  1  0
  5 26  1  0
  8 27  1  0
  9 28  1  0
 10 29  1  0
 12 30  1  0
 13 31  1  0
 14 32  1  0
 15 33  1  0
 17 34  1  0
 18 35  1  0
 19 36  1  0
M  ISO  8  23  14  24  14  25  14  26  14  27  14  28  14  29  14  30  14
M  ISO  6  31  14  32  14  33  14  34  14  35  14  36  14
M  END
>  <minimizedAffinity>  (1) 
-5.51685619

>  <minimizedRMSD>  (1) 
2.97175169

$$$$
