
     RDKit          3D

 44 48  0  0  0  0  0  0  0  0999 V2000
   41.8300   84.1750   61.6270 C   0  0  0  0  0  0  0  0  0  0  0  0
   41.4820   83.9650   62.9550 C   0  0  0  0  0  0  0  0  0  0  0  0
   40.1940   83.6210   63.3240 C   0  0  0  0  0  0  0  0  0  0  0  0
   39.2240   83.4810   62.3410 C   0  0  0  0  0  0  0  0  0  0  0  0
   39.5740   83.6920   61.0100 C   0  0  0  0  0  0  0  0  0  0  0  0
   40.8590   84.0340   60.6560 C   0  0  0  0  0  0  0  0  0  0  0  0
   45.3030   83.8770   60.5380 C   0  0  0  0  0  0  0  0  0  0  0  0
   45.7830   85.1860   60.6650 C   0  0  0  0  0  0  0  0  0  0  0  0
   44.8940   86.1970   61.1350 C   0  0  0  0  0  0  0  0  0  0  0  0
   43.6230   85.8280   61.4360 N   0  0  0  0  0  0  0  0  0  0  0  0
   43.1930   84.5330   61.2980 C   0  0  0  0  0  0  0  0  0  0  0  0
   44.0310   83.5890   60.8550 N   0  0  0  0  0  0  0  0  0  0  0  0
   41.1620   84.2460   59.2530 C   0  0  0  0  0  0  0  0  0  0  0  0
   41.0510   85.5650   58.8710 C   0  0  0  0  0  0  0  0  0  0  0  0
   41.3130   85.9260   57.5490 C   0  0  0  0  0  0  0  0  0  0  0  0
   41.6650   84.9680   56.7020 N   0  0  0  0  0  0  0  0  0  0  0  0
   41.7800   83.6740   57.0550 C   0  0  0  0  0  0  0  0  0  0  0  0
   41.5200   83.3760   58.3200 N   0  0  0  0  0  0  0  0  0  0  0  0
   42.1470   82.4930   56.2830 C   0  0  0  0  0  0  0  0  0  0  0  0
   43.3920   82.3180   55.6650 C   0  0  0  0  0  0  0  0  0  0  0  0
   43.7360   81.2120   54.9430 C   0  0  0  0  0  0  0  0  0  0  0  0
   42.8490   80.1760   54.7800 C   0  0  0  0  0  0  0  0  0  0  0  0
   41.6220   80.2850   55.3560 C   0  0  0  0  0  0  0  0  0  0  0  0
   40.7670   79.2250   55.1670 C   0  0  0  0  0  0  0  0  0  0  0  0
   39.5050   79.2500   55.7150 C   0  0  0  0  0  0  0  0  0  0  0  0
   39.1600   80.3770   56.4480 C   0  0  0  0  0  0  0  0  0  0  0  0
   40.0530   81.4110   56.6070 C   0  0  0  0  0  0  0  0  0  0  0  0
   41.3150   81.4160   56.0750 C   0  0  0  0  0  0  0  0  0  0  0  0
   42.2509   84.0751   63.7339 H   0  0  0  0  0  0  0  0  0  0  0  0
   39.9417   83.4605   64.3826 H   0  0  0  0  0  0  0  0  0  0  0  0
   38.1931   83.2072   62.6098 H   0  0  0  0  0  0  0  0  0  0  0  0
   38.8091   83.5833   60.2269 H   0  0  0  0  0  0  0  0  0  0  0  0
   45.9711   83.0812   60.1769 H   0  0  0  0  0  0  0  0  0  0  0  0
   46.8243   85.4296   60.4076 H   0  0  0  0  0  0  0  0  0  0  0  0
   45.2266   87.2392   61.2496 H   0  0  0  0  0  0  0  0  0  0  0  0
   40.7572   86.3300   59.6048 H   0  0  0  0  0  0  0  0  0  0  0  0
   41.2302   86.9722   57.2196 H   0  0  0  0  0  0  0  0  0  0  0  0
   44.1373   83.1204   55.7678 H   0  0  0  0  0  0  0  0  0  0  0  0
   44.7349   81.1496   54.4865 H   0  0  0  0  0  0  0  0  0  0  0  0
   43.1236   79.2829   54.1996 H   0  0  0  0  0  0  0  0  0  0  0  0
   41.0923   78.3556   54.5768 H   0  0  0  0  0  0  0  0  0  0  0  0
   38.8019   78.4151   55.5784 H   0  0  0  0  0  0  0  0  0  0  0  0
   38.1623   80.4439   56.9064 H   0  0  0  0  0  0  0  0  0  0  0  0
   39.7352   82.2844   57.1954 H   0  0  0  0  0  0  0  0  0  0  0  0
  1  2  2  0
  2  3  1  0
  4  3  2  0
  5  4  1  0
  6  5  2  0
  6  1  1  0
  7  8  2  0
  7 12  1  0
  8  9  1  0
  9 10  2  0
 11 10  1  0
 11  1  1  0
 12 11  2  0
 13  6  1  0
 14 13  2  0
 15 14  1  0
 16 17  1  0
 16 15  2  0
 17 18  2  0
 18 13  1  0
 19 17  1  0
 20 19  2  0
 21 20  1  0
 22 21  2  0
 22 23  1  0
 23 28  2  0
 24 23  1  0
 24 25  2  0
 25 26  1  0
 26 27  2  0
 28 19  1  0
 28 27  1  0
  2 29  1  0
  3 30  1  0
  4 31  1  0
  5 32  1  0
  7 33  1  0
  8 34  1  0
  9 35  1  0
 14 36  1  0
 15 37  1  0
 20 38  1  0
 21 39  1  0
 22 40  1  0
 24 41  1  0
 25 42  1  0
 26 43  1  0
 27 44  1  0
M  ISO  8  29  14  30  14  31  14  32  14  33  14  34  14  35  14  36  14
M  ISO  8  37  14  38  14  39  14  40  14  41  14  42  14  43  14  44  14
M  END
>  <minimizedAffinity>  (1) 
-6.06008768

>  <minimizedRMSD>  (1) 
1.36331832

$$$$
