
     RDKit          3D

 39 42  0  0  0  0  0  0  0  0999 V2000
   43.0740   83.8350   58.5490 Cl  0  0  0  0  0  0  0  0  0  0  0  0
   41.8120   82.6510   58.1920 C   0  0  0  0  0  0  0  0  0  0  0  0
   40.9640   82.1660   59.1560 C   0  0  0  0  0  0  0  0  0  0  0  0
   40.0180   81.2340   58.7220 C   0  0  0  0  0  0  0  0  0  0  0  0
   39.8850   80.7790   57.4220 C   0  0  0  0  0  0  0  0  0  0  0  0
   40.7490   81.2920   56.5070 C   0  0  0  0  0  0  0  0  0  0  0  0
   40.6830   80.7910   54.8140 Cl  0  0  0  0  0  0  0  0  0  0  0  0
   41.6950   82.2110   56.8930 C   0  0  0  0  0  0  0  0  0  0  0  0
   42.6090   82.7370   55.8680 C   0  0  0  0  0  0  0  0  0  0  0  0
   42.3910   83.8520   55.0820 C   0  0  0  0  0  0  0  0  0  0  0  0
   43.3430   84.2320   54.1550 C   0  0  0  0  0  0  0  0  0  0  0  0
   44.5170   83.4900   54.0170 C   0  0  0  0  0  0  0  0  0  0  0  0
   44.7530   82.3670   54.7970 C   0  0  0  0  0  0  0  0  0  0  0  0
   45.9230   81.6260   54.6610 C   0  0  0  0  0  0  0  0  0  0  0  0
   46.1340   80.5130   55.4490 C   0  0  0  0  0  0  0  0  0  0  0  0
   45.1830   80.1170   56.3890 C   0  0  0  0  0  0  0  0  0  0  0  0
   44.0560   80.8860   56.4760 C   0  0  0  0  0  0  0  0  0  0  0  0
   43.7810   82.0000   55.7270 C   0  0  0  0  0  0  0  0  0  0  0  0
   41.9530   82.1240   61.4950 C   0  0  0  0  0  0  0  0  0  0  0  0
   41.0840   82.6200   60.5040 C   0  0  0  0  0  0  0  0  0  0  0  0
   40.2360   83.6730   60.8500 C   0  0  0  0  0  0  0  0  0  0  0  0
   40.3070   84.1460   62.1210 N   0  0  0  0  0  0  0  0  0  0  0  0
   41.1440   83.6570   63.0500 C   0  0  0  0  0  0  0  0  0  0  0  0
   41.9710   82.6380   62.7290 N   0  0  0  0  0  0  0  0  0  0  0  0
   41.0900   84.2960   64.3950 C   0  0  0  0  0  0  0  0  0  0  0  0
   40.7640   85.6360   64.3020 F   0  0  0  0  0  0  0  0  0  0  0  0
   40.1330   83.6780   65.1630 F   0  0  0  0  0  0  0  0  0  0  0  0
   42.3210   84.2610   65.0230 F   0  0  0  0  0  0  0  0  0  0  0  0
   39.3238   80.8298   59.4734 H   0  0  0  0  0  0  0  0  0  0  0  0
   39.1193   80.0400   57.1435 H   0  0  0  0  0  0  0  0  0  0  0  0
   41.4645   84.4344   55.1934 H   0  0  0  0  0  0  0  0  0  0  0  0
   43.1755   85.1189   53.5262 H   0  0  0  0  0  0  0  0  0  0  0  0
   45.2687   83.8011   53.2766 H   0  0  0  0  0  0  0  0  0  0  0  0
   46.6814   81.9281   53.9237 H   0  0  0  0  0  0  0  0  0  0  0  0
   47.0613   79.9325   55.3346 H   0  0  0  0  0  0  0  0  0  0  0  0
   45.3317   79.2330   57.0265 H   0  0  0  0  0  0  0  0  0  0  0  0
   43.3003   80.5825   57.2154 H   0  0  0  0  0  0  0  0  0  0  0  0
   42.6324   81.2948   61.2481 H   0  0  0  0  0  0  0  0  0  0  0  0
   39.5355   84.1042   60.1197 H   0  0  0  0  0  0  0  0  0  0  0  0
  2  1  1  0
  2  3  2  0
  3 20  1  0
  4  3  1  0
  5  4  2  0
  6  8  2  0
  6  5  1  0
  7  6  1  0
  8  2  1  0
  9  8  1  0
 10  9  2  0
 11 10  1  0
 12 11  2  0
 12 13  1  0
 13 18  2  0
 14 13  1  0
 14 15  2  0
 15 16  1  0
 16 17  2  0
 18  9  1  0
 18 17  1  0
 19 24  2  0
 20 21  2  0
 20 19  1  0
 21 22  1  0
 22 23  2  0
 23 25  1  0
 24 23  1  0
 25 28  1  0
 25 27  1  0
 26 25  1  0
  4 29  1  0
  5 30  1  0
 10 31  1  0
 11 32  1  0
 12 33  1  0
 14 34  1  0
 15 35  1  0
 16 36  1  0
 17 37  1  0
 19 38  1  0
 21 39  1  0
M  ISO  8  29  14  30  14  31  14  32  14  33  14  34  14  35  14  36  14
M  ISO  3  37  14  38  14  39  14
M  END
>  <minimizedAffinity>  (1) 
-5.35280609

>  <minimizedRMSD>  (1) 
1.14300823

$$$$
