
     RDKit          3D

 32 34  0  0  1  0  0  0  0  0999 V2000
   42.3400   85.4820   59.7950 C   0  0  1  0  0  0  0  0  0  0  0  0
   43.5130   85.9380   58.9300 C   0  0  0  0  0  0  0  0  0  0  0  0
   42.3700   85.0960   58.3760 C   0  0  1  0  0  0  0  0  0  0  0  0
   42.7610   84.5420   60.7750 O   0  0  0  0  0  0  0  0  0  0  0  0
   40.0400   83.5420   62.9420 C   0  0  0  0  0  0  0  0  0  0  0  0
   40.5940   83.7460   64.2060 C   0  0  0  0  0  0  0  0  0  0  0  0
   41.9200   84.2330   64.2790 C   0  0  0  0  0  0  0  0  0  0  0  0
   42.5410   84.4610   63.0910 N   0  0  0  0  0  0  0  0  0  0  0  0
   41.9940   84.2600   61.8830 C   0  0  0  0  0  0  0  0  0  0  0  0
   40.7510   83.8020   61.7870 N   0  0  0  0  0  0  0  0  0  0  0  0
   42.6110   83.7510   58.0980 O   0  0  0  0  0  0  0  0  0  0  0  0
   41.8000   82.4170   56.3570 C   0  0  0  0  0  0  0  0  0  0  0  0
   41.7320   82.7970   57.6820 C   0  0  0  0  0  0  0  0  0  0  0  0
   40.8320   82.2500   58.5470 C   0  0  0  0  0  0  0  0  0  0  0  0
   39.9790   81.2850   58.0260 C   0  0  0  0  0  0  0  0  0  0  0  0
   39.9690   80.8400   56.7210 C   0  0  0  0  0  0  0  0  0  0  0  0
   40.9160   81.4460   55.9100 C   0  0  0  0  0  0  0  0  0  0  0  0
   42.9690   83.1410   55.2810 S   0  0  0  0  0  0  0  0  0  0  0  0
   42.5350   84.5310   54.9080 O   0  0  0  0  0  0  0  0  0  0  0  0
   43.1520   82.3520   54.0160 O   0  0  0  0  0  0  0  0  0  0  0  0
   41.5491   85.9377   60.4088 H   0  0  0  0  0  0  0  0  0  0  0  0
   43.6151   86.9951   58.6434 H   0  0  0  0  0  0  0  0  0  0  0  0
   44.6089   85.8535   58.9744 H   0  0  0  0  0  0  0  0  0  0  0  0
   41.6868   85.2093   57.5214 H   0  0  0  0  0  0  0  0  0  0  0  0
   39.0099   83.1642   62.8633 H   0  0  0  0  0  0  0  0  0  0  0  0
   40.0170   83.5345   65.1184 H   0  0  0  0  0  0  0  0  0  0  0  0
   42.4200   84.4167   65.2414 H   0  0  0  0  0  0  0  0  0  0  0  0
   40.7835   82.5565   59.6023 H   0  0  0  0  0  0  0  0  0  0  0  0
   39.2477   80.8368   58.7148 H   0  0  0  0  0  0  0  0  0  0  0  0
   39.2713   80.0720   56.3557 H   0  0  0  0  0  0  0  0  0  0  0  0
   40.9693   81.1402   54.8547 H   0  0  0  0  0  0  0  0  0  0  0  0
   44.1607   83.1627   55.9564 H   0  0  0  0  0  0  0  0  0  0  0  0
  1  4  1  0
  2  1  1  0
  3  2  1  0
  3  1  1  0
  4  9  1  0
  5  6  2  0
  6  7  1  0
  8  7  2  0
  9  8  1  0
 10  9  2  0
 10  5  1  0
 11  3  1  0
 12 13  2  0
 13 11  1  0
 13 14  1  0
 15 14  2  0
 16 15  1  0
 17 12  1  0
 17 16  2  0
 18 12  1  0
 19 18  2  0
 20 18  2  0
  1 21  1  1
  2 22  1  0
  2 23  1  0
  3 24  1  6
  5 25  1  0
  6 26  1  0
  7 27  1  0
 14 28  1  0
 15 29  1  0
 16 30  1  0
 17 31  1  0
 18 32  1  0
M  ISO  8  21  13  22  13  23  13  24  13  25  14  26  14  27  14  28  14
M  ISO  4  29  14  30  14  31  14  32  11
M  END
>  <minimizedAffinity>  (1) 
-4.49582577

>  <minimizedRMSD>  (1) 
3.07735252

$$$$
