
     RDKit          3D

 40 43  0  0  1  0  0  0  0  0999 V2000
   41.7040   83.8620   61.4040 C   0  0  0  0  0  0  0  0  0  0  0  0
   41.1340   84.2450   62.5950 C   0  0  0  0  0  0  0  0  0  0  0  0
   40.6900   83.3000   63.5200 C   0  0  0  0  0  0  0  0  0  0  0  0
   40.8160   81.9890   63.2520 N   0  0  0  0  0  0  0  0  0  0  0  0
   41.3810   81.6320   62.0730 C   0  0  0  0  0  0  0  0  0  0  0  0
   41.8170   82.5330   61.1680 N   0  0  0  0  0  0  0  0  0  0  0  0
   43.6290   86.4900   59.7330 C   0  0  0  0  0  0  0  0  0  0  0  0
   42.9440   86.6190   58.5280 C   0  0  0  0  0  0  0  0  0  0  0  0
   41.8380   85.8300   58.2720 C   0  0  0  0  0  0  0  0  0  0  0  0
   41.4870   84.9470   59.2590 N   0  0  0  0  0  0  0  0  0  0  0  0
   42.1630   84.8370   60.4160 C   0  0  0  0  0  0  0  0  0  0  0  0
   43.2250   85.5930   60.6650 N   0  0  0  0  0  0  0  0  0  0  0  0
   44.7370   87.3620   59.8440 N   0  0  0  0  0  0  0  0  0  0  0  0
   41.4770   80.1580   61.8110 C   0  0  1  0  0  0  0  0  0  0  0  0
   40.6850   79.2240   62.5770 C   0  0  0  0  0  0  0  0  0  0  0  0
   40.2230   79.5900   61.2010 C   0  0  2  0  0  0  0  0  0  0  0  0
   40.1050   78.6250   58.9330 C   0  0  0  0  0  0  0  0  0  0  0  0
   40.1800   78.4430   60.3000 C   0  0  0  0  0  0  0  0  0  0  0  0
   40.2090   77.1050   60.6910 C   0  0  0  0  0  0  0  0  0  0  0  0
   40.1680   76.0370   59.8330 C   0  0  0  0  0  0  0  0  0  0  0  0
   40.0940   76.2790   58.4770 C   0  0  0  0  0  0  0  0  0  0  0  0
   40.0620   77.5790   58.0240 C   0  0  0  0  0  0  0  0  0  0  0  0
   40.0640   80.2450   58.3150 S   0  0  0  0  0  0  0  0  0  0  0  0
   41.4500   80.7230   57.9200 O   0  0  0  0  0  0  0  0  0  0  0  0
   39.2680   80.2510   57.0290 O   0  0  0  0  0  0  0  0  0  0  0  0
   41.0261   85.3158   62.8226 H   0  0  0  0  0  0  0  0  0  0  0  0
   40.2373   83.6273   64.4676 H   0  0  0  0  0  0  0  0  0  0  0  0
   43.2831   87.3495   57.7787 H   0  0  0  0  0  0  0  0  0  0  0  0
   41.2731   85.9067   57.3313 H   0  0  0  0  0  0  0  0  0  0  0  0
   44.9616   88.0098   59.0754 H   0  0  0  0  0  0  0  0  0  0  0  0
   45.3193   87.3492   60.6935 H   0  0  0  0  0  0  0  0  0  0  0  0
   42.5536   80.1888   61.5876 H   0  0  0  0  0  0  0  0  0  0  0  0
   41.0711   78.2126   62.7719 H   0  0  0  0  0  0  0  0  0  0  0  0
   40.2219   79.2462   63.5745 H   0  0  0  0  0  0  0  0  0  0  0  0
   39.3913   80.0786   60.6723 H   0  0  0  0  0  0  0  0  0  0  0  0
   40.2693   76.8906   61.7682 H   0  0  0  0  0  0  0  0  0  0  0  0
   40.1936   75.0070   60.2182 H   0  0  0  0  0  0  0  0  0  0  0  0
   40.0609   75.4416   57.7644 H   0  0  0  0  0  0  0  0  0  0  0  0
   40.0026   77.7867   56.9454 H   0  0  0  0  0  0  0  0  0  0  0  0
   39.5320   81.0431   59.2932 H   0  0  0  0  0  0  0  0  0  0  0  0
  1  2  2  0
  2  3  1  0
  4  3  2  0
  5  4  1  0
  6  1  1  0
  6  5  2  0
  7 13  1  0
  7 12  2  0
  8  7  1  0
  9  8  2  0
  9 10  1  0
 10 11  2  0
 11 12  1  0
 11  1  1  0
 14  5  1  0
 14 15  1  0
 16 14  1  0
 16 15  1  0
 17 18  2  0
 18 19  1  0
 18 16  1  0
 20 19  2  0
 21 20  1  0
 22 21  2  0
 22 17  1  0
 23 17  1  0
 24 23  2  0
 25 23  2  0
  2 26  1  0
  3 27  1  0
  8 28  1  0
  9 29  1  0
 13 30  1  0
 13 31  1  0
 14 32  1  6
 15 33  1  0
 15 34  1  0
 16 35  1  1
 19 36  1  0
 20 37  1  0
 21 38  1  0
 22 39  1  0
 23 40  1  0
M  ISO  8  26  14  27  14  28  14  29  14  32  13  33  13  34  13  35  13
M  ISO  5  36  14  37  14  38  14  39  14  40  11
M  END
>  <minimizedAffinity>  (1) 
-5.80935574

>  <minimizedRMSD>  (1) 
0.808532476

$$$$
