
     RDKit          3D

 47 51  0  0  1  0  0  0  0  0999 V2000
   39.9560   77.5960   59.1660 C   0  0  0  0  0  0  0  0  0  0  0  0
   40.7600   76.5620   58.7970 C   0  0  0  0  0  0  0  0  0  0  0  0
   40.2470   75.8560   57.6960 C   0  0  0  0  0  0  0  0  0  0  0  0
   39.0920   76.1610   57.0710 N   0  0  0  0  0  0  0  0  0  0  0  0
   38.3640   77.2220   57.5270 C   0  0  0  0  0  0  0  0  0  0  0  0
   38.7980   77.9450   58.5810 N   0  0  0  0  0  0  0  0  0  0  0  0
   41.0210   80.4990   61.8270 C   0  0  0  0  0  0  0  0  0  0  0  0
   41.0100   79.2530   62.4000 C   0  0  0  0  0  0  0  0  0  0  0  0
   40.6740   78.2010   61.6250 C   0  0  0  0  0  0  0  0  0  0  0  0
   40.3560   78.4190   60.2910 C   0  0  0  0  0  0  0  0  0  0  0  0
   40.5390   80.2390   60.0940 S   0  0  0  0  0  0  0  0  0  0  0  0
   42.9970   83.3340   63.0730 C   0  0  0  0  0  0  0  0  0  0  0  0
   42.0660   84.0360   63.8710 C   0  0  0  0  0  0  0  0  0  0  0  0
   40.7710   83.5450   63.9780 C   0  0  0  0  0  0  0  0  0  0  0  0
   40.4470   82.4090   63.3110 N   0  0  0  0  0  0  0  0  0  0  0  0
   41.3680   81.7500   62.5470 C   0  0  0  0  0  0  0  0  0  0  0  0
   42.6120   82.2190   62.4430 N   0  0  0  0  0  0  0  0  0  0  0  0
   37.1290   77.5350   56.8350 C   0  0  0  0  0  0  0  0  0  0  0  0
   36.0980   76.9560   57.2120 O   0  0  0  0  0  0  0  0  0  0  0  0
   37.0750   78.5120   55.6900 C   0  0  1  0  0  0  0  0  0  0  0  0
   37.2250   79.9490   56.1270 C   0  0  0  0  0  0  0  0  0  0  0  0
   38.2540   79.2840   55.3420 C   0  0  2  0  0  0  0  0  0  0  0  0
   39.6210   79.8200   53.1820 C   0  0  0  0  0  0  0  0  0  0  0  0
   38.5110   79.4760   53.9100 C   0  0  0  0  0  0  0  0  0  0  0  0
   37.3260   79.2720   53.1880 C   0  0  0  0  0  0  0  0  0  0  0  0
   37.2890   79.4140   51.8000 C   0  0  0  0  0  0  0  0  0  0  0  0
   38.4190   79.7600   51.1050 C   0  0  0  0  0  0  0  0  0  0  0  0
   39.5860   79.9610   51.8140 C   0  0  0  0  0  0  0  0  0  0  0  0
   41.0530   80.0280   54.1430 S   0  0  0  0  0  0  0  0  0  0  0  0
   40.9970   81.4080   54.7570 O   0  0  0  0  0  0  0  0  0  0  0  0
   42.2660   80.0760   53.2130 O   0  0  0  0  0  0  0  0  0  0  0  0
   41.7033   76.3081   59.3027 H   0  0  0  0  0  0  0  0  0  0  0  0
   40.8250   74.9991   57.3196 H   0  0  0  0  0  0  0  0  0  0  0  0
   41.2676   79.1154   63.4605 H   0  0  0  0  0  0  0  0  0  0  0  0
   40.6523   77.1843   62.0442 H   0  0  0  0  0  0  0  0  0  0  0  0
   44.0289   83.7012   62.9709 H   0  0  0  0  0  0  0  0  0  0  0  0
   42.3615   84.9551   64.3982 H   0  0  0  0  0  0  0  0  0  0  0  0
   40.0225   84.0674   64.5919 H   0  0  0  0  0  0  0  0  0  0  0  0
   36.3804   77.8997   55.0962 H   0  0  0  0  0  0  0  0  0  0  0  0
   36.6025   80.7339   55.6727 H   0  0  0  0  0  0  0  0  0  0  0  0
   37.1927   80.4862   57.0864 H   0  0  0  0  0  0  0  0  0  0  0  0
   39.3415   79.2387   55.5010 H   0  0  0  0  0  0  0  0  0  0  0  0
   36.4077   78.9946   53.7263 H   0  0  0  0  0  0  0  0  0  0  0  0
   36.3457   79.2470   51.2594 H   0  0  0  0  0  0  0  0  0  0  0  0
   38.3962   79.8744   50.0112 H   0  0  0  0  0  0  0  0  0  0  0  0
   40.5042   80.2388   51.2758 H   0  0  0  0  0  0  0  0  0  0  0  0
   41.1364   79.0195   55.0665 H   0  0  0  0  0  0  0  0  0  0  0  0
  1 10  1  0
  2  1  2  0
  3  2  1  0
  4  5  1  0
  4  3  2  0
  5  6  2  0
  6  1  1  0
  7  8  2  0
  7 16  1  0
  9  8  1  0
 10  9  2  0
 11 10  1  0
 11  7  1  0
 12 13  2  0
 13 14  1  0
 15 14  2  0
 16 15  1  0
 17 16  2  0
 17 12  1  0
 18 19  2  0
 18  5  1  0
 20 21  1  0
 20 18  1  0
 22 20  1  0
 22 21  1  0
 23 24  2  0
 23 29  1  0
 24 22  1  0
 25 24  1  0
 26 25  2  0
 27 26  1  0
 27 28  2  0
 28 23  1  0
 29 30  2  0
 31 29  2  0
  2 32  1  0
  3 33  1  0
  8 34  1  0
  9 35  1  0
 12 36  1  0
 13 37  1  0
 14 38  1  0
 20 39  1  6
 21 40  1  0
 21 41  1  0
 22 42  1  1
 25 43  1  0
 26 44  1  0
 27 45  1  0
 28 46  1  0
 29 47  1  0
M  ISO  8  32  14  33  14  34  14  35  14  36  14  37  14  38  14  39  13
M  ISO  8  40  13  41  13  42  13  43  14  44  14  45  14  46  14  47  11
M  END
>  <minimizedAffinity>  (1) 
-6.68893623

>  <minimizedRMSD>  (1) 
0.565935612

$$$$
