
     RDKit          3D

 25 26  0  0  0  0  0  0  0  0999 V2000
   42.4870   83.5210   62.5140 C   0  0  0  0  0  0  0  0  0  0  0  0
   41.1890   83.1490   62.2280 C   0  0  0  0  0  0  0  0  0  0  0  0
   40.1630   83.3820   63.1280 C   0  0  0  0  0  0  0  0  0  0  0  0
   40.3990   83.9930   64.3410 C   0  0  0  0  0  0  0  0  0  0  0  0
   41.6880   84.3880   64.6800 C   0  0  0  0  0  0  0  0  0  0  0  0
   42.6680   84.1260   63.7370 C   0  0  0  0  0  0  0  0  0  0  0  0
   40.4210   80.5790   59.7270 C   0  0  0  0  0  0  0  0  0  0  0  0
   40.1920   81.3350   58.5590 C   0  0  0  0  0  0  0  0  0  0  0  0
   40.3100   82.7240   58.6700 C   0  0  0  0  0  0  0  0  0  0  0  0
   40.6340   83.2470   59.8800 N   0  0  0  0  0  0  0  0  0  0  0  0
   40.8440   82.4960   60.9660 C   0  0  0  0  0  0  0  0  0  0  0  0
   40.7340   81.1700   60.8720 N   0  0  0  0  0  0  0  0  0  0  0  0
   40.2700   79.1970   59.4740 N   0  0  0  0  0  0  0  0  0  0  0  0
   43.7750   83.2350   61.3990 S   0  0  0  0  0  0  0  0  0  0  0  0
   44.2770   81.8410   61.3650 O   0  0  0  0  0  0  0  0  0  0  0  0
   44.9500   84.0880   61.8420 O   0  0  0  0  0  0  0  0  0  0  0  0
   39.1392   83.0734   62.8700 H   0  0  0  0  0  0  0  0  0  0  0  0
   39.5680   84.1679   65.0401 H   0  0  0  0  0  0  0  0  0  0  0  0
   41.9156   84.8783   65.6380 H   0  0  0  0  0  0  0  0  0  0  0  0
   43.6936   84.4320   63.9909 H   0  0  0  0  0  0  0  0  0  0  0  0
   39.9324   80.8542   57.6043 H   0  0  0  0  0  0  0  0  0  0  0  0
   40.1446   83.3758   57.7995 H   0  0  0  0  0  0  0  0  0  0  0  0
   40.0222   78.8705   58.5291 H   0  0  0  0  0  0  0  0  0  0  0  0
   40.4077   78.5162   60.2345 H   0  0  0  0  0  0  0  0  0  0  0  0
   43.2761   83.5247   60.1564 H   0  0  0  0  0  0  0  0  0  0  0  0
  1  6  2  0
  2  1  1  0
  2  3  2  0
  3  4  1  0
  4  5  2  0
  6  5  1  0
  7 12  2  0
  8  9  2  0
  8  7  1  0
  9 10  1  0
 10 11  2  0
 11  2  1  0
 12 11  1  0
 13  7  1  0
 14 16  2  0
 14  1  1  0
 15 14  2  0
  3 17  1  0
  4 18  1  0
  5 19  1  0
  6 20  1  0
  8 21  1  0
  9 22  1  0
 13 23  1  0
 13 24  1  0
 14 25  1  0
M  ISO  7  17  14  18  14  19  14  20  14  21  14  22  14  25  11
M  END
>  <minimizedAffinity>  (1) 
-4.41805506

>  <minimizedRMSD>  (1) 
3.59845948

$$$$
