
     RDKit          3D

 40 42  0  0  0  0  0  0  0  0999 V2000
   43.0770   83.8600   58.6620 Cl  0  0  0  0  0  0  0  0  0  0  0  0
   41.8370   82.6880   58.2900 C   0  0  0  0  0  0  0  0  0  0  0  0
   40.9580   82.1930   59.2240 C   0  0  0  0  0  0  0  0  0  0  0  0
   40.0430   81.2720   58.7600 C   0  0  0  0  0  0  0  0  0  0  0  0
   39.9150   80.8020   57.4810 C   0  0  0  0  0  0  0  0  0  0  0  0
   40.8090   81.3200   56.5830 C   0  0  0  0  0  0  0  0  0  0  0  0
   40.7550   80.7970   54.8950 Cl  0  0  0  0  0  0  0  0  0  0  0  0
   41.7700   82.2650   56.9910 C   0  0  0  0  0  0  0  0  0  0  0  0
   41.9090   82.1410   61.5840 C   0  0  0  0  0  0  0  0  0  0  0  0
   41.0580   82.6550   60.5710 C   0  0  0  0  0  0  0  0  0  0  0  0
   40.2420   83.7040   60.9150 C   0  0  0  0  0  0  0  0  0  0  0  0
   40.3060   84.1750   62.1900 N   0  0  0  0  0  0  0  0  0  0  0  0
   41.1120   83.6790   63.1230 C   0  0  0  0  0  0  0  0  0  0  0  0
   41.9340   82.6400   62.8180 N   0  0  0  0  0  0  0  0  0  0  0  0
   41.0470   84.3180   64.4600 C   0  0  0  0  0  0  0  0  0  0  0  0
   40.7170   85.6520   64.3720 F   0  0  0  0  0  0  0  0  0  0  0  0
   40.1010   83.6830   65.2450 F   0  0  0  0  0  0  0  0  0  0  0  0
   42.2810   84.2960   65.1040 F   0  0  0  0  0  0  0  0  0  0  0  0
   42.6260   82.7270   56.0050 O   0  0  0  0  0  0  0  0  0  0  0  0
   42.4530   83.9380   55.3070 C   0  0  0  0  0  0  0  0  0  0  0  0
   44.3500   84.1920   53.5710 C   0  0  0  0  0  0  0  0  0  0  0  0
   43.0810   83.8610   53.9860 C   0  0  0  0  0  0  0  0  0  0  0  0
   42.3100   83.3430   52.9310 C   0  0  0  0  0  0  0  0  0  0  0  0
   42.7110   83.1620   51.6240 C   0  0  0  0  0  0  0  0  0  0  0  0
   43.9970   83.5180   51.2930 C   0  0  0  0  0  0  0  0  0  0  0  0
   44.7920   84.0270   52.2770 C   0  0  0  0  0  0  0  0  0  0  0  0
   45.3820   84.8700   54.8120 S   0  0  0  0  0  0  0  0  0  0  0  0
   46.8120   84.4240   54.5210 O   0  0  0  0  0  0  0  0  0  0  0  0
   45.4270   86.3630   54.7400 O   0  0  0  0  0  0  0  0  0  0  0  0
   39.3365   80.8697   59.5010 H   0  0  0  0  0  0  0  0  0  0  0  0
   39.1512   80.0635   57.1960 H   0  0  0  0  0  0  0  0  0  0  0  0
   42.5729   81.2985   61.3403 H   0  0  0  0  0  0  0  0  0  0  0  0
   39.5558   84.1511   60.1807 H   0  0  0  0  0  0  0  0  0  0  0  0
   41.3778   84.1360   55.1860 H   0  0  0  0  0  0  0  0  0  0  0  0
   42.9252   84.7500   55.8794 H   0  0  0  0  0  0  0  0  0  0  0  0
   41.2775   83.0511   53.1736 H   0  0  0  0  0  0  0  0  0  0  0  0
   42.0247   82.7466   50.8713 H   0  0  0  0  0  0  0  0  0  0  0  0
   44.3729   83.3960   50.2664 H   0  0  0  0  0  0  0  0  0  0  0  0
   45.8237   84.3163   52.0283 H   0  0  0  0  0  0  0  0  0  0  0  0
   44.8979   84.4614   56.0267 H   0  0  0  0  0  0  0  0  0  0  0  0
  2  1  1  0
  2  3  2  0
  3 10  1  0
  4  3  1  0
  5  4  2  0
  6  8  2  0
  6  5  1  0
  7  6  1  0
  8  2  1  0
  9 14  2  0
 10 11  2  0
 10  9  1  0
 11 12  1  0
 12 13  2  0
 13 15  1  0
 14 13  1  0
 15 18  1  0
 15 17  1  0
 16 15  1  0
 19  8  1  0
 20 19  1  0
 21 22  2  0
 21 27  1  0
 22 20  1  0
 23 22  1  0
 24 23  2  0
 25 24  1  0
 25 26  2  0
 26 21  1  0
 28 27  2  0
 29 27  2  0
  4 30  1  0
  5 31  1  0
  9 32  1  0
 11 33  1  0
 20 34  1  0
 20 35  1  0
 23 36  1  0
 24 37  1  0
 25 38  1  0
 26 39  1  0
 27 40  1  0
M  ISO  8  30  14  31  14  32  14  33  14  34   8  35   8  36  14  37  14
M  ISO  3  38  14  39  14  40  11
M  END
>  <minimizedAffinity>  (1) 
-5.05478859

>  <minimizedRMSD>  (1) 
0.868906081

$$$$
