
     RDKit          3D

 31 33  0  0  1  0  0  0  0  0999 V2000
   42.8120   85.6020   60.1240 C   0  0  1  0  0  0  0  0  0  0  0  0
   44.1150   86.3770   60.1150 C   0  0  0  0  0  0  0  0  0  0  0  0
   43.5790   85.6830   58.8600 C   0  0  1  0  0  0  0  0  0  0  0  0
   43.7420   83.7790   57.4650 C   0  0  0  0  0  0  0  0  0  0  0  0
   44.4310   84.5590   58.4050 C   0  0  0  0  0  0  0  0  0  0  0  0
   45.7120   84.1780   58.7380 C   0  0  0  0  0  0  0  0  0  0  0  0
   46.3000   83.0700   58.1700 C   0  0  0  0  0  0  0  0  0  0  0  0
   45.6350   82.2930   57.2460 C   0  0  0  0  0  0  0  0  0  0  0  0
   44.3510   82.6570   56.8980 C   0  0  0  0  0  0  0  0  0  0  0  0
   42.1160   84.0220   56.8550 S   0  0  0  0  0  0  0  0  0  0  0  0
   41.5520   82.6980   56.3570 O   0  0  0  0  0  0  0  0  0  0  0  0
   42.1110   85.0460   55.7440 O   0  0  0  0  0  0  0  0  0  0  0  0
   42.8530   84.4220   60.8690 O   0  0  0  0  0  0  0  0  0  0  0  0
   40.0280   83.5440   62.9560 C   0  0  0  0  0  0  0  0  0  0  0  0
   40.5280   83.8140   64.2410 C   0  0  0  0  0  0  0  0  0  0  0  0
   41.8580   84.3030   64.3460 C   0  0  0  0  0  0  0  0  0  0  0  0
   42.5280   84.4640   63.1870 N   0  0  0  0  0  0  0  0  0  0  0  0
   42.0290   84.1980   61.9630 C   0  0  0  0  0  0  0  0  0  0  0  0
   40.7760   83.7360   61.8490 N   0  0  0  0  0  0  0  0  0  0  0  0
   41.7599   85.8109   60.3678 H   0  0  0  0  0  0  0  0  0  0  0  0
   44.1085   87.4746   60.1880 H   0  0  0  0  0  0  0  0  0  0  0  0
   45.0517   86.3513   60.6911 H   0  0  0  0  0  0  0  0  0  0  0  0
   43.2745   85.9522   57.8378 H   0  0  0  0  0  0  0  0  0  0  0  0
   46.2768   84.7708   59.4726 H   0  0  0  0  0  0  0  0  0  0  0  0
   47.3255   82.7983   58.4608 H   0  0  0  0  0  0  0  0  0  0  0  0
   46.1140   81.4091   56.7995 H   0  0  0  0  0  0  0  0  0  0  0  0
   43.7979   82.0544   56.1625 H   0  0  0  0  0  0  0  0  0  0  0  0
   41.3279   84.4922   57.8722 H   0  0  0  0  0  0  0  0  0  0  0  0
   39.0004   83.1664   62.8494 H   0  0  0  0  0  0  0  0  0  0  0  0
   39.9100   83.6521   65.1365 H   0  0  0  0  0  0  0  0  0  0  0  0
   42.3155   84.5372   65.3186 H   0  0  0  0  0  0  0  0  0  0  0  0
  1 13  1  0
  2  1  1  0
  3  2  1  0
  3  1  1  0
  4  5  2  0
  5  6  1  0
  5  3  1  0
  7  6  2  0
  8  7  1  0
  9  8  2  0
  9  4  1  0
 10  4  1  0
 11 10  2  0
 12 10  2  0
 13 18  1  0
 14 15  2  0
 15 16  1  0
 17 16  2  0
 18 17  1  0
 19 18  2  0
 19 14  1  0
  1 20  1  6
  2 21  1  0
  2 22  1  0
  3 23  1  6
  6 24  1  0
  7 25  1  0
  8 26  1  0
  9 27  1  0
 10 28  1  0
 14 29  1  0
 15 30  1  0
 16 31  1  0
M  ISO  8  20  13  21  13  22  13  23  13  24  14  25  14  26  14  27  14
M  ISO  4  28  11  29  14  30  14  31  14
M  END
>  <minimizedAffinity>  (1) 
-4.06665659

>  <minimizedRMSD>  (1) 
1.57670033

$$$$
