
     RDKit          3D

 33 35  0  0  0  0  0  0  0  0999 V2000
   42.2420   83.9950   62.4440 C   0  0  0  0  0  0  0  0  0  0  0  0
   42.4300   84.5260   63.7190 C   0  0  0  0  0  0  0  0  0  0  0  0
   41.4720   84.5070   64.7000 C   0  0  0  0  0  0  0  0  0  0  0  0
   40.2530   83.9240   64.3880 C   0  0  0  0  0  0  0  0  0  0  0  0
   40.0470   83.3880   63.1190 C   0  0  0  0  0  0  0  0  0  0  0  0
   41.0240   83.4100   62.1240 C   0  0  0  0  0  0  0  0  0  0  0  0
   45.2050   83.1010   60.4790 C   0  0  0  0  0  0  0  0  0  0  0  0
   45.3640   84.2200   59.6370 C   0  0  0  0  0  0  0  0  0  0  0  0
   44.4460   85.2660   59.7600 C   0  0  0  0  0  0  0  0  0  0  0  0
   43.4470   85.1660   60.6750 N   0  0  0  0  0  0  0  0  0  0  0  0
   43.3280   84.0620   61.4740 C   0  0  0  0  0  0  0  0  0  0  0  0
   44.1960   83.0390   61.3780 N   0  0  0  0  0  0  0  0  0  0  0  0
   40.9600   81.4700   60.6910 C   0  0  0  0  0  0  0  0  0  0  0  0
   40.7710   82.8460   60.8040 C   0  0  0  0  0  0  0  0  0  0  0  0
   40.3680   83.6050   59.7250 C   0  0  0  0  0  0  0  0  0  0  0  0
   40.1480   82.9840   58.5070 C   0  0  0  0  0  0  0  0  0  0  0  0
   40.3320   81.6170   58.3800 C   0  0  0  0  0  0  0  0  0  0  0  0
   40.7370   80.8620   59.4700 C   0  0  0  0  0  0  0  0  0  0  0  0
   41.4660   80.3880   61.9530 S   0  0  0  0  0  0  0  0  0  0  0  0
   42.4060   79.3800   61.3220 O   0  0  0  0  0  0  0  0  0  0  0  0
   40.2530   79.6680   62.4780 O   0  0  0  0  0  0  0  0  0  0  0  0
   43.4017   84.9863   63.9514 H   0  0  0  0  0  0  0  0  0  0  0  0
   41.6628   84.9369   65.6944 H   0  0  0  0  0  0  0  0  0  0  0  0
   39.4514   83.8850   65.1403 H   0  0  0  0  0  0  0  0  0  0  0  0
   39.0737   82.9284   62.8923 H   0  0  0  0  0  0  0  0  0  0  0  0
   45.9139   82.2632   60.4038 H   0  0  0  0  0  0  0  0  0  0  0  0
   46.1848   84.2683   58.9062 H   0  0  0  0  0  0  0  0  0  0  0  0
   44.5311   86.1593   59.1239 H   0  0  0  0  0  0  0  0  0  0  0  0
   40.2232   84.6903   59.8308 H   0  0  0  0  0  0  0  0  0  0  0  0
   39.8264   83.5775   57.6385 H   0  0  0  0  0  0  0  0  0  0  0  0
   40.1561   81.1284   57.4103 H   0  0  0  0  0  0  0  0  0  0  0  0
   40.8812   79.7768   59.3628 H   0  0  0  0  0  0  0  0  0  0  0  0
   42.0811   81.0594   62.9766 H   0  0  0  0  0  0  0  0  0  0  0  0
  1  2  2  0
  2  3  1  0
  4  3  2  0
  5  4  1  0
  6  1  1  0
  6  5  2  0
  7 12  2  0
  8  9  2  0
  8  7  1  0
  9 10  1  0
 10 11  2  0
 11  1  1  0
 12 11  1  0
 13 14  2  0
 13 19  1  0
 14  6  1  0
 15 14  1  0
 16 15  2  0
 17 16  1  0
 17 18  2  0
 18 13  1  0
 19 21  2  0
 20 19  2  0
  2 22  1  0
  3 23  1  0
  4 24  1  0
  5 25  1  0
  7 26  1  0
  8 27  1  0
  9 28  1  0
 15 29  1  0
 16 30  1  0
 17 31  1  0
 18 32  1  0
 19 33  1  0
M  ISO  8  22  14  23  14  24  14  25  14  26  14  27  14  28  14  29  14
M  ISO  4  30  14  31  14  32  14  33  11
M  END
>  <minimizedAffinity>  (1) 
-5.30954599

>  <minimizedRMSD>  (1) 
1.94254315

$$$$
