
     RDKit          3D

 38 41  0  0  0  0  0  0  0  0999 V2000
   41.8260   84.2840   61.6120 C   0  0  0  0  0  0  0  0  0  0  0  0
   41.4550   83.8930   62.8920 C   0  0  0  0  0  0  0  0  0  0  0  0
   40.1650   83.4630   63.1860 C   0  0  0  0  0  0  0  0  0  0  0  0
   39.2270   83.4270   62.1640 C   0  0  0  0  0  0  0  0  0  0  0  0
   39.5880   83.8180   60.8740 C   0  0  0  0  0  0  0  0  0  0  0  0
   40.8770   84.2410   60.6040 C   0  0  0  0  0  0  0  0  0  0  0  0
   45.4100   84.1780   60.9240 C   0  0  0  0  0  0  0  0  0  0  0  0
   45.7670   85.5310   60.8970 C   0  0  0  0  0  0  0  0  0  0  0  0
   44.7510   86.4790   61.1190 C   0  0  0  0  0  0  0  0  0  0  0  0
   43.4920   86.0410   61.3480 N   0  0  0  0  0  0  0  0  0  0  0  0
   43.1810   84.7210   61.3670 C   0  0  0  0  0  0  0  0  0  0  0  0
   44.1400   83.8180   61.1570 N   0  0  0  0  0  0  0  0  0  0  0  0
   41.2090   84.6380   59.2480 C   0  0  0  0  0  0  0  0  0  0  0  0
   40.4140   85.6940   58.8110 C   0  0  0  0  0  0  0  0  0  0  0  0
   40.5720   86.2260   57.5380 C   0  0  0  0  0  0  0  0  0  0  0  0
   41.5120   85.6820   56.7630 N   0  0  0  0  0  0  0  0  0  0  0  0
   42.2920   84.6470   57.1900 C   0  0  0  0  0  0  0  0  0  0  0  0
   42.1380   84.1330   58.4240 N   0  0  0  0  0  0  0  0  0  0  0  0
   41.4110   82.1800   55.8240 Cl  0  0  0  0  0  0  0  0  0  0  0  0
   43.0130   82.9010   55.6150 C   0  0  0  0  0  0  0  0  0  0  0  0
   43.3140   84.0740   56.3160 C   0  0  0  0  0  0  0  0  0  0  0  0
   44.5690   84.6630   56.1700 C   0  0  0  0  0  0  0  0  0  0  0  0
   45.4720   84.0460   55.3180 C   0  0  0  0  0  0  0  0  0  0  0  0
   45.1740   82.8750   54.6160 C   0  0  0  0  0  0  0  0  0  0  0  0
   46.3770   82.1430   53.5470 Cl  0  0  0  0  0  0  0  0  0  0  0  0
   43.9290   82.3010   54.7700 C   0  0  0  0  0  0  0  0  0  0  0  0
   42.2035   83.9243   63.6974 H   0  0  0  0  0  0  0  0  0  0  0  0
   39.8942   83.1578   64.2075 H   0  0  0  0  0  0  0  0  0  0  0  0
   38.2002   83.0907   62.3705 H   0  0  0  0  0  0  0  0  0  0  0  0
   38.8421   83.7896   60.0660 H   0  0  0  0  0  0  0  0  0  0  0  0
   46.1752   83.4064   60.7532 H   0  0  0  0  0  0  0  0  0  0  0  0
   46.8051   85.8424   60.7089 H   0  0  0  0  0  0  0  0  0  0  0  0
   44.9764   87.5556   61.1065 H   0  0  0  0  0  0  0  0  0  0  0  0
   39.6504   86.1126   59.4831 H   0  0  0  0  0  0  0  0  0  0  0  0
   39.9488   87.0603   57.1837 H   0  0  0  0  0  0  0  0  0  0  0  0
   44.8332   85.5836   56.7110 H   0  0  0  0  0  0  0  0  0  0  0  0
   46.4665   84.4980   55.1889 H   0  0  0  0  0  0  0  0  0  0  0  0
   43.6686   81.3795   54.2286 H   0  0  0  0  0  0  0  0  0  0  0  0
  1  2  2  0
  2  3  1  0
  4  3  2  0
  5  4  1  0
  6  5  2  0
  6  1  1  0
  7 12  2  0
  8  7  1  0
  8  9  2  0
  9 10  1  0
 10 11  2  0
 11  1  1  0
 12 11  1  0
 13  6  1  0
 14 13  2  0
 15 14  1  0
 16 17  1  0
 16 15  2  0
 17 18  2  0
 18 13  1  0
 20 19  1  0
 20 21  2  0
 21 17  1  0
 22 21  1  0
 23 22  2  0
 24 26  2  0
 24 23  1  0
 25 24  1  0
 26 20  1  0
  2 27  1  0
  3 28  1  0
  4 29  1  0
  5 30  1  0
  7 31  1  0
  8 32  1  0
  9 33  1  0
 14 34  1  0
 15 35  1  0
 22 36  1  0
 23 37  1  0
 26 38  1  0
M  ISO  8  27  14  28  14  29  14  30  14  31  14  32  14  33  14  34  14
M  ISO  4  35  14  36  14  37  14  38  14
M  END
>  <minimizedAffinity>  (1) 
-5.57994986

>  <minimizedRMSD>  (1) 
1.04659784

$$$$
