
     RDKit          3D

 33 35  0  0  0  0  0  0  0  0999 V2000
   43.2600   83.4730   58.6230 Cl  0  0  0  0  0  0  0  0  0  0  0  0
   41.9020   82.4160   58.2230 C   0  0  0  0  0  0  0  0  0  0  0  0
   40.9590   82.0200   59.1540 C   0  0  0  0  0  0  0  0  0  0  0  0
   39.9650   81.1930   58.6710 C   0  0  0  0  0  0  0  0  0  0  0  0
   39.8380   80.7410   57.3680 C   0  0  0  0  0  0  0  0  0  0  0  0
   40.7890   81.1580   56.4890 C   0  0  0  0  0  0  0  0  0  0  0  0
   40.7320   80.6450   54.7990 Cl  0  0  0  0  0  0  0  0  0  0  0  0
   41.8060   81.9830   56.9110 C   0  0  0  0  0  0  0  0  0  0  0  0
   44.3400   80.3520   56.5040 Cl  0  0  0  0  0  0  0  0  0  0  0  0
   43.9890   81.8050   55.6180 C   0  0  0  0  0  0  0  0  0  0  0  0
   42.8120   82.4080   55.9260 C   0  0  0  0  0  0  0  0  0  0  0  0
   42.4040   83.5820   55.2910 C   0  0  0  0  0  0  0  0  0  0  0  0
   43.2040   84.1670   54.3160 C   0  0  0  0  0  0  0  0  0  0  0  0
   44.4070   83.5470   54.0060 C   0  0  0  0  0  0  0  0  0  0  0  0
   45.4530   84.2400   52.7870 Cl  0  0  0  0  0  0  0  0  0  0  0  0
   44.7910   82.3780   54.6510 C   0  0  0  0  0  0  0  0  0  0  0  0
   41.7870   81.8910   61.5330 C   0  0  0  0  0  0  0  0  0  0  0  0
   41.0730   82.4740   60.4970 C   0  0  0  0  0  0  0  0  0  0  0  0
   40.3620   83.6610   60.7780 C   0  0  0  0  0  0  0  0  0  0  0  0
   40.4290   84.1490   62.0440 N   0  0  0  0  0  0  0  0  0  0  0  0
   41.1320   83.5550   63.0210 C   0  0  0  0  0  0  0  0  0  0  0  0
   41.8050   82.4340   62.7610 N   0  0  0  0  0  0  0  0  0  0  0  0
   41.0890   84.2320   64.3440 C   0  0  0  0  0  0  0  0  0  0  0  0
   40.7840   85.5780   64.2320 F   0  0  0  0  0  0  0  0  0  0  0  0
   40.1430   83.6340   65.1530 F   0  0  0  0  0  0  0  0  0  0  0  0
   42.3420   84.2080   64.9580 F   0  0  0  0  0  0  0  0  0  0  0  0
   39.2009   80.8613   59.3894 H   0  0  0  0  0  0  0  0  0  0  0  0
   39.0134   80.0810   57.0607 H   0  0  0  0  0  0  0  0  0  0  0  0
   41.4449   84.0467   55.5633 H   0  0  0  0  0  0  0  0  0  0  0  0
   42.8939   85.0913   53.8066 H   0  0  0  0  0  0  0  0  0  0  0  0
   45.7472   81.9023   54.3877 H   0  0  0  0  0  0  0  0  0  0  0  0
   42.3501   80.9649   61.3450 H   0  0  0  0  0  0  0  0  0  0  0  0
   39.7753   84.1719   60.0003 H   0  0  0  0  0  0  0  0  0  0  0  0
  2  1  1  0
  2  3  2  0
  3 18  1  0
  4  3  1  0
  5  4  2  0
  6  8  2  0
  6  5  1  0
  7  6  1  0
  8  2  1  0
 10 11  2  0
 10  9  1  0
 11  8  1  0
 12 11  1  0
 13 12  2  0
 14 13  1  0
 14 16  2  0
 15 14  1  0
 16 10  1  0
 17 22  2  0
 18 19  2  0
 18 17  1  0
 19 20  1  0
 20 21  2  0
 21 23  1  0
 22 21  1  0
 23 26  1  0
 23 25  1  0
 24 23  1  0
  4 27  1  0
  5 28  1  0
 12 29  1  0
 13 30  1  0
 16 31  1  0
 17 32  1  0
 19 33  1  0
M  ISO  7  27  14  28  14  29  14  30  14  31  14  32  14  33  14
M  END
>  <minimizedAffinity>  (1) 
-5.23971081

>  <minimizedRMSD>  (1) 
1.49116874

$$$$
