
     RDKit          3D

 43 47  0  0  0  0  0  0  0  0999 V2000
   40.7240   81.7820   57.1120 C   0  0  0  0  0  0  0  0  0  0  0  0
   41.8170   82.3350   56.4320 C   0  0  0  0  0  0  0  0  0  0  0  0
   42.6140   83.2280   57.1250 C   0  0  0  0  0  0  0  0  0  0  0  0
   42.3280   83.5350   58.4100 N   0  0  0  0  0  0  0  0  0  0  0  0
   41.2590   82.9780   59.0450 C   0  0  0  0  0  0  0  0  0  0  0  0
   40.4500   82.0980   58.3950 N   0  0  0  0  0  0  0  0  0  0  0  0
   39.6860   83.0980   60.9130 C   0  0  0  0  0  0  0  0  0  0  0  0
   40.9870   83.2870   60.4410 C   0  0  0  0  0  0  0  0  0  0  0  0
   42.0070   83.7410   61.2800 C   0  0  0  0  0  0  0  0  0  0  0  0
   41.7620   84.0200   62.6160 C   0  0  0  0  0  0  0  0  0  0  0  0
   42.4520   84.4500   63.6810 N   0  0  0  0  0  0  0  0  0  0  0  0
   41.6670   84.5360   64.7660 C   0  0  0  0  0  0  0  0  0  0  0  0
   40.4620   84.1420   64.3320 N   0  0  0  0  0  0  0  0  0  0  0  0
   40.4820   83.8220   63.0330 C   0  0  0  0  0  0  0  0  0  0  0  0
   39.4270   83.3770   62.2590 C   0  0  0  0  0  0  0  0  0  0  0  0
   42.3750   83.6690   54.1820 Cl  0  0  0  0  0  0  0  0  0  0  0  0
   43.7890   84.0910   55.1320 C   0  0  0  0  0  0  0  0  0  0  0  0
   43.7510   83.8440   56.4780 C   0  0  0  0  0  0  0  0  0  0  0  0
   44.9030   84.2360   57.1560 C   0  0  0  0  0  0  0  0  0  0  0  0
   45.9960   84.8190   56.5650 C   0  0  0  0  0  0  0  0  0  0  0  0
   45.9650   85.0400   55.1880 C   0  0  0  0  0  0  0  0  0  0  0  0
   47.3310   85.7780   54.3920 Cl  0  0  0  0  0  0  0  0  0  0  0  0
   44.8490   84.6710   54.4690 C   0  0  0  0  0  0  0  0  0  0  0  0
   45.8490   82.2830   53.0780 Cl  0  0  0  0  0  0  0  0  0  0  0  0
   45.2500   83.7710   52.3300 C   0  0  0  0  0  0  0  0  0  0  0  0
   44.7820   84.8870   53.0270 C   0  0  0  0  0  0  0  0  0  0  0  0
   44.3490   85.9690   52.3190 C   0  0  0  0  0  0  0  0  0  0  0  0
   44.3790   85.9460   50.9530 C   0  0  0  0  0  0  0  0  0  0  0  0
   44.8400   84.8490   50.2540 C   0  0  0  0  0  0  0  0  0  0  0  0
   44.8610   84.8620   48.5020 Cl  0  0  0  0  0  0  0  0  0  0  0  0
   45.2870   83.7350   50.9510 C   0  0  0  0  0  0  0  0  0  0  0  0
   40.0710   81.0704   56.5854 H   0  0  0  0  0  0  0  0  0  0  0  0
   42.0331   82.0691   55.3867 H   0  0  0  0  0  0  0  0  0  0  0  0
   38.8882   82.7401   60.2455 H   0  0  0  0  0  0  0  0  0  0  0  0
   43.0202   83.8794   60.8748 H   0  0  0  0  0  0  0  0  0  0  0  0
   43.4549   84.6842   63.6685 H   0  0  0  0  0  0  0  0  0  0  0  0
   41.9484   84.8566   65.7799 H   0  0  0  0  0  0  0  0  0  0  0  0
   38.4214   83.2471   62.6854 H   0  0  0  0  0  0  0  0  0  0  0  0
   44.9393   84.0662   58.2422 H   0  0  0  0  0  0  0  0  0  0  0  0
   46.8744   85.1048   57.1622 H   0  0  0  0  0  0  0  0  0  0  0  0
   43.9761   86.8592   52.8468 H   0  0  0  0  0  0  0  0  0  0  0  0
   44.0260   86.8260   50.3953 H   0  0  0  0  0  0  0  0  0  0  0  0
   45.6605   82.8478   50.4187 H   0  0  0  0  0  0  0  0  0  0  0  0
  1  6  2  0
  2  1  1  0
  2  3  2  0
  3  4  1  0
  4  5  2  0
  5  8  1  0
  6  5  1  0
  7 15  2  0
  8  7  1  0
  8  9  2  0
  9 10  1  0
 10 14  2  0
 10 11  1  0
 11 12  1  0
 13 12  2  0
 14 13  1  0
 15 14  1  0
 16 17  1  0
 17 18  2  0
 18  3  1  0
 18 19  1  0
 20 19  2  0
 21 20  1  0
 22 21  1  0
 23 17  1  0
 23 21  2  0
 25 26  2  0
 25 24  1  0
 26 23  1  0
 27 26  1  0
 28 27  2  0
 29 31  2  0
 29 28  1  0
 30 29  1  0
 31 25  1  0
  1 32  1  0
  2 33  1  0
  7 34  1  0
  9 35  1  0
 11 36  1  0
 12 37  1  0
 15 38  1  0
 19 39  1  0
 20 40  1  0
 27 41  1  0
 28 42  1  0
 31 43  1  0
M  ISO  8  32  14  33  14  34  14  35  14  36   9  37  14  38  14  39  14
M  ISO  4  40  14  41  14  42  14  43  14
M  END
>  <minimizedAffinity>  (1) 
-5.09713602

>  <minimizedRMSD>  (1) 
0.337616116

$$$$
