
     RDKit          3D

 30 32  0  0  0  0  0  0  0  0999 V2000
   42.3620   84.8580   60.8500 C   0  0  0  0  0  0  0  0  0  0  0  0
   43.4300   85.3180   61.6260 C   0  0  0  0  0  0  0  0  0  0  0  0
   43.9780   86.3100   60.8070 C   0  0  0  0  0  0  0  0  0  0  0  0
   43.2730   86.4070   59.6490 N   0  0  0  0  0  0  0  0  0  0  0  0
   42.2910   85.5100   59.6970 N   0  0  0  0  0  0  0  0  0  0  0  0
   41.0270   81.5410   61.9070 C   0  0  0  0  0  0  0  0  0  0  0  0
   41.9340   82.5230   61.5030 C   0  0  0  0  0  0  0  0  0  0  0  0
   41.4610   83.8030   61.2700 C   0  0  0  0  0  0  0  0  0  0  0  0
   40.1270   84.0680   61.4400 N   0  0  0  0  0  0  0  0  0  0  0  0
   39.2880   83.0730   61.8340 C   0  0  0  0  0  0  0  0  0  0  0  0
   39.7370   81.8370   62.0610 N   0  0  0  0  0  0  0  0  0  0  0  0
   43.5250   87.3180   58.5390 C   0  0  0  0  0  0  0  0  0  0  0  0
   45.0260   89.9190   58.0570 Cl  0  0  0  0  0  0  0  0  0  0  0  0
   45.6640   88.3160   57.7250 C   0  0  0  0  0  0  0  0  0  0  0  0
   44.8840   87.2090   57.9870 C   0  0  0  0  0  0  0  0  0  0  0  0
   45.4330   85.9530   57.7070 C   0  0  0  0  0  0  0  0  0  0  0  0
   46.6990   85.7720   57.1890 C   0  0  0  0  0  0  0  0  0  0  0  0
   47.4820   86.8900   56.9270 C   0  0  0  0  0  0  0  0  0  0  0  0
   49.0960   86.7080   56.2690 Cl  0  0  0  0  0  0  0  0  0  0  0  0
   46.9300   88.1250   57.2070 C   0  0  0  0  0  0  0  0  0  0  0  0
   43.7551   84.9856   62.6229 H   0  0  0  0  0  0  0  0  0  0  0  0
   44.8541   86.9239   61.0632 H   0  0  0  0  0  0  0  0  0  0  0  0
   41.3796   80.5169   62.0993 H   0  0  0  0  0  0  0  0  0  0  0  0
   43.0000   82.2848   61.3729 H   0  0  0  0  0  0  0  0  0  0  0  0
   38.2183   83.2912   61.9682 H   0  0  0  0  0  0  0  0  0  0  0  0
   42.8049   87.0974   57.7373 H   0  0  0  0  0  0  0  0  0  0  0  0
   43.4153   88.3408   58.9288 H   0  0  0  0  0  0  0  0  0  0  0  0
   44.8221   85.0612   57.9109 H   0  0  0  0  0  0  0  0  0  0  0  0
   47.0818   84.7607   56.9870 H   0  0  0  0  0  0  0  0  0  0  0  0
   47.5404   89.0172   57.0035 H   0  0  0  0  0  0  0  0  0  0  0  0
  1  8  1  0
  1  2  1  0
  3  2  2  0
  4  5  1  0
  4  3  1  0
  5  1  2  0
  6 11  2  0
  7  6  1  0
  8  9  1  0
  8  7  2  0
  9 10  2  0
 10 11  1  0
 12  4  1  0
 14 15  2  0
 14 13  1  0
 15 12  1  0
 16 15  1  0
 17 16  2  0
 18 17  1  0
 18 20  2  0
 19 18  1  0
 20 14  1  0
  2 21  1  0
  3 22  1  0
  6 23  1  0
  7 24  1  0
 10 25  1  0
 12 26  1  0
 12 27  1  0
 16 28  1  0
 17 29  1  0
 20 30  1  0
M  ISO  8  21  14  22  14  23  14  24  14  25  14  26   8  27   8  28  14
M  ISO  2  29  14  30  14
M  END
>  <minimizedAffinity>  (1) 
-4.41030979

>  <minimizedRMSD>  (1) 
1.21022213

$$$$
