
     RDKit          3D

 20 21  0  0  0  0  0  0  0  0999 V2000
   43.6220   85.0090   60.8630 Cl  0  0  0  0  0  0  0  0  0  0  0  0
   42.0570   84.4540   61.4330 C   0  0  0  0  0  0  0  0  0  0  0  0
   41.1020   84.1060   60.5120 C   0  0  0  0  0  0  0  0  0  0  0  0
   39.8630   83.6680   60.9200 C   0  0  0  0  0  0  0  0  0  0  0  0
   39.5600   83.5710   62.2650 C   0  0  0  0  0  0  0  0  0  0  0  0
   40.5330   83.9250   63.1790 C   0  0  0  0  0  0  0  0  0  0  0  0
   40.2610   83.8420   64.9130 Cl  0  0  0  0  0  0  0  0  0  0  0  0
   41.7760   84.3660   62.7630 C   0  0  0  0  0  0  0  0  0  0  0  0
   42.1670   83.1970   57.1180 C   0  0  0  0  0  0  0  0  0  0  0  0
   41.9520   84.3870   56.3900 C   0  0  0  0  0  0  0  0  0  0  0  0
   41.4430   85.4810   57.0880 C   0  0  0  0  0  0  0  0  0  0  0  0
   41.1800   85.3560   58.4210 N   0  0  0  0  0  0  0  0  0  0  0  0
   41.3970   84.2010   59.0870 C   0  0  0  0  0  0  0  0  0  0  0  0
   41.8900   83.1320   58.4250 N   0  0  0  0  0  0  0  0  0  0  0  0
   39.1074   83.3928   60.1695 H   0  0  0  0  0  0  0  0  0  0  0  0
   38.5716   83.2216   62.5982 H   0  0  0  0  0  0  0  0  0  0  0  0
   42.5375   84.6456   63.5059 H   0  0  0  0  0  0  0  0  0  0  0  0
   42.5677   82.3111   56.6036 H   0  0  0  0  0  0  0  0  0  0  0  0
   42.1771   84.4486   55.3150 H   0  0  0  0  0  0  0  0  0  0  0  0
   41.2557   86.4334   56.5705 H   0  0  0  0  0  0  0  0  0  0  0  0
  1  2  1  0
  2  8  2  0
  3  4  2  0
  3  2  1  0
  4  5  1  0
  5  6  2  0
  6  7  1  0
  8  6  1  0
  9 14  2  0
 10 11  2  0
 10  9  1  0
 11 12  1  0
 12 13  2  0
 13  3  1  0
 14 13  1  0
  4 15  1  0
  5 16  1  0
  8 17  1  0
  9 18  1  0
 10 19  1  0
 11 20  1  0
M  ISO  6  15  14  16  14  17  14  18  14  19  14  20  14
M  END
>  <minimizedAffinity>  (1) 
-4.22244501

>  <minimizedRMSD>  (1) 
4.25749111

$$$$
