
     RDKit          3D

 20 21  0  0  0  0  0  0  0  0999 V2000
   41.7190   80.5010   60.7560 Cl  0  0  0  0  0  0  0  0  0  0  0  0
   42.8280   81.4150   61.7590 C   0  0  0  0  0  0  0  0  0  0  0  0
   42.4980   82.6840   62.2030 C   0  0  0  0  0  0  0  0  0  0  0  0
   43.4280   83.3100   62.9760 C   0  0  0  0  0  0  0  0  0  0  0  0
   44.6390   82.7460   63.3180 C   0  0  0  0  0  0  0  0  0  0  0  0
   44.9540   81.4750   62.8650 C   0  0  0  0  0  0  0  0  0  0  0  0
   46.5010   80.7850   63.3160 Cl  0  0  0  0  0  0  0  0  0  0  0  0
   44.0290   80.8050   62.0730 C   0  0  0  0  0  0  0  0  0  0  0  0
   41.2090   83.2330   61.8130 C   0  0  0  0  0  0  0  0  0  0  0  0
   41.1080   84.0880   60.7100 C   0  0  0  0  0  0  0  0  0  0  0  0
   39.8890   84.6320   60.3090 C   0  0  0  0  0  0  0  0  0  0  0  0
   38.8100   84.2770   61.0570 N   0  0  0  0  0  0  0  0  0  0  0  0
   38.9080   83.4570   62.1160 C   0  0  0  0  0  0  0  0  0  0  0  0
   40.0850   82.9410   62.4890 N   0  0  0  0  0  0  0  0  0  0  0  0
   43.2010   84.3201   63.3477 H   0  0  0  0  0  0  0  0  0  0  0  0
   45.3505   83.3017   63.9465 H   0  0  0  0  0  0  0  0  0  0  0  0
   44.2509   79.7950   61.6979 H   0  0  0  0  0  0  0  0  0  0  0  0
   42.0168   84.3380   60.1430 H   0  0  0  0  0  0  0  0  0  0  0  0
   39.8050   85.3052   59.4431 H   0  0  0  0  0  0  0  0  0  0  0  0
   38.0030   83.2045   62.6880 H   0  0  0  0  0  0  0  0  0  0  0  0
  1  2  1  0
  2  8  2  0
  2  3  1  0
  3  4  2  0
  4  5  1  0
  6  7  1  0
  6  5  2  0
  8  6  1  0
  9  3  1  0
  9 14  1  0
 10  9  2  0
 11 10  1  0
 11 12  2  0
 12 13  1  0
 13 14  2  0
  4 15  1  0
  5 16  1  0
  8 17  1  0
 10 18  1  0
 11 19  1  0
 13 20  1  0
M  ISO  6  15  14  16  14  17  14  18  14  19  14  20  14
M  END
>  <minimizedAffinity>  (1) 
-5.05694771

>  <minimizedRMSD>  (1) 
3.54751849

$$$$
