
     RDKit          3D

 36 38  0  0  0  0  0  0  0  0999 V2000
   40.6760   79.8870   58.6060 C   0  0  0  0  0  0  0  0  0  0  0  0
   40.1490   80.7840   57.6990 C   0  0  0  0  0  0  0  0  0  0  0  0
   40.4170   82.1410   57.9170 C   0  0  0  0  0  0  0  0  0  0  0  0
   41.1730   82.4780   58.9950 N   0  0  0  0  0  0  0  0  0  0  0  0
   41.6690   81.6040   59.8510 C   0  0  0  0  0  0  0  0  0  0  0  0
   41.4120   80.2990   59.6440 N   0  0  0  0  0  0  0  0  0  0  0  0
   39.3690   80.3500   56.6000 N   0  0  0  0  0  0  0  0  0  0  0  0
   38.2590   79.6880   56.9680 C   0  0  0  0  0  0  0  0  0  0  0  0
   37.4160   79.2130   55.9610 C   0  0  0  0  0  0  0  0  0  0  0  0
   37.7490   79.4380   54.6290 C   0  0  0  0  0  0  0  0  0  0  0  0
   37.0630   79.0550   53.6500 O   0  0  0  0  0  0  0  0  0  0  0  0
   38.9000   80.1220   54.3440 N   0  0  0  0  0  0  0  0  0  0  0  0
   39.7190   80.5840   55.3250 C   0  0  0  0  0  0  0  0  0  0  0  0
   40.7650   81.2040   55.0760 O   0  0  0  0  0  0  0  0  0  0  0  0
   41.8820   82.7720   62.0200 C   0  0  0  0  0  0  0  0  0  0  0  0
   42.4570   82.1010   60.9610 C   0  0  0  0  0  0  0  0  0  0  0  0
   43.8180   81.8670   60.9410 C   0  0  0  0  0  0  0  0  0  0  0  0
   44.6700   82.2860   61.9670 C   0  0  0  0  0  0  0  0  0  0  0  0
   44.1010   82.9590   63.0320 C   0  0  0  0  0  0  0  0  0  0  0  0
   42.7400   83.1890   63.0470 C   0  0  0  0  0  0  0  0  0  0  0  0
   40.1690   83.0920   62.0690 S   0  0  0  0  0  0  0  0  0  0  0  0
   39.7780   83.6240   63.4190 O   0  0  0  0  0  0  0  0  0  0  0  0
   39.4780   81.7270   61.9990 O   0  0  0  0  0  0  0  0  0  0  0  0
   39.5620   84.1900   60.8610 C   0  0  0  0  0  0  0  0  0  0  0  0
   40.4869   78.8116   58.4725 H   0  0  0  0  0  0  0  0  0  0  0  0
   40.0271   82.9116   57.2358 H   0  0  0  0  0  0  0  0  0  0  0  0
   38.0217   79.5253   58.0297 H   0  0  0  0  0  0  0  0  0  0  0  0
   36.4971   78.6660   56.2186 H   0  0  0  0  0  0  0  0  0  0  0  0
   39.1520   80.2910   53.3597 H   0  0  0  0  0  0  0  0  0  0  0  0
   44.2488   81.3294   60.0834 H   0  0  0  0  0  0  0  0  0  0  0  0
   45.7513   82.0879   61.9284 H   0  0  0  0  0  0  0  0  0  0  0  0
   44.7298   83.3096   63.8636 H   0  0  0  0  0  0  0  0  0  0  0  0
   42.3084   83.7248   63.9053 H   0  0  0  0  0  0  0  0  0  0  0  0
   39.0862   85.0507   61.3538 H   0  0  0  0  0  0  0  0  0  0  0  0
   40.3942   84.5409   60.2331 H   0  0  0  0  0  0  0  0  0  0  0  0
   38.8222   83.6719   60.2331 H   0  0  0  0  0  0  0  0  0  0  0  0
  1  6  2  0
  2  3  2  0
  2  1  1  0
  3  4  1  0
  4  5  2  0
  5 16  1  0
  6  5  1  0
  7  8  1  0
  7  2  1  0
  9  8  2  0
 10  9  1  0
 11 10  2  0
 12 10  1  0
 12 13  1  0
 13  7  1  0
 14 13  2  0
 15 21  1  0
 15 20  2  0
 16 15  1  0
 17 16  2  0
 17 18  1  0
 18 19  2  0
 19 20  1  0
 21 22  2  0
 23 21  2  0
 24 21  1  0
  1 25  1  0
  3 26  1  0
  8 27  1  0
  9 28  1  0
 12 29  1  0
 17 30  1  0
 18 31  1  0
 19 32  1  0
 20 33  1  0
 24 34  1  0
 24 35  1  0
 24 36  1  0
M  ISO  8  25  14  26  14  27  14  28  14  29   9  30  14  31  14  32  14
M  ISO  4  33  14  34   8  35   8  36   8
M  END
>  <minimizedAffinity>  (1) 
-5.8602643

>  <minimizedRMSD>  (1) 
0.0933239758

$$$$
