
     RDKit          3D

 37 40  0  0  1  0  0  0  0  0999 V2000
   39.7450   77.3670   59.2240 C   0  0  0  0  0  0  0  0  0  0  0  0
   40.3770   76.1900   58.9980 C   0  0  0  0  0  0  0  0  0  0  0  0
   39.8250   75.4810   57.9200 C   0  0  0  0  0  0  0  0  0  0  0  0
   38.7820   75.9140   57.1860 N   0  0  0  0  0  0  0  0  0  0  0  0
   38.2170   77.1170   57.4990 C   0  0  0  0  0  0  0  0  0  0  0  0
   38.7070   77.8460   58.5280 N   0  0  0  0  0  0  0  0  0  0  0  0
   40.9720   80.3210   61.7570 C   0  0  0  0  0  0  0  0  0  0  0  0
   40.9660   79.0860   62.3700 C   0  0  0  0  0  0  0  0  0  0  0  0
   40.5750   78.0300   61.6210 C   0  0  0  0  0  0  0  0  0  0  0  0
   40.2040   78.2170   60.3050 C   0  0  0  0  0  0  0  0  0  0  0  0
   40.4090   80.0260   60.0570 S   0  0  0  0  0  0  0  0  0  0  0  0
   43.0510   83.1250   62.8810 C   0  0  0  0  0  0  0  0  0  0  0  0
   42.1600   83.8910   63.6800 C   0  0  0  0  0  0  0  0  0  0  0  0
   40.8350   83.4310   63.8230 C   0  0  0  0  0  0  0  0  0  0  0  0
   40.4860   82.2920   63.1960 N   0  0  0  0  0  0  0  0  0  0  0  0
   41.3700   81.5830   62.4350 C   0  0  0  0  0  0  0  0  0  0  0  0
   42.6270   82.0040   62.2910 N   0  0  0  0  0  0  0  0  0  0  0  0
   37.0990   77.5680   56.6880 C   0  0  0  0  0  0  0  0  0  0  0  0
   35.9710   77.1640   57.0000 O   0  0  0  0  0  0  0  0  0  0  0  0
   37.2880   78.4840   55.5030 C   0  0  1  0  0  0  0  0  0  0  0  0
   37.3140   79.9430   55.8870 C   0  0  0  0  0  0  0  0  0  0  0  0
   38.5010   79.2630   55.3730 C   0  0  2  0  0  0  0  0  0  0  0  0
   39.0160   79.5140   53.9710 C   0  0  0  0  0  0  0  0  0  0  0  0
   41.2287   75.8299   59.5937 H   0  0  0  0  0  0  0  0  0  0  0  0
   40.2722   74.5107   57.6581 H   0  0  0  0  0  0  0  0  0  0  0  0
   41.2659   78.9650   63.4214 H   0  0  0  0  0  0  0  0  0  0  0  0
   40.5527   77.0220   62.0608 H   0  0  0  0  0  0  0  0  0  0  0  0
   44.0917   83.4556   62.7481 H   0  0  0  0  0  0  0  0  0  0  0  0
   42.4943   84.8160   64.1726 H   0  0  0  0  0  0  0  0  0  0  0  0
   40.1062   83.9877   64.4304 H   0  0  0  0  0  0  0  0  0  0  0  0
   36.7516   77.8240   54.8053 H   0  0  0  0  0  0  0  0  0  0  0  0
   36.7909   80.6884   55.2699 H   0  0  0  0  0  0  0  0  0  0  0  0
   37.0676   80.5250   56.7873 H   0  0  0  0  0  0  0  0  0  0  0  0
   39.5305   79.1900   55.7534 H   0  0  0  0  0  0  0  0  0  0  0  0
   40.0037   79.9954   54.0239 H   0  0  0  0  0  0  0  0  0  0  0  0
   39.1027   78.5571   53.4354 H   0  0  0  0  0  0  0  0  0  0  0  0
   38.3157   80.1718   53.4354 H   0  0  0  0  0  0  0  0  0  0  0  0
  1 10  1  0
  2  1  2  0
  3  2  1  0
  4  5  1  0
  4  3  2  0
  5  6  2  0
  6  1  1  0
  7  8  2  0
  7 16  1  0
  9  8  1  0
 10  9  2  0
 11 10  1  0
 11  7  1  0
 12 13  2  0
 13 14  1  0
 15 14  2  0
 16 15  1  0
 17 16  2  0
 17 12  1  0
 18 19  2  0
 18  5  1  0
 20 21  1  0
 20 18  1  0
 22 20  1  0
 22 21  1  0
 23 22  1  0
  2 24  1  0
  3 25  1  0
  8 26  1  0
  9 27  1  0
 12 28  1  0
 13 29  1  0
 14 30  1  0
 20 31  1  6
 21 32  1  0
 21 33  1  0
 22 34  1  1
 23 35  1  0
 23 36  1  0
 23 37  1  0
M  ISO  8  24  14  25  14  26  14  27  14  28  14  29  14  30  14  31  13
M  ISO  6  32  13  33  13  34  13  35   8  36   8  37   8
M  END
>  <minimizedAffinity>  (1) 
-6.05073452

>  <minimizedRMSD>  (1) 
0.031898167

$$$$
