
     RDKit          3D

 45 48  0  0  1  0  0  0  0  0999 V2000
   42.9500   82.3470   62.5890 C   0  0  0  0  0  0  0  0  0  0  0  0
   43.2730   81.1660   61.9650 C   0  0  0  0  0  0  0  0  0  0  0  0
   44.5500   80.6530   62.0550 C   0  0  0  0  0  0  0  0  0  0  0  0
   45.5710   81.2810   62.7660 C   0  0  0  0  0  0  0  0  0  0  0  0
   45.2640   82.4680   63.4010 C   0  0  0  0  0  0  0  0  0  0  0  0
   43.9890   82.9690   63.3030 C   0  0  0  0  0  0  0  0  0  0  0  0
   40.3760   79.0550   61.0590 C   0  0  0  0  0  0  0  0  0  0  0  0
   40.4840   78.9960   59.6840 C   0  0  0  0  0  0  0  0  0  0  0  0
   41.5670   79.6910   59.0820 C   0  0  0  0  0  0  0  0  0  0  0  0
   42.4080   80.3560   59.9130 N   0  0  0  0  0  0  0  0  0  0  0  0
   42.2870   80.3980   61.2200 C   0  0  0  0  0  0  0  0  0  0  0  0
   41.2610   79.7420   61.7900 N   0  0  0  0  0  0  0  0  0  0  0  0
   39.5540   78.2740   58.8960 N   0  0  0  0  0  0  0  0  0  0  0  0
   39.1930   78.9140   57.7740 C   0  0  0  0  0  0  0  0  0  0  0  0
   38.2780   78.2880   56.9230 C   0  0  0  0  0  0  0  0  0  0  0  0
   37.7770   77.0230   57.2690 C   0  0  0  0  0  0  0  0  0  0  0  0
   36.9610   76.4150   56.5490 O   0  0  0  0  0  0  0  0  0  0  0  0
   38.2020   76.4560   58.4230 N   0  0  0  0  0  0  0  0  0  0  0  0
   39.0860   77.0580   59.2490 C   0  0  0  0  0  0  0  0  0  0  0  0
   39.4760   76.5390   60.3080 O   0  0  0  0  0  0  0  0  0  0  0  0
   41.3750   83.0390   62.4900 S   0  0  0  0  0  0  0  0  0  0  0  0
   41.4420   84.5160   62.7970 O   0  0  0  0  0  0  0  0  0  0  0  0
   40.6060   82.5530   63.7270 O   0  0  0  0  0  0  0  0  0  0  0  0
   41.1180   83.8700   59.9890 C   0  0  1  0  0  0  0  0  0  0  0  0
   40.4740   82.9800   61.0480 C   0  0  2  0  0  0  0  0  0  0  0  0
   39.1930   83.8020   61.3040 C   0  0  0  0  0  0  0  0  0  0  0  0
   38.9740   84.5020   60.1120 O   0  0  0  0  0  0  0  0  0  0  0  0
   40.2470   85.1030   59.9710 C   0  0  0  0  0  0  0  0  0  0  0  0
   42.4500   84.1510   60.2610 O   0  0  0  0  0  0  0  0  0  0  0  0
   44.7727   79.7055   61.5425 H   0  0  0  0  0  0  0  0  0  0  0  0
   46.5809   80.8484   62.8192 H   0  0  0  0  0  0  0  0  0  0  0  0
   46.0309   83.0055   63.9780 H   0  0  0  0  0  0  0  0  0  0  0  0
   43.7668   83.9166   63.8155 H   0  0  0  0  0  0  0  0  0  0  0  0
   39.5502   78.5295   61.5608 H   0  0  0  0  0  0  0  0  0  0  0  0
   41.7167   79.6899   57.9922 H   0  0  0  0  0  0  0  0  0  0  0  0
   39.6056   79.9041   57.5303 H   0  0  0  0  0  0  0  0  0  0  0  0
   37.9545   78.7802   55.9940 H   0  0  0  0  0  0  0  0  0  0  0  0
   37.8367   75.5283   58.6816 H   0  0  0  0  0  0  0  0  0  0  0  0
   41.1623   83.3813   59.0045 H   0  0  0  0  0  0  0  0  0  0  0  0
   40.3625   81.9255   60.7553 H   0  0  0  0  0  0  0  0  0  0  0  0
   38.3442   83.1382   61.5252 H   0  0  0  0  0  0  0  0  0  0  0  0
   39.2968   84.4749   62.1680 H   0  0  0  0  0  0  0  0  0  0  0  0
   40.4758   85.7775   60.8092 H   0  0  0  0  0  0  0  0  0  0  0  0
   40.3637   85.7416   59.0830 H   0  0  0  0  0  0  0  0  0  0  0  0
   42.5877   84.1800   61.2409 H   0  0  0  0  0  0  0  0  0  0  0  0
  1  6  2  0
  2  3  2  0
  2  1  1  0
  3  4  1  0
  4  5  2  0
  6  5  1  0
  7 12  2  0
  8  7  1  0
  9  8  2  0
  9 10  1  0
 10 11  2  0
 11 12  1  0
 11  2  1  0
 13 19  1  0
 13  8  1  0
 14 13  1  0
 15 16  1  0
 15 14  2  0
 16 18  1  0
 17 16  2  0
 18 19  1  0
 19 20  2  0
 21  1  1  0
 21 22  2  0
 21 23  2  0
 24 29  1  0
 24 25  1  0
 25 26  1  0
 25 21  1  0
 27 26  1  0
 28 24  1  0
 28 27  1  0
  3 30  1  0
  4 31  1  0
  5 32  1  0
  6 33  1  0
  7 34  1  0
  9 35  1  0
 14 36  1  0
 15 37  1  0
 18 38  1  0
 24 39  1  6
 25 40  1  6
 26 41  1  0
 26 42  1  0
 28 43  1  0
 28 44  1  0
 29 45  1  0
M  ISO  8  30  14  31  14  32  14  33  14  34  14  35  14  36  14  37  14
M  ISO  8  38   9  39  13  40  13  41  13  42  13  43  13  44  13  45   3
M  END
>  <minimizedAffinity>  (1) 
-7.20992517

>  <minimizedRMSD>  (1) 
2.98099756

$$$$
