
     RDKit          3D

 46 49  0  0  0  0  0  0  0  0999 V2000
   40.3690   79.1050   61.0310 C   0  0  0  0  0  0  0  0  0  0  0  0
   40.4940   79.0340   59.6570 C   0  0  0  0  0  0  0  0  0  0  0  0
   41.5950   79.7130   59.0700 C   0  0  0  0  0  0  0  0  0  0  0  0
   42.4360   80.3760   59.9040 N   0  0  0  0  0  0  0  0  0  0  0  0
   42.2960   80.4270   61.2080 C   0  0  0  0  0  0  0  0  0  0  0  0
   41.2530   79.7860   61.7690 N   0  0  0  0  0  0  0  0  0  0  0  0
   39.5620   78.3160   58.8680 N   0  0  0  0  0  0  0  0  0  0  0  0
   39.1940   78.9580   57.7590 C   0  0  0  0  0  0  0  0  0  0  0  0
   38.2750   78.3130   56.9190 C   0  0  0  0  0  0  0  0  0  0  0  0
   37.7880   77.0510   57.2610 C   0  0  0  0  0  0  0  0  0  0  0  0
   36.9700   76.4430   56.5390 O   0  0  0  0  0  0  0  0  0  0  0  0
   38.2170   76.4710   58.4110 N   0  0  0  0  0  0  0  0  0  0  0  0
   39.1100   77.0900   59.2320 C   0  0  0  0  0  0  0  0  0  0  0  0
   39.5070   76.5650   60.2840 O   0  0  0  0  0  0  0  0  0  0  0  0
   42.9660   82.4030   62.5370 C   0  0  0  0  0  0  0  0  0  0  0  0
   43.2760   81.1910   61.9640 C   0  0  0  0  0  0  0  0  0  0  0  0
   44.5310   80.6450   62.1260 C   0  0  0  0  0  0  0  0  0  0  0  0
   45.5390   81.2690   62.8630 C   0  0  0  0  0  0  0  0  0  0  0  0
   45.2410   82.4890   63.4450 C   0  0  0  0  0  0  0  0  0  0  0  0
   43.9890   83.0220   63.2760 C   0  0  0  0  0  0  0  0  0  0  0  0
   41.4180   83.1400   62.3430 S   0  0  0  0  0  0  0  0  0  0  0  0
   41.4340   84.5270   62.9440 O   0  0  0  0  0  0  0  0  0  0  0  0
   40.4730   82.4430   63.3320 O   0  0  0  0  0  0  0  0  0  0  0  0
   40.7450   83.3800   60.8030 C   0  0  0  0  0  0  0  0  0  0  0  0
   41.6760   84.2720   59.9550 C   0  0  0  0  0  0  0  0  0  0  0  0
   40.7650   85.1430   59.1180 C   0  0  0  0  0  0  0  0  0  0  0  0
   39.3460   84.7790   59.5570 C   0  0  0  0  0  0  0  0  0  0  0  0
   39.5960   84.3950   60.9900 C   0  0  0  0  0  0  0  0  0  0  0  0
   39.5299   78.5939   61.5257 H   0  0  0  0  0  0  0  0  0  0  0  0
   41.7596   79.7019   57.9824 H   0  0  0  0  0  0  0  0  0  0  0  0
   39.5947   79.9525   57.5131 H   0  0  0  0  0  0  0  0  0  0  0  0
   37.9387   78.8010   55.9923 H   0  0  0  0  0  0  0  0  0  0  0  0
   37.8585   75.5404   58.6688 H   0  0  0  0  0  0  0  0  0  0  0  0
   44.7478   79.6753   61.6540 H   0  0  0  0  0  0  0  0  0  0  0  0
   46.5317   80.8090   62.9768 H   0  0  0  0  0  0  0  0  0  0  0  0
   45.9990   83.0242   64.0357 H   0  0  0  0  0  0  0  0  0  0  0  0
   43.7722   83.9921   63.7470 H   0  0  0  0  0  0  0  0  0  0  0  0
   40.5146   82.3946   60.3718 H   0  0  0  0  0  0  0  0  0  0  0  0
   42.3079   84.8938   60.6062 H   0  0  0  0  0  0  0  0  0  0  0  0
   42.3498   83.6709   59.3268 H   0  0  0  0  0  0  0  0  0  0  0  0
   40.9041   84.9299   58.0478 H   0  0  0  0  0  0  0  0  0  0  0  0
   40.9767   86.2132   59.2589 H   0  0  0  0  0  0  0  0  0  0  0  0
   38.6633   85.6380   59.4794 H   0  0  0  0  0  0  0  0  0  0  0  0
   38.8627   83.9994   58.9498 H   0  0  0  0  0  0  0  0  0  0  0  0
   38.7108   83.9290   61.4475 H   0  0  0  0  0  0  0  0  0  0  0  0
   39.8272   85.2362   61.6601 H   0  0  0  0  0  0  0  0  0  0  0  0
  1  6  2  0
  2  1  1  0
  3  2  2  0
  3  4  1  0
  4  5  2  0
  5  6  1  0
  5 16  1  0
  7 13  1  0
  7  2  1  0
  8  7  1  0
  9 10  1  0
  9  8  2  0
 10 12  1  0
 11 10  2  0
 12 13  1  0
 13 14  2  0
 15 20  2  0
 16 17  2  0
 16 15  1  0
 17 18  1  0
 18 19  2  0
 20 19  1  0
 21 15  1  0
 21 22  2  0
 21 23  2  0
 24 28  1  0
 24 21  1  0
 25 24  1  0
 26 27  1  0
 26 25  1  0
 27 28  1  0
  1 29  1  0
  3 30  1  0
  8 31  1  0
  9 32  1  0
 12 33  1  0
 17 34  1  0
 18 35  1  0
 19 36  1  0
 20 37  1  0
 24 38  1  0
 25 39  1  0
 25 40  1  0
 26 41  1  0
 26 42  1  0
 27 43  1  0
 27 44  1  0
 28 45  1  0
 28 46  1  0
M  ISO  8  29  14  30  14  31  14  32  14  33   9  34  14  35  14  36  14
M  ISO  8  37  14  38  13  39  13  40  13  41  13  42  13  43  13  44  13
M  ISO  2  45  13  46  13
M  END
>  <minimizedAffinity>  (1) 
-7.05956888

>  <minimizedRMSD>  (1) 
2.92799759

$$$$
