
     RDKit          3D

 38 41  0  0  0  0  0  0  0  0999 V2000
   42.3840   78.4190   62.0440 C   0  0  0  0  0  0  0  0  0  0  0  0
   40.9920   78.4760   62.0800 C   0  0  0  0  0  0  0  0  0  0  0  0
   40.3940   79.6570   61.8040 C   0  0  0  0  0  0  0  0  0  0  0  0
   41.1810   80.7700   61.4950 C   0  0  0  0  0  0  0  0  0  0  0  0
   42.8920   80.0990   61.6020 S   0  0  0  0  0  0  0  0  0  0  0  0
   43.7110   75.0350   61.6060 C   0  0  0  0  0  0  0  0  0  0  0  0
   44.5580   74.8810   62.7590 C   0  0  0  0  0  0  0  0  0  0  0  0
   44.6530   75.9410   63.6560 C   0  0  0  0  0  0  0  0  0  0  0  0
   43.9440   77.0600   63.3970 N   0  0  0  0  0  0  0  0  0  0  0  0
   43.1620   77.1900   62.3230 C   0  0  0  0  0  0  0  0  0  0  0  0
   43.0480   76.1930   61.4430 N   0  0  0  0  0  0  0  0  0  0  0  0
   40.9360   82.1400   61.1600 C   0  0  0  0  0  0  0  0  0  0  0  0
   39.6470   82.6280   61.2850 C   0  0  0  0  0  0  0  0  0  0  0  0
   39.5260   83.9760   60.9310 C   0  0  0  0  0  0  0  0  0  0  0  0
   40.5600   84.7270   60.5090 N   0  0  0  0  0  0  0  0  0  0  0  0
   41.7960   84.1520   60.4190 C   0  0  0  0  0  0  0  0  0  0  0  0
   41.9780   82.8450   60.7490 N   0  0  0  0  0  0  0  0  0  0  0  0
   42.9900   84.9380   59.9550 C   0  0  0  0  0  0  0  0  0  0  0  0
   44.0430   83.9200   59.5620 C   0  0  0  0  0  0  0  0  0  0  0  0
   45.3220   84.3310   60.2510 C   0  0  0  0  0  0  0  0  0  0  0  0
   44.8380   84.9440   61.5270 C   0  0  0  0  0  0  0  0  0  0  0  0
   43.5510   85.6300   61.1790 C   0  0  0  0  0  0  0  0  0  0  0  0
   40.3961   77.5848   62.3262 H   0  0  0  0  0  0  0  0  0  0  0  0
   39.2974   79.7411   61.8225 H   0  0  0  0  0  0  0  0  0  0  0  0
   43.6081   74.2215   60.8727 H   0  0  0  0  0  0  0  0  0  0  0  0
   45.1167   73.9485   62.9274 H   0  0  0  0  0  0  0  0  0  0  0  0
   45.2882   75.8688   64.5511 H   0  0  0  0  0  0  0  0  0  0  0  0
   38.8004   82.0158   61.6291 H   0  0  0  0  0  0  0  0  0  0  0  0
   38.5342   84.4466   61.0012 H   0  0  0  0  0  0  0  0  0  0  0  0
   42.7342   85.6352   59.1435 H   0  0  0  0  0  0  0  0  0  0  0  0
   43.7406   82.9151   59.8919 H   0  0  0  0  0  0  0  0  0  0  0  0
   44.1743   83.8877   58.4703 H   0  0  0  0  0  0  0  0  0  0  0  0
   45.9615   83.4583   60.4498 H   0  0  0  0  0  0  0  0  0  0  0  0
   45.9371   85.0155   59.6484 H   0  0  0  0  0  0  0  0  0  0  0  0
   44.6662   84.1666   62.2860 H   0  0  0  0  0  0  0  0  0  0  0  0
   45.5736   85.6455   61.9475 H   0  0  0  0  0  0  0  0  0  0  0  0
   43.7375   86.6916   60.9592 H   0  0  0  0  0  0  0  0  0  0  0  0
   42.8410   85.5756   62.0174 H   0  0  0  0  0  0  0  0  0  0  0  0
  1  2  2  0
  1 10  1  0
  3  2  1  0
  4  5  1  0
  4  3  2  0
  5  1  1  0
  6  7  2  0
  7  8  1  0
  9  8  2  0
 10  9  1  0
 11  6  1  0
 11 10  2  0
 12 13  2  0
 12  4  1  0
 14 13  1  0
 15 14  2  0
 16 15  1  0
 16 17  2  0
 17 12  1  0
 18 16  1  0
 18 22  1  0
 19 18  1  0
 19 20  1  0
 20 21  1  0
 22 21  1  0
  2 23  1  0
  3 24  1  0
  6 25  1  0
  7 26  1  0
  8 27  1  0
 13 28  1  0
 14 29  1  0
 18 30  1  0
 19 31  1  0
 19 32  1  0
 20 33  1  0
 20 34  1  0
 21 35  1  0
 21 36  1  0
 22 37  1  0
 22 38  1  0
M  ISO  8  23  14  24  14  25  14  26  14  27  14  28  14  29  14  30  13
M  ISO  8  31  13  32  13  33  13  34  13  35  13  36  13  37  13  38  13
M  END
>  <minimizedAffinity>  (1) 
-5.02946043

>  <minimizedRMSD>  (1) 
3.84839582

$$$$
