
     RDKit          3D

 41 44  0  0  0  0  0  0  0  0999 V2000
   41.8160   84.2370   61.5770 C   0  0  0  0  0  0  0  0  0  0  0  0
   41.4700   83.9550   62.8880 C   0  0  0  0  0  0  0  0  0  0  0  0
   40.2000   83.5340   63.2340 C   0  0  0  0  0  0  0  0  0  0  0  0
   39.2380   83.3870   62.2360 C   0  0  0  0  0  0  0  0  0  0  0  0
   39.5770   83.6690   60.9120 C   0  0  0  0  0  0  0  0  0  0  0  0
   40.8460   84.0860   60.5880 C   0  0  0  0  0  0  0  0  0  0  0  0
   45.3190   84.1390   60.5560 C   0  0  0  0  0  0  0  0  0  0  0  0
   45.7190   85.4680   60.6780 C   0  0  0  0  0  0  0  0  0  0  0  0
   44.7640   86.4180   61.1200 C   0  0  0  0  0  0  0  0  0  0  0  0
   43.5210   85.9670   61.3970 N   0  0  0  0  0  0  0  0  0  0  0  0
   43.1550   84.6730   61.2720 C   0  0  0  0  0  0  0  0  0  0  0  0
   44.0610   83.7790   60.8530 N   0  0  0  0  0  0  0  0  0  0  0  0
   41.1590   84.3690   59.1940 C   0  0  0  0  0  0  0  0  0  0  0  0
   40.8720   85.6980   58.8590 C   0  0  0  0  0  0  0  0  0  0  0  0
   41.1010   86.1700   57.5700 C   0  0  0  0  0  0  0  0  0  0  0  0
   41.6010   85.3000   56.6870 N   0  0  0  0  0  0  0  0  0  0  0  0
   41.8800   84.0090   57.0140 C   0  0  0  0  0  0  0  0  0  0  0  0
   41.6580   83.5460   58.2670 N   0  0  0  0  0  0  0  0  0  0  0  0
   42.4320   83.0610   56.0230 C   0  0  0  0  0  0  0  0  0  0  0  0
   41.4290   81.9450   55.8030 C   0  0  0  0  0  0  0  0  0  0  0  0
   41.8030   81.3020   54.5140 C   0  0  0  0  0  0  0  0  0  0  0  0
   42.3180   82.4440   53.6870 C   0  0  0  0  0  0  0  0  0  0  0  0
   42.5240   83.6290   54.6270 C   0  0  0  0  0  0  0  0  0  0  0  0
   42.2281   84.0694   63.6768 H   0  0  0  0  0  0  0  0  0  0  0  0
   39.9515   83.3177   64.2835 H   0  0  0  0  0  0  0  0  0  0  0  0
   38.2214   83.0519   62.4896 H   0  0  0  0  0  0  0  0  0  0  0  0
   38.8216   83.5565   60.1203 H   0  0  0  0  0  0  0  0  0  0  0  0
   46.0386   83.3805   60.2142 H   0  0  0  0  0  0  0  0  0  0  0  0
   46.7485   85.7721   60.4378 H   0  0  0  0  0  0  0  0  0  0  0  0
   45.0249   87.4806   61.2330 H   0  0  0  0  0  0  0  0  0  0  0  0
   40.4615   86.3756   59.6222 H   0  0  0  0  0  0  0  0  0  0  0  0
   40.8807   87.2109   57.2907 H   0  0  0  0  0  0  0  0  0  0  0  0
   43.4152   82.7767   56.4261 H   0  0  0  0  0  0  0  0  0  0  0  0
   41.4841   81.2149   56.6239 H   0  0  0  0  0  0  0  0  0  0  0  0
   40.3989   82.3300   55.7760 H   0  0  0  0  0  0  0  0  0  0  0  0
   42.5846   80.5430   54.6658 H   0  0  0  0  0  0  0  0  0  0  0  0
   40.9623   80.7751   54.0391 H   0  0  0  0  0  0  0  0  0  0  0  0
   43.2726   82.1670   53.2158 H   0  0  0  0  0  0  0  0  0  0  0  0
   41.6051   82.6994   52.8891 H   0  0  0  0  0  0  0  0  0  0  0  0
   43.5122   84.0830   54.4616 H   0  0  0  0  0  0  0  0  0  0  0  0
   41.7755   84.4172   54.4582 H   0  0  0  0  0  0  0  0  0  0  0  0
  1  2  2  0
  2  3  1  0
  4  3  2  0
  5  4  1  0
  6  5  2  0
  6  1  1  0
  7  8  2  0
  7 12  1  0
  8  9  1  0
  9 10  2  0
 11 10  1  0
 11  1  1  0
 12 11  2  0
 13  6  1  0
 14 13  2  0
 15 14  1  0
 16 17  1  0
 16 15  2  0
 17 18  2  0
 18 13  1  0
 19 17  1  0
 20 19  1  0
 21 20  1  0
 22 21  1  0
 22 23  1  0
 23 19  1  0
  2 24  1  0
  3 25  1  0
  4 26  1  0
  5 27  1  0
  7 28  1  0
  8 29  1  0
  9 30  1  0
 14 31  1  0
 15 32  1  0
 19 33  1  0
 20 34  1  0
 20 35  1  0
 21 36  1  0
 21 37  1  0
 22 38  1  0
 22 39  1  0
 23 40  1  0
 23 41  1  0
M  ISO  8  24  14  25  14  26  14  27  14  28  14  29  14  30  14  31  14
M  ISO  8  32  14  33  13  34  13  35  13  36  13  37  13  38  13  39  13
M  ISO  2  40  13  41  13
M  END
>  <minimizedAffinity>  (1) 
-5.71048546

>  <minimizedRMSD>  (1) 
0.499906629

$$$$
