
     RDKit          3D

 40 43  0  0  1  0  0  0  0  0999 V2000
   45.1760   83.4220   62.5040 C   0  0  0  0  0  0  0  0  0  0  0  0
   45.0610   84.4610   61.6050 C   0  0  0  0  0  0  0  0  0  0  0  0
   43.8830   85.2080   61.5130 C   0  0  0  0  0  0  0  0  0  0  0  0
   42.8340   84.9150   62.3110 N   0  0  0  0  0  0  0  0  0  0  0  0
   42.9770   83.8990   63.1730 C   0  0  0  0  0  0  0  0  0  0  0  0
   44.1040   83.1460   63.2970 N   0  0  0  0  0  0  0  0  0  0  0  0
   47.7590   81.1860   63.8020 C   0  0  0  0  0  0  0  0  0  0  0  0
   48.6820   81.1670   62.7410 C   0  0  0  0  0  0  0  0  0  0  0  0
   48.4210   81.9170   61.5850 C   0  0  0  0  0  0  0  0  0  0  0  0
   47.2610   82.6210   61.5870 N   0  0  0  0  0  0  0  0  0  0  0  0
   46.3920   82.6260   62.6130 C   0  0  0  0  0  0  0  0  0  0  0  0
   46.6340   81.9190   63.7060 N   0  0  0  0  0  0  0  0  0  0  0  0
   48.1580   80.3830   64.8950 N   0  0  0  0  0  0  0  0  0  0  0  0
   41.7710   83.6150   64.0080 C   0  0  1  0  0  0  0  0  0  0  0  0
   40.4470   84.0590   63.6250 C   0  0  0  0  0  0  0  0  0  0  0  0
   40.7770   82.6630   63.3410 C   0  0  1  0  0  0  0  0  0  0  0  0
   41.0550   82.0580   62.0200 C   0  0  0  0  0  0  0  0  0  0  0  0
   40.2510   82.4800   60.8650 C   0  0  0  0  0  0  0  0  0  0  0  0
   40.0920   81.2280   60.0140 C   0  0  0  0  0  0  0  0  0  0  0  0
   40.9260   80.1540   60.6660 C   0  0  0  0  0  0  0  0  0  0  0  0
   41.0400   80.5390   62.1070 C   0  0  0  0  0  0  0  0  0  0  0  0
   45.9098   84.7061   60.9497 H   0  0  0  0  0  0  0  0  0  0  0  0
   43.8107   86.0344   60.7906 H   0  0  0  0  0  0  0  0  0  0  0  0
   49.6017   80.5684   62.8173 H   0  0  0  0  0  0  0  0  0  0  0  0
   49.1133   81.9335   60.7303 H   0  0  0  0  0  0  0  0  0  0  0  0
   47.5608   80.3184   65.7317 H   0  0  0  0  0  0  0  0  0  0  0  0
   49.0459   79.8626   64.8546 H   0  0  0  0  0  0  0  0  0  0  0  0
   42.3356   83.7088   64.9474 H   0  0  0  0  0  0  0  0  0  0  0  0
   39.7081   84.2914   64.4060 H   0  0  0  0  0  0  0  0  0  0  0  0
   40.0763   84.8902   63.0073 H   0  0  0  0  0  0  0  0  0  0  0  0
   40.2762   81.7075   63.5559 H   0  0  0  0  0  0  0  0  0  0  0  0
   42.0538   82.4630   61.8001 H   0  0  0  0  0  0  0  0  0  0  0  0
   39.2689   82.8513   61.1930 H   0  0  0  0  0  0  0  0  0  0  0  0
   40.7285   83.2993   60.3076 H   0  0  0  0  0  0  0  0  0  0  0  0
   40.4491   81.4169   58.9909 H   0  0  0  0  0  0  0  0  0  0  0  0
   39.0366   80.9250   59.9481 H   0  0  0  0  0  0  0  0  0  0  0  0
   40.4326   79.1756   60.5696 H   0  0  0  0  0  0  0  0  0  0  0  0
   41.9150   80.0684   60.1922 H   0  0  0  0  0  0  0  0  0  0  0  0
   41.9689   80.1537   62.5527 H   0  0  0  0  0  0  0  0  0  0  0  0
   40.2372   80.1359   62.7418 H   0  0  0  0  0  0  0  0  0  0  0  0
  1 11  1  0
  1  6  1  0
  2  1  2  0
  3  2  1  0
  3  4  2  0
  4  5  1  0
  5  6  2  0
  5 14  1  0
  7 13  1  0
  8  7  2  0
  9 10  2  0
  9  8  1  0
 10 11  1  0
 11 12  2  0
 12  7  1  0
 15 14  1  0
 16 15  1  0
 16 14  1  0
 17 21  1  0
 17 16  1  0
 18 17  1  0
 19 20  1  0
 19 18  1  0
 20 21  1  0
  2 22  1  0
  3 23  1  0
  8 24  1  0
  9 25  1  0
 13 26  1  0
 13 27  1  0
 14 28  1  1
 15 29  1  0
 15 30  1  0
 16 31  1  1
 17 32  1  0
 18 33  1  0
 18 34  1  0
 19 35  1  0
 19 36  1  0
 20 37  1  0
 20 38  1  0
 21 39  1  0
 21 40  1  0
M  ISO  8  22  14  23  14  24  14  25  14  28  13  29  13  30  13  31  13
M  ISO  8  32  13  33  13  34  13  35  13  36  13  37  13  38  13  39  13
M  ISO  1  40  13
M  END
>  <minimizedAffinity>  (1) 
-5.5224762

>  <minimizedRMSD>  (1) 
5.27569628

$$$$
