
     RDKit          3D

 40 44  0  0  1  0  0  0  0  0999 V2000
   39.7940   77.4250   59.1690 C   0  0  0  0  0  0  0  0  0  0  0  0
   40.4970   76.2950   58.8810 C   0  0  0  0  0  0  0  0  0  0  0  0
   39.9570   75.5940   57.7990 C   0  0  0  0  0  0  0  0  0  0  0  0
   38.8660   75.9840   57.1110 N   0  0  0  0  0  0  0  0  0  0  0  0
   38.2350   77.1360   57.4840 C   0  0  0  0  0  0  0  0  0  0  0  0
   38.7000   77.8670   58.5210 N   0  0  0  0  0  0  0  0  0  0  0  0
   40.9780   80.3570   61.7520 C   0  0  0  0  0  0  0  0  0  0  0  0
   40.9660   79.1150   62.3420 C   0  0  0  0  0  0  0  0  0  0  0  0
   40.5900   78.0620   61.5900 C   0  0  0  0  0  0  0  0  0  0  0  0
   40.2370   78.2610   60.2680 C   0  0  0  0  0  0  0  0  0  0  0  0
   40.4390   80.0770   60.0370 S   0  0  0  0  0  0  0  0  0  0  0  0
   43.0500   83.1520   62.9150 C   0  0  0  0  0  0  0  0  0  0  0  0
   42.1490   83.9030   63.7130 C   0  0  0  0  0  0  0  0  0  0  0  0
   40.8290   83.4500   63.8450 C   0  0  0  0  0  0  0  0  0  0  0  0
   40.4720   82.3120   63.2030 N   0  0  0  0  0  0  0  0  0  0  0  0
   41.3640   81.6140   62.4420 C   0  0  0  0  0  0  0  0  0  0  0  0
   42.6220   82.0410   62.3120 N   0  0  0  0  0  0  0  0  0  0  0  0
   37.0660   77.5400   56.7250 C   0  0  0  0  0  0  0  0  0  0  0  0
   35.9670   77.0980   57.0960 O   0  0  0  0  0  0  0  0  0  0  0  0
   37.1590   78.4470   55.5260 C   0  0  1  0  0  0  0  0  0  0  0  0
   37.2930   79.9040   55.9070 C   0  0  0  0  0  0  0  0  0  0  0  0
   38.3800   79.1740   55.2520 C   0  0  2  0  0  0  0  0  0  0  0  0
   38.6650   79.5980   53.8320 C   0  0  0  0  0  0  0  0  0  0  0  0
   39.9360   79.5020   53.3100 C   0  0  0  0  0  0  0  0  0  0  0  0
   39.7680   80.1130   51.6240 S   0  0  0  0  0  0  0  0  0  0  0  0
   37.9220   80.4220   51.8860 C   0  0  0  0  0  0  0  0  0  0  0  0
   37.8250   80.0800   52.9480 N   0  0  0  0  0  0  0  0  0  0  0  0
   41.3890   75.9705   59.4370 H   0  0  0  0  0  0  0  0  0  0  0  0
   40.4550   74.6635   57.4890 H   0  0  0  0  0  0  0  0  0  0  0  0
   41.2545   78.9850   63.3955 H   0  0  0  0  0  0  0  0  0  0  0  0
   40.5641   77.0518   62.0245 H   0  0  0  0  0  0  0  0  0  0  0  0
   44.0922   83.4825   62.7943 H   0  0  0  0  0  0  0  0  0  0  0  0
   42.4796   84.8225   64.2181 H   0  0  0  0  0  0  0  0  0  0  0  0
   40.1010   84.0050   64.4549 H   0  0  0  0  0  0  0  0  0  0  0  0
   36.5194   77.8123   54.8951 H   0  0  0  0  0  0  0  0  0  0  0  0
   36.7325   80.6750   55.3581 H   0  0  0  0  0  0  0  0  0  0  0  0
   37.1818   80.4908   56.8307 H   0  0  0  0  0  0  0  0  0  0  0  0
   39.4352   78.9646   55.4818 H   0  0  0  0  0  0  0  0  0  0  0  0
   40.8456   79.1359   53.8087 H   0  0  0  0  0  0  0  0  0  0  0  0
   37.1638   80.8214   51.1964 H   0  0  0  0  0  0  0  0  0  0  0  0
  1 10  1  0
  2  1  2  0
  3  2  1  0
  4  5  1  0
  4  3  2  0
  5  6  2  0
  6  1  1  0
  7  8  2  0
  7 16  1  0
  9  8  1  0
 10  9  2  0
 11 10  1  0
 11  7  1  0
 12 13  2  0
 13 14  1  0
 15 14  2  0
 16 15  1  0
 17 16  2  0
 17 12  1  0
 18 19  2  0
 18  5  1  0
 20 21  1  0
 20 18  1  0
 22 20  1  0
 22 21  1  0
 23 22  1  0
 24 23  2  0
 25 26  1  0
 25 24  1  0
 26 27  2  0
 27 23  1  0
  2 28  1  0
  3 29  1  0
  8 30  1  0
  9 31  1  0
 12 32  1  0
 13 33  1  0
 14 34  1  0
 20 35  1  6
 21 36  1  0
 21 37  1  0
 22 38  1  1
 24 39  1  0
 26 40  1  0
M  ISO  8  28  14  29  14  30  14  31  14  32  14  33  14  34  14  35  13
M  ISO  5  36  13  37  13  38  13  39  14  40  14
M  END
>  <minimizedAffinity>  (1) 
-6.4107666

>  <minimizedRMSD>  (1) 
0.178398624

$$$$
