
     RDKit          3D

 33 36  0  0  0  0  0  0  0  0999 V2000
   39.7010   77.2050   59.1720 C   0  0  0  0  0  0  0  0  0  0  0  0
   40.3880   76.0500   58.8930 C   0  0  0  0  0  0  0  0  0  0  0  0
   39.8280   75.3250   57.8250 C   0  0  0  0  0  0  0  0  0  0  0  0
   38.7340   75.7140   57.1410 N   0  0  0  0  0  0  0  0  0  0  0  0
   38.1180   76.8750   57.4890 C   0  0  0  0  0  0  0  0  0  0  0  0
   38.6130   77.6230   58.5170 N   0  0  0  0  0  0  0  0  0  0  0  0
   40.9710   80.1620   61.6690 C   0  0  0  0  0  0  0  0  0  0  0  0
   40.9170   78.9340   62.3040 C   0  0  0  0  0  0  0  0  0  0  0  0
   40.5060   77.8750   61.5660 C   0  0  0  0  0  0  0  0  0  0  0  0
   40.1590   78.0450   60.2350 C   0  0  0  0  0  0  0  0  0  0  0  0
   40.4250   79.8520   59.9610 S   0  0  0  0  0  0  0  0  0  0  0  0
   43.0600   82.9720   62.7510 C   0  0  0  0  0  0  0  0  0  0  0  0
   42.1810   83.7510   63.5380 C   0  0  0  0  0  0  0  0  0  0  0  0
   40.8680   83.3000   63.6890 C   0  0  0  0  0  0  0  0  0  0  0  0
   40.5140   82.1460   63.0760 N   0  0  0  0  0  0  0  0  0  0  0  0
   41.3950   81.4240   62.3250 C   0  0  0  0  0  0  0  0  0  0  0  0
   42.6230   81.8390   62.1790 N   0  0  0  0  0  0  0  0  0  0  0  0
   36.9450   77.2930   56.7400 C   0  0  0  0  0  0  0  0  0  0  0  0
   35.8380   76.9830   57.2320 O   0  0  0  0  0  0  0  0  0  0  0  0
   37.0640   78.0430   55.4680 C   0  0  0  0  0  0  0  0  0  0  0  0
   36.7890   77.3350   54.1870 C   0  0  0  0  0  0  0  0  0  0  0  0
   37.0970   78.7740   52.9970 S   0  0  0  0  0  0  0  0  0  0  0  0
   37.5010   79.9510   54.3480 C   0  0  0  0  0  0  0  0  0  0  0  0
   37.4070   79.3130   55.5140 N   0  0  0  0  0  0  0  0  0  0  0  0
   41.2819   75.7254   59.4459 H   0  0  0  0  0  0  0  0  0  0  0  0
   40.3130   74.3827   57.5303 H   0  0  0  0  0  0  0  0  0  0  0  0
   41.1957   78.8224   63.3622 H   0  0  0  0  0  0  0  0  0  0  0  0
   40.4475   76.8769   62.0246 H   0  0  0  0  0  0  0  0  0  0  0  0
   44.1019   83.2943   62.6074 H   0  0  0  0  0  0  0  0  0  0  0  0
   42.5203   84.6819   64.0158 H   0  0  0  0  0  0  0  0  0  0  0  0
   40.1413   83.8668   64.2895 H   0  0  0  0  0  0  0  0  0  0  0  0
   36.4960   76.2928   53.9919 H   0  0  0  0  0  0  0  0  0  0  0  0
   37.7753   81.0081   54.2162 H   0  0  0  0  0  0  0  0  0  0  0  0
  1 10  1  0
  2  1  2  0
  3  2  1  0
  4  5  1  0
  4  3  2  0
  5  6  2  0
  6  1  1  0
  7  8  2  0
  7 16  1  0
  9  8  1  0
 10  9  2  0
 11 10  1  0
 11  7  1  0
 12 13  2  0
 13 14  1  0
 15 14  2  0
 16 15  1  0
 17 16  2  0
 17 12  1  0
 18 19  2  0
 18  5  1  0
 20 24  1  0
 20 18  1  0
 21 20  2  0
 22 21  1  0
 22 23  1  0
 23 24  2  0
  2 25  1  0
  3 26  1  0
  8 27  1  0
  9 28  1  0
 12 29  1  0
 13 30  1  0
 14 31  1  0
 21 32  1  0
 23 33  1  0
M  ISO  8  25  14  26  14  27  14  28  14  29  14  30  14  31  14  32  14
M  ISO  1  33  14
M  END
>  <minimizedAffinity>  (1) 
-6.24684429

>  <minimizedRMSD>  (1) 
0.454387575

$$$$
