
     RDKit          3D

 37 40  0  0  0  0  0  0  0  0999 V2000
   41.2630   83.6280   58.2710 Cl  0  0  0  0  0  0  0  0  0  0  0  0
   40.8310   81.9270   58.3800 C   0  0  0  0  0  0  0  0  0  0  0  0
   40.6930   81.2690   59.5890 C   0  0  0  0  0  0  0  0  0  0  0  0
   40.3490   79.9320   59.5040 C   0  0  0  0  0  0  0  0  0  0  0  0
   40.1410   79.2210   58.3500 C   0  0  0  0  0  0  0  0  0  0  0  0
   40.2880   79.9080   57.1840 C   0  0  0  0  0  0  0  0  0  0  0  0
   40.0500   79.1200   55.6230 Cl  0  0  0  0  0  0  0  0  0  0  0  0
   40.6310   81.2470   57.1950 C   0  0  0  0  0  0  0  0  0  0  0  0
   42.1320   82.2720   61.4300 C   0  0  0  0  0  0  0  0  0  0  0  0
   40.9050   81.9880   60.8010 C   0  0  0  0  0  0  0  0  0  0  0  0
   39.7480   82.4560   61.4210 C   0  0  0  0  0  0  0  0  0  0  0  0
   39.8680   83.1510   62.5830 N   0  0  0  0  0  0  0  0  0  0  0  0
   41.0600   83.4040   63.1530 C   0  0  0  0  0  0  0  0  0  0  0  0
   42.1940   82.9630   62.5730 N   0  0  0  0  0  0  0  0  0  0  0  0
   41.0110   84.1740   64.4170 C   0  0  0  0  0  0  0  0  0  0  0  0
   40.6970   85.4970   64.2130 F   0  0  0  0  0  0  0  0  0  0  0  0
   40.0770   83.6310   65.2790 F   0  0  0  0  0  0  0  0  0  0  0  0
   42.2600   84.2020   65.0390 F   0  0  0  0  0  0  0  0  0  0  0  0
   40.7710   81.9150   55.9730 O   0  0  0  0  0  0  0  0  0  0  0  0
   43.0540   81.3470   55.4000 C   0  0  0  0  0  0  0  0  0  0  0  0
   41.9740   82.2370   55.4110 C   0  0  0  0  0  0  0  0  0  0  0  0
   42.0740   83.4970   54.8490 C   0  0  0  0  0  0  0  0  0  0  0  0
   43.2590   83.8880   54.2650 C   0  0  0  0  0  0  0  0  0  0  0  0
   43.6580   85.0350   53.6430 N   0  0  0  0  0  0  0  0  0  0  0  0
   44.9490   84.8850   53.2480 C   0  0  0  0  0  0  0  0  0  0  0  0
   45.3500   83.6470   53.6230 N   0  0  0  0  0  0  0  0  0  0  0  0
   44.3350   83.0320   54.2400 C   0  0  0  0  0  0  0  0  0  0  0  0
   44.2400   81.7610   54.8060 C   0  0  0  0  0  0  0  0  0  0  0  0
   40.2310   79.3872   60.4523 H   0  0  0  0  0  0  0  0  0  0  0  0
   39.8704   78.1549   58.3656 H   0  0  0  0  0  0  0  0  0  0  0  0
   43.0649   81.9158   60.9687 H   0  0  0  0  0  0  0  0  0  0  0  0
   38.7585   82.2670   60.9793 H   0  0  0  0  0  0  0  0  0  0  0  0
   42.9664   80.3468   55.8494 H   0  0  0  0  0  0  0  0  0  0  0  0
   41.2135   84.1819   54.8682 H   0  0  0  0  0  0  0  0  0  0  0  0
   43.0779   85.8736   53.4975 H   0  0  0  0  0  0  0  0  0  0  0  0
   45.5581   85.6332   52.7195 H   0  0  0  0  0  0  0  0  0  0  0  0
   45.1067   81.0840   54.7821 H   0  0  0  0  0  0  0  0  0  0  0  0
  1  2  1  0
  2  3  2  0
  3 10  1  0
  4  3  1  0
  5  4  2  0
  6  8  2  0
  6  5  1  0
  7  6  1  0
  8  2  1  0
  9 14  2  0
 10 11  2  0
 10  9  1  0
 11 12  1  0
 12 13  2  0
 13 15  1  0
 14 13  1  0
 15 18  1  0
 15 17  1  0
 16 15  1  0
 19  8  1  0
 20 21  2  0
 21 19  1  0
 22 21  1  0
 23 22  2  0
 24 23  1  0
 25 26  2  0
 25 24  1  0
 26 27  1  0
 27 23  1  0
 27 28  2  0
 28 20  1  0
  4 29  1  0
  5 30  1  0
  9 31  1  0
 11 32  1  0
 20 33  1  0
 22 34  1  0
 24 35  1  0
 25 36  1  0
 28 37  1  0
M  ISO  8  29  14  30  14  31  14  32  14  33  14  34  14  35   9  36  14
M  ISO  1  37  14
M  END
>  <minimizedAffinity>  (1) 
-5.70025921

>  <minimizedRMSD>  (1) 
1.41309667

$$$$
