
     RDKit          3D

 45 48  0  0  0  0  0  0  0  0999 V2000
   42.6360   82.5730   62.0150 C   0  0  0  0  0  0  0  0  0  0  0  0
   42.9510   81.3930   61.3680 C   0  0  0  0  0  0  0  0  0  0  0  0
   44.1180   80.7160   61.6620 C   0  0  0  0  0  0  0  0  0  0  0  0
   45.0340   81.1720   62.6130 C   0  0  0  0  0  0  0  0  0  0  0  0
   44.7380   82.3480   63.2690 C   0  0  0  0  0  0  0  0  0  0  0  0
   43.5740   83.0170   62.9710 C   0  0  0  0  0  0  0  0  0  0  0  0
   40.2760   79.4300   59.7430 C   0  0  0  0  0  0  0  0  0  0  0  0
   40.4120   79.7870   58.4180 C   0  0  0  0  0  0  0  0  0  0  0  0
   41.4270   80.6990   58.1100 C   0  0  0  0  0  0  0  0  0  0  0  0
   42.2120   81.1770   59.1160 N   0  0  0  0  0  0  0  0  0  0  0  0
   42.0570   80.8140   60.3770 C   0  0  0  0  0  0  0  0  0  0  0  0
   41.0830   79.9360   60.6840 N   0  0  0  0  0  0  0  0  0  0  0  0
   39.5620   79.2560   57.4150 N   0  0  0  0  0  0  0  0  0  0  0  0
   38.6830   80.1370   56.9410 C   0  0  0  0  0  0  0  0  0  0  0  0
   37.7960   79.7130   55.9460 C   0  0  0  0  0  0  0  0  0  0  0  0
   37.8570   78.4100   55.4880 C   0  0  0  0  0  0  0  0  0  0  0  0
   37.1150   77.9160   54.6010 O   0  0  0  0  0  0  0  0  0  0  0  0
   38.7870   77.5670   56.0250 N   0  0  0  0  0  0  0  0  0  0  0  0
   39.6500   77.9800   56.9940 C   0  0  0  0  0  0  0  0  0  0  0  0
   40.5030   77.2180   57.4890 O   0  0  0  0  0  0  0  0  0  0  0  0
   41.1940   83.4610   61.6630 S   0  0  0  0  0  0  0  0  0  0  0  0
   40.8760   84.4050   62.7900 O   0  0  0  0  0  0  0  0  0  0  0  0
   40.0430   82.4690   61.7100 O   0  0  0  0  0  0  0  0  0  0  0  0
   39.9580   84.9660   59.9670 C   0  0  0  0  0  0  0  0  0  0  0  0
   41.2150   84.3900   60.2180 C   0  0  0  0  0  0  0  0  0  0  0  0
   42.2050   84.6450   59.2610 C   0  0  0  0  0  0  0  0  0  0  0  0
   41.9630   85.4120   58.1430 C   0  0  0  0  0  0  0  0  0  0  0  0
   40.7190   85.9630   57.9250 C   0  0  0  0  0  0  0  0  0  0  0  0
   39.7140   85.7420   58.8350 C   0  0  0  0  0  0  0  0  0  0  0  0
   38.8120   84.8560   60.7760 O   0  0  0  0  0  0  0  0  0  0  0  0
   38.5110   86.3330   58.5320 O   0  0  0  0  0  0  0  0  0  0  0  0
   44.3350   79.7803   61.1260 H   0  0  0  0  0  0  0  0  0  0  0  0
   45.9567   80.6139   62.8303 H   0  0  0  0  0  0  0  0  0  0  0  0
   45.4284   82.7486   64.0259 H   0  0  0  0  0  0  0  0  0  0  0  0
   43.3619   83.9526   63.5092 H   0  0  0  0  0  0  0  0  0  0  0  0
   39.4902   78.7166   60.0321 H   0  0  0  0  0  0  0  0  0  0  0  0
   41.5889   81.0252   57.0720 H   0  0  0  0  0  0  0  0  0  0  0  0
   38.6553   81.1688   57.3212 H   0  0  0  0  0  0  0  0  0  0  0  0
   37.0548   80.4117   55.5307 H   0  0  0  0  0  0  0  0  0  0  0  0
   38.8371   76.5947   55.6889 H   0  0  0  0  0  0  0  0  0  0  0  0
   43.2085   84.2189   59.4069 H   0  0  0  0  0  0  0  0  0  0  0  0
   42.7707   85.5864   57.4170 H   0  0  0  0  0  0  0  0  0  0  0  0
   40.5323   86.5746   57.0300 H   0  0  0  0  0  0  0  0  0  0  0  0
   37.9710   85.3035   60.5065 H   0  0  0  0  0  0  0  0  0  0  0  0
   37.7372   86.2202   59.1392 H   0  0  0  0  0  0  0  0  0  0  0  0
  1  6  2  0
  2  3  2  0
  2  1  1  0
  3  4  1  0
  4  5  2  0
  6  5  1  0
  7 12  2  0
  8  7  1  0
  9  8  2  0
  9 10  1  0
 10 11  2  0
 11 12  1  0
 11  2  1  0
 13  8  1  0
 14 13  1  0
 15 14  2  0
 16 15  1  0
 16 18  1  0
 17 16  2  0
 18 19  1  0
 19 13  1  0
 19 20  2  0
 21 23  2  0
 21  1  1  0
 21 22  2  0
 24 25  2  0
 24 30  1  0
 25 21  1  0
 26 25  1  0
 27 26  2  0
 28 27  1  0
 28 29  2  0
 29 24  1  0
 31 29  1  0
  3 32  1  0
  4 33  1  0
  5 34  1  0
  6 35  1  0
  7 36  1  0
  9 37  1  0
 14 38  1  0
 15 39  1  0
 18 40  1  0
 26 41  1  0
 27 42  1  0
 28 43  1  0
 30 44  1  0
 31 45  1  0
M  END
>  <minimizedAffinity>  (1) 
-7.23302746

>  <minimizedRMSD>  (1) 
1.91031194

$$$$
