
     RDKit          3D

 22 23  0  0  0  0  0  0  0  0999 V2000
   40.7670   79.9100   61.6830 C   0  0  0  0  0  0  0  0  0  0  0  0
   40.3040   80.5590   60.5530 C   0  0  0  0  0  0  0  0  0  0  0  0
   40.3090   79.8190   59.4110 C   0  0  0  0  0  0  0  0  0  0  0  0
   40.7440   78.5070   59.3720 C   0  0  0  0  0  0  0  0  0  0  0  0
   41.2010   77.8930   60.5290 C   0  0  0  0  0  0  0  0  0  0  0  0
   41.2170   78.6050   61.7210 C   0  0  0  0  0  0  0  0  0  0  0  0
   39.8640   81.9440   60.6850 C   0  0  0  0  0  0  0  0  0  0  0  0
   40.0700   82.8520   59.6390 C   0  0  0  0  0  0  0  0  0  0  0  0
   39.6610   84.1790   59.7390 C   0  0  0  0  0  0  0  0  0  0  0  0
   39.0550   84.5310   60.8990 N   0  0  0  0  0  0  0  0  0  0  0  0
   38.8610   83.6540   61.8980 C   0  0  0  0  0  0  0  0  0  0  0  0
   39.2580   82.3820   61.7920 N   0  0  0  0  0  0  0  0  0  0  0  0
   40.8040   80.5810   62.9050 O   0  0  0  0  0  0  0  0  0  0  0  0
   41.6710   77.9940   62.8700 O   0  0  0  0  0  0  0  0  0  0  0  0
   39.9521   80.2839   58.4801 H   0  0  0  0  0  0  0  0  0  0  0  0
   40.7277   77.9501   58.4235 H   0  0  0  0  0  0  0  0  0  0  0  0
   41.5482   76.8496   60.5023 H   0  0  0  0  0  0  0  0  0  0  0  0
   40.5656   82.5094   58.7186 H   0  0  0  0  0  0  0  0  0  0  0  0
   39.8205   84.9000   58.9237 H   0  0  0  0  0  0  0  0  0  0  0  0
   38.3658   83.9892   62.8213 H   0  0  0  0  0  0  0  0  0  0  0  0
   40.4984   81.5209   62.9631 H   0  0  0  0  0  0  0  0  0  0  0  0
   41.9828   77.0548   62.8412 H   0  0  0  0  0  0  0  0  0  0  0  0
  1  6  2  0
  1 13  1  0
  2  7  1  0
  2  1  1  0
  3  2  2  0
  4  3  1  0
  4  5  2  0
  5  6  1  0
  6 14  1  0
  7 12  2  0
  8  9  2  0
  8  7  1  0
  9 10  1  0
 10 11  2  0
 12 11  1  0
  3 15  1  0
  4 16  1  0
  5 17  1  0
  8 18  1  0
  9 19  1  0
 11 20  1  0
 13 21  1  0
 14 22  1  0
M  ISO  8  15  14  16  14  17  14  18  14  19  14  20  14  21   3  22   3
M  END
>  <minimizedAffinity>  (1) 
-5.08588648

>  <minimizedRMSD>  (1) 
0.845615327

$$$$
