
     RDKit          3D

 22 23  0  0  0  0  0  0  0  0999 V2000
   40.3130   81.7260   57.4010 C   0  0  0  0  0  0  0  0  0  0  0  0
   40.6710   82.7060   58.3060 C   0  0  0  0  0  0  0  0  0  0  0  0
   41.7250   83.5190   57.9050 C   0  0  0  0  0  0  0  0  0  0  0  0
   42.3490   83.3420   56.6900 C   0  0  0  0  0  0  0  0  0  0  0  0
   41.9590   82.3480   55.8140 C   0  0  0  0  0  0  0  0  0  0  0  0
   40.9240   81.5300   56.1790 C   0  0  0  0  0  0  0  0  0  0  0  0
   40.1200   82.0260   60.6150 C   0  0  0  0  0  0  0  0  0  0  0  0
   40.0910   82.9680   59.5790 C   0  0  0  0  0  0  0  0  0  0  0  0
   39.4670   84.2030   59.8190 C   0  0  0  0  0  0  0  0  0  0  0  0
   38.9290   84.4040   61.0500 N   0  0  0  0  0  0  0  0  0  0  0  0
   38.9710   83.4830   62.0290 C   0  0  0  0  0  0  0  0  0  0  0  0
   39.5660   82.2870   61.8200 N   0  0  0  0  0  0  0  0  0  0  0  0
   39.2530   80.8990   57.7930 O   0  0  0  0  0  0  0  0  0  0  0  0
   40.5200   80.5290   55.3140 O   0  0  0  0  0  0  0  0  0  0  0  0
   42.0685   84.3222   58.5735 H   0  0  0  0  0  0  0  0  0  0  0  0
   43.1782   84.0086   56.4105 H   0  0  0  0  0  0  0  0  0  0  0  0
   42.4673   82.2170   54.8473 H   0  0  0  0  0  0  0  0  0  0  0  0
   40.6039   81.0530   60.4444 H   0  0  0  0  0  0  0  0  0  0  0  0
   39.4159   84.9779   59.0400 H   0  0  0  0  0  0  0  0  0  0  0  0
   38.5181   83.7042   63.0067 H   0  0  0  0  0  0  0  0  0  0  0  0
   38.9426   80.1746   57.1938 H   0  0  0  0  0  0  0  0  0  0  0  0
   39.7728   79.9299   55.5647 H   0  0  0  0  0  0  0  0  0  0  0  0
  1 13  1  0
  1  2  2  0
  2  8  1  0
  3  2  1  0
  4  3  2  0
  5  6  2  0
  5  4  1  0
  6  1  1  0
  7 12  2  0
  8  9  2  0
  8  7  1  0
  9 10  1  0
 10 11  2  0
 12 11  1  0
 14  6  1  0
  3 15  1  0
  4 16  1  0
  5 17  1  0
  7 18  1  0
  9 19  1  0
 11 20  1  0
 13 21  1  0
 14 22  1  0
M  ISO  8  15  14  16  14  17  14  18  14  19  14  20  14  21   3  22   3
M  END
>  <minimizedAffinity>  (1) 
-4.89692116

>  <minimizedRMSD>  (1) 
0.792007506

$$$$
