
     RDKit          3D

 48 52  0  0  0  0  0  0  0  0999 V2000
   43.2900   81.9150   62.3210 C   0  0  0  0  0  0  0  0  0  0  0  0
   43.4360   80.6160   61.8560 C   0  0  0  0  0  0  0  0  0  0  0  0
   44.5870   79.8970   62.1030 C   0  0  0  0  0  0  0  0  0  0  0  0
   45.6610   80.4190   62.8230 C   0  0  0  0  0  0  0  0  0  0  0  0
   45.5430   81.7010   63.2950 C   0  0  0  0  0  0  0  0  0  0  0  0
   44.3870   82.4210   63.0470 C   0  0  0  0  0  0  0  0  0  0  0  0
   40.3650   78.7610   60.9770 C   0  0  0  0  0  0  0  0  0  0  0  0
   40.3980   78.7660   59.5980 C   0  0  0  0  0  0  0  0  0  0  0  0
   41.4850   79.4100   58.9990 C   0  0  0  0  0  0  0  0  0  0  0  0
   42.4360   79.9900   59.7910 N   0  0  0  0  0  0  0  0  0  0  0  0
   42.3670   79.9630   61.1100 C   0  0  0  0  0  0  0  0  0  0  0  0
   41.3290   79.3480   61.6900 N   0  0  0  0  0  0  0  0  0  0  0  0
   39.3820   78.1490   58.8240 N   0  0  0  0  0  0  0  0  0  0  0  0
   39.0700   78.8370   57.7150 C   0  0  0  0  0  0  0  0  0  0  0  0
   38.0730   78.3040   56.8890 C   0  0  0  0  0  0  0  0  0  0  0  0
   37.4540   77.1130   57.2250 C   0  0  0  0  0  0  0  0  0  0  0  0
   36.5550   76.5760   56.5330 O   0  0  0  0  0  0  0  0  0  0  0  0
   37.8350   76.4820   58.3690 N   0  0  0  0  0  0  0  0  0  0  0  0
   38.8010   76.9900   59.1800 C   0  0  0  0  0  0  0  0  0  0  0  0
   39.1550   76.4170   60.2310 O   0  0  0  0  0  0  0  0  0  0  0  0
   41.8690   82.8470   62.0220 S   0  0  0  0  0  0  0  0  0  0  0  0
   41.8180   84.0250   62.9710 O   0  0  0  0  0  0  0  0  0  0  0  0
   40.6820   81.9850   62.4700 O   0  0  0  0  0  0  0  0  0  0  0  0
   41.6310   83.4800   60.4450 C   0  0  0  0  0  0  0  0  0  0  0  0
   40.6070   84.1380   59.7610 C   0  0  0  0  0  0  0  0  0  0  0  0
   40.6890   84.5470   58.4540 C   0  0  0  0  0  0  0  0  0  0  0  0
   41.8340   84.3150   57.7280 C   0  0  0  0  0  0  0  0  0  0  0  0
   41.7960   84.7590   56.4680 N   0  0  0  0  0  0  0  0  0  0  0  0
   42.8800   84.5740   55.6800 C   0  0  0  0  0  0  0  0  0  0  0  0
   43.9700   83.9360   56.2270 C   0  0  0  0  0  0  0  0  0  0  0  0
   43.9840   83.4890   57.5320 C   0  0  0  0  0  0  0  0  0  0  0  0
   42.8850   83.6700   58.3440 C   0  0  0  0  0  0  0  0  0  0  0  0
   42.7800   83.2610   59.6810 C   0  0  0  0  0  0  0  0  0  0  0  0
   44.6606   78.8699   61.7162 H   0  0  0  0  0  0  0  0  0  0  0  0
   46.5686   79.8248   63.0054 H   0  0  0  0  0  0  0  0  0  0  0  0
   46.3641   82.1557   63.8687 H   0  0  0  0  0  0  0  0  0  0  0  0
   44.3208   83.4467   63.4389 H   0  0  0  0  0  0  0  0  0  0  0  0
   39.5317   78.2658   61.4971 H   0  0  0  0  0  0  0  0  0  0  0  0
   41.5737   79.4494   57.9033 H   0  0  0  0  0  0  0  0  0  0  0  0
   39.5766   79.7809   57.4651 H   0  0  0  0  0  0  0  0  0  0  0  0
   37.7809   78.8337   55.9702 H   0  0  0  0  0  0  0  0  0  0  0  0
   37.3791   75.5953   58.6276 H   0  0  0  0  0  0  0  0  0  0  0  0
   39.6733   84.3418   60.3057 H   0  0  0  0  0  0  0  0  0  0  0  0
   39.8371   85.0616   57.9856 H   0  0  0  0  0  0  0  0  0  0  0  0
   42.8899   84.9220   54.6365 H   0  0  0  0  0  0  0  0  0  0  0  0
   44.8610   83.7770   55.6018 H   0  0  0  0  0  0  0  0  0  0  0  0
   44.8782   82.9848   57.9272 H   0  0  0  0  0  0  0  0  0  0  0  0
   43.6348   82.7482   60.1461 H   0  0  0  0  0  0  0  0  0  0  0  0
  1  6  2  0
  2  3  2  0
  2  1  1  0
  3  4  1  0
  4  5  2  0
  6  5  1  0
  7 12  2  0
  8  7  1  0
  9  8  2  0
  9 10  1  0
 10 11  2  0
 11 12  1  0
 11  2  1  0
 13 19  1  0
 13  8  1  0
 14 13  1  0
 15 16  1  0
 15 14  2  0
 16 18  1  0
 17 16  2  0
 18 19  1  0
 19 20  2  0
 21  1  1  0
 21 23  2  0
 21 22  2  0
 24 21  1  0
 25 24  2  0
 26 25  1  0
 27 32  1  0
 27 26  2  0
 28 27  1  0
 29 30  1  0
 29 28  2  0
 30 31  2  0
 31 32  1  0
 32 33  2  0
 33 24  1  0
  3 34  1  0
  4 35  1  0
  5 36  1  0
  6 37  1  0
  7 38  1  0
  9 39  1  0
 14 40  1  0
 15 41  1  0
 18 42  1  0
 25 43  1  0
 26 44  1  0
 29 45  1  0
 30 46  1  0
 31 47  1  0
 33 48  1  0
M  ISO  8  34  14  35  14  36  14  37  14  38  14  39  14  40  14  41  14
M  ISO  7  42   9  43  14  44  14  45  14  46  14  47  14  48  14
M  END
>  <minimizedAffinity>  (1) 
-6.85299158

>  <minimizedRMSD>  (1) 
3.18857837

$$$$
