
     RDKit          3D

 35 38  0  0  0  0  0  0  0  0999 V2000
   42.5970   84.7550   61.1810 C   0  0  0  0  0  0  0  0  0  0  0  0
   43.7670   84.8550   61.9220 C   0  0  0  0  0  0  0  0  0  0  0  0
   44.4150   85.9190   61.2660 C   0  0  0  0  0  0  0  0  0  0  0  0
   43.6730   86.3790   60.2440 N   0  0  0  0  0  0  0  0  0  0  0  0
   42.5650   85.6530   60.2080 N   0  0  0  0  0  0  0  0  0  0  0  0
   40.7850   81.5580   61.8000 C   0  0  0  0  0  0  0  0  0  0  0  0
   41.8440   82.4320   61.5380 C   0  0  0  0  0  0  0  0  0  0  0  0
   41.5490   83.7830   61.4520 C   0  0  0  0  0  0  0  0  0  0  0  0
   40.2610   84.2090   61.6240 N   0  0  0  0  0  0  0  0  0  0  0  0
   39.2720   83.3090   61.8760 C   0  0  0  0  0  0  0  0  0  0  0  0
   39.5400   82.0010   61.9630 N   0  0  0  0  0  0  0  0  0  0  0  0
   44.0400   87.4680   59.3560 C   0  0  0  0  0  0  0  0  0  0  0  0
   44.8230   86.9020   58.2420 C   0  0  0  0  0  0  0  0  0  0  0  0
   45.9090   87.6070   57.7560 C   0  0  0  0  0  0  0  0  0  0  0  0
   46.7430   87.2220   56.7240 C   0  0  0  0  0  0  0  0  0  0  0  0
   46.4550   86.0190   56.1280 C   0  0  0  0  0  0  0  0  0  0  0  0
   47.2480   85.6170   55.1220 N   0  0  0  0  0  0  0  0  0  0  0  0
   47.0470   84.4490   54.4740 C   0  0  0  0  0  0  0  0  0  0  0  0
   45.9780   83.6990   54.9110 C   0  0  0  0  0  0  0  0  0  0  0  0
   45.1320   84.0600   55.9370 C   0  0  0  0  0  0  0  0  0  0  0  0
   45.3850   85.2710   56.5710 C   0  0  0  0  0  0  0  0  0  0  0  0
   44.5820   85.7000   57.6050 C   0  0  0  0  0  0  0  0  0  0  0  0
   44.0982   84.2628   62.7878 H   0  0  0  0  0  0  0  0  0  0  0  0
   45.3983   86.3206   61.5520 H   0  0  0  0  0  0  0  0  0  0  0  0
   40.9849   80.4788   61.8732 H   0  0  0  0  0  0  0  0  0  0  0  0
   42.8713   82.0617   61.4053 H   0  0  0  0  0  0  0  0  0  0  0  0
   38.2386   83.6614   62.0099 H   0  0  0  0  0  0  0  0  0  0  0  0
   43.1333   87.9538   58.9663 H   0  0  0  0  0  0  0  0  0  0  0  0
   44.6331   88.2198   59.8974 H   0  0  0  0  0  0  0  0  0  0  0  0
   46.1308   88.5700   58.2391 H   0  0  0  0  0  0  0  0  0  0  0  0
   47.5898   87.8440   56.3983 H   0  0  0  0  0  0  0  0  0  0  0  0
   47.6959   84.1180   53.6497 H   0  0  0  0  0  0  0  0  0  0  0  0
   45.7854   82.7420   54.4041 H   0  0  0  0  0  0  0  0  0  0  0  0
   44.2925   83.4176   56.2413 H   0  0  0  0  0  0  0  0  0  0  0  0
   43.7359   85.0759   57.9284 H   0  0  0  0  0  0  0  0  0  0  0  0
  1  8  1  0
  1  2  1  0
  3  2  2  0
  4  3  1  0
  5  4  1  0
  5  1  2  0
  6 11  2  0
  7  6  1  0
  8  7  2  0
  8  9  1  0
  9 10  2  0
 10 11  1  0
 12  4  1  0
 13 12  1  0
 14 13  2  0
 15 14  1  0
 16 21  1  0
 16 15  2  0
 17 16  1  0
 18 19  1  0
 18 17  2  0
 19 20  2  0
 20 21  1  0
 21 22  2  0
 22 13  1  0
  2 23  1  0
  3 24  1  0
  6 25  1  0
  7 26  1  0
 10 27  1  0
 12 28  1  0
 12 29  1  0
 14 30  1  0
 15 31  1  0
 18 32  1  0
 19 33  1  0
 20 34  1  0
 22 35  1  0
M  ISO  8  23  14  24  14  25  14  26  14  27  14  28   8  29   8  30  14
M  ISO  5  31  14  32  14  33  14  34  14  35  14
M  END
>  <minimizedAffinity>  (1) 
-4.34218454

>  <minimizedRMSD>  (1) 
0.994699359

$$$$
