
     RDKit          3D

 48 53  0  0  0  0  0  0  0  0999 V2000
   40.6860   81.8000   57.0960 C   0  0  0  0  0  0  0  0  0  0  0  0
   41.7770   82.3530   56.4060 C   0  0  0  0  0  0  0  0  0  0  0  0
   42.5790   83.2480   57.0960 C   0  0  0  0  0  0  0  0  0  0  0  0
   42.2980   83.5550   58.3850 N   0  0  0  0  0  0  0  0  0  0  0  0
   41.2350   83.0000   59.0250 C   0  0  0  0  0  0  0  0  0  0  0  0
   40.4200   82.1180   58.3790 N   0  0  0  0  0  0  0  0  0  0  0  0
   39.6730   83.1070   60.9050 C   0  0  0  0  0  0  0  0  0  0  0  0
   40.9710   83.3040   60.4210 C   0  0  0  0  0  0  0  0  0  0  0  0
   41.9990   83.7570   61.2510 C   0  0  0  0  0  0  0  0  0  0  0  0
   41.7710   84.0280   62.5850 C   0  0  0  0  0  0  0  0  0  0  0  0
   42.4720   84.4540   63.6470 N   0  0  0  0  0  0  0  0  0  0  0  0
   41.6850   84.5290   64.7440 C   0  0  0  0  0  0  0  0  0  0  0  0
   40.4770   84.1350   64.3190 N   0  0  0  0  0  0  0  0  0  0  0  0
   40.4890   83.8230   63.0210 C   0  0  0  0  0  0  0  0  0  0  0  0
   39.4310   83.3790   62.2570 C   0  0  0  0  0  0  0  0  0  0  0  0
   42.4220   83.4790   54.1260 Cl  0  0  0  0  0  0  0  0  0  0  0  0
   43.7910   84.0160   55.0860 C   0  0  0  0  0  0  0  0  0  0  0  0
   43.7120   83.8620   56.4450 C   0  0  0  0  0  0  0  0  0  0  0  0
   44.8230   84.3460   57.1340 C   0  0  0  0  0  0  0  0  0  0  0  0
   45.9140   84.9290   56.5340 C   0  0  0  0  0  0  0  0  0  0  0  0
   45.9240   85.0500   55.1430 C   0  0  0  0  0  0  0  0  0  0  0  0
   47.2890   85.7840   54.3480 Cl  0  0  0  0  0  0  0  0  0  0  0  0
   44.8450   84.5850   54.4150 C   0  0  0  0  0  0  0  0  0  0  0  0
   44.8980   84.7320   52.9640 C   0  0  0  0  0  0  0  0  0  0  0  0
   45.3720   83.8660   52.0320 C   0  0  0  0  0  0  0  0  0  0  0  0
   45.3230   84.2170   50.6800 C   0  0  0  0  0  0  0  0  0  0  0  0
   44.8010   85.4350   50.2720 C   0  0  0  0  0  0  0  0  0  0  0  0
   44.7620   85.7580   48.9570 N   0  0  0  0  0  0  0  0  0  0  0  0
   44.2470   86.9490   48.5950 C   0  0  0  0  0  0  0  0  0  0  0  0
   43.7440   87.8870   49.4720 C   0  0  0  0  0  0  0  0  0  0  0  0
   43.7940   87.5370   50.8060 C   0  0  0  0  0  0  0  0  0  0  0  0
   44.3170   86.3180   51.2310 C   0  0  0  0  0  0  0  0  0  0  0  0
   44.3660   85.9670   52.5780 C   0  0  0  0  0  0  0  0  0  0  0  0
   40.0299   81.0872   56.5750 H   0  0  0  0  0  0  0  0  0  0  0  0
   41.9866   82.0864   55.3596 H   0  0  0  0  0  0  0  0  0  0  0  0
   38.8688   82.7500   60.2448 H   0  0  0  0  0  0  0  0  0  0  0  0
   43.0070   83.9002   60.8346 H   0  0  0  0  0  0  0  0  0  0  0  0
   43.4740   84.6917   63.6290 H   0  0  0  0  0  0  0  0  0  0  0  0
   41.9723   84.8432   65.7583 H   0  0  0  0  0  0  0  0  0  0  0  0
   38.4309   83.2431   62.6945 H   0  0  0  0  0  0  0  0  0  0  0  0
   44.8270   84.2555   58.2303 H   0  0  0  0  0  0  0  0  0  0  0  0
   46.7599   85.2919   57.1362 H   0  0  0  0  0  0  0  0  0  0  0  0
   45.7911   82.8962   52.3384 H   0  0  0  0  0  0  0  0  0  0  0  0
   45.7057   83.5139   49.9256 H   0  0  0  0  0  0  0  0  0  0  0  0
   44.2262   87.1909   47.5221 H   0  0  0  0  0  0  0  0  0  0  0  0
   43.3313   88.8481   49.1316 H   0  0  0  0  0  0  0  0  0  0  0  0
   43.4089   88.2426   51.5569 H   0  0  0  0  0  0  0  0  0  0  0  0
   43.9854   86.6627   53.3403 H   0  0  0  0  0  0  0  0  0  0  0  0
  1  6  2  0
  2  3  2  0
  2  1  1  0
  3  4  1  0
  4  5  2  0
  5  8  1  0
  6  5  1  0
  7 15  2  0
  8  7  1  0
  8  9  2  0
  9 10  1  0
 10 14  2  0
 10 11  1  0
 11 12  1  0
 13 12  2  0
 14 13  1  0
 15 14  1  0
 16 17  1  0
 17 18  2  0
 18  3  1  0
 18 19  1  0
 20 19  2  0
 21 20  1  0
 22 21  1  0
 23 17  1  0
 23 21  2  0
 24 23  1  0
 25 24  2  0
 26 25  1  0
 27 26  2  0
 27 32  1  0
 28 27  1  0
 29 28  2  0
 29 30  1  0
 30 31  2  0
 31 32  1  0
 32 33  2  0
 33 24  1  0
  1 34  1  0
  2 35  1  0
  7 36  1  0
  9 37  1  0
 11 38  1  0
 12 39  1  0
 15 40  1  0
 19 41  1  0
 20 42  1  0
 25 43  1  0
 26 44  1  0
 29 45  1  0
 30 46  1  0
 31 47  1  0
 33 48  1  0
M  ISO  8  34  14  35  14  36  14  37  14  38   9  39  14  40  14  41  14
M  ISO  7  42  14  43  14  44  14  45  14  46  14  47  14  48  14
M  END
>  <minimizedAffinity>  (1) 
-5.26912355

>  <minimizedRMSD>  (1) 
0.300159603

$$$$
