
     RDKit          3D

 30 32  0  0  0  0  0  0  0  0999 V2000
   40.2000   80.4740   59.1400 C   0  0  0  0  0  0  0  0  0  0  0  0
   40.3700   81.1510   57.9260 C   0  0  0  0  0  0  0  0  0  0  0  0
   40.7270   82.5040   57.9860 C   0  0  0  0  0  0  0  0  0  0  0  0
   40.8910   83.0910   59.1920 N   0  0  0  0  0  0  0  0  0  0  0  0
   40.7180   82.4010   60.3450 C   0  0  0  0  0  0  0  0  0  0  0  0
   40.3760   81.1090   60.3080 N   0  0  0  0  0  0  0  0  0  0  0  0
   40.8720   82.9550   61.6460 N   0  0  0  0  0  0  0  0  0  0  0  0
   42.0240   82.9960   62.3680 C   0  0  0  0  0  0  0  0  0  0  0  0
   41.9790   83.5770   63.6170 C   0  0  0  0  0  0  0  0  0  0  0  0
   40.7940   84.0980   64.1110 C   0  0  0  0  0  0  0  0  0  0  0  0
   40.7730   84.6230   65.2500 O   0  0  0  0  0  0  0  0  0  0  0  0
   39.6770   84.0440   63.3790 N   0  0  0  0  0  0  0  0  0  0  0  0
   39.7310   83.4680   62.1440 C   0  0  0  0  0  0  0  0  0  0  0  0
   38.6180   83.4730   61.5480 O   0  0  0  0  0  0  0  0  0  0  0  0
   40.1810   80.4690   56.6860 N   0  0  0  0  0  0  0  0  0  0  0  0
   41.3110   79.9800   56.1640 C   0  0  0  0  0  0  0  0  0  0  0  0
   41.2360   79.2950   54.9530 C   0  0  0  0  0  0  0  0  0  0  0  0
   39.9980   79.1460   54.3330 C   0  0  0  0  0  0  0  0  0  0  0  0
   39.8410   78.5450   53.2440 O   0  0  0  0  0  0  0  0  0  0  0  0
   38.9070   79.6690   54.9240 N   0  0  0  0  0  0  0  0  0  0  0  0
   38.9690   80.3440   56.1160 C   0  0  0  0  0  0  0  0  0  0  0  0
   37.9560   80.8320   56.6690 O   0  0  0  0  0  0  0  0  0  0  0  0
   39.9192   79.4104   59.1355 H   0  0  0  0  0  0  0  0  0  0  0  0
   40.8723   83.0823   57.0617 H   0  0  0  0  0  0  0  0  0  0  0  0
   42.9603   82.5794   61.9684 H   0  0  0  0  0  0  0  0  0  0  0  0
   42.8926   83.6276   64.2275 H   0  0  0  0  0  0  0  0  0  0  0  0
   38.7930   84.4297   63.7404 H   0  0  0  0  0  0  0  0  0  0  0  0
   42.2745   80.1150   56.6773 H   0  0  0  0  0  0  0  0  0  0  0  0
   42.1433   78.8771   54.4924 H   0  0  0  0  0  0  0  0  0  0  0  0
   37.9922   79.5580   54.4638 H   0  0  0  0  0  0  0  0  0  0  0  0
  1  6  2  0
  2  3  2  0
  2  1  1  0
  3  4  1  0
  4  5  2  0
  5  7  1  0
  6  5  1  0
  7 13  1  0
  7  8  1  0
  8  9  2  0
  9 10  1  0
 10 11  2  0
 12 10  1  0
 13 12  1  0
 14 13  2  0
 15  2  1  0
 16 15  1  0
 17 16  2  0
 18 20  1  0
 18 17  1  0
 19 18  2  0
 20 21  1  0
 21 22  2  0
 21 15  1  0
  1 23  1  0
  3 24  1  0
  8 25  1  0
  9 26  1  0
 12 27  1  0
 16 28  1  0
 17 29  1  0
 20 30  1  0
M  ISO  8  23  14  24  14  25  14  26  14  27   9  28  14  29  14  30   9
M  END
>  <minimizedAffinity>  (1) 
-5.61821985

>  <minimizedRMSD>  (1) 
5.10472488

$$$$
