
     RDKit          3D

 20 21  0  0  0  0  0  0  0  0999 V2000
   39.9400   81.9890   60.7430 C   0  0  0  0  0  0  0  0  0  0  0  0
   40.1110   82.7970   59.6100 C   0  0  0  0  0  0  0  0  0  0  0  0
   39.6340   84.1120   59.6770 C   0  0  0  0  0  0  0  0  0  0  0  0
   39.0390   84.5300   60.8260 N   0  0  0  0  0  0  0  0  0  0  0  0
   38.8910   83.7320   61.8960 C   0  0  0  0  0  0  0  0  0  0  0  0
   39.3400   82.4540   61.8650 N   0  0  0  0  0  0  0  0  0  0  0  0
   40.3590   80.6340   60.8590 N   0  0  0  0  0  0  0  0  0  0  0  0
   40.3500   80.0160   59.6500 C   0  0  0  0  0  0  0  0  0  0  0  0
   40.7250   78.6780   59.5270 C   0  0  0  0  0  0  0  0  0  0  0  0
   41.1040   78.0100   60.6800 C   0  0  0  0  0  0  0  0  0  0  0  0
   41.4510   76.8010   60.6160 O   0  0  0  0  0  0  0  0  0  0  0  0
   41.0970   78.6640   61.8530 N   0  0  0  0  0  0  0  0  0  0  0  0
   40.7330   79.9530   61.9580 C   0  0  0  0  0  0  0  0  0  0  0  0
   40.6970   80.6370   63.0140 O   0  0  0  0  0  0  0  0  0  0  0  0
   40.6010   82.4128   58.7032 H   0  0  0  0  0  0  0  0  0  0  0  0
   39.7384   84.7920   58.8187 H   0  0  0  0  0  0  0  0  0  0  0  0
   38.4025   84.1181   62.8028 H   0  0  0  0  0  0  0  0  0  0  0  0
   40.0429   80.5779   58.7556 H   0  0  0  0  0  0  0  0  0  0  0  0
   40.7200   78.1719   58.5504 H   0  0  0  0  0  0  0  0  0  0  0  0
   41.3814   78.1584   62.7041 H   0  0  0  0  0  0  0  0  0  0  0  0
  1  7  1  0
  1  6  2  0
  2  3  2  0
  2  1  1  0
  3  4  1  0
  4  5  2  0
  6  5  1  0
  7 13  1  0
  8  7  1  0
  9  8  2  0
  9 10  1  0
 10 12  1  0
 11 10  2  0
 12 13  1  0
 13 14  2  0
  2 15  1  0
  3 16  1  0
  5 17  1  0
  8 18  1  0
  9 19  1  0
 12 20  1  0
M  ISO  6  15  14  16  14  17  14  18  14  19  14  20   9
M  END
>  <minimizedAffinity>  (1) 
-5.12300014

>  <minimizedRMSD>  (1) 
0.332469672

$$$$
