
     RDKit          3D

 34 36  0  0  0  0  0  0  0  0999 V2000
   41.4470   83.7170   58.2640 Cl  0  0  0  0  0  0  0  0  0  0  0  0
   40.9050   82.0470   58.3470 C   0  0  0  0  0  0  0  0  0  0  0  0
   40.6890   81.3820   59.5370 C   0  0  0  0  0  0  0  0  0  0  0  0
   40.2640   80.0740   59.4220 C   0  0  0  0  0  0  0  0  0  0  0  0
   40.0410   79.3860   58.2570 C   0  0  0  0  0  0  0  0  0  0  0  0
   40.2710   80.0890   57.0940 C   0  0  0  0  0  0  0  0  0  0  0  0
   40.0210   79.3190   55.5330 Cl  0  0  0  0  0  0  0  0  0  0  0  0
   40.7020   81.4210   57.1490 C   0  0  0  0  0  0  0  0  0  0  0  0
   42.1220   82.3310   61.4040 C   0  0  0  0  0  0  0  0  0  0  0  0
   40.9120   82.0740   60.7640 C   0  0  0  0  0  0  0  0  0  0  0  0
   39.7480   82.5470   61.3880 C   0  0  0  0  0  0  0  0  0  0  0  0
   39.8620   83.2180   62.5630 N   0  0  0  0  0  0  0  0  0  0  0  0
   41.0530   83.4440   63.1470 C   0  0  0  0  0  0  0  0  0  0  0  0
   42.1830   82.9960   62.5620 N   0  0  0  0  0  0  0  0  0  0  0  0
   41.0100   84.1930   64.4300 C   0  0  0  0  0  0  0  0  0  0  0  0
   40.7030   85.5230   64.2430 F   0  0  0  0  0  0  0  0  0  0  0  0
   40.0660   83.6370   65.2660 F   0  0  0  0  0  0  0  0  0  0  0  0
   42.2580   84.2090   65.0470 F   0  0  0  0  0  0  0  0  0  0  0  0
   40.9070   82.0500   55.9330 O   0  0  0  0  0  0  0  0  0  0  0  0
   43.4560   84.5390   54.9880 N   0  0  0  0  0  0  0  0  0  0  0  0
   42.2530   84.0740   55.3700 C   0  0  0  0  0  0  0  0  0  0  0  0
   42.0470   82.7150   55.5510 C   0  0  0  0  0  0  0  0  0  0  0  0
   43.1320   81.8650   55.3210 C   0  0  0  0  0  0  0  0  0  0  0  0
   43.0880   80.6340   55.4440 O   0  0  0  0  0  0  0  0  0  0  0  0
   44.3160   82.3900   54.9380 N   0  0  0  0  0  0  0  0  0  0  0  0
   44.5020   83.7100   54.7660 C   0  0  0  0  0  0  0  0  0  0  0  0
   45.5860   84.2190   54.4140 O   0  0  0  0  0  0  0  0  0  0  0  0
   40.0861   79.5279   60.3602 H   0  0  0  0  0  0  0  0  0  0  0  0
   39.7004   78.3401   58.2510 H   0  0  0  0  0  0  0  0  0  0  0  0
   43.0554   81.9761   60.9427 H   0  0  0  0  0  0  0  0  0  0  0  0
   38.7607   82.3774   60.9336 H   0  0  0  0  0  0  0  0  0  0  0  0
   43.5843   85.5531   54.8611 H   0  0  0  0  0  0  0  0  0  0  0  0
   41.4253   84.7782   55.5403 H   0  0  0  0  0  0  0  0  0  0  0  0
   45.1082   81.7533   54.7710 H   0  0  0  0  0  0  0  0  0  0  0  0
  1  2  1  0
  2  3  2  0
  3 10  1  0
  4  3  1  0
  5  4  2  0
  6  8  2  0
  6  5  1  0
  7  6  1  0
  8  2  1  0
  9 14  2  0
 10 11  2  0
 10  9  1  0
 11 12  1  0
 12 13  2  0
 13 15  1  0
 14 13  1  0
 15 18  1  0
 15 17  1  0
 16 15  1  0
 19  8  1  0
 20 21  1  0
 21 22  2  0
 22 19  1  0
 23 24  2  0
 23 22  1  0
 25 23  1  0
 26 25  1  0
 26 20  1  0
 27 26  2  0
  4 28  1  0
  5 29  1  0
  9 30  1  0
 11 31  1  0
 20 32  1  0
 21 33  1  0
 25 34  1  0
M  ISO  7  28  14  29  14  30  14  31  14  32   9  33  14  34   9
M  END
>  <minimizedAffinity>  (1) 
-5.48218298

>  <minimizedRMSD>  (1) 
1.23216021

$$$$
