
     RDKit          3D

 37 39  0  0  0  0  0  0  0  0999 V2000
   43.1250   83.7910   58.6450 Cl  0  0  0  0  0  0  0  0  0  0  0  0
   41.8580   82.6510   58.2740 C   0  0  0  0  0  0  0  0  0  0  0  0
   40.9550   82.1830   59.2130 C   0  0  0  0  0  0  0  0  0  0  0  0
   40.0150   81.2830   58.7500 C   0  0  0  0  0  0  0  0  0  0  0  0
   39.8870   80.8100   57.4650 C   0  0  0  0  0  0  0  0  0  0  0  0
   40.7880   81.2890   56.5690 C   0  0  0  0  0  0  0  0  0  0  0  0
   40.7430   80.7690   54.8890 Cl  0  0  0  0  0  0  0  0  0  0  0  0
   41.7610   82.1980   56.9710 C   0  0  0  0  0  0  0  0  0  0  0  0
   41.9060   82.1330   61.5680 C   0  0  0  0  0  0  0  0  0  0  0  0
   41.0560   82.6490   60.5530 C   0  0  0  0  0  0  0  0  0  0  0  0
   40.2430   83.7040   60.8890 C   0  0  0  0  0  0  0  0  0  0  0  0
   40.3220   84.1680   62.1680 N   0  0  0  0  0  0  0  0  0  0  0  0
   41.1340   83.6630   63.1070 C   0  0  0  0  0  0  0  0  0  0  0  0
   41.9480   82.6190   62.8010 N   0  0  0  0  0  0  0  0  0  0  0  0
   41.0620   84.3180   64.4350 C   0  0  0  0  0  0  0  0  0  0  0  0
   40.7360   85.6560   64.3400 F   0  0  0  0  0  0  0  0  0  0  0  0
   40.1120   83.6940   65.2270 F   0  0  0  0  0  0  0  0  0  0  0  0
   42.3040   84.2760   65.0750 F   0  0  0  0  0  0  0  0  0  0  0  0
   42.6680   82.6650   56.0190 O   0  0  0  0  0  0  0  0  0  0  0  0
   42.4750   83.8350   55.2650 C   0  0  0  0  0  0  0  0  0  0  0  0
   45.4280   84.9190   55.1390 Br  0  0  0  0  0  0  0  0  0  0  0  0
   44.3250   84.2400   53.7170 C   0  0  0  0  0  0  0  0  0  0  0  0
   43.0210   83.7880   53.9160 C   0  0  0  0  0  0  0  0  0  0  0  0
   42.2840   83.3140   52.8530 C   0  0  0  0  0  0  0  0  0  0  0  0
   42.8230   83.2770   51.5720 C   0  0  0  0  0  0  0  0  0  0  0  0
   44.1160   83.7160   51.3240 C   0  0  0  0  0  0  0  0  0  0  0  0
   44.8170   84.1830   52.4160 C   0  0  0  0  0  0  0  0  0  0  0  0
   39.2920   80.9044   59.4875 H   0  0  0  0  0  0  0  0  0  0  0  0
   39.1052   80.0901   57.1813 H   0  0  0  0  0  0  0  0  0  0  0  0
   42.5630   81.2869   61.3181 H   0  0  0  0  0  0  0  0  0  0  0  0
   39.5572   84.1552   60.1568 H   0  0  0  0  0  0  0  0  0  0  0  0
   41.3932   84.0196   55.1903 H   0  0  0  0  0  0  0  0  0  0  0  0
   43.0161   84.6355   55.7908 H   0  0  0  0  0  0  0  0  0  0  0  0
   41.2559   82.9603   53.0199 H   0  0  0  0  0  0  0  0  0  0  0  0
   42.2139   82.8930   50.7404 H   0  0  0  0  0  0  0  0  0  0  0  0
   44.5557   83.6928   50.3160 H   0  0  0  0  0  0  0  0  0  0  0  0
   45.8442   84.5378   52.2458 H   0  0  0  0  0  0  0  0  0  0  0  0
  2  1  1  0
  2  3  2  0
  3 10  1  0
  4  3  1  0
  5  4  2  0
  6  8  2  0
  6  5  1  0
  7  6  1  0
  8  2  1  0
  9 14  2  0
 10 11  2  0
 10  9  1  0
 11 12  1  0
 12 13  2  0
 13 15  1  0
 14 13  1  0
 15 18  1  0
 15 17  1  0
 16 15  1  0
 19  8  1  0
 20 19  1  0
 22 23  2  0
 22 21  1  0
 23 20  1  0
 24 23  1  0
 25 24  2  0
 26 25  1  0
 26 27  2  0
 27 22  1  0
  4 28  1  0
  5 29  1  0
  9 30  1  0
 11 31  1  0
 20 32  1  0
 20 33  1  0
 24 34  1  0
 25 35  1  0
 26 36  1  0
 27 37  1  0
M  ISO  8  28  14  29  14  30  14  31  14  32   8  33   8  34  14  35  14
M  ISO  2  36  14  37  14
M  END
>  <minimizedAffinity>  (1) 
-5.0044055

>  <minimizedRMSD>  (1) 
0.97584939

$$$$
