
     RDKit          3D

 20 21  0  0  0  0  0  0  0  0999 V2000
   40.5920   83.5010   63.7980 C   0  0  0  0  0  0  0  0  0  0  0  0
   41.3700   84.4140   63.0700 C   0  0  0  0  0  0  0  0  0  0  0  0
   42.1700   84.0040   62.0060 C   0  0  0  0  0  0  0  0  0  0  0  0
   42.1380   82.6740   61.7310 N   0  0  0  0  0  0  0  0  0  0  0  0
   41.3900   81.8050   62.4300 C   0  0  0  0  0  0  0  0  0  0  0  0
   40.6260   82.2100   63.4520 N   0  0  0  0  0  0  0  0  0  0  0  0
   40.8080   84.7210   59.3980 Br  0  0  0  0  0  0  0  0  0  0  0  0
   42.4920   85.3560   60.0200 C   0  0  0  0  0  0  0  0  0  0  0  0
   42.9870   84.9360   61.2380 C   0  0  0  0  0  0  0  0  0  0  0  0
   44.2100   85.4250   61.6410 C   0  0  0  0  0  0  0  0  0  0  0  0
   44.9340   86.3120   60.8580 C   0  0  0  0  0  0  0  0  0  0  0  0
   44.4030   86.7080   59.6430 C   0  0  0  0  0  0  0  0  0  0  0  0
   43.1800   86.2400   59.2020 C   0  0  0  0  0  0  0  0  0  0  0  0
   39.9665   83.8407   64.6367 H   0  0  0  0  0  0  0  0  0  0  0  0
   41.3476   85.4786   63.3460 H   0  0  0  0  0  0  0  0  0  0  0  0
   41.4053   80.7394   62.1575 H   0  0  0  0  0  0  0  0  0  0  0  0
   44.6231   85.1039   62.6086 H   0  0  0  0  0  0  0  0  0  0  0  0
   45.9093   86.6925   61.1956 H   0  0  0  0  0  0  0  0  0  0  0  0
   44.9676   87.4117   59.0137 H   0  0  0  0  0  0  0  0  0  0  0  0
   42.7656   86.5581   58.2340 H   0  0  0  0  0  0  0  0  0  0  0  0
  2  1  2  0
  3  2  1  0
  4  3  2  0
  4  5  1  0
  5  6  2  0
  6  1  1  0
  7  8  1  0
  8  9  2  0
  9 10  1  0
  9  3  1  0
 11 10  2  0
 12 11  1  0
 13 12  2  0
 13  8  1  0
  1 14  1  0
  2 15  1  0
  5 16  1  0
 10 17  1  0
 11 18  1  0
 12 19  1  0
 13 20  1  0
M  ISO  7  14  14  15  14  16  14  17  14  18  14  19  14  20  14
M  END
>  <minimizedAffinity>  (1) 
-4.33600378

>  <minimizedRMSD>  (1) 
4.20997858

$$$$
