
     RDKit          3D

 20 21  0  0  0  0  0  0  0  0999 V2000
   40.1410   81.9450   61.1020 C   0  0  0  0  0  0  0  0  0  0  0  0
   40.2650   82.7060   59.9340 C   0  0  0  0  0  0  0  0  0  0  0  0
   39.6640   83.9580   59.8060 C   0  0  0  0  0  0  0  0  0  0  0  0
   38.9530   84.3830   60.8970 N   0  0  0  0  0  0  0  0  0  0  0  0
   38.8430   83.6410   62.0120 C   0  0  0  0  0  0  0  0  0  0  0  0
   39.4220   82.4420   62.1230 N   0  0  0  0  0  0  0  0  0  0  0  0
   42.9270   82.2080   62.2990 Br  0  0  0  0  0  0  0  0  0  0  0  0
   42.0780   80.5920   61.7090 C   0  0  0  0  0  0  0  0  0  0  0  0
   40.7900   80.6410   61.1800 C   0  0  0  0  0  0  0  0  0  0  0  0
   40.2610   79.4510   60.7880 C   0  0  0  0  0  0  0  0  0  0  0  0
   40.9710   78.2650   60.9090 C   0  0  0  0  0  0  0  0  0  0  0  0
   42.2440   78.2450   61.4360 C   0  0  0  0  0  0  0  0  0  0  0  0
   42.8170   79.4430   61.8490 C   0  0  0  0  0  0  0  0  0  0  0  0
   40.8523   82.3059   59.0944 H   0  0  0  0  0  0  0  0  0  0  0  0
   39.7547   84.5627   58.8916 H   0  0  0  0  0  0  0  0  0  0  0  0
   38.2591   84.0323   62.8582 H   0  0  0  0  0  0  0  0  0  0  0  0
   39.2459   79.4282   60.3649 H   0  0  0  0  0  0  0  0  0  0  0  0
   40.5090   77.3232   60.5780 H   0  0  0  0  0  0  0  0  0  0  0  0
   42.7970   77.2986   61.5284 H   0  0  0  0  0  0  0  0  0  0  0  0
   43.8309   79.4694   62.2747 H   0  0  0  0  0  0  0  0  0  0  0  0
  1  9  1  0
  1  6  1  0
  2  1  2  0
  3  2  1  0
  3  4  2  0
  4  5  1  0
  5  6  2  0
  8 13  2  0
  8  7  1  0
  9  8  1  0
 10 11  1  0
 10  9  2  0
 11 12  2  0
 12 13  1  0
  2 14  1  0
  3 15  1  0
  5 16  1  0
 10 17  1  0
 11 18  1  0
 12 19  1  0
 13 20  1  0
M  ISO  7  14  14  15  14  16  14  17  14  18  14  19  14  20  14
M  END
>  <minimizedAffinity>  (1) 
-4.74693632

>  <minimizedRMSD>  (1) 
1.0217452

$$$$
