
     RDKit          3D

 20 21  0  0  0  0  0  0  0  0999 V2000
   40.1740   82.0800   60.6030 C   0  0  0  0  0  0  0  0  0  0  0  0
   40.0980   83.0620   59.5780 C   0  0  0  0  0  0  0  0  0  0  0  0
   39.4250   84.2480   59.8830 C   0  0  0  0  0  0  0  0  0  0  0  0
   38.8880   84.3950   61.1230 N   0  0  0  0  0  0  0  0  0  0  0  0
   38.9840   83.4380   62.0620 C   0  0  0  0  0  0  0  0  0  0  0  0
   39.6230   82.2910   61.8010 N   0  0  0  0  0  0  0  0  0  0  0  0
   42.5030   84.8770   58.6720 Br  0  0  0  0  0  0  0  0  0  0  0  0
   41.7880   83.4070   57.6970 C   0  0  0  0  0  0  0  0  0  0  0  0
   40.7290   82.7550   58.2940 C   0  0  0  0  0  0  0  0  0  0  0  0
   40.1520   81.6770   57.6500 C   0  0  0  0  0  0  0  0  0  0  0  0
   40.6160   81.2340   56.4140 C   0  0  0  0  0  0  0  0  0  0  0  0
   41.6770   81.8960   55.8270 C   0  0  0  0  0  0  0  0  0  0  0  0
   42.2520   82.9720   56.4710 C   0  0  0  0  0  0  0  0  0  0  0  0
   40.6949   81.1313   60.4062 H   0  0  0  0  0  0  0  0  0  0  0  0
   39.3315   85.0478   59.1336 H   0  0  0  0  0  0  0  0  0  0  0  0
   38.5339   83.5986   63.0528 H   0  0  0  0  0  0  0  0  0  0  0  0
   39.3068   81.1569   58.1246 H   0  0  0  0  0  0  0  0  0  0  0  0
   40.1467   80.3735   55.9147 H   0  0  0  0  0  0  0  0  0  0  0  0
   42.0616   81.5666   54.8505 H   0  0  0  0  0  0  0  0  0  0  0  0
   43.0971   83.4941   55.9985 H   0  0  0  0  0  0  0  0  0  0  0  0
  1  6  2  0
  2  3  2  0
  2  1  1  0
  3  4  1  0
  4  5  2  0
  6  5  1  0
  8  9  2  0
  8  7  1  0
  9  2  1  0
 10  9  1  0
 11 10  2  0
 12 11  1  0
 12 13  2  0
 13  8  1  0
  1 14  1  0
  3 15  1  0
  5 16  1  0
 10 17  1  0
 11 18  1  0
 12 19  1  0
 13 20  1  0
M  ISO  7  14  14  15  14  16  14  17  14  18  14  19  14  20  14
M  END
>  <minimizedAffinity>  (1) 
-4.53888893

>  <minimizedRMSD>  (1) 
0.636575341

$$$$
