
     RDKit          3D

 30 32  0  0  0  0  0  0  0  0999 V2000
   41.6440   83.8900   61.4350 C   0  0  0  0  0  0  0  0  0  0  0  0
   41.3060   84.2340   62.7210 C   0  0  0  0  0  0  0  0  0  0  0  0
   40.7780   83.3040   63.6250 C   0  0  0  0  0  0  0  0  0  0  0  0
   40.5940   82.0230   63.2170 N   0  0  0  0  0  0  0  0  0  0  0  0
   40.9290   81.7040   61.9620 C   0  0  0  0  0  0  0  0  0  0  0  0
   41.4420   82.6090   61.0840 N   0  0  0  0  0  0  0  0  0  0  0  0
   43.7460   86.5110   59.9870 C   0  0  0  0  0  0  0  0  0  0  0  0
   43.2050   86.6400   58.7100 C   0  0  0  0  0  0  0  0  0  0  0  0
   42.1180   85.8300   58.3390 C   0  0  0  0  0  0  0  0  0  0  0  0
   41.6640   84.9590   59.2770 N   0  0  0  0  0  0  0  0  0  0  0  0
   42.1960   84.8530   60.4890 C   0  0  0  0  0  0  0  0  0  0  0  0
   43.2320   85.6180   60.8580 N   0  0  0  0  0  0  0  0  0  0  0  0
   44.8300   87.3880   60.2150 N   0  0  0  0  0  0  0  0  0  0  0  0
   40.1830   81.5340   59.0110 Br  0  0  0  0  0  0  0  0  0  0  0  0
   40.3960   80.0520   60.1960 C   0  0  0  0  0  0  0  0  0  0  0  0
   40.7390   80.3290   61.5040 C   0  0  0  0  0  0  0  0  0  0  0  0
   40.9040   79.3010   62.3900 C   0  0  0  0  0  0  0  0  0  0  0  0
   40.7260   77.9850   61.9730 C   0  0  0  0  0  0  0  0  0  0  0  0
   40.3860   77.7560   60.6600 C   0  0  0  0  0  0  0  0  0  0  0  0
   40.2180   78.7700   59.7670 C   0  0  0  0  0  0  0  0  0  0  0  0
   41.4547   85.2727   63.0512 H   0  0  0  0  0  0  0  0  0  0  0  0
   40.5166   83.6071   64.6496 H   0  0  0  0  0  0  0  0  0  0  0  0
   43.6239   87.3679   57.9996 H   0  0  0  0  0  0  0  0  0  0  0  0
   41.6592   85.8979   57.3416 H   0  0  0  0  0  0  0  0  0  0  0  0
   45.1376   88.0308   59.4713 H   0  0  0  0  0  0  0  0  0  0  0  0
   45.3127   87.3845   61.1249 H   0  0  0  0  0  0  0  0  0  0  0  0
   41.1778   79.5141   63.4338 H   0  0  0  0  0  0  0  0  0  0  0  0
   40.8541   77.1488   62.6761 H   0  0  0  0  0  0  0  0  0  0  0  0
   40.2452   76.7193   60.3202 H   0  0  0  0  0  0  0  0  0  0  0  0
   39.9447   78.5596   58.7225 H   0  0  0  0  0  0  0  0  0  0  0  0
  1  2  2  0
  2  3  1  0
  4  3  2  0
  5  4  1  0
  6  1  1  0
  6  5  2  0
  7 13  1  0
  7 12  2  0
  8  7  1  0
  9  8  2  0
  9 10  1  0
 10 11  2  0
 11 12  1  0
 11  1  1  0
 14 15  1  0
 15 16  2  0
 16  5  1  0
 16 17  1  0
 18 17  2  0
 19 18  1  0
 20 15  1  0
 20 19  2  0
  2 21  1  0
  3 22  1  0
  8 23  1  0
  9 24  1  0
 13 25  1  0
 13 26  1  0
 17 27  1  0
 18 28  1  0
 19 29  1  0
 20 30  1  0
M  ISO  8  21  14  22  14  23  14  24  14  27  14  28  14  29  14  30  14
M  END
>  <minimizedAffinity>  (1) 
-5.74902391

>  <minimizedRMSD>  (1) 
0.870432675

$$$$
