
     RDKit          3D

 34 36  0  0  0  0  0  0  0  0999 V2000
   41.8130   84.2340   61.5760 C   0  0  0  0  0  0  0  0  0  0  0  0
   41.4640   83.9740   62.8930 C   0  0  0  0  0  0  0  0  0  0  0  0
   40.1830   83.5570   63.2370 C   0  0  0  0  0  0  0  0  0  0  0  0
   39.2290   83.3980   62.2310 C   0  0  0  0  0  0  0  0  0  0  0  0
   39.5840   83.6610   60.9050 C   0  0  0  0  0  0  0  0  0  0  0  0
   40.8570   84.0740   60.5740 C   0  0  0  0  0  0  0  0  0  0  0  0
   45.3280   84.1530   60.5900 C   0  0  0  0  0  0  0  0  0  0  0  0
   45.7170   85.4740   60.6950 C   0  0  0  0  0  0  0  0  0  0  0  0
   44.7580   86.4250   61.1120 C   0  0  0  0  0  0  0  0  0  0  0  0
   43.5100   85.9720   61.3840 N   0  0  0  0  0  0  0  0  0  0  0  0
   43.1630   84.6660   61.2720 C   0  0  0  0  0  0  0  0  0  0  0  0
   44.0630   83.7810   60.8800 N   0  0  0  0  0  0  0  0  0  0  0  0
   41.1750   84.3330   59.1930 C   0  0  0  0  0  0  0  0  0  0  0  0
   40.8560   85.6540   58.8360 C   0  0  0  0  0  0  0  0  0  0  0  0
   41.0860   86.1100   57.5360 C   0  0  0  0  0  0  0  0  0  0  0  0
   41.6210   85.2360   56.6610 N   0  0  0  0  0  0  0  0  0  0  0  0
   41.9240   83.9650   57.0210 C   0  0  0  0  0  0  0  0  0  0  0  0
   41.7030   83.5240   58.2700 N   0  0  0  0  0  0  0  0  0  0  0  0
   42.5120   83.0390   56.0160 C   0  0  0  0  0  0  0  0  0  0  0  0
   41.5750   81.9060   55.7380 C   0  0  0  0  0  0  0  0  0  0  0  0
   42.2182   84.1007   63.6837 H   0  0  0  0  0  0  0  0  0  0  0  0
   39.9252   83.3553   64.2872 H   0  0  0  0  0  0  0  0  0  0  0  0
   38.2089   83.0693   62.4789 H   0  0  0  0  0  0  0  0  0  0  0  0
   38.8335   83.5361   60.1105 H   0  0  0  0  0  0  0  0  0  0  0  0
   46.0570   83.3955   60.2665 H   0  0  0  0  0  0  0  0  0  0  0  0
   46.7475   85.7785   60.4600 H   0  0  0  0  0  0  0  0  0  0  0  0
   45.0144   87.4900   61.2117 H   0  0  0  0  0  0  0  0  0  0  0  0
   40.4225   86.3332   59.5849 H   0  0  0  0  0  0  0  0  0  0  0  0
   40.8405   87.1402   57.2387 H   0  0  0  0  0  0  0  0  0  0  0  0
   42.7012   83.5899   55.0829 H   0  0  0  0  0  0  0  0  0  0  0  0
   43.4539   82.6331   56.4136 H   0  0  0  0  0  0  0  0  0  0  0  0
   41.2226   81.4799   56.6889 H   0  0  0  0  0  0  0  0  0  0  0  0
   40.7147   82.2750   55.1604 H   0  0  0  0  0  0  0  0  0  0  0  0
   42.0989   81.1302   55.1604 H   0  0  0  0  0  0  0  0  0  0  0  0
  1  2  2  0
  2  3  1  0
  4  3  2  0
  5  4  1  0
  6  5  2  0
  6  1  1  0
  7  8  2  0
  7 12  1  0
  8  9  1  0
  9 10  2  0
 11 10  1  0
 11  1  1  0
 12 11  2  0
 13  6  1  0
 14 13  2  0
 15 14  1  0
 16 17  1  0
 16 15  2  0
 17 18  2  0
 18 13  1  0
 19 17  1  0
 20 19  1  0
  2 21  1  0
  3 22  1  0
  4 23  1  0
  5 24  1  0
  7 25  1  0
  8 26  1  0
  9 27  1  0
 14 28  1  0
 15 29  1  0
 19 30  1  0
 19 31  1  0
 20 32  1  0
 20 33  1  0
 20 34  1  0
M  ISO  8  21  14  22  14  23  14  24  14  25  14  26  14  27  14  28  14
M  ISO  6  29  14  30   8  31   8  32   8  33   8  34   8
M  END
>  <minimizedAffinity>  (1) 
-5.27359629

>  <minimizedRMSD>  (1) 
0.219503284

$$$$
