
     RDKit          3D

 23 24  0  0  0  0  0  0  0  0999 V2000
   42.6660   83.1570   62.1160 C   0  0  0  0  0  0  0  0  0  0  0  0
   43.2140   83.4400   63.3450 C   0  0  0  0  0  0  0  0  0  0  0  0
   44.4830   82.8520   63.2310 C   0  0  0  0  0  0  0  0  0  0  0  0
   44.6410   82.2750   62.0160 N   0  0  0  0  0  0  0  0  0  0  0  0
   43.5140   82.4680   61.3340 N   0  0  0  0  0  0  0  0  0  0  0  0
   38.9530   83.5420   61.9860 C   0  0  0  0  0  0  0  0  0  0  0  0
   40.2110   83.1240   62.4220 C   0  0  0  0  0  0  0  0  0  0  0  0
   41.3210   83.5580   61.7110 C   0  0  0  0  0  0  0  0  0  0  0  0
   41.1490   84.3700   60.6230 N   0  0  0  0  0  0  0  0  0  0  0  0
   39.8990   84.7430   60.2460 C   0  0  0  0  0  0  0  0  0  0  0  0
   38.8130   84.3360   60.9170 N   0  0  0  0  0  0  0  0  0  0  0  0
   45.8240   81.5760   61.5510 C   0  0  0  0  0  0  0  0  0  0  0  0
   45.5510   81.0620   60.1680 C   0  0  0  0  0  0  0  0  0  0  0  0
   42.7737   83.9839   64.1937 H   0  0  0  0  0  0  0  0  0  0  0  0
   45.2470   82.8588   64.0224 H   0  0  0  0  0  0  0  0  0  0  0  0
   38.0571   83.2121   62.5323 H   0  0  0  0  0  0  0  0  0  0  0  0
   40.3193   82.4715   63.3009 H   0  0  0  0  0  0  0  0  0  0  0  0
   39.7750   85.3949   59.3687 H   0  0  0  0  0  0  0  0  0  0  0  0
   46.6802   82.2663   61.5295 H   0  0  0  0  0  0  0  0  0  0  0  0
   46.0625   80.7413   62.2266 H   0  0  0  0  0  0  0  0  0  0  0  0
   45.0359   80.0922   60.2323 H   0  0  0  0  0  0  0  0  0  0  0  0
   44.9153   81.7798   59.6289 H   0  0  0  0  0  0  0  0  0  0  0  0
   46.5017   80.9372   59.6289 H   0  0  0  0  0  0  0  0  0  0  0  0
  1  2  1  0
  3  2  2  0
  4  3  1  0
  5  4  1  0
  5  1  2  0
  6  7  2  0
  8  1  1  0
  8  7  1  0
  9  8  2  0
 10  9  1  0
 10 11  2  0
 11  6  1  0
 12  4  1  0
 13 12  1  0
  2 14  1  0
  3 15  1  0
  6 16  1  0
  7 17  1  0
 10 18  1  0
 12 19  1  0
 12 20  1  0
 13 21  1  0
 13 22  1  0
 13 23  1  0
M  ISO  8  14  14  15  14  16  14  17  14  18  14  19   8  20   8  21   8
M  ISO  2  22   8  23   8
M  END
>  <minimizedAffinity>  (1) 
-3.97826028

>  <minimizedRMSD>  (1) 
6.07798958

$$$$
