
     RDKit          3D

 39 41  0  0  0  0  0  0  0  0999 V2000
   40.3160   79.7290   58.4820 C   0  0  0  0  0  0  0  0  0  0  0  0
   40.0440   80.6260   57.4410 C   0  0  0  0  0  0  0  0  0  0  0  0
   40.6110   81.9050   57.5440 C   0  0  0  0  0  0  0  0  0  0  0  0
   41.3710   82.1630   58.6350 N   0  0  0  0  0  0  0  0  0  0  0  0
   41.6180   81.3120   59.6040 C   0  0  0  0  0  0  0  0  0  0  0  0
   41.0830   80.1020   59.5120 N   0  0  0  0  0  0  0  0  0  0  0  0
   39.2320   80.2390   56.3470 N   0  0  0  0  0  0  0  0  0  0  0  0
   38.0800   79.6640   56.7080 C   0  0  0  0  0  0  0  0  0  0  0  0
   37.2070   79.2460   55.7010 C   0  0  0  0  0  0  0  0  0  0  0  0
   37.5690   79.4440   54.3630 C   0  0  0  0  0  0  0  0  0  0  0  0
   36.8550   79.1040   53.3870 O   0  0  0  0  0  0  0  0  0  0  0  0
   38.7650   80.0390   54.0850 N   0  0  0  0  0  0  0  0  0  0  0  0
   39.6110   80.4450   55.0690 C   0  0  0  0  0  0  0  0  0  0  0  0
   40.7050   80.9920   54.8240 O   0  0  0  0  0  0  0  0  0  0  0  0
   41.9020   82.4250   61.7970 C   0  0  0  0  0  0  0  0  0  0  0  0
   42.4480   81.7720   60.7080 C   0  0  0  0  0  0  0  0  0  0  0  0
   43.8010   81.5040   60.6450 C   0  0  0  0  0  0  0  0  0  0  0  0
   44.6890   81.8680   61.6570 C   0  0  0  0  0  0  0  0  0  0  0  0
   44.1710   82.5190   62.7530 C   0  0  0  0  0  0  0  0  0  0  0  0
   42.8170   82.7820   62.8090 C   0  0  0  0  0  0  0  0  0  0  0  0
   40.2240   82.7920   61.9070 S   0  0  0  0  0  0  0  0  0  0  0  0
   39.9040   83.2740   63.3170 O   0  0  0  0  0  0  0  0  0  0  0  0
   39.4770   81.4540   61.8880 O   0  0  0  0  0  0  0  0  0  0  0  0
   39.5240   83.9700   60.8570 C   0  0  0  0  0  0  0  0  0  0  0  0
   40.6240   84.9300   60.3030 C   0  0  0  0  0  0  0  0  0  0  0  0
   39.8965   78.7126   58.4521 H   0  0  0  0  0  0  0  0  0  0  0  0
   40.4449   82.6681   56.7694 H   0  0  0  0  0  0  0  0  0  0  0  0
   37.8267   79.5240   57.7692 H   0  0  0  0  0  0  0  0  0  0  0  0
   36.2493   78.7684   55.9553 H   0  0  0  0  0  0  0  0  0  0  0  0
   39.0347   80.1848   53.1017 H   0  0  0  0  0  0  0  0  0  0  0  0
   44.1947   80.9820   59.7604 H   0  0  0  0  0  0  0  0  0  0  0  0
   45.7631   81.6431   61.5818 H   0  0  0  0  0  0  0  0  0  0  0  0
   44.8304   82.8273   63.5777 H   0  0  0  0  0  0  0  0  0  0  0  0
   42.4281   83.3017   63.6971 H   0  0  0  0  0  0  0  0  0  0  0  0
   39.0323   83.4590   60.0161 H   0  0  0  0  0  0  0  0  0  0  0  0
   38.7888   84.5602   61.4237 H   0  0  0  0  0  0  0  0  0  0  0  0
   41.1595   85.3973   61.1426 H   0  0  0  0  0  0  0  0  0  0  0  0
   41.3342   84.3578   59.6881 H   0  0  0  0  0  0  0  0  0  0  0  0
   40.1531   85.7111   59.6881 H   0  0  0  0  0  0  0  0  0  0  0  0
  1  6  2  0
  2  3  2  0
  2  1  1  0
  3  4  1  0
  4  5  2  0
  5 16  1  0
  6  5  1  0
  7  8  1  0
  7  2  1  0
  9  8  2  0
 10  9  1  0
 11 10  2  0
 12 10  1  0
 12 13  1  0
 13  7  1  0
 14 13  2  0
 15 21  1  0
 15 20  2  0
 16 15  1  0
 17 16  2  0
 17 18  1  0
 18 19  2  0
 19 20  1  0
 21 22  2  0
 23 21  2  0
 24 21  1  0
 25 24  1  0
  1 26  1  0
  3 27  1  0
  8 28  1  0
  9 29  1  0
 12 30  1  0
 17 31  1  0
 18 32  1  0
 19 33  1  0
 20 34  1  0
 24 35  1  0
 24 36  1  0
 25 37  1  0
 25 38  1  0
 25 39  1  0
M  ISO  8  26  14  27  14  28  14  29  14  30   9  31  14  32  14  33  14
M  ISO  6  34  14  35   8  36   8  37   8  38   8  39   8
M  END
>  <minimizedAffinity>  (1) 
-5.69182682

>  <minimizedRMSD>  (1) 
0.396629512

$$$$
