
     RDKit          3D

 29 30  0  0  0  0  0  0  0  0999 V2000
   40.3160   82.4810   58.4210 Cl  0  0  0  0  0  0  0  0  0  0  0  0
   40.1960   80.7730   58.8510 C   0  0  0  0  0  0  0  0  0  0  0  0
   40.3900   80.3300   60.1470 C   0  0  0  0  0  0  0  0  0  0  0  0
   40.2610   78.9580   60.3140 C   0  0  0  0  0  0  0  0  0  0  0  0
   39.9690   78.0270   59.3370 C   0  0  0  0  0  0  0  0  0  0  0  0
   39.7900   78.5220   58.0860 C   0  0  0  0  0  0  0  0  0  0  0  0
   39.4070   77.4480   56.7370 Cl  0  0  0  0  0  0  0  0  0  0  0  0
   39.9030   79.8830   57.8450 C   0  0  0  0  0  0  0  0  0  0  0  0
   41.9370   81.5150   61.7560 C   0  0  0  0  0  0  0  0  0  0  0  0
   40.6940   81.2570   61.1740 C   0  0  0  0  0  0  0  0  0  0  0  0
   39.6010   81.9960   61.6490 C   0  0  0  0  0  0  0  0  0  0  0  0
   39.8330   82.9040   62.6370 N   0  0  0  0  0  0  0  0  0  0  0  0
   41.0490   83.1250   63.1760 C   0  0  0  0  0  0  0  0  0  0  0  0
   42.0920   82.4230   62.7240 N   0  0  0  0  0  0  0  0  0  0  0  0
   41.1070   84.1540   64.2420 C   0  0  0  0  0  0  0  0  0  0  0  0
   40.9400   85.4230   63.7480 F   0  0  0  0  0  0  0  0  0  0  0  0
   40.1140   83.9150   65.1720 F   0  0  0  0  0  0  0  0  0  0  0  0
   42.3560   84.1560   64.8530 F   0  0  0  0  0  0  0  0  0  0  0  0
   39.6980   80.3990   56.4480 C   0  0  0  0  0  0  0  0  0  0  0  0
   38.2040   80.4710   56.1620 C   0  0  0  0  0  0  0  0  0  0  0  0
   40.4070   78.5712   61.3334 H   0  0  0  0  0  0  0  0  0  0  0  0
   39.8867   76.9527   59.5584 H   0  0  0  0  0  0  0  0  0  0  0  0
   42.8159   80.9532   61.4067 H   0  0  0  0  0  0  0  0  0  0  0  0
   38.5916   81.8474   61.2379 H   0  0  0  0  0  0  0  0  0  0  0  0
   40.1401   81.4021   56.3565 H   0  0  0  0  0  0  0  0  0  0  0  0
   40.1830   79.7244   55.7271 H   0  0  0  0  0  0  0  0  0  0  0  0
   37.6497   80.4977   57.1118 H   0  0  0  0  0  0  0  0  0  0  0  0
   37.9848   81.3808   55.5838 H   0  0  0  0  0  0  0  0  0  0  0  0
   37.8983   79.5865   55.5838 H   0  0  0  0  0  0  0  0  0  0  0  0
  1  2  1  0
  2  3  2  0
  3  4  1  0
  3 10  1  0
  5  4  2  0
  6  5  1  0
  7  6  1  0
  8  6  2  0
  8  2  1  0
  9 14  2  0
 10 11  2  0
 10  9  1  0
 11 12  1  0
 12 13  2  0
 13 15  1  0
 14 13  1  0
 15 18  1  0
 15 17  1  0
 16 15  1  0
 19  8  1  0
 20 19  1  0
  4 21  1  0
  5 22  1  0
  9 23  1  0
 11 24  1  0
 19 25  1  0
 19 26  1  0
 20 27  1  0
 20 28  1  0
 20 29  1  0
M  ISO  8  21  14  22  14  23  14  24  14  25   8  26   8  27   8  28   8
M  ISO  1  29   8
M  END
>  <minimizedAffinity>  (1) 
-5.76065063

>  <minimizedRMSD>  (1) 
1.97814214

$$$$
