
     RDKit          3D

 38 40  0  0  0  0  0  0  0  0999 V2000
   43.1110   83.8980   58.5780 Cl  0  0  0  0  0  0  0  0  0  0  0  0
   41.8610   82.7170   58.1900 C   0  0  0  0  0  0  0  0  0  0  0  0
   40.9870   82.2210   59.1320 C   0  0  0  0  0  0  0  0  0  0  0  0
   40.0700   81.3120   58.6580 C   0  0  0  0  0  0  0  0  0  0  0  0
   39.9430   80.8600   57.3670 C   0  0  0  0  0  0  0  0  0  0  0  0
   40.8300   81.3800   56.4770 C   0  0  0  0  0  0  0  0  0  0  0  0
   40.7770   80.8890   54.7770 Cl  0  0  0  0  0  0  0  0  0  0  0  0
   41.7960   82.3160   56.8880 C   0  0  0  0  0  0  0  0  0  0  0  0
   41.9400   82.1640   61.4860 C   0  0  0  0  0  0  0  0  0  0  0  0
   41.0950   82.6690   60.4790 C   0  0  0  0  0  0  0  0  0  0  0  0
   40.2670   83.7250   60.8290 C   0  0  0  0  0  0  0  0  0  0  0  0
   40.3430   84.1800   62.1140 N   0  0  0  0  0  0  0  0  0  0  0  0
   41.1640   83.6680   63.0410 C   0  0  0  0  0  0  0  0  0  0  0  0
   41.9860   82.6320   62.7240 N   0  0  0  0  0  0  0  0  0  0  0  0
   41.0810   84.3160   64.3780 C   0  0  0  0  0  0  0  0  0  0  0  0
   40.7560   85.6410   64.3020 F   0  0  0  0  0  0  0  0  0  0  0  0
   40.1280   83.6550   65.1580 F   0  0  0  0  0  0  0  0  0  0  0  0
   42.3330   84.2570   65.0180 F   0  0  0  0  0  0  0  0  0  0  0  0
   42.6650   82.8020   55.9260 O   0  0  0  0  0  0  0  0  0  0  0  0
   42.4200   83.9340   55.1360 C   0  0  0  0  0  0  0  0  0  0  0  0
   43.4080   83.8320   52.7510 C   0  0  0  0  0  0  0  0  0  0  0  0
   43.4370   84.0710   54.0970 C   0  0  0  0  0  0  0  0  0  0  0  0
   44.6610   84.5620   54.5810 C   0  0  0  0  0  0  0  0  0  0  0  0
   45.7150   84.7720   53.7240 C   0  0  0  0  0  0  0  0  0  0  0  0
   45.6500   84.5200   52.3710 C   0  0  0  0  0  0  0  0  0  0  0  0
   44.4420   84.0310   51.8760 C   0  0  0  0  0  0  0  0  0  0  0  0
   41.1640   82.8740   51.8570 N   0  0  0  0  0  0  0  0  0  0  0  0
   42.1530   83.3060   52.2600 C   0  0  0  0  0  0  0  0  0  0  0  0
   39.3612   80.9024   59.3927 H   0  0  0  0  0  0  0  0  0  0  0  0
   39.1765   80.1277   57.0733 H   0  0  0  0  0  0  0  0  0  0  0  0
   42.6048   81.3266   61.2276 H   0  0  0  0  0  0  0  0  0  0  0  0
   39.5773   84.1774   60.1012 H   0  0  0  0  0  0  0  0  0  0  0  0
   41.4318   83.8366   54.6628 H   0  0  0  0  0  0  0  0  0  0  0  0
   42.4503   84.8260   55.7789 H   0  0  0  0  0  0  0  0  0  0  0  0
   44.7767   84.7799   55.6530 H   0  0  0  0  0  0  0  0  0  0  0  0
   46.6568   85.1604   54.1389 H   0  0  0  0  0  0  0  0  0  0  0  0
   46.5123   84.6967   51.7112 H   0  0  0  0  0  0  0  0  0  0  0  0
   44.3221   83.8097   50.8052 H   0  0  0  0  0  0  0  0  0  0  0  0
  2  1  1  0
  2  3  2  0
  3 10  1  0
  4  3  1  0
  5  4  2  0
  6  8  2  0
  6  5  1  0
  7  6  1  0
  8  2  1  0
  9 14  2  0
 10 11  2  0
 10  9  1  0
 11 12  1  0
 12 13  2  0
 13 15  1  0
 14 13  1  0
 15 18  1  0
 15 17  1  0
 16 15  1  0
 19  8  1  0
 20 19  1  0
 21 22  2  0
 22 23  1  0
 22 20  1  0
 24 23  2  0
 25 24  1  0
 26 25  2  0
 26 21  1  0
 27 28  3  0
 28 21  1  0
  4 29  1  0
  5 30  1  0
  9 31  1  0
 11 32  1  0
 20 33  1  0
 20 34  1  0
 23 35  1  0
 24 36  1  0
 25 37  1  0
 26 38  1  0
M  ISO  8  29  14  30  14  31  14  32  14  33   8  34   8  35  14  36  14
M  ISO  2  37  14  38  14
M  END
>  <minimizedAffinity>  (1) 
-5.0320878

>  <minimizedRMSD>  (1) 
0.98228085

$$$$
