
     RDKit          3D

 39 42  0  0  0  0  0  0  0  0999 V2000
   41.8200   84.2530   61.6230 C   0  0  0  0  0  0  0  0  0  0  0  0
   41.3840   83.9750   62.9110 C   0  0  0  0  0  0  0  0  0  0  0  0
   40.1000   83.5620   63.1810 C   0  0  0  0  0  0  0  0  0  0  0  0
   39.1990   83.4160   62.1310 C   0  0  0  0  0  0  0  0  0  0  0  0
   39.6250   83.6910   60.8370 C   0  0  0  0  0  0  0  0  0  0  0  0
   40.9150   84.1040   60.5790 C   0  0  0  0  0  0  0  0  0  0  0  0
   45.4310   84.1250   61.0760 C   0  0  0  0  0  0  0  0  0  0  0  0
   45.7760   85.4790   60.9780 C   0  0  0  0  0  0  0  0  0  0  0  0
   44.7510   86.4310   61.1020 C   0  0  0  0  0  0  0  0  0  0  0  0
   43.4800   85.9980   61.3110 N   0  0  0  0  0  0  0  0  0  0  0  0
   43.1820   84.6830   61.4000 C   0  0  0  0  0  0  0  0  0  0  0  0
   44.1500   83.7860   61.2830 N   0  0  0  0  0  0  0  0  0  0  0  0
   41.3100   84.3790   59.2130 C   0  0  0  0  0  0  0  0  0  0  0  0
   40.6470   85.5060   58.7100 C   0  0  0  0  0  0  0  0  0  0  0  0
   40.8860   85.9430   57.4080 C   0  0  0  0  0  0  0  0  0  0  0  0
   41.7660   85.2420   56.6730 N   0  0  0  0  0  0  0  0  0  0  0  0
   42.4080   84.1450   57.1690 C   0  0  0  0  0  0  0  0  0  0  0  0
   42.1760   83.7250   58.4280 N   0  0  0  0  0  0  0  0  0  0  0  0
   42.9170   82.2630   55.6920 C   0  0  0  0  0  0  0  0  0  0  0  0
   43.3600   83.4000   56.3500 C   0  0  0  0  0  0  0  0  0  0  0  0
   44.6740   83.8050   56.2250 C   0  0  0  0  0  0  0  0  0  0  0  0
   45.5530   83.0740   55.4380 C   0  0  0  0  0  0  0  0  0  0  0  0
   45.0620   81.9360   54.7940 C   0  0  0  0  0  0  0  0  0  0  0  0
   43.7550   81.5030   54.8980 C   0  0  0  0  0  0  0  0  0  0  0  0
   40.4420   81.4320   55.8670 N   0  0  0  0  0  0  0  0  0  0  0  0
   41.5470   81.8030   55.7960 C   0  0  0  0  0  0  0  0  0  0  0  0
   42.0908   84.0891   63.7461 H   0  0  0  0  0  0  0  0  0  0  0  0
   39.7893   83.3497   64.2146 H   0  0  0  0  0  0  0  0  0  0  0  0
   38.1664   83.0883   62.3219 H   0  0  0  0  0  0  0  0  0  0  0  0
   38.9186   83.5768   60.0016 H   0  0  0  0  0  0  0  0  0  0  0  0
   46.2033   83.3471   60.9841 H   0  0  0  0  0  0  0  0  0  0  0  0
   46.8183   85.7874   60.8090 H   0  0  0  0  0  0  0  0  0  0  0  0
   44.9727   87.5061   61.0313 H   0  0  0  0  0  0  0  0  0  0  0  0
   39.9333   86.0495   59.3465 H   0  0  0  0  0  0  0  0  0  0  0  0
   40.3746   86.8266   56.9985 H   0  0  0  0  0  0  0  0  0  0  0  0
   45.0241   84.7066   56.7489 H   0  0  0  0  0  0  0  0  0  0  0  0
   46.6032   83.3812   55.3250 H   0  0  0  0  0  0  0  0  0  0  0  0
   45.7547   81.3526   54.1696 H   0  0  0  0  0  0  0  0  0  0  0  0
   43.3998   80.6017   54.3770 H   0  0  0  0  0  0  0  0  0  0  0  0
  1  2  2  0
  2  3  1  0
  4  3  2  0
  5  4  1  0
  6  5  2  0
  6  1  1  0
  7 12  2  0
  8  7  1  0
  8  9  2  0
  9 10  1  0
 10 11  2  0
 11  1  1  0
 12 11  1  0
 13  6  1  0
 14 13  2  0
 15 14  1  0
 16 17  1  0
 16 15  2  0
 17 18  2  0
 18 13  1  0
 19 26  1  0
 19 20  2  0
 20 17  1  0
 21 20  1  0
 22 21  2  0
 23 24  2  0
 23 22  1  0
 24 19  1  0
 26 25  3  0
  2 27  1  0
  3 28  1  0
  4 29  1  0
  5 30  1  0
  7 31  1  0
  8 32  1  0
  9 33  1  0
 14 34  1  0
 15 35  1  0
 21 36  1  0
 22 37  1  0
 23 38  1  0
 24 39  1  0
M  ISO  8  27  14  28  14  29  14  30  14  31  14  32  14  33  14  34  14
M  ISO  5  35  14  36  14  37  14  38  14  39  14
M  END
>  <minimizedAffinity>  (1) 
-5.45894575

>  <minimizedRMSD>  (1) 
1.33559513

$$$$
