
     RDKit          3D

 23 24  0  0  0  0  0  0  0  0999 V2000
   39.2650   83.0400   61.6430 C   0  0  0  0  0  0  0  0  0  0  0  0
   39.5330   83.7880   60.4860 C   0  0  0  0  0  0  0  0  0  0  0  0
   40.3630   83.2010   59.5100 C   0  0  0  0  0  0  0  0  0  0  0  0
   40.8400   81.9630   59.7580 N   0  0  0  0  0  0  0  0  0  0  0  0
   40.5590   81.2820   60.8770 C   0  0  0  0  0  0  0  0  0  0  0  0
   39.7730   81.8260   61.8130 N   0  0  0  0  0  0  0  0  0  0  0  0
   38.4220   83.7530   62.5300 N   0  0  0  0  0  0  0  0  0  0  0  0
   42.3860   79.7360   61.5680 C   0  0  0  0  0  0  0  0  0  0  0  0
   41.1340   79.9500   61.0330 C   0  0  0  0  0  0  0  0  0  0  0  0
   40.3840   78.8650   60.6250 C   0  0  0  0  0  0  0  0  0  0  0  0
   40.8230   77.5530   60.7220 C   0  0  0  0  0  0  0  0  0  0  0  0
   42.0970   77.3560   61.2680 C   0  0  0  0  0  0  0  0  0  0  0  0
   42.8470   78.4250   61.6750 C   0  0  0  0  0  0  0  0  0  0  0  0
   43.8300   81.7410   62.3270 N   0  0  0  0  0  0  0  0  0  0  0  0
   43.1810   80.8430   61.9970 C   0  0  0  0  0  0  0  0  0  0  0  0
   39.1112   84.7943   60.3463 H   0  0  0  0  0  0  0  0  0  0  0  0
   40.6130   83.7324   58.5799 H   0  0  0  0  0  0  0  0  0  0  0  0
   38.0921   84.6963   62.2805 H   0  0  0  0  0  0  0  0  0  0  0  0
   38.1388   83.3283   63.4246 H   0  0  0  0  0  0  0  0  0  0  0  0
   39.3862   79.0508   60.2009 H   0  0  0  0  0  0  0  0  0  0  0  0
   40.2015   76.7096   60.3868 H   0  0  0  0  0  0  0  0  0  0  0  0
   42.4969   76.3364   61.3702 H   0  0  0  0  0  0  0  0  0  0  0  0
   43.8453   78.2444   62.1001 H   0  0  0  0  0  0  0  0  0  0  0  0
  1  6  2  0
  1  7  1  0
  2  1  1  0
  3  4  1  0
  3  2  2  0
  4  5  2  0
  5  9  1  0
  5  6  1  0
  8 13  2  0
  8 15  1  0
  9  8  1  0
 10 11  1  0
 10  9  2  0
 11 12  2  0
 12 13  1  0
 15 14  3  0
  2 16  1  0
  3 17  1  0
  7 18  1  0
  7 19  1  0
 10 20  1  0
 11 21  1  0
 12 22  1  0
 13 23  1  0
M  ISO  6  16  14  17  14  20  14  21  14  22  14  23  14
M  END
>  <minimizedAffinity>  (1) 
-4.31238031

>  <minimizedRMSD>  (1) 
5.61173344

$$$$
