
     RDKit          3D

 35 37  0  0  1  0  0  0  0  0999 V2000
   42.0570   84.1900   58.4250 Cl  0  0  0  0  0  0  0  0  0  0  0  0
   41.1910   82.6660   58.2670 C   0  0  0  0  0  0  0  0  0  0  0  0
   40.6970   81.9840   59.3500 C   0  0  0  0  0  0  0  0  0  0  0  0
   40.0330   80.8010   59.0630 C   0  0  0  0  0  0  0  0  0  0  0  0
   39.8330   80.2640   57.8040 C   0  0  0  0  0  0  0  0  0  0  0  0
   40.3520   80.9940   56.7540 C   0  0  0  0  0  0  0  0  0  0  0  0
   40.1410   80.4030   55.1160 Cl  0  0  0  0  0  0  0  0  0  0  0  0
   41.0330   82.1980   56.9890 C   0  0  0  0  0  0  0  0  0  0  0  0
   42.0170   82.3330   61.4950 C   0  0  0  0  0  0  0  0  0  0  0  0
   40.8870   82.5110   60.6640 C   0  0  0  0  0  0  0  0  0  0  0  0
   39.8400   83.2740   61.1540 C   0  0  0  0  0  0  0  0  0  0  0  0
   39.9490   83.8070   62.3960 N   0  0  0  0  0  0  0  0  0  0  0  0
   41.0420   83.6170   63.1630 C   0  0  0  0  0  0  0  0  0  0  0  0
   42.0760   82.8800   62.7130 N   0  0  0  0  0  0  0  0  0  0  0  0
   40.9960   84.2730   64.5010 C   0  0  0  0  0  0  0  0  0  0  0  0
   40.6650   85.6160   64.4150 F   0  0  0  0  0  0  0  0  0  0  0  0
   40.0890   83.6340   65.3120 F   0  0  0  0  0  0  0  0  0  0  0  0
   42.2620   84.2810   65.1010 F   0  0  0  0  0  0  0  0  0  0  0  0
   41.5190   82.8590   55.8770 O   0  0  0  0  0  0  0  0  0  0  0  0
   43.9450   84.9710   55.8660 O   0  0  0  0  0  0  0  0  0  0  0  0
   43.5510   83.9670   55.1740 C   0  0  0  0  0  0  0  0  0  0  0  0
   42.8200   82.7120   55.3410 C   0  0  2  0  0  0  0  0  0  0  0  0
   42.7590   82.1280   53.9480 C   0  0  0  0  0  0  0  0  0  0  0  0
   43.9390   82.7680   53.2550 C   0  0  0  0  0  0  0  0  0  0  0  0
   43.9450   84.0990   53.7940 N   0  0  0  0  0  0  0  0  0  0  0  0
   39.6275   80.2370   59.9160 H   0  0  0  0  0  0  0  0  0  0  0  0
   39.2953   79.3168   57.6498 H   0  0  0  0  0  0  0  0  0  0  0  0
   42.8641   81.7326   61.1319 H   0  0  0  0  0  0  0  0  0  0  0  0
   38.9381   83.4442   60.5477 H   0  0  0  0  0  0  0  0  0  0  0  0
   43.3324   82.0702   56.0728 H   0  0  0  0  0  0  0  0  0  0  0  0
   42.8628   81.0332   53.9741 H   0  0  0  0  0  0  0  0  0  0  0  0
   41.8027   82.3215   53.4400 H   0  0  0  0  0  0  0  0  0  0  0  0
   43.7967   82.7834   52.1644 H   0  0  0  0  0  0  0  0  0  0  0  0
   44.8837   82.2288   53.4191 H   0  0  0  0  0  0  0  0  0  0  0  0
   44.1822   84.9692   53.2966 H   0  0  0  0  0  0  0  0  0  0  0  0
  2  1  1  0
  2  3  2  0
  3 10  1  0
  4  3  1  0
  5  4  2  0
  6  8  2  0
  6  5  1  0
  7  6  1  0
  8  2  1  0
  9 14  2  0
 10 11  2  0
 10  9  1  0
 11 12  1  0
 12 13  2  0
 13 15  1  0
 14 13  1  0
 15 18  1  0
 15 17  1  0
 16 15  1  0
 19  8  1  0
 21 22  1  0
 21 20  2  0
 22 19  1  0
 23 22  1  0
 24 25  1  0
 24 23  1  0
 25 21  1  0
  4 26  1  0
  5 27  1  0
  9 28  1  0
 11 29  1  0
 22 30  1  1
 23 31  1  0
 23 32  1  0
 24 33  1  0
 24 34  1  0
 25 35  1  0
M  ISO  8  26  14  27  14  28  14  29  14  30  13  31  13  32  13  33  13
M  ISO  2  34  13  35  10
M  END
>  <minimizedAffinity>  (1) 
-5.2952199

>  <minimizedRMSD>  (1) 
0.334031075

$$$$
