
     RDKit          3D

 34 36  0  0  0  0  0  0  0  0999 V2000
   40.8950   80.2400   61.6850 C   0  0  0  0  0  0  0  0  0  0  0  0
   40.8270   79.0210   62.3350 C   0  0  0  0  0  0  0  0  0  0  0  0
   40.4620   77.9480   61.6090 C   0  0  0  0  0  0  0  0  0  0  0  0
   40.1700   78.0870   60.2600 C   0  0  0  0  0  0  0  0  0  0  0  0
   40.4280   79.8960   59.9670 S   0  0  0  0  0  0  0  0  0  0  0  0
   42.9480   83.0510   62.8400 C   0  0  0  0  0  0  0  0  0  0  0  0
   42.0250   83.8560   63.5540 C   0  0  0  0  0  0  0  0  0  0  0  0
   40.7190   83.4220   63.6270 C   0  0  0  0  0  0  0  0  0  0  0  0
   40.3790   82.2630   63.0220 N   0  0  0  0  0  0  0  0  0  0  0  0
   41.2820   81.5180   62.3470 C   0  0  0  0  0  0  0  0  0  0  0  0
   42.5440   81.9070   62.2590 N   0  0  0  0  0  0  0  0  0  0  0  0
   39.7590   77.2280   59.1790 C   0  0  0  0  0  0  0  0  0  0  0  0
   40.4650   76.0760   58.9540 C   0  0  0  0  0  0  0  0  0  0  0  0
   39.9540   75.3410   57.8740 C   0  0  0  0  0  0  0  0  0  0  0  0
   38.8880   75.7130   57.1310 N   0  0  0  0  0  0  0  0  0  0  0  0
   38.2600   76.8740   57.4390 C   0  0  0  0  0  0  0  0  0  0  0  0
   38.7010   77.6380   58.4730 N   0  0  0  0  0  0  0  0  0  0  0  0
   37.1190   77.2770   56.6440 C   0  0  0  0  0  0  0  0  0  0  0  0
   35.9990   77.2270   57.1910 O   0  0  0  0  0  0  0  0  0  0  0  0
   37.2960   77.7200   55.2650 C   0  0  0  0  0  0  0  0  0  0  0  0
   37.4310   78.9940   54.9360 C   0  0  0  0  0  0  0  0  0  0  0  0
   37.4060   80.0500   55.9790 C   0  0  0  0  0  0  0  0  0  0  0  0
   41.0625   78.9317   63.4058 H   0  0  0  0  0  0  0  0  0  0  0  0
   40.3951   76.9592   62.0862 H   0  0  0  0  0  0  0  0  0  0  0  0
   43.9997   83.3634   62.7607 H   0  0  0  0  0  0  0  0  0  0  0  0
   42.3403   84.7946   64.0332 H   0  0  0  0  0  0  0  0  0  0  0  0
   39.9647   84.0106   64.1698 H   0  0  0  0  0  0  0  0  0  0  0  0
   41.3336   75.7629   59.5520 H   0  0  0  0  0  0  0  0  0  0  0  0
   40.4553   74.3970   57.6139 H   0  0  0  0  0  0  0  0  0  0  0  0
   37.3181   76.9637   54.4666 H   0  0  0  0  0  0  0  0  0  0  0  0
   37.5629   79.2734   53.8803 H   0  0  0  0  0  0  0  0  0  0  0  0
   37.4171   79.5824   56.9746 H   0  0  0  0  0  0  0  0  0  0  0  0
   38.2891   80.6963   55.8676 H   0  0  0  0  0  0  0  0  0  0  0  0
   36.4933   80.6538   55.8676 H   0  0  0  0  0  0  0  0  0  0  0  0
  1  2  2  0
  1 10  1  0
  3  2  1  0
  4  3  2  0
  5  4  1  0
  5  1  1  0
  6  7  2  0
  7  8  1  0
  9  8  2  0
 10  9  1  0
 11 10  2  0
 11  6  1  0
 12  4  1  0
 13 12  2  0
 14 13  1  0
 15 16  1  0
 15 14  2  0
 16 17  2  0
 17 12  1  0
 18 19  2  0
 18 16  1  0
 20 18  1  0
 21 20  2  0
 21 22  1  0
  2 23  1  0
  3 24  1  0
  6 25  1  0
  7 26  1  0
  8 27  1  0
 13 28  1  0
 14 29  1  0
 20 30  1  0
 21 31  1  0
 22 32  1  0
 22 33  1  0
 22 34  1  0
M  ISO  8  23  14  24  14  25  14  26  14  27  14  28  14  29  14  32   8
M  ISO  2  33   8  34   8
M  END
>  <minimizedAffinity>  (1) 
-6.01259565

>  <minimizedRMSD>  (1) 
0.513695598

$$$$
