
     RDKit          3D

 35 38  0  0  0  0  0  0  0  0999 V2000
   41.8150   84.2400   61.5710 C   0  0  0  0  0  0  0  0  0  0  0  0
   41.4610   83.9660   62.8880 C   0  0  0  0  0  0  0  0  0  0  0  0
   40.1890   83.5480   63.2350 C   0  0  0  0  0  0  0  0  0  0  0  0
   39.2370   83.3950   62.2370 C   0  0  0  0  0  0  0  0  0  0  0  0
   39.5770   83.6660   60.9090 C   0  0  0  0  0  0  0  0  0  0  0  0
   40.8520   84.0840   60.5780 C   0  0  0  0  0  0  0  0  0  0  0  0
   45.3230   84.1480   60.5830 C   0  0  0  0  0  0  0  0  0  0  0  0
   45.7230   85.4670   60.6870 C   0  0  0  0  0  0  0  0  0  0  0  0
   44.7600   86.4160   61.1080 C   0  0  0  0  0  0  0  0  0  0  0  0
   43.5090   85.9750   61.3840 N   0  0  0  0  0  0  0  0  0  0  0  0
   43.1530   84.6720   61.2710 C   0  0  0  0  0  0  0  0  0  0  0  0
   44.0660   83.7780   60.8720 N   0  0  0  0  0  0  0  0  0  0  0  0
   41.1630   84.3540   59.1950 C   0  0  0  0  0  0  0  0  0  0  0  0
   40.8510   85.6750   58.8450 C   0  0  0  0  0  0  0  0  0  0  0  0
   41.0760   86.1390   57.5530 C   0  0  0  0  0  0  0  0  0  0  0  0
   41.5980   85.2780   56.6670 N   0  0  0  0  0  0  0  0  0  0  0  0
   41.8960   83.9990   57.0180 C   0  0  0  0  0  0  0  0  0  0  0  0
   41.6830   83.5380   58.2650 N   0  0  0  0  0  0  0  0  0  0  0  0
   42.4600   83.1110   56.0150 C   0  0  0  0  0  0  0  0  0  0  0  0
   41.6610   82.0270   55.6430 C   0  0  0  0  0  0  0  0  0  0  0  0
   42.3600   81.2910   54.6800 C   0  0  0  0  0  0  0  0  0  0  0  0
   43.5600   81.9980   54.5340 C   0  0  0  0  0  0  0  0  0  0  0  0
   43.5790   83.0450   55.3230 O   0  0  0  0  0  0  0  0  0  0  0  0
   42.2165   84.0855   63.6785 H   0  0  0  0  0  0  0  0  0  0  0  0
   39.9361   83.3402   64.2852 H   0  0  0  0  0  0  0  0  0  0  0  0
   38.2196   83.0620   62.4901 H   0  0  0  0  0  0  0  0  0  0  0  0
   38.8216   83.5453   60.1185 H   0  0  0  0  0  0  0  0  0  0  0  0
   46.0483   83.3878   60.2574 H   0  0  0  0  0  0  0  0  0  0  0  0
   46.7540   85.7691   60.4508 H   0  0  0  0  0  0  0  0  0  0  0  0
   45.0200   87.4801   61.2080 H   0  0  0  0  0  0  0  0  0  0  0  0
   40.4239   86.3517   59.5997 H   0  0  0  0  0  0  0  0  0  0  0  0
   40.8347   87.1738   57.2685 H   0  0  0  0  0  0  0  0  0  0  0  0
   40.6608   81.7937   56.0369 H   0  0  0  0  0  0  0  0  0  0  0  0
   42.0424   80.3747   54.1609 H   0  0  0  0  0  0  0  0  0  0  0  0
   44.3745   81.7140   53.8514 H   0  0  0  0  0  0  0  0  0  0  0  0
  1  2  2  0
  2  3  1  0
  4  3  2  0
  5  4  1  0
  6  5  2  0
  6  1  1  0
  7  8  2  0
  7 12  1  0
  8  9  1  0
  9 10  2  0
 11 10  1  0
 11  1  1  0
 12 11  2  0
 13  6  1  0
 14 13  2  0
 15 14  1  0
 16 17  1  0
 16 15  2  0
 17 18  2  0
 18 13  1  0
 19 17  1  0
 20 19  2  0
 21 20  1  0
 22 21  2  0
 22 23  1  0
 23 19  1  0
  2 24  1  0
  3 25  1  0
  4 26  1  0
  5 27  1  0
  7 28  1  0
  8 29  1  0
  9 30  1  0
 14 31  1  0
 15 32  1  0
 20 33  1  0
 21 34  1  0
 22 35  1  0
M  ISO  8  24  14  25  14  26  14  27  14  28  14  29  14  30  14  31  14
M  ISO  4  32  14  33  14  34  14  35  14
M  END
>  <minimizedAffinity>  (1) 
-5.41879797

>  <minimizedRMSD>  (1) 
0.465099752

$$$$
