
     RDKit          3D

 40 44  0  0  0  0  0  0  0  0999 V2000
   40.7370   81.7630   57.1190 C   0  0  0  0  0  0  0  0  0  0  0  0
   41.8110   82.3430   56.4220 C   0  0  0  0  0  0  0  0  0  0  0  0
   42.5890   83.2590   57.0990 C   0  0  0  0  0  0  0  0  0  0  0  0
   42.3040   83.5730   58.4040 N   0  0  0  0  0  0  0  0  0  0  0  0
   41.2550   82.9860   59.0430 C   0  0  0  0  0  0  0  0  0  0  0  0
   40.4670   82.0800   58.4010 N   0  0  0  0  0  0  0  0  0  0  0  0
   39.6800   83.0970   60.9110 C   0  0  0  0  0  0  0  0  0  0  0  0
   40.9820   83.2930   60.4400 C   0  0  0  0  0  0  0  0  0  0  0  0
   42.0000   83.7490   61.2800 C   0  0  0  0  0  0  0  0  0  0  0  0
   41.7650   84.0230   62.6070 C   0  0  0  0  0  0  0  0  0  0  0  0
   42.4580   84.4500   63.6700 N   0  0  0  0  0  0  0  0  0  0  0  0
   41.6620   84.5280   64.7660 C   0  0  0  0  0  0  0  0  0  0  0  0
   40.4540   84.1340   64.3380 N   0  0  0  0  0  0  0  0  0  0  0  0
   40.4790   83.8180   63.0320 C   0  0  0  0  0  0  0  0  0  0  0  0
   39.4170   83.3690   62.2580 C   0  0  0  0  0  0  0  0  0  0  0  0
   42.3590   83.6230   54.1620 Cl  0  0  0  0  0  0  0  0  0  0  0  0
   43.7500   84.1220   55.1000 C   0  0  0  0  0  0  0  0  0  0  0  0
   43.7090   83.8990   56.4510 C   0  0  0  0  0  0  0  0  0  0  0  0
   44.8430   84.3400   57.1300 C   0  0  0  0  0  0  0  0  0  0  0  0
   45.9170   84.9430   56.5160 C   0  0  0  0  0  0  0  0  0  0  0  0
   45.8980   85.1360   55.1590 C   0  0  0  0  0  0  0  0  0  0  0  0
   47.2670   85.8900   54.3580 Cl  0  0  0  0  0  0  0  0  0  0  0  0
   44.7940   84.7190   54.4420 C   0  0  0  0  0  0  0  0  0  0  0  0
   44.8680   84.9670   53.0070 C   0  0  0  0  0  0  0  0  0  0  0  0
   44.4300   86.0170   52.2430 C   0  0  0  0  0  0  0  0  0  0  0  0
   44.7060   85.8500   50.9070 C   0  0  0  0  0  0  0  0  0  0  0  0
   45.3400   84.6320   50.9090 C   0  0  0  0  0  0  0  0  0  0  0  0
   45.4030   84.1840   52.1070 O   0  0  0  0  0  0  0  0  0  0  0  0
   40.0990   81.0299   56.6038 H   0  0  0  0  0  0  0  0  0  0  0  0
   42.0231   82.0765   55.3761 H   0  0  0  0  0  0  0  0  0  0  0  0
   38.8845   82.7389   60.2410 H   0  0  0  0  0  0  0  0  0  0  0  0
   43.0113   83.8921   60.8716 H   0  0  0  0  0  0  0  0  0  0  0  0
   43.4602   84.6873   63.6575 H   0  0  0  0  0  0  0  0  0  0  0  0
   41.9450   84.8444   65.7808 H   0  0  0  0  0  0  0  0  0  0  0  0
   38.4126   83.2331   62.6854 H   0  0  0  0  0  0  0  0  0  0  0  0
   44.8821   84.1979   58.2201 H   0  0  0  0  0  0  0  0  0  0  0  0
   46.7842   85.2677   57.1098 H   0  0  0  0  0  0  0  0  0  0  0  0
   43.9140   86.8972   52.6541 H   0  0  0  0  0  0  0  0  0  0  0  0
   44.4792   86.5153   50.0609 H   0  0  0  0  0  0  0  0  0  0  0  0
   45.7333   84.1199   50.0185 H   0  0  0  0  0  0  0  0  0  0  0  0
  1  6  2  0
  2  3  2  0
  2  1  1  0
  3  4  1  0
  4  5  2  0
  5  8  1  0
  6  5  1  0
  7 15  2  0
  8  7  1  0
  8  9  2  0
  9 10  1  0
 10 14  2  0
 10 11  1  0
 11 12  1  0
 13 12  2  0
 14 13  1  0
 15 14  1  0
 16 17  1  0
 17 18  2  0
 18  3  1  0
 18 19  1  0
 20 19  2  0
 21 20  1  0
 22 21  1  0
 23 17  1  0
 23 21  2  0
 24 23  1  0
 25 24  2  0
 26 27  2  0
 26 25  1  0
 27 28  1  0
 28 24  1  0
  1 29  1  0
  2 30  1  0
  7 31  1  0
  9 32  1  0
 11 33  1  0
 12 34  1  0
 15 35  1  0
 19 36  1  0
 20 37  1  0
 25 38  1  0
 26 39  1  0
 27 40  1  0
M  ISO  8  29  14  30  14  31  14  32  14  33   9  34  14  35  14  36  14
M  ISO  4  37  14  38  14  39  14  40  14
M  END
>  <minimizedAffinity>  (1) 
-5.03062201

>  <minimizedRMSD>  (1) 
0.0449847616

$$$$
