
     RDKit          3D

 23 25  0  0  0  0  0  0  0  0999 V2000
   41.8790   83.5320   57.3620 C   0  0  0  0  0  0  0  0  0  0  0  0
   41.7720   84.8450   56.8770 C   0  0  0  0  0  0  0  0  0  0  0  0
   41.1930   85.8330   57.7050 C   0  0  0  0  0  0  0  0  0  0  0  0
   40.7780   85.4350   58.9270 N   0  0  0  0  0  0  0  0  0  0  0  0
   40.8930   84.1690   59.3660 C   0  0  0  0  0  0  0  0  0  0  0  0
   41.4380   83.2280   58.5930 N   0  0  0  0  0  0  0  0  0  0  0  0
   42.4790   82.6690   56.4150 N   0  0  0  0  0  0  0  0  0  0  0  0
   40.4240   83.8490   60.6730 N   0  0  0  0  0  0  0  0  0  0  0  0
   39.2350   83.2590   60.9230 C   0  0  0  0  0  0  0  0  0  0  0  0
   39.1550   83.1220   62.2720 N   0  0  0  0  0  0  0  0  0  0  0  0
   40.2710   83.6160   62.8280 C   0  0  0  0  0  0  0  0  0  0  0  0
   40.6320   83.6900   64.1740 C   0  0  0  0  0  0  0  0  0  0  0  0
   41.8350   84.2500   64.4090 N   0  0  0  0  0  0  0  0  0  0  0  0
   42.6460   84.7100   63.4360 C   0  0  0  0  0  0  0  0  0  0  0  0
   42.2920   84.6370   62.1210 N   0  0  0  0  0  0  0  0  0  0  0  0
   41.0920   84.0830   61.8260 C   0  0  0  0  0  0  0  0  0  0  0  0
   42.1327   85.1004   55.8697 H   0  0  0  0  0  0  0  0  0  0  0  0
   41.0856   86.8754   57.3705 H   0  0  0  0  0  0  0  0  0  0  0  0
   42.7740   83.0353   55.4987 H   0  0  0  0  0  0  0  0  0  0  0  0
   42.6208   81.6744   56.6419 H   0  0  0  0  0  0  0  0  0  0  0  0
   38.4822   82.9511   60.1824 H   0  0  0  0  0  0  0  0  0  0  0  0
   39.9838   83.3194   64.9818 H   0  0  0  0  0  0  0  0  0  0  0  0
   43.6148   85.1541   63.7084 H   0  0  0  0  0  0  0  0  0  0  0  0
  1  6  2  0
  2  1  1  0
  2  3  2  0
  3  4  1  0
  4  5  2  0
  5  8  1  0
  6  5  1  0
  7  1  1  0
  8  9  1  0
  8 16  1  0
  9 10  2  0
 10 11  1  0
 11 12  2  0
 12 13  1  0
 14 13  2  0
 15 14  1  0
 16 15  2  0
 16 11  1  0
  2 17  1  0
  3 18  1  0
  7 19  1  0
  7 20  1  0
  9 21  1  0
 12 22  1  0
 14 23  1  0
M  ISO  5  17  14  18  14  21  14  22  14  23  14
M  END
>  <minimizedAffinity>  (1) 
-5.11116457

>  <minimizedRMSD>  (1) 
3.6687541

$$$$
