
     RDKit          3D

 41 44  0  0  0  0  0  0  0  0999 V2000
   43.0200   83.9810   58.6140 Cl  0  0  0  0  0  0  0  0  0  0  0  0
   41.8340   82.7640   58.2430 C   0  0  0  0  0  0  0  0  0  0  0  0
   40.9910   82.2110   59.1940 C   0  0  0  0  0  0  0  0  0  0  0  0
   40.1090   81.2520   58.7380 C   0  0  0  0  0  0  0  0  0  0  0  0
   39.9850   80.7960   57.4450 C   0  0  0  0  0  0  0  0  0  0  0  0
   40.8400   81.3710   56.5320 C   0  0  0  0  0  0  0  0  0  0  0  0
   40.7810   80.8720   54.8450 Cl  0  0  0  0  0  0  0  0  0  0  0  0
   41.7590   82.3530   56.9440 C   0  0  0  0  0  0  0  0  0  0  0  0
   41.9610   82.1790   61.5410 C   0  0  0  0  0  0  0  0  0  0  0  0
   41.0940   82.6610   60.5410 C   0  0  0  0  0  0  0  0  0  0  0  0
   40.2330   83.6960   60.8940 C   0  0  0  0  0  0  0  0  0  0  0  0
   40.3020   84.1590   62.1770 N   0  0  0  0  0  0  0  0  0  0  0  0
   41.1340   83.6830   63.1020 C   0  0  0  0  0  0  0  0  0  0  0  0
   41.9810   82.6720   62.7790 N   0  0  0  0  0  0  0  0  0  0  0  0
   41.0610   84.3230   64.4370 C   0  0  0  0  0  0  0  0  0  0  0  0
   40.7260   85.6520   64.3590 F   0  0  0  0  0  0  0  0  0  0  0  0
   40.1130   83.6620   65.2190 F   0  0  0  0  0  0  0  0  0  0  0  0
   42.3070   84.2850   65.0870 F   0  0  0  0  0  0  0  0  0  0  0  0
   42.5860   82.8860   55.9690 O   0  0  0  0  0  0  0  0  0  0  0  0
   42.3110   84.0750   55.2550 C   0  0  0  0  0  0  0  0  0  0  0  0
   43.3220   84.2230   54.1910 C   0  0  0  0  0  0  0  0  0  0  0  0
   44.4750   84.8960   54.5090 N   0  0  0  0  0  0  0  0  0  0  0  0
   45.4410   85.1480   53.6120 C   0  0  0  0  0  0  0  0  0  0  0  0
   45.3570   84.7570   52.3110 N   0  0  0  0  0  0  0  0  0  0  0  0
   44.2510   84.0890   51.9290 C   0  0  0  0  0  0  0  0  0  0  0  0
   44.0790   83.6400   50.6360 C   0  0  0  0  0  0  0  0  0  0  0  0
   42.9440   82.9390   50.2500 C   0  0  0  0  0  0  0  0  0  0  0  0
   41.9610   82.6900   51.2050 C   0  0  0  0  0  0  0  0  0  0  0  0
   42.1730   83.1580   52.4820 C   0  0  0  0  0  0  0  0  0  0  0  0
   43.2770   83.8450   52.8690 C   0  0  0  0  0  0  0  0  0  0  0  0
   39.4357   80.8061   59.4849 H   0  0  0  0  0  0  0  0  0  0  0  0
   39.2532   80.0254   57.1610 H   0  0  0  0  0  0  0  0  0  0  0  0
   42.6513   81.3604   61.2893 H   0  0  0  0  0  0  0  0  0  0  0  0
   39.5253   84.1239   60.1687 H   0  0  0  0  0  0  0  0  0  0  0  0
   41.3074   84.0166   54.8085 H   0  0  0  0  0  0  0  0  0  0  0  0
   42.3464   84.9402   55.9333 H   0  0  0  0  0  0  0  0  0  0  0  0
   46.3377   85.6931   53.9419 H   0  0  0  0  0  0  0  0  0  0  0  0
   44.8621   83.8427   49.8905 H   0  0  0  0  0  0  0  0  0  0  0  0
   42.8240   82.5886   49.2142 H   0  0  0  0  0  0  0  0  0  0  0  0
   41.0454   82.1375   50.9471 H   0  0  0  0  0  0  0  0  0  0  0  0
   41.3975   82.9624   53.2372 H   0  0  0  0  0  0  0  0  0  0  0  0
  2  1  1  0
  2  3  2  0
  3 10  1  0
  4  3  1  0
  5  4  2  0
  6  8  2  0
  6  5  1  0
  7  6  1  0
  8  2  1  0
  9 14  2  0
 10 11  2  0
 10  9  1  0
 11 12  1  0
 12 13  2  0
 13 15  1  0
 14 13  1  0
 15 18  1  0
 15 17  1  0
 16 15  1  0
 19  8  1  0
 20 19  1  0
 21 22  2  0
 21 20  1  0
 23 22  1  0
 24 23  2  0
 25 24  1  0
 25 30  2  0
 26 25  1  0
 27 26  2  0
 27 28  1  0
 28 29  2  0
 29 30  1  0
 30 21  1  0
  4 31  1  0
  5 32  1  0
  9 33  1  0
 11 34  1  0
 20 35  1  0
 20 36  1  0
 23 37  1  0
 26 38  1  0
 27 39  1  0
 28 40  1  0
 29 41  1  0
M  ISO  8  31  14  32  14  33  14  34  14  35   8  36   8  37  14  38  14
M  ISO  3  39  14  40  14  41  14
M  END
>  <minimizedAffinity>  (1) 
-5.3059659

>  <minimizedRMSD>  (1) 
0.97956109

$$$$
