
     RDKit          3D

 37 40  0  0  0  0  0  0  0  0999 V2000
   44.5930   83.0960   59.8880 Cl  0  0  0  0  0  0  0  0  0  0  0  0
   43.1530   82.9460   60.9040 C   0  0  0  0  0  0  0  0  0  0  0  0
   43.1650   82.3020   62.1240 C   0  0  0  0  0  0  0  0  0  0  0  0
   41.9540   82.2710   62.7970 C   0  0  0  0  0  0  0  0  0  0  0  0
   40.7670   82.8230   62.3470 C   0  0  0  0  0  0  0  0  0  0  0  0
   40.8050   83.4510   61.1350 C   0  0  0  0  0  0  0  0  0  0  0  0
   39.3590   84.1900   60.4580 Cl  0  0  0  0  0  0  0  0  0  0  0  0
   41.9850   83.5050   60.4320 C   0  0  0  0  0  0  0  0  0  0  0  0
   41.9770   84.1900   59.1320 C   0  0  0  0  0  0  0  0  0  0  0  0
   42.0250   85.5350   59.2100 N   0  0  0  0  0  0  0  0  0  0  0  0
   42.0200   86.2430   58.0490 C   0  0  0  0  0  0  0  0  0  0  0  0
   41.9700   85.6480   56.8240 N   0  0  0  0  0  0  0  0  0  0  0  0
   41.9200   84.2920   56.7380 C   0  0  0  0  0  0  0  0  0  0  0  0
   41.8670   83.6260   55.5280 C   0  0  0  0  0  0  0  0  0  0  0  0
   41.8180   82.2470   55.4880 C   0  0  0  0  0  0  0  0  0  0  0  0
   41.8240   81.5470   56.6760 C   0  0  0  0  0  0  0  0  0  0  0  0
   41.8760   82.1560   57.9250 C   0  0  0  0  0  0  0  0  0  0  0  0
   41.9230   83.5340   57.9110 C   0  0  0  0  0  0  0  0  0  0  0  0
   44.8020   80.3920   62.4480 C   0  0  0  0  0  0  0  0  0  0  0  0
   44.3820   81.7260   62.6040 C   0  0  0  0  0  0  0  0  0  0  0  0
   45.2180   82.6000   63.2970 C   0  0  0  0  0  0  0  0  0  0  0  0
   46.3870   82.0870   63.7710 N   0  0  0  0  0  0  0  0  0  0  0  0
   46.7680   80.8170   63.6110 C   0  0  0  0  0  0  0  0  0  0  0  0
   45.9730   79.9740   62.9490 N   0  0  0  0  0  0  0  0  0  0  0  0
   48.0860   80.4490   64.2030 C   0  0  0  0  0  0  0  0  0  0  0  0
   49.0380   81.4320   63.9880 F   0  0  0  0  0  0  0  0  0  0  0  0
   47.9530   80.2990   65.5730 F   0  0  0  0  0  0  0  0  0  0  0  0
   48.5930   79.2990   63.6300 F   0  0  0  0  0  0  0  0  0  0  0  0
   41.9343   81.7640   63.7730 H   0  0  0  0  0  0  0  0  0  0  0  0
   39.8401   82.7590   62.9359 H   0  0  0  0  0  0  0  0  0  0  0  0
   42.0579   87.3411   58.1008 H   0  0  0  0  0  0  0  0  0  0  0  0
   41.8638   84.1995   54.5893 H   0  0  0  0  0  0  0  0  0  0  0  0
   41.7749   81.7160   54.5256 H   0  0  0  0  0  0  0  0  0  0  0  0
   41.7856   80.4485   56.6334 H   0  0  0  0  0  0  0  0  0  0  0  0
   41.8794   81.5777   58.8607 H   0  0  0  0  0  0  0  0  0  0  0  0
   44.1598   79.6816   61.9068 H   0  0  0  0  0  0  0  0  0  0  0  0
   44.9463   83.6543   63.4536 H   0  0  0  0  0  0  0  0  0  0  0  0
  1  2  1  0
  2  3  2  0
  3 20  1  0
  3  4  1  0
  5  4  2  0
  6  5  1  0
  7  6  1  0
  8  2  1  0
  8  6  2  0
  9 10  2  0
  9  8  1  0
 11 10  1  0
 12 11  2  0
 13 12  1  0
 13 18  2  0
 14 13  1  0
 15 14  2  0
 15 16  1  0
 16 17  2  0
 18 17  1  0
 18  9  1  0
 19 20  2  0
 19 24  1  0
 20 21  1  0
 21 22  2  0
 23 22  1  0
 23 25  1  0
 24 23  2  0
 25 27  1  0
 26 25  1  0
 28 25  1  0
  4 29  1  0
  5 30  1  0
 11 31  1  0
 14 32  1  0
 15 33  1  0
 16 34  1  0
 17 35  1  0
 19 36  1  0
 21 37  1  0
M  ISO  8  29  14  30  14  31  14  32  14  33  14  34  14  35  14  36  14
M  ISO  1  37  14
M  END
>  <minimizedAffinity>  (1) 
-6.20754719

>  <minimizedRMSD>  (1) 
5.26337767

$$$$
