
     RDKit          3D

 34 36  0  0  0  0  0  0  0  0999 V2000
   39.6960   77.2830   59.0790 C   0  0  0  0  0  0  0  0  0  0  0  0
   40.3770   76.1350   58.7930 C   0  0  0  0  0  0  0  0  0  0  0  0
   39.8500   75.4230   57.7120 C   0  0  0  0  0  0  0  0  0  0  0  0
   38.7790   75.8200   57.0140 N   0  0  0  0  0  0  0  0  0  0  0  0
   38.1690   76.9670   57.3670 C   0  0  0  0  0  0  0  0  0  0  0  0
   38.6220   77.7150   58.4080 N   0  0  0  0  0  0  0  0  0  0  0  0
   37.0020   77.4040   56.6030 C   0  0  0  0  0  0  0  0  0  0  0  0
   35.8760   77.1920   57.0810 O   0  0  0  0  0  0  0  0  0  0  0  0
   37.3790   80.2860   56.4950 N   0  0  0  0  0  0  0  0  0  0  0  0
   37.4350   79.4300   55.5730 C   0  0  0  0  0  0  0  0  0  0  0  0
   37.2930   78.0290   55.3860 N   0  0  0  0  0  0  0  0  0  0  0  0
   37.7340   80.3600   54.5180 N   0  0  0  0  0  0  0  0  0  0  0  0
   37.1860   80.1040   57.4730 H   0  0  0  0  0  0  0  0  0  0  0  0
   40.9230   80.2020   61.6410 C   0  0  0  0  0  0  0  0  0  0  0  0
   40.8190   78.9730   62.2670 C   0  0  0  0  0  0  0  0  0  0  0  0
   40.4200   77.9300   61.5100 C   0  0  0  0  0  0  0  0  0  0  0  0
   40.1300   78.1080   60.1660 C   0  0  0  0  0  0  0  0  0  0  0  0
   40.4430   79.9120   59.9110 S   0  0  0  0  0  0  0  0  0  0  0  0
   43.0070   82.9990   62.7660 C   0  0  0  0  0  0  0  0  0  0  0  0
   42.1320   83.7620   63.5680 C   0  0  0  0  0  0  0  0  0  0  0  0
   40.8370   83.3100   63.7150 C   0  0  0  0  0  0  0  0  0  0  0  0
   40.4830   82.1700   63.0850 N   0  0  0  0  0  0  0  0  0  0  0  0
   41.3480   81.4590   62.3200 C   0  0  0  0  0  0  0  0  0  0  0  0
   42.5750   81.8800   62.1760 N   0  0  0  0  0  0  0  0  0  0  0  0
   41.2583   75.8014   59.3604 H   0  0  0  0  0  0  0  0  0  0  0  0
   40.3426   74.4843   57.4185 H   0  0  0  0  0  0  0  0  0  0  0  0
   37.3904   77.5429   54.4832 H   0  0  0  0  0  0  0  0  0  0  0  0
   37.8611   80.0213   53.5536 H   0  0  0  0  0  0  0  0  0  0  0  0
   37.8211   81.3649   54.7266 H   0  0  0  0  0  0  0  0  0  0  0  0
   41.0514   78.8513   63.3353 H   0  0  0  0  0  0  0  0  0  0  0  0
   40.3241   76.9318   61.9621 H   0  0  0  0  0  0  0  0  0  0  0  0
   44.0479   83.3260   62.6259 H   0  0  0  0  0  0  0  0  0  0  0  0
   42.4710   84.6859   64.0593 H   0  0  0  0  0  0  0  0  0  0  0  0
   40.1120   83.8640   64.3294 H   0  0  0  0  0  0  0  0  0  0  0  0
  1 17  1  0
  2  1  2  0
  3  2  1  0
  4  5  1  0
  4  3  2  0
  5  6  2  0
  6  1  1  0
  7  8  2  0
  7  5  1  0
  9 13  1  0
 10  9  2  0
 11 10  1  0
 11  7  1  0
 12 10  1  0
 14 15  2  0
 14 23  1  0
 16 15  1  0
 17 16  2  0
 18 17  1  0
 18 14  1  0
 19 20  2  0
 20 21  1  0
 22 21  2  0
 23 22  1  0
 24 23  2  0
 24 19  1  0
  2 25  1  0
  3 26  1  0
 11 27  1  0
 12 28  1  0
 12 29  1  0
 15 30  1  0
 16 31  1  0
 19 32  1  0
 20 33  1  0
 21 34  1  0
M  ISO  7  25  14  26  14  30  14  31  14  32  14  33  14  34  14
M  END
>  <minimizedAffinity>  (1) 
-6.6351285

>  <minimizedRMSD>  (1) 
0.349140316

$$$$
