
     RDKit          3D

 45 49  0  0  1  0  0  0  0  0999 V2000
   39.8010   77.3790   59.1940 C   0  0  0  0  0  0  0  0  0  0  0  0
   40.5220   76.2770   58.8690 C   0  0  0  0  0  0  0  0  0  0  0  0
   39.9570   75.5620   57.8010 C   0  0  0  0  0  0  0  0  0  0  0  0
   38.8250   75.9220   57.1650 N   0  0  0  0  0  0  0  0  0  0  0  0
   38.1770   77.0520   57.5750 C   0  0  0  0  0  0  0  0  0  0  0  0
   38.6750   77.7820   58.5980 N   0  0  0  0  0  0  0  0  0  0  0  0
   41.0050   80.3250   61.7440 C   0  0  0  0  0  0  0  0  0  0  0  0
   41.0410   79.0830   62.3390 C   0  0  0  0  0  0  0  0  0  0  0  0
   40.6610   78.0260   61.5850 C   0  0  0  0  0  0  0  0  0  0  0  0
   40.2630   78.2220   60.2800 C   0  0  0  0  0  0  0  0  0  0  0  0
   40.4190   80.0400   60.0500 S   0  0  0  0  0  0  0  0  0  0  0  0
   43.0580   83.1390   62.9000 C   0  0  0  0  0  0  0  0  0  0  0  0
   42.1510   83.8910   63.6930 C   0  0  0  0  0  0  0  0  0  0  0  0
   40.8290   83.4260   63.8220 C   0  0  0  0  0  0  0  0  0  0  0  0
   40.4850   82.2840   63.1860 N   0  0  0  0  0  0  0  0  0  0  0  0
   41.3870   81.5880   62.4330 C   0  0  0  0  0  0  0  0  0  0  0  0
   42.6410   82.0190   62.3020 N   0  0  0  0  0  0  0  0  0  0  0  0
   36.9650   77.4240   56.8690 C   0  0  0  0  0  0  0  0  0  0  0  0
   35.8960   76.9560   57.2910 O   0  0  0  0  0  0  0  0  0  0  0  0
   36.9790   78.3300   55.6650 C   0  0  1  0  0  0  0  0  0  0  0  0
   37.5270   79.7030   55.9740 C   0  0  0  0  0  0  0  0  0  0  0  0
   38.2390   78.7670   55.1060 C   0  0  2  0  0  0  0  0  0  0  0  0
   38.3980   79.1460   53.7190 N   0  0  0  0  0  0  0  0  0  0  0  0
   39.6110   79.7180   53.4590 C   0  0  0  0  0  0  0  0  0  0  0  0
   39.9470   80.1470   52.1920 C   0  0  0  0  0  0  0  0  0  0  0  0
   39.0060   79.9730   51.1980 C   0  0  0  0  0  0  0  0  0  0  0  0
   39.3420   80.4090   49.8870 N   0  0  0  0  0  0  0  0  0  0  0  0
   37.8170   79.4070   51.4740 N   0  0  0  0  0  0  0  0  0  0  0  0
   37.5090   78.9930   52.7290 C   0  0  0  0  0  0  0  0  0  0  0  0
   36.4350   78.4640   53.0640 O   0  0  0  0  0  0  0  0  0  0  0  0
   41.4462   75.9770   59.3846 H   0  0  0  0  0  0  0  0  0  0  0  0
   40.4709   74.6504   57.4621 H   0  0  0  0  0  0  0  0  0  0  0  0
   41.3649   78.9562   63.3826 H   0  0  0  0  0  0  0  0  0  0  0  0
   40.6696   77.0125   62.0124 H   0  0  0  0  0  0  0  0  0  0  0  0
   44.0979   83.4765   62.7787 H   0  0  0  0  0  0  0  0  0  0  0  0
   42.4742   84.8151   64.1945 H   0  0  0  0  0  0  0  0  0  0  0  0
   40.0937   83.9783   64.4256 H   0  0  0  0  0  0  0  0  0  0  0  0
   36.0814   77.8829   55.2128 H   0  0  0  0  0  0  0  0  0  0  0  0
   37.0498   80.5991   55.5507 H   0  0  0  0  0  0  0  0  0  0  0  0
   37.7656   80.2695   56.8862 H   0  0  0  0  0  0  0  0  0  0  0  0
   39.2303   78.2905   55.0888 H   0  0  0  0  0  0  0  0  0  0  0  0
   40.3354   79.8391   54.2779 H   0  0  0  0  0  0  0  0  0  0  0  0
   40.9235   80.6082   51.9829 H   0  0  0  0  0  0  0  0  0  0  0  0
   40.2605   80.8388   49.7068 H   0  0  0  0  0  0  0  0  0  0  0  0
   38.6669   80.2950   49.1175 H   0  0  0  0  0  0  0  0  0  0  0  0
  1 10  1  0
  2  1  2  0
  3  2  1  0
  4  5  1  0
  4  3  2  0
  5  6  2  0
  6  1  1  0
  7  8  2  0
  7 16  1  0
  9  8  1  0
 10  9  2  0
 11 10  1  0
 11  7  1  0
 12 13  2  0
 13 14  1  0
 15 14  2  0
 16 15  1  0
 17 16  2  0
 17 12  1  0
 18 19  2  0
 18  5  1  0
 20 21  1  0
 20 18  1  0
 22 20  1  0
 22 21  1  0
 23 22  1  0
 24 23  1  0
 25 24  2  0
 26 28  2  0
 26 25  1  0
 27 26  1  0
 28 29  1  0
 29 30  2  0
 29 23  1  0
  2 31  1  0
  3 32  1  0
  8 33  1  0
  9 34  1  0
 12 35  1  0
 13 36  1  0
 14 37  1  0
 20 38  1  6
 21 39  1  0
 21 40  1  0
 22 41  1  1
 24 42  1  0
 25 43  1  0
 27 44  1  0
 27 45  1  0
M  ISO  8  31  14  32  14  33  14  34  14  35  14  36  14  37  14  38  13
M  ISO  5  39  13  40  13  41  13  42  14  43  14
M  END
>  <minimizedAffinity>  (1) 
-6.71782637

>  <minimizedRMSD>  (1) 
0.685554802

$$$$
