
     RDKit          3D

 12 12  0  0  0  0  0  0  0  0999 V2000
   40.0450   82.0090   60.6180 C   0  0  0  0  0  0  0  0  0  0  0  0
   40.1070   82.9300   59.5590 C   0  0  0  0  0  0  0  0  0  0  0  0
   39.5410   84.1870   59.7790 C   0  0  0  0  0  0  0  0  0  0  0  0
   38.9710   84.4490   60.9870 N   0  0  0  0  0  0  0  0  0  0  0  0
   38.9320   83.5390   61.9740 C   0  0  0  0  0  0  0  0  0  0  0  0
   39.4660   82.3220   61.7960 N   0  0  0  0  0  0  0  0  0  0  0  0
   40.7480   82.5380   58.2970 C   0  0  0  0  0  0  0  0  0  0  0  0
   40.1600   81.6850   57.6260 O   0  0  0  0  0  0  0  0  0  0  0  0
   40.4794   81.0074   60.4835 H   0  0  0  0  0  0  0  0  0  0  0  0
   39.5554   84.9528   58.9895 H   0  0  0  0  0  0  0  0  0  0  0  0
   38.4592   83.7936   62.9340 H   0  0  0  0  0  0  0  0  0  0  0  0
   41.6999   82.9803   57.9679 H   0  0  0  0  0  0  0  0  0  0  0  0
  1  6  2  0
  2  3  2  0
  2  1  1  0
  3  4  1  0
  4  5  2  0
  6  5  1  0
  7  2  1  0
  8  7  2  0
  1  9  1  0
  3 10  1  0
  5 11  1  0
  7 12  1  0
M  ISO  4   9  14  10  14  11  14  12   6
M  END
>  <minimizedAffinity>  (1) 
-3.48254466

>  <minimizedRMSD>  (1) 
0.364237487

$$$$
