
     RDKit          3D

 22 23  0  0  0  0  0  0  0  0999 V2000
   40.5530   82.9400   61.2500 N   0  0  0  0  0  0  0  0  0  0  0  0
   41.4830   82.3860   62.0280 C   0  0  0  0  0  0  0  0  0  0  0  0
   41.4820   82.7290   63.3860 C   0  0  0  0  0  0  0  0  0  0  0  0
   40.5310   83.6170   63.8720 C   0  0  0  0  0  0  0  0  0  0  0  0
   40.4640   83.9760   65.0760 O   0  0  0  0  0  0  0  0  0  0  0  0
   39.6180   84.1350   63.0060 N   0  0  0  0  0  0  0  0  0  0  0  0
   39.6180   83.8040   61.6920 C   0  0  0  0  0  0  0  0  0  0  0  0
   38.7760   84.2800   60.8860 O   0  0  0  0  0  0  0  0  0  0  0  0
   41.3070   83.3450   58.9550 C   0  0  0  0  0  0  0  0  0  0  0  0
   40.6330   82.5320   59.8890 C   0  0  0  0  0  0  0  0  0  0  0  0
   40.0670   81.3460   59.4280 C   0  0  0  0  0  0  0  0  0  0  0  0
   40.1900   81.0350   58.1190 N   0  0  0  0  0  0  0  0  0  0  0  0
   40.8380   81.8240   57.2440 C   0  0  0  0  0  0  0  0  0  0  0  0
   41.3900   82.9730   57.6700 N   0  0  0  0  0  0  0  0  0  0  0  0
   40.9890   81.5160   55.8220 C   0  0  0  0  0  0  0  0  0  0  0  0
   40.0880   80.9770   55.1290 O   0  0  0  0  0  0  0  0  0  0  0  0
   42.2246   81.6846   61.6181 H   0  0  0  0  0  0  0  0  0  0  0  0
   42.2316   82.2967   64.0651 H   0  0  0  0  0  0  0  0  0  0  0  0
   38.9097   84.7948   63.3579 H   0  0  0  0  0  0  0  0  0  0  0  0
   41.7669   84.2891   59.2824 H   0  0  0  0  0  0  0  0  0  0  0  0
   39.5305   80.6759   60.1159 H   0  0  0  0  0  0  0  0  0  0  0  0
   41.9410   81.7692   55.3326 H   0  0  0  0  0  0  0  0  0  0  0  0
  1  7  1  0
  1  2  1  0
  2  3  2  0
  3  4  1  0
  4  5  2  0
  6  4  1  0
  7  6  1  0
  8  7  2  0
  9 10  2  0
 10  1  1  0
 11 10  1  0
 12 11  2  0
 13 14  2  0
 13 12  1  0
 14  9  1  0
 15 13  1  0
 16 15  2  0
  2 17  1  0
  3 18  1  0
  6 19  1  0
  9 20  1  0
 11 21  1  0
 15 22  1  0
M  ISO  6  17  14  18  14  19   9  20  14  21  14  22   6
M  END
>  <minimizedAffinity>  (1) 
-5.47929811

>  <minimizedRMSD>  (1) 
6.2936306

$$$$
