
     RDKit          3D

 14 14  0  0  0  0  0  0  0  0999 V2000
   42.3400   84.5000   62.6350 C   0  0  0  0  0  0  0  0  0  0  0  0
   41.8750   84.6520   63.9610 C   0  0  0  0  0  0  0  0  0  0  0  0
   40.7530   83.9260   64.3740 C   0  0  0  0  0  0  0  0  0  0  0  0
   40.1770   83.1060   63.4500 N   0  0  0  0  0  0  0  0  0  0  0  0
   40.6410   82.9830   62.2010 C   0  0  0  0  0  0  0  0  0  0  0  0
   41.7110   83.6730   61.7980 N   0  0  0  0  0  0  0  0  0  0  0  0
   43.4780   85.3040   62.3870 N   0  0  0  0  0  0  0  0  0  0  0  0
   39.9560   82.0770   61.2780 C   0  0  0  0  0  0  0  0  0  0  0  0
   39.6570   80.9090   61.6370 O   0  0  0  0  0  0  0  0  0  0  0  0
   42.3879   85.3312   64.6579 H   0  0  0  0  0  0  0  0  0  0  0  0
   40.3545   84.0127   65.3956 H   0  0  0  0  0  0  0  0  0  0  0  0
   43.9240   85.2929   61.4586 H   0  0  0  0  0  0  0  0  0  0  0  0
   43.8602   85.9002   63.1349 H   0  0  0  0  0  0  0  0  0  0  0  0
   39.7011   82.4194   60.2642 H   0  0  0  0  0  0  0  0  0  0  0  0
  1  2  2  0
  2  3  1  0
  4  3  2  0
  5  4  1  0
  6  5  2  0
  6  1  1  0
  7  1  1  0
  8  9  2  0
  8  5  1  0
  2 10  1  0
  3 11  1  0
  7 12  1  0
  7 13  1  0
  8 14  1  0
M  ISO  3  10  14  11  14  14   6
M  END
>  <minimizedAffinity>  (1) 
-3.8880744

>  <minimizedRMSD>  (1) 
3.99453568

$$$$
