
     RDKit          3D

 12 12  0  0  0  0  0  0  0  0999 V2000
   39.8800   81.9050   61.1230 C   0  0  0  0  0  0  0  0  0  0  0  0
   40.1260   82.5800   59.9150 C   0  0  0  0  0  0  0  0  0  0  0  0
   39.6850   83.9010   59.7950 C   0  0  0  0  0  0  0  0  0  0  0  0
   39.0410   84.4670   60.8520 N   0  0  0  0  0  0  0  0  0  0  0  0
   38.8240   83.7740   62.0050 C   0  0  0  0  0  0  0  0  0  0  0  0
   39.2400   82.5050   62.1390 N   0  0  0  0  0  0  0  0  0  0  0  0
   40.3670   80.5310   61.1790 C   0  0  0  0  0  0  0  0  0  0  0  0
   40.2150   79.7620   62.1640 O   0  0  0  0  0  0  0  0  0  0  0  0
   40.6513   82.0823   59.0865 H   0  0  0  0  0  0  0  0  0  0  0  0
   39.8544   84.4694   58.8686 H   0  0  0  0  0  0  0  0  0  0  0  0
   38.2994   84.2625   62.8394 H   0  0  0  0  0  0  0  0  0  0  0  0
   40.9031   80.1406   60.3014 H   0  0  0  0  0  0  0  0  0  0  0  0
  1  7  1  0
  1  6  2  0
  2  1  1  0
  3  2  2  0
  3  4  1  0
  4  5  2  0
  5  6  1  0
  7  8  2  0
  2  9  1  0
  3 10  1  0
  5 11  1  0
  7 12  1  0
M  ISO  4   9  14  10  14  11  14  12   6
M  END
>  <minimizedAffinity>  (1) 
-3.7099967

>  <minimizedRMSD>  (1) 
0.449477732

$$$$
