
     RDKit          3D

 25 27  0  0  0  0  0  0  0  0999 V2000
   39.4970   83.1040   61.0860 C   0  0  0  0  0  0  0  0  0  0  0  0
   40.7560   83.0730   60.4890 C   0  0  0  0  0  0  0  0  0  0  0  0
   41.8770   83.4320   61.2150 C   0  0  0  0  0  0  0  0  0  0  0  0
   41.7870   83.8260   62.5420 C   0  0  0  0  0  0  0  0  0  0  0  0
   42.6320   84.2240   63.5070 N   0  0  0  0  0  0  0  0  0  0  0  0
   41.9390   84.4880   64.6470 C   0  0  0  0  0  0  0  0  0  0  0  0
   40.6390   84.2390   64.3490 N   0  0  0  0  0  0  0  0  0  0  0  0
   40.5180   83.8340   63.0720 C   0  0  0  0  0  0  0  0  0  0  0  0
   39.3620   83.4930   62.4160 C   0  0  0  0  0  0  0  0  0  0  0  0
   40.3590   81.1410   57.4240 C   0  0  0  0  0  0  0  0  0  0  0  0
   41.0690   81.8890   56.4600 C   0  0  0  0  0  0  0  0  0  0  0  0
   41.6730   83.0540   56.9030 C   0  0  0  0  0  0  0  0  0  0  0  0
   41.5520   83.4060   58.2040 N   0  0  0  0  0  0  0  0  0  0  0  0
   40.8620   82.6630   59.1020 C   0  0  0  0  0  0  0  0  0  0  0  0
   40.2550   81.5150   58.7170 N   0  0  0  0  0  0  0  0  0  0  0  0
   42.4150   83.8650   55.9650 C   0  0  0  0  0  0  0  0  0  0  0  0
   42.1510   85.0850   55.8040 O   0  0  0  0  0  0  0  0  0  0  0  0
   38.6073   82.8203   60.5046 H   0  0  0  0  0  0  0  0  0  0  0  0
   42.8633   83.4045   60.7287 H   0  0  0  0  0  0  0  0  0  0  0  0
   43.6523   84.3156   63.3997 H   0  0  0  0  0  0  0  0  0  0  0  0
   42.3470   84.8314   65.6091 H   0  0  0  0  0  0  0  0  0  0  0  0
   38.3817   83.5252   62.9140 H   0  0  0  0  0  0  0  0  0  0  0  0
   39.8674   80.2096   57.1067 H   0  0  0  0  0  0  0  0  0  0  0  0
   41.1389   81.5635   55.4116 H   0  0  0  0  0  0  0  0  0  0  0  0
   43.2264   83.4071   55.3803 H   0  0  0  0  0  0  0  0  0  0  0  0
  1  9  2  0
  2  1  1  0
  2  3  2  0
  3  4  1  0
  4  8  2  0
  4  5  1  0
  5  6  1  0
  7  6  2  0
  8  7  1  0
  9  8  1  0
 10 15  2  0
 11 12  2  0
 11 10  1  0
 12 13  1  0
 13 14  2  0
 14  2  1  0
 15 14  1  0
 16 12  1  0
 17 16  2  0
  1 18  1  0
  3 19  1  0
  5 20  1  0
  6 21  1  0
  9 22  1  0
 10 23  1  0
 11 24  1  0
 16 25  1  0
M  ISO  8  18  14  19  14  20   9  21  14  22  14  23  14  24  14  25   6
M  END
>  <minimizedAffinity>  (1) 
-4.89298391

>  <minimizedRMSD>  (1) 
0.217482299

$$$$
