
     RDKit          3D

 22 23  0  0  0  0  0  0  0  0999 V2000
   40.0480   80.8430   58.7990 Cl  0  0  0  0  0  0  0  0  0  0  0  0
   40.8690   82.1170   57.9190 C   0  0  0  0  0  0  0  0  0  0  0  0
   41.2290   83.3460   58.4740 C   0  0  0  0  0  0  0  0  0  0  0  0
   41.8640   84.2170   57.6290 C   0  0  0  0  0  0  0  0  0  0  0  0
   42.1820   84.0150   56.3090 C   0  0  0  0  0  0  0  0  0  0  0  0
   41.8120   82.7890   55.7880 C   0  0  0  0  0  0  0  0  0  0  0  0
   42.1510   82.3770   54.1050 Cl  0  0  0  0  0  0  0  0  0  0  0  0
   41.1660   81.8630   56.5920 C   0  0  0  0  0  0  0  0  0  0  0  0
   39.6860   84.0130   60.3750 C   0  0  0  0  0  0  0  0  0  0  0  0
   40.9090   83.5780   59.8450 C   0  0  0  0  0  0  0  0  0  0  0  0
   41.9780   83.3310   60.7400 C   0  0  0  0  0  0  0  0  0  0  0  0
   41.7440   83.5320   62.0660 N   0  0  0  0  0  0  0  0  0  0  0  0
   40.5470   83.9520   62.5350 C   0  0  0  0  0  0  0  0  0  0  0  0
   39.5330   84.1890   61.7040 N   0  0  0  0  0  0  0  0  0  0  0  0
   40.4150   84.1330   63.9740 C   0  0  0  0  0  0  0  0  0  0  0  0
   40.4590   83.0980   64.7090 O   0  0  0  0  0  0  0  0  0  0  0  0
   42.1518   85.1887   58.0567 H   0  0  0  0  0  0  0  0  0  0  0  0
   42.6968   84.7776   55.7061 H   0  0  0  0  0  0  0  0  0  0  0  0
   40.8796   80.8928   56.1600 H   0  0  0  0  0  0  0  0  0  0  0  0
   38.8413   84.2131   59.6994 H   0  0  0  0  0  0  0  0  0  0  0  0
   42.9592   82.9900   60.3781 H   0  0  0  0  0  0  0  0  0  0  0  0
   40.2815   85.1339   64.4104 H   0  0  0  0  0  0  0  0  0  0  0  0
  2  3  2  0
  2  1  1  0
  3 10  1  0
  4  3  1  0
  5  4  2  0
  6  5  1  0
  6  8  2  0
  7  6  1  0
  8  2  1  0
  9 14  2  0
 10  9  1  0
 10 11  2  0
 11 12  1  0
 12 13  2  0
 13 15  1  0
 14 13  1  0
 15 16  2  0
  4 17  1  0
  5 18  1  0
  8 19  1  0
  9 20  1  0
 11 21  1  0
 15 22  1  0
M  ISO  6  17  14  18  14  19  14  20  14  21  14  22   6
M  END
>  <minimizedAffinity>  (1) 
-4.40828753

>  <minimizedRMSD>  (1) 
1.65288818

$$$$
