
     RDKit          3D

 29 31  0  0  1  0  0  0  0  0999 V2000
   41.7100   83.8290   61.4360 C   0  0  0  0  0  0  0  0  0  0  0  0
   41.1100   84.2140   62.6180 C   0  0  0  0  0  0  0  0  0  0  0  0
   40.6500   83.2570   63.5250 C   0  0  0  0  0  0  0  0  0  0  0  0
   40.7900   81.9420   63.2480 N   0  0  0  0  0  0  0  0  0  0  0  0
   41.3800   81.5990   62.0900 C   0  0  0  0  0  0  0  0  0  0  0  0
   41.8360   82.4980   61.1900 N   0  0  0  0  0  0  0  0  0  0  0  0
   43.6410   86.5010   59.8640 C   0  0  0  0  0  0  0  0  0  0  0  0
   43.0410   86.6070   58.6210 C   0  0  0  0  0  0  0  0  0  0  0  0
   41.9850   85.7810   58.3010 C   0  0  0  0  0  0  0  0  0  0  0  0
   41.6100   84.9010   59.2690 N   0  0  0  0  0  0  0  0  0  0  0  0
   42.1940   84.8040   60.4650 C   0  0  0  0  0  0  0  0  0  0  0  0
   43.2060   85.5970   60.7670 N   0  0  0  0  0  0  0  0  0  0  0  0
   44.7040   87.4360   60.0830 N   0  0  0  0  0  0  0  0  0  0  0  0
   41.5010   80.1280   61.8360 C   0  0  1  0  0  0  0  0  0  0  0  0
   40.6430   79.1720   62.4990 C   0  0  0  0  0  0  0  0  0  0  0  0
   40.2440   79.5780   61.1160 C   0  0  2  0  0  0  0  0  0  0  0  0
   40.4820   78.5670   60.0470 C   0  0  0  0  0  0  0  0  0  0  0  0
   39.6480   77.6960   59.7850 O   0  0  0  0  0  0  0  0  0  0  0  0
   40.9932   85.2835   62.8474 H   0  0  0  0  0  0  0  0  0  0  0  0
   40.1738   83.5737   64.4647 H   0  0  0  0  0  0  0  0  0  0  0  0
   43.4050   87.3465   57.8925 H   0  0  0  0  0  0  0  0  0  0  0  0
   41.4780   85.8299   57.3260 H   0  0  0  0  0  0  0  0  0  0  0  0
   44.9732   88.0936   59.3374 H   0  0  0  0  0  0  0  0  0  0  0  0
   45.1991   87.4507   60.9861 H   0  0  0  0  0  0  0  0  0  0  0  0
   42.5941   80.1531   61.7156 H   0  0  0  0  0  0  0  0  0  0  0  0
   41.0095   78.1503   62.6771 H   0  0  0  0  0  0  0  0  0  0  0  0
   40.1201   79.1689   63.4668 H   0  0  0  0  0  0  0  0  0  0  0  0
   39.3535   80.0060   60.6324 H   0  0  0  0  0  0  0  0  0  0  0  0
   41.4231   78.5980   59.4783 H   0  0  0  0  0  0  0  0  0  0  0  0
  1  2  2  0
  2  3  1  0
  4  3  2  0
  5  4  1  0
  6  1  1  0
  6  5  2  0
  7 13  1  0
  7 12  2  0
  8  7  1  0
  9  8  2  0
  9 10  1  0
 10 11  2  0
 11 12  1  0
 11  1  1  0
 14  5  1  0
 14 15  1  0
 16 14  1  0
 16 15  1  0
 17 16  1  0
 18 17  2  0
  2 19  1  0
  3 20  1  0
  8 21  1  0
  9 22  1  0
 13 23  1  0
 13 24  1  0
 14 25  1  6
 15 26  1  0
 15 27  1  0
 16 28  1  1
 17 29  1  0
M  ISO  8  19  14  20  14  21  14  22  14  25  13  26  13  27  13  28  13
M  ISO  1  29   6
M  END
>  <minimizedAffinity>  (1) 
-4.96720743

>  <minimizedRMSD>  (1) 
0.488130331

$$$$
