
     RDKit          3D

 45 49  0  0  1  0  0  0  0  0999 V2000
   39.7860   77.3870   59.1780 C   0  0  0  0  0  0  0  0  0  0  0  0
   40.5060   76.2720   58.8840 C   0  0  0  0  0  0  0  0  0  0  0  0
   39.9570   75.5620   57.8020 C   0  0  0  0  0  0  0  0  0  0  0  0
   38.8500   75.9340   57.1310 N   0  0  0  0  0  0  0  0  0  0  0  0
   38.2060   77.0760   57.5150 C   0  0  0  0  0  0  0  0  0  0  0  0
   38.6790   77.8080   58.5480 N   0  0  0  0  0  0  0  0  0  0  0  0
   40.9800   80.3300   61.7430 C   0  0  0  0  0  0  0  0  0  0  0  0
   40.9700   79.0930   62.3380 C   0  0  0  0  0  0  0  0  0  0  0  0
   40.5950   78.0340   61.6000 C   0  0  0  0  0  0  0  0  0  0  0  0
   40.2320   78.2260   60.2710 C   0  0  0  0  0  0  0  0  0  0  0  0
   40.4340   80.0430   60.0340 S   0  0  0  0  0  0  0  0  0  0  0  0
   43.0510   83.1350   62.8920 C   0  0  0  0  0  0  0  0  0  0  0  0
   42.1460   83.8890   63.6830 C   0  0  0  0  0  0  0  0  0  0  0  0
   40.8250   83.4340   63.8180 C   0  0  0  0  0  0  0  0  0  0  0  0
   40.4740   82.2920   63.1830 N   0  0  0  0  0  0  0  0  0  0  0  0
   41.3700   81.5900   62.4300 C   0  0  0  0  0  0  0  0  0  0  0  0
   42.6270   82.0190   62.2990 N   0  0  0  0  0  0  0  0  0  0  0  0
   37.0220   77.4630   56.7750 C   0  0  0  0  0  0  0  0  0  0  0  0
   35.9290   77.0460   57.1900 O   0  0  0  0  0  0  0  0  0  0  0  0
   37.0880   78.3290   55.5400 C   0  0  1  0  0  0  0  0  0  0  0  0
   37.3180   79.7860   55.8570 C   0  0  0  0  0  0  0  0  0  0  0  0
   38.3320   78.9750   55.1780 C   0  0  2  0  0  0  0  0  0  0  0  0
   38.6830   79.3630   53.7700 C   0  0  1  0  0  0  0  0  0  0  0  0
   39.0650   78.1750   52.9080 C   0  0  0  0  0  0  0  0  0  0  0  0
   38.8800   78.8080   51.5320 C   0  0  0  0  0  0  0  0  0  0  0  0
   38.0150   79.8570   51.6750 O   0  0  0  0  0  0  0  0  0  0  0  0
   37.5240   79.8900   52.9700 C   0  0  0  0  0  0  0  0  0  0  0  0
   41.4105   75.9622   59.4280 H   0  0  0  0  0  0  0  0  0  0  0  0
   40.4657   74.6407   57.4819 H   0  0  0  0  0  0  0  0  0  0  0  0
   41.2614   78.9715   63.3917 H   0  0  0  0  0  0  0  0  0  0  0  0
   40.5754   77.0269   62.0420 H   0  0  0  0  0  0  0  0  0  0  0  0
   44.0922   83.4681   62.7693 H   0  0  0  0  0  0  0  0  0  0  0  0
   42.4736   84.8133   64.1814 H   0  0  0  0  0  0  0  0  0  0  0  0
   40.0949   83.9908   64.4237 H   0  0  0  0  0  0  0  0  0  0  0  0
   36.3774   77.7136   54.9688 H   0  0  0  0  0  0  0  0  0  0  0  0
   36.7720   80.5664   55.3067 H   0  0  0  0  0  0  0  0  0  0  0  0
   37.2847   80.4103   56.7620 H   0  0  0  0  0  0  0  0  0  0  0  0
   39.3780   78.6848   55.3558 H   0  0  0  0  0  0  0  0  0  0  0  0
   39.4831   80.0977   53.9433 H   0  0  0  0  0  0  0  0  0  0  0  0
   40.1043   77.8582   53.0797 H   0  0  0  0  0  0  0  0  0  0  0  0
   38.4877   77.2559   53.0870 H   0  0  0  0  0  0  0  0  0  0  0  0
   38.4622   78.0695   50.8320 H   0  0  0  0  0  0  0  0  0  0  0  0
   39.8446   79.1532   51.1316 H   0  0  0  0  0  0  0  0  0  0  0  0
   37.2664   80.9160   53.2716 H   0  0  0  0  0  0  0  0  0  0  0  0
   36.5988   79.3102   53.1035 H   0  0  0  0  0  0  0  0  0  0  0  0
  1 10  1  0
  2  1  2  0
  3  2  1  0
  4  5  1  0
  4  3  2  0
  5  6  2  0
  6  1  1  0
  7  8  2  0
  7 16  1  0
  9  8  1  0
 10  9  2  0
 11 10  1  0
 11  7  1  0
 12 13  2  0
 13 14  1  0
 15 14  2  0
 16 15  1  0
 17 16  2  0
 17 12  1  0
 18 19  2  0
 18  5  1  0
 20 21  1  0
 20 18  1  0
 22 20  1  0
 22 21  1  0
 23 24  1  0
 23 22  1  0
 25 26  1  0
 25 24  1  0
 26 27  1  0
 27 23  1  0
  2 28  1  0
  3 29  1  0
  8 30  1  0
  9 31  1  0
 12 32  1  0
 13 33  1  0
 14 34  1  0
 20 35  1  6
 21 36  1  0
 21 37  1  0
 22 38  1  1
 23 39  1  1
 24 40  1  0
 24 41  1  0
 25 42  1  0
 25 43  1  0
 27 44  1  0
 27 45  1  0
M  ISO  8  28  14  29  14  30  14  31  14  32  14  33  14  34  14  35  13
M  ISO  8  36  13  37  13  38  13  39  13  40  13  41  13  42  13  43  13
M  ISO  2  44  13  45  13
M  END
>  <minimizedAffinity>  (1) 
-6.35358667

>  <minimizedRMSD>  (1) 
1.16311038

$$$$
