
     RDKit          3D

 38 40  0  0  0  0  0  0  0  0999 V2000
   43.0670   84.0570   58.6220 Cl  0  0  0  0  0  0  0  0  0  0  0  0
   41.8830   82.8300   58.2400 C   0  0  0  0  0  0  0  0  0  0  0  0
   41.0460   82.2750   59.1840 C   0  0  0  0  0  0  0  0  0  0  0  0
   40.1630   81.3110   58.7170 C   0  0  0  0  0  0  0  0  0  0  0  0
   40.0400   80.8610   57.4290 C   0  0  0  0  0  0  0  0  0  0  0  0
   40.8860   81.4330   56.5190 C   0  0  0  0  0  0  0  0  0  0  0  0
   40.8450   80.9570   54.8280 Cl  0  0  0  0  0  0  0  0  0  0  0  0
   41.7940   82.4030   56.9180 C   0  0  0  0  0  0  0  0  0  0  0  0
   41.9780   82.2140   61.5420 C   0  0  0  0  0  0  0  0  0  0  0  0
   41.1350   82.7070   60.5300 C   0  0  0  0  0  0  0  0  0  0  0  0
   40.2760   83.7520   60.8830 C   0  0  0  0  0  0  0  0  0  0  0  0
   40.3420   84.1840   62.1700 N   0  0  0  0  0  0  0  0  0  0  0  0
   41.1470   83.7000   63.1050 C   0  0  0  0  0  0  0  0  0  0  0  0
   41.9980   82.6760   62.7790 N   0  0  0  0  0  0  0  0  0  0  0  0
   41.0470   84.3260   64.4360 C   0  0  0  0  0  0  0  0  0  0  0  0
   40.7100   85.6580   64.3680 F   0  0  0  0  0  0  0  0  0  0  0  0
   40.1040   83.6570   65.2100 F   0  0  0  0  0  0  0  0  0  0  0  0
   42.2890   84.2970   65.0900 F   0  0  0  0  0  0  0  0  0  0  0  0
   42.6330   82.9580   55.9640 O   0  0  0  0  0  0  0  0  0  0  0  0
   42.3320   84.1300   55.2290 C   0  0  0  0  0  0  0  0  0  0  0  0
   43.5750   84.6760   54.8420 O   0  0  0  0  0  0  0  0  0  0  0  0
   46.0680   86.1830   54.4390 Cl  0  0  0  0  0  0  0  0  0  0  0  0
   45.2620   85.2810   53.2030 C   0  0  0  0  0  0  0  0  0  0  0  0
   44.1010   84.6390   53.5870 C   0  0  0  0  0  0  0  0  0  0  0  0
   43.3930   83.8920   52.6490 C   0  0  0  0  0  0  0  0  0  0  0  0
   43.8340   83.7840   51.3460 C   0  0  0  0  0  0  0  0  0  0  0  0
   45.0100   84.4360   50.9590 C   0  0  0  0  0  0  0  0  0  0  0  0
   45.7000   85.1750   51.9100 C   0  0  0  0  0  0  0  0  0  0  0  0
   47.1790   86.0080   51.4720 Cl  0  0  0  0  0  0  0  0  0  0  0  0
   39.4899   80.8601   59.4610 H   0  0  0  0  0  0  0  0  0  0  0  0
   39.3086   80.0900   57.1451 H   0  0  0  0  0  0  0  0  0  0  0  0
   42.6635   81.3923   61.2873 H   0  0  0  0  0  0  0  0  0  0  0  0
   39.5826   84.2013   60.1568 H   0  0  0  0  0  0  0  0  0  0  0  0
   41.7309   83.8812   54.3420 H   0  0  0  0  0  0  0  0  0  0  0  0
   41.7477   84.8432   55.8290 H   0  0  0  0  0  0  0  0  0  0  0  0
   42.4676   83.3800   52.9515 H   0  0  0  0  0  0  0  0  0  0  0  0
   43.2648   83.1893   50.6164 H   0  0  0  0  0  0  0  0  0  0  0  0
   45.3791   84.3646   49.9252 H   0  0  0  0  0  0  0  0  0  0  0  0
  2  1  1  0
  2  3  2  0
  3 10  1  0
  4  3  1  0
  5  4  2  0
  6  8  2  0
  6  5  1  0
  7  6  1  0
  8  2  1  0
  9 14  2  0
 10 11  2  0
 10  9  1  0
 11 12  1  0
 12 13  2  0
 13 15  1  0
 14 13  1  0
 15 18  1  0
 15 17  1  0
 16 15  1  0
 19  8  1  0
 20 19  1  0
 21 20  1  0
 23 24  2  0
 23 22  1  0
 24 21  1  0
 25 24  1  0
 26 25  2  0
 27 26  1  0
 27 28  2  0
 28 23  1  0
 29 28  1  0
  4 30  1  0
  5 31  1  0
  9 32  1  0
 11 33  1  0
 20 34  1  0
 20 35  1  0
 25 36  1  0
 26 37  1  0
 27 38  1  0
M  ISO  8  30  14  31  14  32  14  33  14  34   8  35   8  36  14  37  14
M  ISO  1  38  14
M  END
>  <minimizedAffinity>  (1) 
-4.96222305

>  <minimizedRMSD>  (1) 
1.39410949

$$$$
