
     RDKit          3D

 44 48  0  0  1  0  0  0  0  0999 V2000
   39.7350   77.3240   59.2120 C   0  0  0  0  0  0  0  0  0  0  0  0
   40.3690   76.1330   59.0060 C   0  0  0  0  0  0  0  0  0  0  0  0
   39.8180   75.4250   57.9210 C   0  0  0  0  0  0  0  0  0  0  0  0
   38.7900   75.8650   57.1690 N   0  0  0  0  0  0  0  0  0  0  0  0
   38.2340   77.0740   57.4690 C   0  0  0  0  0  0  0  0  0  0  0  0
   38.7100   77.8100   58.4970 N   0  0  0  0  0  0  0  0  0  0  0  0
   40.9630   80.2900   61.7300 C   0  0  0  0  0  0  0  0  0  0  0  0
   40.9520   79.0550   62.3500 C   0  0  0  0  0  0  0  0  0  0  0  0
   40.5590   77.9950   61.6080 C   0  0  0  0  0  0  0  0  0  0  0  0
   40.1920   78.1670   60.2900 C   0  0  0  0  0  0  0  0  0  0  0  0
   40.4060   79.9850   60.0340 S   0  0  0  0  0  0  0  0  0  0  0  0
   43.0540   83.0830   62.8560 C   0  0  0  0  0  0  0  0  0  0  0  0
   42.1590   83.8480   63.6500 C   0  0  0  0  0  0  0  0  0  0  0  0
   40.8340   83.4010   63.7910 C   0  0  0  0  0  0  0  0  0  0  0  0
   40.4760   82.2620   63.1620 N   0  0  0  0  0  0  0  0  0  0  0  0
   41.3610   81.5500   62.4070 C   0  0  0  0  0  0  0  0  0  0  0  0
   42.6180   81.9650   62.2670 N   0  0  0  0  0  0  0  0  0  0  0  0
   37.1330   77.5300   56.6420 C   0  0  0  0  0  0  0  0  0  0  0  0
   36.0040   77.0910   56.9040 O   0  0  0  0  0  0  0  0  0  0  0  0
   37.3300   78.4920   55.4950 C   0  0  1  0  0  0  0  0  0  0  0  0
   37.4510   79.9270   55.9440 C   0  0  0  0  0  0  0  0  0  0  0  0
   38.5820   79.2070   55.3570 C   0  0  2  0  0  0  0  0  0  0  0  0
   36.5450   78.7960   53.2540 Cl  0  0  0  0  0  0  0  0  0  0  0  0
   38.1470   79.4350   52.9630 C   0  0  0  0  0  0  0  0  0  0  0  0
   39.0670   79.6100   53.9870 C   0  0  0  0  0  0  0  0  0  0  0  0
   40.3270   80.1150   53.7470 C   0  0  0  0  0  0  0  0  0  0  0  0
   40.7230   80.4680   52.4730 C   0  0  0  0  0  0  0  0  0  0  0  0
   39.7950   80.2890   51.4630 C   0  0  0  0  0  0  0  0  0  0  0  0
   38.5100   79.7810   51.6660 C   0  0  0  0  0  0  0  0  0  0  0  0
   37.3630   79.5650   50.3870 Cl  0  0  0  0  0  0  0  0  0  0  0  0
   41.2100   75.7697   59.6149 H   0  0  0  0  0  0  0  0  0  0  0  0
   40.2558   74.4475   57.6704 H   0  0  0  0  0  0  0  0  0  0  0  0
   41.2503   78.9391   63.4024 H   0  0  0  0  0  0  0  0  0  0  0  0
   40.5320   76.9915   62.0577 H   0  0  0  0  0  0  0  0  0  0  0  0
   44.0970   83.4076   62.7268 H   0  0  0  0  0  0  0  0  0  0  0  0
   42.4957   84.7712   64.1444 H   0  0  0  0  0  0  0  0  0  0  0  0
   40.1090   83.9639   64.3972 H   0  0  0  0  0  0  0  0  0  0  0  0
   36.7317   77.8984   54.7881 H   0  0  0  0  0  0  0  0  0  0  0  0
   36.9510   80.7285   55.3804 H   0  0  0  0  0  0  0  0  0  0  0  0
   37.2674   80.4782   56.8781 H   0  0  0  0  0  0  0  0  0  0  0  0
   39.6128   78.9990   55.6798 H   0  0  0  0  0  0  0  0  0  0  0  0
   41.0286   80.2387   54.5851 H   0  0  0  0  0  0  0  0  0  0  0  0
   41.7262   80.8714   52.2709 H   0  0  0  0  0  0  0  0  0  0  0  0
   40.0866   80.5632   50.4384 H   0  0  0  0  0  0  0  0  0  0  0  0
  1 10  1  0
  2  1  2  0
  3  2  1  0
  4  5  1  0
  4  3  2  0
  5  6  2  0
  6  1  1  0
  7  8  2  0
  7 16  1  0
  9  8  1  0
 10  9  2  0
 11 10  1  0
 11  7  1  0
 12 13  2  0
 13 14  1  0
 15 14  2  0
 16 15  1  0
 17 16  2  0
 17 12  1  0
 18 19  2  0
 18  5  1  0
 20 21  1  0
 20 18  1  0
 22 20  1  0
 22 21  1  0
 24 23  1  0
 24 25  2  0
 25 22  1  0
 26 25  1  0
 27 26  2  0
 28 29  2  0
 28 27  1  0
 29 24  1  0
 30 29  1  0
  2 31  1  0
  3 32  1  0
  8 33  1  0
  9 34  1  0
 12 35  1  0
 13 36  1  0
 14 37  1  0
 20 38  1  6
 21 39  1  0
 21 40  1  0
 22 41  1  1
 26 42  1  0
 27 43  1  0
 28 44  1  0
M  ISO  8  31  14  32  14  33  14  34  14  35  14  36  14  37  14  38  13
M  ISO  6  39  13  40  13  41  13  42  14  43  14  44  14
M  END
>  <minimizedAffinity>  (1) 
-6.91886425

>  <minimizedRMSD>  (1) 
0.262887299

$$$$
