
     RDKit          3D

 40 43  0  0  0  0  0  0  0  0999 V2000
   43.0220   83.8820   58.6160 Cl  0  0  0  0  0  0  0  0  0  0  0  0
   41.7950   82.6770   58.2650 C   0  0  0  0  0  0  0  0  0  0  0  0
   40.9360   82.1660   59.2270 C   0  0  0  0  0  0  0  0  0  0  0  0
   40.0350   81.2310   58.7840 C   0  0  0  0  0  0  0  0  0  0  0  0
   39.8950   80.7500   57.4950 C   0  0  0  0  0  0  0  0  0  0  0  0
   40.7570   81.2780   56.5790 C   0  0  0  0  0  0  0  0  0  0  0  0
   40.7000   80.7650   54.8990 Cl  0  0  0  0  0  0  0  0  0  0  0  0
   41.6990   82.2330   56.9580 C   0  0  0  0  0  0  0  0  0  0  0  0
   41.9200   82.1430   61.5710 C   0  0  0  0  0  0  0  0  0  0  0  0
   41.0460   82.6310   60.5600 C   0  0  0  0  0  0  0  0  0  0  0  0
   40.2090   83.6730   60.9090 C   0  0  0  0  0  0  0  0  0  0  0  0
   40.2980   84.1380   62.1900 N   0  0  0  0  0  0  0  0  0  0  0  0
   41.1250   83.6620   63.1150 C   0  0  0  0  0  0  0  0  0  0  0  0
   41.9510   82.6430   62.7950 N   0  0  0  0  0  0  0  0  0  0  0  0
   41.0500   84.3220   64.4450 C   0  0  0  0  0  0  0  0  0  0  0  0
   40.7320   85.6520   64.3550 F   0  0  0  0  0  0  0  0  0  0  0  0
   40.1080   83.6810   65.2360 F   0  0  0  0  0  0  0  0  0  0  0  0
   42.2980   84.2810   65.0810 F   0  0  0  0  0  0  0  0  0  0  0  0
   42.5550   82.7410   55.9910 O   0  0  0  0  0  0  0  0  0  0  0  0
   42.3460   83.9390   55.3000 C   0  0  0  0  0  0  0  0  0  0  0  0
   44.1610   84.5530   53.7290 C   0  0  0  0  0  0  0  0  0  0  0  0
   42.9420   83.9020   53.9480 C   0  0  0  0  0  0  0  0  0  0  0  0
   42.3030   83.2370   52.9170 C   0  0  0  0  0  0  0  0  0  0  0  0
   42.8600   83.2000   51.6400 C   0  0  0  0  0  0  0  0  0  0  0  0
   42.5080   82.6590   50.4610 N   0  0  0  0  0  0  0  0  0  0  0  0
   43.4620   82.9700   49.5910 N   0  0  0  0  0  0  0  0  0  0  0  0
   44.4220   83.6950   50.1690 C   0  0  0  0  0  0  0  0  0  0  0  0
   44.0640   83.8650   51.5060 C   0  0  0  0  0  0  0  0  0  0  0  0
   44.7470   84.5410   52.4820 C   0  0  0  0  0  0  0  0  0  0  0  0
   39.3480   80.8183   59.5374 H   0  0  0  0  0  0  0  0  0  0  0  0
   39.1415   79.9947   57.2272 H   0  0  0  0  0  0  0  0  0  0  0  0
   42.5994   81.3139   61.3239 H   0  0  0  0  0  0  0  0  0  0  0  0
   39.5024   84.1088   60.1874 H   0  0  0  0  0  0  0  0  0  0  0  0
   41.2638   84.1131   55.2078 H   0  0  0  0  0  0  0  0  0  0  0  0
   42.8291   84.7495   55.8654 H   0  0  0  0  0  0  0  0  0  0  0  0
   44.6556   85.0787   54.5591 H   0  0  0  0  0  0  0  0  0  0  0  0
   41.3446   82.7318   53.1072 H   0  0  0  0  0  0  0  0  0  0  0  0
   41.6594   82.1078   50.2687 H   0  0  0  0  0  0  0  0  0  0  0  0
   45.3273   84.0858   49.6814 H   0  0  0  0  0  0  0  0  0  0  0  0
   45.7049   85.0436   52.2825 H   0  0  0  0  0  0  0  0  0  0  0  0
  2  1  1  0
  2  3  2  0
  3 10  1  0
  4  3  1  0
  5  4  2  0
  6  8  2  0
  6  5  1  0
  7  6  1  0
  8  2  1  0
  9 14  2  0
 10 11  2  0
 10  9  1  0
 11 12  1  0
 12 13  2  0
 13 15  1  0
 14 13  1  0
 15 18  1  0
 15 17  1  0
 16 15  1  0
 19  8  1  0
 20 19  1  0
 21 22  2  0
 22 20  1  0
 23 22  1  0
 24 23  2  0
 25 24  1  0
 26 27  2  0
 26 25  1  0
 27 28  1  0
 28 24  1  0
 28 29  2  0
 29 21  1  0
  4 30  1  0
  5 31  1  0
  9 32  1  0
 11 33  1  0
 20 34  1  0
 20 35  1  0
 21 36  1  0
 23 37  1  0
 25 38  1  0
 27 39  1  0
 29 40  1  0
M  ISO  8  30  14  31  14  32  14  33  14  34   8  35   8  36  14  37  14
M  ISO  3  38   9  39  14  40  14
M  END
>  <minimizedAffinity>  (1) 
-5.10109186

>  <minimizedRMSD>  (1) 
1.400949

$$$$
