
     RDKit          3D

 41 45  0  0  0  0  0  0  0  0999 V2000
   41.1510   84.3490   59.1940 C   0  0  0  0  0  0  0  0  0  0  0  0
   41.0220   85.7010   58.8700 C   0  0  0  0  0  0  0  0  0  0  0  0
   41.2890   86.1610   57.5870 C   0  0  0  0  0  0  0  0  0  0  0  0
   41.6720   85.2590   56.6860 N   0  0  0  0  0  0  0  0  0  0  0  0
   41.8020   83.9380   56.9860 C   0  0  0  0  0  0  0  0  0  0  0  0
   41.5400   83.4980   58.2380 N   0  0  0  0  0  0  0  0  0  0  0  0
   43.4450   83.1830   55.3400 C   0  0  0  0  0  0  0  0  0  0  0  0
   42.2260   82.9510   55.9820 C   0  0  0  0  0  0  0  0  0  0  0  0
   41.4480   81.8450   55.6910 C   0  0  0  0  0  0  0  0  0  0  0  0
   41.8990   80.9500   54.7370 C   0  0  0  0  0  0  0  0  0  0  0  0
   41.3760   79.8030   54.2470 N   0  0  0  0  0  0  0  0  0  0  0  0
   42.1920   79.3030   53.3380 N   0  0  0  0  0  0  0  0  0  0  0  0
   43.2750   80.0840   53.1880 C   0  0  0  0  0  0  0  0  0  0  0  0
   43.0940   81.1210   54.0670 C   0  0  0  0  0  0  0  0  0  0  0  0
   43.8390   82.2390   54.3880 C   0  0  0  0  0  0  0  0  0  0  0  0
   41.8060   84.1560   61.5620 C   0  0  0  0  0  0  0  0  0  0  0  0
   41.4360   83.8860   62.8740 C   0  0  0  0  0  0  0  0  0  0  0  0
   40.1390   83.5490   63.2170 C   0  0  0  0  0  0  0  0  0  0  0  0
   39.1690   83.4750   62.2210 C   0  0  0  0  0  0  0  0  0  0  0  0
   39.5310   83.7440   60.9020 C   0  0  0  0  0  0  0  0  0  0  0  0
   40.8280   84.0800   60.5730 C   0  0  0  0  0  0  0  0  0  0  0  0
   45.2890   83.8610   60.5170 C   0  0  0  0  0  0  0  0  0  0  0  0
   45.7750   85.1570   60.6870 C   0  0  0  0  0  0  0  0  0  0  0  0
   44.8940   86.1470   61.1670 C   0  0  0  0  0  0  0  0  0  0  0  0
   43.6150   85.7800   61.4390 N   0  0  0  0  0  0  0  0  0  0  0  0
   43.1730   84.5030   61.2620 C   0  0  0  0  0  0  0  0  0  0  0  0
   44.0120   83.5900   60.8110 N   0  0  0  0  0  0  0  0  0  0  0  0
   40.7033   86.4143   59.6444 H   0  0  0  0  0  0  0  0  0  0  0  0
   41.1883   87.2250   57.3266 H   0  0  0  0  0  0  0  0  0  0  0  0
   44.0626   84.0632   55.5719 H   0  0  0  0  0  0  0  0  0  0  0  0
   40.4907   81.6804   56.2072 H   0  0  0  0  0  0  0  0  0  0  0  0
   40.4807   79.3849   54.5378 H   0  0  0  0  0  0  0  0  0  0  0  0
   44.1241   79.9257   52.5068 H   0  0  0  0  0  0  0  0  0  0  0  0
   44.7945   82.3947   53.8658 H   0  0  0  0  0  0  0  0  0  0  0  0
   42.1986   83.9420   63.6647 H   0  0  0  0  0  0  0  0  0  0  0  0
   39.8769   83.3418   64.2650 H   0  0  0  0  0  0  0  0  0  0  0  0
   38.1317   83.2080   62.4714 H   0  0  0  0  0  0  0  0  0  0  0  0
   38.7696   83.6874   60.1101 H   0  0  0  0  0  0  0  0  0  0  0  0
   45.9514   83.0662   60.1435 H   0  0  0  0  0  0  0  0  0  0  0  0
   46.8215   85.4010   60.4520 H   0  0  0  0  0  0  0  0  0  0  0  0
   45.2314   87.1833   61.3165 H   0  0  0  0  0  0  0  0  0  0  0  0
  1 21  1  0
  2  1  2  0
  3  2  1  0
  4  5  1  0
  4  3  2  0
  5  6  2  0
  6  1  1  0
  7  8  2  0
  8  5  1  0
  9  8  1  0
 10  9  2  0
 11 10  1  0
 12 11  1  0
 13 12  2  0
 13 14  1  0
 14 15  2  0
 14 10  1  0
 15  7  1  0
 16 17  2  0
 17 18  1  0
 19 18  2  0
 20 19  1  0
 21 20  2  0
 21 16  1  0
 22 23  2  0
 22 27  1  0
 23 24  1  0
 24 25  2  0
 26 25  1  0
 26 16  1  0
 27 26  2  0
  2 28  1  0
  3 29  1  0
  7 30  1  0
  9 31  1  0
 11 32  1  0
 13 33  1  0
 15 34  1  0
 17 35  1  0
 18 36  1  0
 19 37  1  0
 20 38  1  0
 22 39  1  0
 23 40  1  0
 24 41  1  0
M  ISO  8  28  14  29  14  30  14  31  14  32   9  33  14  34  14  35  14
M  ISO  6  36  14  37  14  38  14  39  14  40  14  41  14
M  END
>  <minimizedAffinity>  (1) 
-5.60573483

>  <minimizedRMSD>  (1) 
0.831587136

$$$$
