
     RDKit          3D

 46 51  0  0  0  0  0  0  0  0999 V2000
   40.7240   81.7580   57.1190 C   0  0  0  0  0  0  0  0  0  0  0  0
   41.8010   82.3340   56.4280 C   0  0  0  0  0  0  0  0  0  0  0  0
   42.5850   83.2480   57.1150 C   0  0  0  0  0  0  0  0  0  0  0  0
   42.3000   83.5490   58.4020 N   0  0  0  0  0  0  0  0  0  0  0  0
   41.2490   82.9710   59.0440 C   0  0  0  0  0  0  0  0  0  0  0  0
   40.4540   82.0710   58.4030 N   0  0  0  0  0  0  0  0  0  0  0  0
   39.6790   83.0910   60.9160 C   0  0  0  0  0  0  0  0  0  0  0  0
   40.9810   83.2780   60.4410 C   0  0  0  0  0  0  0  0  0  0  0  0
   42.0010   83.7300   61.2800 C   0  0  0  0  0  0  0  0  0  0  0  0
   41.7580   84.0110   62.6130 C   0  0  0  0  0  0  0  0  0  0  0  0
   42.4610   84.4450   63.6720 N   0  0  0  0  0  0  0  0  0  0  0  0
   41.6790   84.5360   64.7590 C   0  0  0  0  0  0  0  0  0  0  0  0
   40.4670   84.1440   64.3380 N   0  0  0  0  0  0  0  0  0  0  0  0
   40.4750   83.8150   63.0340 C   0  0  0  0  0  0  0  0  0  0  0  0
   39.4290   83.3730   62.2630 C   0  0  0  0  0  0  0  0  0  0  0  0
   42.3400   83.6230   54.1640 Cl  0  0  0  0  0  0  0  0  0  0  0  0
   43.7440   84.1080   55.1060 C   0  0  0  0  0  0  0  0  0  0  0  0
   43.7030   83.8850   56.4570 C   0  0  0  0  0  0  0  0  0  0  0  0
   44.8400   84.3260   57.1330 C   0  0  0  0  0  0  0  0  0  0  0  0
   45.9170   84.9300   56.5310 C   0  0  0  0  0  0  0  0  0  0  0  0
   45.8830   85.1220   55.1500 C   0  0  0  0  0  0  0  0  0  0  0  0
   47.2260   85.8850   54.3290 Cl  0  0  0  0  0  0  0  0  0  0  0  0
   44.7800   84.7020   54.4350 C   0  0  0  0  0  0  0  0  0  0  0  0
   45.3130   83.8250   52.2980 C   0  0  0  0  0  0  0  0  0  0  0  0
   44.7850   84.9210   52.9900 C   0  0  0  0  0  0  0  0  0  0  0  0
   44.3550   86.0160   52.2670 C   0  0  0  0  0  0  0  0  0  0  0  0
   44.4670   85.9800   50.8930 C   0  0  0  0  0  0  0  0  0  0  0  0
   44.1150   86.9220   50.0050 N   0  0  0  0  0  0  0  0  0  0  0  0
   44.4010   86.4640   48.7970 N   0  0  0  0  0  0  0  0  0  0  0  0
   44.9360   85.2350   48.8600 C   0  0  0  0  0  0  0  0  0  0  0  0
   44.9870   84.9050   50.2030 C   0  0  0  0  0  0  0  0  0  0  0  0
   45.4120   83.8200   50.9350 C   0  0  0  0  0  0  0  0  0  0  0  0
   40.0823   81.0313   56.5993 H   0  0  0  0  0  0  0  0  0  0  0  0
   42.0149   82.0705   55.3817 H   0  0  0  0  0  0  0  0  0  0  0  0
   38.8779   82.7339   60.2522 H   0  0  0  0  0  0  0  0  0  0  0  0
   43.0147   83.8650   60.8748 H   0  0  0  0  0  0  0  0  0  0  0  0
   43.4644   84.6766   63.6525 H   0  0  0  0  0  0  0  0  0  0  0  0
   41.9676   84.8598   65.7699 H   0  0  0  0  0  0  0  0  0  0  0  0
   38.4241   83.2444   62.6916 H   0  0  0  0  0  0  0  0  0  0  0  0
   44.8771   84.1803   58.2227 H   0  0  0  0  0  0  0  0  0  0  0  0
   46.7851   85.2543   57.1237 H   0  0  0  0  0  0  0  0  0  0  0  0
   45.6564   82.9469   52.8646 H   0  0  0  0  0  0  0  0  0  0  0  0
   43.9332   86.8959   52.7748 H   0  0  0  0  0  0  0  0  0  0  0  0
   43.6971   87.8375   50.2242 H   0  0  0  0  0  0  0  0  0  0  0  0
   45.2674   84.6146   48.0142 H   0  0  0  0  0  0  0  0  0  0  0  0
   45.8336   82.9440   50.4203 H   0  0  0  0  0  0  0  0  0  0  0  0
  1  6  2  0
  2  3  2  0
  2  1  1  0
  3  4  1  0
  4  5  2  0
  5  8  1  0
  6  5  1  0
  7 15  2  0
  8  7  1  0
  8  9  2  0
  9 10  1  0
 10 14  2  0
 10 11  1  0
 11 12  1  0
 13 12  2  0
 14 13  1  0
 15 14  1  0
 16 17  1  0
 17 18  2  0
 18  3  1  0
 18 19  1  0
 20 19  2  0
 21 20  1  0
 22 21  1  0
 23 17  1  0
 23 21  2  0
 24 25  2  0
 25 23  1  0
 26 25  1  0
 27 26  2  0
 28 27  1  0
 29 30  2  0
 29 28  1  0
 30 31  1  0
 31 27  1  0
 31 32  2  0
 32 24  1  0
  1 33  1  0
  2 34  1  0
  7 35  1  0
  9 36  1  0
 11 37  1  0
 12 38  1  0
 15 39  1  0
 19 40  1  0
 20 41  1  0
 24 42  1  0
 26 43  1  0
 28 44  1  0
 30 45  1  0
 32 46  1  0
M  ISO  8  33  14  34  14  35  14  36  14  37   9  38  14  39  14  40  14
M  ISO  6  41  14  42  14  43  14  44   9  45  14  46  14
M  END
>  <minimizedAffinity>  (1) 
-5.1649332

>  <minimizedRMSD>  (1) 
0.284972459

$$$$
