
     RDKit          3D

 47 50  0  0  0  0  0  0  0  0999 V2000
   42.8080   82.4710   62.4460 C   0  0  0  0  0  0  0  0  0  0  0  0
   43.1210   81.2410   61.8990 C   0  0  0  0  0  0  0  0  0  0  0  0
   44.3590   80.6710   62.1120 C   0  0  0  0  0  0  0  0  0  0  0  0
   45.3520   81.2880   62.8770 C   0  0  0  0  0  0  0  0  0  0  0  0
   45.0630   82.5080   63.4290 C   0  0  0  0  0  0  0  0  0  0  0  0
   43.8160   83.0760   63.2120 C   0  0  0  0  0  0  0  0  0  0  0  0
   40.3420   79.0220   60.8900 C   0  0  0  0  0  0  0  0  0  0  0  0
   40.3790   79.1400   59.5010 C   0  0  0  0  0  0  0  0  0  0  0  0
   41.3680   79.9800   58.9430 C   0  0  0  0  0  0  0  0  0  0  0  0
   42.2020   80.6040   59.8120 N   0  0  0  0  0  0  0  0  0  0  0  0
   42.1560   80.4860   61.1190 C   0  0  0  0  0  0  0  0  0  0  0  0
   41.2170   79.6870   61.6560 N   0  0  0  0  0  0  0  0  0  0  0  0
   39.4500   78.4370   58.6890 N   0  0  0  0  0  0  0  0  0  0  0  0
   39.0450   79.1170   57.6140 C   0  0  0  0  0  0  0  0  0  0  0  0
   38.1330   78.5150   56.7510 C   0  0  0  0  0  0  0  0  0  0  0  0
   37.6780   77.2400   57.0360 C   0  0  0  0  0  0  0  0  0  0  0  0
   36.8540   76.5950   56.3320 O   0  0  0  0  0  0  0  0  0  0  0  0
   38.1360   76.6050   58.1530 N   0  0  0  0  0  0  0  0  0  0  0  0
   39.0300   77.2000   58.9930 C   0  0  0  0  0  0  0  0  0  0  0  0
   39.4550   76.6310   60.0150 O   0  0  0  0  0  0  0  0  0  0  0  0
   41.2860   83.2310   62.1860 S   0  0  0  0  0  0  0  0  0  0  0  0
   40.8970   84.0090   63.4310 O   0  0  0  0  0  0  0  0  0  0  0  0
   40.2270   82.1290   62.2220 O   0  0  0  0  0  0  0  0  0  0  0  0
   41.0880   84.3480   60.8960 C   0  0  0  0  0  0  0  0  0  0  0  0
   39.5650   84.5050   60.6630 C   0  0  0  0  0  0  0  0  0  0  0  0
   39.2620   84.9340   59.2620 C   0  0  0  0  0  0  0  0  0  0  0  0
   40.3660   85.5990   58.7360 O   0  0  0  0  0  0  0  0  0  0  0  0
   41.3830   84.6920   58.4480 C   0  0  0  0  0  0  0  0  0  0  0  0
   41.5340   83.7060   59.5560 C   0  0  0  0  0  0  0  0  0  0  0  0
   44.5731   79.6907   61.6612 H   0  0  0  0  0  0  0  0  0  0  0  0
   46.3312   80.8110   63.0306 H   0  0  0  0  0  0  0  0  0  0  0  0
   45.8131   83.0327   64.0390 H   0  0  0  0  0  0  0  0  0  0  0  0
   43.6057   84.0556   63.6659 H   0  0  0  0  0  0  0  0  0  0  0  0
   39.5866   78.3762   61.3615 H   0  0  0  0  0  0  0  0  0  0  0  0
   41.4576   80.1214   57.8558 H   0  0  0  0  0  0  0  0  0  0  0  0
   39.4233   80.1304   57.4144 H   0  0  0  0  0  0  0  0  0  0  0  0
   37.7792   79.0459   55.8549 H   0  0  0  0  0  0  0  0  0  0  0  0
   37.7991   75.6554   58.3665 H   0  0  0  0  0  0  0  0  0  0  0  0
   41.6412   85.2651   61.1468 H   0  0  0  0  0  0  0  0  0  0  0  0
   39.0735   83.5398   60.8547 H   0  0  0  0  0  0  0  0  0  0  0  0
   39.1909   85.2801   61.3480 H   0  0  0  0  0  0  0  0  0  0  0  0
   39.0382   84.0498   58.6471 H   0  0  0  0  0  0  0  0  0  0  0  0
   38.3920   85.6071   59.2625 H   0  0  0  0  0  0  0  0  0  0  0  0
   41.1382   84.1571   57.5185 H   0  0  0  0  0  0  0  0  0  0  0  0
   42.3279   85.2430   58.3315 H   0  0  0  0  0  0  0  0  0  0  0  0
   40.9097   82.8245   59.3479 H   0  0  0  0  0  0  0  0  0  0  0  0
   42.5890   83.4039   59.6317 H   0  0  0  0  0  0  0  0  0  0  0  0
  1  6  2  0
  2  3  2  0
  2  1  1  0
  3  4  1  0
  4  5  2  0
  6  5  1  0
  7 12  2  0
  8  7  1  0
  9  8  2  0
  9 10  1  0
 10 11  2  0
 11 12  1  0
 11  2  1  0
 13 19  1  0
 13  8  1  0
 14 13  1  0
 15 16  1  0
 15 14  2  0
 16 18  1  0
 17 16  2  0
 18 19  1  0
 19 20  2  0
 21 23  2  0
 21  1  1  0
 21 22  2  0
 24 21  1  0
 25 24  1  0
 26 25  1  0
 27 26  1  0
 28 27  1  0
 28 29  1  0
 29 24  1  0
  3 30  1  0
  4 31  1  0
  5 32  1  0
  6 33  1  0
  7 34  1  0
  9 35  1  0
 14 36  1  0
 15 37  1  0
 18 38  1  0
 24 39  1  0
 25 40  1  0
 25 41  1  0
 26 42  1  0
 26 43  1  0
 28 44  1  0
 28 45  1  0
 29 46  1  0
 29 47  1  0
M  ISO  8  30  14  31  14  32  14  33  14  34  14  35  14  36  14  37  14
M  ISO  8  38   9  39  13  40  13  41  13  42  13  43  13  44  13  45  13
M  ISO  2  46  13  47  13
M  END
>  <minimizedAffinity>  (1) 
-6.96339703

>  <minimizedRMSD>  (1) 
2.61810374

$$$$
