
     RDKit          3D

 48 52  0  0  1  0  0  0  0  0999 V2000
   39.7900   77.4330   59.2880 C   0  0  0  0  0  0  0  0  0  0  0  0
   40.4660   76.2750   59.0390 C   0  0  0  0  0  0  0  0  0  0  0  0
   39.9140   75.5650   57.9650 C   0  0  0  0  0  0  0  0  0  0  0  0
   38.8430   75.9660   57.2530 N   0  0  0  0  0  0  0  0  0  0  0  0
   38.2420   77.1450   57.5890 C   0  0  0  0  0  0  0  0  0  0  0  0
   38.7220   77.8810   58.6160 N   0  0  0  0  0  0  0  0  0  0  0  0
   40.9880   80.3910   61.8260 C   0  0  0  0  0  0  0  0  0  0  0  0
   40.9930   79.1600   62.4320 C   0  0  0  0  0  0  0  0  0  0  0  0
   40.6130   78.0920   61.6920 C   0  0  0  0  0  0  0  0  0  0  0  0
   40.2420   78.2800   60.3740 C   0  0  0  0  0  0  0  0  0  0  0  0
   40.4310   80.0950   60.1240 S   0  0  0  0  0  0  0  0  0  0  0  0
   43.0460   83.2130   62.9480 C   0  0  0  0  0  0  0  0  0  0  0  0
   42.1470   83.9740   63.7410 C   0  0  0  0  0  0  0  0  0  0  0  0
   40.8290   83.5090   63.8830 C   0  0  0  0  0  0  0  0  0  0  0  0
   40.4820   82.3640   63.2580 N   0  0  0  0  0  0  0  0  0  0  0  0
   41.3740   81.6570   62.5020 C   0  0  0  0  0  0  0  0  0  0  0  0
   42.6280   82.0970   62.3660 N   0  0  0  0  0  0  0  0  0  0  0  0
   37.0990   77.5620   56.8040 C   0  0  0  0  0  0  0  0  0  0  0  0
   36.0040   77.0340   57.0540 O   0  0  0  0  0  0  0  0  0  0  0  0
   37.2050   78.5950   55.7050 C   0  0  1  0  0  0  0  0  0  0  0  0
   37.2640   80.0070   56.2270 C   0  0  0  0  0  0  0  0  0  0  0  0
   38.4150   79.3880   55.5820 C   0  0  2  0  0  0  0  0  0  0  0  0
   38.9050   79.7760   54.2160 C   0  0  0  0  0  0  0  0  0  0  0  0
   40.0920   79.0010   53.7580 C   0  0  0  0  0  0  0  0  0  0  0  0
   39.7060   77.7570   52.9890 C   0  0  0  0  0  0  0  0  0  0  0  0
   38.3610   77.4910   53.2330 O   0  0  0  0  0  0  0  0  0  0  0  0
   37.6170   78.4320   52.5370 C   0  0  0  0  0  0  0  0  0  0  0  0
   37.7440   79.7430   53.2420 C   0  0  0  0  0  0  0  0  0  0  0  0
   41.3414   75.9383   59.6137 H   0  0  0  0  0  0  0  0  0  0  0  0
   40.3883   74.6133   57.6833 H   0  0  0  0  0  0  0  0  0  0  0  0
   41.2955   79.0448   63.4833 H   0  0  0  0  0  0  0  0  0  0  0  0
   40.5997   77.0852   62.1350 H   0  0  0  0  0  0  0  0  0  0  0  0
   44.0855   83.5479   62.8168 H   0  0  0  0  0  0  0  0  0  0  0  0
   42.4739   84.9029   64.2311 H   0  0  0  0  0  0  0  0  0  0  0  0
   40.0977   84.0643   64.4886 H   0  0  0  0  0  0  0  0  0  0  0  0
   36.6181   78.0097   54.9819 H   0  0  0  0  0  0  0  0  0  0  0  0
   36.7091   80.8091   55.7183 H   0  0  0  0  0  0  0  0  0  0  0  0
   37.0738   80.4959   57.1939 H   0  0  0  0  0  0  0  0  0  0  0  0
   39.4648   79.2772   55.8912 H   0  0  0  0  0  0  0  0  0  0  0  0
   39.2854   80.8068   54.2684 H   0  0  0  0  0  0  0  0  0  0  0  0
   40.7037   79.6432   53.1072 H   0  0  0  0  0  0  0  0  0  0  0  0
   40.6507   78.6838   54.6509 H   0  0  0  0  0  0  0  0  0  0  0  0
   40.3197   76.9076   53.3236 H   0  0  0  0  0  0  0  0  0  0  0  0
   39.8725   77.9104   51.9125 H   0  0  0  0  0  0  0  0  0  0  0  0
   37.9995   78.5232   51.5097 H   0  0  0  0  0  0  0  0  0  0  0  0
   36.5616   78.1250   52.4936 H   0  0  0  0  0  0  0  0  0  0  0  0
   37.8926   80.5329   52.4911 H   0  0  0  0  0  0  0  0  0  0  0  0
   36.8216   79.8986   53.8207 H   0  0  0  0  0  0  0  0  0  0  0  0
  1 10  1  0
  2  1  2  0
  3  2  1  0
  4  5  1  0
  4  3  2  0
  5  6  2  0
  6  1  1  0
  7  8  2  0
  7 16  1  0
  9  8  1  0
 10  9  2  0
 11 10  1  0
 11  7  1  0
 12 13  2  0
 13 14  1  0
 15 14  2  0
 16 15  1  0
 17 16  2  0
 17 12  1  0
 18 19  2  0
 18  5  1  0
 20 21  1  0
 20 18  1  0
 22 20  1  0
 22 21  1  0
 23 22  1  0
 24 23  1  0
 25 26  1  0
 25 24  1  0
 27 26  1  0
 27 28  1  0
 28 23  1  0
  2 29  1  0
  3 30  1  0
  8 31  1  0
  9 32  1  0
 12 33  1  0
 13 34  1  0
 14 35  1  0
 20 36  1  6
 21 37  1  0
 21 38  1  0
 22 39  1  1
 23 40  1  0
 24 41  1  0
 24 42  1  0
 25 43  1  0
 25 44  1  0
 27 45  1  0
 27 46  1  0
 28 47  1  0
 28 48  1  0
M  ISO  8  29  14  30  14  31  14  32  14  33  14  34  14  35  14  36  13
M  ISO  8  37  13  38  13  39  13  40  13  41  13  42  13  43  13  44  13
M  ISO  4  45  13  46  13  47  13  48  13
M  END
>  <minimizedAffinity>  (1) 
-6.49451351

>  <minimizedRMSD>  (1) 
0.275425136

$$$$
