
     RDKit          3D

 42 45  0  0  0  0  0  0  0  0999 V2000
   41.8230   84.2160   61.5730 C   0  0  0  0  0  0  0  0  0  0  0  0
   41.4760   83.9370   62.8980 C   0  0  0  0  0  0  0  0  0  0  0  0
   40.1930   83.5280   63.2360 C   0  0  0  0  0  0  0  0  0  0  0  0
   39.2350   83.3930   62.2450 C   0  0  0  0  0  0  0  0  0  0  0  0
   39.5830   83.6710   60.9330 C   0  0  0  0  0  0  0  0  0  0  0  0
   40.8600   84.0780   60.5870 C   0  0  0  0  0  0  0  0  0  0  0  0
   45.3190   84.1190   60.5360 C   0  0  0  0  0  0  0  0  0  0  0  0
   45.7310   85.4350   60.6890 C   0  0  0  0  0  0  0  0  0  0  0  0
   44.7890   86.3750   61.1580 C   0  0  0  0  0  0  0  0  0  0  0  0
   43.5310   85.9440   61.4350 N   0  0  0  0  0  0  0  0  0  0  0  0
   43.1680   84.6360   61.2690 C   0  0  0  0  0  0  0  0  0  0  0  0
   44.0610   83.7650   60.8280 N   0  0  0  0  0  0  0  0  0  0  0  0
   41.1660   84.3540   59.1990 C   0  0  0  0  0  0  0  0  0  0  0  0
   40.8940   85.6920   58.8730 C   0  0  0  0  0  0  0  0  0  0  0  0
   41.1250   86.1560   57.5760 C   0  0  0  0  0  0  0  0  0  0  0  0
   41.6040   85.2890   56.6840 N   0  0  0  0  0  0  0  0  0  0  0  0
   41.8650   83.9880   57.0140 C   0  0  0  0  0  0  0  0  0  0  0  0
   41.6490   83.5260   58.2600 N   0  0  0  0  0  0  0  0  0  0  0  0
   42.3930   83.0910   55.9760 C   0  0  0  0  0  0  0  0  0  0  0  0
   42.5540   83.8070   54.6730 C   0  0  0  0  0  0  0  0  0  0  0  0
   42.8630   82.8600   53.5580 C   0  0  0  0  0  0  0  0  0  0  0  0
   42.8890   81.5330   53.9500 O   0  0  0  0  0  0  0  0  0  0  0  0
   41.7170   81.1320   54.5860 C   0  0  0  0  0  0  0  0  0  0  0  0
   41.4290   81.9370   55.8160 C   0  0  0  0  0  0  0  0  0  0  0  0
   42.2340   84.0435   63.6880 H   0  0  0  0  0  0  0  0  0  0  0  0
   39.9390   83.3125   64.2844 H   0  0  0  0  0  0  0  0  0  0  0  0
   38.2138   83.0701   62.4956 H   0  0  0  0  0  0  0  0  0  0  0  0
   38.8234   83.5653   60.1444 H   0  0  0  0  0  0  0  0  0  0  0  0
   46.0298   83.3621   60.1728 H   0  0  0  0  0  0  0  0  0  0  0  0
   46.7618   85.7367   60.4516 H   0  0  0  0  0  0  0  0  0  0  0  0
   45.0664   87.4305   61.2959 H   0  0  0  0  0  0  0  0  0  0  0  0
   40.4988   86.3752   59.6392 H   0  0  0  0  0  0  0  0  0  0  0  0
   40.9188   87.2007   57.3002 H   0  0  0  0  0  0  0  0  0  0  0  0
   43.3859   82.7271   56.2787 H   0  0  0  0  0  0  0  0  0  0  0  0
   41.6198   84.3392   54.4405 H   0  0  0  0  0  0  0  0  0  0  0  0
   43.3941   84.5106   54.7690 H   0  0  0  0  0  0  0  0  0  0  0  0
   43.8484   83.1198   53.1440 H   0  0  0  0  0  0  0  0  0  0  0  0
   42.0577   82.9616   52.8156 H   0  0  0  0  0  0  0  0  0  0  0  0
   40.8776   81.2468   53.8844 H   0  0  0  0  0  0  0  0  0  0  0  0
   41.8451   80.0839   54.8942 H   0  0  0  0  0  0  0  0  0  0  0  0
   40.4060   82.3356   55.7482 H   0  0  0  0  0  0  0  0  0  0  0  0
   41.5416   81.2766   56.6885 H   0  0  0  0  0  0  0  0  0  0  0  0
  1  2  2  0
  2  3  1  0
  4  3  2  0
  5  4  1  0
  6  5  2  0
  6  1  1  0
  7  8  2  0
  7 12  1  0
  8  9  1  0
  9 10  2  0
 11 10  1  0
 11  1  1  0
 12 11  2  0
 13  6  1  0
 14 13  2  0
 15 14  1  0
 16 17  1  0
 16 15  2  0
 17 18  2  0
 18 13  1  0
 19 17  1  0
 20 19  1  0
 21 22  1  0
 21 20  1  0
 22 23  1  0
 23 24  1  0
 24 19  1  0
  2 25  1  0
  3 26  1  0
  4 27  1  0
  5 28  1  0
  7 29  1  0
  8 30  1  0
  9 31  1  0
 14 32  1  0
 15 33  1  0
 19 34  1  0
 20 35  1  0
 20 36  1  0
 21 37  1  0
 21 38  1  0
 23 39  1  0
 23 40  1  0
 24 41  1  0
 24 42  1  0
M  ISO  8  25  14  26  14  27  14  28  14  29  14  30  14  31  14  32  14
M  ISO  8  33  14  34  13  35  13  36  13  37  13  38  13  39  13  40  13
M  ISO  2  41  13  42  13
M  END
>  <minimizedAffinity>  (1) 
-5.71622086

>  <minimizedRMSD>  (1) 
0.444609642

$$$$
