
     RDKit          3D

 34 37  0  0  0  0  0  0  0  0999 V2000
   41.4140   82.6520   61.6590 C   0  0  0  0  0  0  0  0  0  0  0  0
   40.7160   82.6040   62.8900 C   0  0  0  0  0  0  0  0  0  0  0  0
   40.8830   83.5150   63.8930 C   0  0  0  0  0  0  0  0  0  0  0  0
   41.7790   84.5490   63.7170 C   0  0  0  0  0  0  0  0  0  0  0  0
   42.4760   84.6200   62.5250 C   0  0  0  0  0  0  0  0  0  0  0  0
   43.3770   85.6200   62.2390 C   0  0  0  0  0  0  0  0  0  0  0  0
   44.0490   85.6640   61.0210 C   0  0  0  0  0  0  0  0  0  0  0  0
   43.8450   84.7040   60.0390 C   0  0  0  0  0  0  0  0  0  0  0  0
   42.9420   83.7010   60.3240 C   0  0  0  0  0  0  0  0  0  0  0  0
   42.2990   83.6880   61.5150 C   0  0  0  0  0  0  0  0  0  0  0  0
   40.1450   81.6660   59.6420 C   0  0  0  0  0  0  0  0  0  0  0  0
   41.0290   81.6140   60.7210 C   0  0  0  0  0  0  0  0  0  0  0  0
   41.6800   80.3580   61.0310 C   0  0  0  0  0  0  0  0  0  0  0  0
   41.3900   79.2810   60.2430 N   0  0  0  0  0  0  0  0  0  0  0  0
   40.4990   79.4140   59.1840 C   0  0  0  0  0  0  0  0  0  0  0  0
   39.8920   80.5970   58.8970 N   0  0  0  0  0  0  0  0  0  0  0  0
   40.1480   78.2630   58.3450 C   0  0  0  0  0  0  0  0  0  0  0  0
   40.5960   78.1330   57.1950 O   0  0  0  0  0  0  0  0  0  0  0  0
   39.2390   77.2010   58.8340 C   0  0  0  0  0  0  0  0  0  0  0  0
   39.4690   76.4820   59.9170 N   0  0  0  0  0  0  0  0  0  0  0  0
   38.4200   75.6180   60.0370 C   0  0  0  0  0  0  0  0  0  0  0  0
   37.5540   75.8220   59.0170 N   0  0  0  0  0  0  0  0  0  0  0  0
   38.0630   76.8030   58.2720 N   0  0  0  0  0  0  0  0  0  0  0  0
   39.9979   81.7857   63.0472 H   0  0  0  0  0  0  0  0  0  0  0  0
   40.3111   83.4258   64.8284 H   0  0  0  0  0  0  0  0  0  0  0  0
   41.9352   85.2992   64.5062 H   0  0  0  0  0  0  0  0  0  0  0  0
   43.5702   86.4012   62.9890 H   0  0  0  0  0  0  0  0  0  0  0  0
   44.7606   86.4811   60.8314 H   0  0  0  0  0  0  0  0  0  0  0  0
   44.3789   84.7415   59.0780 H   0  0  0  0  0  0  0  0  0  0  0  0
   42.7445   82.9119   59.5835 H   0  0  0  0  0  0  0  0  0  0  0  0
   39.6456   82.6166   59.4032 H   0  0  0  0  0  0  0  0  0  0  0  0
   42.3838   80.2744   61.8722 H   0  0  0  0  0  0  0  0  0  0  0  0
   38.2973   74.8729   60.8368 H   0  0  0  0  0  0  0  0  0  0  0  0
   36.6722   75.3169   58.8490 H   0  0  0  0  0  0  0  0  0  0  0  0
  1  2  2  0
  2  3  1  0
  4  3  2  0
  5  4  1  0
  6  5  2  0
  7  6  1  0
  8  9  1  0
  8  7  2  0
  9 10  2  0
 10  1  1  0
 10  5  1  0
 11 12  2  0
 12 13  1  0
 12  1  1  0
 14 13  2  0
 15 14  1  0
 16 15  2  0
 16 11  1  0
 17 19  1  0
 17 15  1  0
 18 17  2  0
 19 20  1  0
 20 21  2  0
 22 21  1  0
 23 19  2  0
 23 22  1  0
  2 24  1  0
  3 25  1  0
  4 26  1  0
  6 27  1  0
  7 28  1  0
  8 29  1  0
  9 30  1  0
 11 31  1  0
 13 32  1  0
 21 33  1  0
 22 34  1  0
M  ISO  8  24  14  25  14  26  14  27  14  28  14  29  14  30  14  31  14
M  ISO  3  32  14  33  14  34   9
M  END
>  <minimizedAffinity>  (1) 
-5.98151588

>  <minimizedRMSD>  (1) 
7.77745962

$$$$
