
     RDKit          3D

 39 42  0  0  0  0  0  0  0  0999 V2000
   42.0170   82.4730   62.2870 C   0  0  0  0  0  0  0  0  0  0  0  0
   42.5590   81.3890   61.6080 C   0  0  0  0  0  0  0  0  0  0  0  0
   43.8810   81.0310   61.7710 C   0  0  0  0  0  0  0  0  0  0  0  0
   44.7480   81.7240   62.6180 C   0  0  0  0  0  0  0  0  0  0  0  0
   44.2390   82.8040   63.3050 C   0  0  0  0  0  0  0  0  0  0  0  0
   42.9120   83.1580   63.1370 C   0  0  0  0  0  0  0  0  0  0  0  0
   40.3480   78.7600   60.2440 C   0  0  0  0  0  0  0  0  0  0  0  0
   40.2140   79.1380   58.9240 C   0  0  0  0  0  0  0  0  0  0  0  0
   40.8910   80.2950   58.5340 C   0  0  0  0  0  0  0  0  0  0  0  0
   41.6290   80.9640   59.4610 N   0  0  0  0  0  0  0  0  0  0  0  0
   41.7380   80.5770   60.7170 C   0  0  0  0  0  0  0  0  0  0  0  0
   41.0950   79.4770   61.0920 N   0  0  0  0  0  0  0  0  0  0  0  0
   39.4270   78.3920   58.0110 N   0  0  0  0  0  0  0  0  0  0  0  0
   38.5240   79.1400   57.3570 C   0  0  0  0  0  0  0  0  0  0  0  0
   37.6880   78.5030   56.4350 C   0  0  0  0  0  0  0  0  0  0  0  0
   37.8250   77.1250   56.2310 C   0  0  0  0  0  0  0  0  0  0  0  0
   37.1350   76.4450   55.4320 O   0  0  0  0  0  0  0  0  0  0  0  0
   38.7760   76.4380   56.9430 N   0  0  0  0  0  0  0  0  0  0  0  0
   39.5850   77.0650   57.8370 C   0  0  0  0  0  0  0  0  0  0  0  0
   40.4500   76.4560   58.4880 O   0  0  0  0  0  0  0  0  0  0  0  0
   40.3740   82.9530   62.0970 S   0  0  0  0  0  0  0  0  0  0  0  0
   39.8620   83.5610   63.3860 O   0  0  0  0  0  0  0  0  0  0  0  0
   39.5510   81.6560   61.9990 O   0  0  0  0  0  0  0  0  0  0  0  0
   39.9760   84.0390   60.8280 C   0  0  0  0  0  0  0  0  0  0  0  0
   38.9560   84.7020   60.2620 N   0  0  0  0  0  0  0  0  0  0  0  0
   39.4000   85.3820   59.2230 C   0  0  0  0  0  0  0  0  0  0  0  0
   40.7040   85.1950   59.0710 N   0  0  0  0  0  0  0  0  0  0  0  0
   41.0430   84.3830   60.0460 N   0  0  0  0  0  0  0  0  0  0  0  0
   44.2672   80.1659   61.2120 H   0  0  0  0  0  0  0  0  0  0  0  0
   45.7986   81.4188   62.7325 H   0  0  0  0  0  0  0  0  0  0  0  0
   44.8839   83.3818   63.9834 H   0  0  0  0  0  0  0  0  0  0  0  0
   42.5321   84.0241   63.6988 H   0  0  0  0  0  0  0  0  0  0  0  0
   39.8338   77.8569   60.6045 H   0  0  0  0  0  0  0  0  0  0  0  0
   40.8290   80.6586   57.4977 H   0  0  0  0  0  0  0  0  0  0  0  0
   38.4443   80.2216   57.5411 H   0  0  0  0  0  0  0  0  0  0  0  0
   36.9330   79.0768   55.8776 H   0  0  0  0  0  0  0  0  0  0  0  0
   38.8790   75.4237   56.7964 H   0  0  0  0  0  0  0  0  0  0  0  0
   38.7768   86.0149   58.5741 H   0  0  0  0  0  0  0  0  0  0  0  0
   41.3163   85.5980   58.3474 H   0  0  0  0  0  0  0  0  0  0  0  0
  1  6  2  0
  2  3  2  0
  2  1  1  0
  3  4  1  0
  4  5  2  0
  6  5  1  0
  7 12  2  0
  8  7  1  0
  9  8  2  0
  9 10  1  0
 10 11  2  0
 11 12  1  0
 11  2  1  0
 13  8  1  0
 14 13  1  0
 15 14  2  0
 16 15  1  0
 16 18  1  0
 17 16  2  0
 18 19  1  0
 19 13  1  0
 19 20  2  0
 21  1  1  0
 21 22  2  0
 23 21  2  0
 24 21  1  0
 25 24  1  0
 26 25  2  0
 27 26  1  0
 27 28  1  0
 28 24  2  0
  3 29  1  0
  4 30  1  0
  5 31  1  0
  6 32  1  0
  7 33  1  0
  9 34  1  0
 14 35  1  0
 15 36  1  0
 18 37  1  0
 26 38  1  0
 27 39  1  0
M  ISO  8  29  14  30  14  31  14  32  14  33  14  34  14  35  14  36  14
M  ISO  3  37   9  38  14  39   9
M  END
>  <minimizedAffinity>  (1) 
-6.83387661

>  <minimizedRMSD>  (1) 
2.12435555

$$$$
