
     RDKit          3D

 36 38  0  0  0  0  0  0  0  0999 V2000
   41.8140   84.2500   61.6140 C   0  0  0  0  0  0  0  0  0  0  0  0
   41.4080   83.9870   62.9210 C   0  0  0  0  0  0  0  0  0  0  0  0
   40.1260   83.5810   63.2150 C   0  0  0  0  0  0  0  0  0  0  0  0
   39.2080   83.4260   62.1810 C   0  0  0  0  0  0  0  0  0  0  0  0
   39.6060   83.6860   60.8650 C   0  0  0  0  0  0  0  0  0  0  0  0
   40.8910   84.0920   60.5830 C   0  0  0  0  0  0  0  0  0  0  0  0
   41.2660   84.3520   59.2160 C   0  0  0  0  0  0  0  0  0  0  0  0
   40.7190   85.5620   58.7550 C   0  0  0  0  0  0  0  0  0  0  0  0
   40.9590   86.0010   57.4580 C   0  0  0  0  0  0  0  0  0  0  0  0
   41.7270   85.2260   56.6760 N   0  0  0  0  0  0  0  0  0  0  0  0
   42.2520   84.0580   57.1300 C   0  0  0  0  0  0  0  0  0  0  0  0
   42.0220   83.6320   58.3810 N   0  0  0  0  0  0  0  0  0  0  0  0
   43.0420   83.3150   56.2450 N   0  0  0  0  0  0  0  0  0  0  0  0
   43.9570   84.1310   55.0140 S   0  0  0  0  0  0  0  0  0  0  0  0
   44.8250   85.2010   55.6570 O   0  0  0  0  0  0  0  0  0  0  0  0
   44.9010   83.1700   54.3510 O   0  0  0  0  0  0  0  0  0  0  0  0
   42.9720   84.9100   53.9090 O   0  0  0  0  0  0  0  0  0  0  0  0
   45.3950   84.1270   60.9200 C   0  0  0  0  0  0  0  0  0  0  0  0
   45.7590   85.4790   60.8870 C   0  0  0  0  0  0  0  0  0  0  0  0
   44.7450   86.4510   61.1090 C   0  0  0  0  0  0  0  0  0  0  0  0
   43.4930   86.0030   61.3390 N   0  0  0  0  0  0  0  0  0  0  0  0
   43.1740   84.6740   61.3630 C   0  0  0  0  0  0  0  0  0  0  0  0
   44.1280   83.7700   61.1540 N   0  0  0  0  0  0  0  0  0  0  0  0
   42.1320   84.1072   63.7403 H   0  0  0  0  0  0  0  0  0  0  0  0
   39.8306   83.3814   64.2556 H   0  0  0  0  0  0  0  0  0  0  0  0
   38.1790   83.1021   62.3961 H   0  0  0  0  0  0  0  0  0  0  0  0
   38.8828   83.5644   60.0451 H   0  0  0  0  0  0  0  0  0  0  0  0
   40.0943   86.1680   59.4277 H   0  0  0  0  0  0  0  0  0  0  0  0
   40.5362   86.9463   57.0871 H   0  0  0  0  0  0  0  0  0  0  0  0
   43.0807   82.2887   56.3233 H   0  0  0  0  0  0  0  0  0  0  0  0
   44.7647   85.1267   56.6424 H   0  0  0  0  0  0  0  0  0  0  0  0
   45.3973   82.6647   55.0427 H   0  0  0  0  0  0  0  0  0  0  0  0
   42.2941   85.4462   54.3917 H   0  0  0  0  0  0  0  0  0  0  0  0
   46.1578   83.3525   60.7520 H   0  0  0  0  0  0  0  0  0  0  0  0
   46.7993   85.7804   60.6949 H   0  0  0  0  0  0  0  0  0  0  0  0
   44.9725   87.5271   61.0938 H   0  0  0  0  0  0  0  0  0  0  0  0
  1  2  2  0
  2  3  1  0
  4  3  2  0
  5  4  1  0
  6  5  2  0
  6  1  1  0
  7  6  1  0
  8  7  2  0
  9  8  1  0
 10 11  1  0
 10  9  2  0
 11 12  2  0
 12  7  1  0
 13 11  1  0
 14 15  1  0
 14 13  1  0
 16 14  1  0
 17 14  1  0
 18 23  2  0
 19 18  1  0
 19 20  2  0
 20 21  1  0
 21 22  2  0
 22  1  1  0
 23 22  1  0
  2 24  1  0
  3 25  1  0
  4 26  1  0
  5 27  1  0
  8 28  1  0
  9 29  1  0
 13 30  1  0
 15 31  1  0
 16 32  1  0
 17 33  1  0
 18 34  1  0
 19 35  1  0
 20 36  1  0
M  ISO  8  24  14  25  14  26  14  27  14  28  14  29  14  31   3  32   3
M  ISO  4  33   3  34  14  35  14  36  14
M  END
>  <minimizedAffinity>  (1) 
-5.86547852

>  <minimizedRMSD>  (1) 
0.46661678

$$$$
