
     RDKit          3D

 49 52  0  0  1  0  0  0  0  0999 V2000
   42.1980   82.5000   61.5660 C   0  0  0  0  0  0  0  0  0  0  0  0
   42.5770   81.5470   60.6470 C   0  0  0  0  0  0  0  0  0  0  0  0
   43.7550   80.8480   60.8040 C   0  0  0  0  0  0  0  0  0  0  0  0
   44.6160   81.0600   61.8840 C   0  0  0  0  0  0  0  0  0  0  0  0
   44.2510   82.0140   62.8160 C   0  0  0  0  0  0  0  0  0  0  0  0
   43.0710   82.7080   62.6500 C   0  0  0  0  0  0  0  0  0  0  0  0
   40.1000   79.9340   58.4220 C   0  0  0  0  0  0  0  0  0  0  0  0
   40.2050   80.7160   57.2640 C   0  0  0  0  0  0  0  0  0  0  0  0
   41.1310   81.7720   57.2920 C   0  0  0  0  0  0  0  0  0  0  0  0
   41.8480   81.9500   58.4290 N   0  0  0  0  0  0  0  0  0  0  0  0
   41.7390   81.2100   59.5060 C   0  0  0  0  0  0  0  0  0  0  0  0
   40.8550   80.1940   59.4970 N   0  0  0  0  0  0  0  0  0  0  0  0
   39.4030   80.4370   56.1310 N   0  0  0  0  0  0  0  0  0  0  0  0
   38.0950   80.5270   56.3600 C   0  0  0  0  0  0  0  0  0  0  0  0
   37.2180   80.2680   55.3070 C   0  0  0  0  0  0  0  0  0  0  0  0
   37.7370   79.9280   54.0670 C   0  0  0  0  0  0  0  0  0  0  0  0
   37.0590   79.6680   53.0330 O   0  0  0  0  0  0  0  0  0  0  0  0
   39.0800   79.8580   53.9180 N   0  0  0  0  0  0  0  0  0  0  0  0
   39.9550   80.1090   54.9370 C   0  0  0  0  0  0  0  0  0  0  0  0
   41.1880   80.0490   54.8120 O   0  0  0  0  0  0  0  0  0  0  0  0
   40.7500   83.4220   61.3910 S   0  0  0  0  0  0  0  0  0  0  0  0
   40.3070   83.9400   62.7400 O   0  0  0  0  0  0  0  0  0  0  0  0
   39.6270   82.4290   61.1060 O   0  0  0  0  0  0  0  0  0  0  0  0
   42.0660   84.8350   59.6360 C   0  0  1  0  0  0  0  0  0  0  0  0
   40.7290   84.8180   60.4130 C   0  0  1  0  0  0  0  0  0  0  0  0
   39.7080   84.5740   59.2800 C   0  0  0  0  0  0  0  0  0  0  0  0
   39.6150   85.6950   58.4880 O   0  0  0  0  0  0  0  0  0  0  0  0
   40.7770   85.8830   57.7620 C   0  0  0  0  0  0  0  0  0  0  0  0
   41.9680   86.0240   58.7040 C   0  0  2  0  0  0  0  0  0  0  0  0
   43.1380   85.0130   60.4740 O   0  0  0  0  0  0  0  0  0  0  0  0
   43.1210   86.1820   57.9420 O   0  0  0  0  0  0  0  0  0  0  0  0
   44.0275   80.0946   60.0503 H   0  0  0  0  0  0  0  0  0  0  0  0
   45.5502   80.4887   61.9889 H   0  0  0  0  0  0  0  0  0  0  0  0
   44.8967   82.2177   63.6829 H   0  0  0  0  0  0  0  0  0  0  0  0
   42.7984   83.4622   63.4029 H   0  0  0  0  0  0  0  0  0  0  0  0
   39.3882   79.0957   58.4483 H   0  0  0  0  0  0  0  0  0  0  0  0
   41.2695   82.4312   56.4223 H   0  0  0  0  0  0  0  0  0  0  0  0
   37.7149   80.7991   57.3557 H   0  0  0  0  0  0  0  0  0  0  0  0
   36.1303   80.3325   55.4580 H   0  0  0  0  0  0  0  0  0  0  0  0
   39.4599   79.6041   52.9949 H   0  0  0  0  0  0  0  0  0  0  0  0
   42.2223   83.8810   59.1111 H   0  0  0  0  0  0  0  0  0  0  0  0
   40.5296   85.7102   61.0247 H   0  0  0  0  0  0  0  0  0  0  0  0
   40.0377   83.7211   58.6686 H   0  0  0  0  0  0  0  0  0  0  0  0
   38.7231   84.3563   59.7189 H   0  0  0  0  0  0  0  0  0  0  0  0
   40.9366   85.0184   57.1010 H   0  0  0  0  0  0  0  0  0  0  0  0
   40.6820   86.8006   57.1628 H   0  0  0  0  0  0  0  0  0  0  0  0
   41.8373   86.9106   59.3419 H   0  0  0  0  0  0  0  0  0  0  0  0
   42.8335   84.9624   61.4147 H   0  0  0  0  0  0  0  0  0  0  0  0
   43.9011   86.2889   58.5421 H   0  0  0  0  0  0  0  0  0  0  0  0
  1  6  2  0
  2  3  2  0
  2  1  1  0
  3  4  1  0
  4  5  2  0
  6  5  1  0
  7 12  2  0
  8  9  2  0
  8  7  1  0
  9 10  1  0
 10 11  2  0
 11  2  1  0
 12 11  1  0
 13 14  1  0
 13  8  1  0
 15 14  2  0
 16 15  1  0
 17 16  2  0
 18 16  1  0
 18 19  1  0
 19 13  1  0
 20 19  2  0
 21  1  1  0
 21 22  2  0
 23 21  2  0
 24 25  1  0
 24 30  1  0
 25 21  1  0
 26 25  1  0
 27 26  1  0
 28 27  1  0
 28 29  1  0
 29 31  1  0
 29 24  1  0
  3 32  1  0
  4 33  1  0
  5 34  1  0
  6 35  1  0
  7 36  1  0
  9 37  1  0
 14 38  1  0
 15 39  1  0
 18 40  1  0
 24 41  1  6
 25 42  1  1
 26 43  1  0
 26 44  1  0
 28 45  1  0
 28 46  1  0
 29 47  1  1
 30 48  1  0
 31 49  1  0
M  ISO  8  32  14  33  14  34  14  35  14  36  14  37  14  38  14  39  14
M  ISO  8  40   9  41  13  42  13  43  13  44  13  45  13  46  13  47  13
M  ISO  2  48   3  49   3
M  END
>  <minimizedAffinity>  (1) 
-6.45152617

>  <minimizedRMSD>  (1) 
1.28667581

$$$$
