
     RDKit          3D

 32 34  0  0  0  0  0  0  0  0999 V2000
   39.9990   81.4770   58.1390 Cl  0  0  0  0  0  0  0  0  0  0  0  0
   39.9210   79.8330   58.7830 C   0  0  0  0  0  0  0  0  0  0  0  0
   40.3510   79.5120   60.0590 C   0  0  0  0  0  0  0  0  0  0  0  0
   40.2230   78.1800   60.4100 C   0  0  0  0  0  0  0  0  0  0  0  0
   39.7120   77.1770   59.6080 C   0  0  0  0  0  0  0  0  0  0  0  0
   39.3040   77.5400   58.3660 C   0  0  0  0  0  0  0  0  0  0  0  0
   38.6370   76.3440   57.2550 Cl  0  0  0  0  0  0  0  0  0  0  0  0
   39.4080   78.8510   57.9600 C   0  0  0  0  0  0  0  0  0  0  0  0
   42.2160   80.8610   61.1120 C   0  0  0  0  0  0  0  0  0  0  0  0
   40.8790   80.5320   60.8980 C   0  0  0  0  0  0  0  0  0  0  0  0
   39.9090   81.2890   61.5850 C   0  0  0  0  0  0  0  0  0  0  0  0
   40.3520   82.2810   62.4040 N   0  0  0  0  0  0  0  0  0  0  0  0
   41.6400   82.5750   62.5900 C   0  0  0  0  0  0  0  0  0  0  0  0
   42.5730   81.8520   61.9340 N   0  0  0  0  0  0  0  0  0  0  0  0
   41.9400   83.6880   63.5180 C   0  0  0  0  0  0  0  0  0  0  0  0
   41.8540   84.9190   62.8920 F   0  0  0  0  0  0  0  0  0  0  0  0
   41.0320   83.6730   64.5690 F   0  0  0  0  0  0  0  0  0  0  0  0
   43.2420   83.6110   64.0060 F   0  0  0  0  0  0  0  0  0  0  0  0
   38.9530   79.2000   56.6070 C   0  0  0  0  0  0  0  0  0  0  0  0
   37.6930   79.6210   56.2290 C   0  0  0  0  0  0  0  0  0  0  0  0
   37.4920   79.8950   54.8910 C   0  0  0  0  0  0  0  0  0  0  0  0
   38.5410   79.7400   54.0090 C   0  0  0  0  0  0  0  0  0  0  0  0
   39.7930   79.3190   54.4020 C   0  0  0  0  0  0  0  0  0  0  0  0
   39.9840   79.0500   55.7240 N   0  0  0  0  0  0  0  0  0  0  0  0
   40.5580   77.8934   61.4178 H   0  0  0  0  0  0  0  0  0  0  0  0
   39.6398   76.1370   59.9589 H   0  0  0  0  0  0  0  0  0  0  0  0
   42.9981   80.2898   60.5905 H   0  0  0  0  0  0  0  0  0  0  0  0
   38.8348   81.0856   61.4637 H   0  0  0  0  0  0  0  0  0  0  0  0
   36.8826   79.7334   56.9643 H   0  0  0  0  0  0  0  0  0  0  0  0
   36.5082   80.2325   54.5330 H   0  0  0  0  0  0  0  0  0  0  0  0
   38.3708   79.9622   52.9452 H   0  0  0  0  0  0  0  0  0  0  0  0
   40.6095   79.2042   53.6739 H   0  0  0  0  0  0  0  0  0  0  0  0
  1  2  1  0
  2  3  2  0
  3  4  1  0
  3 10  1  0
  5  4  2  0
  6  5  1  0
  7  6  1  0
  8  6  2  0
  8  2  1  0
  9 14  2  0
 10  9  1  0
 10 11  2  0
 11 12  1  0
 12 13  2  0
 13 15  1  0
 14 13  1  0
 15 18  1  0
 15 17  1  0
 16 15  1  0
 19  8  1  0
 20 19  2  0
 21 20  1  0
 22 23  1  0
 22 21  2  0
 23 24  2  0
 24 19  1  0
  4 25  1  0
  5 26  1  0
  9 27  1  0
 11 28  1  0
 20 29  1  0
 21 30  1  0
 22 31  1  0
 23 32  1  0
M  ISO  8  25  14  26  14  27  14  28  14  29  14  30  14  31  14  32  14
M  END
>  <minimizedAffinity>  (1) 
-6.00712872

>  <minimizedRMSD>  (1) 
3.53363013

$$$$
