
     RDKit          3D

 32 35  0  0  0  0  0  0  0  0999 V2000
   40.2470   81.2940   57.2680 C   0  0  0  0  0  0  0  0  0  0  0  0
   41.1590   81.9000   56.3860 C   0  0  0  0  0  0  0  0  0  0  0  0
   41.9540   82.9140   56.9030 C   0  0  0  0  0  0  0  0  0  0  0  0
   41.8340   83.2810   58.1980 N   0  0  0  0  0  0  0  0  0  0  0  0
   40.9330   82.6650   59.0250 C   0  0  0  0  0  0  0  0  0  0  0  0
   40.1400   81.6720   58.5580 N   0  0  0  0  0  0  0  0  0  0  0  0
   39.5350   83.0560   61.0040 C   0  0  0  0  0  0  0  0  0  0  0  0
   40.8060   83.0650   60.4250 C   0  0  0  0  0  0  0  0  0  0  0  0
   41.9150   83.4410   61.1520 C   0  0  0  0  0  0  0  0  0  0  0  0
   41.8060   83.8200   62.4760 C   0  0  0  0  0  0  0  0  0  0  0  0
   42.6450   84.2310   63.4520 N   0  0  0  0  0  0  0  0  0  0  0  0
   41.9590   84.4710   64.5870 C   0  0  0  0  0  0  0  0  0  0  0  0
   40.6650   84.1960   64.2850 N   0  0  0  0  0  0  0  0  0  0  0  0
   40.5430   83.7960   62.9990 C   0  0  0  0  0  0  0  0  0  0  0  0
   39.3920   83.4320   62.3330 C   0  0  0  0  0  0  0  0  0  0  0  0
   42.9110   83.5610   56.0110 C   0  0  0  0  0  0  0  0  0  0  0  0
   42.6600   83.6630   54.6570 C   0  0  0  0  0  0  0  0  0  0  0  0
   43.6060   84.2900   53.8490 C   0  0  0  0  0  0  0  0  0  0  0  0
   44.7410   84.7720   54.4730 C   0  0  0  0  0  0  0  0  0  0  0  0
   44.9930   84.6700   55.8270 C   0  0  0  0  0  0  0  0  0  0  0  0
   44.0390   84.0520   56.5580 N   0  0  0  0  0  0  0  0  0  0  0  0
   39.6006   80.4863   56.8941 H   0  0  0  0  0  0  0  0  0  0  0  0
   41.2389   81.5853   55.3350 H   0  0  0  0  0  0  0  0  0  0  0  0
   38.6571   82.7544   60.4138 H   0  0  0  0  0  0  0  0  0  0  0  0
   42.9037   83.4393   60.6698 H   0  0  0  0  0  0  0  0  0  0  0  0
   43.6630   84.3446   63.3441 H   0  0  0  0  0  0  0  0  0  0  0  0
   42.3615   84.8157   65.5509 H   0  0  0  0  0  0  0  0  0  0  0  0
   38.4103   83.4391   62.8292 H   0  0  0  0  0  0  0  0  0  0  0  0
   41.7328   83.2578   54.2255 H   0  0  0  0  0  0  0  0  0  0  0  0
   43.4564   84.3965   52.7644 H   0  0  0  0  0  0  0  0  0  0  0  0
   45.4959   85.2714   53.8480 H   0  0  0  0  0  0  0  0  0  0  0  0
   45.9125   85.0669   56.2819 H   0  0  0  0  0  0  0  0  0  0  0  0
  1  6  2  0
  2  3  2  0
  2  1  1  0
  3  4  1  0
  4  5  2  0
  5  8  1  0
  6  5  1  0
  7 15  2  0
  8  7  1  0
  8  9  2  0
  9 10  1  0
 10 14  2  0
 10 11  1  0
 11 12  1  0
 13 12  2  0
 14 13  1  0
 15 14  1  0
 16 21  1  0
 16  3  1  0
 17 16  2  0
 18 19  2  0
 18 17  1  0
 19 20  1  0
 20 21  2  0
  1 22  1  0
  2 23  1  0
  7 24  1  0
  9 25  1  0
 11 26  1  0
 12 27  1  0
 15 28  1  0
 17 29  1  0
 18 30  1  0
 19 31  1  0
 20 32  1  0
M  ISO  8  22  14  23  14  24  14  25  14  26   9  27  14  28  14  29  14
M  ISO  3  30  14  31  14  32  14
M  END
>  <minimizedAffinity>  (1) 
-4.95059299

>  <minimizedRMSD>  (1) 
0.307879746

$$$$
