
     RDKit          3D

 19 20  0  0  0  0  0  0  0  0999 V2000
   39.8060   81.9050   61.1120 C   0  0  0  0  0  0  0  0  0  0  0  0
   40.0890   82.5510   59.9000 C   0  0  0  0  0  0  0  0  0  0  0  0
   39.6950   83.8980   59.7910 C   0  0  0  0  0  0  0  0  0  0  0  0
   39.0760   84.4810   60.8500 N   0  0  0  0  0  0  0  0  0  0  0  0
   38.8260   83.8120   62.0020 C   0  0  0  0  0  0  0  0  0  0  0  0
   39.1940   82.5120   62.1350 N   0  0  0  0  0  0  0  0  0  0  0  0
   40.2100   80.5100   61.2340 C   0  0  0  0  0  0  0  0  0  0  0  0
   40.4540   79.7530   60.1070 C   0  0  0  0  0  0  0  0  0  0  0  0
   40.8350   78.4360   60.2070 C   0  0  0  0  0  0  0  0  0  0  0  0
   40.9830   77.8350   61.4620 C   0  0  0  0  0  0  0  0  0  0  0  0
   40.7270   78.6310   62.5660 C   0  0  0  0  0  0  0  0  0  0  0  0
   40.3530   79.9280   62.4390 N   0  0  0  0  0  0  0  0  0  0  0  0
   40.5948   82.0300   59.0738 H   0  0  0  0  0  0  0  0  0  0  0  0
   39.8843   84.4660   58.8682 H   0  0  0  0  0  0  0  0  0  0  0  0
   38.3220   84.3254   62.8341 H   0  0  0  0  0  0  0  0  0  0  0  0
   40.3420   80.2103   59.1128 H   0  0  0  0  0  0  0  0  0  0  0  0
   41.0247   77.8510   59.2950 H   0  0  0  0  0  0  0  0  0  0  0  0
   41.2874   76.7831   61.5664 H   0  0  0  0  0  0  0  0  0  0  0  0
   40.8298   78.1995   63.5726 H   0  0  0  0  0  0  0  0  0  0  0  0
  1  7  1  0
  1  6  1  0
  2  1  2  0
  3  2  1  0
  3  4  2  0
  4  5  1  0
  5  6  2  0
  7 12  2  0
  8  9  2  0
  8  7  1  0
  9 10  1  0
 10 11  2  0
 12 11  1  0
  2 13  1  0
  3 14  1  0
  5 15  1  0
  8 16  1  0
  9 17  1  0
 10 18  1  0
 11 19  1  0
M  ISO  7  13  14  14  14  15  14  16  14  17  14  18  14  19  14
M  END
>  <minimizedAffinity>  (1) 
-4.73534441

>  <minimizedRMSD>  (1) 
0.85788846

$$$$
