
     RDKit          3D

 29 31  0  0  0  0  0  0  0  0999 V2000
   41.7780   84.2320   61.6560 C   0  0  0  0  0  0  0  0  0  0  0  0
   41.3910   83.9430   62.9650 C   0  0  0  0  0  0  0  0  0  0  0  0
   40.0910   83.5690   63.2470 C   0  0  0  0  0  0  0  0  0  0  0  0
   39.1560   83.4780   62.2080 C   0  0  0  0  0  0  0  0  0  0  0  0
   39.5530   83.7680   60.9090 C   0  0  0  0  0  0  0  0  0  0  0  0
   40.8470   84.1410   60.6280 C   0  0  0  0  0  0  0  0  0  0  0  0
   45.3320   84.0690   60.8170 C   0  0  0  0  0  0  0  0  0  0  0  0
   45.7380   85.4190   60.9030 C   0  0  0  0  0  0  0  0  0  0  0  0
   44.7730   86.3720   61.2510 C   0  0  0  0  0  0  0  0  0  0  0  0
   43.5230   85.9300   61.4790 N   0  0  0  0  0  0  0  0  0  0  0  0
   43.1520   84.6170   61.3900 C   0  0  0  0  0  0  0  0  0  0  0  0
   44.0620   83.6990   61.0580 N   0  0  0  0  0  0  0  0  0  0  0  0
   41.1800   84.4310   59.2540 C   0  0  0  0  0  0  0  0  0  0  0  0
   41.4960   83.2870   58.5100 C   0  0  0  0  0  0  0  0  0  0  0  0
   41.8410   83.3370   57.1780 C   0  0  0  0  0  0  0  0  0  0  0  0
   41.8700   84.5790   56.5790 C   0  0  0  0  0  0  0  0  0  0  0  0
   41.5560   85.6880   57.3340 C   0  0  0  0  0  0  0  0  0  0  0  0
   41.2230   85.6000   58.6280 N   0  0  0  0  0  0  0  0  0  0  0  0
   42.1270   84.0135   63.7794 H   0  0  0  0  0  0  0  0  0  0  0  0
   39.7921   83.3440   64.2814 H   0  0  0  0  0  0  0  0  0  0  0  0
   38.1183   83.1800   62.4186 H   0  0  0  0  0  0  0  0  0  0  0  0
   38.8205   83.6983   60.0913 H   0  0  0  0  0  0  0  0  0  0  0  0
   46.0725   83.3019   60.5464 H   0  0  0  0  0  0  0  0  0  0  0  0
   46.7791   85.7124   60.7030 H   0  0  0  0  0  0  0  0  0  0  0  0
   45.0267   87.4391   61.3346 H   0  0  0  0  0  0  0  0  0  0  0  0
   41.4673   82.3080   59.0107 H   0  0  0  0  0  0  0  0  0  0  0  0
   42.0835   82.4238   56.6147 H   0  0  0  0  0  0  0  0  0  0  0  0
   42.1390   84.6824   55.5174 H   0  0  0  0  0  0  0  0  0  0  0  0
   41.5797   86.6792   56.8576 H   0  0  0  0  0  0  0  0  0  0  0  0
  1  2  2  0
  2  3  1  0
  4  3  2  0
  5  4  1  0
  6  5  2  0
  6  1  1  0
  7  8  2  0
  7 12  1  0
  8  9  1  0
  9 10  2  0
 11 10  1  0
 11  1  1  0
 12 11  2  0
 13  6  1  0
 14 13  2  0
 15 14  1  0
 16 15  2  0
 16 17  1  0
 17 18  2  0
 18 13  1  0
  2 19  1  0
  3 20  1  0
  4 21  1  0
  5 22  1  0
  7 23  1  0
  8 24  1  0
  9 25  1  0
 14 26  1  0
 15 27  1  0
 16 28  1  0
 17 29  1  0
M  ISO  8  19  14  20  14  21  14  22  14  23  14  24  14  25  14  26  14
M  ISO  3  27  14  28  14  29  14
M  END
>  <minimizedAffinity>  (1) 
-5.04148579

>  <minimizedRMSD>  (1) 
2.69796729

$$$$
