
     RDKit          3D

 19 20  0  0  0  0  0  0  0  0999 V2000
   41.0280   81.6920   62.4100 C   0  0  0  0  0  0  0  0  0  0  0  0
   40.9310   82.4130   61.2100 C   0  0  0  0  0  0  0  0  0  0  0  0
   40.5630   83.7550   61.2690 C   0  0  0  0  0  0  0  0  0  0  0  0
   40.3170   84.3050   62.4850 N   0  0  0  0  0  0  0  0  0  0  0  0
   40.4180   83.5820   63.6350 C   0  0  0  0  0  0  0  0  0  0  0  0
   40.7700   82.2900   63.5920 N   0  0  0  0  0  0  0  0  0  0  0  0
   40.4280   84.6130   60.0980 C   0  0  0  0  0  0  0  0  0  0  0  0
   41.4510   84.8670   59.2250 C   0  0  0  0  0  0  0  0  0  0  0  0
   41.3330   85.6750   58.1160 C   0  0  0  0  0  0  0  0  0  0  0  0
   40.1400   86.2810   57.8310 C   0  0  0  0  0  0  0  0  0  0  0  0
   39.1200   86.0140   58.7200 C   0  0  0  0  0  0  0  0  0  0  0  0
   39.2570   85.2240   59.7940 N   0  0  0  0  0  0  0  0  0  0  0  0
   41.3167   80.6308   62.3870 H   0  0  0  0  0  0  0  0  0  0  0  0
   41.1409   81.9292   60.2446 H   0  0  0  0  0  0  0  0  0  0  0  0
   40.2097   84.0609   64.6031 H   0  0  0  0  0  0  0  0  0  0  0  0
   42.4263   84.3975   59.4210 H   0  0  0  0  0  0  0  0  0  0  0  0
   42.2000   85.8335   57.4578 H   0  0  0  0  0  0  0  0  0  0  0  0
   40.0042   86.9339   56.9562 H   0  0  0  0  0  0  0  0  0  0  0  0
   38.1384   86.4756   58.5373 H   0  0  0  0  0  0  0  0  0  0  0  0
  1  6  2  0
  2  3  2  0
  2  1  1  0
  3  4  1  0
  4  5  2  0
  6  5  1  0
  7  3  1  0
  8  7  2  0
  9  8  1  0
 10  9  2  0
 10 11  1  0
 11 12  2  0
 12  7  1  0
  1 13  1  0
  2 14  1  0
  5 15  1  0
  8 16  1  0
  9 17  1  0
 10 18  1  0
 11 19  1  0
M  ISO  7  13  14  14  14  15  14  16  14  17  14  18  14  19  14
M  END
>  <minimizedAffinity>  (1) 
-4.17835855

>  <minimizedRMSD>  (1) 
1.78484714

$$$$
