
     RDKit          3D

 19 20  0  0  0  0  0  0  0  0999 V2000
   40.0570   82.0110   60.5810 C   0  0  0  0  0  0  0  0  0  0  0  0
   40.0850   82.9690   59.5590 C   0  0  0  0  0  0  0  0  0  0  0  0
   39.5150   84.2140   59.8130 C   0  0  0  0  0  0  0  0  0  0  0  0
   38.9560   84.4390   61.0510 N   0  0  0  0  0  0  0  0  0  0  0  0
   38.9520   83.4890   62.0020 C   0  0  0  0  0  0  0  0  0  0  0  0
   39.4930   82.2850   61.7810 N   0  0  0  0  0  0  0  0  0  0  0  0
   40.6700   82.7490   58.2500 C   0  0  0  0  0  0  0  0  0  0  0  0
   40.4580   81.6230   57.4960 C   0  0  0  0  0  0  0  0  0  0  0  0
   40.9930   81.3710   56.2490 C   0  0  0  0  0  0  0  0  0  0  0  0
   41.8170   82.3280   55.6940 C   0  0  0  0  0  0  0  0  0  0  0  0
   42.0260   83.4590   56.4540 C   0  0  0  0  0  0  0  0  0  0  0  0
   41.4830   83.6600   57.6670 N   0  0  0  0  0  0  0  0  0  0  0  0
   40.5006   81.0198   60.4055 H   0  0  0  0  0  0  0  0  0  0  0  0
   39.5115   84.9992   59.0426 H   0  0  0  0  0  0  0  0  0  0  0  0
   38.4959   83.7051   62.9794 H   0  0  0  0  0  0  0  0  0  0  0  0
   39.8020   80.8507   57.9241 H   0  0  0  0  0  0  0  0  0  0  0  0
   40.7693   80.4361   55.7143 H   0  0  0  0  0  0  0  0  0  0  0  0
   42.2794   82.1966   54.7046 H   0  0  0  0  0  0  0  0  0  0  0  0
   42.6767   84.2447   56.0427 H   0  0  0  0  0  0  0  0  0  0  0  0
  1  6  2  0
  2  3  2  0
  2  1  1  0
  3  4  1  0
  4  5  2  0
  6  5  1  0
  7  2  1  0
  8  7  2  0
  9  8  1  0
 10  9  2  0
 10 11  1  0
 11 12  2  0
 12  7  1  0
  1 13  1  0
  3 14  1  0
  5 15  1  0
  8 16  1  0
  9 17  1  0
 10 18  1  0
 11 19  1  0
M  ISO  7  13  14  14  14  15  14  16  14  17  14  18  14  19  14
M  END
>  <minimizedAffinity>  (1) 
-4.38389492

>  <minimizedRMSD>  (1) 
0.507225454

$$$$
