
     RDKit          3D

 36 39  0  0  0  0  0  0  0  0999 V2000
   39.7550   77.2110   59.3100 C   0  0  0  0  0  0  0  0  0  0  0  0
   40.4290   76.0550   59.0640 C   0  0  0  0  0  0  0  0  0  0  0  0
   39.8790   75.3140   58.0100 C   0  0  0  0  0  0  0  0  0  0  0  0
   38.7990   75.6930   57.3060 N   0  0  0  0  0  0  0  0  0  0  0  0
   38.1980   76.8610   57.6270 C   0  0  0  0  0  0  0  0  0  0  0  0
   38.6780   77.6330   58.6410 N   0  0  0  0  0  0  0  0  0  0  0  0
   40.9820   80.2220   61.7730 C   0  0  0  0  0  0  0  0  0  0  0  0
   40.9850   78.9970   62.4080 C   0  0  0  0  0  0  0  0  0  0  0  0
   40.5980   77.9220   61.6960 C   0  0  0  0  0  0  0  0  0  0  0  0
   40.2150   78.0690   60.3720 C   0  0  0  0  0  0  0  0  0  0  0  0
   40.4120   79.8880   60.0820 S   0  0  0  0  0  0  0  0  0  0  0  0
   43.0300   83.0840   62.8070 C   0  0  0  0  0  0  0  0  0  0  0  0
   42.1440   83.8540   63.5910 C   0  0  0  0  0  0  0  0  0  0  0  0
   40.8370   83.3850   63.7630 C   0  0  0  0  0  0  0  0  0  0  0  0
   40.5150   82.2170   63.1600 N   0  0  0  0  0  0  0  0  0  0  0  0
   41.3820   81.5060   62.4180 C   0  0  0  0  0  0  0  0  0  0  0  0
   42.6240   81.9340   62.2440 N   0  0  0  0  0  0  0  0  0  0  0  0
   37.0300   77.2760   56.8700 C   0  0  0  0  0  0  0  0  0  0  0  0
   35.8980   76.9000   57.3030 O   0  0  0  0  0  0  0  0  0  0  0  0
   37.0940   78.0860   55.6570 C   0  0  0  0  0  0  0  0  0  0  0  0
   37.3790   79.4090   55.7580 C   0  0  0  0  0  0  0  0  0  0  0  0
   37.4340   80.1610   54.5870 C   0  0  0  0  0  0  0  0  0  0  0  0
   37.2010   79.5690   53.3400 C   0  0  0  0  0  0  0  0  0  0  0  0
   36.9150   78.2100   53.3190 C   0  0  0  0  0  0  0  0  0  0  0  0
   36.8680   77.5080   54.4640 N   0  0  0  0  0  0  0  0  0  0  0  0
   41.3140   75.7354   59.6337 H   0  0  0  0  0  0  0  0  0  0  0  0
   40.3614   74.3624   57.7419 H   0  0  0  0  0  0  0  0  0  0  0  0
   41.2930   78.9021   63.4597 H   0  0  0  0  0  0  0  0  0  0  0  0
   40.5857   76.9270   62.1649 H   0  0  0  0  0  0  0  0  0  0  0  0
   44.0634   83.4292   62.6556 H   0  0  0  0  0  0  0  0  0  0  0  0
   42.4719   84.7965   64.0538 H   0  0  0  0  0  0  0  0  0  0  0  0
   40.1023   83.9421   64.3629 H   0  0  0  0  0  0  0  0  0  0  0  0
   37.5615   79.8746   56.7377 H   0  0  0  0  0  0  0  0  0  0  0  0
   37.6638   81.2353   54.6428 H   0  0  0  0  0  0  0  0  0  0  0  0
   37.2428   80.1579   52.4118 H   0  0  0  0  0  0  0  0  0  0  0  0
   36.7259   77.7056   52.3599 H   0  0  0  0  0  0  0  0  0  0  0  0
  1 10  1  0
  2  1  2  0
  3  2  1  0
  4  5  1  0
  4  3  2  0
  5  6  2  0
  6  1  1  0
  7  8  2  0
  7 16  1  0
  9  8  1  0
 10  9  2  0
 11 10  1  0
 11  7  1  0
 12 13  2  0
 13 14  1  0
 15 14  2  0
 16 15  1  0
 17 16  2  0
 17 12  1  0
 18 19  2  0
 18  5  1  0
 20 21  2  0
 20 18  1  0
 22 21  1  0
 23 22  2  0
 24 23  1  0
 24 25  2  0
 25 20  1  0
  2 26  1  0
  3 27  1  0
  8 28  1  0
  9 29  1  0
 12 30  1  0
 13 31  1  0
 14 32  1  0
 21 33  1  0
 22 34  1  0
 23 35  1  0
 24 36  1  0
M  ISO  8  26  14  27  14  28  14  29  14  30  14  31  14  32  14  33  14
M  ISO  3  34  14  35  14  36  14
M  END
>  <minimizedAffinity>  (1) 
-6.67379475

>  <minimizedRMSD>  (1) 
0.695514679

$$$$
