
     RDKit          3D

 45 49  0  0  0  0  0  0  0  0999 V2000
   40.5250   81.6470   55.9990 O   0  0  0  0  0  0  0  0  0  0  0  0
   41.7930   81.8860   55.4870 C   0  0  0  0  0  0  0  0  0  0  0  0
   42.1600   83.0760   54.8910 C   0  0  0  0  0  0  0  0  0  0  0  0
   43.4490   83.2010   54.4170 C   0  0  0  0  0  0  0  0  0  0  0  0
   44.4200   82.2250   54.4870 C   0  0  0  0  0  0  0  0  0  0  0  0
   44.0170   81.0590   55.0860 C   0  0  0  0  0  0  0  0  0  0  0  0
   42.7550   80.9000   55.5640 C   0  0  0  0  0  0  0  0  0  0  0  0
   45.2040   79.7380   55.2240 S   0  0  0  0  0  0  0  0  0  0  0  0
   46.7110   80.3350   54.4900 C   0  0  0  0  0  0  0  0  0  0  0  0
   47.7950   79.4980   54.4680 C   0  0  0  0  0  0  0  0  0  0  0  0
   48.9910   79.9020   53.9140 C   0  0  0  0  0  0  0  0  0  0  0  0
   49.0710   81.1720   53.3800 C   0  0  0  0  0  0  0  0  0  0  0  0
   47.9460   81.9660   53.4320 C   0  0  0  0  0  0  0  0  0  0  0  0
   46.7300   81.6070   53.9760 C   0  0  0  0  0  0  0  0  0  0  0  0
   45.6800   82.5360   53.9500 N   0  0  0  0  0  0  0  0  0  0  0  0
   41.0640   83.4390   58.2360 Cl  0  0  0  0  0  0  0  0  0  0  0  0
   40.6610   81.7330   58.4000 C   0  0  0  0  0  0  0  0  0  0  0  0
   40.5690   81.1080   59.6260 C   0  0  0  0  0  0  0  0  0  0  0  0
   40.2410   79.7530   59.5950 C   0  0  0  0  0  0  0  0  0  0  0  0
   40.0090   79.0150   58.4560 C   0  0  0  0  0  0  0  0  0  0  0  0
   40.1110   79.6760   57.2680 C   0  0  0  0  0  0  0  0  0  0  0  0
   39.8370   78.8430   55.7380 Cl  0  0  0  0  0  0  0  0  0  0  0  0
   40.4360   81.0270   57.2460 C   0  0  0  0  0  0  0  0  0  0  0  0
   42.0420   82.0990   61.4290 C   0  0  0  0  0  0  0  0  0  0  0  0
   40.8060   81.8520   60.8150 C   0  0  0  0  0  0  0  0  0  0  0  0
   39.6770   82.3850   61.4170 C   0  0  0  0  0  0  0  0  0  0  0  0
   39.8280   83.1070   62.5570 N   0  0  0  0  0  0  0  0  0  0  0  0
   41.0200   83.3260   63.1200 C   0  0  0  0  0  0  0  0  0  0  0  0
   42.1300   82.8190   62.5540 N   0  0  0  0  0  0  0  0  0  0  0  0
   41.0180   84.1360   64.3630 C   0  0  0  0  0  0  0  0  0  0  0  0
   40.7250   85.4630   64.1170 F   0  0  0  0  0  0  0  0  0  0  0  0
   40.0950   83.6370   65.2610 F   0  0  0  0  0  0  0  0  0  0  0  0
   42.2920   84.1600   64.9530 F   0  0  0  0  0  0  0  0  0  0  0  0
   41.4420   83.9040   54.7965 H   0  0  0  0  0  0  0  0  0  0  0  0
   43.7244   84.1558   53.9454 H   0  0  0  0  0  0  0  0  0  0  0  0
   42.4883   79.9417   56.0336 H   0  0  0  0  0  0  0  0  0  0  0  0
   47.7101   78.4893   54.8984 H   0  0  0  0  0  0  0  0  0  0  0  0
   49.8605   79.2284   53.8980 H   0  0  0  0  0  0  0  0  0  0  0  0
   50.0038   81.5390   52.9270 H   0  0  0  0  0  0  0  0  0  0  0  0
   48.0244   82.9753   53.0017 H   0  0  0  0  0  0  0  0  0  0  0  0
   45.8356   83.4633   53.5295 H   0  0  0  0  0  0  0  0  0  0  0  0
   40.1610   79.2308   60.5598 H   0  0  0  0  0  0  0  0  0  0  0  0
   39.7542   77.9459   58.5022 H   0  0  0  0  0  0  0  0  0  0  0  0
   42.9587   81.6926   60.9767 H   0  0  0  0  0  0  0  0  0  0  0  0
   38.6798   82.2265   60.9805 H   0  0  0  0  0  0  0  0  0  0  0  0
  1 23  1  0
  2  7  1  0
  2  1  1  0
  3  2  2  0
  4  5  2  0
  4  3  1  0
  5  6  1  0
  6  8  1  0
  6  7  2  0
  9  8  1  0
 10  9  2  0
 11 10  1  0
 12 13  1  0
 12 11  2  0
 13 14  2  0
 14  9  1  0
 15 14  1  0
 15  5  1  0
 16 17  1  0
 17 18  2  0
 18 25  1  0
 19 18  1  0
 20 19  2  0
 21 20  1  0
 22 21  1  0
 23 21  2  0
 23 17  1  0
 24 29  2  0
 25 26  2  0
 25 24  1  0
 26 27  1  0
 27 28  2  0
 28 30  1  0
 29 28  1  0
 30 33  1  0
 30 32  1  0
 31 30  1  0
  3 34  1  0
  4 35  1  0
  7 36  1  0
 10 37  1  0
 11 38  1  0
 12 39  1  0
 13 40  1  0
 15 41  1  0
 19 42  1  0
 20 43  1  0
 24 44  1  0
 26 45  1  0
M  ISO  8  34  14  35  14  36  14  37  14  38  14  39  14  40  14  42  14
M  ISO  3  43  14  44  14  45  14
M  END
>  <minimizedAffinity>  (1) 
-5.34795094

>  <minimizedRMSD>  (1) 
1.64252818

$$$$
