
     RDKit          3D

 22 23  0  0  0  0  0  0  0  0999 V2000
   42.5580   83.3110   63.1280 C   0  0  0  0  0  0  0  0  0  0  0  0
   41.5540   83.9110   63.9060 C   0  0  0  0  0  0  0  0  0  0  0  0
   40.2170   83.6570   63.5680 C   0  0  0  0  0  0  0  0  0  0  0  0
   40.0030   82.8410   62.5000 N   0  0  0  0  0  0  0  0  0  0  0  0
   40.9780   82.2830   61.7770 C   0  0  0  0  0  0  0  0  0  0  0  0
   42.2530   82.5220   62.0970 N   0  0  0  0  0  0  0  0  0  0  0  0
   43.8610   83.6610   63.5930 N   0  0  0  0  0  0  0  0  0  0  0  0
   40.8170   79.3490   62.4020 Cl  0  0  0  0  0  0  0  0  0  0  0  0
   40.5560   80.0490   60.8360 C   0  0  0  0  0  0  0  0  0  0  0  0
   40.6530   81.4170   60.6450 C   0  0  0  0  0  0  0  0  0  0  0  0
   40.4430   81.9750   59.3930 C   0  0  0  0  0  0  0  0  0  0  0  0
   40.1300   81.1840   58.2820 C   0  0  0  0  0  0  0  0  0  0  0  0
   40.0450   79.8350   58.5120 C   0  0  0  0  0  0  0  0  0  0  0  0
   40.2480   79.2570   59.7470 C   0  0  0  0  0  0  0  0  0  0  0  0
   41.8092   84.5612   64.7557 H   0  0  0  0  0  0  0  0  0  0  0  0
   39.3837   84.0949   64.1370 H   0  0  0  0  0  0  0  0  0  0  0  0
   44.6950   83.2913   63.1148 H   0  0  0  0  0  0  0  0  0  0  0  0
   43.9675   84.2834   64.4068 H   0  0  0  0  0  0  0  0  0  0  0  0
   40.5244   83.0651   59.2704 H   0  0  0  0  0  0  0  0  0  0  0  0
   39.9624   81.6179   57.2852 H   0  0  0  0  0  0  0  0  0  0  0  0
   39.8014   79.1777   57.6643 H   0  0  0  0  0  0  0  0  0  0  0  0
   40.1648   78.1665   59.8651 H   0  0  0  0  0  0  0  0  0  0  0  0
  1  7  1  0
  1  2  2  0
  3  2  1  0
  4  3  2  0
  5  6  2  0
  5  4  1  0
  6  1  1  0
  9  8  1  0
 10  9  2  0
 10  5  1  0
 11 10  1  0
 12 13  1  0
 12 11  2  0
 13 14  2  0
 14  9  1  0
  2 15  1  0
  3 16  1  0
  7 17  1  0
  7 18  1  0
 11 19  1  0
 12 20  1  0
 13 21  1  0
 14 22  1  0
M  ISO  6  15  14  16  14  19  14  20  14  21  14  22  14
M  END
>  <minimizedAffinity>  (1) 
-4.69346094

>  <minimizedRMSD>  (1) 
5.4657712

$$$$
