
     RDKit          3D

 30 32  0  0  0  0  0  0  0  0999 V2000
   41.6490   83.9170   61.4360 C   0  0  0  0  0  0  0  0  0  0  0  0
   41.3240   84.2800   62.7360 C   0  0  0  0  0  0  0  0  0  0  0  0
   40.7960   83.3510   63.6390 C   0  0  0  0  0  0  0  0  0  0  0  0
   40.6000   82.0700   63.2330 N   0  0  0  0  0  0  0  0  0  0  0  0
   40.9210   81.7440   61.9780 C   0  0  0  0  0  0  0  0  0  0  0  0
   41.4360   82.6420   61.0890 N   0  0  0  0  0  0  0  0  0  0  0  0
   43.7240   86.5410   59.9570 C   0  0  0  0  0  0  0  0  0  0  0  0
   43.1720   86.6520   58.6760 C   0  0  0  0  0  0  0  0  0  0  0  0
   42.0980   85.8350   58.3210 C   0  0  0  0  0  0  0  0  0  0  0  0
   41.6530   84.9650   59.2730 N   0  0  0  0  0  0  0  0  0  0  0  0
   42.1990   84.8790   60.4910 C   0  0  0  0  0  0  0  0  0  0  0  0
   43.2290   85.6540   60.8490 N   0  0  0  0  0  0  0  0  0  0  0  0
   44.7970   87.4310   60.1600 N   0  0  0  0  0  0  0  0  0  0  0  0
   40.0720   81.4120   59.1020 Cl  0  0  0  0  0  0  0  0  0  0  0  0
   40.3320   80.0850   60.2320 C   0  0  0  0  0  0  0  0  0  0  0  0
   40.7190   80.3740   61.5180 C   0  0  0  0  0  0  0  0  0  0  0  0
   40.9190   79.3250   62.3910 C   0  0  0  0  0  0  0  0  0  0  0  0
   40.7550   77.9990   62.0560 C   0  0  0  0  0  0  0  0  0  0  0  0
   40.3650   77.7300   60.7540 C   0  0  0  0  0  0  0  0  0  0  0  0
   40.1540   78.7700   59.8450 C   0  0  0  0  0  0  0  0  0  0  0  0
   41.4847   85.3181   63.0623 H   0  0  0  0  0  0  0  0  0  0  0  0
   40.5427   83.6545   64.6655 H   0  0  0  0  0  0  0  0  0  0  0  0
   43.5807   87.3762   57.9559 H   0  0  0  0  0  0  0  0  0  0  0  0
   41.6341   85.8896   57.3251 H   0  0  0  0  0  0  0  0  0  0  0  0
   45.0896   88.0660   59.4036 H   0  0  0  0  0  0  0  0  0  0  0  0
   45.2890   87.4467   61.0648 H   0  0  0  0  0  0  0  0  0  0  0  0
   41.2290   79.5623   63.4194 H   0  0  0  0  0  0  0  0  0  0  0  0
   40.9252   77.1938   62.7858 H   0  0  0  0  0  0  0  0  0  0  0  0
   40.2201   76.6879   60.4329 H   0  0  0  0  0  0  0  0  0  0  0  0
   39.8442   78.5408   58.8147 H   0  0  0  0  0  0  0  0  0  0  0  0
  1  2  2  0
  2  3  1  0
  4  3  2  0
  5  4  1  0
  6  1  1  0
  6  5  2  0
  7 13  1  0
  7 12  2  0
  8  7  1  0
  9  8  2  0
  9 10  1  0
 10 11  2  0
 11 12  1  0
 11  1  1  0
 14 15  1  0
 15 16  2  0
 16  5  1  0
 16 17  1  0
 18 17  2  0
 19 18  1  0
 20 15  1  0
 20 19  2  0
  2 21  1  0
  3 22  1  0
  8 23  1  0
  9 24  1  0
 13 25  1  0
 13 26  1  0
 17 27  1  0
 18 28  1  0
 19 29  1  0
 20 30  1  0
M  ISO  8  21  14  22  14  23  14  24  14  27  14  28  14  29  14  30  14
M  END
>  <minimizedAffinity>  (1) 
-5.76698923

>  <minimizedRMSD>  (1) 
0.738045454

$$$$
