
     RDKit          3D

 30 32  0  0  0  0  0  0  0  0999 V2000
   41.8280   84.2240   61.6840 C   0  0  0  0  0  0  0  0  0  0  0  0
   41.4780   84.0210   63.0260 C   0  0  0  0  0  0  0  0  0  0  0  0
   40.1980   83.6120   63.3600 C   0  0  0  0  0  0  0  0  0  0  0  0
   39.2530   83.4000   62.3580 C   0  0  0  0  0  0  0  0  0  0  0  0
   39.6190   83.6090   61.0240 C   0  0  0  0  0  0  0  0  0  0  0  0
   40.8950   84.0190   60.6600 C   0  0  0  0  0  0  0  0  0  0  0  0
   45.3860   84.1570   60.8030 C   0  0  0  0  0  0  0  0  0  0  0  0
   45.7330   85.5070   60.8000 C   0  0  0  0  0  0  0  0  0  0  0  0
   44.7420   86.4420   61.1010 C   0  0  0  0  0  0  0  0  0  0  0  0
   43.5110   85.9640   61.3750 N   0  0  0  0  0  0  0  0  0  0  0  0
   43.1820   84.6520   61.3750 C   0  0  0  0  0  0  0  0  0  0  0  0
   44.1260   83.7630   61.0890 N   0  0  0  0  0  0  0  0  0  0  0  0
   41.9520   81.6780   59.2060 Cl  0  0  0  0  0  0  0  0  0  0  0  0
   41.7440   83.2300   58.4200 C   0  0  0  0  0  0  0  0  0  0  0  0
   41.2330   84.2270   59.2570 C   0  0  0  0  0  0  0  0  0  0  0  0
   41.0550   85.4810   58.6600 C   0  0  0  0  0  0  0  0  0  0  0  0
   41.3520   85.7430   57.3390 C   0  0  0  0  0  0  0  0  0  0  0  0
   41.8500   84.7160   56.5730 C   0  0  0  0  0  0  0  0  0  0  0  0
   42.0500   83.4560   57.1010 C   0  0  0  0  0  0  0  0  0  0  0  0
   42.2236   84.1874   63.8175 H   0  0  0  0  0  0  0  0  0  0  0  0
   39.9275   83.4547   64.4146 H   0  0  0  0  0  0  0  0  0  0  0  0
   38.2340   83.0730   62.6123 H   0  0  0  0  0  0  0  0  0  0  0  0
   38.8699   83.4428   60.2358 H   0  0  0  0  0  0  0  0  0  0  0  0
   46.1499   83.4009   60.5689 H   0  0  0  0  0  0  0  0  0  0  0  0
   46.7595   85.8264   60.5668 H   0  0  0  0  0  0  0  0  0  0  0  0
   44.9553   87.5210   61.1142 H   0  0  0  0  0  0  0  0  0  0  0  0
   40.6574   86.3002   59.2771 H   0  0  0  0  0  0  0  0  0  0  0  0
   41.1950   86.7441   56.9110 H   0  0  0  0  0  0  0  0  0  0  0  0
   42.0944   84.9020   55.5167 H   0  0  0  0  0  0  0  0  0  0  0  0
   42.4487   82.6450   56.4738 H   0  0  0  0  0  0  0  0  0  0  0  0
  1  2  2  0
  2  3  1  0
  4  3  2  0
  5  4  1  0
  6  5  2  0
  6  1  1  0
  7 12  2  0
  8  7  1  0
  8  9  2  0
  9 10  1  0
 11 10  2  0
 11  1  1  0
 12 11  1  0
 14 13  1  0
 14 15  2  0
 15  6  1  0
 16 15  1  0
 17 16  2  0
 18 19  2  0
 18 17  1  0
 19 14  1  0
  2 20  1  0
  3 21  1  0
  4 22  1  0
  5 23  1  0
  7 24  1  0
  8 25  1  0
  9 26  1  0
 16 27  1  0
 17 28  1  0
 18 29  1  0
 19 30  1  0
M  ISO  8  20  14  21  14  22  14  23  14  24  14  25  14  26  14  27  14
M  ISO  3  28  14  29  14  30  14
M  END
>  <minimizedAffinity>  (1) 
-5.16571379

>  <minimizedRMSD>  (1) 
2.63828301

$$$$
