
     RDKit          3D

 29 31  0  0  1  0  0  0  0  0999 V2000
   41.4020   85.1810   59.4570 C   0  0  1  0  0  0  0  0  0  0  0  0
   42.2200   85.5280   58.2180 C   0  0  0  0  0  0  0  0  0  0  0  0
   41.2000   84.3890   58.2230 C   0  0  1  0  0  0  0  0  0  0  0  0
   42.2200   84.6270   60.4860 O   0  0  0  0  0  0  0  0  0  0  0  0
   39.9710   83.7000   63.1700 C   0  0  0  0  0  0  0  0  0  0  0  0
   40.7840   83.8310   64.2970 C   0  0  0  0  0  0  0  0  0  0  0  0
   42.1190   84.2480   64.0820 C   0  0  0  0  0  0  0  0  0  0  0  0
   42.4870   84.4810   62.8030 N   0  0  0  0  0  0  0  0  0  0  0  0
   41.6900   84.3490   61.7290 C   0  0  0  0  0  0  0  0  0  0  0  0
   40.4340   83.9600   61.9060 N   0  0  0  0  0  0  0  0  0  0  0  0
   41.6640   83.0900   58.2230 O   0  0  0  0  0  0  0  0  0  0  0  0
   39.9530   81.4230   59.8610 Cl  0  0  0  0  0  0  0  0  0  0  0  0
   40.2900   81.3080   58.1270 C   0  0  0  0  0  0  0  0  0  0  0  0
   41.1280   82.1400   57.3770 C   0  0  0  0  0  0  0  0  0  0  0  0
   41.2520   81.8740   56.0320 C   0  0  0  0  0  0  0  0  0  0  0  0
   40.5690   80.8230   55.4590 C   0  0  0  0  0  0  0  0  0  0  0  0
   39.7400   79.9950   56.1860 C   0  0  0  0  0  0  0  0  0  0  0  0
   39.6010   80.2430   57.5350 C   0  0  0  0  0  0  0  0  0  0  0  0
   40.6940   85.6871   60.1297 H   0  0  0  0  0  0  0  0  0  0  0  0
   43.2974   85.3087   58.1843 H   0  0  0  0  0  0  0  0  0  0  0  0
   42.3926   86.4305   57.6133 H   0  0  0  0  0  0  0  0  0  0  0  0
   40.3354   84.1324   57.5932 H   0  0  0  0  0  0  0  0  0  0  0  0
   38.9271   83.3784   63.2999 H   0  0  0  0  0  0  0  0  0  0  0  0
   40.4039   83.6195   65.3073 H   0  0  0  0  0  0  0  0  0  0  0  0
   42.8239   84.3764   64.9167 H   0  0  0  0  0  0  0  0  0  0  0  0
   41.9020   82.5060   55.4090 H   0  0  0  0  0  0  0  0  0  0  0  0
   40.6897   80.6378   54.3814 H   0  0  0  0  0  0  0  0  0  0  0  0
   39.2061   79.1624   55.7045 H   0  0  0  0  0  0  0  0  0  0  0  0
   38.9480   79.6033   58.1468 H   0  0  0  0  0  0  0  0  0  0  0  0
  1  4  1  0
  2  3  1  0
  2  1  1  0
  3  1  1  0
  4  9  1  0
  5  6  2  0
  7  6  1  0
  8  7  2  0
  9 10  2  0
  9  8  1  0
 10  5  1  0
 11  3  1  0
 13 12  1  0
 14 13  2  0
 14 11  1  0
 15 14  1  0
 16 15  2  0
 16 17  1  0
 17 18  2  0
 18 13  1  0
  1 19  1  1
  2 20  1  0
  2 21  1  0
  3 22  1  6
  5 23  1  0
  6 24  1  0
  7 25  1  0
 15 26  1  0
 16 27  1  0
 17 28  1  0
 18 29  1  0
M  ISO  8  19  13  20  13  21  13  22  13  23  14  24  14  25  14  26  14
M  ISO  3  27  14  28  14  29  14
M  END
>  <minimizedAffinity>  (1) 
-4.57068634

>  <minimizedRMSD>  (1) 
2.83127022

$$$$
