
     RDKit          3D

 48 51  0  0  0  0  0  0  0  0999 V2000
   42.4020   82.1780   62.1760 C   0  0  0  0  0  0  0  0  0  0  0  0
   42.8070   81.2020   61.2990 C   0  0  0  0  0  0  0  0  0  0  0  0
   44.1130   80.7600   61.3020 C   0  0  0  0  0  0  0  0  0  0  0  0
   45.0800   81.2630   62.1730 C   0  0  0  0  0  0  0  0  0  0  0  0
   44.6890   82.2420   63.0600 C   0  0  0  0  0  0  0  0  0  0  0  0
   43.3820   82.6790   63.0500 C   0  0  0  0  0  0  0  0  0  0  0  0
   40.3180   78.9370   59.7640 C   0  0  0  0  0  0  0  0  0  0  0  0
   40.1470   79.5170   58.4990 C   0  0  0  0  0  0  0  0  0  0  0  0
   40.9010   80.6640   58.2220 C   0  0  0  0  0  0  0  0  0  0  0  0
   41.7320   81.1260   59.1890 N   0  0  0  0  0  0  0  0  0  0  0  0
   41.8800   80.5740   60.3700 C   0  0  0  0  0  0  0  0  0  0  0  0
   41.1640   79.4690   60.6540 N   0  0  0  0  0  0  0  0  0  0  0  0
   39.2520   78.9540   57.5580 N   0  0  0  0  0  0  0  0  0  0  0  0
   38.4520   79.8580   56.9720 C   0  0  0  0  0  0  0  0  0  0  0  0
   37.5350   79.4070   56.0320 C   0  0  0  0  0  0  0  0  0  0  0  0
   37.4770   78.0350   55.7300 C   0  0  0  0  0  0  0  0  0  0  0  0
   36.6880   77.5290   54.9010 O   0  0  0  0  0  0  0  0  0  0  0  0
   38.3310   77.1870   56.3780 N   0  0  0  0  0  0  0  0  0  0  0  0
   39.2270   77.6320   57.2950 C   0  0  0  0  0  0  0  0  0  0  0  0
   40.0070   76.8710   57.8880 O   0  0  0  0  0  0  0  0  0  0  0  0
   40.7850   82.7810   62.1960 S   0  0  0  0  0  0  0  0  0  0  0  0
   40.3430   83.0220   63.6200 O   0  0  0  0  0  0  0  0  0  0  0  0
   39.8720   81.6080   61.8310 O   0  0  0  0  0  0  0  0  0  0  0  0
   40.8030   85.0870   58.5370 N   0  0  0  0  0  0  0  0  0  0  0  0
   41.7600   84.3120   59.3050 C   0  0  0  0  0  0  0  0  0  0  0  0
   41.6780   84.7500   60.7470 C   0  0  0  0  0  0  0  0  0  0  0  0
   40.3850   84.2430   61.4160 C   0  0  0  0  0  0  0  0  0  0  0  0
   39.4820   83.8910   60.2150 C   0  0  0  0  0  0  0  0  0  0  0  0
   39.5540   85.1150   59.2960 C   0  0  0  0  0  0  0  0  0  0  0  0
   44.4052   79.9770   60.5868 H   0  0  0  0  0  0  0  0  0  0  0  0
   46.1153   80.8920   62.1523 H   0  0  0  0  0  0  0  0  0  0  0  0
   45.4127   82.6705   63.7690 H   0  0  0  0  0  0  0  0  0  0  0  0
   43.0900   83.4624   63.7648 H   0  0  0  0  0  0  0  0  0  0  0  0
   39.7495   78.0331   60.0283 H   0  0  0  0  0  0  0  0  0  0  0  0
   40.8218   81.1742   57.2507 H   0  0  0  0  0  0  0  0  0  0  0  0
   38.5207   80.9254   57.2289 H   0  0  0  0  0  0  0  0  0  0  0  0
   36.8609   80.1157   55.5288 H   0  0  0  0  0  0  0  0  0  0  0  0
   38.2934   76.1802   56.1639 H   0  0  0  0  0  0  0  0  0  0  0  0
   40.6477   84.6454   57.6195 H   0  0  0  0  0  0  0  0  0  0  0  0
   41.5191   83.2415   59.2274 H   0  0  0  0  0  0  0  0  0  0  0  0
   42.7765   84.4744   58.9174 H   0  0  0  0  0  0  0  0  0  0  0  0
   42.5446   84.3486   61.2928 H   0  0  0  0  0  0  0  0  0  0  0  0
   41.6742   85.8496   60.7752 H   0  0  0  0  0  0  0  0  0  0  0  0
   39.9279   84.9515   62.1224 H   0  0  0  0  0  0  0  0  0  0  0  0
   39.8575   82.9959   59.6976 H   0  0  0  0  0  0  0  0  0  0  0  0
   38.4508   83.6652   60.5242 H   0  0  0  0  0  0  0  0  0  0  0  0
   39.5154   86.0313   59.9034 H   0  0  0  0  0  0  0  0  0  0  0  0
   38.7031   85.0984   58.5990 H   0  0  0  0  0  0  0  0  0  0  0  0
  1 21  1  0
  1  6  2  0
  2  3  2  0
  2  1  1  0
  3  4  1  0
  4  5  2  0
  6  5  1  0
  7 12  2  0
  8  7  1  0
  9  8  2  0
  9 10  1  0
 10 11  2  0
 11 12  1  0
 11  2  1  0
 13  8  1  0
 14 13  1  0
 15 14  2  0
 16 15  1  0
 16 18  1  0
 17 16  2  0
 18 19  1  0
 19 13  1  0
 19 20  2  0
 21 22  2  0
 23 21  2  0
 24 29  1  0
 24 25  1  0
 25 26  1  0
 26 27  1  0
 27 21  1  0
 28 27  1  0
 29 28  1  0
  3 30  1  0
  4 31  1  0
  5 32  1  0
  6 33  1  0
  7 34  1  0
  9 35  1  0
 14 36  1  0
 15 37  1  0
 18 38  1  0
 24 39  1  0
 25 40  1  0
 25 41  1  0
 26 42  1  0
 26 43  1  0
 27 44  1  0
 28 45  1  0
 28 46  1  0
 29 47  1  0
 29 48  1  0
M  ISO  8  30  14  31  14  32  14  33  14  34  14  35  14  36  14  37  14
M  ISO  8  38   9  39   5  40  13  41  13  42  13  43  13  44  13  45  13
M  ISO  3  46  13  47  13  48  13
M  END
>  <minimizedAffinity>  (1) 
-6.57967091

>  <minimizedRMSD>  (1) 
1.95069981

$$$$
