
     RDKit          3D

 48 52  0  0  0  0  0  0  0  0999 V2000
   40.6690   81.9190   57.0610 C   0  0  0  0  0  0  0  0  0  0  0  0
   41.7430   82.5080   56.3630 C   0  0  0  0  0  0  0  0  0  0  0  0
   42.5210   83.3980   57.0560 C   0  0  0  0  0  0  0  0  0  0  0  0
   42.2550   83.6850   58.3640 N   0  0  0  0  0  0  0  0  0  0  0  0
   41.2130   83.0950   59.0050 C   0  0  0  0  0  0  0  0  0  0  0  0
   40.4090   82.2050   58.3540 N   0  0  0  0  0  0  0  0  0  0  0  0
   39.6590   83.1370   60.9010 C   0  0  0  0  0  0  0  0  0  0  0  0
   40.9470   83.3680   60.4110 C   0  0  0  0  0  0  0  0  0  0  0  0
   41.9700   83.8270   61.2440 C   0  0  0  0  0  0  0  0  0  0  0  0
   41.7440   84.0690   62.5810 C   0  0  0  0  0  0  0  0  0  0  0  0
   42.4570   84.4930   63.6410 N   0  0  0  0  0  0  0  0  0  0  0  0
   41.6780   84.5330   64.7500 C   0  0  0  0  0  0  0  0  0  0  0  0
   40.4510   84.1170   64.3360 N   0  0  0  0  0  0  0  0  0  0  0  0
   40.4730   83.8310   63.0240 C   0  0  0  0  0  0  0  0  0  0  0  0
   39.4100   83.3760   62.2580 C   0  0  0  0  0  0  0  0  0  0  0  0
   42.5780   83.2290   54.0740 Cl  0  0  0  0  0  0  0  0  0  0  0  0
   43.7900   84.0630   55.0410 C   0  0  0  0  0  0  0  0  0  0  0  0
   43.6360   84.0570   56.4110 C   0  0  0  0  0  0  0  0  0  0  0  0
   44.6330   84.7410   57.1000 C   0  0  0  0  0  0  0  0  0  0  0  0
   45.6910   85.3750   56.4790 C   0  0  0  0  0  0  0  0  0  0  0  0
   45.7970   85.3500   55.1090 C   0  0  0  0  0  0  0  0  0  0  0  0
   47.1240   86.1450   54.3060 Cl  0  0  0  0  0  0  0  0  0  0  0  0
   44.8410   84.6910   54.4120 C   0  0  0  0  0  0  0  0  0  0  0  0
   44.9140   84.6410   52.9910 N   0  0  0  0  0  0  0  0  0  0  0  0
   44.2680   85.7620   52.3190 C   0  0  0  0  0  0  0  0  0  0  0  0
   43.6370   85.1880   51.0640 C   0  0  0  0  0  0  0  0  0  0  0  0
   44.7810   85.0350   50.0660 C   0  0  0  0  0  0  0  0  0  0  0  0
   45.9490   84.4530   50.8210 C   0  0  0  0  0  0  0  0  0  0  0  0
   45.5080   83.6880   52.0740 C   0  0  0  0  0  0  0  0  0  0  0  0
   40.0215   81.2026   56.5342 H   0  0  0  0  0  0  0  0  0  0  0  0
   41.9471   82.2642   55.3100 H   0  0  0  0  0  0  0  0  0  0  0  0
   38.8599   82.7761   60.2367 H   0  0  0  0  0  0  0  0  0  0  0  0
   42.9727   83.9980   60.8253 H   0  0  0  0  0  0  0  0  0  0  0  0
   43.4539   84.7507   63.6135 H   0  0  0  0  0  0  0  0  0  0  0  0
   41.9742   84.8363   65.7650 H   0  0  0  0  0  0  0  0  0  0  0  0
   38.4152   83.2102   62.6972 H   0  0  0  0  0  0  0  0  0  0  0  0
   44.5752   84.7787   58.1978 H   0  0  0  0  0  0  0  0  0  0  0  0
   46.4482   85.8995   57.0803 H   0  0  0  0  0  0  0  0  0  0  0  0
   43.4968   86.2036   52.9672 H   0  0  0  0  0  0  0  0  0  0  0  0
   44.9880   86.5587   52.0805 H   0  0  0  0  0  0  0  0  0  0  0  0
   43.1789   84.2108   51.2765 H   0  0  0  0  0  0  0  0  0  0  0  0
   42.8396   85.8378   50.6743 H   0  0  0  0  0  0  0  0  0  0  0  0
   45.0519   86.0160   49.6485 H   0  0  0  0  0  0  0  0  0  0  0  0
   44.4887   84.3819   49.2305 H   0  0  0  0  0  0  0  0  0  0  0  0
   46.4908   83.7629   50.1575 H   0  0  0  0  0  0  0  0  0  0  0  0
   46.5905   85.2864   51.1436 H   0  0  0  0  0  0  0  0  0  0  0  0
   44.7689   82.9199   51.8023 H   0  0  0  0  0  0  0  0  0  0  0  0
   46.3699   83.1906   52.5428 H   0  0  0  0  0  0  0  0  0  0  0  0
  1  6  2  0
  2  3  2  0
  2  1  1  0
  3  4  1  0
  4  5  2  0
  5  8  1  0
  6  5  1  0
  7 15  2  0
  8  7  1  0
  8  9  2  0
  9 10  1  0
 10 14  2  0
 10 11  1  0
 11 12  1  0
 13 12  2  0
 14 13  1  0
 15 14  1  0
 16 17  1  0
 17 18  2  0
 18  3  1  0
 18 19  1  0
 20 19  2  0
 21 20  1  0
 22 21  1  0
 23 17  1  0
 23 21  2  0
 24 23  1  0
 25 24  1  0
 26 25  1  0
 27 28  1  0
 27 26  1  0
 28 29  1  0
 29 24  1  0
  1 30  1  0
  2 31  1  0
  7 32  1  0
  9 33  1  0
 11 34  1  0
 12 35  1  0
 15 36  1  0
 19 37  1  0
 20 38  1  0
 25 39  1  0
 25 40  1  0
 26 41  1  0
 26 42  1  0
 27 43  1  0
 27 44  1  0
 28 45  1  0
 28 46  1  0
 29 47  1  0
 29 48  1  0
M  ISO  8  30  14  31  14  32  14  33  14  34   9  35  14  36  14  37  14
M  ISO  8  38  14  39  13  40  13  41  13  42  13  43  13  44  13  45  13
M  ISO  3  46  13  47  13  48  13
M  END
>  <minimizedAffinity>  (1) 
-5.13002872

>  <minimizedRMSD>  (1) 
0.558772147

$$$$
