
     RDKit          3D

 25 26  0  0  0  0  0  0  0  0999 V2000
   40.5550   81.7250   61.9440 C   0  0  0  0  0  0  0  0  0  0  0  0
   41.7770   82.3490   61.6410 C   0  0  0  0  0  0  0  0  0  0  0  0
   41.7660   83.7050   61.2880 C   0  0  0  0  0  0  0  0  0  0  0  0
   40.5650   84.3420   61.2600 N   0  0  0  0  0  0  0  0  0  0  0  0
   39.4030   83.7280   61.5540 C   0  0  0  0  0  0  0  0  0  0  0  0
   39.4050   82.4240   61.8950 N   0  0  0  0  0  0  0  0  0  0  0  0
   42.9610   84.4300   60.9610 N   0  0  0  0  0  0  0  0  0  0  0  0
   42.9190   85.4560   59.9530 C   0  0  0  0  0  0  0  0  0  0  0  0
   43.7290   86.6690   60.2620 C   0  0  0  0  0  0  0  0  0  0  0  0
   44.9000   86.4580   61.1560 C   0  0  0  0  0  0  0  0  0  0  0  0
   45.2790   85.0520   61.4520 C   0  0  0  0  0  0  0  0  0  0  0  0
   44.1710   84.0900   61.6700 C   0  0  0  0  0  0  0  0  0  0  0  0
   40.5377   80.6610   62.2224 H   0  0  0  0  0  0  0  0  0  0  0  0
   42.7210   81.7857   61.6800 H   0  0  0  0  0  0  0  0  0  0  0  0
   38.4569   84.2879   61.5160 H   0  0  0  0  0  0  0  0  0  0  0  0
   41.8718   85.7672   59.8248 H   0  0  0  0  0  0  0  0  0  0  0  0
   43.3550   85.0155   59.0442 H   0  0  0  0  0  0  0  0  0  0  0  0
   44.1005   87.0776   59.3107 H   0  0  0  0  0  0  0  0  0  0  0  0
   43.0554   87.3456   60.8083 H   0  0  0  0  0  0  0  0  0  0  0  0
   45.7679   86.9435   60.6859 H   0  0  0  0  0  0  0  0  0  0  0  0
   44.5992   86.8825   62.1252 H   0  0  0  0  0  0  0  0  0  0  0  0
   45.8771   84.6838   60.6054 H   0  0  0  0  0  0  0  0  0  0  0  0
   45.8143   85.0953   62.4120 H   0  0  0  0  0  0  0  0  0  0  0  0
   43.9457   84.0576   62.7462 H   0  0  0  0  0  0  0  0  0  0  0  0
   44.5084   83.1172   61.2829 H   0  0  0  0  0  0  0  0  0  0  0  0
  2  1  2  0
  3  2  1  0
  4  3  2  0
  4  5  1  0
  5  6  2  0
  6  1  1  0
  7  3  1  0
  7 12  1  0
  8  9  1  0
  8  7  1  0
  9 10  1  0
 10 11  1  0
 11 12  1  0
  1 13  1  0
  2 14  1  0
  5 15  1  0
  8 16  1  0
  8 17  1  0
  9 18  1  0
  9 19  1  0
 10 20  1  0
 10 21  1  0
 11 22  1  0
 11 23  1  0
 12 24  1  0
 12 25  1  0
M  ISO  8  13  14  14  14  15  14  16  13  17  13  18  13  19  13  20  13
M  ISO  5  21  13  22  13  23  13  24  13  25  13
M  END
>  <minimizedAffinity>  (1) 
-3.88344741

>  <minimizedRMSD>  (1) 
3.89835906

$$$$
