
     RDKit          3D

 42 44  0  0  0  0  0  0  0  0999 V2000
   43.1290   84.0440   58.6640 Cl  0  0  0  0  0  0  0  0  0  0  0  0
   41.9230   82.8380   58.2600 C   0  0  0  0  0  0  0  0  0  0  0  0
   41.0610   82.2920   59.1880 C   0  0  0  0  0  0  0  0  0  0  0  0
   40.1720   81.3550   58.6990 C   0  0  0  0  0  0  0  0  0  0  0  0
   40.0630   80.9170   57.4020 C   0  0  0  0  0  0  0  0  0  0  0  0
   40.9320   81.4790   56.5160 C   0  0  0  0  0  0  0  0  0  0  0  0
   40.9160   81.0220   54.8180 Cl  0  0  0  0  0  0  0  0  0  0  0  0
   41.8540   82.4300   56.9380 C   0  0  0  0  0  0  0  0  0  0  0  0
   41.9670   82.2110   61.5570 C   0  0  0  0  0  0  0  0  0  0  0  0
   41.1440   82.7210   60.5420 C   0  0  0  0  0  0  0  0  0  0  0  0
   40.3060   83.7680   60.8920 C   0  0  0  0  0  0  0  0  0  0  0  0
   40.3550   84.2110   62.1830 N   0  0  0  0  0  0  0  0  0  0  0  0
   41.1490   83.7010   63.1170 C   0  0  0  0  0  0  0  0  0  0  0  0
   41.9660   82.6850   62.7950 N   0  0  0  0  0  0  0  0  0  0  0  0
   41.0350   84.3400   64.4560 C   0  0  0  0  0  0  0  0  0  0  0  0
   40.6700   85.6530   64.3920 F   0  0  0  0  0  0  0  0  0  0  0  0
   40.0920   83.6570   65.2250 F   0  0  0  0  0  0  0  0  0  0  0  0
   42.2780   84.3110   65.1130 F   0  0  0  0  0  0  0  0  0  0  0  0
   42.7180   82.9740   55.9990 O   0  0  0  0  0  0  0  0  0  0  0  0
   42.4610   84.1160   55.2380 C   0  0  0  0  0  0  0  0  0  0  0  0
   43.6840   84.6740   54.7120 N   0  0  0  0  0  0  0  0  0  0  0  0
   43.8430   84.5390   53.3180 C   0  0  0  0  0  0  0  0  0  0  0  0
   44.6370   83.3500   52.8660 C   0  0  0  0  0  0  0  0  0  0  0  0
   45.8100   83.0170   53.7440 C   0  0  0  0  0  0  0  0  0  0  0  0
   45.3560   82.9990   55.1680 C   0  0  0  0  0  0  0  0  0  0  0  0
   44.8350   84.3660   55.5080 C   0  0  0  0  0  0  0  0  0  0  0  0
   39.4763   80.9118   59.4268 H   0  0  0  0  0  0  0  0  0  0  0  0
   39.3228   80.1621   57.0985 H   0  0  0  0  0  0  0  0  0  0  0  0
   42.6446   81.3792   61.3144 H   0  0  0  0  0  0  0  0  0  0  0  0
   39.6268   84.2251   60.1574 H   0  0  0  0  0  0  0  0  0  0  0  0
   41.7986   83.8491   54.4014 H   0  0  0  0  0  0  0  0  0  0  0  0
   41.9829   84.8670   55.8841 H   0  0  0  0  0  0  0  0  0  0  0  0
   42.8414   84.4669   52.8691 H   0  0  0  0  0  0  0  0  0  0  0  0
   44.4145   85.4215   52.9947 H   0  0  0  0  0  0  0  0  0  0  0  0
   43.9670   82.4779   52.8416 H   0  0  0  0  0  0  0  0  0  0  0  0
   45.0469   83.6036   51.8772 H   0  0  0  0  0  0  0  0  0  0  0  0
   46.2079   82.0287   53.4703 H   0  0  0  0  0  0  0  0  0  0  0  0
   46.6006   83.7706   53.6133 H   0  0  0  0  0  0  0  0  0  0  0  0
   44.5576   82.2532   55.2956 H   0  0  0  0  0  0  0  0  0  0  0  0
   46.1921   82.7335   55.8316 H   0  0  0  0  0  0  0  0  0  0  0  0
   45.6200   85.1117   55.3139 H   0  0  0  0  0  0  0  0  0  0  0  0
   44.5498   84.3852   56.5702 H   0  0  0  0  0  0  0  0  0  0  0  0
  2  1  1  0
  2  3  2  0
  3 10  1  0
  4  3  1  0
  5  4  2  0
  6  8  2  0
  6  5  1  0
  7  6  1  0
  8  2  1  0
  9 14  2  0
 10 11  2  0
 10  9  1  0
 11 12  1  0
 12 13  2  0
 13 15  1  0
 14 13  1  0
 15 18  1  0
 15 17  1  0
 16 15  1  0
 19  8  1  0
 20 19  1  0
 21 20  1  0
 21 26  1  0
 22 21  1  0
 23 22  1  0
 23 24  1  0
 24 25  1  0
 25 26  1  0
  4 27  1  0
  5 28  1  0
  9 29  1  0
 11 30  1  0
 20 31  1  0
 20 32  1  0
 22 33  1  0
 22 34  1  0
 23 35  1  0
 23 36  1  0
 24 37  1  0
 24 38  1  0
 25 39  1  0
 25 40  1  0
 26 41  1  0
 26 42  1  0
M  ISO  8  27  14  28  14  29  14  30  14  31   8  32   8  33  13  34  13
M  ISO  8  35  13  36  13  37  13  38  13  39  13  40  13  41  13  42  13
M  END
>  <minimizedAffinity>  (1) 
-5.04107952

>  <minimizedRMSD>  (1) 
0.800489247

$$$$
