
     RDKit          3D

 33 35  0  0  0  0  0  0  0  0999 V2000
   40.2510   82.3070   59.4400 C   0  0  0  0  0  0  0  0  0  0  0  0
   41.3630   82.4040   60.2680 C   0  0  0  0  0  0  0  0  0  0  0  0
   42.6140   82.0280   59.7340 C   0  0  0  0  0  0  0  0  0  0  0  0
   42.6310   81.5960   58.4430 N   0  0  0  0  0  0  0  0  0  0  0  0
   41.5390   81.5150   57.6750 C   0  0  0  0  0  0  0  0  0  0  0  0
   40.3380   81.8750   58.1850 N   0  0  0  0  0  0  0  0  0  0  0  0
   41.6430   81.0530   56.3310 N   0  0  0  0  0  0  0  0  0  0  0  0
   42.8930   81.3120   55.6380 C   0  0  0  0  0  0  0  0  0  0  0  0
   42.9450   80.6050   54.3020 C   0  0  0  0  0  0  0  0  0  0  0  0
   41.6820   81.0040   53.5730 C   0  0  0  0  0  0  0  0  0  0  0  0
   40.5270   80.3310   54.2460 C   0  0  0  0  0  0  0  0  0  0  0  0
   40.5330   80.3620   55.7280 C   0  0  0  0  0  0  0  0  0  0  0  0
   41.2350   82.8690   61.6030 N   0  0  0  0  0  0  0  0  0  0  0  0
   41.5680   84.1530   61.7640 C   0  0  0  0  0  0  0  0  0  0  0  0
   41.4730   84.7020   63.0470 C   0  0  0  0  0  0  0  0  0  0  0  0
   41.0430   83.9120   64.1000 C   0  0  0  0  0  0  0  0  0  0  0  0
   40.9300   84.3240   65.2810 O   0  0  0  0  0  0  0  0  0  0  0  0
   40.7220   82.6120   63.8560 N   0  0  0  0  0  0  0  0  0  0  0  0
   40.8100   82.0670   62.6120 C   0  0  0  0  0  0  0  0  0  0  0  0
   40.5190   80.8770   62.3750 O   0  0  0  0  0  0  0  0  0  0  0  0
   39.2664   82.5971   59.8356 H   0  0  0  0  0  0  0  0  0  0  0  0
   43.5343   82.0816   60.3341 H   0  0  0  0  0  0  0  0  0  0  0  0
   42.9921   82.3950   55.4730 H   0  0  0  0  0  0  0  0  0  0  0  0
   43.7168   80.9328   56.2605 H   0  0  0  0  0  0  0  0  0  0  0  0
   43.8315   80.9242   53.7344 H   0  0  0  0  0  0  0  0  0  0  0  0
   43.0132   79.5140   54.4247 H   0  0  0  0  0  0  0  0  0  0  0  0
   41.7403   80.6833   52.5224 H   0  0  0  0  0  0  0  0  0  0  0  0
   41.5552   82.0964   53.5983 H   0  0  0  0  0  0  0  0  0  0  0  0
   39.7228   79.8431   53.6757 H   0  0  0  0  0  0  0  0  0  0  0  0
   39.7417   79.8884   56.3275 H   0  0  0  0  0  0  0  0  0  0  0  0
   41.9071   84.7608   60.9121 H   0  0  0  0  0  0  0  0  0  0  0  0
   41.7384   85.7556   63.2186 H   0  0  0  0  0  0  0  0  0  0  0  0
   40.4024   82.0221   64.6375 H   0  0  0  0  0  0  0  0  0  0  0  0
  1  2  2  0
  2 13  1  0
  3  2  1  0
  4  3  2  0
  5  6  2  0
  5  4  1  0
  6  1  1  0
  7  5  1  0
  8  7  1  0
  9  8  1  0
 10 11  1  0
 10  9  1  0
 11 12  2  0
 12  7  1  0
 13 14  1  0
 13 19  1  0
 14 15  2  0
 15 16  1  0
 16 17  2  0
 18 16  1  0
 19 18  1  0
 20 19  2  0
  1 21  1  0
  3 22  1  0
  8 23  1  0
  8 24  1  0
  9 25  1  0
  9 26  1  0
 10 27  1  0
 10 28  1  0
 11 29  1  0
 12 30  1  0
 14 31  1  0
 15 32  1  0
 18 33  1  0
M  ISO  8  21  14  22  14  23  13  24  13  25  13  26  13  27  13  28  13
M  ISO  5  29  13  30  13  31  14  32  14  33   9
M  END
>  <minimizedAffinity>  (1) 
-5.04831219

>  <minimizedRMSD>  (1) 
8.52383137

$$$$
