
     RDKit          3D

 38 40  0  0  0  0  0  0  0  0999 V2000
   40.2970   81.9550   58.4330 Cl  0  0  0  0  0  0  0  0  0  0  0  0
   40.1810   80.3010   59.0150 C   0  0  0  0  0  0  0  0  0  0  0  0
   40.4050   79.9590   60.3260 C   0  0  0  0  0  0  0  0  0  0  0  0
   40.2880   78.6010   60.6250 C   0  0  0  0  0  0  0  0  0  0  0  0
   39.9720   77.5950   59.7270 C   0  0  0  0  0  0  0  0  0  0  0  0
   39.7610   78.0000   58.4390 C   0  0  0  0  0  0  0  0  0  0  0  0
   39.3720   76.8130   57.1870 Cl  0  0  0  0  0  0  0  0  0  0  0  0
   39.8640   79.3280   58.0970 C   0  0  0  0  0  0  0  0  0  0  0  0
   42.0060   81.2740   61.7940 C   0  0  0  0  0  0  0  0  0  0  0  0
   40.7330   80.9720   61.2770 C   0  0  0  0  0  0  0  0  0  0  0  0
   39.6480   81.7260   61.7230 C   0  0  0  0  0  0  0  0  0  0  0  0
   39.9180   82.7040   62.6340 N   0  0  0  0  0  0  0  0  0  0  0  0
   41.1370   82.9750   63.1120 C   0  0  0  0  0  0  0  0  0  0  0  0
   42.1860   82.2510   62.6860 N   0  0  0  0  0  0  0  0  0  0  0  0
   41.2100   84.0850   64.1000 C   0  0  0  0  0  0  0  0  0  0  0  0
   41.0190   85.3170   63.5070 F   0  0  0  0  0  0  0  0  0  0  0  0
   40.2540   83.9060   65.0770 F   0  0  0  0  0  0  0  0  0  0  0  0
   42.4850   84.1540   64.6680 F   0  0  0  0  0  0  0  0  0  0  0  0
   39.6290   79.6840   56.7250 N   0  0  0  0  0  0  0  0  0  0  0  0
   38.3650   80.1090   56.1990 C   0  0  0  0  0  0  0  0  0  0  0  0
   38.1130   79.6090   54.7990 C   0  0  0  0  0  0  0  0  0  0  0  0
   39.2630   79.8000   53.8660 C   0  0  0  0  0  0  0  0  0  0  0  0
   40.5480   80.2090   54.5050 C   0  0  0  0  0  0  0  0  0  0  0  0
   40.7850   79.5920   55.8440 C   0  0  0  0  0  0  0  0  0  0  0  0
   40.4627   78.3022   61.6691 H   0  0  0  0  0  0  0  0  0  0  0  0
   39.8959   76.5404   60.0303 H   0  0  0  0  0  0  0  0  0  0  0  0
   42.8748   80.6907   61.4549 H   0  0  0  0  0  0  0  0  0  0  0  0
   38.6267   81.5413   61.3586 H   0  0  0  0  0  0  0  0  0  0  0  0
   37.5671   79.7314   56.8553 H   0  0  0  0  0  0  0  0  0  0  0  0
   38.3772   81.2082   56.1593 H   0  0  0  0  0  0  0  0  0  0  0  0
   37.8863   78.5339   54.8520 H   0  0  0  0  0  0  0  0  0  0  0  0
   37.2774   80.2007   54.3970 H   0  0  0  0  0  0  0  0  0  0  0  0
   38.9839   80.5767   53.1388 H   0  0  0  0  0  0  0  0  0  0  0  0
   39.4511   78.8153   53.4132 H   0  0  0  0  0  0  0  0  0  0  0  0
   41.3735   79.9174   53.8390 H   0  0  0  0  0  0  0  0  0  0  0  0
   40.4932   81.2964   54.6614 H   0  0  0  0  0  0  0  0  0  0  0  0
   41.0337   78.5300   55.7016 H   0  0  0  0  0  0  0  0  0  0  0  0
   41.6073   80.1457   56.3208 H   0  0  0  0  0  0  0  0  0  0  0  0
  1  2  1  0
  2  3  2  0
  3  4  1  0
  3 10  1  0
  5  4  2  0
  6  5  1  0
  7  6  1  0
  8  6  2  0
  8  2  1  0
  9 14  2  0
 10 11  2  0
 10  9  1  0
 11 12  1  0
 12 13  2  0
 13 15  1  0
 14 13  1  0
 15 18  1  0
 15 17  1  0
 16 15  1  0
 19  8  1  0
 20 19  1  0
 21 20  1  0
 22 23  1  0
 22 21  1  0
 23 24  1  0
 24 19  1  0
  4 25  1  0
  5 26  1  0
  9 27  1  0
 11 28  1  0
 20 29  1  0
 20 30  1  0
 21 31  1  0
 21 32  1  0
 22 33  1  0
 22 34  1  0
 23 35  1  0
 23 36  1  0
 24 37  1  0
 24 38  1  0
M  ISO  8  25  14  26  14  27  14  28  14  29  13  30  13  31  13  32  13
M  ISO  6  33  13  34  13  35  13  36  13  37  13  38  13
M  END
>  <minimizedAffinity>  (1) 
-6.02264929

>  <minimizedRMSD>  (1) 
2.93366146

$$$$
