
     RDKit          3D

 35 37  0  0  0  0  0  0  0  0999 V2000
   43.0220   84.4890   61.3180 C   0  0  0  0  0  0  0  0  0  0  0  0
   43.8790   85.5570   61.0200 C   0  0  0  0  0  0  0  0  0  0  0  0
   45.0960   85.0820   61.5150 C   0  0  0  0  0  0  0  0  0  0  0  0
   44.9580   83.8380   62.0580 N   0  0  0  0  0  0  0  0  0  0  0  0
   43.6690   83.5030   61.9210 N   0  0  0  0  0  0  0  0  0  0  0  0
   39.7860   84.9560   59.5190 C   0  0  0  0  0  0  0  0  0  0  0  0
   41.1540   84.9760   59.7880 C   0  0  0  0  0  0  0  0  0  0  0  0
   41.6060   84.4840   61.0010 C   0  0  0  0  0  0  0  0  0  0  0  0
   40.7060   83.9930   61.8970 N   0  0  0  0  0  0  0  0  0  0  0  0
   39.3750   83.9960   61.5850 C   0  0  0  0  0  0  0  0  0  0  0  0
   38.9360   84.4680   60.4200 N   0  0  0  0  0  0  0  0  0  0  0  0
   45.9920   83.0380   62.6580 C   0  0  0  0  0  0  0  0  0  0  0  0
   46.2920   81.8450   61.9420 N   0  0  0  0  0  0  0  0  0  0  0  0
   46.3800   80.6930   62.8530 C   0  0  0  0  0  0  0  0  0  0  0  0
   47.4010   80.9940   63.9560 C   0  0  0  0  0  0  0  0  0  0  0  0
   48.7150   81.4390   63.3620 C   0  0  0  0  0  0  0  0  0  0  0  0
   48.7210   81.3740   61.8730 C   0  0  0  0  0  0  0  0  0  0  0  0
   47.5000   81.8910   61.1900 C   0  0  0  0  0  0  0  0  0  0  0  0
   43.6535   86.5144   60.5275 H   0  0  0  0  0  0  0  0  0  0  0  0
   46.0435   85.6392   61.4724 H   0  0  0  0  0  0  0  0  0  0  0  0
   39.4087   85.3439   58.5613 H   0  0  0  0  0  0  0  0  0  0  0  0
   41.8630   85.3763   59.0484 H   0  0  0  0  0  0  0  0  0  0  0  0
   38.6510   83.5999   62.3122 H   0  0  0  0  0  0  0  0  0  0  0  0
   46.9076   83.6448   62.7176 H   0  0  0  0  0  0  0  0  0  0  0  0
   45.6216   82.7301   63.6470 H   0  0  0  0  0  0  0  0  0  0  0  0
   45.3949   80.5067   63.3055 H   0  0  0  0  0  0  0  0  0  0  0  0
   46.6980   79.8028   62.2905 H   0  0  0  0  0  0  0  0  0  0  0  0
   47.0086   81.7926   64.6027 H   0  0  0  0  0  0  0  0  0  0  0  0
   47.5702   80.0773   64.5400 H   0  0  0  0  0  0  0  0  0  0  0  0
   48.9076   82.4772   63.6703 H   0  0  0  0  0  0  0  0  0  0  0  0
   49.4953   80.7560   63.7289 H   0  0  0  0  0  0  0  0  0  0  0  0
   49.5804   81.9594   61.5142 H   0  0  0  0  0  0  0  0  0  0  0  0
   48.7690   80.3037   61.6236 H   0  0  0  0  0  0  0  0  0  0  0  0
   47.6864   82.9405   60.9183 H   0  0  0  0  0  0  0  0  0  0  0  0
   47.3378   81.2229   60.3314 H   0  0  0  0  0  0  0  0  0  0  0  0
  1  5  2  0
  2  1  1  0
  2  3  2  0
  3  4  1  0
  4 12  1  0
  5  4  1  0
  6  7  2  0
  6 11  1  0
  7  8  1  0
  8  1  1  0
  8  9  2  0
 10  9  1  0
 11 10  2  0
 13 12  1  0
 13 14  1  0
 14 15  1  0
 16 15  1  0
 17 16  1  0
 18 17  1  0
 18 13  1  0
  2 19  1  0
  3 20  1  0
  6 21  1  0
  7 22  1  0
 10 23  1  0
 12 24  1  0
 12 25  1  0
 14 26  1  0
 14 27  1  0
 15 28  1  0
 15 29  1  0
 16 30  1  0
 16 31  1  0
 17 32  1  0
 17 33  1  0
 18 34  1  0
 18 35  1  0
M  ISO  8  19  14  20  14  21  14  22  14  23  14  24   8  25   8  26  13
M  ISO  8  27  13  28  13  29  13  30  13  31  13  32  13  33  13  34  13
M  ISO  1  35  13
M  END
>  <minimizedAffinity>  (1) 
-4.59233856

>  <minimizedRMSD>  (1) 
5.6527009

$$$$
