
     RDKit          3D

 30 32  0  0  0  0  0  0  0  0999 V2000
   42.9610   84.9210   61.1870 C   0  0  0  0  0  0  0  0  0  0  0  0
   44.2050   84.5810   61.7010 C   0  0  0  0  0  0  0  0  0  0  0  0
   45.0550   85.4010   60.9510 C   0  0  0  0  0  0  0  0  0  0  0  0
   44.3420   86.1600   60.0670 N   0  0  0  0  0  0  0  0  0  0  0  0
   43.0600   85.8500   60.2260 N   0  0  0  0  0  0  0  0  0  0  0  0
   40.3730   83.2420   63.2720 C   0  0  0  0  0  0  0  0  0  0  0  0
   41.6010   83.7860   62.8980 C   0  0  0  0  0  0  0  0  0  0  0  0
   41.7020   84.3400   61.6300 C   0  0  0  0  0  0  0  0  0  0  0  0
   40.6240   84.3340   60.8140 N   0  0  0  0  0  0  0  0  0  0  0  0
   39.4450   83.7950   61.2160 C   0  0  0  0  0  0  0  0  0  0  0  0
   39.3350   83.2520   62.4490 N   0  0  0  0  0  0  0  0  0  0  0  0
   44.9100   87.1120   59.1430 C   0  0  0  0  0  0  0  0  0  0  0  0
   44.8000   88.5550   61.6140 F   0  0  0  0  0  0  0  0  0  0  0  0
   44.3040   89.1540   60.5110 C   0  0  0  0  0  0  0  0  0  0  0  0
   44.3600   88.4650   59.3460 C   0  0  0  0  0  0  0  0  0  0  0  0
   43.8390   89.1180   58.2280 C   0  0  0  0  0  0  0  0  0  0  0  0
   43.2990   90.3830   58.2900 C   0  0  0  0  0  0  0  0  0  0  0  0
   43.2610   91.0480   59.4840 C   0  0  0  0  0  0  0  0  0  0  0  0
   43.7710   90.4290   60.6240 C   0  0  0  0  0  0  0  0  0  0  0  0
   44.4563   83.8573   62.4903 H   0  0  0  0  0  0  0  0  0  0  0  0
   46.1493   85.4305   61.0586 H   0  0  0  0  0  0  0  0  0  0  0  0
   40.2638   82.7952   64.2712 H   0  0  0  0  0  0  0  0  0  0  0  0
   42.4603   83.7763   63.5847 H   0  0  0  0  0  0  0  0  0  0  0  0
   38.5787   83.8000   60.5382 H   0  0  0  0  0  0  0  0  0  0  0  0
   44.6880   86.7875   58.1157 H   0  0  0  0  0  0  0  0  0  0  0  0
   45.9952   87.1535   59.3178 H   0  0  0  0  0  0  0  0  0  0  0  0
   43.8607   88.6008   57.2574 H   0  0  0  0  0  0  0  0  0  0  0  0
   42.8993   90.8573   57.3815 H   0  0  0  0  0  0  0  0  0  0  0  0
   42.8330   92.0595   59.5443 H   0  0  0  0  0  0  0  0  0  0  0  0
   43.7510   90.9430   61.5963 H   0  0  0  0  0  0  0  0  0  0  0  0
  1  8  1  0
  1  2  1  0
  3  2  2  0
  4  5  1  0
  4  3  1  0
  5  1  2  0
  7  6  2  0
  8  7  1  0
  9 10  1  0
  9  8  2  0
 10 11  2  0
 11  6  1  0
 12 15  1  0
 12  4  1  0
 14 19  2  0
 14 13  1  0
 15 14  1  0
 16 17  1  0
 16 15  2  0
 17 18  2  0
 18 19  1  0
  2 20  1  0
  3 21  1  0
  6 22  1  0
  7 23  1  0
 10 24  1  0
 12 25  1  0
 12 26  1  0
 16 27  1  0
 17 28  1  0
 18 29  1  0
 19 30  1  0
M  ISO  8  20  14  21  14  22  14  23  14  24  14  25   8  26   8  27  14
M  ISO  3  28  14  29  14  30  14
M  END
>  <minimizedAffinity>  (1) 
-5.074862

>  <minimizedRMSD>  (1) 
1.12603843

$$$$
