
     RDKit          3D

 30 32  0  0  0  0  0  0  0  0999 V2000
   41.6400   83.9440   61.4630 C   0  0  0  0  0  0  0  0  0  0  0  0
   41.3030   84.3100   62.7430 C   0  0  0  0  0  0  0  0  0  0  0  0
   40.7810   83.3850   63.6620 C   0  0  0  0  0  0  0  0  0  0  0  0
   40.6040   82.0950   63.2780 N   0  0  0  0  0  0  0  0  0  0  0  0
   40.9370   81.7600   62.0290 C   0  0  0  0  0  0  0  0  0  0  0  0
   41.4400   82.6620   61.1520 N   0  0  0  0  0  0  0  0  0  0  0  0
   43.7050   86.5320   59.9260 C   0  0  0  0  0  0  0  0  0  0  0  0
   43.1490   86.6360   58.6550 C   0  0  0  0  0  0  0  0  0  0  0  0
   42.0660   85.8240   58.3160 C   0  0  0  0  0  0  0  0  0  0  0  0
   41.6310   84.9690   59.2910 N   0  0  0  0  0  0  0  0  0  0  0  0
   42.1810   84.8870   60.5020 C   0  0  0  0  0  0  0  0  0  0  0  0
   43.2200   85.6610   60.8370 N   0  0  0  0  0  0  0  0  0  0  0  0
   44.8010   87.4220   60.1250 N   0  0  0  0  0  0  0  0  0  0  0  0
   39.8940   81.1390   59.5500 F   0  0  0  0  0  0  0  0  0  0  0  0
   40.2430   80.0890   60.3400 C   0  0  0  0  0  0  0  0  0  0  0  0
   40.7640   80.3860   61.5750 C   0  0  0  0  0  0  0  0  0  0  0  0
   41.1110   79.3160   62.3620 C   0  0  0  0  0  0  0  0  0  0  0  0
   40.9760   77.9920   62.0010 C   0  0  0  0  0  0  0  0  0  0  0  0
   40.4510   77.7230   60.7560 C   0  0  0  0  0  0  0  0  0  0  0  0
   40.0880   78.7830   59.9320 C   0  0  0  0  0  0  0  0  0  0  0  0
   41.4456   85.3547   63.0566 H   0  0  0  0  0  0  0  0  0  0  0  0
   40.5184   83.7024   64.6819 H   0  0  0  0  0  0  0  0  0  0  0  0
   43.5585   87.3503   57.9255 H   0  0  0  0  0  0  0  0  0  0  0  0
   41.5910   85.8688   57.3249 H   0  0  0  0  0  0  0  0  0  0  0  0
   45.0978   88.0514   59.3656 H   0  0  0  0  0  0  0  0  0  0  0  0
   45.2960   87.4355   61.0282 H   0  0  0  0  0  0  0  0  0  0  0  0
   41.5287   79.5313   63.3566 H   0  0  0  0  0  0  0  0  0  0  0  0
   41.2761   77.1814   62.6813 H   0  0  0  0  0  0  0  0  0  0  0  0
   40.3207   76.6842   60.4183 H   0  0  0  0  0  0  0  0  0  0  0  0
   39.6695   78.5743   58.9364 H   0  0  0  0  0  0  0  0  0  0  0  0
  1  2  2  0
  2  3  1  0
  4  3  2  0
  5  4  1  0
  6  1  1  0
  6  5  2  0
  7 13  1  0
  7 12  2  0
  8  7  1  0
  9  8  2  0
  9 10  1  0
 10 11  2  0
 11 12  1  0
 11  1  1  0
 14 15  1  0
 15 16  2  0
 16  5  1  0
 16 17  1  0
 18 17  2  0
 19 18  1  0
 20 15  1  0
 20 19  2  0
  2 21  1  0
  3 22  1  0
  8 23  1  0
  9 24  1  0
 13 25  1  0
 13 26  1  0
 17 27  1  0
 18 28  1  0
 19 29  1  0
 20 30  1  0
M  ISO  8  21  14  22  14  23  14  24  14  27  14  28  14  29  14  30  14
M  END
>  <minimizedAffinity>  (1) 
-5.6581645

>  <minimizedRMSD>  (1) 
0.731901228

$$$$
