
     RDKit          3D

 43 47  0  0  0  0  0  0  0  0999 V2000
   40.7290   81.7690   57.1210 C   0  0  0  0  0  0  0  0  0  0  0  0
   41.8050   82.3430   56.4310 C   0  0  0  0  0  0  0  0  0  0  0  0
   42.5890   83.2570   57.1150 C   0  0  0  0  0  0  0  0  0  0  0  0
   42.3080   83.5650   58.4060 N   0  0  0  0  0  0  0  0  0  0  0  0
   41.2570   82.9860   59.0450 C   0  0  0  0  0  0  0  0  0  0  0  0
   40.4560   82.0840   58.4090 N   0  0  0  0  0  0  0  0  0  0  0  0
   39.6840   83.0960   60.9130 C   0  0  0  0  0  0  0  0  0  0  0  0
   40.9850   83.2930   60.4420 C   0  0  0  0  0  0  0  0  0  0  0  0
   42.0020   83.7500   61.2830 C   0  0  0  0  0  0  0  0  0  0  0  0
   41.7600   84.0230   62.6130 C   0  0  0  0  0  0  0  0  0  0  0  0
   42.4540   84.4540   63.6780 N   0  0  0  0  0  0  0  0  0  0  0  0
   41.6580   84.5310   64.7680 C   0  0  0  0  0  0  0  0  0  0  0  0
   40.4520   84.1340   64.3370 N   0  0  0  0  0  0  0  0  0  0  0  0
   40.4850   83.8200   63.0340 C   0  0  0  0  0  0  0  0  0  0  0  0
   39.4290   83.3720   62.2610 C   0  0  0  0  0  0  0  0  0  0  0  0
   42.3370   83.6250   54.1630 Cl  0  0  0  0  0  0  0  0  0  0  0  0
   43.7370   84.1100   55.1030 C   0  0  0  0  0  0  0  0  0  0  0  0
   43.7080   83.8930   56.4580 C   0  0  0  0  0  0  0  0  0  0  0  0
   44.8450   84.3360   57.1250 C   0  0  0  0  0  0  0  0  0  0  0  0
   45.9200   84.9400   56.5150 C   0  0  0  0  0  0  0  0  0  0  0  0
   45.8810   85.1290   55.1340 C   0  0  0  0  0  0  0  0  0  0  0  0
   47.2240   85.8930   54.3270 Cl  0  0  0  0  0  0  0  0  0  0  0  0
   44.7740   84.7070   54.4240 C   0  0  0  0  0  0  0  0  0  0  0  0
   45.7570   82.6610   52.9120 F   0  0  0  0  0  0  0  0  0  0  0  0
   45.3010   83.8100   52.3200 C   0  0  0  0  0  0  0  0  0  0  0  0
   44.7770   84.9240   52.9810 C   0  0  0  0  0  0  0  0  0  0  0  0
   44.3600   86.0050   52.2540 C   0  0  0  0  0  0  0  0  0  0  0  0
   44.4630   85.9820   50.8830 C   0  0  0  0  0  0  0  0  0  0  0  0
   44.9800   84.8870   50.2070 C   0  0  0  0  0  0  0  0  0  0  0  0
   45.4000   83.7990   50.9300 C   0  0  0  0  0  0  0  0  0  0  0  0
   40.0879   81.0417   56.6013 H   0  0  0  0  0  0  0  0  0  0  0  0
   42.0190   82.0776   55.3852 H   0  0  0  0  0  0  0  0  0  0  0  0
   38.8868   82.7359   60.2461 H   0  0  0  0  0  0  0  0  0  0  0  0
   43.0142   83.8948   60.8773 H   0  0  0  0  0  0  0  0  0  0  0  0
   43.4558   84.6933   63.6664 H   0  0  0  0  0  0  0  0  0  0  0  0
   41.9377   84.8488   65.7833 H   0  0  0  0  0  0  0  0  0  0  0  0
   38.4252   83.2376   62.6903 H   0  0  0  0  0  0  0  0  0  0  0  0
   44.8877   84.1937   58.2149 H   0  0  0  0  0  0  0  0  0  0  0  0
   46.7904   85.2664   57.1032 H   0  0  0  0  0  0  0  0  0  0  0  0
   43.9448   86.8873   52.7630 H   0  0  0  0  0  0  0  0  0  0  0  0
   44.1261   86.8562   50.3066 H   0  0  0  0  0  0  0  0  0  0  0  0
   45.0522   84.8906   49.1094 H   0  0  0  0  0  0  0  0  0  0  0  0
   45.8138   82.9203   50.4137 H   0  0  0  0  0  0  0  0  0  0  0  0
  1  6  2  0
  2  3  2  0
  2  1  1  0
  3  4  1  0
  4  5  2  0
  5  8  1  0
  6  5  1  0
  7 15  2  0
  8  7  1  0
  8  9  2  0
  9 10  1  0
 10 14  2  0
 10 11  1  0
 11 12  1  0
 13 12  2  0
 14 13  1  0
 15 14  1  0
 16 17  1  0
 17 18  2  0
 18  3  1  0
 18 19  1  0
 20 19  2  0
 21 20  1  0
 22 21  1  0
 23 17  1  0
 23 21  2  0
 25 24  1  0
 25 26  2  0
 26 23  1  0
 27 26  1  0
 28 27  2  0
 29 28  1  0
 29 30  2  0
 30 25  1  0
  1 31  1  0
  2 32  1  0
  7 33  1  0
  9 34  1  0
 11 35  1  0
 12 36  1  0
 15 37  1  0
 19 38  1  0
 20 39  1  0
 27 40  1  0
 28 41  1  0
 29 42  1  0
 30 43  1  0
M  ISO  8  31  14  32  14  33  14  34  14  35   9  36  14  37  14  38  14
M  ISO  5  39  14  40  14  41  14  42  14  43  14
M  END
>  <minimizedAffinity>  (1) 
-5.10714388

>  <minimizedRMSD>  (1) 
0.158571884

$$$$
