
     RDKit          3D

 30 32  0  0  0  0  0  0  0  0999 V2000
   42.1930   84.2140   62.1660 C   0  0  0  0  0  0  0  0  0  0  0  0
   42.3600   84.8300   63.4010 C   0  0  0  0  0  0  0  0  0  0  0  0
   41.4960   84.5730   64.4530 C   0  0  0  0  0  0  0  0  0  0  0  0
   40.4320   83.6730   64.2740 C   0  0  0  0  0  0  0  0  0  0  0  0
   40.2740   83.0550   63.0230 C   0  0  0  0  0  0  0  0  0  0  0  0
   41.1440   83.3290   61.9960 C   0  0  0  0  0  0  0  0  0  0  0  0
   45.0530   84.0880   59.8840 C   0  0  0  0  0  0  0  0  0  0  0  0
   44.7940   85.1300   58.9980 C   0  0  0  0  0  0  0  0  0  0  0  0
   43.6310   85.8710   59.1870 C   0  0  0  0  0  0  0  0  0  0  0  0
   42.8290   85.5310   60.2230 N   0  0  0  0  0  0  0  0  0  0  0  0
   43.1030   84.5040   61.0840 C   0  0  0  0  0  0  0  0  0  0  0  0
   44.2110   83.8020   60.8970 N   0  0  0  0  0  0  0  0  0  0  0  0
   41.9170   80.6950   61.9000 F   0  0  0  0  0  0  0  0  0  0  0  0
   41.2850   81.2720   60.8520 C   0  0  0  0  0  0  0  0  0  0  0  0
   40.8410   82.5980   60.7810 C   0  0  0  0  0  0  0  0  0  0  0  0
   40.2110   83.0130   59.6160 C   0  0  0  0  0  0  0  0  0  0  0  0
   40.0340   82.1450   58.5730 C   0  0  0  0  0  0  0  0  0  0  0  0
   40.4630   80.8170   58.6070 C   0  0  0  0  0  0  0  0  0  0  0  0
   41.0930   80.4160   59.7830 C   0  0  0  0  0  0  0  0  0  0  0  0
   43.1929   85.5339   63.5455 H   0  0  0  0  0  0  0  0  0  0  0  0
   41.6422   85.0708   65.4230 H   0  0  0  0  0  0  0  0  0  0  0  0
   39.7361   83.4567   65.0980 H   0  0  0  0  0  0  0  0  0  0  0  0
   39.4477   82.3465   62.8644 H   0  0  0  0  0  0  0  0  0  0  0  0
   45.9640   83.4853   59.7547 H   0  0  0  0  0  0  0  0  0  0  0  0
   45.4863   85.3604   58.1748 H   0  0  0  0  0  0  0  0  0  0  0  0
   43.3725   86.7045   58.5173 H   0  0  0  0  0  0  0  0  0  0  0  0
   39.8508   84.0488   59.5303 H   0  0  0  0  0  0  0  0  0  0  0  0
   39.5304   82.5106   57.6659 H   0  0  0  0  0  0  0  0  0  0  0  0
   40.3132   80.1315   57.7599 H   0  0  0  0  0  0  0  0  0  0  0  0
   41.4513   79.3792   59.8643 H   0  0  0  0  0  0  0  0  0  0  0  0
  1  2  2  0
  2  3  1  0
  4  3  2  0
  5  4  1  0
  6  1  1  0
  6  5  2  0
  7 12  2  0
  8  9  2  0
  8  7  1  0
  9 10  1  0
 10 11  2  0
 11  1  1  0
 12 11  1  0
 14 13  1  0
 15 14  2  0
 15  6  1  0
 16 15  1  0
 17 18  1  0
 17 16  2  0
 18 19  2  0
 19 14  1  0
  2 20  1  0
  3 21  1  0
  4 22  1  0
  5 23  1  0
  7 24  1  0
  8 25  1  0
  9 26  1  0
 16 27  1  0
 17 28  1  0
 18 29  1  0
 19 30  1  0
M  ISO  8  20  14  21  14  22  14  23  14  24  14  25  14  26  14  27  14
M  ISO  3  28  14  29  14  30  14
M  END
>  <minimizedAffinity>  (1) 
-5.07033396

>  <minimizedRMSD>  (1) 
1.92050886

$$$$
