
     RDKit          3D

 20 21  0  0  0  0  0  0  0  0999 V2000
   40.2950   80.6340   59.5470 C   0  0  0  0  0  0  0  0  0  0  0  0
   40.1900   81.4120   58.3740 C   0  0  0  0  0  0  0  0  0  0  0  0
   40.3970   82.7850   58.4820 C   0  0  0  0  0  0  0  0  0  0  0  0
   40.6880   83.3020   59.7130 N   0  0  0  0  0  0  0  0  0  0  0  0
   40.7810   82.5360   60.8110 C   0  0  0  0  0  0  0  0  0  0  0  0
   40.5880   81.2140   60.7370 N   0  0  0  0  0  0  0  0  0  0  0  0
   43.4100   83.2310   61.5400 F   0  0  0  0  0  0  0  0  0  0  0  0
   42.3890   83.4720   62.4250 C   0  0  0  0  0  0  0  0  0  0  0  0
   41.0950   83.1430   62.1000 C   0  0  0  0  0  0  0  0  0  0  0  0
   40.0760   83.3950   63.0130 C   0  0  0  0  0  0  0  0  0  0  0  0
   40.3630   83.9710   64.2390 C   0  0  0  0  0  0  0  0  0  0  0  0
   41.6900   84.2960   64.5450 C   0  0  0  0  0  0  0  0  0  0  0  0
   42.6990   84.0440   63.6380 C   0  0  0  0  0  0  0  0  0  0  0  0
   40.1376   79.5466   59.4952 H   0  0  0  0  0  0  0  0  0  0  0  0
   39.9522   80.9485   57.4052 H   0  0  0  0  0  0  0  0  0  0  0  0
   40.3280   83.4368   57.5986 H   0  0  0  0  0  0  0  0  0  0  0  0
   39.0375   83.1355   62.7598 H   0  0  0  0  0  0  0  0  0  0  0  0
   39.5592   84.1706   64.9629 H   0  0  0  0  0  0  0  0  0  0  0  0
   41.9300   84.7554   65.5152 H   0  0  0  0  0  0  0  0  0  0  0  0
   43.7411   84.2978   63.8820 H   0  0  0  0  0  0  0  0  0  0  0  0
  1  6  2  0
  2  3  2  0
  2  1  1  0
  3  4  1  0
  4  5  2  0
  5  9  1  0
  6  5  1  0
  7  8  1  0
  8 13  2  0
  9  8  1  0
  9 10  2  0
 10 11  1  0
 11 12  2  0
 13 12  1  0
  1 14  1  0
  2 15  1  0
  3 16  1  0
 10 17  1  0
 11 18  1  0
 12 19  1  0
 13 20  1  0
M  ISO  7  14  14  15  14  16  14  17  14  18  14  19  14  20  14
M  END
>  <minimizedAffinity>  (1) 
-4.14591789

>  <minimizedRMSD>  (1) 
3.45731521

$$$$
