
     RDKit          3D

 38 41  0  0  0  0  0  0  0  0999 V2000
   39.8280   81.4360   58.4570 C   0  0  0  0  0  0  0  0  0  0  0  0
   39.8420   80.1580   57.8970 C   0  0  0  0  0  0  0  0  0  0  0  0
   40.1460   79.0270   58.7490 C   0  0  0  0  0  0  0  0  0  0  0  0
   40.4040   79.2770   60.0640 N   0  0  0  0  0  0  0  0  0  0  0  0
   40.3700   80.5760   60.5530 C   0  0  0  0  0  0  0  0  0  0  0  0
   40.0840   81.6310   59.7490 N   0  0  0  0  0  0  0  0  0  0  0  0
   39.6220   79.7420   56.5270 C   0  0  0  0  0  0  0  0  0  0  0  0
   40.5260   80.3090   55.5960 C   0  0  0  0  0  0  0  0  0  0  0  0
   40.4600   80.0950   54.2480 C   0  0  0  0  0  0  0  0  0  0  0  0
   39.4600   79.2820   53.7420 C   0  0  0  0  0  0  0  0  0  0  0  0
   38.5650   78.7170   54.6330 C   0  0  0  0  0  0  0  0  0  0  0  0
   37.5230   77.9050   54.2400 C   0  0  0  0  0  0  0  0  0  0  0  0
   36.6380   77.3590   55.1520 C   0  0  0  0  0  0  0  0  0  0  0  0
   36.7540   77.6000   56.5090 C   0  0  0  0  0  0  0  0  0  0  0  0
   37.8000   78.4170   56.9150 C   0  0  0  0  0  0  0  0  0  0  0  0
   38.6440   78.9390   55.9940 C   0  0  0  0  0  0  0  0  0  0  0  0
   40.6760   80.8690   61.9510 C   0  0  0  0  0  0  0  0  0  0  0  0
   40.5260   80.0220   62.8480 O   0  0  0  0  0  0  0  0  0  0  0  0
   43.4390   81.5540   62.1070 F   0  0  0  0  0  0  0  0  0  0  0  0
   42.5230   82.4120   62.6070 C   0  0  0  0  0  0  0  0  0  0  0  0
   41.1790   82.1050   62.5460 C   0  0  0  0  0  0  0  0  0  0  0  0
   40.3620   83.0720   63.0940 C   0  0  0  0  0  0  0  0  0  0  0  0
   40.8220   84.2450   63.6580 C   0  0  0  0  0  0  0  0  0  0  0  0
   42.1790   84.4910   63.6880 C   0  0  0  0  0  0  0  0  0  0  0  0
   43.0460   83.5660   63.1570 C   0  0  0  0  0  0  0  0  0  0  0  0
   39.6005   82.3013   57.8171 H   0  0  0  0  0  0  0  0  0  0  0  0
   40.1679   78.0025   58.3491 H   0  0  0  0  0  0  0  0  0  0  0  0
   41.3266   80.9584   55.9797 H   0  0  0  0  0  0  0  0  0  0  0  0
   41.1922   80.5628   53.5734 H   0  0  0  0  0  0  0  0  0  0  0  0
   39.3794   79.0907   52.6618 H   0  0  0  0  0  0  0  0  0  0  0  0
   37.3914   77.6848   53.1703 H   0  0  0  0  0  0  0  0  0  0  0  0
   35.8217   76.7172   54.7891 H   0  0  0  0  0  0  0  0  0  0  0  0
   36.0498   77.1643   57.2330 H   0  0  0  0  0  0  0  0  0  0  0  0
   37.9429   78.6399   57.9827 H   0  0  0  0  0  0  0  0  0  0  0  0
   39.2760   82.8975   63.0807 H   0  0  0  0  0  0  0  0  0  0  0  0
   40.1147   84.9750   64.0786 H   0  0  0  0  0  0  0  0  0  0  0  0
   42.5642   85.4201   64.1334 H   0  0  0  0  0  0  0  0  0  0  0  0
   44.1319   83.7409   63.1698 H   0  0  0  0  0  0  0  0  0  0  0  0
  1  6  2  0
  2  1  1  0
  2  3  2  0
  3  4  1  0
  4  5  2  0
  5 17  1  0
  6  5  1  0
  7  2  1  0
  8  7  2  0
  9  8  1  0
 10  9  2  0
 10 11  1  0
 11 16  2  0
 12 11  1  0
 12 13  2  0
 13 14  1  0
 14 15  2  0
 16  7  1  0
 16 15  1  0
 17 21  1  0
 17 18  2  0
 19 20  1  0
 20 25  2  0
 21 20  1  0
 21 22  2  0
 22 23  1  0
 23 24  2  0
 25 24  1  0
  1 26  1  0
  3 27  1  0
  8 28  1  0
  9 29  1  0
 10 30  1  0
 12 31  1  0
 13 32  1  0
 14 33  1  0
 15 34  1  0
 22 35  1  0
 23 36  1  0
 24 37  1  0
 25 38  1  0
M  ISO  8  26  14  27  14  28  14  29  14  30  14  31  14  32  14  33  14
M  ISO  5  34  14  35  14  36  14  37  14  38  14
M  END
>  <minimizedAffinity>  (1) 
-6.57783556

>  <minimizedRMSD>  (1) 
4.29534912

$$$$
