
 OpenBabel03242510143D

 31 34  0  0  0  0  0  0  0  0999 V2000
   37.3270   32.4490   40.0980 C   0  0  0  0  0  3  0  0  0  0  0  0
   37.0940   31.1700   40.6770 C   0  0  0  0  0  3  0  0  0  0  0  0
   38.1570   30.5850   41.3210 C   0  0  0  0  0  0  0  0  0  0  0  0
   39.3390   31.2370   41.3700 N   0  0  0  0  0  0  0  0  0  0  0  0
   39.5260   32.4670   40.8000 C   0  0  0  0  0  0  0  0  0  0  0  0
   38.5060   33.0550   40.1680 N   0  0  0  0  0  0  0  0  0  0  0  0
   40.7940   33.1300   40.8710 N   0  0  0  0  0  0  0  0  0  0  0  0
   41.7740   32.4240   41.4990 C   0  0  0  0  0  3  0  0  0  0  0  0
   42.9960   33.0700   41.5640 C   0  0  0  0  0  0  0  0  0  0  0  0
   44.1350   32.3590   42.2440 C   0  0  0  0  0  1  0  0  0  0  0  0
   43.2820   34.3320   41.0550 C   0  0  0  0  0  0  0  0  0  0  0  0
   44.4290   34.8250   41.1700 O   0  0  0  0  0  0  0  0  0  0  0  0
   42.2330   34.9240   40.4600 N   0  0  0  0  0  0  0  0  0  0  0  0
   41.0190   34.3550   40.3610 C   0  0  0  0  0  0  0  0  0  0  0  0
   40.0530   34.9310   39.7980 O   0  0  0  0  0  0  0  0  0  0  0  0
   42.3660   35.8640   40.0590 H   0  0  0  0  0  0  0  0  0  0  0  0
   37.9630   29.2770   41.9310 C   0  0  0  0  0  0  0  0  0  0  0  0
   37.6870   29.0230   43.2640 C   0  0  0  0  0  3  0  0  0  0  0  0
   37.5980   27.6340   43.3100 C   0  0  0  0  0  3  0  0  0  0  0  0
   37.8180   27.1370   42.0400 C   0  0  0  0  0  0  0  0  0  0  0  0
   38.0370   28.1720   41.2290 O   0  0  0  0  0  0  0  0  0  0  0  0
   37.8180   25.7720   41.6450 N   0  0  0  0  0  0  0  0  0  0  0  0
   36.8530   25.3270   40.8180 C   0  0  0  0  0  3  0  0  0  0  0  0
   36.8220   24.0110   40.4140 C   0  0  0  0  0  0  0  0  0  0  0  0
   37.8020   23.1480   40.8730 C   0  0  0  0  0  0  0  0  0  0  0  0
   37.7410   21.9540   40.4820 O   0  0  0  0  0  0  0  0  0  0  0  0
   38.7380   23.6420   41.6910 N   0  0  0  0  0  0  0  0  0  0  0  0
   38.7550   24.9440   42.0820 C   0  0  0  0  0  0  0  0  0  0  0  0
   39.6660   25.3340   42.8540 O   0  0  0  0  0  0  0  0  0  0  0  0
   35.7070   23.6340   39.4920 C   0  0  0  0  0  1  0  0  0  0  0  0
   39.4740   23.0120   42.0390 H   0  0  0  0  0  0  0  0  0  0  0  0
  1  6  2  0  0  0  0
  1  2  1  0  0  0  0
  2  3  2  0  0  0  0
  3  4  1  0  0  0  0
  3 17  1  0  0  0  0
  5  7  1  0  0  0  0
  5  4  2  0  0  0  0
  6  5  1  0  0  0  0
  7  8  1  0  0  0  0
  8  9  2  0  0  0  0
  9 10  1  0  0  0  0
 11 12  2  0  0  0  0
 11  9  1  0  0  0  0
 13 11  1  0  0  0  0
 14 13  1  0  0  0  0
 14  7  1  0  0  0  0
 15 14  2  0  0  0  0
 16 13  1  0  0  0  0
 17 18  2  0  0  0  0
 18 19  1  0  0  0  0
 20 19  2  0  0  0  0
 21 17  1  0  0  0  0
 21 20  1  0  0  0  0
 22 20  1  0  0  0  0
 22 28  1  0  0  0  0
 23 22  1  0  0  0  0
 24 23  2  0  0  0  0
 24 25  1  0  0  0  0
 25 27  1  0  0  0  0
 26 25  2  0  0  0  0
 27 31  1  0  0  0  0
 27 28  1  0  0  0  0
 28 29  2  0  0  0  0
 30 24  1  0  0  0  0
M  END
>  <minimizedAffinity>
-7.50628567

$$$$

 OpenBabel03242510143D

 31 34  0  0  0  0  0  0  0  0999 V2000
   40.3150   34.7090   39.8430 C   0  0  0  0  0  3  0  0  0  0  0  0
   39.2680   33.8480   40.2770 C   0  0  0  0  0  3  0  0  0  0  0  0
   39.3530   32.5330   39.8850 C   0  0  0  0  0  0  0  0  0  0  0  0
   40.3990   32.1380   39.1270 N   0  0  0  0  0  0  0  0  0  0  0  0
   41.3870   32.9970   38.7280 C   0  0  0  0  0  0  0  0  0  0  0  0
   41.3250   34.2790   39.0970 N   0  0  0  0  0  0  0  0  0  0  0  0
   42.4820   32.5420   37.9240 N   0  0  0  0  0  0  0  0  0  0  0  0
   42.4250   31.2290   37.5690 C   0  0  0  0  0  3  0  0  0  0  0  0
   43.4860   30.7960   36.7920 C   0  0  0  0  0  0  0  0  0  0  0  0
   43.5000   29.3560   36.3570 C   0  0  0  0  0  1  0  0  0  0  0  0
   44.5570   31.5730   36.3670 C   0  0  0  0  0  0  0  0  0  0  0  0
   45.4690   31.0770   35.6630 O   0  0  0  0  0  0  0  0  0  0  0  0
   44.4980   32.8490   36.7820 N   0  0  0  0  0  0  0  0  0  0  0  0
   43.4970   33.3370   37.5370 C   0  0  0  0  0  0  0  0  0  0  0  0
   43.4650   34.5360   37.9130 O   0  0  0  0  0  0  0  0  0  0  0  0
   45.2580   33.4880   36.5080 H   0  0  0  0  0  0  0  0  0  0  0  0
   38.3060   31.6140   40.3080 C   0  0  0  0  0  0  0  0  0  0  0  0
   36.9600   31.9070   40.4460 C   0  0  0  0  0  3  0  0  0  0  0  0
   36.4130   30.6980   40.8680 C   0  0  0  0  0  3  0  0  0  0  0  0
   37.4280   29.7650   40.9580 C   0  0  0  0  0  0  0  0  0  0  0  0
   38.5660   30.3660   40.6080 O   0  0  0  0  0  0  0  0  0  0  0  0
   37.3060   28.4050   41.3520 N   0  0  0  0  0  0  0  0  0  0  0  0
   37.0620   27.4690   40.4150 C   0  0  0  0  0  3  0  0  0  0  0  0
   36.9380   26.1420   40.7600 C   0  0  0  0  0  0  0  0  0  0  0  0
   37.0690   25.7820   42.0910 C   0  0  0  0  0  0  0  0  0  0  0  0
   36.9500   24.5610   42.3670 O   0  0  0  0  0  0  0  0  0  0  0  0
   37.3120   26.7520   42.9800 N   0  0  0  0  0  0  0  0  0  0  0  0
   37.4310   28.0590   42.6230 C   0  0  0  0  0  0  0  0  0  0  0  0
   37.6600   28.9130   43.5160 O   0  0  0  0  0  0  0  0  0  0  0  0
   36.6720   25.1930   39.6350 C   0  0  0  0  0  1  0  0  0  0  0  0
   37.4140   26.4990   43.9720 H   0  0  0  0  0  0  0  0  0  0  0  0
  1  2  1  0  0  0  0
  3  2  2  0  0  0  0
  3 17  1  0  0  0  0
  4  3  1  0  0  0  0
  5  6  1  0  0  0  0
  5  4  2  0  0  0  0
  6  1  2  0  0  0  0
  7  5  1  0  0  0  0
  8  7  1  0  0  0  0
  9  8  2  0  0  0  0
 10  9  1  0  0  0  0
 11 13  1  0  0  0  0
 11  9  1  0  0  0  0
 12 11  2  0  0  0  0
 13 14  1  0  0  0  0
 14 15  2  0  0  0  0
 14  7  1  0  0  0  0
 16 13  1  0  0  0  0
 17 18  2  0  0  0  0
 17 21  1  0  0  0  0
 18 19  1  0  0  0  0
 19 20  2  0  0  0  0
 20 22  1  0  0  0  0
 21 20  1  0  0  0  0
 22 28  1  0  0  0  0
 23 24  2  0  0  0  0
 23 22  1  0  0  0  0
 24 25  1  0  0  0  0
 25 26  2  0  0  0  0
 25 27  1  0  0  0  0
 27 31  1  0  0  0  0
 28 27  1  0  0  0  0
 28 29  2  0  0  0  0
 30 24  1  0  0  0  0
M  END
>  <minimizedAffinity>
-7.1291337

$$$$

 OpenBabel03242510143D

 31 34  0  0  0  0  0  0  0  0999 V2000
   36.6890   27.4310   43.3420 C   0  0  0  0  0  3  0  0  0  0  0  0
   36.8260   28.7250   42.7670 C   0  0  0  0  0  3  0  0  0  0  0  0
   37.4010   28.7860   41.5200 C   0  0  0  0  0  0  0  0  0  0  0  0
   37.7980   27.6420   40.9220 N   0  0  0  0  0  0  0  0  0  0  0  0
   37.6510   26.4140   41.5070 C   0  0  0  0  0  0  0  0  0  0  0  0
   37.0940   26.3310   42.7180 N   0  0  0  0  0  0  0  0  0  0  0  0
   38.0830   25.2210   40.8420 N   0  0  0  0  0  0  0  0  0  0  0  0
   38.6760   25.4230   39.6330 C   0  0  0  0  0  3  0  0  0  0  0  0
   39.0910   24.2660   38.9960 C   0  0  0  0  0  0  0  0  0  0  0  0
   39.7560   24.4010   37.6520 C   0  0  0  0  0  1  0  0  0  0  0  0
   38.9540   22.9710   39.4820 C   0  0  0  0  0  0  0  0  0  0  0  0
   39.3680   21.9900   38.8190 O   0  0  0  0  0  0  0  0  0  0  0  0
   38.3550   22.9060   40.6820 N   0  0  0  0  0  0  0  0  0  0  0  0
   37.9280   23.9870   41.3570 C   0  0  0  0  0  0  0  0  0  0  0  0
   37.3690   23.8990   42.4810 O   0  0  0  0  0  0  0  0  0  0  0  0
   38.2150   21.9780   41.1090 H   0  0  0  0  0  0  0  0  0  0  0  0
   37.5590   30.0900   40.8920 C   0  0  0  0  0  0  0  0  0  0  0  0
   36.5600   31.0230   40.6720 C   0  0  0  0  0  3  0  0  0  0  0  0
   37.2370   32.0720   40.0530 C   0  0  0  0  0  3  0  0  0  0  0  0
   38.5690   31.7270   39.9370 C   0  0  0  0  0  0  0  0  0  0  0  0
   38.7230   30.5100   40.4610 O   0  0  0  0  0  0  0  0  0  0  0  0
   39.6080   32.5100   39.3660 N   0  0  0  0  0  0  0  0  0  0  0  0
   40.2600   33.4000   40.1370 C   0  0  0  0  0  3  0  0  0  0  0  0
   41.2720   34.1760   39.6160 C   0  0  0  0  0  0  0  0  0  0  0  0
   41.6100   34.0260   38.2820 C   0  0  0  0  0  0  0  0  0  0  0  0
   42.5400   34.7510   37.8430 O   0  0  0  0  0  0  0  0  0  0  0  0
   40.9310   33.1260   37.5620 N   0  0  0  0  0  0  0  0  0  0  0  0
   39.9340   32.3680   38.0900 C   0  0  0  0  0  0  0  0  0  0  0  0
   39.3400   31.5450   37.3490 O   0  0  0  0  0  0  0  0  0  0  0  0
   41.9270   35.1250   40.5680 C   0  0  0  0  0  1  0  0  0  0  0  0
   41.1730   33.0030   36.5690 H   0  0  0  0  0  0  0  0  0  0  0  0
  2  1  1  0  0  0  0
  3  2  2  0  0  0  0
  4  5  2  0  0  0  0
  4  3  1  0  0  0  0
  5  6  1  0  0  0  0
  6  1  2  0  0  0  0
  7 14  1  0  0  0  0
  7  5  1  0  0  0  0
  8  7  1  0  0  0  0
  9 11  1  0  0  0  0
  9  8  2  0  0  0  0
 10  9  1  0  0  0  0
 11 13  1  0  0  0  0
 12 11  2  0  0  0  0
 13 16  1  0  0  0  0
 13 14  1  0  0  0  0
 14 15  2  0  0  0  0
 17  3  1  0  0  0  0
 18 17  2  0  0  0  0
 19 18  1  0  0  0  0
 20 19  2  0  0  0  0
 20 21  1  0  0  0  0
 21 17  1  0  0  0  0
 22 20  1  0  0  0  0
 22 23  1  0  0  0  0
 24 23  2  0  0  0  0
 24 30  1  0  0  0  0
 25 24  1  0  0  0  0
 26 25  2  0  0  0  0
 27 28  1  0  0  0  0
 27 25  1  0  0  0  0
 28 22  1  0  0  0  0
 29 28  2  0  0  0  0
 31 27  1  0  0  0  0
M  END
>  <minimizedAffinity>
-6.92213726

$$$$

 OpenBabel03242510143D

 31 34  0  0  0  0  0  0  0  0999 V2000
   38.8850   23.7060   41.8400 C   0  0  0  0  0  3  0  0  0  0  0  0
   38.8860   25.0530   42.2970 C   0  0  0  0  0  3  0  0  0  0  0  0
   37.9990   25.9090   41.6880 C   0  0  0  0  0  0  0  0  0  0  0  0
   37.1940   25.4370   40.7110 N   0  0  0  0  0  0  0  0  0  0  0  0
   37.2220   24.1330   40.2970 C   0  0  0  0  0  0  0  0  0  0  0  0
   38.0760   23.2840   40.8750 N   0  0  0  0  0  0  0  0  0  0  0  0
   36.3520   23.6680   39.2580 N   0  0  0  0  0  0  0  0  0  0  0  0
   35.5540   24.6250   38.7090 C   0  0  0  0  0  3  0  0  0  0  0  0
   34.7170   24.1680   37.7060 C   0  0  0  0  0  0  0  0  0  0  0  0
   33.7990   25.1630   37.0460 C   0  0  0  0  0  1  0  0  0  0  0  0
   34.6380   22.8620   37.2390 C   0  0  0  0  0  0  0  0  0  0  0  0
   33.8390   22.5560   36.3210 O   0  0  0  0  0  0  0  0  0  0  0  0
   35.4740   22.0150   37.8600 N   0  0  0  0  0  0  0  0  0  0  0  0
   36.3140   22.3890   38.8410 C   0  0  0  0  0  0  0  0  0  0  0  0
   37.0890   21.5760   39.4070 O   0  0  0  0  0  0  0  0  0  0  0  0
   35.4730   21.0260   37.5700 H   0  0  0  0  0  0  0  0  0  0  0  0
   37.9630   27.2970   42.1260 C   0  0  0  0  0  0  0  0  0  0  0  0
   37.8950   27.7460   43.4330 C   0  0  0  0  0  3  0  0  0  0  0  0
   37.8880   29.1320   43.2930 C   0  0  0  0  0  3  0  0  0  0  0  0
   37.9510   29.4370   41.9470 C   0  0  0  0  0  0  0  0  0  0  0  0
   37.9950   28.2890   41.2700 O   0  0  0  0  0  0  0  0  0  0  0  0
   37.9650   30.7340   41.3650 N   0  0  0  0  0  0  0  0  0  0  0  0
   39.1340   31.3920   41.2570 C   0  0  0  0  0  3  0  0  0  0  0  0
   39.1860   32.6500   40.6990 C   0  0  0  0  0  0  0  0  0  0  0  0
   38.0130   33.2290   40.2470 C   0  0  0  0  0  0  0  0  0  0  0  0
   38.1000   34.3780   39.7420 O   0  0  0  0  0  0  0  0  0  0  0  0
   36.8800   32.5300   40.3770 N   0  0  0  0  0  0  0  0  0  0  0  0
   36.8450   31.2900   40.9320 C   0  0  0  0  0  0  0  0  0  0  0  0
   35.7410   30.6950   41.0200 O   0  0  0  0  0  0  0  0  0  0  0  0
   40.5400   33.2810   40.6280 C   0  0  0  0  0  1  0  0  0  0  0  0
   36.0000   32.9480   40.0440 H   0  0  0  0  0  0  0  0  0  0  0  0
  1  2  1  0  0  0  0
  3 17  1  0  0  0  0
  3  2  2  0  0  0  0
  4  3  1  0  0  0  0
  5  4  2  0  0  0  0
  5  6  1  0  0  0  0
  6  1  2  0  0  0  0
  7  5  1  0  0  0  0
  8  7  1  0  0  0  0
  9  8  2  0  0  0  0
 10  9  1  0  0  0  0
 11  9  1  0  0  0  0
 11 13  1  0  0  0  0
 12 11  2  0  0  0  0
 13 14  1  0  0  0  0
 14  7  1  0  0  0  0
 14 15  2  0  0  0  0
 16 13  1  0  0  0  0
 17 18  2  0  0  0  0
 19 18  1  0  0  0  0
 20 19  2  0  0  0  0
 21 20  1  0  0  0  0
 21 17  1  0  0  0  0
 22 20  1  0  0  0  0
 23 22  1  0  0  0  0
 24 23  2  0  0  0  0
 25 27  1  0  0  0  0
 25 24  1  0  0  0  0
 26 25  2  0  0  0  0
 27 28  1  0  0  0  0
 28 29  2  0  0  0  0
 28 22  1  0  0  0  0
 30 24  1  0  0  0  0
 31 27  1  0  0  0  0
M  END
>  <minimizedAffinity>
-6.79670858

$$$$

 OpenBabel03242510143D

 31 34  0  0  0  0  0  0  0  0999 V2000
   36.9930   23.9520   41.5900 C   0  0  0  0  0  3  0  0  0  0  0  0
   37.0620   25.2900   42.0710 C   0  0  0  0  0  3  0  0  0  0  0  0
   38.0260   26.0950   41.5130 C   0  0  0  0  0  0  0  0  0  0  0  0
   38.8380   25.5860   40.5600 N   0  0  0  0  0  0  0  0  0  0  0  0
   38.7430   24.2930   40.1230 C   0  0  0  0  0  0  0  0  0  0  0  0
   37.8130   23.4930   40.6520 N   0  0  0  0  0  0  0  0  0  0  0  0
   39.6220   23.7880   39.1110 N   0  0  0  0  0  0  0  0  0  0  0  0
   40.5580   24.6740   38.6720 C   0  0  0  0  0  3  0  0  0  0  0  0
   41.4030   24.1790   37.6940 C   0  0  0  0  0  0  0  0  0  0  0  0
   42.4680   25.0950   37.1540 C   0  0  0  0  0  1  0  0  0  0  0  0
   41.3670   22.8990   37.1540 C   0  0  0  0  0  0  0  0  0  0  0  0
   42.1840   22.5540   36.2670 O   0  0  0  0  0  0  0  0  0  0  0  0
   40.4000   22.1230   37.6680 N   0  0  0  0  0  0  0  0  0  0  0  0
   39.5450   22.5370   38.6200 C   0  0  0  0  0  0  0  0  0  0  0  0
   38.6470   21.7900   39.0860 O   0  0  0  0  0  0  0  0  0  0  0  0
   40.3070   21.1590   37.3160 H   0  0  0  0  0  0  0  0  0  0  0  0
   38.1310   27.4720   41.9730 C   0  0  0  0  0  0  0  0  0  0  0  0
   38.3360   27.8920   43.2760 C   0  0  0  0  0  3  0  0  0  0  0  0
   38.3570   29.2800   43.1630 C   0  0  0  0  0  3  0  0  0  0  0  0
   38.1690   29.6150   41.8360 C   0  0  0  0  0  0  0  0  0  0  0  0
   38.0360   28.4830   41.1440 O   0  0  0  0  0  0  0  0  0  0  0  0
   38.1220   30.9240   41.2850 N   0  0  0  0  0  0  0  0  0  0  0  0
   39.2630   31.6260   41.1590 C   0  0  0  0  0  3  0  0  0  0  0  0
   39.2550   32.8960   40.6290 C   0  0  0  0  0  0  0  0  0  0  0  0
   38.0500   33.4440   40.2240 C   0  0  0  0  0  0  0  0  0  0  0  0
   38.0820   34.6070   39.7440 O   0  0  0  0  0  0  0  0  0  0  0  0
   36.9460   32.7030   40.3700 N   0  0  0  0  0  0  0  0  0  0  0  0
   36.9700   31.4500   40.8970 C   0  0  0  0  0  0  0  0  0  0  0  0
   35.8910   30.8150   41.0030 O   0  0  0  0  0  0  0  0  0  0  0  0
   40.5830   33.5770   40.5330 C   0  0  0  0  0  1  0  0  0  0  0  0
   36.0430   33.0960   40.0720 H   0  0  0  0  0  0  0  0  0  0  0  0
  1  2  1  0  0  0  0
  3 17  1  0  0  0  0
  3  2  2  0  0  0  0
  4  3  1  0  0  0  0
  5  4  2  0  0  0  0
  5  6  1  0  0  0  0
  6  1  2  0  0  0  0
  7  5  1  0  0  0  0
  8  7  1  0  0  0  0
  9  8  2  0  0  0  0
 10  9  1  0  0  0  0
 11 13  1  0  0  0  0
 11  9  1  0  0  0  0
 12 11  2  0  0  0  0
 13 14  1  0  0  0  0
 14 15  2  0  0  0  0
 14  7  1  0  0  0  0
 16 13  1  0  0  0  0
 17 18  2  0  0  0  0
 19 18  1  0  0  0  0
 20 19  2  0  0  0  0
 21 20  1  0  0  0  0
 21 17  1  0  0  0  0
 22 20  1  0  0  0  0
 23 22  1  0  0  0  0
 24 23  2  0  0  0  0
 25 27  1  0  0  0  0
 25 24  1  0  0  0  0
 26 25  2  0  0  0  0
 27 28  1  0  0  0  0
 28 29  2  0  0  0  0
 28 22  1  0  0  0  0
 30 24  1  0  0  0  0
 31 27  1  0  0  0  0
M  END
>  <minimizedAffinity>
-6.68265676

$$$$

 OpenBabel03242510143D

 31 34  0  0  0  0  0  0  0  0999 V2000
   36.6450   29.9610   37.3190 C   0  0  0  0  0  3  0  0  0  0  0  0
   37.3690   31.1230   37.7060 C   0  0  0  0  0  3  0  0  0  0  0  0
   38.0530   31.0510   38.8960 C   0  0  0  0  0  0  0  0  0  0  0  0
   38.0040   29.9100   39.6170 N   0  0  0  0  0  0  0  0  0  0  0  0
   37.2950   28.8120   39.2120 C   0  0  0  0  0  0  0  0  0  0  0  0
   36.6220   28.8590   38.0590 N   0  0  0  0  0  0  0  0  0  0  0  0
   37.2640   27.6180   40.0030 N   0  0  0  0  0  0  0  0  0  0  0  0
   37.9480   27.6930   41.1780 C   0  0  0  0  0  3  0  0  0  0  0  0
   37.9150   26.5360   41.9370 C   0  0  0  0  0  0  0  0  0  0  0  0
   38.6470   26.5340   43.2520 C   0  0  0  0  0  1  0  0  0  0  0  0
   37.2610   25.3560   41.6010 C   0  0  0  0  0  0  0  0  0  0  0  0
   37.2960   24.3630   42.3660 O   0  0  0  0  0  0  0  0  0  0  0  0
   36.6240   25.4100   40.4200 N   0  0  0  0  0  0  0  0  0  0  0  0
   36.6140   26.4990   39.6320 C   0  0  0  0  0  0  0  0  0  0  0  0
   36.0100   26.5240   38.5290 O   0  0  0  0  0  0  0  0  0  0  0  0
   36.1170   24.5720   40.1000 H   0  0  0  0  0  0  0  0  0  0  0  0
   38.8110   32.2160   39.3310 C   0  0  0  0  0  0  0  0  0  0  0  0
   38.2900   33.4270   39.7530 C   0  0  0  0  0  3  0  0  0  0  0  0
   39.4260   34.1760   40.0490 C   0  0  0  0  0  3  0  0  0  0  0  0
   40.5410   33.4000   39.7980 C   0  0  0  0  0  0  0  0  0  0  0  0
   40.1210   32.2120   39.3620 O   0  0  0  0  0  0  0  0  0  0  0  0
   41.9000   33.7790   39.9650 N   0  0  0  0  0  0  0  0  0  0  0  0
   42.4500   33.7270   41.1930 C   0  0  0  0  0  3  0  0  0  0  0  0
   43.7640   34.0870   41.3920 C   0  0  0  0  0  0  0  0  0  0  0  0
   44.5160   34.5030   40.3070 C   0  0  0  0  0  0  0  0  0  0  0  0
   45.7120   34.8230   40.5280 O   0  0  0  0  0  0  0  0  0  0  0  0
   43.9200   34.5340   39.1090 N   0  0  0  0  0  0  0  0  0  0  0  0
   42.6210   34.1770   38.9280 C   0  0  0  0  0  0  0  0  0  0  0  0
   42.1310   34.2340   37.7730 O   0  0  0  0  0  0  0  0  0  0  0  0
   44.2670   33.9840   42.7970 C   0  0  0  0  0  1  0  0  0  0  0  0
   44.4670   34.8400   38.2930 H   0  0  0  0  0  0  0  0  0  0  0  0
  1  2  2  0  0  0  0
  1  6  1  0  0  0  0
  2  3  1  0  0  0  0
  3 17  1  0  0  0  0
  3  4  2  0  0  0  0
  5  4  1  0  0  0  0
  5  7  1  0  0  0  0
  6  5  2  0  0  0  0
  7  8  1  0  0  0  0
  8  9  2  0  0  0  0
  9 10  1  0  0  0  0
 11  9  1  0  0  0  0
 11 12  2  0  0  0  0
 13 11  1  0  0  0  0
 14  7  1  0  0  0  0
 14 13  1  0  0  0  0
 15 14  2  0  0  0  0
 16 13  1  0  0  0  0
 17 21  1  0  0  0  0
 17 18  2  0  0  0  0
 18 19  1  0  0  0  0
 20 22  1  0  0  0  0
 20 19  2  0  0  0  0
 21 20  1  0  0  0  0
 22 23  1  0  0  0  0
 23 24  2  0  0  0  0
 24 30  1  0  0  0  0
 25 26  2  0  0  0  0
 25 24  1  0  0  0  0
 27 25  1  0  0  0  0
 28 27  1  0  0  0  0
 28 22  1  0  0  0  0
 29 28  2  0  0  0  0
 31 27  1  0  0  0  0
M  END
>  <minimizedAffinity>
-6.66965675

$$$$

 OpenBabel03242510143D

 31 34  0  0  0  0  0  0  0  0999 V2000
   39.1970   33.9820   40.1090 C   0  0  0  0  0  3  0  0  0  0  0  0
   38.2450   32.9720   40.4240 C   0  0  0  0  0  3  0  0  0  0  0  0
   38.5010   31.7130   39.9360 C   0  0  0  0  0  0  0  0  0  0  0  0
   39.6150   31.5050   39.2000 N   0  0  0  0  0  0  0  0  0  0  0  0
   40.5080   32.5030   38.9170 C   0  0  0  0  0  0  0  0  0  0  0  0
   40.2790   33.7340   39.3820 N   0  0  0  0  0  0  0  0  0  0  0  0
   41.6800   32.2460   38.1340 N   0  0  0  0  0  0  0  0  0  0  0  0
   41.7930   30.9680   37.6750 C   0  0  0  0  0  3  0  0  0  0  0  0
   42.9270   30.7270   36.9200 C   0  0  0  0  0  0  0  0  0  0  0  0
   43.1290   29.3390   36.3750 C   0  0  0  0  0  1  0  0  0  0  0  0
   43.9130   31.6560   36.6070 C   0  0  0  0  0  0  0  0  0  0  0  0
   44.9040   31.3280   35.9120 O   0  0  0  0  0  0  0  0  0  0  0  0
   43.6860   32.8770   37.1170 N   0  0  0  0  0  0  0  0  0  0  0  0
   42.6070   33.1810   37.8590 C   0  0  0  0  0  0  0  0  0  0  0  0
   42.4170   34.3340   38.3250 O   0  0  0  0  0  0  0  0  0  0  0  0
   44.3750   33.6200   36.9310 H   0  0  0  0  0  0  0  0  0  0  0  0
   37.5550   30.6470   40.2360 C   0  0  0  0  0  0  0  0  0  0  0  0
   36.2990   30.7960   40.7990 C   0  0  0  0  0  3  0  0  0  0  0  0
   35.8250   29.4880   40.8670 C   0  0  0  0  0  3  0  0  0  0  0  0
   36.7910   28.6440   40.3550 C   0  0  0  0  0  0  0  0  0  0  0  0
   37.8290   29.3920   39.9810 O   0  0  0  0  0  0  0  0  0  0  0  0
   36.7140   27.2300   40.2370 N   0  0  0  0  0  0  0  0  0  0  0  0
   37.1470   26.4620   41.2540 C   0  0  0  0  0  3  0  0  0  0  0  0
   37.0890   25.0880   41.1750 C   0  0  0  0  0  0  0  0  0  0  0  0
   36.5740   24.5060   40.0290 C   0  0  0  0  0  0  0  0  0  0  0  0
   36.5360   23.2490   39.9940 O   0  0  0  0  0  0  0  0  0  0  0  0
   36.1570   25.3160   39.0500 N   0  0  0  0  0  0  0  0  0  0  0  0
   36.2220   26.6710   39.1420 C   0  0  0  0  0  0  0  0  0  0  0  0
   35.8110   27.3660   38.1790 O   0  0  0  0  0  0  0  0  0  0  0  0
   37.5930   24.3400   42.3670 C   0  0  0  0  0  1  0  0  0  0  0  0
   35.7710   24.8970   38.1920 H   0  0  0  0  0  0  0  0  0  0  0  0
  1  2  1  0  0  0  0
  3 17  1  0  0  0  0
  3  2  2  0  0  0  0
  4  3  1  0  0  0  0
  5  4  2  0  0  0  0
  5  6  1  0  0  0  0
  6  1  2  0  0  0  0
  7  5  1  0  0  0  0
  8  7  1  0  0  0  0
  9  8  2  0  0  0  0
 10  9  1  0  0  0  0
 11  9  1  0  0  0  0
 11 13  1  0  0  0  0
 12 11  2  0  0  0  0
 13 14  1  0  0  0  0
 14  7  1  0  0  0  0
 14 15  2  0  0  0  0
 16 13  1  0  0  0  0
 17 18  2  0  0  0  0
 18 19  1  0  0  0  0
 20 19  2  0  0  0  0
 21 17  1  0  0  0  0
 21 20  1  0  0  0  0
 22 20  1  0  0  0  0
 22 23  1  0  0  0  0
 24 23  2  0  0  0  0
 24 30  1  0  0  0  0
 25 24  1  0  0  0  0
 26 25  2  0  0  0  0
 27 28  1  0  0  0  0
 27 25  1  0  0  0  0
 28 22  1  0  0  0  0
 29 28  2  0  0  0  0
 31 27  1  0  0  0  0
M  END
>  <minimizedAffinity>
-6.63083744

$$$$

 OpenBabel03242510143D

 31 34  0  0  0  0  0  0  0  0999 V2000
   37.4870   33.1640   39.7130 C   0  0  0  0  0  3  0  0  0  0  0  0
   37.0690   31.8550   40.0850 C   0  0  0  0  0  3  0  0  0  0  0  0
   38.0180   31.0480   40.6650 C   0  0  0  0  0  0  0  0  0  0  0  0
   39.2670   31.5280   40.8470 N   0  0  0  0  0  0  0  0  0  0  0  0
   39.6340   32.7930   40.4760 C   0  0  0  0  0  0  0  0  0  0  0  0
   38.7270   33.5940   39.9100 N   0  0  0  0  0  0  0  0  0  0  0  0
   40.9700   33.2670   40.6850 N   0  0  0  0  0  0  0  0  0  0  0  0
   41.8220   32.3550   41.2290 C   0  0  0  0  0  3  0  0  0  0  0  0
   43.1100   32.8210   41.4280 C   0  0  0  0  0  0  0  0  0  0  0  0
   44.1170   31.8750   42.0270 C   0  0  0  0  0  1  0  0  0  0  0  0
   43.5750   34.0950   41.1240 C   0  0  0  0  0  0  0  0  0  0  0  0
   44.7680   34.4130   41.3480 O   0  0  0  0  0  0  0  0  0  0  0  0
   42.6390   34.8990   40.5950 N   0  0  0  0  0  0  0  0  0  0  0  0
   41.3700   34.5130   40.3730 C   0  0  0  0  0  0  0  0  0  0  0  0
   40.5120   35.2860   39.8750 O   0  0  0  0  0  0  0  0  0  0  0  0
   42.9070   35.8620   40.3450 H   0  0  0  0  0  0  0  0  0  0  0  0
   37.6330   29.7020   41.0640 C   0  0  0  0  0  0  0  0  0  0  0  0
   37.3240   29.2800   42.3460 C   0  0  0  0  0  3  0  0  0  0  0  0
   37.0310   27.9290   42.1730 C   0  0  0  0  0  3  0  0  0  0  0  0
   37.1720   27.6170   40.8350 C   0  0  0  0  0  0  0  0  0  0  0  0
   37.5400   28.7270   40.1940 O   0  0  0  0  0  0  0  0  0  0  0  0
   36.9680   26.3480   40.2280 N   0  0  0  0  0  0  0  0  0  0  0  0
   37.5660   25.2640   40.7550 C   0  0  0  0  0  3  0  0  0  0  0  0
   37.3920   24.0190   40.1930 C   0  0  0  0  0  0  0  0  0  0  0  0
   36.5880   23.8990   39.0730 C   0  0  0  0  0  0  0  0  0  0  0  0
   36.4510   22.7460   38.5880 O   0  0  0  0  0  0  0  0  0  0  0  0
   36.0160   25.0080   38.5910 N   0  0  0  0  0  0  0  0  0  0  0  0
   36.1990   26.2310   39.1560 C   0  0  0  0  0  0  0  0  0  0  0  0
   35.6290   27.2270   38.6460 O   0  0  0  0  0  0  0  0  0  0  0  0
   38.1010   22.8890   40.8670 C   0  0  0  0  0  1  0  0  0  0  0  0
   35.4140   24.9340   37.7590 H   0  0  0  0  0  0  0  0  0  0  0  0
  1  6  2  0  0  0  0
  1  2  1  0  0  0  0
  2  3  2  0  0  0  0
  3  4  1  0  0  0  0
  3 17  1  0  0  0  0
  5  7  1  0  0  0  0
  5  4  2  0  0  0  0
  6  5  1  0  0  0  0
  7  8  1  0  0  0  0
  8  9  2  0  0  0  0
  9 10  1  0  0  0  0
 11 12  2  0  0  0  0
 11  9  1  0  0  0  0
 13 11  1  0  0  0  0
 14 13  1  0  0  0  0
 14  7  1  0  0  0  0
 15 14  2  0  0  0  0
 16 13  1  0  0  0  0
 17 18  2  0  0  0  0
 19 18  1  0  0  0  0
 20 19  2  0  0  0  0
 21 20  1  0  0  0  0
 21 17  1  0  0  0  0
 22 23  1  0  0  0  0
 22 20  1  0  0  0  0
 24 23  2  0  0  0  0
 24 30  1  0  0  0  0
 25 24  1  0  0  0  0
 26 25  2  0  0  0  0
 27 25  1  0  0  0  0
 27 28  1  0  0  0  0
 28 22  1  0  0  0  0
 29 28  2  0  0  0  0
 31 27  1  0  0  0  0
M  END
>  <minimizedAffinity>
-6.62594271

$$$$

 OpenBabel03242510143D

 31 34  0  0  0  0  0  0  0  0999 V2000
   39.6410   33.8980   39.7540 C   0  0  0  0  0  3  0  0  0  0  0  0
   38.6340   32.8940   39.8070 C   0  0  0  0  0  3  0  0  0  0  0  0
   38.8820   31.8190   40.6270 C   0  0  0  0  0  0  0  0  0  0  0  0
   40.0390   31.7730   41.3220 N   0  0  0  0  0  0  0  0  0  0  0  0
   40.9850   32.7590   41.2450 C   0  0  0  0  0  0  0  0  0  0  0  0
   40.7660   33.8130   40.4540 N   0  0  0  0  0  0  0  0  0  0  0  0
   42.2020   32.6770   41.9970 N   0  0  0  0  0  0  0  0  0  0  0  0
   42.3420   31.5420   42.7360 C   0  0  0  0  0  3  0  0  0  0  0  0
   43.5190   31.4690   43.4600 C   0  0  0  0  0  0  0  0  0  0  0  0
   43.7530   30.2460   44.3050 C   0  0  0  0  0  1  0  0  0  0  0  0
   44.5240   32.4290   43.4840 C   0  0  0  0  0  0  0  0  0  0  0  0
   45.5550   32.2610   44.1790 O   0  0  0  0  0  0  0  0  0  0  0  0
   44.2670   33.4990   42.7150 N   0  0  0  0  0  0  0  0  0  0  0  0
   43.1460   33.6360   41.9850 C   0  0  0  0  0  0  0  0  0  0  0  0
   42.9280   34.6490   41.2730 O   0  0  0  0  0  0  0  0  0  0  0  0
   44.9650   34.2560   42.6820 H   0  0  0  0  0  0  0  0  0  0  0  0
   37.8770   30.7680   40.7140 C   0  0  0  0  0  0  0  0  0  0  0  0
   36.5060   30.9440   40.7810 C   0  0  0  0  0  3  0  0  0  0  0  0
   36.0210   29.6400   40.8480 C   0  0  0  0  0  3  0  0  0  0  0  0
   37.0950   28.7710   40.8190 C   0  0  0  0  0  0  0  0  0  0  0  0
   38.2080   29.5010   40.7360 O   0  0  0  0  0  0  0  0  0  0  0  0
   37.0470   27.3520   40.8670 N   0  0  0  0  0  0  0  0  0  0  0  0
   36.7190   26.6670   39.7550 C   0  0  0  0  0  3  0  0  0  0  0  0
   36.6630   25.2910   39.7660 C   0  0  0  0  0  0  0  0  0  0  0  0
   36.9490   24.6190   40.9410 C   0  0  0  0  0  0  0  0  0  0  0  0
   36.8880   23.3630   40.9120 O   0  0  0  0  0  0  0  0  0  0  0  0
   37.2700   25.3490   42.0160 N   0  0  0  0  0  0  0  0  0  0  0  0
   37.3210   26.7070   41.9910 C   0  0  0  0  0  0  0  0  0  0  0  0
   37.6300   27.3230   43.0410 O   0  0  0  0  0  0  0  0  0  0  0  0
   36.2930   24.6400   38.4710 C   0  0  0  0  0  1  0  0  0  0  0  0
   37.4870   24.8620   42.8970 H   0  0  0  0  0  0  0  0  0  0  0  0
  1  2  2  0  0  0  0
  1  6  1  0  0  0  0
  2  3  1  0  0  0  0
  3 17  1  0  0  0  0
  3  4  2  0  0  0  0
  5  4  1  0  0  0  0
  5  7  1  0  0  0  0
  6  5  2  0  0  0  0
  7  8  1  0  0  0  0
  8  9  2  0  0  0  0
  9 11  1  0  0  0  0
  9 10  1  0  0  0  0
 11 12  2  0  0  0  0
 13 11  1  0  0  0  0
 14  7  1  0  0  0  0
 14 13  1  0  0  0  0
 15 14  2  0  0  0  0
 16 13  1  0  0  0  0
 17 21  1  0  0  0  0
 17 18  2  0  0  0  0
 18 19  1  0  0  0  0
 20 19  2  0  0  0  0
 20 22  1  0  0  0  0
 21 20  1  0  0  0  0
 22 28  1  0  0  0  0
 23 24  2  0  0  0  0
 23 22  1  0  0  0  0
 24 25  1  0  0  0  0
 25 27  1  0  0  0  0
 26 25  2  0  0  0  0
 27 31  1  0  0  0  0
 28 27  1  0  0  0  0
 28 29  2  0  0  0  0
 30 24  1  0  0  0  0
M  END
>  <minimizedAffinity>
-6.49083233

$$$$
