
 OpenBabel03242509563D

 35 40  0  0  0  0  0  0  0  0999 V2000
   36.4870   30.9770   40.5770 C   0  0  0  0  0  3  0  0  0  0  0  0
   37.1420   30.0730   41.4320 C   0  0  0  0  0  3  0  0  0  0  0  0
   38.3800   30.3210   41.9250 C   0  0  0  0  0  0  0  0  0  0  0  0
   38.9770   31.4780   41.5680 N   0  0  0  0  0  0  0  0  0  0  0  0
   38.3340   32.3490   40.7380 C   0  0  0  0  0  0  0  0  0  0  0  0
   37.1350   32.1120   40.2590 N   0  0  0  0  0  0  0  0  0  0  0  0
   39.1750   33.5570   40.4760 C   0  0  0  0  0  0  0  0  0  0  0  0
   38.7540   34.9090   40.0890 C   0  0  0  0  0  3  0  0  0  0  0  0
   40.3770   35.6890   39.9920 S   0  0  0  0  0  0  0  0  0  0  0  0
   41.3210   34.1250   40.4720 C   0  0  0  0  0  0  0  0  0  0  0  0
   40.4150   33.1740   40.6630 N   0  0  0  0  0  0  0  0  0  0  0  0
   42.8240   34.2050   40.5520 C   0  0  0  0  0  0  0  0  0  0  0  0
   43.6720   33.5540   39.7310 C   0  0  0  0  0  3  0  0  0  0  0  0
   44.8920   33.9460   40.2040 N   0  0  0  0  0  0  0  0  0  0  0  0
   44.7430   34.7940   41.2620 C   0  0  0  0  0  0  0  0  0  0  0  0
   45.7090   35.4270   42.0390 C   0  0  0  0  0  3  0  0  0  0  0  0
   45.2610   36.2540   43.0750 C   0  0  0  0  0  3  0  0  0  0  0  0
   43.9040   36.4110   43.2880 C   0  0  0  0  0  3  0  0  0  0  0  0
   42.9360   35.7800   42.5150 C   0  0  0  0  0  3  0  0  0  0  0  0
   43.3770   34.9780   41.5090 C   0  0  0  0  0  0  0  0  0  0  0  0
   45.7980   33.6440   39.8170 H   0  0  0  0  0  0  0  0  0  0  0  0
   39.0380   29.3640   42.8110 C   0  0  0  0  0  2  0  0  0  0  0  0
   38.1590   28.3980   43.5150 C   0  0  0  0  0  2  0  0  0  0  0  0
   38.6670   27.0220   43.2260 C   0  0  0  0  0  0  0  0  0  0  0  0
   39.8000   26.5120   43.8240 C   0  0  0  0  0  3  0  0  0  0  0  0
   40.3400   25.2800   43.6310 C   0  0  0  0  0  3  0  0  0  0  0  0
   39.6600   24.4950   42.7430 N   0  0  0  0  0  0  0  0  0  0  0  0
   38.5460   24.9610   42.1380 C   0  0  0  0  0  0  0  0  0  0  0  0
   38.0280   26.1960   42.3490 N   0  0  0  0  0  0  0  0  0  0  0  0
   37.8770   24.0690   41.2060 C   0  0  0  0  0  0  0  0  0  0  0  0
   36.5070   24.2010   40.9630 C   0  0  0  0  0  3  0  0  0  0  0  0
   35.8870   23.3530   40.0820 C   0  0  0  0  0  3  0  0  0  0  0  0
   36.5690   22.3990   39.4520 N   0  0  0  0  0  0  0  0  0  0  0  0
   37.9010   22.2860   39.7030 C   0  0  0  0  0  3  0  0  0  0  0  0
   38.5660   23.1040   40.5690 N   0  0  0  0  0  0  0  0  0  0  0  0
  1  2  1  0  0  0  0
  2  3  2  0  0  0  0
  3 22  1  0  0  0  0
  4  3  1  0  0  0  0
  5  4  2  0  0  0  0
  6  1  2  0  0  0  0
  6  5  1  0  0  0  0
  7 11  1  0  0  0  0
  7  5  1  0  0  0  0
  8  7  2  0  0  0  0
  9  8  1  0  0  0  0
  9 10  1  0  0  0  0
 10 12  1  0  0  0  0
 10 11  2  0  0  0  0
 12 20  1  0  0  0  0
 13 14  1  0  0  0  0
 13 12  2  0  0  0  0
 14 15  1  0  0  0  0
 15 20  2  0  0  0  0
 15 16  1  0  0  0  0
 16 17  2  0  0  0  0
 17 18  1  0  0  0  0
 19 18  2  0  0  0  0
 20 19  1  0  0  0  0
 21 14  1  0  0  0  0
 22 23  1  0  0  0  0
 24 23  1  0  0  0  0
 24 25  1  0  0  0  0
 26 25  2  0  0  0  0
 27 26  1  0  0  0  0
 28 29  1  0  0  0  0
 28 27  2  0  0  0  0
 29 24  2  0  0  0  0
 30 28  1  0  0  0  0
 31 30  1  0  0  0  0
 32 31  2  0  0  0  0
 33 34  2  0  0  0  0
 33 32  1  0  0  0  0
 34 35  1  0  0  0  0
 35 30  2  0  0  0  0
M  END
>  <minimizedAffinity>
-8.05427265

$$$$

 OpenBabel03242509563D

 35 40  0  0  0  0  0  0  0  0999 V2000
   36.5180   30.7700   40.1780 C   0  0  0  0  0  3  0  0  0  0  0  0
   37.0950   29.9390   41.1540 C   0  0  0  0  0  3  0  0  0  0  0  0
   38.2150   30.2960   41.8300 C   0  0  0  0  0  0  0  0  0  0  0  0
   38.7690   31.4920   41.5360 N   0  0  0  0  0  0  0  0  0  0  0  0
   38.2020   32.2910   40.5870 C   0  0  0  0  0  0  0  0  0  0  0  0
   37.1170   31.9480   39.9310 N   0  0  0  0  0  0  0  0  0  0  0  0
   38.9760   33.5600   40.4240 C   0  0  0  0  0  0  0  0  0  0  0  0
   38.4850   34.9120   40.1300 C   0  0  0  0  0  3  0  0  0  0  0  0
   40.0630   35.7840   40.1110 S   0  0  0  0  0  0  0  0  0  0  0  0
   41.0880   34.2420   40.4870 C   0  0  0  0  0  0  0  0  0  0  0  0
   40.2350   33.2320   40.5980 N   0  0  0  0  0  0  0  0  0  0  0  0
   42.5840   34.3980   40.5920 C   0  0  0  0  0  0  0  0  0  0  0  0
   43.2270   34.9260   41.6520 C   0  0  0  0  0  3  0  0  0  0  0  0
   44.5360   34.8460   41.2660 N   0  0  0  0  0  0  0  0  0  0  0  0
   44.6330   34.2890   40.0250 C   0  0  0  0  0  0  0  0  0  0  0  0
   45.7610   34.0210   39.2550 C   0  0  0  0  0  3  0  0  0  0  0  0
   45.5600   33.4360   38.0010 C   0  0  0  0  0  3  0  0  0  0  0  0
   44.2760   33.1500   37.5760 C   0  0  0  0  0  3  0  0  0  0  0  0
   43.1460   33.4160   38.3410 C   0  0  0  0  0  3  0  0  0  0  0  0
   43.3480   33.9850   39.5600 C   0  0  0  0  0  0  0  0  0  0  0  0
   45.3360   35.1620   41.8330 H   0  0  0  0  0  0  0  0  0  0  0  0
   38.7940   29.4140   42.8380 C   0  0  0  0  0  2  0  0  0  0  0  0
   37.8790   28.4260   43.4610 C   0  0  0  0  0  2  0  0  0  0  0  0
   38.4360   27.0620   43.2070 C   0  0  0  0  0  0  0  0  0  0  0  0
   39.5680   26.5960   43.8400 C   0  0  0  0  0  3  0  0  0  0  0  0
   40.1500   25.3790   43.6800 C   0  0  0  0  0  3  0  0  0  0  0  0
   39.5170   24.5600   42.7880 N   0  0  0  0  0  0  0  0  0  0  0  0
   38.4050   24.9820   42.1490 C   0  0  0  0  0  0  0  0  0  0  0  0
   37.8440   26.2040   42.3270 N   0  0  0  0  0  0  0  0  0  0  0  0
   37.7870   24.0560   41.2150 C   0  0  0  0  0  0  0  0  0  0  0  0
   36.4810   24.2730   40.7660 C   0  0  0  0  0  3  0  0  0  0  0  0
   35.9080   23.3910   39.8860 C   0  0  0  0  0  3  0  0  0  0  0  0
   36.5760   22.3250   39.4500 N   0  0  0  0  0  0  0  0  0  0  0  0
   37.8440   22.1300   39.9000 C   0  0  0  0  0  3  0  0  0  0  0  0
   38.4600   22.9770   40.7750 N   0  0  0  0  0  0  0  0  0  0  0  0
  1  2  1  0  0  0  0
  2  3  2  0  0  0  0
  3 22  1  0  0  0  0
  4  3  1  0  0  0  0
  5  4  2  0  0  0  0
  6  1  2  0  0  0  0
  6  5  1  0  0  0  0
  7  5  1  0  0  0  0
  7 11  1  0  0  0  0
  8  7  2  0  0  0  0
  9  8  1  0  0  0  0
  9 10  1  0  0  0  0
 10 12  1  0  0  0  0
 10 11  2  0  0  0  0
 12 13  2  0  0  0  0
 14 13  1  0  0  0  0
 14 21  1  0  0  0  0
 15 14  1  0  0  0  0
 16 15  2  0  0  0  0
 17 16  1  0  0  0  0
 18 17  2  0  0  0  0
 18 19  1  0  0  0  0
 19 20  2  0  0  0  0
 20 15  1  0  0  0  0
 20 12  1  0  0  0  0
 22 23  1  0  0  0  0
 24 23  1  0  0  0  0
 24 25  1  0  0  0  0
 26 25  2  0  0  0  0
 27 26  1  0  0  0  0
 28 29  1  0  0  0  0
 28 27  2  0  0  0  0
 29 24  2  0  0  0  0
 30 28  1  0  0  0  0
 31 30  2  0  0  0  0
 32 31  1  0  0  0  0
 33 32  2  0  0  0  0
 33 34  1  0  0  0  0
 34 35  2  0  0  0  0
 35 30  1  0  0  0  0
M  END
>  <minimizedAffinity>
-7.55862522

$$$$

 OpenBabel03242509563D

 35 40  0  0  0  0  0  0  0  0999 V2000
   40.1990   36.2150   40.2830 C   0  0  0  0  0  3  0  0  0  0  0  0
   41.4000   36.2960   41.0100 C   0  0  0  0  0  3  0  0  0  0  0  0
   42.1370   35.1970   41.3030 C   0  0  0  0  0  0  0  0  0  0  0  0
   41.6810   34.0030   40.8700 N   0  0  0  0  0  0  0  0  0  0  0  0
   40.5140   33.9330   40.1660 C   0  0  0  0  0  0  0  0  0  0  0  0
   39.7980   34.9960   39.8800 N   0  0  0  0  0  0  0  0  0  0  0  0
   40.2000   32.5210   39.7880 C   0  0  0  0  0  0  0  0  0  0  0  0
   40.8610   31.6590   38.8010 C   0  0  0  0  0  3  0  0  0  0  0  0
   39.8520   30.1780   39.0040 S   0  0  0  0  0  0  0  0  0  0  0  0
   38.7470   30.9340   40.3370 C   0  0  0  0  0  0  0  0  0  0  0  0
   39.1780   32.1740   40.5340 N   0  0  0  0  0  0  0  0  0  0  0  0
   37.6490   30.0770   40.9120 C   0  0  0  0  0  0  0  0  0  0  0  0
   36.3550   30.1360   40.5370 C   0  0  0  0  0  3  0  0  0  0  0  0
   35.7800   29.1860   41.3330 N   0  0  0  0  0  0  0  0  0  0  0  0
   36.7170   28.6040   42.1340 C   0  0  0  0  0  0  0  0  0  0  0  0
   36.5750   27.6010   43.0880 C   0  0  0  0  0  3  0  0  0  0  0  0
   37.7250   27.1930   43.7710 C   0  0  0  0  0  3  0  0  0  0  0  0
   38.9400   27.7880   43.4820 C   0  0  0  0  0  3  0  0  0  0  0  0
   39.0870   28.7910   42.5310 C   0  0  0  0  0  3  0  0  0  0  0  0
   37.9650   29.1830   41.8710 C   0  0  0  0  0  0  0  0  0  0  0  0
   34.7780   28.9430   41.3270 H   0  0  0  0  0  0  0  0  0  0  0  0
   43.3800   35.3100   42.0600 C   0  0  0  0  0  2  0  0  0  0  0  0
   44.4070   34.2680   41.8110 C   0  0  0  0  0  2  0  0  0  0  0  0
   44.5920   33.4950   43.0780 C   0  0  0  0  0  0  0  0  0  0  0  0
   45.2250   34.0260   44.1810 C   0  0  0  0  0  3  0  0  0  0  0  0
   45.4410   33.4110   45.3730 C   0  0  0  0  0  3  0  0  0  0  0  0
   44.9670   32.1310   45.4450 N   0  0  0  0  0  0  0  0  0  0  0  0
   44.3410   31.5780   44.3830 C   0  0  0  0  0  0  0  0  0  0  0  0
   44.1390   32.2160   43.2040 N   0  0  0  0  0  0  0  0  0  0  0  0
   43.8640   30.2130   44.5350 C   0  0  0  0  0  0  0  0  0  0  0  0
   43.0680   29.6310   43.5440 C   0  0  0  0  0  3  0  0  0  0  0  0
   42.6230   28.3430   43.6990 C   0  0  0  0  0  3  0  0  0  0  0  0
   42.9350   27.6330   44.7810 N   0  0  0  0  0  0  0  0  0  0  0  0
   43.7090   28.2190   45.7340 C   0  0  0  0  0  3  0  0  0  0  0  0
   44.1780   29.4960   45.6290 N   0  0  0  0  0  0  0  0  0  0  0  0
  1  2  1  0  0  0  0
  2  3  2  0  0  0  0
  3 22  1  0  0  0  0
  4  3  1  0  0  0  0
  5  4  2  0  0  0  0
  6  5  1  0  0  0  0
  6  1  2  0  0  0  0
  7  5  1  0  0  0  0
  7 11  1  0  0  0  0
  8  9  1  0  0  0  0
  8  7  2  0  0  0  0
  9 10  1  0  0  0  0
 10 11  2  0  0  0  0
 10 12  1  0  0  0  0
 12 20  1  0  0  0  0
 13 12  2  0  0  0  0
 13 14  1  0  0  0  0
 14 15  1  0  0  0  0
 15 16  1  0  0  0  0
 16 17  2  0  0  0  0
 18 17  1  0  0  0  0
 19 18  2  0  0  0  0
 20 15  2  0  0  0  0
 20 19  1  0  0  0  0
 21 14  1  0  0  0  0
 23 22  1  0  0  0  0
 23 24  1  0  0  0  0
 24 29  2  0  0  0  0
 24 25  1  0  0  0  0
 25 26  2  0  0  0  0
 26 27  1  0  0  0  0
 28 30  1  0  0  0  0
 28 27  2  0  0  0  0
 29 28  1  0  0  0  0
 30 35  1  0  0  0  0
 31 32  1  0  0  0  0
 31 30  2  0  0  0  0
 32 33  2  0  0  0  0
 33 34  1  0  0  0  0
 35 34  2  0  0  0  0
M  END
>  <minimizedAffinity>
-7.07419634

$$$$

 OpenBabel03242509563D

 35 40  0  0  0  0  0  0  0  0999 V2000
   38.0490   29.1860   37.3700 C   0  0  0  0  0  3  0  0  0  0  0  0
   37.1560   29.3430   38.4450 C   0  0  0  0  0  3  0  0  0  0  0  0
   37.2870   30.3490   39.3440 C   0  0  0  0  0  0  0  0  0  0  0  0
   38.3140   31.2090   39.1770 N   0  0  0  0  0  0  0  0  0  0  0  0
   39.1750   31.0480   38.1320 C   0  0  0  0  0  0  0  0  0  0  0  0
   39.0510   30.0760   37.2580 N   0  0  0  0  0  0  0  0  0  0  0  0
   40.2300   32.1080   38.1390 C   0  0  0  0  0  0  0  0  0  0  0  0
   41.2780   32.3760   37.1480 C   0  0  0  0  0  3  0  0  0  0  0  0
   42.0660   33.7860   37.9490 S   0  0  0  0  0  0  0  0  0  0  0  0
   40.8980   33.7840   39.4330 C   0  0  0  0  0  0  0  0  0  0  0  0
   40.0420   32.7870   39.2460 N   0  0  0  0  0  0  0  0  0  0  0  0
   41.1100   34.8280   40.4990 C   0  0  0  0  0  0  0  0  0  0  0  0
   40.1670   35.6920   40.9240 C   0  0  0  0  0  3  0  0  0  0  0  0
   40.8390   36.4110   41.8720 N   0  0  0  0  0  0  0  0  0  0  0  0
   42.1240   35.9690   41.9830 C   0  0  0  0  0  0  0  0  0  0  0  0
   43.1500   36.4100   42.8150 C   0  0  0  0  0  3  0  0  0  0  0  0
   44.3850   35.7630   42.7120 C   0  0  0  0  0  3  0  0  0  0  0  0
   44.5440   34.7290   41.8080 C   0  0  0  0  0  3  0  0  0  0  0  0
   43.5240   34.2860   40.9750 C   0  0  0  0  0  3  0  0  0  0  0  0
   42.3250   34.9190   41.0790 C   0  0  0  0  0  0  0  0  0  0  0  0
   40.4320   37.1790   42.4260 H   0  0  0  0  0  0  0  0  0  0  0  0
   36.3460   30.4890   40.4520 C   0  0  0  0  0  2  0  0  0  0  0  0
   35.8950   29.2340   41.1030 C   0  0  0  0  0  2  0  0  0  0  0  0
   37.0350   28.7020   41.9120 C   0  0  0  0  0  0  0  0  0  0  0  0
   36.9330   27.5520   42.6640 C   0  0  0  0  0  3  0  0  0  0  0  0
   37.9050   26.9870   43.4270 C   0  0  0  0  0  3  0  0  0  0  0  0
   39.0930   27.6630   43.4250 N   0  0  0  0  0  0  0  0  0  0  0  0
   39.2290   28.7950   42.7000 C   0  0  0  0  0  0  0  0  0  0  0  0
   38.2410   29.3360   41.9450 N   0  0  0  0  0  0  0  0  0  0  0  0
   40.5210   29.4580   42.7460 C   0  0  0  0  0  0  0  0  0  0  0  0
   40.6650   30.7580   42.2530 C   0  0  0  0  0  3  0  0  0  0  0  0
   41.8890   31.3730   42.3010 C   0  0  0  0  0  3  0  0  0  0  0  0
   42.9510   30.7520   42.8100 N   0  0  0  0  0  0  0  0  0  0  0  0
   42.7910   29.4870   43.2830 C   0  0  0  0  0  3  0  0  0  0  0  0
   41.5950   28.8300   43.2590 N   0  0  0  0  0  0  0  0  0  0  0  0
  1  2  1  0  0  0  0
  2  3  2  0  0  0  0
  3 22  1  0  0  0  0
  4  3  1  0  0  0  0
  5  7  1  0  0  0  0
  5  4  2  0  0  0  0
  6  1  2  0  0  0  0
  6  5  1  0  0  0  0
  7 11  1  0  0  0  0
  8  9  1  0  0  0  0
  8  7  2  0  0  0  0
  9 10  1  0  0  0  0
 10 12  1  0  0  0  0
 11 10  2  0  0  0  0
 12 13  2  0  0  0  0
 12 20  1  0  0  0  0
 13 14  1  0  0  0  0
 14 15  1  0  0  0  0
 14 21  1  0  0  0  0
 15 16  1  0  0  0  0
 17 16  2  0  0  0  0
 18 17  1  0  0  0  0
 19 20  1  0  0  0  0
 19 18  2  0  0  0  0
 20 15  2  0  0  0  0
 22 23  1  0  0  0  0
 23 24  1  0  0  0  0
 24 29  2  0  0  0  0
 24 25  1  0  0  0  0
 25 26  2  0  0  0  0
 27 26  1  0  0  0  0
 28 30  1  0  0  0  0
 28 27  2  0  0  0  0
 29 28  1  0  0  0  0
 30 35  1  0  0  0  0
 31 32  1  0  0  0  0
 31 30  2  0  0  0  0
 32 33  2  0  0  0  0
 33 34  1  0  0  0  0
 35 34  2  0  0  0  0
M  END
>  <minimizedAffinity>
-7.00964308

$$$$

 OpenBabel03242509563D

 35 40  0  0  0  0  0  0  0  0999 V2000
   39.9940   25.0240   43.3850 C   0  0  0  0  0  3  0  0  0  0  0  0
   39.5550   26.3390   43.6200 C   0  0  0  0  0  3  0  0  0  0  0  0
   38.6690   26.9570   42.8020 C   0  0  0  0  0  0  0  0  0  0  0  0
   38.2100   26.2640   41.7370 N   0  0  0  0  0  0  0  0  0  0  0  0
   38.6420   24.9890   41.5170 C   0  0  0  0  0  0  0  0  0  0  0  0
   39.5000   24.3870   42.3090 N   0  0  0  0  0  0  0  0  0  0  0  0
   38.0090   24.4150   40.2900 C   0  0  0  0  0  0  0  0  0  0  0  0
   37.6100   23.0290   40.0190 C   0  0  0  0  0  3  0  0  0  0  0  0
   36.9590   23.2480   38.3510 S   0  0  0  0  0  0  0  0  0  0  0  0
   37.3180   25.1020   38.2950 C   0  0  0  0  0  0  0  0  0  0  0  0
   37.8690   25.4200   39.4600 N   0  0  0  0  0  0  0  0  0  0  0  0
   36.9500   25.8540   37.0420 C   0  0  0  0  0  0  0  0  0  0  0  0
   37.4090   25.5600   35.8090 C   0  0  0  0  0  3  0  0  0  0  0  0
   36.7970   26.5090   35.0390 N   0  0  0  0  0  0  0  0  0  0  0  0
   36.0140   27.3150   35.8100 C   0  0  0  0  0  0  0  0  0  0  0  0
   35.2200   28.4000   35.4450 C   0  0  0  0  0  3  0  0  0  0  0  0
   34.5140   29.0520   36.4610 C   0  0  0  0  0  3  0  0  0  0  0  0
   34.6270   28.6100   37.7660 C   0  0  0  0  0  3  0  0  0  0  0  0
   35.4180   27.5280   38.1360 C   0  0  0  0  0  3  0  0  0  0  0  0
   36.1020   26.8980   37.1430 C   0  0  0  0  0  0  0  0  0  0  0  0
   36.9110   26.6010   34.0190 H   0  0  0  0  0  0  0  0  0  0  0  0
   38.2310   28.3240   43.0690 C   0  0  0  0  0  2  0  0  0  0  0  0
   39.2300   29.3980   42.8430 C   0  0  0  0  0  2  0  0  0  0  0  0
   38.6120   30.4150   41.9370 C   0  0  0  0  0  0  0  0  0  0  0  0
   37.3430   30.2690   41.4200 C   0  0  0  0  0  3  0  0  0  0  0  0
   36.6950   31.1320   40.5940 C   0  0  0  0  0  3  0  0  0  0  0  0
   37.4110   32.2480   40.2630 N   0  0  0  0  0  0  0  0  0  0  0  0
   38.6580   32.4240   40.7520 C   0  0  0  0  0  0  0  0  0  0  0  0
   39.2820   31.5460   41.5750 N   0  0  0  0  0  0  0  0  0  0  0  0
   39.3580   33.6350   40.3570 C   0  0  0  0  0  0  0  0  0  0  0  0
   38.7350   34.8800   40.4760 C   0  0  0  0  0  3  0  0  0  0  0  0
   39.4050   36.0160   40.0990 C   0  0  0  0  0  3  0  0  0  0  0  0
   40.6440   35.9540   39.6170 N   0  0  0  0  0  0  0  0  0  0  0  0
   41.2330   34.7330   39.5070 C   0  0  0  0  0  3  0  0  0  0  0  0
   40.6100   33.5730   39.8680 N   0  0  0  0  0  0  0  0  0  0  0  0
  1  2  1  0  0  0  0
  3 22  1  0  0  0  0
  3  2  2  0  0  0  0
  4  3  1  0  0  0  0
  5  4  2  0  0  0  0
  5  6  1  0  0  0  0
  6  1  2  0  0  0  0
  7  5  1  0  0  0  0
  8  7  2  0  0  0  0
  9  8  1  0  0  0  0
 10  9  1  0  0  0  0
 10 11  2  0  0  0  0
 11  7  1  0  0  0  0
 12 20  1  0  0  0  0
 12 10  1  0  0  0  0
 13 12  2  0  0  0  0
 14 13  1  0  0  0  0
 14 15  1  0  0  0  0
 15 20  1  0  0  0  0
 16 15  2  0  0  0  0
 16 17  1  0  0  0  0
 17 18  2  0  0  0  0
 18 19  1  0  0  0  0
 20 19  2  0  0  0  0
 21 14  1  0  0  0  0
 23 22  1  0  0  0  0
 24 23  1  0  0  0  0
 25 24  2  0  0  0  0
 26 25  1  0  0  0  0
 27 26  2  0  0  0  0
 27 28  1  0  0  0  0
 28 29  2  0  0  0  0
 29 24  1  0  0  0  0
 30 31  1  0  0  0  0
 30 28  1  0  0  0  0
 32 31  2  0  0  0  0
 33 32  1  0  0  0  0
 34 33  2  0  0  0  0
 34 35  1  0  0  0  0
 35 30  2  0  0  0  0
M  END
>  <minimizedAffinity>
-6.95438862

$$$$

 OpenBabel03242509563D

 35 40  0  0  0  0  0  0  0  0999 V2000
   35.4010   29.6840   40.5690 C   0  0  0  0  0  3  0  0  0  0  0  0
   36.3210   30.7470   40.5570 C   0  0  0  0  0  3  0  0  0  0  0  0
   37.6220   30.5730   40.8910 C   0  0  0  0  0  0  0  0  0  0  0  0
   38.0190   29.3310   41.2420 N   0  0  0  0  0  0  0  0  0  0  0  0
   37.1200   28.3060   41.2520 C   0  0  0  0  0  0  0  0  0  0  0  0
   35.8580   28.4710   40.9270 N   0  0  0  0  0  0  0  0  0  0  0  0
   37.7710   27.0260   41.6680 C   0  0  0  0  0  0  0  0  0  0  0  0
   37.1480   25.7550   42.0570 C   0  0  0  0  0  3  0  0  0  0  0  0
   38.6430   24.8030   42.3900 S   0  0  0  0  0  0  0  0  0  0  0  0
   39.8190   26.2200   41.9670 C   0  0  0  0  0  0  0  0  0  0  0  0
   39.0630   27.2550   41.6230 N   0  0  0  0  0  0  0  0  0  0  0  0
   41.3000   25.9650   42.0790 C   0  0  0  0  0  0  0  0  0  0  0  0
   42.0490   25.3700   41.1300 C   0  0  0  0  0  3  0  0  0  0  0  0
   43.2920   25.3750   41.6980 N   0  0  0  0  0  0  0  0  0  0  0  0
   43.2510   25.9550   42.9310 C   0  0  0  0  0  0  0  0  0  0  0  0
   44.2740   26.1680   43.8500 C   0  0  0  0  0  3  0  0  0  0  0  0
   43.9380   26.7960   45.0540 C   0  0  0  0  0  3  0  0  0  0  0  0
   42.6280   27.1750   45.2860 C   0  0  0  0  0  3  0  0  0  0  0  0
   41.6030   26.9640   44.3720 C   0  0  0  0  0  3  0  0  0  0  0  0
   41.9360   26.3530   43.2030 C   0  0  0  0  0  0  0  0  0  0  0  0
   44.1420   24.9930   41.2560 H   0  0  0  0  0  0  0  0  0  0  0  0
   38.5570   31.6950   40.8700 C   0  0  0  0  0  2  0  0  0  0  0  0
   38.0680   32.9560   40.2590 C   0  0  0  0  0  2  0  0  0  0  0  0
   39.1690   33.9640   40.3450 C   0  0  0  0  0  0  0  0  0  0  0  0
   38.9400   35.3190   40.2400 C   0  0  0  0  0  3  0  0  0  0  0  0
   39.8660   36.3110   40.3060 C   0  0  0  0  0  3  0  0  0  0  0  0
   41.1490   35.8780   40.4940 N   0  0  0  0  0  0  0  0  0  0  0  0
   41.4110   34.5570   40.6010 C   0  0  0  0  0  0  0  0  0  0  0  0
   40.4660   33.5870   40.5320 N   0  0  0  0  0  0  0  0  0  0  0  0
   42.7980   34.1720   40.8000 C   0  0  0  0  0  0  0  0  0  0  0  0
   43.3200   33.0520   40.1480 C   0  0  0  0  0  3  0  0  0  0  0  0
   44.6300   32.6980   40.3450 C   0  0  0  0  0  3  0  0  0  0  0  0
   45.4190   33.4050   41.1510 N   0  0  0  0  0  0  0  0  0  0  0  0
   44.8920   34.4910   41.7770 C   0  0  0  0  0  3  0  0  0  0  0  0
   43.5950   34.8860   41.6160 N   0  0  0  0  0  0  0  0  0  0  0  0
  1  6  1  0  0  0  0
  2  1  2  0  0  0  0
  2  3  1  0  0  0  0
  3  4  2  0  0  0  0
  4  5  1  0  0  0  0
  5  7  1  0  0  0  0
  6  5  2  0  0  0  0
  7  8  2  0  0  0  0
  8  9  1  0  0  0  0
 10 12  1  0  0  0  0
 10  9  1  0  0  0  0
 11  7  1  0  0  0  0
 11 10  2  0  0  0  0
 12 20  1  0  0  0  0
 13 14  1  0  0  0  0
 13 12  2  0  0  0  0
 14 15  1  0  0  0  0
 15 20  2  0  0  0  0
 15 16  1  0  0  0  0
 16 17  2  0  0  0  0
 17 18  1  0  0  0  0
 19 18  2  0  0  0  0
 20 19  1  0  0  0  0
 21 14  1  0  0  0  0
 22  3  1  0  0  0  0
 23 24  1  0  0  0  0
 23 22  1  0  0  0  0
 24 29  1  0  0  0  0
 25 26  1  0  0  0  0
 25 24  2  0  0  0  0
 26 27  2  0  0  0  0
 27 28  1  0  0  0  0
 28 30  1  0  0  0  0
 29 28  2  0  0  0  0
 30 35  1  0  0  0  0
 31 32  1  0  0  0  0
 31 30  2  0  0  0  0
 32 33  2  0  0  0  0
 33 34  1  0  0  0  0
 35 34  2  0  0  0  0
M  END
>  <minimizedAffinity>
-6.91582489

$$$$

 OpenBabel03242509563D

 35 40  0  0  0  0  0  0  0  0999 V2000
   36.9640   30.2010   36.8210 C   0  0  0  0  0  3  0  0  0  0  0  0
   36.4150   29.3390   37.7860 C   0  0  0  0  0  3  0  0  0  0  0  0
   36.5470   29.5730   39.1150 C   0  0  0  0  0  0  0  0  0  0  0  0
   37.2310   30.6740   39.4930 N   0  0  0  0  0  0  0  0  0  0  0  0
   37.7600   31.5040   38.5490 C   0  0  0  0  0  0  0  0  0  0  0  0
   37.6340   31.2810   37.2610 N   0  0  0  0  0  0  0  0  0  0  0  0
   38.4720   32.6550   39.1860 C   0  0  0  0  0  0  0  0  0  0  0  0
   37.9500   33.6630   40.1170 C   0  0  0  0  0  3  0  0  0  0  0  0
   39.4550   34.6280   40.3540 S   0  0  0  0  0  0  0  0  0  0  0  0
   40.5010   33.5560   39.2030 C   0  0  0  0  0  0  0  0  0  0  0  0
   39.7050   32.5990   38.7420 N   0  0  0  0  0  0  0  0  0  0  0  0
   41.9480   33.9300   39.0120 C   0  0  0  0  0  0  0  0  0  0  0  0
   42.4620   34.4530   37.8820 C   0  0  0  0  0  3  0  0  0  0  0  0
   43.7800   34.6100   38.2080 N   0  0  0  0  0  0  0  0  0  0  0  0
   44.0080   34.1890   39.4840 C   0  0  0  0  0  0  0  0  0  0  0  0
   45.1910   34.1680   40.2170 C   0  0  0  0  0  3  0  0  0  0  0  0
   45.1300   33.6750   41.5250 C   0  0  0  0  0  3  0  0  0  0  0  0
   43.9220   33.2340   42.0350 C   0  0  0  0  0  3  0  0  0  0  0  0
   42.7380   33.2530   41.3060 C   0  0  0  0  0  3  0  0  0  0  0  0
   42.8040   33.7330   40.0360 C   0  0  0  0  0  0  0  0  0  0  0  0
   44.5000   34.9920   37.5770 H   0  0  0  0  0  0  0  0  0  0  0  0
   35.9670   28.6610   40.0960 C   0  0  0  0  0  2  0  0  0  0  0  0
   36.3100   28.9100   41.5180 C   0  0  0  0  0  2  0  0  0  0  0  0
   37.2940   27.8660   41.9410 C   0  0  0  0  0  0  0  0  0  0  0  0
   37.0220   26.5170   41.8580 C   0  0  0  0  0  3  0  0  0  0  0  0
   37.8440   25.4950   42.2120 C   0  0  0  0  0  3  0  0  0  0  0  0
   39.0590   25.8870   42.7010 N   0  0  0  0  0  0  0  0  0  0  0  0
   39.3600   27.2010   42.7970 C   0  0  0  0  0  0  0  0  0  0  0  0
   38.5190   28.2010   42.4350 N   0  0  0  0  0  0  0  0  0  0  0  0
   40.6700   27.5410   43.3260 C   0  0  0  0  0  0  0  0  0  0  0  0
   41.2920   26.7080   44.2590 C   0  0  0  0  0  3  0  0  0  0  0  0
   42.5280   27.0400   44.7520 C   0  0  0  0  0  3  0  0  0  0  0  0
   43.1500   28.1480   44.3560 N   0  0  0  0  0  0  0  0  0  0  0  0
   42.5280   28.9470   43.4470 C   0  0  0  0  0  3  0  0  0  0  0  0
   41.2990   28.6620   42.9260 N   0  0  0  0  0  0  0  0  0  0  0  0
  1  6  2  0  0  0  0
  1  2  1  0  0  0  0
  2  3  2  0  0  0  0
  3  4  1  0  0  0  0
  3 22  1  0  0  0  0
  5  7  1  0  0  0  0
  5  4  2  0  0  0  0
  6  5  1  0  0  0  0
  7  8  2  0  0  0  0
  8  9  1  0  0  0  0
 10  9  1  0  0  0  0
 11  7  1  0  0  0  0
 11 10  2  0  0  0  0
 12 10  1  0  0  0  0
 12 20  1  0  0  0  0
 13 14  1  0  0  0  0
 13 12  2  0  0  0  0
 14 15  1  0  0  0  0
 15 20  2  0  0  0  0
 15 16  1  0  0  0  0
 16 17  2  0  0  0  0
 17 18  1  0  0  0  0
 19 18  2  0  0  0  0
 20 19  1  0  0  0  0
 21 14  1  0  0  0  0
 22 23  1  0  0  0  0
 23 24  1  0  0  0  0
 24 29  1  0  0  0  0
 25 24  2  0  0  0  0
 25 26  1  0  0  0  0
 26 27  2  0  0  0  0
 27 28  1  0  0  0  0
 28 30  1  0  0  0  0
 29 28  2  0  0  0  0
 30 31  1  0  0  0  0
 31 32  2  0  0  0  0
 33 32  1  0  0  0  0
 34 33  2  0  0  0  0
 35 30  2  0  0  0  0
 35 34  1  0  0  0  0
M  END
>  <minimizedAffinity>
-6.90336466

$$$$

 OpenBabel03242509563D

 35 40  0  0  0  0  0  0  0  0999 V2000
   38.2650   27.3710   36.4940 C   0  0  0  0  0  3  0  0  0  0  0  0
   37.3930   27.6990   37.5470 C   0  0  0  0  0  3  0  0  0  0  0  0
   37.7160   28.6240   38.4830 C   0  0  0  0  0  0  0  0  0  0  0  0
   38.9160   29.2330   38.3760 N   0  0  0  0  0  0  0  0  0  0  0  0
   39.7560   28.9080   37.3510 C   0  0  0  0  0  0  0  0  0  0  0  0
   39.4460   28.0130   36.4420 N   0  0  0  0  0  0  0  0  0  0  0  0
   41.0220   29.6990   37.4260 C   0  0  0  0  0  0  0  0  0  0  0  0
   42.4080   29.2440   37.2590 C   0  0  0  0  0  3  0  0  0  0  0  0
   43.2510   30.8190   37.5090 S   0  0  0  0  0  0  0  0  0  0  0  0
   41.6580   31.7960   37.7860 C   0  0  0  0  0  0  0  0  0  0  0  0
   40.6550   30.9330   37.6800 N   0  0  0  0  0  0  0  0  0  0  0  0
   41.7750   33.2740   38.0590 C   0  0  0  0  0  0  0  0  0  0  0  0
   42.6690   34.0930   37.4700 C   0  0  0  0  0  3  0  0  0  0  0  0
   42.3760   35.2990   38.0410 N   0  0  0  0  0  0  0  0  0  0  0  0
   41.3470   35.1700   38.9260 C   0  0  0  0  0  0  0  0  0  0  0  0
   40.7300   36.1310   39.7230 C   0  0  0  0  0  3  0  0  0  0  0  0
   39.6830   35.7080   40.5480 C   0  0  0  0  0  3  0  0  0  0  0  0
   39.3040   34.3780   40.5460 C   0  0  0  0  0  3  0  0  0  0  0  0
   39.9170   33.4150   39.7530 C   0  0  0  0  0  3  0  0  0  0  0  0
   40.9340   33.8320   38.9530 C   0  0  0  0  0  0  0  0  0  0  0  0
   42.8640   36.1830   37.8330 H   0  0  0  0  0  0  0  0  0  0  0  0
   36.7910   28.9460   39.5670 C   0  0  0  0  0  2  0  0  0  0  0  0
   36.2560   27.8020   40.3450 C   0  0  0  0  0  2  0  0  0  0  0  0
   37.1170   27.6280   41.5560 C   0  0  0  0  0  0  0  0  0  0  0  0
   36.6850   27.9550   42.8230 C   0  0  0  0  0  3  0  0  0  0  0  0
   37.3860   27.8340   43.9800 C   0  0  0  0  0  3  0  0  0  0  0  0
   38.6490   27.3340   43.8300 N   0  0  0  0  0  0  0  0  0  0  0  0
   39.1060   27.0030   42.6030 C   0  0  0  0  0  0  0  0  0  0  0  0
   38.3840   27.1340   41.4620 N   0  0  0  0  0  0  0  0  0  0  0  0
   40.4590   26.4760   42.5210 C   0  0  0  0  0  0  0  0  0  0  0  0
   41.1230   26.0580   43.6770 C   0  0  0  0  0  3  0  0  0  0  0  0
   42.3990   25.5650   43.5880 C   0  0  0  0  0  3  0  0  0  0  0  0
   43.0220   25.4770   42.4140 N   0  0  0  0  0  0  0  0  0  0  0  0
   42.3580   25.8900   41.3010 C   0  0  0  0  0  3  0  0  0  0  0  0
   41.0880   26.3890   41.3350 N   0  0  0  0  0  0  0  0  0  0  0  0
  1  2  1  0  0  0  0
  2  3  2  0  0  0  0
  3 22  1  0  0  0  0
  4  3  1  0  0  0  0
  5  7  1  0  0  0  0
  5  4  2  0  0  0  0
  6  1  2  0  0  0  0
  6  5  1  0  0  0  0
  7 11  1  0  0  0  0
  8  7  2  0  0  0  0
  8  9  1  0  0  0  0
  9 10  1  0  0  0  0
 10 12  1  0  0  0  0
 11 10  2  0  0  0  0
 12 20  1  0  0  0  0
 13 14  1  0  0  0  0
 13 12  2  0  0  0  0
 14 15  1  0  0  0  0
 15 20  2  0  0  0  0
 15 16  1  0  0  0  0
 16 17  2  0  0  0  0
 18 17  1  0  0  0  0
 19 18  2  0  0  0  0
 20 19  1  0  0  0  0
 21 14  1  0  0  0  0
 22 23  1  0  0  0  0
 23 24  1  0  0  0  0
 24 25  1  0  0  0  0
 25 26  2  0  0  0  0
 27 26  1  0  0  0  0
 28 27  2  0  0  0  0
 29 24  2  0  0  0  0
 29 28  1  0  0  0  0
 30 28  1  0  0  0  0
 30 31  1  0  0  0  0
 32 31  2  0  0  0  0
 33 32  1  0  0  0  0
 34 35  1  0  0  0  0
 34 33  2  0  0  0  0
 35 30  2  0  0  0  0
M  END
>  <minimizedAffinity>
-6.77111101

$$$$

 OpenBabel03242509563D

 35 40  0  0  0  0  0  0  0  0999 V2000
   35.7090   27.0370   37.0120 C   0  0  0  0  0  3  0  0  0  0  0  0
   35.7140   28.3920   37.3870 C   0  0  0  0  0  3  0  0  0  0  0  0
   36.1340   28.7960   38.6110 C   0  0  0  0  0  0  0  0  0  0  0  0
   36.5540   27.8470   39.4750 N   0  0  0  0  0  0  0  0  0  0  0  0
   36.5450   26.5350   39.1020 C   0  0  0  0  0  0  0  0  0  0  0  0
   36.1390   26.1400   37.9170 N   0  0  0  0  0  0  0  0  0  0  0  0
   37.0480   25.6620   40.2070 C   0  0  0  0  0  0  0  0  0  0  0  0
   36.5720   24.3390   40.6300 C   0  0  0  0  0  3  0  0  0  0  0  0
   37.7210   24.0520   41.9910 S   0  0  0  0  0  0  0  0  0  0  0  0
   38.6200   25.6990   41.7740 C   0  0  0  0  0  0  0  0  0  0  0  0
   38.0390   26.3220   40.7580 N   0  0  0  0  0  0  0  0  0  0  0  0
   39.7570   26.0100   42.7140 C   0  0  0  0  0  0  0  0  0  0  0  0
   39.6080   26.4470   43.9800 C   0  0  0  0  0  3  0  0  0  0  0  0
   40.9030   26.5770   44.3960 N   0  0  0  0  0  0  0  0  0  0  0  0
   41.7620   26.2230   43.3980 C   0  0  0  0  0  0  0  0  0  0  0  0
   43.1540   26.2040   43.3850 C   0  0  0  0  0  3  0  0  0  0  0  0
   43.7810   25.7910   42.2050 C   0  0  0  0  0  3  0  0  0  0  0  0
   43.0150   25.4230   41.1140 C   0  0  0  0  0  3  0  0  0  0  0  0
   41.6250   25.4410   41.1220 C   0  0  0  0  0  3  0  0  0  0  0  0
   41.0210   25.8440   42.2720 C   0  0  0  0  0  0  0  0  0  0  0  0
   41.1900   26.8960   45.3320 H   0  0  0  0  0  0  0  0  0  0  0  0
   36.1290   30.2100   38.9740 C   0  0  0  0  0  2  0  0  0  0  0  0
   36.0460   30.5240   40.4220 C   0  0  0  0  0  2  0  0  0  0  0  0
   37.3820   31.0360   40.8580 C   0  0  0  0  0  0  0  0  0  0  0  0
   38.2080   30.3230   41.6980 C   0  0  0  0  0  3  0  0  0  0  0  0
   39.4340   30.6970   42.1490 C   0  0  0  0  0  3  0  0  0  0  0  0
   39.8550   31.9180   41.7000 N   0  0  0  0  0  0  0  0  0  0  0  0
   39.0710   32.6450   40.8750 C   0  0  0  0  0  0  0  0  0  0  0  0
   37.8500   32.2460   40.4400 N   0  0  0  0  0  0  0  0  0  0  0  0
   39.5860   33.9330   40.4390 C   0  0  0  0  0  0  0  0  0  0  0  0
   40.8620   34.0280   39.8770 C   0  0  0  0  0  3  0  0  0  0  0  0
   41.3370   35.2490   39.4700 C   0  0  0  0  0  3  0  0  0  0  0  0
   40.6020   36.3510   39.6030 N   0  0  0  0  0  0  0  0  0  0  0  0
   39.3630   36.2370   40.1530 C   0  0  0  0  0  3  0  0  0  0  0  0
   38.8440   35.0470   40.5730 N   0  0  0  0  0  0  0  0  0  0  0  0
  1  2  2  0  0  0  0
  1  6  1  0  0  0  0
  2  3  1  0  0  0  0
  3 22  1  0  0  0  0
  3  4  2  0  0  0  0
  5  4  1  0  0  0  0
  5  7  1  0  0  0  0
  6  5  2  0  0  0  0
  7  8  2  0  0  0  0
  7 11  1  0  0  0  0
  8  9  1  0  0  0  0
 10  9  1  0  0  0  0
 10 12  1  0  0  0  0
 11 10  2  0  0  0  0
 12 13  2  0  0  0  0
 13 14  1  0  0  0  0
 14 21  1  0  0  0  0
 15 14  1  0  0  0  0
 16 15  1  0  0  0  0
 17 16  2  0  0  0  0
 18 19  2  0  0  0  0
 18 17  1  0  0  0  0
 19 20  1  0  0  0  0
 20 12  1  0  0  0  0
 20 15  2  0  0  0  0
 22 23  1  0  0  0  0
 23 24  1  0  0  0  0
 24 25  1  0  0  0  0
 25 26  2  0  0  0  0
 27 26  1  0  0  0  0
 28 27  2  0  0  0  0
 29 24  2  0  0  0  0
 29 28  1  0  0  0  0
 30 35  1  0  0  0  0
 30 28  1  0  0  0  0
 31 30  2  0  0  0  0
 32 33  2  0  0  0  0
 32 31  1  0  0  0  0
 33 34  1  0  0  0  0
 34 35  2  0  0  0  0
M  END
>  <minimizedAffinity>
-6.76811123

$$$$
