
 OpenBabel03242509573D

 34 39  0  0  0  0  0  0  0  0999 V2000
   36.6140   29.5730   37.3340 C   0  0  0  0  0  3  0  0  0  0  0  0
   36.2070   29.2210   38.6340 C   0  0  0  0  0  3  0  0  0  0  0  0
   36.8470   29.6770   39.7400 C   0  0  0  0  0  0  0  0  0  0  0  0
   37.9060   30.4950   39.5730 N   0  0  0  0  0  0  0  0  0  0  0  0
   38.2950   30.8320   38.2920 C   0  0  0  0  0  0  0  0  0  0  0  0
   37.6830   30.3930   37.2230 N   0  0  0  0  0  0  0  0  0  0  0  0
   39.4840   31.7410   38.3310 C   0  0  0  0  0  0  0  0  0  0  0  0
   40.7400   31.6210   37.5780 C   0  0  0  0  0  3  0  0  0  0  0  0
   41.5770   33.1000   38.2230 S   0  0  0  0  0  0  0  0  0  0  0  0
   40.1370   33.6010   39.3540 C   0  0  0  0  0  0  0  0  0  0  0  0
   39.1850   32.6830   39.1820 N   0  0  0  0  0  0  0  0  0  0  0  0
   40.3830   34.7900   40.0990 N   0  0  0  0  0  0  0  0  0  0  0  0
   39.6220   35.8940   40.1660 C   0  0  0  0  0  3  0  0  0  0  0  0
   40.2180   36.7860   40.9850 N   0  0  0  0  0  0  0  0  0  0  0  0
   41.3530   36.2360   41.4330 C   0  0  0  0  0  0  0  0  0  0  0  0
   42.3660   36.6420   42.2750 C   0  0  0  0  0  3  0  0  0  0  0  0
   43.4090   35.8620   42.5490 N   0  0  0  0  0  0  0  0  0  0  0  0
   43.5360   34.6160   42.0120 C   0  0  0  0  0  3  0  0  0  0  0  0
   42.5500   34.1960   41.1780 N   0  0  0  0  0  0  0  0  0  0  0  0
   41.4760   34.9630   40.8780 C   0  0  0  0  0  0  0  0  0  0  0  0
   36.3970   29.2890   41.0730 C   0  0  0  0  0  2  0  0  0  0  0  0
   37.3830   29.4220   42.1740 C   0  0  0  0  0  2  0  0  0  0  0  0
   37.9630   28.0730   42.4420 C   0  0  0  0  0  0  0  0  0  0  0  0
   38.8730   27.8360   43.4490 C   0  0  0  0  0  3  0  0  0  0  0  0
   39.4530   26.6490   43.7700 C   0  0  0  0  0  3  0  0  0  0  0  0
   39.0640   25.6040   42.9840 N   0  0  0  0  0  0  0  0  0  0  0  0
   38.1750   25.7900   41.9870 C   0  0  0  0  0  0  0  0  0  0  0  0
   37.6110   26.9880   41.6880 N   0  0  0  0  0  0  0  0  0  0  0  0
   37.8130   24.6270   41.1960 C   0  0  0  0  0  0  0  0  0  0  0  0
   36.6370   24.6370   40.4290 C   0  0  0  0  0  3  0  0  0  0  0  0
   36.2990   23.5380   39.6840 C   0  0  0  0  0  3  0  0  0  0  0  0
   37.0750   22.4470   39.6770 N   0  0  0  0  0  0  0  0  0  0  0  0
   38.1960   22.4610   40.4200 C   0  0  0  0  0  3  0  0  0  0  0  0
   38.5810   23.5290   41.1800 N   0  0  0  0  0  0  0  0  0  0  0  0
  1  2  1  0  0  0  0
  2  3  2  0  0  0  0
  3 21  1  0  0  0  0
  4  3  1  0  0  0  0
  5  7  1  0  0  0  0
  5  4  2  0  0  0  0
  6  1  2  0  0  0  0
  6  5  1  0  0  0  0
  7 11  1  0  0  0  0
  8  9  1  0  0  0  0
  8  7  2  0  0  0  0
  9 10  1  0  0  0  0
 10 12  1  0  0  0  0
 11 10  2  0  0  0  0
 12 13  1  0  0  0  0
 12 20  1  0  0  0  0
 13 14  2  0  0  0  0
 14 15  1  0  0  0  0
 15 16  1  0  0  0  0
 16 17  2  0  0  0  0
 18 17  1  0  0  0  0
 19 18  2  0  0  0  0
 20 19  1  0  0  0  0
 20 15  2  0  0  0  0
 21 22  1  0  0  0  0
 22 23  1  0  0  0  0
 23 24  1  0  0  0  0
 24 25  2  0  0  0  0
 26 25  1  0  0  0  0
 27 26  2  0  0  0  0
 28 27  1  0  0  0  0
 28 23  2  0  0  0  0
 29 27  1  0  0  0  0
 30 29  2  0  0  0  0
 31 30  1  0  0  0  0
 32 31  2  0  0  0  0
 32 33  1  0  0  0  0
 33 34  2  0  0  0  0
 34 29  1  0  0  0  0
M  END
>  <minimizedAffinity>
-7.58484268

$$$$

 OpenBabel03242509573D

 34 39  0  0  0  0  0  0  0  0999 V2000
   37.8740   28.9340   37.0970 C   0  0  0  0  0  3  0  0  0  0  0  0
   36.9060   29.1040   38.1020 C   0  0  0  0  0  3  0  0  0  0  0  0
   36.9970   30.0840   39.0360 C   0  0  0  0  0  0  0  0  0  0  0  0
   38.0570   30.9160   38.9870 N   0  0  0  0  0  0  0  0  0  0  0  0
   39.0000   30.7390   37.9950 C   0  0  0  0  0  0  0  0  0  0  0  0
   38.9170   29.7940   37.0940 N   0  0  0  0  0  0  0  0  0  0  0  0
   40.0870   31.7610   38.1210 C   0  0  0  0  0  0  0  0  0  0  0  0
   41.3830   31.7950   37.4290 C   0  0  0  0  0  3  0  0  0  0  0  0
   42.0330   33.3260   38.1600 S   0  0  0  0  0  0  0  0  0  0  0  0
   40.4970   33.6400   39.2310 C   0  0  0  0  0  0  0  0  0  0  0  0
   39.6530   32.6370   38.9830 N   0  0  0  0  0  0  0  0  0  0  0  0
   40.5840   34.8210   40.0230 N   0  0  0  0  0  0  0  0  0  0  0  0
   39.7120   35.8400   40.0840 C   0  0  0  0  0  3  0  0  0  0  0  0
   40.1750   36.7580   40.9590 N   0  0  0  0  0  0  0  0  0  0  0  0
   41.3380   36.3100   41.4470 C   0  0  0  0  0  0  0  0  0  0  0  0
   42.2640   36.7860   42.3500 C   0  0  0  0  0  3  0  0  0  0  0  0
   43.3670   36.1060   42.6540 N   0  0  0  0  0  0  0  0  0  0  0  0
   43.6460   34.8980   42.0860 C   0  0  0  0  0  3  0  0  0  0  0  0
   42.7480   34.4110   41.1920 N   0  0  0  0  0  0  0  0  0  0  0  0
   41.6170   35.0760   40.8610 C   0  0  0  0  0  0  0  0  0  0  0  0
   35.9730   30.2270   40.0660 C   0  0  0  0  0  2  0  0  0  0  0  0
   36.4470   30.5170   41.4410 C   0  0  0  0  0  2  0  0  0  0  0  0
   37.0950   29.2840   41.9770 C   0  0  0  0  0  0  0  0  0  0  0  0
   36.4120   28.1040   42.1750 C   0  0  0  0  0  3  0  0  0  0  0  0
   36.9120   26.9340   42.6550 C   0  0  0  0  0  3  0  0  0  0  0  0
   38.2400   26.9760   42.9630 N   0  0  0  0  0  0  0  0  0  0  0  0
   38.9480   28.1110   42.7850 C   0  0  0  0  0  0  0  0  0  0  0  0
   38.4230   29.2660   42.3040 N   0  0  0  0  0  0  0  0  0  0  0  0
   40.3570   28.0730   43.1370 C   0  0  0  0  0  0  0  0  0  0  0  0
   41.2120   29.1100   42.7280 C   0  0  0  0  0  3  0  0  0  0  0  0
   42.5400   29.0710   43.0620 C   0  0  0  0  0  3  0  0  0  0  0  0
   43.0400   28.0550   43.7750 N   0  0  0  0  0  0  0  0  0  0  0  0
   42.2030   27.0740   44.1560 C   0  0  0  0  0  3  0  0  0  0  0  0
   40.8700   27.0620   43.8510 N   0  0  0  0  0  0  0  0  0  0  0  0
  1  2  1  0  0  0  0
  2  3  2  0  0  0  0
  3 21  1  0  0  0  0
  4  3  1  0  0  0  0
  5  7  1  0  0  0  0
  5  4  2  0  0  0  0
  6  1  2  0  0  0  0
  6  5  1  0  0  0  0
  7 11  1  0  0  0  0
  8  7  2  0  0  0  0
  8  9  1  0  0  0  0
  9 10  1  0  0  0  0
 10 12  1  0  0  0  0
 11 10  2  0  0  0  0
 12 13  1  0  0  0  0
 12 20  1  0  0  0  0
 13 14  2  0  0  0  0
 14 15  1  0  0  0  0
 15 16  1  0  0  0  0
 16 17  2  0  0  0  0
 18 17  1  0  0  0  0
 19 18  2  0  0  0  0
 20 19  1  0  0  0  0
 20 15  2  0  0  0  0
 21 22  1  0  0  0  0
 22 23  1  0  0  0  0
 23 24  2  0  0  0  0
 23 28  1  0  0  0  0
 24 25  1  0  0  0  0
 25 26  2  0  0  0  0
 27 26  1  0  0  0  0
 27 29  1  0  0  0  0
 28 27  2  0  0  0  0
 29 34  1  0  0  0  0
 30 31  1  0  0  0  0
 30 29  2  0  0  0  0
 31 32  2  0  0  0  0
 32 33  1  0  0  0  0
 34 33  2  0  0  0  0
M  END
>  <minimizedAffinity>
-7.4104147

$$$$

 OpenBabel03242509573D

 34 39  0  0  0  0  0  0  0  0999 V2000
   35.5990   29.2370   39.1000 C   0  0  0  0  0  3  0  0  0  0  0  0
   35.6600   28.6810   40.3900 C   0  0  0  0  0  3  0  0  0  0  0  0
   36.6870   28.9360   41.2390 C   0  0  0  0  0  0  0  0  0  0  0  0
   37.6760   29.7510   40.8190 N   0  0  0  0  0  0  0  0  0  0  0  0
   37.6040   30.2890   39.5500 C   0  0  0  0  0  0  0  0  0  0  0  0
   36.6170   30.0450   38.7280 N   0  0  0  0  0  0  0  0  0  0  0  0
   38.7940   31.1580   39.2840 C   0  0  0  0  0  0  0  0  0  0  0  0
   39.9810   30.8460   38.4770 C   0  0  0  0  0  3  0  0  0  0  0  0
   40.8730   32.4140   38.7010 S   0  0  0  0  0  0  0  0  0  0  0  0
   39.5350   33.1870   39.8040 C   0  0  0  0  0  0  0  0  0  0  0  0
   38.5700   32.2730   39.9220 N   0  0  0  0  0  0  0  0  0  0  0  0
   39.8460   34.5070   40.2390 N   0  0  0  0  0  0  0  0  0  0  0  0
   39.0960   35.6140   40.1170 C   0  0  0  0  0  3  0  0  0  0  0  0
   39.7610   36.6540   40.6620 N   0  0  0  0  0  0  0  0  0  0  0  0
   40.9290   36.1940   41.1280 C   0  0  0  0  0  0  0  0  0  0  0  0
   42.0110   36.7570   41.7700 C   0  0  0  0  0  3  0  0  0  0  0  0
   43.0720   36.0370   42.1270 N   0  0  0  0  0  0  0  0  0  0  0  0
   43.1500   34.6990   41.8760 C   0  0  0  0  0  3  0  0  0  0  0  0
   42.0960   34.1240   41.2420 N   0  0  0  0  0  0  0  0  0  0  0  0
   41.0020   34.8270   40.8660 C   0  0  0  0  0  0  0  0  0  0  0  0
   36.7170   28.3390   42.5700 C   0  0  0  0  0  2  0  0  0  0  0  0
   36.7030   26.8570   42.6360 C   0  0  0  0  0  2  0  0  0  0  0  0
   38.1120   26.3750   42.5250 C   0  0  0  0  0  0  0  0  0  0  0  0
   38.4710   25.2780   41.7730 C   0  0  0  0  0  3  0  0  0  0  0  0
   39.7200   24.7660   41.6100 C   0  0  0  0  0  3  0  0  0  0  0  0
   40.6960   25.4420   42.2820 N   0  0  0  0  0  0  0  0  0  0  0  0
   40.3890   26.5220   43.0300 C   0  0  0  0  0  0  0  0  0  0  0  0
   39.1320   27.0120   43.1760 N   0  0  0  0  0  0  0  0  0  0  0  0
   41.4850   27.1860   43.7140 C   0  0  0  0  0  0  0  0  0  0  0  0
   41.9900   28.4000   43.2200 C   0  0  0  0  0  3  0  0  0  0  0  0
   43.0230   29.0230   43.8680 C   0  0  0  0  0  3  0  0  0  0  0  0
   43.5640   28.4910   44.9710 N   0  0  0  0  0  0  0  0  0  0  0  0
   43.0640   27.3280   45.4250 C   0  0  0  0  0  3  0  0  0  0  0  0
   42.0350   26.6640   44.8200 N   0  0  0  0  0  0  0  0  0  0  0  0
  1  2  1  0  0  0  0
  2  3  2  0  0  0  0
  3 21  1  0  0  0  0
  4  3  1  0  0  0  0
  5  4  2  0  0  0  0
  6  1  2  0  0  0  0
  6  5  1  0  0  0  0
  7  5  1  0  0  0  0
  7 11  1  0  0  0  0
  8  9  1  0  0  0  0
  8  7  2  0  0  0  0
  9 10  1  0  0  0  0
 10 11  2  0  0  0  0
 10 12  1  0  0  0  0
 12 20  1  0  0  0  0
 13 12  1  0  0  0  0
 13 14  2  0  0  0  0
 14 15  1  0  0  0  0
 15 16  1  0  0  0  0
 16 17  2  0  0  0  0
 18 17  1  0  0  0  0
 19 18  2  0  0  0  0
 20 15  2  0  0  0  0
 20 19  1  0  0  0  0
 21 22  1  0  0  0  0
 23 22  1  0  0  0  0
 23 28  1  0  0  0  0
 24 23  2  0  0  0  0
 25 24  1  0  0  0  0
 25 26  2  0  0  0  0
 26 27  1  0  0  0  0
 27 28  2  0  0  0  0
 27 29  1  0  0  0  0
 29 34  1  0  0  0  0
 30 29  2  0  0  0  0
 30 31  1  0  0  0  0
 31 32  2  0  0  0  0
 32 33  1  0  0  0  0
 34 33  2  0  0  0  0
M  END
>  <minimizedAffinity>
-7.17625046

$$$$

 OpenBabel03242509573D

 34 39  0  0  0  0  0  0  0  0999 V2000
   39.6730   36.7860   40.1160 C   0  0  0  0  0  3  0  0  0  0  0  0
   40.9680   36.6230   40.6390 C   0  0  0  0  0  3  0  0  0  0  0  0
   41.4550   35.4090   41.0000 C   0  0  0  0  0  0  0  0  0  0  0  0
   40.6590   34.3310   40.8480 N   0  0  0  0  0  0  0  0  0  0  0  0
   39.3900   34.5050   40.3350 C   0  0  0  0  0  0  0  0  0  0  0  0
   38.9160   35.6730   39.9860 N   0  0  0  0  0  0  0  0  0  0  0  0
   38.6780   33.1910   40.2500 C   0  0  0  0  0  0  0  0  0  0  0  0
   37.3260   32.9250   39.7400 C   0  0  0  0  0  3  0  0  0  0  0  0
   37.2910   31.1270   40.0080 S   0  0  0  0  0  0  0  0  0  0  0  0
   39.0440   31.0540   40.7340 C   0  0  0  0  0  0  0  0  0  0  0  0
   39.5070   32.3040   40.7270 N   0  0  0  0  0  0  0  0  0  0  0  0
   39.4530   29.7420   41.1070 N   0  0  0  0  0  0  0  0  0  0  0  0
   40.5640   29.0870   40.7350 C   0  0  0  0  0  3  0  0  0  0  0  0
   40.5670   27.8680   41.3140 N   0  0  0  0  0  0  0  0  0  0  0  0
   39.4560   27.7620   42.0520 C   0  0  0  0  0  0  0  0  0  0  0  0
   38.9090   26.7850   42.8560 C   0  0  0  0  0  3  0  0  0  0  0  0
   37.7510   26.9590   43.4890 N   0  0  0  0  0  0  0  0  0  0  0  0
   37.0380   28.1150   43.3780 C   0  0  0  0  0  3  0  0  0  0  0  0
   37.5570   29.0910   42.5900 N   0  0  0  0  0  0  0  0  0  0  0  0
   38.7310   28.9480   41.9330 C   0  0  0  0  0  0  0  0  0  0  0  0
   42.8040   35.2800   41.5410 C   0  0  0  0  0  2  0  0  0  0  0  0
   43.3990   33.9210   41.5300 C   0  0  0  0  0  2  0  0  0  0  0  0
   44.2090   33.7800   40.2850 C   0  0  0  0  0  0  0  0  0  0  0  0
   45.3320   34.5380   40.0310 C   0  0  0  0  0  3  0  0  0  0  0  0
   46.1310   34.4820   38.9320 C   0  0  0  0  0  3  0  0  0  0  0  0
   45.7440   33.5610   38.0030 N   0  0  0  0  0  0  0  0  0  0  0  0
   44.6520   32.7970   38.2100 C   0  0  0  0  0  0  0  0  0  0  0  0
   43.8710   32.8740   39.3180 N   0  0  0  0  0  0  0  0  0  0  0  0
   44.3070   31.8400   37.1730 C   0  0  0  0  0  0  0  0  0  0  0  0
   45.2930   31.3820   36.2840 C   0  0  0  0  0  3  0  0  0  0  0  0
   44.9640   30.4790   35.3080 C   0  0  0  0  0  3  0  0  0  0  0  0
   43.7110   30.0240   35.1860 N   0  0  0  0  0  0  0  0  0  0  0  0
   42.7850   30.4770   36.0490 C   0  0  0  0  0  3  0  0  0  0  0  0
   43.0570   31.3760   37.0410 N   0  0  0  0  0  0  0  0  0  0  0  0
  1  2  1  0  0  0  0
  2  3  2  0  0  0  0
  3 21  1  0  0  0  0
  4  3  1  0  0  0  0
  5  4  2  0  0  0  0
  6  1  2  0  0  0  0
  6  5  1  0  0  0  0
  7  5  1  0  0  0  0
  7 11  1  0  0  0  0
  8  9  1  0  0  0  0
  8  7  2  0  0  0  0
  9 10  1  0  0  0  0
 10 12  1  0  0  0  0
 11 10  2  0  0  0  0
 12 20  1  0  0  0  0
 13 12  1  0  0  0  0
 13 14  2  0  0  0  0
 14 15  1  0  0  0  0
 15 16  1  0  0  0  0
 16 17  2  0  0  0  0
 18 17  1  0  0  0  0
 19 18  2  0  0  0  0
 20 15  2  0  0  0  0
 20 19  1  0  0  0  0
 22 21  1  0  0  0  0
 23 22  1  0  0  0  0
 24 23  1  0  0  0  0
 25 24  2  0  0  0  0
 26 27  2  0  0  0  0
 26 25  1  0  0  0  0
 27 28  1  0  0  0  0
 28 23  2  0  0  0  0
 29 27  1  0  0  0  0
 30 29  2  0  0  0  0
 31 30  1  0  0  0  0
 32 31  2  0  0  0  0
 32 33  1  0  0  0  0
 33 34  2  0  0  0  0
 34 29  1  0  0  0  0
M  END
>  <minimizedAffinity>
-7.16055918

$$$$

 OpenBabel03242509573D

 34 39  0  0  0  0  0  0  0  0999 V2000
   36.0080   30.3780   40.2000 C   0  0  0  0  0  3  0  0  0  0  0  0
   36.3120   29.5380   41.2860 C   0  0  0  0  0  3  0  0  0  0  0  0
   37.4030   29.7340   42.0680 C   0  0  0  0  0  0  0  0  0  0  0  0
   38.2150   30.7730   41.7830 N   0  0  0  0  0  0  0  0  0  0  0  0
   37.9050   31.5890   40.7140 C   0  0  0  0  0  0  0  0  0  0  0  0
   36.8550   31.4030   39.9570 N   0  0  0  0  0  0  0  0  0  0  0  0
   38.9280   32.6730   40.5720 C   0  0  0  0  0  0  0  0  0  0  0  0
   38.7300   34.0480   40.0940 C   0  0  0  0  0  3  0  0  0  0  0  0
   40.4440   34.6310   40.2480 S   0  0  0  0  0  0  0  0  0  0  0  0
   41.1030   32.9770   40.9070 C   0  0  0  0  0  0  0  0  0  0  0  0
   40.0570   32.1510   40.9640 N   0  0  0  0  0  0  0  0  0  0  0  0
   42.5010   32.9870   41.1820 N   0  0  0  0  0  0  0  0  0  0  0  0
   43.1200   32.6450   42.3230 C   0  0  0  0  0  3  0  0  0  0  0  0
   44.4510   32.7980   42.1600 N   0  0  0  0  0  0  0  0  0  0  0  0
   44.6630   33.2350   40.9120 C   0  0  0  0  0  0  0  0  0  0  0  0
   45.7780   33.5670   40.1730 C   0  0  0  0  0  3  0  0  0  0  0  0
   45.6890   33.9860   38.9130 N   0  0  0  0  0  0  0  0  0  0  0  0
   44.4880   34.1120   38.2800 C   0  0  0  0  0  3  0  0  0  0  0  0
   43.3760   33.7910   38.9900 N   0  0  0  0  0  0  0  0  0  0  0  0
   43.4310   33.3620   40.2730 C   0  0  0  0  0  0  0  0  0  0  0  0
   37.6880   28.8400   43.1860 C   0  0  0  0  0  2  0  0  0  0  0  0
   37.0550   27.4990   43.1430 C   0  0  0  0  0  2  0  0  0  0  0  0
   38.1330   26.4840   42.9540 C   0  0  0  0  0  0  0  0  0  0  0  0
   37.9220   25.2730   42.3310 C   0  0  0  0  0  3  0  0  0  0  0  0
   38.8350   24.2900   42.1130 C   0  0  0  0  0  3  0  0  0  0  0  0
   40.0860   24.5730   42.5770 N   0  0  0  0  0  0  0  0  0  0  0  0
   40.3380   25.7460   43.1930 C   0  0  0  0  0  0  0  0  0  0  0  0
   39.4060   26.7110   43.3980 N   0  0  0  0  0  0  0  0  0  0  0  0
   41.6960   25.9720   43.6570 C   0  0  0  0  0  0  0  0  0  0  0  0
   41.9460   26.9120   44.6700 C   0  0  0  0  0  3  0  0  0  0  0  0
   43.2270   27.1210   45.1060 C   0  0  0  0  0  3  0  0  0  0  0  0
   44.2520   26.4410   44.5780 N   0  0  0  0  0  0  0  0  0  0  0  0
   43.9890   25.5460   43.6100 C   0  0  0  0  0  3  0  0  0  0  0  0
   42.7310   25.2970   43.1380 N   0  0  0  0  0  0  0  0  0  0  0  0
  1  2  1  0  0  0  0
  2  3  2  0  0  0  0
  3 21  1  0  0  0  0
  4  3  1  0  0  0  0
  5  4  2  0  0  0  0
  6  1  2  0  0  0  0
  6  5  1  0  0  0  0
  7  5  1  0  0  0  0
  7 11  1  0  0  0  0
  8  9  1  0  0  0  0
  8  7  2  0  0  0  0
  9 10  1  0  0  0  0
 10 11  2  0  0  0  0
 10 12  1  0  0  0  0
 12 13  1  0  0  0  0
 14 13  2  0  0  0  0
 15 14  1  0  0  0  0
 16 15  2  0  0  0  0
 17 16  1  0  0  0  0
 18 17  2  0  0  0  0
 18 19  1  0  0  0  0
 19 20  2  0  0  0  0
 20 15  1  0  0  0  0
 20 12  1  0  0  0  0
 22 21  1  0  0  0  0
 23 22  1  0  0  0  0
 23 28  1  0  0  0  0
 24 23  2  0  0  0  0
 25 24  1  0  0  0  0
 25 26  2  0  0  0  0
 26 27  1  0  0  0  0
 27 28  2  0  0  0  0
 27 29  1  0  0  0  0
 29 30  1  0  0  0  0
 30 31  2  0  0  0  0
 32 31  1  0  0  0  0
 33 32  2  0  0  0  0
 34 33  1  0  0  0  0
 34 29  2  0  0  0  0
M  END
>  <minimizedAffinity>
-7.12631893

$$$$

 OpenBabel03242509573D

 34 39  0  0  0  0  0  0  0  0999 V2000
   36.0140   30.2570   40.5040 C   0  0  0  0  0  3  0  0  0  0  0  0
   36.4220   29.4460   41.5780 C   0  0  0  0  0  3  0  0  0  0  0  0
   37.5600   29.6870   42.2750 C   0  0  0  0  0  0  0  0  0  0  0  0
   38.3170   30.7450   41.9160 N   0  0  0  0  0  0  0  0  0  0  0  0
   37.9050   31.5330   40.8600 C   0  0  0  0  0  0  0  0  0  0  0  0
   36.8090   31.3020   40.1840 N   0  0  0  0  0  0  0  0  0  0  0  0
   38.8820   32.6430   40.6270 C   0  0  0  0  0  0  0  0  0  0  0  0
   38.6160   33.9850   40.0900 C   0  0  0  0  0  3  0  0  0  0  0  0
   40.3120   34.6350   40.1520 S   0  0  0  0  0  0  0  0  0  0  0  0
   41.0540   33.0400   40.8660 C   0  0  0  0  0  0  0  0  0  0  0  0
   40.0420   32.1820   41.0010 N   0  0  0  0  0  0  0  0  0  0  0  0
   42.4590   33.1130   41.0870 N   0  0  0  0  0  0  0  0  0  0  0  0
   43.1310   32.8520   42.2200 C   0  0  0  0  0  3  0  0  0  0  0  0
   44.4490   33.0440   42.0000 N   0  0  0  0  0  0  0  0  0  0  0  0
   44.6000   33.4240   40.7260 C   0  0  0  0  0  0  0  0  0  0  0  0
   45.6750   33.7580   39.9300 C   0  0  0  0  0  3  0  0  0  0  0  0
   45.5260   34.1100   38.6550 N   0  0  0  0  0  0  0  0  0  0  0  0
   44.2990   34.1610   38.0620 C   0  0  0  0  0  3  0  0  0  0  0  0
   43.2260   33.8370   38.8280 N   0  0  0  0  0  0  0  0  0  0  0  0
   43.3420   33.4750   40.1270 C   0  0  0  0  0  0  0  0  0  0  0  0
   37.9520   28.8220   43.3830 C   0  0  0  0  0  2  0  0  0  0  0  0
   37.1480   27.5910   43.5830 C   0  0  0  0  0  2  0  0  0  0  0  0
   37.9220   26.4380   43.0370 C   0  0  0  0  0  0  0  0  0  0  0  0
   39.2380   26.1960   43.3670 C   0  0  0  0  0  3  0  0  0  0  0  0
   40.0230   25.1770   42.9250 C   0  0  0  0  0  3  0  0  0  0  0  0
   39.4010   24.3230   42.0620 N   0  0  0  0  0  0  0  0  0  0  0  0
   38.1130   24.5210   41.7120 C   0  0  0  0  0  0  0  0  0  0  0  0
   37.3520   25.5480   42.1690 N   0  0  0  0  0  0  0  0  0  0  0  0
   37.5240   23.5670   40.7890 C   0  0  0  0  0  0  0  0  0  0  0  0
   36.2850   23.8440   40.1870 C   0  0  0  0  0  3  0  0  0  0  0  0
   35.7330   22.9420   39.3170 C   0  0  0  0  0  3  0  0  0  0  0  0
   36.3570   21.7930   39.0290 N   0  0  0  0  0  0  0  0  0  0  0  0
   37.5410   21.5500   39.6180 C   0  0  0  0  0  3  0  0  0  0  0  0
   38.1390   22.4140   40.4920 N   0  0  0  0  0  0  0  0  0  0  0  0
  1  2  1  0  0  0  0
  2  3  2  0  0  0  0
  3 21  1  0  0  0  0
  4  3  1  0  0  0  0
  5  4  2  0  0  0  0
  6  1  2  0  0  0  0
  6  5  1  0  0  0  0
  7  5  1  0  0  0  0
  7 11  1  0  0  0  0
  8  9  1  0  0  0  0
  8  7  2  0  0  0  0
  9 10  1  0  0  0  0
 10 11  2  0  0  0  0
 10 12  1  0  0  0  0
 12 13  1  0  0  0  0
 14 13  2  0  0  0  0
 15 14  1  0  0  0  0
 16 15  2  0  0  0  0
 17 16  1  0  0  0  0
 18 17  2  0  0  0  0
 18 19  1  0  0  0  0
 19 20  2  0  0  0  0
 20 15  1  0  0  0  0
 20 12  1  0  0  0  0
 21 22  1  0  0  0  0
 23 24  1  0  0  0  0
 23 22  1  0  0  0  0
 25 24  2  0  0  0  0
 26 25  1  0  0  0  0
 27 26  2  0  0  0  0
 27 28  1  0  0  0  0
 28 23  2  0  0  0  0
 29 27  1  0  0  0  0
 30 29  2  0  0  0  0
 31 30  1  0  0  0  0
 32 31  2  0  0  0  0
 32 33  1  0  0  0  0
 33 34  2  0  0  0  0
 34 29  1  0  0  0  0
M  END
>  <minimizedAffinity>
-7.07366419

$$$$

 OpenBabel03242509573D

 34 39  0  0  0  0  0  0  0  0999 V2000
   35.3890   29.8560   39.9670 C   0  0  0  0  0  3  0  0  0  0  0  0
   35.5080   28.6460   39.2590 C   0  0  0  0  0  3  0  0  0  0  0  0
   36.6040   28.3470   38.5170 C   0  0  0  0  0  0  0  0  0  0  0  0
   37.6050   29.2490   38.4660 N   0  0  0  0  0  0  0  0  0  0  0  0
   37.4760   30.4320   39.1640 C   0  0  0  0  0  0  0  0  0  0  0  0
   36.4210   30.7250   39.8800 N   0  0  0  0  0  0  0  0  0  0  0  0
   38.6900   31.2860   38.9730 C   0  0  0  0  0  0  0  0  0  0  0  0
   39.8790   31.0000   38.1580 C   0  0  0  0  0  3  0  0  0  0  0  0
   40.8080   32.5240   38.5010 S   0  0  0  0  0  0  0  0  0  0  0  0
   39.4760   33.2530   39.6410 C   0  0  0  0  0  0  0  0  0  0  0  0
   38.4870   32.3600   39.6850 N   0  0  0  0  0  0  0  0  0  0  0  0
   39.8150   34.5320   40.1710 N   0  0  0  0  0  0  0  0  0  0  0  0
   39.0950   35.6630   40.1180 C   0  0  0  0  0  3  0  0  0  0  0  0
   39.7790   36.6450   40.7420 N   0  0  0  0  0  0  0  0  0  0  0  0
   40.9300   36.1240   41.1860 C   0  0  0  0  0  0  0  0  0  0  0  0
   42.0180   36.6130   41.8780 C   0  0  0  0  0  3  0  0  0  0  0  0
   43.0550   35.8420   42.1940 N   0  0  0  0  0  0  0  0  0  0  0  0
   43.1030   34.5230   41.8520 C   0  0  0  0  0  3  0  0  0  0  0  0
   42.0420   34.0220   41.1680 N   0  0  0  0  0  0  0  0  0  0  0  0
   40.9710   34.7770   40.8310 C   0  0  0  0  0  0  0  0  0  0  0  0
   36.6900   27.0830   37.7940 C   0  0  0  0  0  2  0  0  0  0  0  0
   35.7540   26.0100   38.2140 C   0  0  0  0  0  2  0  0  0  0  0  0
   36.4680   25.1260   39.1820 C   0  0  0  0  0  0  0  0  0  0  0  0
   36.3910   23.7510   39.1390 C   0  0  0  0  0  3  0  0  0  0  0  0
   37.0020   22.8660   39.9710 C   0  0  0  0  0  3  0  0  0  0  0  0
   37.7650   23.4450   40.9430 N   0  0  0  0  0  0  0  0  0  0  0  0
   37.8690   24.7870   41.0220 C   0  0  0  0  0  0  0  0  0  0  0  0
   37.2470   25.6480   40.1770 N   0  0  0  0  0  0  0  0  0  0  0  0
   38.7010   25.3240   42.0850 C   0  0  0  0  0  0  0  0  0  0  0  0
   38.3490   26.5310   42.7120 C   0  0  0  0  0  3  0  0  0  0  0  0
   39.1360   27.0330   43.7140 C   0  0  0  0  0  3  0  0  0  0  0  0
   40.2420   26.3910   44.1070 N   0  0  0  0  0  0  0  0  0  0  0  0
   40.5590   25.2380   43.4920 C   0  0  0  0  0  3  0  0  0  0  0  0
   39.8110   24.6900   42.4880 N   0  0  0  0  0  0  0  0  0  0  0  0
  2  1  2  0  0  0  0
  3  2  1  0  0  0  0
  4  3  2  0  0  0  0
  4  5  1  0  0  0  0
  5  6  2  0  0  0  0
  6  1  1  0  0  0  0
  7  5  1  0  0  0  0
  7 11  1  0  0  0  0
  8  9  1  0  0  0  0
  8  7  2  0  0  0  0
  9 10  1  0  0  0  0
 10 11  2  0  0  0  0
 10 12  1  0  0  0  0
 12 20  1  0  0  0  0
 13 12  1  0  0  0  0
 13 14  2  0  0  0  0
 14 15  1  0  0  0  0
 15 16  1  0  0  0  0
 16 17  2  0  0  0  0
 18 17  1  0  0  0  0
 19 18  2  0  0  0  0
 20 19  1  0  0  0  0
 20 15  2  0  0  0  0
 21 22  1  0  0  0  0
 21  3  1  0  0  0  0
 22 23  1  0  0  0  0
 23 28  1  0  0  0  0
 24 23  2  0  0  0  0
 24 25  1  0  0  0  0
 25 26  2  0  0  0  0
 26 27  1  0  0  0  0
 27 29  1  0  0  0  0
 28 27  2  0  0  0  0
 29 34  2  0  0  0  0
 29 30  1  0  0  0  0
 30 31  2  0  0  0  0
 31 32  1  0  0  0  0
 33 32  2  0  0  0  0
 34 33  1  0  0  0  0
M  END
>  <minimizedAffinity>
-6.97099161

$$$$

 OpenBabel03242509573D

 34 39  0  0  0  0  0  0  0  0999 V2000
   37.9450   31.8620   38.0500 C   0  0  0  0  0  3  0  0  0  0  0  0
   37.3730   31.1800   39.1400 C   0  0  0  0  0  3  0  0  0  0  0  0
   38.0650   30.9290   40.2800 C   0  0  0  0  0  0  0  0  0  0  0  0
   39.3430   31.3540   40.3570 N   0  0  0  0  0  0  0  0  0  0  0  0
   39.8920   32.0210   39.2810 C   0  0  0  0  0  0  0  0  0  0  0  0
   39.2290   32.2640   38.1800 N   0  0  0  0  0  0  0  0  0  0  0  0
   41.3100   32.4010   39.5720 C   0  0  0  0  0  0  0  0  0  0  0  0
   42.5330   31.8910   38.9380 C   0  0  0  0  0  3  0  0  0  0  0  0
   43.7450   32.8670   39.8770 S   0  0  0  0  0  0  0  0  0  0  0  0
   42.4360   33.7590   40.9230 C   0  0  0  0  0  0  0  0  0  0  0  0
   41.2520   33.2940   40.5210 N   0  0  0  0  0  0  0  0  0  0  0  0
   42.9840   34.6830   41.8580 N   0  0  0  0  0  0  0  0  0  0  0  0
   42.6760   35.9800   42.0140 C   0  0  0  0  0  3  0  0  0  0  0  0
   43.4280   36.4900   43.0120 N   0  0  0  0  0  0  0  0  0  0  0  0
   44.2060   35.5080   43.4820 C   0  0  0  0  0  0  0  0  0  0  0  0
   45.1610   35.4100   44.4710 C   0  0  0  0  0  3  0  0  0  0  0  0
   45.7970   34.2690   44.7270 N   0  0  0  0  0  0  0  0  0  0  0  0
   45.5390   33.1290   44.0240 C   0  0  0  0  0  3  0  0  0  0  0  0
   44.6030   33.2030   43.0440 N   0  0  0  0  0  0  0  0  0  0  0  0
   43.9380   34.3470   42.7580 C   0  0  0  0  0  0  0  0  0  0  0  0
   37.4390   30.2160   41.3880 C   0  0  0  0  0  2  0  0  0  0  0  0
   38.3330   29.7740   42.4860 C   0  0  0  0  0  2  0  0  0  0  0  0
   38.4010   28.2830   42.4550 C   0  0  0  0  0  0  0  0  0  0  0  0
   39.1930   27.5510   43.3130 C   0  0  0  0  0  3  0  0  0  0  0  0
   39.3200   26.1980   43.3630 C   0  0  0  0  0  3  0  0  0  0  0  0
   38.5650   25.5300   42.4450 N   0  0  0  0  0  0  0  0  0  0  0  0
   37.7740   26.2060   41.5860 C   0  0  0  0  0  0  0  0  0  0  0  0
   37.6660   27.5580   41.5580 N   0  0  0  0  0  0  0  0  0  0  0  0
   37.0010   25.4200   40.6400 C   0  0  0  0  0  0  0  0  0  0  0  0
   36.5720   25.9950   39.4320 C   0  0  0  0  0  3  0  0  0  0  0  0
   35.8440   25.2510   38.5430 C   0  0  0  0  0  3  0  0  0  0  0  0
   35.5300   23.9770   38.8070 N   0  0  0  0  0  0  0  0  0  0  0  0
   35.9510   23.4480   39.9700 C   0  0  0  0  0  3  0  0  0  0  0  0
   36.6810   24.1430   40.8930 N   0  0  0  0  0  0  0  0  0  0  0  0
  1  6  2  0  0  0  0
  1  2  1  0  0  0  0
  2  3  2  0  0  0  0
  3  4  1  0  0  0  0
  3 21  1  0  0  0  0
  5  7  1  0  0  0  0
  5  4  2  0  0  0  0
  6  5  1  0  0  0  0
  7 11  1  0  0  0  0
  8  7  2  0  0  0  0
  8  9  1  0  0  0  0
  9 10  1  0  0  0  0
 10 12  1  0  0  0  0
 11 10  2  0  0  0  0
 12 13  1  0  0  0  0
 12 20  1  0  0  0  0
 13 14  2  0  0  0  0
 14 15  1  0  0  0  0
 15 16  1  0  0  0  0
 16 17  2  0  0  0  0
 18 17  1  0  0  0  0
 19 18  2  0  0  0  0
 20 19  1  0  0  0  0
 20 15  2  0  0  0  0
 21 22  1  0  0  0  0
 23 22  1  0  0  0  0
 23 24  1  0  0  0  0
 24 25  2  0  0  0  0
 26 25  1  0  0  0  0
 27 26  2  0  0  0  0
 28 27  1  0  0  0  0
 28 23  2  0  0  0  0
 29 34  1  0  0  0  0
 29 27  1  0  0  0  0
 30 29  2  0  0  0  0
 31 32  2  0  0  0  0
 31 30  1  0  0  0  0
 32 33  1  0  0  0  0
 33 34  2  0  0  0  0
M  END
>  <minimizedAffinity>
-6.9053874

$$$$

 OpenBabel03242509573D

 34 39  0  0  0  0  0  0  0  0999 V2000
   35.5930   28.9560   38.6470 C   0  0  0  0  0  3  0  0  0  0  0  0
   35.5890   28.4750   39.9690 C   0  0  0  0  0  3  0  0  0  0  0  0
   36.5460   28.8180   40.8670 C   0  0  0  0  0  0  0  0  0  0  0  0
   37.5290   29.6490   40.4650 N   0  0  0  0  0  0  0  0  0  0  0  0
   37.5220   30.1140   39.1660 C   0  0  0  0  0  0  0  0  0  0  0  0
   36.6020   29.7850   38.2970 N   0  0  0  0  0  0  0  0  0  0  0  0
   38.6930   31.0160   38.9290 C   0  0  0  0  0  0  0  0  0  0  0  0
   39.8660   30.7730   38.0780 C   0  0  0  0  0  3  0  0  0  0  0  0
   40.7410   32.3370   38.3790 S   0  0  0  0  0  0  0  0  0  0  0  0
   39.4170   33.0200   39.5570 C   0  0  0  0  0  0  0  0  0  0  0  0
   38.4680   32.0860   39.6390 N   0  0  0  0  0  0  0  0  0  0  0  0
   39.7190   34.3160   40.0660 N   0  0  0  0  0  0  0  0  0  0  0  0
   38.9510   35.4160   40.0290 C   0  0  0  0  0  3  0  0  0  0  0  0
   39.6140   36.4310   40.6230 N   0  0  0  0  0  0  0  0  0  0  0  0
   40.7980   35.9620   41.0340 C   0  0  0  0  0  0  0  0  0  0  0  0
   41.8870   36.5010   41.6860 C   0  0  0  0  0  3  0  0  0  0  0  0
   42.9650   35.7770   41.9740 N   0  0  0  0  0  0  0  0  0  0  0  0
   43.0560   34.4580   41.6390 C   0  0  0  0  0  3  0  0  0  0  0  0
   41.9970   33.9070   40.9950 N   0  0  0  0  0  0  0  0  0  0  0  0
   40.8850   34.6140   40.6870 C   0  0  0  0  0  0  0  0  0  0  0  0
   36.5090   28.2960   42.2290 C   0  0  0  0  0  2  0  0  0  0  0  0
   37.7750   27.7370   42.7620 C   0  0  0  0  0  2  0  0  0  0  0  0
   38.0190   26.4240   42.0950 C   0  0  0  0  0  0  0  0  0  0  0  0
   37.1340   25.3710   42.1660 C   0  0  0  0  0  3  0  0  0  0  0  0
   37.2670   24.1440   41.5950 C   0  0  0  0  0  3  0  0  0  0  0  0
   38.4180   23.9800   40.8810 N   0  0  0  0  0  0  0  0  0  0  0  0
   39.3130   24.9840   40.7840 C   0  0  0  0  0  0  0  0  0  0  0  0
   39.1550   26.2000   41.3660 N   0  0  0  0  0  0  0  0  0  0  0  0
   40.5130   24.7290   40.0060 C   0  0  0  0  0  0  0  0  0  0  0  0
   41.7570   25.2000   40.4570 C   0  0  0  0  0  3  0  0  0  0  0  0
   42.8860   24.9570   39.7210 C   0  0  0  0  0  3  0  0  0  0  0  0
   42.8230   24.2740   38.5710 N   0  0  0  0  0  0  0  0  0  0  0  0
   41.6220   23.8320   38.1600 C   0  0  0  0  0  3  0  0  0  0  0  0
   40.4640   24.0450   38.8550 N   0  0  0  0  0  0  0  0  0  0  0  0
  1  2  1  0  0  0  0
  2  3  2  0  0  0  0
  3 21  1  0  0  0  0
  4  3  1  0  0  0  0
  5  4  2  0  0  0  0
  6  1  2  0  0  0  0
  6  5  1  0  0  0  0
  7  5  1  0  0  0  0
  7 11  1  0  0  0  0
  8  9  1  0  0  0  0
  8  7  2  0  0  0  0
  9 10  1  0  0  0  0
 10 11  2  0  0  0  0
 10 12  1  0  0  0  0
 12 20  1  0  0  0  0
 13 12  1  0  0  0  0
 13 14  2  0  0  0  0
 14 15  1  0  0  0  0
 15 16  1  0  0  0  0
 16 17  2  0  0  0  0
 18 17  1  0  0  0  0
 19 18  2  0  0  0  0
 20 19  1  0  0  0  0
 20 15  2  0  0  0  0
 21 22  1  0  0  0  0
 23 24  1  0  0  0  0
 23 22  1  0  0  0  0
 25 24  2  0  0  0  0
 26 25  1  0  0  0  0
 27 26  2  0  0  0  0
 27 28  1  0  0  0  0
 28 23  2  0  0  0  0
 29 30  1  0  0  0  0
 29 27  1  0  0  0  0
 31 30  2  0  0  0  0
 32 31  1  0  0  0  0
 33 32  2  0  0  0  0
 33 34  1  0  0  0  0
 34 29  2  0  0  0  0
M  END
>  <minimizedAffinity>
-6.72764015

$$$$
