
     RDKit          3D

 33 36  0  0  0  0  0  0  0  0999 V2000
   46.6370   34.8140   41.9880 C   0  0  0  0  0  0  0  0  0  0  0  0
   47.9200   35.3290   41.8890 C   0  0  0  0  0  0  0  0  0  0  0  0
   48.7300   35.1720   40.7870 C   0  0  0  0  0  0  0  0  0  0  0  0
   48.2600   34.4660   39.7050 C   0  0  0  0  0  0  0  0  0  0  0  0
   46.9950   33.9270   39.7360 C   0  0  0  0  0  0  0  0  0  0  0  0
   46.5200   33.2230   38.6560 C   0  0  0  0  0  0  0  0  0  0  0  0
   45.2540   32.6710   38.6450 C   0  0  0  0  0  0  0  0  0  0  0  0
   44.5020   32.8730   39.7890 C   0  0  0  0  0  0  0  0  0  0  0  0
   45.0000   33.5750   40.8410 C   0  0  0  0  0  0  0  0  0  0  0  0
   46.2510   34.1260   40.8650 C   0  0  0  0  0  0  0  0  0  0  0  0
   44.3910   36.1090   44.7880 C   0  0  0  0  0  0  0  0  0  0  0  0
   45.0160   36.0510   43.5460 C   0  0  0  0  0  0  0  0  0  0  0  0
   45.9140   35.0550   43.2080 C   0  0  0  0  0  0  0  0  0  0  0  0
   46.1160   34.1500   44.2130 N   0  0  0  0  0  0  0  0  0  0  0  0
   45.5290   34.1890   45.4050 C   0  0  0  0  0  0  0  0  0  0  0  0
   44.6740   35.1690   45.6760 N   0  0  0  0  0  0  0  0  0  0  0  0
   45.8280   33.1800   46.3680 N   0  0  0  0  0  0  0  0  0  0  0  0
   45.2370   32.8550   47.5100 N   0  0  0  0  0  0  0  0  0  0  0  0
   45.8990   31.8250   48.0630 C   0  0  0  0  0  0  0  0  0  0  0  0
   46.9590   31.4900   47.2200 C   0  0  0  0  0  0  0  0  0  0  0  0
   46.8850   32.3760   46.1480 C   0  0  0  0  0  0  0  0  0  0  0  0
   48.3152   35.8981   42.7434 H   0  0  0  0  0  0  0  0  0  0  0  0
   49.7407   35.6060   40.7724 H   0  0  0  0  0  0  0  0  0  0  0  0
   48.8943   34.3325   38.8163 H   0  0  0  0  0  0  0  0  0  0  0  0
   47.1663   33.0954   37.7751 H   0  0  0  0  0  0  0  0  0  0  0  0
   44.8684   32.1073   37.7827 H   0  0  0  0  0  0  0  0  0  0  0  0
   43.4847   32.4587   39.8479 H   0  0  0  0  0  0  0  0  0  0  0  0
   44.3589   33.7076   41.7249 H   0  0  0  0  0  0  0  0  0  0  0  0
   43.6806   36.9146   45.0255 H   0  0  0  0  0  0  0  0  0  0  0  0
   44.7865   36.8289   42.8029 H   0  0  0  0  0  0  0  0  0  0  0  0
   45.6490   31.3320   49.0140 H   0  0  0  0  0  0  0  0  0  0  0  0
   47.7000   30.6912   47.3709 H   0  0  0  0  0  0  0  0  0  0  0  0
   47.5636   32.4121   45.2830 H   0  0  0  0  0  0  0  0  0  0  0  0
  1 13  1  0
  2  1  2  0
  3  2  1  0
  4  5  1  0
  4  3  2  0
  5 10  2  0
  6  5  1  0
  7  6  2  0
  7  8  1  0
  8  9  2  0
  9 10  1  0
 10  1  1  0
 11 16  2  0
 12 11  1  0
 13 12  2  0
 13 14  1  0
 14 15  2  0
 15 16  1  0
 15 17  1  0
 17 18  1  0
 18 19  2  0
 20 19  1  0
 21 17  1  0
 21 20  2  0
  2 22  1  0
  3 23  1  0
  4 24  1  0
  6 25  1  0
  7 26  1  0
  8 27  1  0
  9 28  1  0
 11 29  1  0
 12 30  1  0
 19 31  1  0
 20 32  1  0
 21 33  1  0
M  END
>  <Score>  (1) 
-7.08932

$$$$
