
     RDKit          3D

 34 37  0  0  0  0  0  0  0  0999 V2000
   44.5570   35.7920   44.3240 C   0  0  0  0  0  0  0  0  0  0  0  0
   45.3460   35.7780   43.1430 C   0  0  0  0  0  0  0  0  0  0  0  0
   46.3810   34.8570   43.0750 C   0  0  0  0  0  0  0  0  0  0  0  0
   46.5840   34.0240   44.1350 N   0  0  0  0  0  0  0  0  0  0  0  0
   45.8200   34.0640   45.2350 C   0  0  0  0  0  0  0  0  0  0  0  0
   44.8040   34.9430   45.3420 N   0  0  0  0  0  0  0  0  0  0  0  0
   46.0630   33.1770   46.3230 N   0  0  0  0  0  0  0  0  0  0  0  0
   47.0970   32.3010   46.1720 C   0  0  0  0  0  0  0  0  0  0  0  0
   47.3560   31.4280   47.2120 C   0  0  0  0  0  0  0  0  0  0  0  0
   46.5430   31.5150   48.3230 C   0  0  0  0  0  0  0  0  0  0  0  0
   46.8270   30.6100   49.3760 N   0  0  0  0  0  0  0  0  0  0  0  0
   45.5240   32.3810   48.4670 N   0  0  0  0  0  0  0  0  0  0  0  0
   45.2830   33.2360   47.4300 C   0  0  0  0  0  0  0  0  0  0  0  0
   44.3400   34.0790   47.4950 O   0  0  0  0  0  0  0  0  0  0  0  0
   47.1610   34.8560   41.8860 N   0  0  0  0  0  0  0  0  0  0  0  0
   48.3450   35.5110   41.7950 C   0  0  0  0  0  0  0  0  0  0  0  0
   48.8330   35.3120   40.5410 N   0  0  0  0  0  0  0  0  0  0  0  0
   47.9690   34.5480   39.8600 C   0  0  0  0  0  0  0  0  0  0  0  0
   48.0160   34.0770   38.5650 C   0  0  0  0  0  0  0  0  0  0  0  0
   46.9620   33.3110   38.1720 N   0  0  0  0  0  0  0  0  0  0  0  0
   45.9350   33.0300   39.0000 C   0  0  0  0  0  0  0  0  0  0  0  0
   45.9140   33.5100   40.2770 N   0  0  0  0  0  0  0  0  0  0  0  0
   46.9170   34.2590   40.7040 C   0  0  0  0  0  0  0  0  0  0  0  0
   49.1020   34.3760   37.6980 N   0  0  0  0  0  0  0  0  0  0  0  0
   43.7279   36.5098   44.4099 H   0  0  0  0  0  0  0  0  0  0  0  0
   45.1438   36.4715   42.3134 H   0  0  0  0  0  0  0  0  0  0  0  0
   47.7038   32.2894   45.2546 H   0  0  0  0  0  0  0  0  0  0  0  0
   48.1749   30.6957   47.1561 H   0  0  0  0  0  0  0  0  0  0  0  0
   46.2572   30.6229   50.2339 H   0  0  0  0  0  0  0  0  0  0  0  0
   47.6032   29.9394   49.2834 H   0  0  0  0  0  0  0  0  0  0  0  0
   48.8246   36.0979   42.5922 H   0  0  0  0  0  0  0  0  0  0  0  0
   45.1035   32.4057   38.6410 H   0  0  0  0  0  0  0  0  0  0  0  0
   49.1086   34.0094   36.7355 H   0  0  0  0  0  0  0  0  0  0  0  0
   49.8824   34.9593   38.0323 H   0  0  0  0  0  0  0  0  0  0  0  0
  1  6  2  0
  2  1  1  0
  3  2  2  0
  3  4  1  0
  4  5  2  0
  5  6  1  0
  5  7  1  0
  7 13  1  0
  8  7  1  0
  8  9  2  0
  9 10  1  0
 10 12  2  0
 10 11  1  0
 13 14  2  0
 13 12  1  0
 15  3  1  0
 16 15  1  0
 17 16  2  0
 18 17  1  0
 18 23  2  0
 19 18  1  0
 20 19  2  0
 20 21  1  0
 21 22  2  0
 22 23  1  0
 23 15  1  0
 24 19  1  0
  1 25  1  0
  2 26  1  0
  8 27  1  0
  9 28  1  0
 11 29  1  0
 11 30  1  0
 16 31  1  0
 21 32  1  0
 24 33  1  0
 24 34  1  0
M  END
>  <Score>  (1) 
-7.79326

$$$$
