
     RDKit          3D

 37 41  0  0  0  0  0  0  0  0999 V2000
   48.5630   35.1890   40.7510 C   0  0  0  0  0  0  0  0  0  0  0  0
   48.3390   34.0090   39.9880 C   0  0  0  0  0  0  0  0  0  0  0  0
   47.2890   33.1730   40.3770 C   0  0  0  0  0  0  0  0  0  0  0  0
   46.5460   33.5460   41.4650 N   0  0  0  0  0  0  0  0  0  0  0  0
   46.7860   34.6620   42.1590 C   0  0  0  0  0  0  0  0  0  0  0  0
   47.7860   35.4870   41.8140 N   0  0  0  0  0  0  0  0  0  0  0  0
   45.9540   34.9740   43.2900 N   0  0  0  0  0  0  0  0  0  0  0  0
   45.0690   35.9390   43.5780 C   0  0  0  0  0  0  0  0  0  0  0  0
   44.5770   35.7400   44.8040 N   0  0  0  0  0  0  0  0  0  0  0  0
   45.1670   34.6120   45.3170 C   0  0  0  0  0  0  0  0  0  0  0  0
   44.9940   33.9990   46.5400 C   0  0  0  0  0  0  0  0  0  0  0  0
   45.7070   32.8930   46.7910 N   0  0  0  0  0  0  0  0  0  0  0  0
   46.5640   32.3990   45.8760 C   0  0  0  0  0  0  0  0  0  0  0  0
   46.7160   33.0120   44.6920 N   0  0  0  0  0  0  0  0  0  0  0  0
   46.0350   34.1270   44.3650 C   0  0  0  0  0  0  0  0  0  0  0  0
   47.3330   31.1890   46.1730 C   0  0  0  0  0  0  0  0  0  0  0  0
   47.5190   30.1160   45.3140 C   0  0  0  0  0  0  0  0  0  0  0  0
   48.2920   29.2020   45.9730 N   0  0  0  0  0  0  0  0  0  0  0  0
   48.5780   29.6880   47.1950 C   0  0  0  0  0  0  0  0  0  0  0  0
   49.3300   29.1020   48.1970 C   0  0  0  0  0  0  0  0  0  0  0  0
   49.4890   29.8060   49.3930 C   0  0  0  0  0  0  0  0  0  0  0  0
   48.8990   31.0400   49.5320 C   0  0  0  0  0  0  0  0  0  0  0  0
   48.1510   31.6290   48.5410 C   0  0  0  0  0  0  0  0  0  0  0  0
   47.9950   30.9270   47.3570 C   0  0  0  0  0  0  0  0  0  0  0  0
   44.1020   34.5020   47.5080 N   0  0  0  0  0  0  0  0  0  0  0  0
   49.3814   35.8684   40.4705 H   0  0  0  0  0  0  0  0  0  0  0  0
   48.9707   33.7633   39.1216 H   0  0  0  0  0  0  0  0  0  0  0  0
   47.0668   32.2463   39.8276 H   0  0  0  0  0  0  0  0  0  0  0  0
   44.7910   36.7664   42.9086 H   0  0  0  0  0  0  0  0  0  0  0  0
   47.1193   30.0190   44.2938 H   0  0  0  0  0  0  0  0  0  0  0  0
   48.6032   28.2946   45.5979 H   0  0  0  0  0  0  0  0  0  0  0  0
   49.7887   28.1121   48.0565 H   0  0  0  0  0  0  0  0  0  0  0  0
   50.0804   29.3773   50.2155 H   0  0  0  0  0  0  0  0  0  0  0  0
   49.0319   31.5810   50.4805 H   0  0  0  0  0  0  0  0  0  0  0  0
   47.6939   32.6195   48.6824 H   0  0  0  0  0  0  0  0  0  0  0  0
   43.9969   34.0192   48.4118 H   0  0  0  0  0  0  0  0  0  0  0  0
   43.5551   35.3525   47.3118 H   0  0  0  0  0  0  0  0  0  0  0  0
  1  6  2  0
  2  3  2  0
  2  1  1  0
  3  4  1  0
  4  5  2  0
  5  7  1  0
  6  5  1  0
  7  8  1  0
  7 15  1  0
  8  9  2  0
  9 10  1  0
 10 11  2  0
 11 12  1  0
 11 25  1  0
 13 16  1  0
 13 12  2  0
 14 13  1  0
 15 14  2  0
 15 10  1  0
 16 24  1  0
 17 18  1  0
 17 16  2  0
 18 19  1  0
 19 24  2  0
 19 20  1  0
 20 21  2  0
 21 22  1  0
 23 22  2  0
 24 23  1  0
  1 26  1  0
  2 27  1  0
  3 28  1  0
  8 29  1  0
 17 30  1  0
 18 31  1  0
 20 32  1  0
 21 33  1  0
 22 34  1  0
 23 35  1  0
 25 36  1  0
 25 37  1  0
M  END
>  <Score>  (1) 
-7.32758

$$$$
