
     RDKit          3D

 56 60  0  0  1  0  0  0  0  0999 V2000
   43.6480   35.3490   41.2400 C   0  0  0  0  0  0  0  0  0  0  0  0
   43.6980   33.9270   40.7630 C   0  0  1  0  0  0  0  0  0  0  0  0
   42.9510   32.8680   41.4830 C   0  0  0  0  0  0  0  0  0  0  0  0
   42.5130   33.3490   40.1050 C   0  0  1  0  0  0  0  0  0  0  0  0
   41.3490   33.9560   40.0230 O   0  0  0  0  0  0  0  0  0  0  0  0
   38.3680   33.2100   40.7170 N   0  0  0  0  0  0  0  0  0  0  0  0
   39.0590   32.0290   40.3480 C   0  0  0  0  0  0  0  0  0  0  0  0
   40.0580   32.1520   39.2920 C   0  0  0  0  0  0  0  0  0  0  0  0
   40.4950   33.6710   38.9840 C   0  0  1  0  0  0  0  0  0  0  0  0
   39.2840   34.3800   38.7260 C   0  0  0  0  0  0  0  0  0  0  0  0
   38.1720   34.1440   39.6800 C   0  0  0  0  0  0  0  0  0  0  0  0
   44.1260   35.5310   42.6470 C   0  0  0  0  0  0  0  0  0  0  0  0
   47.7610   34.9580   42.3120 C   0  0  0  0  0  0  0  0  0  0  0  0
   47.9670   33.8620   43.1550 C   0  0  0  0  0  0  0  0  0  0  0  0
   46.8570   33.3310   43.8270 C   0  0  0  0  0  0  0  0  0  0  0  0
   45.7030   33.9230   43.6010 N   0  0  0  0  0  0  0  0  0  0  0  0
   45.5030   34.9790   42.7910 C   0  0  0  0  0  0  0  0  0  0  0  0
   46.5370   35.4970   42.1460 N   0  0  0  0  0  0  0  0  0  0  0  0
   47.1140   32.1880   44.6850 C   0  0  0  0  0  0  0  0  0  0  0  0
   47.9000   31.1140   44.2510 C   0  0  0  0  0  0  0  0  0  0  0  0
   48.1830   29.9990   45.0070 C   0  0  0  0  0  0  0  0  0  0  0  0
   47.6770   29.8880   46.2850 C   0  0  0  0  0  0  0  0  0  0  0  0
   46.8970   30.9090   46.7700 C   0  0  0  0  0  0  0  0  0  0  0  0
   46.3750   30.8130   48.0540 C   0  0  0  0  0  0  0  0  0  0  0  0
   45.5840   31.8070   48.5820 C   0  0  0  0  0  0  0  0  0  0  0  0
   45.3130   32.9310   47.7890 C   0  0  0  0  0  0  0  0  0  0  0  0
   45.8720   32.9490   46.5200 C   0  0  0  0  0  0  0  0  0  0  0  0
   46.6660   31.9760   45.9590 C   0  0  0  0  0  0  0  0  0  0  0  0
   48.9580   35.5150   41.5850 C   0  0  0  0  0  0  0  0  0  0  0  0
   48.7570   35.4770   40.2380 F   0  0  0  0  0  0  0  0  0  0  0  0
   49.2200   36.7930   41.9870 F   0  0  0  0  0  0  0  0  0  0  0  0
   50.0390   34.6590   41.8360 F   0  0  0  0  0  0  0  0  0  0  0  0
   42.6069   35.6988   41.1793 H   0  0  0  0  0  0  0  0  0  0  0  0
   44.3247   35.9278   40.5941 H   0  0  0  0  0  0  0  0  0  0  0  0
   44.7541   34.0522   40.4820 H   0  0  0  0  0  0  0  0  0  0  0  0
   43.3901   31.8670   41.6062 H   0  0  0  0  0  0  0  0  0  0  0  0
   42.4753   32.7753   42.4705 H   0  0  0  0  0  0  0  0  0  0  0  0
   42.3519   32.9297   39.1009 H   0  0  0  0  0  0  0  0  0  0  0  0
   38.0322   33.3744   41.6768 H   0  0  0  0  0  0  0  0  0  0  0  0
   39.5689   31.6481   41.2452 H   0  0  0  0  0  0  0  0  0  0  0  0
   38.2873   31.3616   39.9367 H   0  0  0  0  0  0  0  0  0  0  0  0
   40.9529   31.5882   39.5939 H   0  0  0  0  0  0  0  0  0  0  0  0
   39.6019   31.7572   38.3721 H   0  0  0  0  0  0  0  0  0  0  0  0
   41.0757   33.9493   38.0922 H   0  0  0  0  0  0  0  0  0  0  0  0
   39.1806   35.0622   37.8693 H   0  0  0  0  0  0  0  0  0  0  0  0
   37.2191   34.6843   39.5803 H   0  0  0  0  0  0  0  0  0  0  0  0
   44.1354   36.6031   42.8931 H   0  0  0  0  0  0  0  0  0  0  0  0
   43.4491   34.9981   43.3310 H   0  0  0  0  0  0  0  0  0  0  0  0
   48.9697   33.4293   43.2871 H   0  0  0  0  0  0  0  0  0  0  0  0
   48.3205   31.1646   43.2358 H   0  0  0  0  0  0  0  0  0  0  0  0
   48.8120   29.1975   44.5922 H   0  0  0  0  0  0  0  0  0  0  0  0
   47.8930   29.0028   46.9013 H   0  0  0  0  0  0  0  0  0  0  0  0
   46.5989   29.9235   48.6611 H   0  0  0  0  0  0  0  0  0  0  0  0
   45.1749   31.7222   49.5996 H   0  0  0  0  0  0  0  0  0  0  0  0
   44.6875   33.7583   48.1555 H   0  0  0  0  0  0  0  0  0  0  0  0
   45.6587   33.8314   45.8988 H   0  0  0  0  0  0  0  0  0  0  0  0
  1 12  1  0
  2  1  1  0
  2  3  1  0
  4  2  1  0
  4  3  1  0
  5  4  1  0
  7  6  1  0
  8  7  1  0
  9  8  1  0
  9  5  1  0
 10  9  1  0
 10 11  2  0
 11  6  1  0
 12 17  1  0
 13 14  2  0
 14 15  1  0
 15 19  1  0
 16 15  2  0
 17 16  1  0
 18 13  1  0
 18 17  2  0
 19 28  1  0
 20 19  2  0
 20 21  1  0
 21 22  2  0
 22 23  1  0
 23 24  2  0
 24 25  1  0
 26 25  2  0
 27 26  1  0
 28 27  2  0
 28 23  1  0
 29 32  1  0
 29 31  1  0
 29 13  1  0
 30 29  1  0
  1 33  1  0
  1 34  1  0
  2 35  1  6
  3 36  1  0
  3 37  1  0
  4 38  1  6
  6 39  1  0
  7 40  1  0
  7 41  1  0
  8 42  1  0
  8 43  1  0
  9 44  1  6
 10 45  1  0
 11 46  1  0
 12 47  1  0
 12 48  1  0
 14 49  1  0
 20 50  1  0
 21 51  1  0
 22 52  1  0
 24 53  1  0
 25 54  1  0
 26 55  1  0
 27 56  1  0
M  END
>  <Score>  (1) 
-7.53966

$$$$
