
     RDKit          3D

 36 40  0  0  0  0  0  0  0  0999 V2000
   48.1960   33.8650   38.3680 C   0  0  0  0  0  0  0  0  0  0  0  0
   48.0070   34.5330   37.2560 N   0  0  0  0  0  0  0  0  0  0  0  0
   48.5320   33.7730   36.3070 O   0  0  0  0  0  0  0  0  0  0  0  0
   49.0310   32.6670   36.8240 C   0  0  0  0  0  0  0  0  0  0  0  0
   48.8270   32.6980   38.1650 N   0  0  0  0  0  0  0  0  0  0  0  0
   49.6760   31.6080   36.1250 N   0  0  0  0  0  0  0  0  0  0  0  0
   50.4370   30.6180   36.6460 C   0  0  0  0  0  0  0  0  0  0  0  0
   50.8470   29.8300   35.6120 N   0  0  0  0  0  0  0  0  0  0  0  0
   50.3270   30.3610   34.4900 C   0  0  0  0  0  0  0  0  0  0  0  0
   50.4560   29.9220   33.1740 C   0  0  0  0  0  0  0  0  0  0  0  0
   51.1110   28.9110   32.8050 O   0  0  0  0  0  0  0  0  0  0  0  0
   49.8020   30.6850   32.2720 N   0  0  0  0  0  0  0  0  0  0  0  0
   49.0720   31.7840   32.5390 C   0  0  0  0  0  0  0  0  0  0  0  0
   48.4510   32.4650   31.4520 N   0  0  0  0  0  0  0  0  0  0  0  0
   48.9530   32.2010   33.8210 N   0  0  0  0  0  0  0  0  0  0  0  0
   49.5760   31.4920   34.7780 C   0  0  0  0  0  0  0  0  0  0  0  0
   46.7770   34.7420   42.1120 C   0  0  0  0  0  0  0  0  0  0  0  0
   47.9940   35.2870   41.8380 C   0  0  0  0  0  0  0  0  0  0  0  0
   48.5800   35.0790   40.6350 C   0  0  0  0  0  0  0  0  0  0  0  0
   47.8050   34.2570   39.7380 C   0  0  0  0  0  0  0  0  0  0  0  0
   46.3010   33.8600   40.7030 S   0  0  0  0  0  0  0  0  0  0  0  0
   44.4810   35.9170   44.8650 C   0  0  0  0  0  0  0  0  0  0  0  0
   45.1260   35.9280   43.6020 C   0  0  0  0  0  0  0  0  0  0  0  0
   46.0340   34.8800   43.3440 C   0  0  0  0  0  0  0  0  0  0  0  0
   46.2220   33.9640   44.2910 N   0  0  0  0  0  0  0  0  0  0  0  0
   45.5940   33.9860   45.4740 C   0  0  0  0  0  0  0  0  0  0  0  0
   44.7230   34.9630   45.7600 N   0  0  0  0  0  0  0  0  0  0  0  0
   50.6803   30.4752   37.7092 H   0  0  0  0  0  0  0  0  0  0  0  0
   49.8681   30.3985   31.2848 H   0  0  0  0  0  0  0  0  0  0  0  0
   47.8867   33.3086   31.6277 H   0  0  0  0  0  0  0  0  0  0  0  0
   48.5665   32.1136   30.4907 H   0  0  0  0  0  0  0  0  0  0  0  0
   48.5035   35.8989   42.5969 H   0  0  0  0  0  0  0  0  0  0  0  0
   49.5601   35.4996   40.3657 H   0  0  0  0  0  0  0  0  0  0  0  0
   43.7647   36.7150   45.1100 H   0  0  0  0  0  0  0  0  0  0  0  0
   44.9278   36.7154   42.8599 H   0  0  0  0  0  0  0  0  0  0  0  0
   45.7945   33.1977   46.2146 H   0  0  0  0  0  0  0  0  0  0  0  0
  1 20  1  0
  2  1  2  0
  3  4  1  0
  3  2  1  0
  4  5  2  0
  5  1  1  0
  6  7  1  0
  6  4  1  0
  8  7  2  0
  9 16  2  0
  9  8  1  0
 10  9  1  0
 11 10  2  0
 12 13  1  0
 12 10  1  0
 13 15  2  0
 14 13  1  0
 15 16  1  0
 16  6  1  0
 17 24  1  0
 18 17  2  0
 19 18  1  0
 20 19  2  0
 20 21  1  0
 21 17  1  0
 22 27  2  0
 23 22  1  0
 24 23  2  0
 24 25  1  0
 25 26  2  0
 26 27  1  0
  7 28  1  0
 12 29  1  0
 14 30  1  0
 14 31  1  0
 18 32  1  0
 19 33  1  0
 22 34  1  0
 23 35  1  0
 26 36  1  0
M  END
>  <Score>  (1) 
-7.27514

$$$$
