
     RDKit          3D

 37 39  0  0  0  0  0  0  0  0999 V2000
   45.6077   35.2690   42.8953 C   0  0  0  0  0  0  0  0  0  0  0  0
   46.7520   35.0836   42.0975 C   0  0  0  0  0  0  0  0  0  0  0  0
   47.7333   34.2483   42.5924 C   0  0  0  0  0  0  0  0  0  0  0  0
   47.5722   33.6597   43.7773 N   0  0  0  0  0  0  0  0  0  0  0  0
   46.4707   33.8481   44.5297 C   0  0  0  0  0  0  0  0  0  0  0  0
   45.5108   34.6399   44.0890 N   0  0  0  0  0  0  0  0  0  0  0  0
   46.2372   33.2626   45.7970 N   0  0  0  0  0  0  0  0  0  0  0  0
   46.9274   32.2253   46.2907 C   0  0  0  0  0  0  0  0  0  0  0  0
   46.6050   31.7591   47.5553 C   0  0  0  0  0  0  0  0  0  0  0  0
   45.5946   32.3485   48.2942 C   0  0  0  0  0  0  0  0  0  0  0  0
   45.3763   31.8630   49.4219 O   0  0  0  0  0  0  0  0  0  0  0  0
   44.9492   33.3869   47.7231 N   0  0  0  0  0  0  0  0  0  0  0  0
   45.2514   33.8440   46.5056 C   0  0  0  0  0  0  0  0  0  0  0  0
   44.5427   34.8172   46.1391 O   0  0  0  0  0  0  0  0  0  0  0  0
   44.6203   36.0954   42.4159 O   0  0  0  0  0  0  0  0  0  0  0  0
   43.6736   35.6428   41.5419 C   0  0  0  0  0  0  0  0  0  0  0  0
   42.5354   35.1526   41.8069 O   0  0  0  0  0  0  0  0  0  0  0  0
   46.9003   35.5520   41.1359 H   0  0  0  0  0  0  0  0  0  0  0  0
   48.6217   34.0997   41.9804 H   0  0  0  0  0  0  0  0  0  0  0  0
   47.7040   31.8035   45.6738 H   0  0  0  0  0  0  0  0  0  0  0  0
   47.1631   30.9150   47.9625 H   0  0  0  0  0  0  0  0  0  0  0  0
   44.1901   33.7894   48.3405 H   0  0  0  0  0  0  0  0  0  0  0  0
   43.2075   35.3846   40.2091 N   0  0  0  0  0  0  0  0  0  0  0  0
   43.6067   34.3421   39.3453 C   0  0  0  0  0  0  0  0  0  0  0  0
   44.3614   34.9147   38.1644 C   0  0  0  0  0  0  0  0  0  0  0  0
   43.9429   36.2578   37.8469 N   0  0  0  0  0  0  0  0  0  0  0  0
   44.5900   37.0033   38.1136 H   0  0  0  0  0  0  0  0  0  0  0  0
   42.5509   36.4969   38.1505 C   0  0  0  0  0  0  0  0  0  0  0  0
   42.2033   36.2576   39.6044 C   0  0  0  0  0  0  0  0  0  0  0  0
   44.1601   33.5038   39.8002 H   0  0  0  0  0  0  0  0  0  0  0  0
   42.6869   33.8532   38.8953 H   0  0  0  0  0  0  0  0  0  0  0  0
   45.4502   34.9845   38.3857 H   0  0  0  0  0  0  0  0  0  0  0  0
   44.2278   34.2672   37.2744 H   0  0  0  0  0  0  0  0  0  0  0  0
   42.3732   37.5831   37.9596 H   0  0  0  0  0  0  0  0  0  0  0  0
   41.8837   35.9554   37.4797 H   0  0  0  0  0  0  0  0  0  0  0  0
   41.2241   35.7499   39.7080 H   0  0  0  0  0  0  0  0  0  0  0  0
   42.1139   37.2133   40.1790 H   0  0  0  0  0  0  0  0  0  0  0  0
  1  6  2  0
  2  3  2  0
  2  1  1  0
  3  4  1  0
  4  5  2  0
  5  7  1  0
  6  5  1  0
  7  8  1  0
  7 13  1  0
  8  9  2  0
  9 10  1  0
 10 11  2  0
 12 10  1  0
 13 12  1  0
 14 13  2  0
 15  1  1  0
 16 17  2  0
 16 15  1  0
  2 18  1  0
  3 19  1  0
  8 20  1  0
  9 21  1  0
 12 22  1  0
 23 24  1  0
 24 25  1  0
 25 26  1  0
 26 27  1  0
 26 28  1  0
 28 29  1  0
 29 23  1  0
 24 30  1  0
 24 31  1  0
 25 32  1  0
 25 33  1  0
 28 34  1  0
 28 35  1  0
 29 36  1  0
 29 37  1  0
 16 23  1  0
M  END
>  <Score>  (1) 
-7.09206

$$$$
