
     RDKit          3D

 39 42  0  0  1  0  0  0  0  0999 V2000
   45.8520   33.7900   45.1370 C   0  0  0  0  0  0  0  0  0  0  0  0
   46.6600   33.8280   43.9990 C   0  0  0  0  0  0  0  0  0  0  0  0
   46.4550   34.8620   43.0760 C   0  0  0  0  0  0  0  0  0  0  0  0
   45.4750   35.7840   43.3330 N   0  0  0  0  0  0  0  0  0  0  0  0
   44.7050   35.7280   44.4410 C   0  0  0  0  0  0  0  0  0  0  0  0
   44.8900   34.7380   45.3390 N   0  0  0  0  0  0  0  0  0  0  0  0
   47.2840   34.9100   41.8970 C   0  0  0  0  0  0  0  0  0  0  0  0
   48.5170   35.5850   41.7700 C   0  0  0  0  0  0  0  0  0  0  0  0
   48.9910   35.3990   40.5220 N   0  0  0  0  0  0  0  0  0  0  0  0
   48.0920   34.6300   39.8640 C   0  0  0  0  0  0  0  0  0  0  0  0
   48.1180   34.1610   38.5590 C   0  0  0  0  0  0  0  0  0  0  0  0
   47.0750   33.3850   38.1080 C   0  0  0  0  0  0  0  0  0  0  0  0
   45.9790   33.0400   38.9070 C   0  0  0  0  0  0  0  0  0  0  0  0
   46.0270   33.5400   40.1810 C   0  0  0  0  0  0  0  0  0  0  0  0
   47.0250   34.3120   40.6890 C   0  0  0  0  0  0  0  0  0  0  0  0
   45.9870   32.8160   46.0870 O   0  0  0  0  0  0  0  0  0  0  0  0
   45.3580   32.7860   47.3210 C   0  0  1  0  0  0  0  0  0  0  0  0
   45.2440   31.4760   48.0210 C   0  0  0  0  0  0  0  0  0  0  0  0
   46.2680   32.4540   48.4780 C   0  0  1  0  0  0  0  0  0  0  0  0
   47.6890   32.2200   48.2140 N   0  0  0  0  0  0  0  0  0  0  0  0
   48.4640   31.4280   49.1140 C   0  0  0  0  0  0  0  0  0  0  0  0
   47.8530   30.4380   49.7020 N   0  0  0  0  0  0  0  0  0  0  0  0
   49.8540   31.7520   49.3240 N   0  0  0  0  0  0  0  0  0  0  0  0
   48.3610   29.8270   50.3650 H   0  0  0  0  0  0  0  0  0  0  0  0
   47.4364   33.0669   43.8316 H   0  0  0  0  0  0  0  0  0  0  0  0
   43.9283   36.4881   44.6112 H   0  0  0  0  0  0  0  0  0  0  0  0
   49.0110   36.1682   42.5611 H   0  0  0  0  0  0  0  0  0  0  0  0
   49.8720   35.7720   40.1405 H   0  0  0  0  0  0  0  0  0  0  0  0
   48.9598   34.4057   37.8945 H   0  0  0  0  0  0  0  0  0  0  0  0
   47.1040   33.0188   37.0712 H   0  0  0  0  0  0  0  0  0  0  0  0
   45.1479   32.4187   38.5419 H   0  0  0  0  0  0  0  0  0  0  0  0
   45.1880   33.2969   40.8496 H   0  0  0  0  0  0  0  0  0  0  0  0
   44.6378   33.5776   47.0669 H   0  0  0  0  0  0  0  0  0  0  0  0
   44.3672   31.2665   48.6513 H   0  0  0  0  0  0  0  0  0  0  0  0
   45.2693   30.4241   47.7004 H   0  0  0  0  0  0  0  0  0  0  0  0
   46.5155   32.9147   49.4457 H   0  0  0  0  0  0  0  0  0  0  0  0
   48.1303   32.6276   47.3773 H   0  0  0  0  0  0  0  0  0  0  0  0
   50.4224   31.1872   49.9712 H   0  0  0  0  0  0  0  0  0  0  0  0
   50.2780   32.5482   48.8268 H   0  0  0  0  0  0  0  0  0  0  0  0
  1  6  1  0
  1 16  1  0
  2  1  2  0
  3  4  2  0
  3  2  1  0
  4  5  1  0
  5  6  2  0
  7  3  1  0
  8  7  2  0
  9  8  1  0
 10  9  1  0
 10 15  2  0
 11 10  1  0
 12 11  2  0
 12 13  1  0
 13 14  2  0
 14 15  1  0
 15  7  1  0
 16 17  1  0
 17 18  1  0
 17 19  1  0
 18 19  1  0
 20 19  1  0
 20 21  1  0
 21 23  1  0
 21 22  2  0
 22 24  1  0
  2 25  1  0
  5 26  1  0
  8 27  1  0
  9 28  1  0
 11 29  1  0
 12 30  1  0
 13 31  1  0
 14 32  1  0
 17 33  1  1
 18 34  1  0
 18 35  1  0
 19 36  1  1
 20 37  1  0
 23 38  1  0
 23 39  1  0
M  END
>  <Score>  (1) 
-7.21444

$$$$
