
     RDKit          3D

 52 56  0  0  0  0  0  0  0  0999 V2000
   46.1320   31.8270   47.2880 C   0  0  0  0  0  0  0  0  0  0  0  0
   44.5730   34.9420   46.1950 C   0  0  0  0  0  0  0  0  0  0  0  0
   44.8090   34.9480   44.8130 C   0  0  0  0  0  0  0  0  0  0  0  0
   45.5110   33.8750   44.2390 C   0  0  0  0  0  0  0  0  0  0  0  0
   45.9230   32.8870   45.0600 N   0  0  0  0  0  0  0  0  0  0  0  0
   45.6750   32.9160   46.3980 C   0  0  0  0  0  0  0  0  0  0  0  0
   45.0090   33.9320   46.9550 N   0  0  0  0  0  0  0  0  0  0  0  0
   45.7210   33.9280   42.8490 N   0  0  0  0  0  0  0  0  0  0  0  0
   44.9690   33.7220   41.7660 C   0  0  0  0  0  0  0  0  0  0  0  0
   45.6910   33.9140   40.6370 N   0  0  0  0  0  0  0  0  0  0  0  0
   46.9340   34.2500   41.0020 C   0  0  0  0  0  0  0  0  0  0  0  0
   48.0540   34.5480   40.2350 C   0  0  0  0  0  0  0  0  0  0  0  0
   48.0510   34.5440   39.0060 O   0  0  0  0  0  0  0  0  0  0  0  0
   49.2190   34.8640   40.8610 N   0  0  0  0  0  0  0  0  0  0  0  0
   49.2210   34.8690   42.1940 C   0  0  0  0  0  0  0  0  0  0  0  0
   50.3770   35.1820   42.9560 N   0  0  0  0  0  0  0  0  0  0  0  0
   48.1540   34.5830   42.9300 N   0  0  0  0  0  0  0  0  0  0  0  0
   46.9530   34.2580   42.3870 C   0  0  0  0  0  0  0  0  0  0  0  0
   47.3010   32.2910   48.1320 C   0  0  0  0  0  0  0  0  0  0  0  0
   45.0390   31.3320   48.1960 C   0  0  0  0  0  0  0  0  0  0  0  0
   46.6390   30.7030   46.3950 C   0  0  0  0  0  0  0  0  0  0  0  0
   45.6540   29.5770   46.3290 C   0  0  0  0  0  0  0  0  0  0  0  0
   45.8020   28.5070   47.1390 C   0  0  0  0  0  0  0  0  0  0  0  0
   44.4200   27.3800   46.7530 S   0  0  0  0  0  0  0  0  0  0  0  0
   43.8160   28.6260   45.4640 C   0  0  0  0  0  0  0  0  0  0  0  0
   44.6110   29.4750   45.5560 N   0  0  0  0  0  0  0  0  0  0  0  0
   42.6600   28.5960   44.5530 N   0  0  0  0  0  0  0  0  0  0  0  0
   42.6640   29.3230   43.4410 C   0  0  0  0  0  0  0  0  0  0  0  0
   41.5200   29.2000   42.6810 C   0  0  0  0  0  0  0  0  0  0  0  0
   40.4500   28.3850   43.0450 C   0  0  0  0  0  0  0  0  0  0  0  0
   39.4010   28.2430   42.3940 O   0  0  0  0  0  0  0  0  0  0  0  0
   40.5590   27.6920   44.1990 N   0  0  0  0  0  0  0  0  0  0  0  0
   41.6690   27.7950   44.9600 C   0  0  0  0  0  0  0  0  0  0  0  0
   41.7070   27.1240   46.0200 O   0  0  0  0  0  0  0  0  0  0  0  0
   44.0244   35.7754   46.6581 H   0  0  0  0  0  0  0  0  0  0  0  0
   44.4503   35.7793   44.1883 H   0  0  0  0  0  0  0  0  0  0  0  0
   43.9072   33.4353   41.7877 H   0  0  0  0  0  0  0  0  0  0  0  0
   50.0687   35.0911   40.3249 H   0  0  0  0  0  0  0  0  0  0  0  0
   50.3333   35.1737   43.9850 H   0  0  0  0  0  0  0  0  0  0  0  0
   51.2595   35.4174   42.4799 H   0  0  0  0  0  0  0  0  0  0  0  0
   47.0469   32.1901   49.1975 H   0  0  0  0  0  0  0  0  0  0  0  0
   48.1839   31.6751   47.9057 H   0  0  0  0  0  0  0  0  0  0  0  0
   47.5212   33.3447   47.9057 H   0  0  0  0  0  0  0  0  0  0  0  0
   45.3427   31.4696   49.2442 H   0  0  0  0  0  0  0  0  0  0  0  0
   44.1171   31.9004   48.0038 H   0  0  0  0  0  0  0  0  0  0  0  0
   44.8581   30.2641   48.0038 H   0  0  0  0  0  0  0  0  0  0  0  0
   46.8024   31.0965   45.3809 H   0  0  0  0  0  0  0  0  0  0  0  0
   47.5788   30.3190   46.8184 H   0  0  0  0  0  0  0  0  0  0  0  0
   46.5966   28.3468   47.8826 H   0  0  0  0  0  0  0  0  0  0  0  0
   43.5072   29.9674   43.1515 H   0  0  0  0  0  0  0  0  0  0  0  0
   41.4488   29.7718   41.7440 H   0  0  0  0  0  0  0  0  0  0  0  0
   39.7881   27.0793   44.5011 H   0  0  0  0  0  0  0  0  0  0  0  0
  1 19  1  0
  1 20  1  0
  2  7  2  0
  3  2  1  0
  4  3  2  0
  4  5  1  0
  5  6  2  0
  6  7  1  0
  6  1  1  0
  8  4  1  0
  9  8  1  0
 10 11  1  0
 10  9  2  0
 11 18  2  0
 12 14  1  0
 12 11  1  0
 13 12  2  0
 14 15  1  0
 15 17  2  0
 15 16  1  0
 18  8  1  0
 18 17  1  0
 21  1  1  0
 22 21  1  0
 22 23  2  0
 24 23  1  0
 25 26  2  0
 25 24  1  0
 26 22  1  0
 27 33  1  0
 27 25  1  0
 28 27  1  0
 29 30  1  0
 29 28  2  0
 30 32  1  0
 31 30  2  0
 32 33  1  0
 33 34  2  0
  2 35  1  0
  3 36  1  0
  9 37  1  0
 14 38  1  0
 16 39  1  0
 16 40  1  0
 19 41  1  0
 19 42  1  0
 19 43  1  0
 20 44  1  0
 20 45  1  0
 20 46  1  0
 21 47  1  0
 21 48  1  0
 23 49  1  0
 28 50  1  0
 29 51  1  0
 32 52  1  0
M  END
>  <Score>  (1) 
-7.76261

$$$$
