
     RDKit          3D

 47 51  0  0  0  0  0  0  0  0999 V2000
   46.5830   34.6670   42.0600 C   0  0  0  0  0  0  0  0  0  0  0  0
   47.7880   35.2910   41.8780 C   0  0  0  0  0  0  0  0  0  0  0  0
   48.5160   35.1600   40.6910 C   0  0  0  0  0  0  0  0  0  0  0  0
   47.9790   34.3570   39.6530 C   0  0  0  0  0  0  0  0  0  0  0  0
   46.7550   33.7270   39.8460 C   0  0  0  0  0  0  0  0  0  0  0  0
   46.0920   33.9010   41.0430 C   0  0  0  0  0  0  0  0  0  0  0  0
   44.8300   33.2390   41.2140 N   0  0  0  0  0  0  0  0  0  0  0  0
   44.6150   31.9850   41.6620 C   0  0  0  0  0  0  0  0  0  0  0  0
   43.3480   31.4990   41.7690 C   0  0  0  0  0  0  0  0  0  0  0  0
   42.2560   32.2720   41.4220 C   0  0  0  0  0  0  0  0  0  0  0  0
   41.0930   31.7830   41.5360 O   0  0  0  0  0  0  0  0  0  0  0  0
   42.5040   33.5310   40.9730 N   0  0  0  0  0  0  0  0  0  0  0  0
   43.7490   33.9960   40.8740 C   0  0  0  0  0  0  0  0  0  0  0  0
   43.8450   35.1910   40.4400 O   0  0  0  0  0  0  0  0  0  0  0  0
   41.3550   34.2990   40.6260 C   0  0  0  0  0  0  0  0  0  0  0  0
   41.3150   35.6240   40.9690 C   0  0  0  0  0  0  0  0  0  0  0  0
   40.0960   36.1500   40.5210 C   0  0  0  0  0  0  0  0  0  0  0  0
   39.4500   35.0960   39.9190 N   0  0  0  0  0  0  0  0  0  0  0  0
   40.2000   34.0200   39.9890 N   0  0  0  0  0  0  0  0  0  0  0  0
   44.4460   36.0130   44.8680 C   0  0  0  0  0  0  0  0  0  0  0  0
   45.0440   35.9090   43.6160 C   0  0  0  0  0  0  0  0  0  0  0  0
   45.9050   34.8690   43.3340 C   0  0  0  0  0  0  0  0  0  0  0  0
   46.1490   33.9550   44.3180 N   0  0  0  0  0  0  0  0  0  0  0  0
   45.5590   34.0660   45.5420 C   0  0  0  0  0  0  0  0  0  0  0  0
   44.7170   35.0810   45.8170 N   0  0  0  0  0  0  0  0  0  0  0  0
   45.8080   33.1150   46.5760 N   0  0  0  0  0  0  0  0  0  0  0  0
   45.1180   33.1720   47.7530 C   0  0  0  0  0  0  0  0  0  0  0  0
   45.4570   32.1970   48.6600 C   0  0  0  0  0  0  0  0  0  0  0  0
   46.3890   31.2040   48.5080 C   0  0  0  0  0  0  0  0  0  0  0  0
   46.6270   30.3560   49.4000 O   0  0  0  0  0  0  0  0  0  0  0  0
   47.0280   31.2240   47.3040 N   0  0  0  0  0  0  0  0  0  0  0  0
   46.7500   32.1510   46.3600 C   0  0  0  0  0  0  0  0  0  0  0  0
   47.3800   32.1110   45.2670 O   0  0  0  0  0  0  0  0  0  0  0  0
   48.1952   35.9132   42.6886 H   0  0  0  0  0  0  0  0  0  0  0  0
   49.4833   35.6684   40.5655 H   0  0  0  0  0  0  0  0  0  0  0  0
   48.5247   34.2340   38.7059 H   0  0  0  0  0  0  0  0  0  0  0  0
   46.3209   33.0981   39.0547 H   0  0  0  0  0  0  0  0  0  0  0  0
   45.4690   31.3510   41.9427 H   0  0  0  0  0  0  0  0  0  0  0  0
   43.1907   30.4746   42.1376 H   0  0  0  0  0  0  0  0  0  0  0  0
   42.1015   36.1780   41.5024 H   0  0  0  0  0  0  0  0  0  0  0  0
   39.7339   37.1832   40.6278 H   0  0  0  0  0  0  0  0  0  0  0  0
   38.5195   35.1431   39.4799 H   0  0  0  0  0  0  0  0  0  0  0  0
   43.7591   36.8438   45.0870 H   0  0  0  0  0  0  0  0  0  0  0  0
   44.8282   36.6627   42.8444 H   0  0  0  0  0  0  0  0  0  0  0  0
   44.3535   33.9358   47.9582 H   0  0  0  0  0  0  0  0  0  0  0  0
   44.9180   32.2158   49.6187 H   0  0  0  0  0  0  0  0  0  0  0  0
   47.7447   30.5109   47.1074 H   0  0  0  0  0  0  0  0  0  0  0  0
  1 22  1  0
  2  1  2  0
  3  2  1  0
  4  5  1  0
  4  3  2  0
  5  6  2  0
  6  7  1  0
  6  1  1  0
  7  8  1  0
  8  9  2  0
 10 11  2  0
 10  9  1  0
 12 10  1  0
 13 12  1  0
 13  7  1  0
 14 13  2  0
 15 16  1  0
 15 12  1  0
 17 16  2  0
 18 19  1  0
 18 17  1  0
 19 15  2  0
 20 25  2  0
 21 20  1  0
 22 21  2  0
 22 23  1  0
 23 24  2  0
 24 25  1  0
 24 26  1  0
 26 27  1  0
 27 28  2  0
 29 28  1  0
 29 30  2  0
 31 29  1  0
 32 26  1  0
 32 31  1  0
 33 32  2  0
  2 34  1  0
  3 35  1  0
  4 36  1  0
  5 37  1  0
  8 38  1  0
  9 39  1  0
 16 40  1  0
 17 41  1  0
 18 42  1  0
 20 43  1  0
 21 44  1  0
 27 45  1  0
 28 46  1  0
 31 47  1  0
M  END
>  <Score>  (1) 
-9.36777

$$$$
