
     RDKit          3D

 44 48  0  0  0  0  0  0  0  0999 V2000
   46.5250   34.3800   41.6320 N   0  0  0  0  0  0  0  0  0  0  0  0
   45.9400   33.8270   40.5740 C   0  0  0  0  0  0  0  0  0  0  0  0
   46.5200   33.6500   39.3550 C   0  0  0  0  0  0  0  0  0  0  0  0
   47.8380   34.1180   39.2990 C   0  0  0  0  0  0  0  0  0  0  0  0
   48.4970   34.0150   38.2210 O   0  0  0  0  0  0  0  0  0  0  0  0
   48.4870   34.6930   40.3530 N   0  0  0  0  0  0  0  0  0  0  0  0
   47.8110   34.8190   41.5260 C   0  0  0  0  0  0  0  0  0  0  0  0
   48.4590   35.3540   42.4520 O   0  0  0  0  0  0  0  0  0  0  0  0
   44.6540   36.0180   44.3530 C   0  0  0  0  0  0  0  0  0  0  0  0
   45.2270   35.7460   43.0850 C   0  0  0  0  0  0  0  0  0  0  0  0
   45.9880   34.5890   42.9060 C   0  0  0  0  0  0  0  0  0  0  0  0
   46.1390   33.7640   43.9900 N   0  0  0  0  0  0  0  0  0  0  0  0
   45.5800   34.0580   45.1720 C   0  0  0  0  0  0  0  0  0  0  0  0
   44.8440   35.1610   45.3810 N   0  0  0  0  0  0  0  0  0  0  0  0
   45.8040   33.1140   46.2450 C   0  0  0  0  0  0  0  0  0  0  0  0
   45.2810   33.0000   47.4790 C   0  0  0  0  0  0  0  0  0  0  0  0
   45.6470   32.0110   48.3270 C   0  0  0  0  0  0  0  0  0  0  0  0
   46.6400   31.1110   47.7670 C   0  0  0  0  0  0  0  0  0  0  0  0
   46.9550   31.7530   46.1050 S   0  0  0  0  0  0  0  0  0  0  0  0
   45.8580   33.0380   38.2160 C   0  0  0  0  0  0  0  0  0  0  0  0
   46.5450   31.9360   37.6090 N   0  0  0  0  0  0  0  0  0  0  0  0
   46.9100   30.7970   38.2560 C   0  0  0  0  0  0  0  0  0  0  0  0
   47.5420   29.9290   37.4280 N   0  0  0  0  0  0  0  0  0  0  0  0
   47.5980   30.4930   36.2260 C   0  0  0  0  0  0  0  0  0  0  0  0
   48.1130   30.1090   34.9900 C   0  0  0  0  0  0  0  0  0  0  0  0
   48.6520   28.9740   34.9750 O   0  0  0  0  0  0  0  0  0  0  0  0
   48.0200   30.9170   33.9220 N   0  0  0  0  0  0  0  0  0  0  0  0
   47.4140   32.1130   34.0760 C   0  0  0  0  0  0  0  0  0  0  0  0
   47.3630   32.8990   32.8960 N   0  0  0  0  0  0  0  0  0  0  0  0
   46.9050   32.5080   35.2710 N   0  0  0  0  0  0  0  0  0  0  0  0
   46.9820   31.7220   36.3550 C   0  0  0  0  0  0  0  0  0  0  0  0
   44.9016   33.4841   40.6933 H   0  0  0  0  0  0  0  0  0  0  0  0
   49.4590   35.0214   40.2626 H   0  0  0  0  0  0  0  0  0  0  0  0
   44.0538   36.9279   44.5005 H   0  0  0  0  0  0  0  0  0  0  0  0
   45.0730   36.4422   42.2473 H   0  0  0  0  0  0  0  0  0  0  0  0
   44.5317   33.7344   47.8095 H   0  0  0  0  0  0  0  0  0  0  0  0
   45.2334   31.8997   49.3402 H   0  0  0  0  0  0  0  0  0  0  0  0
   47.0987   30.2338   48.2468 H   0  0  0  0  0  0  0  0  0  0  0  0
   44.8743   32.6780   38.5517 H   0  0  0  0  0  0  0  0  0  0  0  0
   45.8108   33.8203   37.4441 H   0  0  0  0  0  0  0  0  0  0  0  0
   46.7161   30.6034   39.3213 H   0  0  0  0  0  0  0  0  0  0  0  0
   48.4013   30.6316   33.0087 H   0  0  0  0  0  0  0  0  0  0  0  0
   46.9194   33.8284   32.9150 H   0  0  0  0  0  0  0  0  0  0  0  0
   47.7696   32.5403   32.0203 H   0  0  0  0  0  0  0  0  0  0  0  0
  1 11  1  0
  2  1  1  0
  3  2  2  0
  4  3  1  0
  4  6  1  0
  5  4  2  0
  6  7  1  0
  7  1  1  0
  7  8  2  0
  9 14  2  0
 10  9  1  0
 11 10  2  0
 11 12  1  0
 12 13  2  0
 13 14  1  0
 13 15  1  0
 15 16  2  0
 16 17  1  0
 18 17  2  0
 19 15  1  0
 19 18  1  0
 20  3  1  0
 21 20  1  0
 21 22  1  0
 23 22  2  0
 24 31  2  0
 24 23  1  0
 25 24  1  0
 26 25  2  0
 27 28  1  0
 27 25  1  0
 28 30  2  0
 29 28  1  0
 30 31  1  0
 31 21  1  0
  2 32  1  0
  6 33  1  0
  9 34  1  0
 10 35  1  0
 16 36  1  0
 17 37  1  0
 18 38  1  0
 20 39  1  0
 20 40  1  0
 22 41  1  0
 27 42  1  0
 29 43  1  0
 29 44  1  0
M  END
>  <Score>  (1) 
-7.11465

$$$$
