
     RDKit          3D

 54 59  0  0  0  0  0  0  0  0999 V2000
   45.3690   33.8860   41.8210 C   0  0  0  0  0  0  0  0  0  0  0  0
   44.3490   33.3500   41.0880 C   0  0  0  0  0  0  0  0  0  0  0  0
   45.1630   33.1570   39.4260 S   0  0  0  0  0  0  0  0  0  0  0  0
   46.7730   33.8570   40.0520 C   0  0  0  0  0  0  0  0  0  0  0  0
   46.4860   34.0640   41.1430 N   0  0  0  0  0  0  0  0  0  0  0  0
   44.4760   35.7450   44.9760 C   0  0  0  0  0  0  0  0  0  0  0  0
   44.6110   35.4400   43.6300 C   0  0  0  0  0  0  0  0  0  0  0  0
   45.2120   34.2320   43.2600 C   0  0  0  0  0  0  0  0  0  0  0  0
   45.6330   33.4180   44.2400 N   0  0  0  0  0  0  0  0  0  0  0  0
   45.4980   33.7210   45.5440 C   0  0  0  0  0  0  0  0  0  0  0  0
   44.9260   34.8690   45.8960 N   0  0  0  0  0  0  0  0  0  0  0  0
   45.9790   32.7870   46.5450 C   0  0  0  0  0  0  0  0  0  0  0  0
   47.0260   31.9200   46.2700 C   0  0  0  0  0  0  0  0  0  0  0  0
   47.5240   31.0180   47.1680 C   0  0  0  0  0  0  0  0  0  0  0  0
   46.9920   30.9540   48.3730 N   0  0  0  0  0  0  0  0  0  0  0  0
   45.9630   31.7950   48.6640 C   0  0  0  0  0  0  0  0  0  0  0  0
   45.4400   32.7100   47.7860 N   0  0  0  0  0  0  0  0  0  0  0  0
   45.2470   31.8800   49.9170 N   0  0  0  0  0  0  0  0  0  0  0  0
   47.9250   33.9900   39.1670 C   0  0  0  0  0  0  0  0  0  0  0  0
   48.7260   32.7170   39.1620 C   0  0  0  0  0  0  0  0  0  0  0  0
   48.6540   32.1780   37.7540 C   0  0  0  0  0  0  0  0  0  0  0  0
   49.9080   31.8190   37.2480 C   0  0  0  0  0  0  0  0  0  0  0  0
   49.9160   31.3190   35.9670 C   0  0  0  0  0  0  0  0  0  0  0  0
   48.8100   31.1820   35.2480 N   0  0  0  0  0  0  0  0  0  0  0  0
   47.6100   31.5380   35.7680 C   0  0  0  0  0  0  0  0  0  0  0  0
   47.5740   32.0290   37.0150 N   0  0  0  0  0  0  0  0  0  0  0  0
   46.3610   31.4080   35.0210 C   0  0  0  0  0  0  0  0  0  0  0  0
   45.5580   32.4330   34.5450 C   0  0  0  0  0  0  0  0  0  0  0  0
   44.5030   31.8730   33.9140 N   0  0  0  0  0  0  0  0  0  0  0  0
   44.5970   30.5230   33.9660 C   0  0  0  0  0  0  0  0  0  0  0  0
   43.7430   29.5420   33.4550 C   0  0  0  0  0  0  0  0  0  0  0  0
   44.1470   28.2390   33.6930 C   0  0  0  0  0  0  0  0  0  0  0  0
   45.2790   27.8650   34.3670 C   0  0  0  0  0  0  0  0  0  0  0  0
   46.0630   28.8970   34.8380 C   0  0  0  0  0  0  0  0  0  0  0  0
   45.7510   30.2150   34.6550 C   0  0  0  0  0  0  0  0  0  0  0  0
   43.3233   33.0999   41.3967 H   0  0  0  0  0  0  0  0  0  0  0  0
   44.0076   36.6899   45.2888 H   0  0  0  0  0  0  0  0  0  0  0  0
   44.2497   36.1398   42.8620 H   0  0  0  0  0  0  0  0  0  0  0  0
   47.4826   31.9607   45.2701 H   0  0  0  0  0  0  0  0  0  0  0  0
   48.3565   30.3550   46.8897 H   0  0  0  0  0  0  0  0  0  0  0  0
   44.4796   32.5583   50.0267 H   0  0  0  0  0  0  0  0  0  0  0  0
   45.5042   31.2623   50.7001 H   0  0  0  0  0  0  0  0  0  0  0  0
   47.5760   34.2037   38.1460 H   0  0  0  0  0  0  0  0  0  0  0  0
   48.5607   34.8126   39.5265 H   0  0  0  0  0  0  0  0  0  0  0  0
   49.7706   32.9230   39.4382 H   0  0  0  0  0  0  0  0  0  0  0  0
   48.3303   31.9923   39.8887 H   0  0  0  0  0  0  0  0  0  0  0  0
   50.8298   31.9298   37.8379 H   0  0  0  0  0  0  0  0  0  0  0  0
   50.8767   31.0212   35.5215 H   0  0  0  0  0  0  0  0  0  0  0  0
   45.7464   33.5106   34.6606 H   0  0  0  0  0  0  0  0  0  0  0  0
   43.7400   32.3955   33.4604 H   0  0  0  0  0  0  0  0  0  0  0  0
   42.8214   29.7859   32.9063 H   0  0  0  0  0  0  0  0  0  0  0  0
   43.5030   27.4349   33.3074 H   0  0  0  0  0  0  0  0  0  0  0  0
   45.5457   26.8092   34.5226 H   0  0  0  0  0  0  0  0  0  0  0  0
   46.9830   28.6477   35.3870 H   0  0  0  0  0  0  0  0  0  0  0  0
  1  8  1  0
  2  1  2  0
  3  4  1  0
  3  2  1  0
  4  5  2  0
  5  1  1  0
  6 11  2  0
  7  6  1  0
  8  7  2  0
  8  9  1  0
  9 10  2  0
 10 11  1  0
 10 12  1  0
 12 17  1  0
 13 12  2  0
 13 14  1  0
 14 15  2  0
 15 16  1  0
 16 18  1  0
 17 16  2  0
 19  4  1  0
 20 19  1  0
 21 20  1  0
 22 21  2  0
 23 22  1  0
 24 25  1  0
 24 23  2  0
 25 26  2  0
 26 21  1  0
 27 25  1  0
 28 27  2  0
 29 30  1  0
 29 28  1  0
 30 35  2  0
 31 32  2  0
 31 30  1  0
 32 33  1  0
 33 34  2  0
 35 34  1  0
 35 27  1  0
  2 36  1  0
  6 37  1  0
  7 38  1  0
 13 39  1  0
 14 40  1  0
 18 41  1  0
 18 42  1  0
 19 43  1  0
 19 44  1  0
 20 45  1  0
 20 46  1  0
 22 47  1  0
 23 48  1  0
 28 49  1  0
 29 50  1  0
 31 51  1  0
 32 52  1  0
 33 53  1  0
 34 54  1  0
M  END
>  <Score>  (1) 
-7.27588

$$$$
