
     RDKit          3D

 31 33  0  0  0  0  0  0  0  0999 V2000
   44.5690   35.6150   44.9050 C   0  0  0  0  0  0  0  0  0  0  0  0
   45.2240   35.6150   43.6670 C   0  0  0  0  0  0  0  0  0  0  0  0
   46.1920   34.6270   43.4140 C   0  0  0  0  0  0  0  0  0  0  0  0
   46.4670   33.7010   44.3750 N   0  0  0  0  0  0  0  0  0  0  0  0
   45.7980   33.7450   45.5690 C   0  0  0  0  0  0  0  0  0  0  0  0
   44.8620   34.6820   45.8440 N   0  0  0  0  0  0  0  0  0  0  0  0
   46.1090   32.7430   46.5840 C   0  0  0  0  0  0  0  0  0  0  0  0
   47.0460   31.7560   46.3160 C   0  0  0  0  0  0  0  0  0  0  0  0
   47.3870   30.7780   47.2300 C   0  0  0  0  0  0  0  0  0  0  0  0
   46.7940   30.7700   48.4360 N   0  0  0  0  0  0  0  0  0  0  0  0
   45.8800   31.7370   48.6910 C   0  0  0  0  0  0  0  0  0  0  0  0
   45.5460   32.6970   47.7920 N   0  0  0  0  0  0  0  0  0  0  0  0
   45.1660   31.8630   49.9200 N   0  0  0  0  0  0  0  0  0  0  0  0
   46.8520   34.6320   42.1580 N   0  0  0  0  0  0  0  0  0  0  0  0
   48.0200   35.3070   41.9900 C   0  0  0  0  0  0  0  0  0  0  0  0
   48.6060   35.2680   40.7430 C   0  0  0  0  0  0  0  0  0  0  0  0
   48.0620   34.5830   39.6760 C   0  0  0  0  0  0  0  0  0  0  0  0
   48.7410   34.6030   38.4260 N   0  0  0  0  0  0  0  0  0  0  0  0
   46.9060   33.9340   39.8940 N   0  0  0  0  0  0  0  0  0  0  0  0
   46.3180   33.9640   41.1220 C   0  0  0  0  0  0  0  0  0  0  0  0
   45.2290   33.3430   41.3020 O   0  0  0  0  0  0  0  0  0  0  0  0
   43.8083   36.3806   45.1178 H   0  0  0  0  0  0  0  0  0  0  0  0
   44.9857   36.3736   42.9069 H   0  0  0  0  0  0  0  0  0  0  0  0
   47.5391   31.7519   45.3327 H   0  0  0  0  0  0  0  0  0  0  0  0
   48.1358   30.0141   46.9735 H   0  0  0  0  0  0  0  0  0  0  0  0
   44.4842   32.6250   50.0437 H   0  0  0  0  0  0  0  0  0  0  0  0
   45.3324   31.1919   50.6834 H   0  0  0  0  0  0  0  0  0  0  0  0
   48.4807   35.8641   42.8191 H   0  0  0  0  0  0  0  0  0  0  0  0
   49.5520   35.8085   40.5914 H   0  0  0  0  0  0  0  0  0  0  0  0
   49.6254   35.1219   38.3286 H   0  0  0  0  0  0  0  0  0  0  0  0
   48.3482   34.0986   37.6184 H   0  0  0  0  0  0  0  0  0  0  0  0
  1  6  2  0
  2  1  1  0
  3  2  2  0
  3  4  1  0
  4  5  2  0
  5  6  1  0
  5  7  1  0
  7 12  1  0
  8  7  2  0
  8  9  1  0
  9 10  2  0
 10 11  1  0
 11 13  1  0
 12 11  2  0
 14  3  1  0
 15 14  1  0
 16 15  2  0
 17 19  2  0
 17 16  1  0
 18 17  1  0
 19 20  1  0
 20 21  2  0
 20 14  1  0
  1 22  1  0
  2 23  1  0
  8 24  1  0
  9 25  1  0
 13 26  1  0
 13 27  1  0
 15 28  1  0
 16 29  1  0
 18 30  1  0
 18 31  1  0
M  END
>  <Score>  (1) 
-7.1338

$$$$
