
     RDKit          3D

 42 45  0  0  1  0  0  0  0  0999 V2000
   46.9060   34.4820   41.7490 N   0  0  0  0  0  0  0  0  0  0  0  0
   48.3390   34.4690   41.8190 C   0  0  0  0  0  0  0  0  0  0  0  0
   48.9160   33.6720   40.6980 C   0  0  0  0  0  0  0  0  0  0  0  0
   48.3400   34.1710   39.4570 N   0  0  0  0  0  0  0  0  0  0  0  0
   47.0000   33.6330   39.4380 C   0  0  0  0  0  0  0  0  0  0  0  0
   46.1520   34.2160   40.5420 C   0  0  1  0  0  0  0  0  0  0  0  0
   44.6990   36.1200   44.2820 C   0  0  0  0  0  0  0  0  0  0  0  0
   45.4020   35.9210   43.0990 C   0  0  0  0  0  0  0  0  0  0  0  0
   46.1570   34.7700   42.9210 C   0  0  0  0  0  0  0  0  0  0  0  0
   46.1360   33.9100   43.9660 N   0  0  0  0  0  0  0  0  0  0  0  0
   45.4720   34.0770   45.1050 C   0  0  0  0  0  0  0  0  0  0  0  0
   44.7510   35.1870   45.2650 N   0  0  0  0  0  0  0  0  0  0  0  0
   45.5200   33.0970   46.1490 N   0  0  0  0  0  0  0  0  0  0  0  0
   45.0740   33.4440   47.4550 C   0  0  0  0  0  0  0  0  0  0  0  0
   44.1450   34.3030   47.6050 N   0  0  0  0  0  0  0  0  0  0  0  0
   45.6770   32.8190   48.5810 N   0  0  0  0  0  0  0  0  0  0  0  0
   43.8110   34.5650   48.5360 H   0  0  0  0  0  0  0  0  0  0  0  0
   44.9760   33.4050   40.7450 N   0  0  0  0  0  0  0  0  0  0  0  0
   44.8730   32.1130   41.0610 C   0  0  0  0  0  0  0  0  0  0  0  0
   43.5820   31.7030   41.1670 N   0  0  0  0  0  0  0  0  0  0  0  0
   42.8160   32.7750   40.9080 C   0  0  0  0  0  0  0  0  0  0  0  0
   41.4560   33.0360   40.8490 C   0  0  0  0  0  0  0  0  0  0  0  0
   41.0030   34.2840   40.5460 N   0  0  0  0  0  0  0  0  0  0  0  0
   41.9000   35.2760   40.2990 C   0  0  0  0  0  0  0  0  0  0  0  0
   43.2260   35.0440   40.3510 N   0  0  0  0  0  0  0  0  0  0  0  0
   43.6830   33.8110   40.6500 C   0  0  0  0  0  0  0  0  0  0  0  0
   48.7126   35.5018   41.7571 H   0  0  0  0  0  0  0  0  0  0  0  0
   48.6417   34.0092   42.7713 H   0  0  0  0  0  0  0  0  0  0  0  0
   50.0094   33.7909   40.6779 H   0  0  0  0  0  0  0  0  0  0  0  0
   48.6866   32.6039   40.8269 H   0  0  0  0  0  0  0  0  0  0  0  0
   48.3189   35.2008   39.4537 H   0  0  0  0  0  0  0  0  0  0  0  0
   46.5349   33.8671   38.4690 H   0  0  0  0  0  0  0  0  0  0  0  0
   47.0635   32.5455   39.5905 H   0  0  0  0  0  0  0  0  0  0  0  0
   45.8039   35.2105   40.2261 H   0  0  0  0  0  0  0  0  0  0  0  0
   44.1014   37.0331   44.4205 H   0  0  0  0  0  0  0  0  0  0  0  0
   45.3597   36.6779   42.3019 H   0  0  0  0  0  0  0  0  0  0  0  0
   45.8743   32.1493   45.9559 H   0  0  0  0  0  0  0  0  0  0  0  0
   45.3647   33.0600   49.5324 H   0  0  0  0  0  0  0  0  0  0  0  0
   46.4261   32.1253   48.4451 H   0  0  0  0  0  0  0  0  0  0  0  0
   45.7382   31.4522   41.2184 H   0  0  0  0  0  0  0  0  0  0  0  0
   40.7365   32.2282   41.0486 H   0  0  0  0  0  0  0  0  0  0  0  0
   41.5367   36.2846   40.0526 H   0  0  0  0  0  0  0  0  0  0  0  0
  1  2  1  0
  1  9  1  0
  3  2  1  0
  4  3  1  0
  5  4  1  0
  5  6  1  0
  6 18  1  0
  6  1  1  0
  7 12  2  0
  8  7  1  0
  9  8  2  0
  9 10  1  0
 10 11  2  0
 11 12  1  0
 11 13  1  0
 13 14  1  0
 14 15  2  0
 14 16  1  0
 15 17  1  0
 18 19  1  0
 19 20  2  0
 21 20  1  0
 22 21  2  0
 23 22  1  0
 24 25  1  0
 24 23  2  0
 25 26  2  0
 26 18  1  0
 26 21  1  0
  2 27  1  0
  2 28  1  0
  3 29  1  0
  3 30  1  0
  4 31  1  0
  5 32  1  0
  5 33  1  0
  6 34  1  6
  7 35  1  0
  8 36  1  0
 13 37  1  0
 16 38  1  0
 16 39  1  0
 19 40  1  0
 22 41  1  0
 24 42  1  0
M  END
>  <Score>  (1) 
-7.34116

$$$$
