
     RDKit          3D

 39 42  0  0  0  0  0  0  0  0999 V2000
   45.5960   34.1610   42.7240 N   0  0  0  0  0  0  0  0  0  0  0  0
   44.8770   33.9260   41.6210 C   0  0  0  0  0  0  0  0  0  0  0  0
   45.6650   34.0090   40.5250 N   0  0  0  0  0  0  0  0  0  0  0  0
   46.9170   34.3010   40.9330 C   0  0  0  0  0  0  0  0  0  0  0  0
   48.0870   34.4910   40.1980 C   0  0  0  0  0  0  0  0  0  0  0  0
   48.1240   34.4040   38.9600 O   0  0  0  0  0  0  0  0  0  0  0  0
   49.2350   34.7810   40.8440 N   0  0  0  0  0  0  0  0  0  0  0  0
   49.1730   34.8700   42.1790 C   0  0  0  0  0  0  0  0  0  0  0  0
   50.3170   35.1710   42.9650 N   0  0  0  0  0  0  0  0  0  0  0  0
   48.0530   34.6890   42.8860 N   0  0  0  0  0  0  0  0  0  0  0  0
   46.8640   34.3940   42.2970 C   0  0  0  0  0  0  0  0  0  0  0  0
   44.3970   35.3990   45.9760 C   0  0  0  0  0  0  0  0  0  0  0  0
   44.6680   35.3360   44.5870 C   0  0  0  0  0  0  0  0  0  0  0  0
   45.3320   34.2110   44.1190 C   0  0  0  0  0  0  0  0  0  0  0  0
   45.6890   33.2340   45.0080 N   0  0  0  0  0  0  0  0  0  0  0  0
   45.4120   33.3350   46.3240 C   0  0  0  0  0  0  0  0  0  0  0  0
   44.7770   34.4010   46.8010 N   0  0  0  0  0  0  0  0  0  0  0  0
   45.8360   32.2510   47.1460 N   0  0  0  0  0  0  0  0  0  0  0  0
   46.2180   31.0000   46.5140 C   0  0  0  0  0  0  0  0  0  0  0  0
   45.2730   29.9690   47.0520 C   0  0  0  0  0  0  0  0  0  0  0  0
   45.1350   29.9330   48.5310 C   0  0  0  0  0  0  0  0  0  0  0  0
   45.0940   31.2390   49.2340 C   0  0  0  0  0  0  0  0  0  0  0  0
   45.9040   32.3350   48.5940 C   0  0  0  0  0  0  0  0  0  0  0  0
   43.8009   33.6983   41.6073 H   0  0  0  0  0  0  0  0  0  0  0  0
   50.1181   34.9272   40.3345 H   0  0  0  0  0  0  0  0  0  0  0  0
   50.2360   35.2323   43.9900 H   0  0  0  0  0  0  0  0  0  0  0  0
   51.2276   35.3280   42.5100 H   0  0  0  0  0  0  0  0  0  0  0  0
   43.8701   36.2726   46.3873 H   0  0  0  0  0  0  0  0  0  0  0  0
   44.3645   36.1458   43.9072 H   0  0  0  0  0  0  0  0  0  0  0  0
   47.2555   30.7411   46.7719 H   0  0  0  0  0  0  0  0  0  0  0  0
   46.1651   31.0664   45.4173 H   0  0  0  0  0  0  0  0  0  0  0  0
   44.2788   30.1654   46.6242 H   0  0  0  0  0  0  0  0  0  0  0  0
   45.6963   28.9949   46.7659 H   0  0  0  0  0  0  0  0  0  0  0  0
   44.2012   29.4005   48.7646 H   0  0  0  0  0  0  0  0  0  0  0  0
   46.0506   29.4418   48.8923 H   0  0  0  0  0  0  0  0  0  0  0  0
   44.0459   31.5703   49.2764 H   0  0  0  0  0  0  0  0  0  0  0  0
   45.5399   31.0675   50.2248 H   0  0  0  0  0  0  0  0  0  0  0  0
   46.9529   32.2400   48.9115 H   0  0  0  0  0  0  0  0  0  0  0  0
   45.4936   33.3056   48.9096 H   0  0  0  0  0  0  0  0  0  0  0  0
  1 14  1  0
  2  1  1  0
  3  4  1  0
  3  2  2  0
  4 11  2  0
  5  7  1  0
  5  4  1  0
  6  5  2  0
  7  8  1  0
  8 10  2  0
  8  9  1  0
 11  1  1  0
 11 10  1  0
 12 17  2  0
 13 12  1  0
 14 13  2  0
 14 15  1  0
 15 16  2  0
 16 17  1  0
 16 18  1  0
 18 23  1  0
 19 20  1  0
 19 18  1  0
 20 21  1  0
 21 22  1  0
 23 22  1  0
  2 24  1  0
  7 25  1  0
  9 26  1  0
  9 27  1  0
 12 28  1  0
 13 29  1  0
 19 30  1  0
 19 31  1  0
 20 32  1  0
 20 33  1  0
 21 34  1  0
 21 35  1  0
 22 36  1  0
 22 37  1  0
 23 38  1  0
 23 39  1  0
M  END
>  <Score>  (1) 
-7.76821

$$$$
