
     RDKit          3D

 55 60  0  0  1  0  0  0  0  0999 V2000
   46.9140   34.3760   41.9800 C   0  0  0  0  0  0  0  0  0  0  0  0
   48.1040   35.0280   41.8280 C   0  0  0  0  0  0  0  0  0  0  0  0
   48.7040   35.1720   40.5660 C   0  0  0  0  0  0  0  0  0  0  0  0
   48.0420   34.6210   39.4450 C   0  0  0  0  0  0  0  0  0  0  0  0
   46.8240   33.9550   39.6140 C   0  0  0  0  0  0  0  0  0  0  0  0
   46.3020   33.8560   40.8810 C   0  0  0  0  0  0  0  0  0  0  0  0
   45.0570   33.1690   41.0300 N   0  0  0  0  0  0  0  0  0  0  0  0
   44.8680   31.8690   41.3610 C   0  0  0  0  0  0  0  0  0  0  0  0
   43.5850   31.3730   41.4610 C   0  0  0  0  0  0  0  0  0  0  0  0
   42.4870   32.1550   41.2360 C   0  0  0  0  0  0  0  0  0  0  0  0
   41.3350   31.6520   41.3420 O   0  0  0  0  0  0  0  0  0  0  0  0
   42.7080   33.4630   40.9040 N   0  0  0  0  0  0  0  0  0  0  0  0
   43.9550   33.9440   40.8080 C   0  0  0  0  0  0  0  0  0  0  0  0
   44.0360   35.1760   40.4930 O   0  0  0  0  0  0  0  0  0  0  0  0
   41.5500   34.2500   40.6780 C   0  0  0  0  0  0  0  0  0  0  0  0
   41.5160   35.5350   41.1670 C   0  0  0  0  0  0  0  0  0  0  0  0
   40.2800   36.0860   40.8160 C   0  0  0  0  0  0  0  0  0  0  0  0
   39.6160   35.1150   40.1290 N   0  0  0  0  0  0  0  0  0  0  0  0
   40.3750   34.0330   40.0530 N   0  0  0  0  0  0  0  0  0  0  0  0
   45.0120   34.9350   45.2040 C   0  0  0  0  0  0  0  0  0  0  0  0
   45.4590   35.0990   43.9060 C   0  0  0  0  0  0  0  0  0  0  0  0
   46.3740   34.2740   43.3300 C   0  0  0  0  0  0  0  0  0  0  0  0
   46.8400   33.2440   44.1240 N   0  0  0  0  0  0  0  0  0  0  0  0
   46.3850   33.0930   45.4170 C   0  0  0  0  0  0  0  0  0  0  0  0
   45.5020   33.9240   45.9160 N   0  0  0  0  0  0  0  0  0  0  0  0
   47.0440   31.8880   45.8110 C   0  0  0  0  0  0  0  0  0  0  0  0
   47.6170   30.8400   46.1530 N   0  0  0  0  0  0  0  0  0  0  0  0
   48.2950   29.8470   46.3070 C   0  0  0  0  0  0  0  0  0  0  0  0
   47.5980   29.6010   47.4230 N   0  0  0  0  0  0  0  0  0  0  0  0
   46.5980   30.4330   47.8360 C   0  0  0  0  0  0  0  0  0  0  0  0
   45.9700   30.0440   49.0550 C   0  0  0  0  0  0  0  0  0  0  0  0
   44.9830   30.8740   49.5060 C   0  0  0  0  0  0  0  0  0  0  0  0
   44.5540   32.0280   48.8930 C   0  0  0  0  0  0  0  0  0  0  0  0
   45.2570   32.2630   47.7310 C   0  0  0  0  0  0  0  0  0  0  0  0
   46.3140   31.5800   47.0340 C   0  0  0  0  0  0  0  0  0  0  0  0
   48.6036   35.4495   42.7127 H   0  0  0  0  0  0  0  0  0  0  0  0
   49.6628   35.6992   40.4531 H   0  0  0  0  0  0  0  0  0  0  0  0
   48.4839   34.7159   38.4422 H   0  0  0  0  0  0  0  0  0  0  0  0
   46.2960   33.5204   38.7524 H   0  0  0  0  0  0  0  0  0  0  0  0
   45.7315   31.2139   41.5486 H   0  0  0  0  0  0  0  0  0  0  0  0
   43.4411   30.3161   41.7300 H   0  0  0  0  0  0  0  0  0  0  0  0
   42.3154   36.0375   41.7313 H   0  0  0  0  0  0  0  0  0  0  0  0
   39.9172   37.0983   41.0476 H   0  0  0  0  0  0  0  0  0  0  0  0
   38.6707   35.2081   39.7307 H   0  0  0  0  0  0  0  0  0  0  0  0
   44.2704   35.6227   45.6366 H   0  0  0  0  0  0  0  0  0  0  0  0
   45.0568   35.9336   43.3130 H   0  0  0  0  0  0  0  0  0  0  0  0
   46.0689   31.4211   46.0140 H   0  0  0  0  0  0  0  0  0  0  0  0
   47.8487   31.2081   47.0866 H   0  0  0  0  0  0  0  0  0  0  0  0
   48.1790   29.0880   45.5193 H   0  0  0  0  0  0  0  0  0  0  0  0
   49.3938   29.8976   46.3157 H   0  0  0  0  0  0  0  0  0  0  0  0
   47.8213   28.7654   47.9824 H   0  0  0  0  0  0  0  0  0  0  0  0
   46.2616   29.1331   49.5983 H   0  0  0  0  0  0  0  0  0  0  0  0
   44.4855   30.5934   50.4461 H   0  0  0  0  0  0  0  0  0  0  0  0
   43.7550   32.6779   49.2793 H   0  0  0  0  0  0  0  0  0  0  0  0
   44.9367   33.1829   47.2198 H   0  0  0  0  0  0  0  0  0  0  0  0
  1 22  1  0
  2  1  2  0
  3  2  1  0
  4  5  1  0
  4  3  2  0
  5  6  2  0
  6  7  1  0
  6  1  1  0
  7  8  1  0
  8  9  2  0
 10 11  2  0
 10  9  1  0
 12 10  1  0
 13 12  1  0
 13  7  1  0
 14 13  2  0
 15 12  1  0
 15 16  1  0
 17 16  2  0
 18 17  1  0
 19 18  1  0
 19 15  2  0
 20 25  2  0
 21 20  1  0
 22 21  2  0
 22 23  1  0
 23 24  2  0
 24 25  1  0
 26 24  1  0
 26 27  1  0
 26 35  1  0
 27 28  1  0
 28 29  1  0
 29 30  1  0
 30 31  2  0
 31 32  1  0
 33 32  2  0
 34 33  1  0
 35 34  2  0
 35 30  1  0
  2 36  1  0
  3 37  1  0
  4 38  1  0
  5 39  1  0
  8 40  1  0
  9 41  1  0
 16 42  1  0
 17 43  1  0
 18 44  1  0
 20 45  1  0
 21 46  1  0
 26 47  1  0
 27 48  1  0
 28 49  1  0
 28 50  1  0
 29 51  1  0
 31 52  1  0
 32 53  1  0
 33 54  1  0
 34 55  1  0
M  END
>  <Score>  (1) 
-8.06469

$$$$
