
     RDKit          3D

 41 44  0  0  0  0  0  0  0  0999 V2000
   46.4660   34.6170   42.2040 C   0  0  0  0  0  0  0  0  0  0  0  0
   47.7690   34.9890   42.0630 C   0  0  0  0  0  0  0  0  0  0  0  0
   48.4560   34.8460   40.8430 C   0  0  0  0  0  0  0  0  0  0  0  0
   47.7910   34.3080   39.7410 C   0  0  0  0  0  0  0  0  0  0  0  0
   46.4880   33.9410   39.8980 C   0  0  0  0  0  0  0  0  0  0  0  0
   45.8360   34.0920   41.1110 C   0  0  0  0  0  0  0  0  0  0  0  0
   44.4770   33.6920   41.2150 N   0  0  0  0  0  0  0  0  0  0  0  0
   43.6510   34.6520   40.6890 C   0  0  0  0  0  0  0  0  0  0  0  0
   42.2660   34.4730   40.6840 C   0  0  0  0  0  0  0  0  0  0  0  0
   41.7730   33.2930   41.2290 C   0  0  0  0  0  0  0  0  0  0  0  0
   40.5370   33.0710   41.2550 O   0  0  0  0  0  0  0  0  0  0  0  0
   42.6240   32.3840   41.7320 N   0  0  0  0  0  0  0  0  0  0  0  0
   43.9530   32.5740   41.7290 C   0  0  0  0  0  0  0  0  0  0  0  0
   44.8140   31.7850   42.1730 O   0  0  0  0  0  0  0  0  0  0  0  0
   41.3350   35.4860   40.1240 C   0  0  0  0  0  0  0  0  0  0  0  0
   44.4250   35.9040   45.0880 C   0  0  0  0  0  0  0  0  0  0  0  0
   44.9650   35.8370   43.8060 C   0  0  0  0  0  0  0  0  0  0  0  0
   45.8370   34.7980   43.4960 C   0  0  0  0  0  0  0  0  0  0  0  0
   46.1140   33.9060   44.4640 N   0  0  0  0  0  0  0  0  0  0  0  0
   45.5720   33.9990   45.7010 C   0  0  0  0  0  0  0  0  0  0  0  0
   44.7320   34.9910   46.0110 N   0  0  0  0  0  0  0  0  0  0  0  0
   45.9160   32.9940   46.7040 C   0  0  0  0  0  0  0  0  0  0  0  0
   45.1210   32.8030   47.8140 C   0  0  0  0  0  0  0  0  0  0  0  0
   45.4590   31.8630   48.7370 C   0  0  0  0  0  0  0  0  0  0  0  0
   46.5780   31.1010   48.5790 N   0  0  0  0  0  0  0  0  0  0  0  0
   47.3470   31.3080   47.4730 C   0  0  0  0  0  0  0  0  0  0  0  0
   47.0180   32.2380   46.5560 N   0  0  0  0  0  0  0  0  0  0  0  0
   48.2996   35.4135   42.9280 H   0  0  0  0  0  0  0  0  0  0  0  0
   49.5081   35.1558   40.7592 H   0  0  0  0  0  0  0  0  0  0  0  0
   48.3026   34.1838   38.7752 H   0  0  0  0  0  0  0  0  0  0  0  0
   45.9421   33.5156   39.0430 H   0  0  0  0  0  0  0  0  0  0  0  0
   44.0833   35.5714   40.2672 H   0  0  0  0  0  0  0  0  0  0  0  0
   42.2453   31.5139   42.1326 H   0  0  0  0  0  0  0  0  0  0  0  0
   40.8406   36.0239   40.9463 H   0  0  0  0  0  0  0  0  0  0  0  0
   41.8988   36.1999   39.5055 H   0  0  0  0  0  0  0  0  0  0  0  0
   40.5762   34.9844   39.5055 H   0  0  0  0  0  0  0  0  0  0  0  0
   43.7351   36.7219   45.3433 H   0  0  0  0  0  0  0  0  0  0  0  0
   44.7062   36.5935   43.0505 H   0  0  0  0  0  0  0  0  0  0  0  0
   44.2143   33.4102   47.9530 H   0  0  0  0  0  0  0  0  0  0  0  0
   44.8218   31.7160   49.6215 H   0  0  0  0  0  0  0  0  0  0  0  0
   48.2543   30.7036   47.3264 H   0  0  0  0  0  0  0  0  0  0  0  0
  1 18  1  0
  2  1  2  0
  3  2  1  0
  4  5  1  0
  4  3  2  0
  5  6  2  0
  6  7  1  0
  6  1  1  0
  7 13  1  0
  8  7  1  0
  9  8  2  0
  9 10  1  0
 10 11  2  0
 10 12  1  0
 13 12  1  0
 13 14  2  0
 15  9  1  0
 16 21  2  0
 17 16  1  0
 18 17  2  0
 18 19  1  0
 19 20  2  0
 20 21  1  0
 20 22  1  0
 22 23  2  0
 23 24  1  0
 25 24  2  0
 26 25  1  0
 27 22  1  0
 27 26  2  0
  2 28  1  0
  3 29  1  0
  4 30  1  0
  5 31  1  0
  8 32  1  0
 12 33  1  0
 15 34  1  0
 15 35  1  0
 15 36  1  0
 16 37  1  0
 17 38  1  0
 23 39  1  0
 24 40  1  0
 26 41  1  0
M  END
>  <Score>  (1) 
-7.67252

$$$$
