
     RDKit          3D

 51 56  0  0  0  0  0  0  0  0999 V2000
   47.9070   31.5820   38.9390 C   0  0  0  0  0  0  0  0  0  0  0  0
   47.2480   32.4720   38.1950 C   0  0  0  0  0  0  0  0  0  0  0  0
   47.5130   32.6390   36.8600 C   0  0  0  0  0  0  0  0  0  0  0  0
   48.5180   31.8250   36.3130 C   0  0  0  0  0  0  0  0  0  0  0  0
   49.0580   30.8190   37.7880 S   0  0  0  0  0  0  0  0  0  0  0  0
   49.0840   31.6950   35.0210 C   0  0  0  0  0  0  0  0  0  0  0  0
   50.2850   31.1170   34.8100 C   0  0  0  0  0  0  0  0  0  0  0  0
   50.5010   31.1680   33.4260 C   0  0  0  0  0  0  0  0  0  0  0  0
   49.3720   31.7970   32.8830 C   0  0  0  0  0  0  0  0  0  0  0  0
   48.5860   32.0760   33.8910 O   0  0  0  0  0  0  0  0  0  0  0  0
   49.2830   32.0060   31.4450 C   0  0  0  0  0  0  0  0  0  0  0  0
   48.9080   31.0340   30.6140 N   0  0  0  0  0  0  0  0  0  0  0  0
   48.8100   31.1810   29.2850 C   0  0  0  0  0  0  0  0  0  0  0  0
   49.0860   32.3370   28.6570 N   0  0  0  0  0  0  0  0  0  0  0  0
   49.4740   33.3730   29.4490 C   0  0  0  0  0  0  0  0  0  0  0  0
   49.7670   34.5760   28.8470 C   0  0  0  0  0  0  0  0  0  0  0  0
   50.1660   35.6600   29.5940 C   0  0  0  0  0  0  0  0  0  0  0  0
   50.2660   35.5030   30.9800 C   0  0  0  0  0  0  0  0  0  0  0  0
   49.9580   34.2700   31.5090 C   0  0  0  0  0  0  0  0  0  0  0  0
   49.5600   33.1730   30.8100 C   0  0  0  0  0  0  0  0  0  0  0  0
   47.8750   31.1700   40.3240 C   0  0  0  0  0  0  0  0  0  0  0  0
   47.2460   33.7360   42.7920 N   0  0  0  0  0  0  0  0  0  0  0  0
   48.5090   34.2430   43.0040 C   0  0  0  0  0  0  0  0  0  0  0  0
   49.6100   33.7420   42.3260 C   0  0  0  0  0  0  0  0  0  0  0  0
   49.4000   32.6950   41.4120 C   0  0  0  0  0  0  0  0  0  0  0  0
   50.3700   32.2230   40.7860 O   0  0  0  0  0  0  0  0  0  0  0  0
   48.1230   32.2540   41.2640 N   0  0  0  0  0  0  0  0  0  0  0  0
   47.0950   32.7600   41.9310 C   0  0  0  0  0  0  0  0  0  0  0  0
   45.9440   32.3980   41.8310 O   0  0  0  0  0  0  0  0  0  0  0  0
   44.7840   36.2610   43.8680 C   0  0  0  0  0  0  0  0  0  0  0  0
   45.7210   35.5820   43.0850 C   0  0  0  0  0  0  0  0  0  0  0  0
   46.2950   34.4140   43.6000 C   0  0  0  0  0  0  0  0  0  0  0  0
   45.9270   33.9720   44.8490 N   0  0  0  0  0  0  0  0  0  0  0  0
   45.0080   34.6650   45.5820 C   0  0  0  0  0  0  0  0  0  0  0  0
   44.4450   35.8030   45.0840 N   0  0  0  0  0  0  0  0  0  0  0  0
   46.4694   33.0898   38.6662 H   0  0  0  0  0  0  0  0  0  0  0  0
   46.9666   33.3727   36.2492 H   0  0  0  0  0  0  0  0  0  0  0  0
   50.9577   30.6922   35.5696 H   0  0  0  0  0  0  0  0  0  0  0  0
   51.3773   30.7914   32.8780 H   0  0  0  0  0  0  0  0  0  0  0  0
   48.4899   30.3182   28.6824 H   0  0  0  0  0  0  0  0  0  0  0  0
   49.6809   34.6716   27.7545 H   0  0  0  0  0  0  0  0  0  0  0  0
   50.3996   36.6223   29.1151 H   0  0  0  0  0  0  0  0  0  0  0  0
   50.5801   36.3364   31.6256 H   0  0  0  0  0  0  0  0  0  0  0  0
   50.0417   34.1615   32.6004 H   0  0  0  0  0  0  0  0  0  0  0  0
   46.8826   30.7460   40.5371 H   0  0  0  0  0  0  0  0  0  0  0  0
   48.6834   30.4364   40.4595 H   0  0  0  0  0  0  0  0  0  0  0  0
   48.6470   35.0617   43.7256 H   0  0  0  0  0  0  0  0  0  0  0  0
   50.6164   34.1512   42.4981 H   0  0  0  0  0  0  0  0  0  0  0  0
   44.3188   37.1809   43.4841 H   0  0  0  0  0  0  0  0  0  0  0  0
   46.0005   35.9559   42.0890 H   0  0  0  0  0  0  0  0  0  0  0  0
   44.7197   34.3037   46.5802 H   0  0  0  0  0  0  0  0  0  0  0  0
  1 21  1  0
  2  1  2  0
  3  2  1  0
  4  3  2  0
  4  5  1  0
  5  1  1  0
  6  4  1  0
  7  6  2  0
  8  7  1  0
  9  8  2  0
  9 10  1  0
 10  6  1  0
 11  9  1  0
 12 11  2  0
 13 12  1  0
 14 13  2  0
 14 15  1  0
 15 20  2  0
 16 15  1  0
 16 17  2  0
 17 18  1  0
 18 19  2  0
 20 11  1  0
 20 19  1  0
 21 27  1  0
 22 23  1  0
 22 32  1  0
 24 23  2  0
 25 24  1  0
 26 25  2  0
 27 25  1  0
 27 28  1  0
 28 22  1  0
 29 28  2  0
 30 35  2  0
 31 32  2  0
 31 30  1  0
 32 33  1  0
 33 34  2  0
 35 34  1  0
  2 36  1  0
  3 37  1  0
  7 38  1  0
  8 39  1  0
 13 40  1  0
 16 41  1  0
 17 42  1  0
 18 43  1  0
 19 44  1  0
 21 45  1  0
 21 46  1  0
 23 47  1  0
 24 48  1  0
 30 49  1  0
 31 50  1  0
 34 51  1  0
M  END
>  <Score>  (1) 
-7.47754

$$$$
