
     RDKit          3D

 48 52  0  0  1  0  0  0  0  0999 V2000
   46.9730   34.5290   42.3860 N   0  0  0  0  0  0  0  0  0  0  0  0
   48.4160   34.5700   42.4590 C   0  0  0  0  0  0  0  0  0  0  0  0
   49.0310   33.9450   41.2610 C   0  0  0  0  0  0  0  0  0  0  0  0
   48.4310   34.5910   40.0900 N   0  0  0  0  0  0  0  0  0  0  0  0
   47.1130   34.0360   39.9850 C   0  0  0  0  0  0  0  0  0  0  0  0
   46.2450   34.4030   41.1540 C   0  0  1  0  0  0  0  0  0  0  0  0
   44.5410   35.5960   45.0220 C   0  0  0  0  0  0  0  0  0  0  0  0
   45.2390   35.5930   43.8100 C   0  0  0  0  0  0  0  0  0  0  0  0
   46.2120   34.6160   43.5810 C   0  0  0  0  0  0  0  0  0  0  0  0
   46.4010   33.7210   44.5960 N   0  0  0  0  0  0  0  0  0  0  0  0
   45.7270   33.7320   45.7520 C   0  0  0  0  0  0  0  0  0  0  0  0
   44.8040   34.6690   45.9550 N   0  0  0  0  0  0  0  0  0  0  0  0
   45.9750   32.7670   46.7680 N   0  0  0  0  0  0  0  0  0  0  0  0
   45.2370   32.7920   48.0160 C   0  0  0  0  0  0  0  0  0  0  0  0
   44.9090   31.3870   48.4280 C   0  0  0  0  0  0  0  0  0  0  0  0
   45.0170   30.4710   47.3910 O   0  0  0  0  0  0  0  0  0  0  0  0
   46.2770   30.3870   46.8550 C   0  0  0  0  0  0  0  0  0  0  0  0
   46.9580   31.7190   46.6300 C   0  0  0  0  0  0  0  0  0  0  0  0
   45.0970   33.5460   41.2240 N   0  0  0  0  0  0  0  0  0  0  0  0
   45.0320   32.2330   41.4640 C   0  0  0  0  0  0  0  0  0  0  0  0
   43.7610   31.7560   41.4520 N   0  0  0  0  0  0  0  0  0  0  0  0
   42.9540   32.8200   41.1900 C   0  0  0  0  0  0  0  0  0  0  0  0
   41.5990   33.0130   41.0470 C   0  0  0  0  0  0  0  0  0  0  0  0
   41.1100   34.2580   40.7760 N   0  0  0  0  0  0  0  0  0  0  0  0
   41.9720   35.2900   40.6520 C   0  0  0  0  0  0  0  0  0  0  0  0
   43.2910   35.1200   40.7880 N   0  0  0  0  0  0  0  0  0  0  0  0
   43.7960   33.8910   41.0570 C   0  0  0  0  0  0  0  0  0  0  0  0
   48.7425   35.6184   42.5246 H   0  0  0  0  0  0  0  0  0  0  0  0
   48.7364   34.0082   43.3488 H   0  0  0  0  0  0  0  0  0  0  0  0
   50.1191   34.1064   41.2663 H   0  0  0  0  0  0  0  0  0  0  0  0
   48.8528   32.8596   41.2471 H   0  0  0  0  0  0  0  0  0  0  0  0
   48.3832   35.6109   40.2256 H   0  0  0  0  0  0  0  0  0  0  0  0
   46.6433   34.4118   39.0640 H   0  0  0  0  0  0  0  0  0  0  0  0
   47.2097   32.9404   39.9687 H   0  0  0  0  0  0  0  0  0  0  0  0
   45.8616   35.4195   40.9816 H   0  0  0  0  0  0  0  0  0  0  0  0
   43.7737   36.3613   45.2107 H   0  0  0  0  0  0  0  0  0  0  0  0
   45.0242   36.3526   43.0440 H   0  0  0  0  0  0  0  0  0  0  0  0
   45.8492   33.2697   48.7951 H   0  0  0  0  0  0  0  0  0  0  0  0
   44.3063   33.3628   47.8817 H   0  0  0  0  0  0  0  0  0  0  0  0
   45.5993   31.0885   49.2307 H   0  0  0  0  0  0  0  0  0  0  0  0
   43.8602   31.3813   48.7595 H   0  0  0  0  0  0  0  0  0  0  0  0
   46.9017   29.7940   47.5392 H   0  0  0  0  0  0  0  0  0  0  0  0
   46.1627   29.9249   45.8633 H   0  0  0  0  0  0  0  0  0  0  0  0
   47.3912   31.7478   45.6193 H   0  0  0  0  0  0  0  0  0  0  0  0
   47.7630   31.8590   47.3664 H   0  0  0  0  0  0  0  0  0  0  0  0
   45.9153   31.6048   41.6515 H   0  0  0  0  0  0  0  0  0  0  0  0
   40.9091   32.1626   41.1513 H   0  0  0  0  0  0  0  0  0  0  0  0
   41.5796   36.2942   40.4339 H   0  0  0  0  0  0  0  0  0  0  0  0
  1  2  1  0
  1  9  1  0
  3  2  1  0
  4  3  1  0
  5  4  1  0
  5  6  1  0
  6 19  1  0
  6  1  1  0
  7 12  2  0
  8  7  1  0
  9  8  2  0
  9 10  1  0
 10 11  2  0
 11 12  1  0
 11 13  1  0
 13 14  1  0
 14 15  1  0
 16 15  1  0
 17 16  1  0
 18 13  1  0
 18 17  1  0
 19 20  1  0
 21 20  2  0
 22 21  1  0
 23 22  2  0
 24 23  1  0
 25 24  2  0
 25 26  1  0
 26 27  2  0
 27 22  1  0
 27 19  1  0
  2 28  1  0
  2 29  1  0
  3 30  1  0
  3 31  1  0
  4 32  1  0
  5 33  1  0
  5 34  1  0
  6 35  1  6
  7 36  1  0
  8 37  1  0
 14 38  1  0
 14 39  1  0
 15 40  1  0
 15 41  1  0
 17 42  1  0
 17 43  1  0
 18 44  1  0
 18 45  1  0
 20 46  1  0
 23 47  1  0
 25 48  1  0
M  END
>  <Score>  (1) 
-7.15821

$$$$
