
     RDKit          3D

 53 58  0  0  1  0  0  0  0  0999 V2000
   43.8870   34.0930   40.8040 C   0  0  2  0  0  0  0  0  0  0  0  0
   42.3490   34.2800   40.8160 C   0  0  0  0  0  0  0  0  0  0  0  0
   42.2080   34.9610   39.4570 C   0  0  0  0  0  0  0  0  0  0  0  0
   43.1300   34.1870   38.6030 C   0  0  0  0  0  0  0  0  0  0  0  0
   44.0400   33.3820   39.5450 C   0  0  1  0  0  0  0  0  0  0  0  0
   45.3700   33.3050   38.9820 N   0  0  0  0  0  0  0  0  0  0  0  0
   46.5170   33.4150   39.6840 C   0  0  0  0  0  0  0  0  0  0  0  0
   47.5760   33.3090   38.8790 N   0  0  0  0  0  0  0  0  0  0  0  0
   47.0760   33.1270   37.6410 C   0  0  0  0  0  0  0  0  0  0  0  0
   47.7650   32.9650   36.4600 C   0  0  0  0  0  0  0  0  0  0  0  0
   49.0360   32.9710   36.4270 O   0  0  0  0  0  0  0  0  0  0  0  0
   47.0100   32.7980   35.3390 N   0  0  0  0  0  0  0  0  0  0  0  0
   45.6510   32.7910   35.3770 C   0  0  0  0  0  0  0  0  0  0  0  0
   45.0260   32.6050   34.1210 N   0  0  0  0  0  0  0  0  0  0  0  0
   45.0200   32.9550   36.5640 N   0  0  0  0  0  0  0  0  0  0  0  0
   45.6960   33.1240   37.7000 C   0  0  0  0  0  0  0  0  0  0  0  0
   44.9120   34.2760   43.0390 C   0  0  0  0  0  0  0  0  0  0  0  0
   44.3930   33.4650   42.0220 C   0  0  0  0  0  0  0  0  0  0  0  0
   44.3960   32.0660   42.1840 C   0  0  0  0  0  0  0  0  0  0  0  0
   44.9140   31.5620   43.3420 N   0  0  0  0  0  0  0  0  0  0  0  0
   45.4070   32.3450   44.3000 C   0  0  0  0  0  0  0  0  0  0  0  0
   45.4080   33.6840   44.1590 N   0  0  0  0  0  0  0  0  0  0  0  0
   45.9920   31.9630   45.5780 C   0  0  0  0  0  0  0  0  0  0  0  0
   46.7270   32.8360   46.3910 C   0  0  0  0  0  0  0  0  0  0  0  0
   47.2940   32.5210   47.5960 C   0  0  0  0  0  0  0  0  0  0  0  0
   47.1530   31.2470   48.0870 C   0  0  0  0  0  0  0  0  0  0  0  0
   46.4530   30.3410   47.3570 C   0  0  0  0  0  0  0  0  0  0  0  0
   46.3460   29.0810   47.9010 C   0  0  0  0  0  0  0  0  0  0  0  0
   45.6540   28.0950   47.2310 C   0  0  0  0  0  0  0  0  0  0  0  0
   45.0810   28.4370   45.9990 C   0  0  0  0  0  0  0  0  0  0  0  0
   45.2300   29.7180   45.5180 C   0  0  0  0  0  0  0  0  0  0  0  0
   45.9040   30.7130   46.1510 C   0  0  0  0  0  0  0  0  0  0  0  0
   44.5040   35.0033   40.8318 H   0  0  0  0  0  0  0  0  0  0  0  0
   41.8128   33.3205   40.8590 H   0  0  0  0  0  0  0  0  0  0  0  0
   41.9357   34.8275   41.6759 H   0  0  0  0  0  0  0  0  0  0  0  0
   41.1746   34.8939   39.0861 H   0  0  0  0  0  0  0  0  0  0  0  0
   42.4398   36.0360   39.4837 H   0  0  0  0  0  0  0  0  0  0  0  0
   42.5616   33.5060   37.9525 H   0  0  0  0  0  0  0  0  0  0  0  0
   43.7215   34.8526   37.9572 H   0  0  0  0  0  0  0  0  0  0  0  0
   43.7939   32.3205   39.6956 H   0  0  0  0  0  0  0  0  0  0  0  0
   46.5717   33.5708   40.7715 H   0  0  0  0  0  0  0  0  0  0  0  0
   47.4839   32.6730   34.4331 H   0  0  0  0  0  0  0  0  0  0  0  0
   43.9983   32.5861   34.0549 H   0  0  0  0  0  0  0  0  0  0  0  0
   45.5988   32.4885   33.2729 H   0  0  0  0  0  0  0  0  0  0  0  0
   44.9185   35.3710   42.9342 H   0  0  0  0  0  0  0  0  0  0  0  0
   43.9947   31.4022   41.4041 H   0  0  0  0  0  0  0  0  0  0  0  0
   46.8601   33.8660   46.0285 H   0  0  0  0  0  0  0  0  0  0  0  0
   47.8550   33.2783   48.1633 H   0  0  0  0  0  0  0  0  0  0  0  0
   47.5982   30.9656   49.0527 H   0  0  0  0  0  0  0  0  0  0  0  0
   46.8135   28.8606   48.8720 H   0  0  0  0  0  0  0  0  0  0  0  0
   45.5557   27.0812   47.6465 H   0  0  0  0  0  0  0  0  0  0  0  0
   44.5176   27.6891   45.4218 H   0  0  0  0  0  0  0  0  0  0  0  0
   44.7684   29.9538   44.5478 H   0  0  0  0  0  0  0  0  0  0  0  0
  1  2  1  0
  1 18  1  0
  3  2  1  0
  4  3  1  0
  4  5  1  0
  5  1  1  0
  6  5  1  0
  6  7  1  0
  8  7  2  0
  9 16  2  0
  9  8  1  0
 10  9  1  0
 11 10  2  0
 12 13  1  0
 12 10  1  0
 13 15  2  0
 14 13  1  0
 15 16  1  0
 16  6  1  0
 17 22  2  0
 18 19  2  0
 18 17  1  0
 19 20  1  0
 20 21  2  0
 21 23  1  0
 22 21  1  0
 23 32  1  0
 23 24  2  0
 24 25  1  0
 25 26  2  0
 27 28  2  0
 27 26  1  0
 29 28  1  0
 30 29  2  0
 31 30  1  0
 31 32  2  0
 32 27  1  0
  1 33  1  6
  2 34  1  0
  2 35  1  0
  3 36  1  0
  3 37  1  0
  4 38  1  0
  4 39  1  0
  5 40  1  1
  7 41  1  0
 12 42  1  0
 14 43  1  0
 14 44  1  0
 17 45  1  0
 19 46  1  0
 24 47  1  0
 25 48  1  0
 26 49  1  0
 28 50  1  0
 29 51  1  0
 30 52  1  0
 31 53  1  0
M  END
>  <Score>  (1) 
-7.05058

$$$$
