
     RDKit          3D

 41 44  0  0  1  0  0  0  0  0999 V2000
   44.6700   35.5680   44.6660 C   0  0  0  0  0  0  0  0  0  0  0  0
   45.4770   35.7070   43.5090 C   0  0  0  0  0  0  0  0  0  0  0  0
   46.4480   34.7350   43.2900 C   0  0  0  0  0  0  0  0  0  0  0  0
   46.5730   33.7160   44.1820 N   0  0  0  0  0  0  0  0  0  0  0  0
   45.7900   33.6220   45.2630 C   0  0  0  0  0  0  0  0  0  0  0  0
   44.8420   34.5300   45.5180 N   0  0  0  0  0  0  0  0  0  0  0  0
   45.9750   32.5260   46.1570 N   0  0  0  0  0  0  0  0  0  0  0  0
   46.9620   31.4860   45.9670 C   0  0  0  0  0  0  0  0  0  0  0  0
   46.1690   30.2010   45.7890 C   0  0  0  0  0  0  0  0  0  0  0  0
   45.5290   29.8900   47.1240 C   0  0  0  0  0  0  0  0  0  0  0  0
   45.3920   31.0740   48.0270 C   0  0  0  0  0  0  0  0  0  0  0  0
   45.1560   32.3890   47.3510 C   0  0  1  0  0  0  0  0  0  0  0  0
   47.2850   34.8610   42.1080 C   0  0  0  0  0  0  0  0  0  0  0  0
   48.4710   35.5740   41.9760 C   0  0  0  0  0  0  0  0  0  0  0  0
   48.9400   35.4440   40.7360 N   0  0  0  0  0  0  0  0  0  0  0  0
   48.0920   34.6630   40.0450 C   0  0  0  0  0  0  0  0  0  0  0  0
   48.1270   34.2300   38.7360 C   0  0  0  0  0  0  0  0  0  0  0  0
   47.1150   33.4260   38.2840 C   0  0  0  0  0  0  0  0  0  0  0  0
   46.0320   33.0010   39.0530 C   0  0  0  0  0  0  0  0  0  0  0  0
   46.0490   33.4620   40.3520 C   0  0  0  0  0  0  0  0  0  0  0  0
   47.0290   34.2700   40.8760 C   0  0  0  0  0  0  0  0  0  0  0  0
   45.6150   33.4430   48.2580 N   0  0  0  0  0  0  0  0  0  0  0  0
   43.8910   36.3160   44.8751 H   0  0  0  0  0  0  0  0  0  0  0  0
   45.3412   36.5482   42.8134 H   0  0  0  0  0  0  0  0  0  0  0  0
   47.5686   31.6905   45.0724 H   0  0  0  0  0  0  0  0  0  0  0  0
   47.6567   31.4224   46.8175 H   0  0  0  0  0  0  0  0  0  0  0  0
   45.3937   30.3385   45.0209 H   0  0  0  0  0  0  0  0  0  0  0  0
   46.8221   29.3775   45.4645 H   0  0  0  0  0  0  0  0  0  0  0  0
   44.5255   29.4793   46.9385 H   0  0  0  0  0  0  0  0  0  0  0  0
   46.1927   29.1770   47.6350 H   0  0  0  0  0  0  0  0  0  0  0  0
   44.5449   30.8859   48.7030 H   0  0  0  0  0  0  0  0  0  0  0  0
   46.3612   31.1720   48.5380 H   0  0  0  0  0  0  0  0  0  0  0  0
   44.0887   32.4553   47.0931 H   0  0  0  0  0  0  0  0  0  0  0  0
   48.9503   36.1579   42.7756 H   0  0  0  0  0  0  0  0  0  0  0  0
   49.8039   35.8689   40.3698 H   0  0  0  0  0  0  0  0  0  0  0  0
   48.9507   34.5244   38.0690 H   0  0  0  0  0  0  0  0  0  0  0  0
   47.1595   33.0907   37.2373 H   0  0  0  0  0  0  0  0  0  0  0  0
   45.2344   32.3548   38.6578 H   0  0  0  0  0  0  0  0  0  0  0  0
   45.2225   33.1629   41.0134 H   0  0  0  0  0  0  0  0  0  0  0  0
   45.4825   33.1387   49.2330 H   0  0  0  0  0  0  0  0  0  0  0  0
   46.6137   33.6301   48.0895 H   0  0  0  0  0  0  0  0  0  0  0  0
  1  6  2  0
  2  1  1  0
  3  2  2  0
  3  4  1  0
  4  5  2  0
  5  6  1  0
  5  7  1  0
  7 12  1  0
  8  7  1  0
  9  8  1  0
  9 10  1  0
 10 11  1  0
 12 11  1  0
 12 22  1  0
 13  3  1  0
 14 13  2  0
 15 14  1  0
 16 15  1  0
 16 21  2  0
 17 16  1  0
 18 17  2  0
 18 19  1  0
 19 20  2  0
 20 21  1  0
 21 13  1  0
  1 23  1  0
  2 24  1  0
  8 25  1  0
  8 26  1  0
  9 27  1  0
  9 28  1  0
 10 29  1  0
 10 30  1  0
 11 31  1  0
 11 32  1  0
 12 33  1  6
 14 34  1  0
 15 35  1  0
 17 36  1  0
 18 37  1  0
 19 38  1  0
 20 39  1  0
 22 40  1  0
 22 41  1  0
M  END
>  <Score>  (1) 
-7.12759

$$$$
