
     RDKit          3D

 49 53  0  0  1  0  0  0  0  0999 V2000
   47.1650   29.6670   47.8020 C   0  0  2  0  0  0  0  0  0  0  0  0
   46.6490   32.2540   45.1250 C   0  0  0  0  0  0  0  0  0  0  0  0
   46.5730   31.5310   46.3210 C   0  0  0  0  0  0  0  0  0  0  0  0
   47.2740   30.3750   46.4800 C   0  0  0  0  0  0  0  0  0  0  0  0
   48.0430   29.9480   45.4400 C   0  0  0  0  0  0  0  0  0  0  0  0
   48.1410   30.6270   44.2500 C   0  0  0  0  0  0  0  0  0  0  0  0
   47.4340   31.7560   44.1510 N   0  0  0  0  0  0  0  0  0  0  0  0
   44.5930   35.1380   45.9060 C   0  0  0  0  0  0  0  0  0  0  0  0
   44.5580   35.8510   44.6880 C   0  0  0  0  0  0  0  0  0  0  0  0
   45.2510   35.3190   43.6000 C   0  0  0  0  0  0  0  0  0  0  0  0
   45.9210   34.1500   43.7570 N   0  0  0  0  0  0  0  0  0  0  0  0
   45.9220   33.5040   44.9530 C   0  0  0  0  0  0  0  0  0  0  0  0
   45.2670   34.0020   45.9910 N   0  0  0  0  0  0  0  0  0  0  0  0
   45.8630   29.4630   48.0960 N   0  0  0  0  0  0  0  0  0  0  0  0
   45.1490   28.3170   47.7480 C   0  0  0  0  0  0  0  0  0  0  0  0
   44.7980   27.4070   48.7690 N   0  0  0  0  0  0  0  0  0  0  0  0
   44.6980   27.8490   46.6530 O   0  0  0  0  0  0  0  0  0  0  0  0
   47.6790   30.6440   48.7960 C   0  0  2  0  0  0  0  0  0  0  0  0
   48.2850   31.9350   48.3700 C   0  0  0  0  0  0  0  0  0  0  0  0
   49.2090   30.8540   48.7970 C   0  0  1  0  0  0  0  0  0  0  0  0
   49.9320   30.8950   50.0130 N   0  0  0  0  0  0  0  0  0  0  0  0
   50.0800   29.9130   50.9220 C   0  0  0  0  0  0  0  0  0  0  0  0
   50.8340   30.3140   51.9520 N   0  0  0  0  0  0  0  0  0  0  0  0
   51.1720   31.5850   51.6860 C   0  0  0  0  0  0  0  0  0  0  0  0
   51.9490   32.4290   52.4620 C   0  0  0  0  0  0  0  0  0  0  0  0
   52.4360   32.0320   53.5640 O   0  0  0  0  0  0  0  0  0  0  0  0
   52.1490   33.6730   51.9770 N   0  0  0  0  0  0  0  0  0  0  0  0
   51.5990   34.0220   50.7990 C   0  0  0  0  0  0  0  0  0  0  0  0
   51.8950   35.3610   50.4150 N   0  0  0  0  0  0  0  0  0  0  0  0
   50.8450   33.1880   50.0550 N   0  0  0  0  0  0  0  0  0  0  0  0
   50.6040   31.9410   50.4730 C   0  0  0  0  0  0  0  0  0  0  0  0
   47.7012   28.7066   47.7945 H   0  0  0  0  0  0  0  0  0  0  0  0
   45.9401   31.9008   47.1412 H   0  0  0  0  0  0  0  0  0  0  0  0
   48.6129   29.0147   45.5588 H   0  0  0  0  0  0  0  0  0  0  0  0
   48.7677   30.2609   43.4234 H   0  0  0  0  0  0  0  0  0  0  0  0
   44.0594   35.5271   46.7857 H   0  0  0  0  0  0  0  0  0  0  0  0
   44.0020   36.7960   44.5995 H   0  0  0  0  0  0  0  0  0  0  0  0
   45.2540   35.8391   42.6307 H   0  0  0  0  0  0  0  0  0  0  0  0
   45.3645   30.2026   48.6112 H   0  0  0  0  0  0  0  0  0  0  0  0
   44.2706   26.5528   48.5386 H   0  0  0  0  0  0  0  0  0  0  0  0
   45.0693   27.5974   49.7442 H   0  0  0  0  0  0  0  0  0  0  0  0
   46.8876   30.3839   49.5143 H   0  0  0  0  0  0  0  0  0  0  0  0
   48.2466   32.2292   47.3108 H   0  0  0  0  0  0  0  0  0  0  0  0
   48.1429   32.9818   48.6768 H   0  0  0  0  0  0  0  0  0  0  0  0
   50.0825   30.3618   48.3445 H   0  0  0  0  0  0  0  0  0  0  0  0
   49.6379   28.9100   50.8298 H   0  0  0  0  0  0  0  0  0  0  0  0
   52.7183   34.3501   52.5045 H   0  0  0  0  0  0  0  0  0  0  0  0
   51.5257   35.7365   49.5299 H   0  0  0  0  0  0  0  0  0  0  0  0
   52.4784   35.9539   51.0224 H   0  0  0  0  0  0  0  0  0  0  0  0
  1 14  1  0
  1 18  1  0
  2  3  2  0
  3  4  1  0
  4  1  1  0
  5  4  2  0
  6  5  1  0
  7  6  2  0
  7  2  1  0
  8 13  2  0
  9  8  1  0
 10 11  1  0
 10  9  2  0
 11 12  2  0
 12  2  1  0
 12 13  1  0
 15 14  1  0
 15 16  1  0
 17 15  2  0
 18 20  1  0
 19 18  1  0
 19 20  1  0
 20 21  1  0
 21 31  1  0
 21 22  1  0
 22 23  2  0
 24 23  1  0
 24 25  1  0
 25 26  2  0
 27 25  1  0
 28 27  1  0
 29 28  1  0
 30 31  1  0
 30 28  2  0
 31 24  2  0
  1 32  1  6
  3 33  1  0
  5 34  1  0
  6 35  1  0
  8 36  1  0
  9 37  1  0
 10 38  1  0
 14 39  1  0
 16 40  1  0
 16 41  1  0
 18 42  1  1
 19 43  1  0
 19 44  1  0
 20 45  1  6
 22 46  1  0
 27 47  1  0
 29 48  1  0
 29 49  1  0
M  END
>  <Score>  (1) 
-7.09324

$$$$
