
     RDKit          3D

 45 49  0  0  0  0  0  0  0  0999 V2000
   46.5900   34.6470   42.1730 C   0  0  0  0  0  0  0  0  0  0  0  0
   47.7970   35.2740   42.0050 C   0  0  0  0  0  0  0  0  0  0  0  0
   48.5250   35.1570   40.8070 C   0  0  0  0  0  0  0  0  0  0  0  0
   47.9860   34.3720   39.7650 C   0  0  0  0  0  0  0  0  0  0  0  0
   46.7650   33.7410   39.9420 C   0  0  0  0  0  0  0  0  0  0  0  0
   46.1010   33.8940   41.1350 C   0  0  0  0  0  0  0  0  0  0  0  0
   44.8380   33.2320   41.2960 N   0  0  0  0  0  0  0  0  0  0  0  0
   44.6160   31.9820   41.7430 C   0  0  0  0  0  0  0  0  0  0  0  0
   43.3270   31.5030   41.8340 C   0  0  0  0  0  0  0  0  0  0  0  0
   42.2470   32.2750   41.4780 C   0  0  0  0  0  0  0  0  0  0  0  0
   41.0820   31.7940   41.5780 O   0  0  0  0  0  0  0  0  0  0  0  0
   42.5060   33.5360   41.0290 N   0  0  0  0  0  0  0  0  0  0  0  0
   43.7560   33.9960   40.9420 C   0  0  0  0  0  0  0  0  0  0  0  0
   43.8620   35.1890   40.5080 O   0  0  0  0  0  0  0  0  0  0  0  0
   41.3720   34.3110   40.6680 C   0  0  0  0  0  0  0  0  0  0  0  0
   41.3300   35.6410   41.0140 C   0  0  0  0  0  0  0  0  0  0  0  0
   40.1120   36.1560   40.5380 C   0  0  0  0  0  0  0  0  0  0  0  0
   39.4810   35.1210   39.9300 N   0  0  0  0  0  0  0  0  0  0  0  0
   40.2250   34.0340   40.0080 N   0  0  0  0  0  0  0  0  0  0  0  0
   44.4410   35.9330   45.0010 C   0  0  0  0  0  0  0  0  0  0  0  0
   45.0390   35.8450   43.7500 C   0  0  0  0  0  0  0  0  0  0  0  0
   45.9170   34.8270   43.4400 C   0  0  0  0  0  0  0  0  0  0  0  0
   46.1760   33.8960   44.4300 N   0  0  0  0  0  0  0  0  0  0  0  0
   45.5760   34.0060   45.6450 C   0  0  0  0  0  0  0  0  0  0  0  0
   44.7310   34.9950   45.9280 N   0  0  0  0  0  0  0  0  0  0  0  0
   45.8830   32.9990   46.6540 C   0  0  0  0  0  0  0  0  0  0  0  0
   46.9600   32.1530   46.4890 C   0  0  0  0  0  0  0  0  0  0  0  0
   47.3020   31.1770   47.4120 C   0  0  0  0  0  0  0  0  0  0  0  0
   46.5320   31.0690   48.5130 N   0  0  0  0  0  0  0  0  0  0  0  0
   45.4800   31.9010   48.6660 C   0  0  0  0  0  0  0  0  0  0  0  0
   45.1420   32.8590   47.7640 N   0  0  0  0  0  0  0  0  0  0  0  0
   48.2057   35.8824   42.8253 H   0  0  0  0  0  0  0  0  0  0  0  0
   49.4926   35.6658   40.6850 H   0  0  0  0  0  0  0  0  0  0  0  0
   48.5327   34.2617   38.8169 H   0  0  0  0  0  0  0  0  0  0  0  0
   46.3334   33.1261   39.1385 H   0  0  0  0  0  0  0  0  0  0  0  0
   45.4626   31.3434   42.0354 H   0  0  0  0  0  0  0  0  0  0  0  0
   43.1586   30.4794   42.1999 H   0  0  0  0  0  0  0  0  0  0  0  0
   42.1049   36.1979   41.5611 H   0  0  0  0  0  0  0  0  0  0  0  0
   39.7453   37.1882   40.6382 H   0  0  0  0  0  0  0  0  0  0  0  0
   38.5585   35.1753   39.4751 H   0  0  0  0  0  0  0  0  0  0  0  0
   43.7439   36.7520   45.2321 H   0  0  0  0  0  0  0  0  0  0  0  0
   44.8070   36.6047   42.9890 H   0  0  0  0  0  0  0  0  0  0  0  0
   47.5757   32.2577   45.5835 H   0  0  0  0  0  0  0  0  0  0  0  0
   48.1673   30.5169   47.2523 H   0  0  0  0  0  0  0  0  0  0  0  0
   44.8627   31.7976   49.5705 H   0  0  0  0  0  0  0  0  0  0  0  0
  1 22  1  0
  2  1  2  0
  3  2  1  0
  4  5  1  0
  4  3  2  0
  5  6  2  0
  6  7  1  0
  6  1  1  0
  7  8  1  0
  8  9  2  0
 10 11  2  0
 10  9  1  0
 12 10  1  0
 13 12  1  0
 13  7  1  0
 14 13  2  0
 15 16  1  0
 15 12  1  0
 17 16  2  0
 18 19  1  0
 18 17  1  0
 19 15  2  0
 20 25  2  0
 21 20  1  0
 22 21  2  0
 22 23  1  0
 23 24  2  0
 24 25  1  0
 24 26  1  0
 26 31  1  0
 27 26  2  0
 27 28  1  0
 28 29  2  0
 29 30  1  0
 31 30  2  0
  2 32  1  0
  3 33  1  0
  4 34  1  0
  5 35  1  0
  8 36  1  0
  9 37  1  0
 16 38  1  0
 17 39  1  0
 18 40  1  0
 20 41  1  0
 21 42  1  0
 27 43  1  0
 28 44  1  0
 30 45  1  0
M  END
>  <Score>  (1) 
-8.85524

$$$$
