
     RDKit          3D

 45 49  0  0  1  0  0  0  0  0999 V2000
   46.9610   34.6540   42.2110 N   0  0  0  0  0  0  0  0  0  0  0  0
   48.3940   34.7160   42.3440 C   0  0  0  0  0  0  0  0  0  0  0  0
   49.0470   34.0190   41.2110 C   0  0  0  0  0  0  0  0  0  0  0  0
   48.4950   34.5590   39.9720 N   0  0  0  0  0  0  0  0  0  0  0  0
   47.1820   33.9590   39.8670 C   0  0  0  0  0  0  0  0  0  0  0  0
   46.2680   34.4250   40.9720 C   0  0  1  0  0  0  0  0  0  0  0  0
   44.4770   35.9520   44.7020 C   0  0  0  0  0  0  0  0  0  0  0  0
   45.2250   35.8610   43.5190 C   0  0  0  0  0  0  0  0  0  0  0  0
   46.1540   34.8290   43.3760 C   0  0  0  0  0  0  0  0  0  0  0  0
   46.2570   33.9730   44.4320 N   0  0  0  0  0  0  0  0  0  0  0  0
   45.5430   34.0610   45.5620 C   0  0  0  0  0  0  0  0  0  0  0  0
   44.6530   35.0540   45.6890 N   0  0  0  0  0  0  0  0  0  0  0  0
   45.8440   33.0460   46.4970 N   0  0  0  0  0  0  0  0  0  0  0  0
   45.2240   33.1840   47.7040 C   0  0  0  0  0  0  0  0  0  0  0  0
   45.4420   32.2420   48.7150 C   0  0  0  0  0  0  0  0  0  0  0  0
   46.3010   31.2260   48.3670 C   0  0  0  0  0  0  0  0  0  0  0  0
   46.5080   30.3630   49.2770 O   0  0  0  0  0  0  0  0  0  0  0  0
   46.9240   31.0570   47.2030 N   0  0  0  0  0  0  0  0  0  0  0  0
   46.6600   32.0050   46.2850 C   0  0  0  0  0  0  0  0  0  0  0  0
   47.1810   31.9770   45.1310 O   0  0  0  0  0  0  0  0  0  0  0  0
   45.1350   33.5440   41.0780 N   0  0  0  0  0  0  0  0  0  0  0  0
   45.0700   32.2550   41.3900 C   0  0  0  0  0  0  0  0  0  0  0  0
   43.8010   31.7760   41.3830 N   0  0  0  0  0  0  0  0  0  0  0  0
   42.9910   32.7980   41.0490 C   0  0  0  0  0  0  0  0  0  0  0  0
   41.6440   32.9820   40.8710 C   0  0  0  0  0  0  0  0  0  0  0  0
   41.1440   34.1910   40.5230 N   0  0  0  0  0  0  0  0  0  0  0  0
   41.9930   35.2340   40.3490 C   0  0  0  0  0  0  0  0  0  0  0  0
   43.3190   35.0900   40.5170 N   0  0  0  0  0  0  0  0  0  0  0  0
   43.8260   33.8820   40.8650 C   0  0  0  0  0  0  0  0  0  0  0  0
   48.7121   35.7689   42.3540 H   0  0  0  0  0  0  0  0  0  0  0  0
   48.6875   34.2243   43.2832 H   0  0  0  0  0  0  0  0  0  0  0  0
   50.1330   34.1913   41.2424 H   0  0  0  0  0  0  0  0  0  0  0  0
   48.8640   32.9360   41.2714 H   0  0  0  0  0  0  0  0  0  0  0  0
   48.4231   35.5852   40.0226 H   0  0  0  0  0  0  0  0  0  0  0  0
   46.7401   34.2348   38.8982 H   0  0  0  0  0  0  0  0  0  0  0  0
   47.2949   32.8681   39.9514 H   0  0  0  0  0  0  0  0  0  0  0  0
   45.8759   35.4183   40.7081 H   0  0  0  0  0  0  0  0  0  0  0  0
   43.7425   36.7617   44.8238 H   0  0  0  0  0  0  0  0  0  0  0  0
   45.0811   36.5951   42.7125 H   0  0  0  0  0  0  0  0  0  0  0  0
   44.5522   34.0365   47.8826 H   0  0  0  0  0  0  0  0  0  0  0  0
   44.9665   32.3084   49.7047 H   0  0  0  0  0  0  0  0  0  0  0  0
   47.5567   30.2651   47.0198 H   0  0  0  0  0  0  0  0  0  0  0  0
   45.9511   31.6412   41.6286 H   0  0  0  0  0  0  0  0  0  0  0  0
   40.9585   32.1335   41.0133 H   0  0  0  0  0  0  0  0  0  0  0  0
   41.5889   36.2168   40.0649 H   0  0  0  0  0  0  0  0  0  0  0  0
  1  2  1  0
  1  9  1  0
  3  2  1  0
  4  3  1  0
  5  4  1  0
  5  6  1  0
  6 21  1  0
  6  1  1  0
  7 12  2  0
  8  7  1  0
  9  8  2  0
  9 10  1  0
 10 11  2  0
 11 12  1  0
 11 13  1  0
 13 14  1  0
 14 15  2  0
 16 15  1  0
 16 17  2  0
 18 16  1  0
 19 13  1  0
 19 18  1  0
 20 19  2  0
 21 22  1  0
 23 22  2  0
 24 23  1  0
 25 24  2  0
 26 25  1  0
 27 28  1  0
 27 26  2  0
 28 29  2  0
 29 24  1  0
 29 21  1  0
  2 30  1  0
  2 31  1  0
  3 32  1  0
  3 33  1  0
  4 34  1  0
  5 35  1  0
  5 36  1  0
  6 37  1  6
  7 38  1  0
  8 39  1  0
 14 40  1  0
 15 41  1  0
 18 42  1  0
 22 43  1  0
 25 44  1  0
 27 45  1  0
M  END
>  <Score>  (1) 
-7.48404

$$$$
