
     RDKit          3D

 46 51  0  0  1  0  0  0  0  0999 V2000
   45.8490   33.8350   45.2480 C   0  0  0  0  0  0  0  0  0  0  0  0
   46.6570   33.8590   44.1110 C   0  0  0  0  0  0  0  0  0  0  0  0
   46.4430   34.8450   43.1580 C   0  0  0  0  0  0  0  0  0  0  0  0
   45.4430   35.7610   43.3720 N   0  0  0  0  0  0  0  0  0  0  0  0
   44.6650   35.7210   44.4880 C   0  0  0  0  0  0  0  0  0  0  0  0
   44.8630   34.7660   45.4220 N   0  0  0  0  0  0  0  0  0  0  0  0
   47.2750   34.8780   41.9750 C   0  0  0  0  0  0  0  0  0  0  0  0
   48.5070   35.5180   41.8380 C   0  0  0  0  0  0  0  0  0  0  0  0
   48.9710   35.3220   40.5810 N   0  0  0  0  0  0  0  0  0  0  0  0
   48.0520   34.5700   39.9340 C   0  0  0  0  0  0  0  0  0  0  0  0
   48.0640   34.1010   38.6300 C   0  0  0  0  0  0  0  0  0  0  0  0
   47.0090   33.3500   38.1920 C   0  0  0  0  0  0  0  0  0  0  0  0
   45.8960   33.0200   38.9960 C   0  0  0  0  0  0  0  0  0  0  0  0
   45.9590   33.5210   40.2790 C   0  0  0  0  0  0  0  0  0  0  0  0
   46.9850   34.2750   40.7650 C   0  0  0  0  0  0  0  0  0  0  0  0
   45.9850   32.9040   46.2360 O   0  0  0  0  0  0  0  0  0  0  0  0
   45.4620   32.9680   47.5110 C   0  0  1  0  0  0  0  0  0  0  0  0
   44.7330   31.7580   47.9990 C   0  0  0  0  0  0  0  0  0  0  0  0
   46.0970   32.0340   48.5140 C   0  0  1  0  0  0  0  0  0  0  0  0
   47.1260   31.1100   48.0170 N   0  0  0  0  0  0  0  0  0  0  0  0
   47.1300   30.4940   46.8010 C   0  0  0  0  0  0  0  0  0  0  0  0
   48.2180   29.7160   46.6690 N   0  0  0  0  0  0  0  0  0  0  0  0
   48.9150   29.8290   47.7950 C   0  0  0  0  0  0  0  0  0  0  0  0
   50.1080   29.2240   48.1420 C   0  0  0  0  0  0  0  0  0  0  0  0
   50.6840   28.4360   47.3260 O   0  0  0  0  0  0  0  0  0  0  0  0
   50.6020   29.5200   49.3680 N   0  0  0  0  0  0  0  0  0  0  0  0
   49.9310   30.3660   50.1740 C   0  0  0  0  0  0  0  0  0  0  0  0
   50.5800   30.5830   51.4440 N   0  0  0  0  0  0  0  0  0  0  0  0
   48.7610   30.9590   49.8360 N   0  0  0  0  0  0  0  0  0  0  0  0
   48.2340   30.6940   48.6280 C   0  0  0  0  0  0  0  0  0  0  0  0
   47.4500   33.1094   43.9722 H   0  0  0  0  0  0  0  0  0  0  0  0
   43.8717   36.4697   44.6298 H   0  0  0  0  0  0  0  0  0  0  0  0
   49.0196   36.0904   42.6252 H   0  0  0  0  0  0  0  0  0  0  0  0
   49.8557   35.6780   40.1917 H   0  0  0  0  0  0  0  0  0  0  0  0
   48.9063   34.3287   37.9602 H   0  0  0  0  0  0  0  0  0  0  0  0
   47.0282   32.9823   37.1555 H   0  0  0  0  0  0  0  0  0  0  0  0
   45.0524   32.4160   38.6306 H   0  0  0  0  0  0  0  0  0  0  0  0
   45.1229   33.2965   40.9576 H   0  0  0  0  0  0  0  0  0  0  0  0
   45.2347   34.0432   47.4626 H   0  0  0  0  0  0  0  0  0  0  0  0
   43.8635   31.8735   48.6628 H   0  0  0  0  0  0  0  0  0  0  0  0
   44.2511   30.8978   47.5113 H   0  0  0  0  0  0  0  0  0  0  0  0
   46.5640   32.1775   49.4995 H   0  0  0  0  0  0  0  0  0  0  0  0
   46.3509   30.6166   46.0342 H   0  0  0  0  0  0  0  0  0  0  0  0
   51.4879   29.0996   49.6832 H   0  0  0  0  0  0  0  0  0  0  0  0
   50.1541   31.2126   52.1391 H   0  0  0  0  0  0  0  0  0  0  0  0
   51.4692   30.1083   51.6557 H   0  0  0  0  0  0  0  0  0  0  0  0
  1  6  1  0
  1 16  1  0
  2  1  2  0
  3  4  2  0
  3  2  1  0
  4  5  1  0
  5  6  2  0
  7  3  1  0
  8  7  2  0
  9  8  1  0
 10  9  1  0
 10 15  2  0
 11 10  1  0
 12 11  2  0
 12 13  1  0
 13 14  2  0
 14 15  1  0
 15  7  1  0
 16 17  1  0
 17 18  1  0
 17 19  1  0
 18 19  1  0
 20 19  1  0
 20 30  1  0
 21 20  1  0
 22 21  2  0
 22 23  1  0
 23 24  1  0
 23 30  2  0
 24 26  1  0
 25 24  2  0
 26 27  1  0
 27 28  1  0
 29 27  2  0
 30 29  1  0
  2 31  1  0
  5 32  1  0
  8 33  1  0
  9 34  1  0
 11 35  1  0
 12 36  1  0
 13 37  1  0
 14 38  1  0
 17 39  1  1
 18 40  1  0
 18 41  1  0
 19 42  1  1
 21 43  1  0
 26 44  1  0
 28 45  1  0
 28 46  1  0
M  END
>  <Score>  (1) 
-7.81806

$$$$
