
     RDKit          3D

 49 53  0  0  0  0  0  0  0  0999 V2000
   44.5250   35.0250   46.1640 C   0  0  0  0  0  0  0  0  0  0  0  0
   44.7590   35.0320   44.7890 C   0  0  0  0  0  0  0  0  0  0  0  0
   45.4790   33.9650   44.2210 C   0  0  0  0  0  0  0  0  0  0  0  0
   45.9050   32.9900   45.0480 N   0  0  0  0  0  0  0  0  0  0  0  0
   45.6570   33.0200   46.3830 C   0  0  0  0  0  0  0  0  0  0  0  0
   44.9740   34.0290   46.9320 N   0  0  0  0  0  0  0  0  0  0  0  0
   45.6920   34.0140   42.8210 N   0  0  0  0  0  0  0  0  0  0  0  0
   44.9340   33.8310   41.7480 C   0  0  0  0  0  0  0  0  0  0  0  0
   45.6620   34.0060   40.6200 N   0  0  0  0  0  0  0  0  0  0  0  0
   46.9220   34.3090   40.9820 C   0  0  0  0  0  0  0  0  0  0  0  0
   48.0480   34.5790   40.2210 C   0  0  0  0  0  0  0  0  0  0  0  0
   48.0340   34.5740   38.9920 O   0  0  0  0  0  0  0  0  0  0  0  0
   49.2180   34.8610   40.8410 N   0  0  0  0  0  0  0  0  0  0  0  0
   49.2150   34.8600   42.1760 C   0  0  0  0  0  0  0  0  0  0  0  0
   50.3810   35.1410   42.9480 N   0  0  0  0  0  0  0  0  0  0  0  0
   48.1370   34.6020   42.9150 N   0  0  0  0  0  0  0  0  0  0  0  0
   46.9420   34.3140   42.3700 C   0  0  0  0  0  0  0  0  0  0  0  0
   46.1320   31.9390   47.2760 C   0  0  0  0  0  0  0  0  0  0  0  0
   47.3040   32.4060   48.1060 C   0  0  0  0  0  0  0  0  0  0  0  0
   45.0390   31.4360   48.1940 C   0  0  0  0  0  0  0  0  0  0  0  0
   46.6290   30.8120   46.3850 C   0  0  0  0  0  0  0  0  0  0  0  0
   45.8920   29.5370   46.6530 C   0  0  0  0  0  0  0  0  0  0  0  0
   46.4120   28.6200   47.4970 C   0  0  0  0  0  0  0  0  0  0  0  0
   45.2210   27.2290   47.5510 S   0  0  0  0  0  0  0  0  0  0  0  0
   44.1270   28.1790   46.3320 C   0  0  0  0  0  0  0  0  0  0  0  0
   44.7500   29.1580   46.1610 N   0  0  0  0  0  0  0  0  0  0  0  0
   42.8320   27.8510   45.7150 N   0  0  0  0  0  0  0  0  0  0  0  0
   42.0920   28.6340   44.9010 C   0  0  0  0  0  0  0  0  0  0  0  0
   40.9980   27.8380   44.6270 C   0  0  0  0  0  0  0  0  0  0  0  0
   41.0870   26.6310   45.2540 N   0  0  0  0  0  0  0  0  0  0  0  0
   42.2430   26.6610   45.9300 C   0  0  0  0  0  0  0  0  0  0  0  0
   43.9625   35.8518   46.6224 H   0  0  0  0  0  0  0  0  0  0  0  0
   44.3880   35.8555   44.1611 H   0  0  0  0  0  0  0  0  0  0  0  0
   43.8648   33.5734   41.7713 H   0  0  0  0  0  0  0  0  0  0  0  0
   50.0735   35.0674   40.3058 H   0  0  0  0  0  0  0  0  0  0  0  0
   50.3327   35.1291   43.9768 H   0  0  0  0  0  0  0  0  0  0  0  0
   51.2713   35.3558   42.4767 H   0  0  0  0  0  0  0  0  0  0  0  0
   47.0590   32.3084   49.1739 H   0  0  0  0  0  0  0  0  0  0  0  0
   48.1858   31.7905   47.8743 H   0  0  0  0  0  0  0  0  0  0  0  0
   47.5209   33.4592   47.8743 H   0  0  0  0  0  0  0  0  0  0  0  0
   45.3457   31.5771   49.2409 H   0  0  0  0  0  0  0  0  0  0  0  0
   44.1130   31.9985   48.0042 H   0  0  0  0  0  0  0  0  0  0  0  0
   44.8639   30.3667   48.0042 H   0  0  0  0  0  0  0  0  0  0  0  0
   47.7007   30.6523   46.5745 H   0  0  0  0  0  0  0  0  0  0  0  0
   46.4557   31.0978   45.3370 H   0  0  0  0  0  0  0  0  0  0  0  0
   47.3633   28.6937   48.0443 H   0  0  0  0  0  0  0  0  0  0  0  0
   42.3073   29.6523   44.5450 H   0  0  0  0  0  0  0  0  0  0  0  0
   40.1590   28.1401   43.9829 H   0  0  0  0  0  0  0  0  0  0  0  0
   42.6431   25.8494   46.5554 H   0  0  0  0  0  0  0  0  0  0  0  0
  1  6  2  0
  2  1  1  0
  3  2  2  0
  3  4  1  0
  4  5  2  0
  5  6  1  0
  5 18  1  0
  7  3  1  0
  8  7  1  0
  9 10  1  0
  9  8  2  0
 10 17  2  0
 11 13  1  0
 11 10  1  0
 12 11  2  0
 13 14  1  0
 14 16  2  0
 14 15  1  0
 17  7  1  0
 17 16  1  0
 18 19  1  0
 18 20  1  0
 21 22  1  0
 21 18  1  0
 22 23  2  0
 23 24  1  0
 25 24  1  0
 26 25  2  0
 26 22  1  0
 27 31  1  0
 27 25  1  0
 28 27  1  0
 29 28  2  0
 29 30  1  0
 30 31  2  0
  1 32  1  0
  2 33  1  0
  8 34  1  0
 13 35  1  0
 15 36  1  0
 15 37  1  0
 19 38  1  0
 19 39  1  0
 19 40  1  0
 20 41  1  0
 20 42  1  0
 20 43  1  0
 21 44  1  0
 21 45  1  0
 23 46  1  0
 28 47  1  0
 29 48  1  0
 31 49  1  0
M  END
>  <Score>  (1) 
-7.48112

$$$$
