
     RDKit          3D

 49 54  0  0  1  0  0  0  0  0999 V2000
   44.6590   35.5200   45.0440 C   0  0  0  0  0  0  0  0  0  0  0  0
   44.2180   35.4480   43.7110 C   0  0  0  0  0  0  0  0  0  0  0  0
   44.5890   34.3620   42.9450 C   0  0  0  0  0  0  0  0  0  0  0  0
   45.3640   33.4400   43.5540 N   0  0  0  0  0  0  0  0  0  0  0  0
   45.7820   33.5130   44.8230 C   0  0  0  0  0  0  0  0  0  0  0  0
   45.4090   34.5720   45.5380 N   0  0  0  0  0  0  0  0  0  0  0  0
   46.5860   32.3830   44.9160 C   0  0  0  0  0  0  0  0  0  0  0  0
   47.3090   31.3850   44.9600 N   0  0  0  0  0  0  0  0  0  0  0  0
   48.0290   30.4010   44.9840 C   0  0  0  0  0  0  0  0  0  0  0  0
   47.8440   30.1080   46.2730 N   0  0  0  0  0  0  0  0  0  0  0  0
   47.0030   30.9340   46.9850 C   0  0  0  0  0  0  0  0  0  0  0  0
   46.8560   30.5290   48.3360 C   0  0  0  0  0  0  0  0  0  0  0  0
   46.0250   31.2660   49.0970 C   0  0  0  0  0  0  0  0  0  0  0  0
   45.3400   32.3480   48.6330 C   0  0  0  0  0  0  0  0  0  0  0  0
   45.5770   32.6310   47.3080 C   0  0  0  0  0  0  0  0  0  0  0  0
   46.3940   32.0320   46.3110 C   0  0  0  0  0  0  0  0  0  0  0  0
   44.1510   34.2980   41.6050 N   0  0  0  0  0  0  0  0  0  0  0  0
   42.8650   34.3050   41.2690 C   0  0  0  0  0  0  0  0  0  0  0  0
   42.8220   34.2360   39.8860 C   0  0  0  0  0  0  0  0  0  0  0  0
   44.0960   34.1900   39.4210 N   0  0  0  0  0  0  0  0  0  0  0  0
   44.9220   34.2290   40.5060 C   0  0  0  0  0  0  0  0  0  0  0  0
   46.3540   34.1920   40.5330 N   0  0  0  0  0  0  0  0  0  0  0  0
   41.4660   34.2080   39.2770 C   0  0  0  0  0  0  0  0  0  0  0  0
   41.1030   34.8910   38.2080 N   0  0  0  0  0  0  0  0  0  0  0  0
   39.8990   34.8880   37.6620 C   0  0  0  0  0  0  0  0  0  0  0  0
   38.9050   34.1530   38.1800 N   0  0  0  0  0  0  0  0  0  0  0  0
   39.2070   33.4300   39.2770 C   0  0  0  0  0  0  0  0  0  0  0  0
   38.1440   32.6970   39.7680 C   0  0  0  0  0  0  0  0  0  0  0  0
   38.3010   31.8970   40.9110 C   0  0  0  0  0  0  0  0  0  0  0  0
   39.5730   31.9330   41.4450 C   0  0  0  0  0  0  0  0  0  0  0  0
   40.6370   32.6330   40.9930 C   0  0  0  0  0  0  0  0  0  0  0  0
   40.4740   33.4140   39.8740 C   0  0  0  0  0  0  0  0  0  0  0  0
   44.3718   36.3763   45.6719 H   0  0  0  0  0  0  0  0  0  0  0  0
   43.5882   36.2435   43.2862 H   0  0  0  0  0  0  0  0  0  0  0  0
   45.7326   31.7520   44.6269 H   0  0  0  0  0  0  0  0  0  0  0  0
   47.0564   31.2349   45.9472 H   0  0  0  0  0  0  0  0  0  0  0  0
   48.6315   29.9156   44.2021 H   0  0  0  0  0  0  0  0  0  0  0  0
   47.3927   29.6584   48.7410 H   0  0  0  0  0  0  0  0  0  0  0  0
   45.8921   30.9787   50.1505 H   0  0  0  0  0  0  0  0  0  0  0  0
   44.6592   32.9415   49.2608 H   0  0  0  0  0  0  0  0  0  0  0  0
   45.0165   33.5044   46.9433 H   0  0  0  0  0  0  0  0  0  0  0  0
   42.0053   34.3556   41.9534 H   0  0  0  0  0  0  0  0  0  0  0  0
   46.8533   34.2294   41.4331 H   0  0  0  0  0  0  0  0  0  0  0  0
   46.8842   34.1280   39.6523 H   0  0  0  0  0  0  0  0  0  0  0  0
   39.7097   35.4992   36.7672 H   0  0  0  0  0  0  0  0  0  0  0  0
   37.1690   32.7404   39.2605 H   0  0  0  0  0  0  0  0  0  0  0  0
   37.4855   31.2970   41.3411 H   0  0  0  0  0  0  0  0  0  0  0  0
   39.7404   31.3205   42.3433 H   0  0  0  0  0  0  0  0  0  0  0  0
   41.6079   32.5791   41.5072 H   0  0  0  0  0  0  0  0  0  0  0  0
  1  6  2  0
  2  1  1  0
  3  4  1  0
  3  2  2  0
  4  5  2  0
  5  6  1  0
  7  5  1  0
  7  8  1  0
  7 16  1  0
  8  9  1  0
  9 10  2  0
 10 11  1  0
 11 12  2  0
 12 13  1  0
 14 13  2  0
 15 14  1  0
 16 11  1  0
 16 15  2  0
 17  3  1  0
 18 17  1  0
 19 18  2  0
 20 19  1  0
 20 21  2  0
 21 22  1  0
 21 17  1  0
 23 32  1  0
 23 19  1  0
 24 23  2  0
 25 26  2  0
 25 24  1  0
 26 27  1  0
 27 28  1  0
 27 32  2  0
 28 29  2  0
 29 30  1  0
 31 30  2  0
 32 31  1  0
  1 33  1  0
  2 34  1  0
  7 35  1  0
  8 36  1  0
  9 37  1  0
 12 38  1  0
 13 39  1  0
 14 40  1  0
 15 41  1  0
 18 42  1  0
 22 43  1  0
 22 44  1  0
 25 45  1  0
 28 46  1  0
 29 47  1  0
 30 48  1  0
 31 49  1  0
M  END
>  <Score>  (1) 
-7.82397

$$$$
