
     RDKit          3D

 44 48  0  0  0  0  0  0  0  0999 V2000
   46.5640   34.7130   42.1410 C   0  0  0  0  0  0  0  0  0  0  0  0
   47.7670   35.3290   41.9590 C   0  0  0  0  0  0  0  0  0  0  0  0
   48.5270   35.1620   40.7840 C   0  0  0  0  0  0  0  0  0  0  0  0
   48.0030   34.3250   39.7750 C   0  0  0  0  0  0  0  0  0  0  0  0
   46.7770   33.6990   39.9620 C   0  0  0  0  0  0  0  0  0  0  0  0
   46.0910   33.9100   41.1380 C   0  0  0  0  0  0  0  0  0  0  0  0
   44.8310   33.2530   41.3040 N   0  0  0  0  0  0  0  0  0  0  0  0
   44.6020   32.0090   41.7690 C   0  0  0  0  0  0  0  0  0  0  0  0
   43.3330   31.5240   41.8680 C   0  0  0  0  0  0  0  0  0  0  0  0
   42.2490   32.2850   41.4980 C   0  0  0  0  0  0  0  0  0  0  0  0
   41.0780   31.8110   41.6000 O   0  0  0  0  0  0  0  0  0  0  0  0
   42.5060   33.5370   41.0340 N   0  0  0  0  0  0  0  0  0  0  0  0
   43.7480   34.0090   40.9370 C   0  0  0  0  0  0  0  0  0  0  0  0
   43.8530   35.1860   40.4900 O   0  0  0  0  0  0  0  0  0  0  0  0
   41.3630   34.3050   40.6560 C   0  0  0  0  0  0  0  0  0  0  0  0
   41.3210   35.6470   40.9780 C   0  0  0  0  0  0  0  0  0  0  0  0
   40.1040   36.1530   40.4970 C   0  0  0  0  0  0  0  0  0  0  0  0
   39.4660   35.1020   39.9110 N   0  0  0  0  0  0  0  0  0  0  0  0
   40.2110   34.0280   40.0100 N   0  0  0  0  0  0  0  0  0  0  0  0
   44.4140   36.1570   44.8820 C   0  0  0  0  0  0  0  0  0  0  0  0
   45.0350   36.0260   43.6480 C   0  0  0  0  0  0  0  0  0  0  0  0
   45.8650   34.9530   43.3860 C   0  0  0  0  0  0  0  0  0  0  0  0
   46.0520   34.0270   44.3880 N   0  0  0  0  0  0  0  0  0  0  0  0
   45.4230   34.1850   45.6000 C   0  0  0  0  0  0  0  0  0  0  0  0
   44.6250   35.2230   45.8420 N   0  0  0  0  0  0  0  0  0  0  0  0
   45.6520   33.1820   46.6240 C   0  0  0  0  0  0  0  0  0  0  0  0
   46.5730   32.1560   46.6280 C   0  0  0  0  0  0  0  0  0  0  0  0
   46.4380   31.4590   47.7850 N   0  0  0  0  0  0  0  0  0  0  0  0
   45.4420   32.0300   48.5200 C   0  0  0  0  0  0  0  0  0  0  0  0
   44.9910   33.0650   47.7890 N   0  0  0  0  0  0  0  0  0  0  0  0
   48.1574   35.9783   42.7565 H   0  0  0  0  0  0  0  0  0  0  0  0
   49.4960   35.6669   40.6573 H   0  0  0  0  0  0  0  0  0  0  0  0
   48.5646   34.1688   38.8422 H   0  0  0  0  0  0  0  0  0  0  0  0
   46.3600   33.0444   39.1825 H   0  0  0  0  0  0  0  0  0  0  0  0
   45.4502   31.3776   42.0723 H   0  0  0  0  0  0  0  0  0  0  0  0
   43.1724   30.5053   42.2508 H   0  0  0  0  0  0  0  0  0  0  0  0
   42.0974   36.2141   41.5124 H   0  0  0  0  0  0  0  0  0  0  0  0
   39.7394   37.1877   40.5769 H   0  0  0  0  0  0  0  0  0  0  0  0
   38.5411   35.1445   39.4598 H   0  0  0  0  0  0  0  0  0  0  0  0
   43.7539   37.0142   45.0804 H   0  0  0  0  0  0  0  0  0  0  0  0
   44.8646   36.7847   42.8699 H   0  0  0  0  0  0  0  0  0  0  0  0
   47.2959   31.9387   45.8279 H   0  0  0  0  0  0  0  0  0  0  0  0
   45.0811   31.7098   49.5085 H   0  0  0  0  0  0  0  0  0  0  0  0
   44.2304   33.6928   48.0861 H   0  0  0  0  0  0  0  0  0  0  0  0
  1 22  1  0
  2  1  2  0
  3  2  1  0
  4  5  1  0
  4  3  2  0
  5  6  2  0
  6  7  1  0
  6  1  1  0
  7  8  1  0
  8  9  2  0
 10 11  2  0
 10  9  1  0
 12 10  1  0
 13 12  1  0
 13  7  1  0
 14 13  2  0
 15 16  1  0
 15 12  1  0
 17 16  2  0
 18 19  1  0
 18 17  1  0
 19 15  2  0
 20 25  2  0
 21 20  1  0
 22 21  2  0
 22 23  1  0
 23 24  2  0
 24 25  1  0
 24 26  1  0
 26 27  2  0
 26 30  1  0
 27 28  1  0
 28 29  2  0
 30 29  1  0
  2 31  1  0
  3 32  1  0
  4 33  1  0
  5 34  1  0
  8 35  1  0
  9 36  1  0
 16 37  1  0
 17 38  1  0
 18 39  1  0
 20 40  1  0
 21 41  1  0
 27 42  1  0
 29 43  1  0
 30 44  1  0
M  END
>  <Score>  (1) 
-8.94399

$$$$
