
     RDKit          3D

 41 44  0  0  0  0  0  0  0  0999 V2000
   46.7010   34.6920   41.6860 C   0  0  0  0  0  0  0  0  0  0  0  0
   44.5770   35.8390   44.5580 C   0  0  0  0  0  0  0  0  0  0  0  0
   45.1670   35.7760   43.2850 C   0  0  0  0  0  0  0  0  0  0  0  0
   46.0700   34.7720   43.0280 C   0  0  0  0  0  0  0  0  0  0  0  0
   46.3480   33.8850   44.0220 N   0  0  0  0  0  0  0  0  0  0  0  0
   45.7700   33.9590   45.2500 C   0  0  0  0  0  0  0  0  0  0  0  0
   44.8710   34.9620   45.5020 N   0  0  0  0  0  0  0  0  0  0  0  0
   46.0830   33.0080   46.2840 C   0  0  0  0  0  0  0  0  0  0  0  0
   45.3930   33.0370   47.4890 C   0  0  0  0  0  0  0  0  0  0  0  0
   45.6350   32.1560   48.5350 C   0  0  0  0  0  0  0  0  0  0  0  0
   46.6160   31.2590   48.2660 C   0  0  0  0  0  0  0  0  0  0  0  0
   47.3380   31.1830   47.0810 C   0  0  0  0  0  0  0  0  0  0  0  0
   47.0140   32.0900   46.1420 N   0  0  0  0  0  0  0  0  0  0  0  0
   44.3780   34.0280   47.6590 N   0  0  0  0  0  0  0  0  0  0  0  0
   48.0760   35.3550   41.6700 C   0  0  0  0  0  0  0  0  0  0  0  0
   49.1610   34.3830   41.9070 C   0  0  0  0  0  0  0  0  0  0  0  0
   50.3200   34.7120   42.4790 N   0  0  0  0  0  0  0  0  0  0  0  0
   51.0670   33.6540   42.5510 O   0  0  0  0  0  0  0  0  0  0  0  0
   50.4200   32.6220   42.0330 C   0  0  0  0  0  0  0  0  0  0  0  0
   49.2180   33.0710   41.6230 N   0  0  0  0  0  0  0  0  0  0  0  0
   51.0430   31.3440   41.9980 N   0  0  0  0  0  0  0  0  0  0  0  0
   50.9790   30.2700   42.7860 N   0  0  0  0  0  0  0  0  0  0  0  0
   51.7800   29.2960   42.3070 C   0  0  0  0  0  0  0  0  0  0  0  0
   52.3770   29.8050   41.1480 C   0  0  0  0  0  0  0  0  0  0  0  0
   51.8850   31.1030   40.9860 C   0  0  0  0  0  0  0  0  0  0  0  0
   52.3120   31.8970   39.8780 N   0  0  0  0  0  0  0  0  0  0  0  0
   46.8118   33.6339   41.4063 H   0  0  0  0  0  0  0  0  0  0  0  0
   46.0554   35.2224   40.9706 H   0  0  0  0  0  0  0  0  0  0  0  0
   43.8525   36.6378   44.7746 H   0  0  0  0  0  0  0  0  0  0  0  0
   44.9120   36.5142   42.5104 H   0  0  0  0  0  0  0  0  0  0  0  0
   45.0854   32.1831   49.4875 H   0  0  0  0  0  0  0  0  0  0  0  0
   46.8609   30.5299   49.0524 H   0  0  0  0  0  0  0  0  0  0  0  0
   48.1236   30.4298   46.9213 H   0  0  0  0  0  0  0  0  0  0  0  0
   43.8479   34.0763   48.5408 H   0  0  0  0  0  0  0  0  0  0  0  0
   44.1763   34.6942   46.8998 H   0  0  0  0  0  0  0  0  0  0  0  0
   48.2309   35.8280   40.6890 H   0  0  0  0  0  0  0  0  0  0  0  0
   48.1038   36.0994   42.4793 H   0  0  0  0  0  0  0  0  0  0  0  0
   51.9338   28.2975   42.7420 H   0  0  0  0  0  0  0  0  0  0  0  0
   53.0925   29.2857   40.4935 H   0  0  0  0  0  0  0  0  0  0  0  0
   51.9488   32.8535   39.7595 H   0  0  0  0  0  0  0  0  0  0  0  0
   52.9831   31.5130   39.1975 H   0  0  0  0  0  0  0  0  0  0  0  0
  1  4  1  0
  2  7  2  0
  3  2  1  0
  4  3  2  0
  4  5  1  0
  5  6  2  0
  6  7  1  0
  6  8  1  0
  8  9  2  0
  9 14  1  0
  9 10  1  0
 11 10  2  0
 12 11  1  0
 13  8  1  0
 13 12  2  0
 15  1  1  0
 15 16  1  0
 16 17  2  0
 17 18  1  0
 19 18  1  0
 20 16  1  0
 20 19  2  0
 21 19  1  0
 21 22  1  0
 23 22  2  0
 24 23  1  0
 25 24  2  0
 25 21  1  0
 26 25  1  0
  1 27  1  0
  1 28  1  0
  2 29  1  0
  3 30  1  0
 10 31  1  0
 11 32  1  0
 12 33  1  0
 14 34  1  0
 14 35  1  0
 15 36  1  0
 15 37  1  0
 23 38  1  0
 24 39  1  0
 26 40  1  0
 26 41  1  0
M  END
>  <Score>  (1) 
-7.526

$$$$
