
     RDKit          3D

 46 51  0  0  0  0  0  0  0  0999 V2000
   44.7200   35.6500   44.5340 C   0  0  0  0  0  0  0  0  0  0  0  0
   44.1980   35.3810   43.2550 C   0  0  0  0  0  0  0  0  0  0  0  0
   44.4490   34.1160   42.7370 C   0  0  0  0  0  0  0  0  0  0  0  0
   45.1610   33.3080   43.5270 N   0  0  0  0  0  0  0  0  0  0  0  0
   45.6760   33.5210   44.7430 C   0  0  0  0  0  0  0  0  0  0  0  0
   45.3900   34.7150   45.1340 N   0  0  0  0  0  0  0  0  0  0  0  0
   43.9470   33.7690   41.4290 C   0  0  0  0  0  0  0  0  0  0  0  0
   44.8480   33.1360   40.4860 C   0  0  0  0  0  0  0  0  0  0  0  0
   43.7490   32.8920   38.9690 S   0  0  0  0  0  0  0  0  0  0  0  0
   42.3170   33.6840   39.9060 C   0  0  0  0  0  0  0  0  0  0  0  0
   42.7660   33.9230   40.8940 N   0  0  0  0  0  0  0  0  0  0  0  0
   41.0200   33.8480   39.3060 N   0  0  0  0  0  0  0  0  0  0  0  0
   40.3210   34.9790   39.5060 C   0  0  0  0  0  0  0  0  0  0  0  0
   39.1610   34.8220   38.8160 N   0  0  0  0  0  0  0  0  0  0  0  0
   39.1370   33.6260   38.2020 C   0  0  0  0  0  0  0  0  0  0  0  0
   38.2860   32.9020   37.3890 C   0  0  0  0  0  0  0  0  0  0  0  0
   37.1930   33.4340   37.0800 O   0  0  0  0  0  0  0  0  0  0  0  0
   38.6130   31.6670   36.9390 N   0  0  0  0  0  0  0  0  0  0  0  0
   39.7880   31.0800   37.2630 C   0  0  0  0  0  0  0  0  0  0  0  0
   40.2220   29.8070   36.8500 N   0  0  0  0  0  0  0  0  0  0  0  0
   40.6460   31.7720   38.0630 N   0  0  0  0  0  0  0  0  0  0  0  0
   40.3280   33.0060   38.5170 C   0  0  0  0  0  0  0  0  0  0  0  0
   46.3870   32.3920   45.2730 C   0  0  0  0  0  0  0  0  0  0  0  0
   47.2480   31.6330   44.4890 C   0  0  0  0  0  0  0  0  0  0  0  0
   47.9420   30.5480   44.9680 C   0  0  0  0  0  0  0  0  0  0  0  0
   47.8200   30.1470   46.2740 C   0  0  0  0  0  0  0  0  0  0  0  0
   46.9900   30.8680   47.0540 C   0  0  0  0  0  0  0  0  0  0  0  0
   46.8670   30.4620   48.3780 C   0  0  0  0  0  0  0  0  0  0  0  0
   46.0350   31.1530   49.2400 C   0  0  0  0  0  0  0  0  0  0  0  0
   45.3340   32.2490   48.7570 C   0  0  0  0  0  0  0  0  0  0  0  0
   45.5150   32.5780   47.4430 C   0  0  0  0  0  0  0  0  0  0  0  0
   46.3130   31.9450   46.5470 C   0  0  0  0  0  0  0  0  0  0  0  0
   44.5639   36.6280   45.0127 H   0  0  0  0  0  0  0  0  0  0  0  0
   43.6218   36.1322   42.6949 H   0  0  0  0  0  0  0  0  0  0  0  0
   45.9058   32.8657   40.6201 H   0  0  0  0  0  0  0  0  0  0  0  0
   40.6251   35.8506   40.1041 H   0  0  0  0  0  0  0  0  0  0  0  0
   37.9498   31.1616   36.3344 H   0  0  0  0  0  0  0  0  0  0  0  0
   41.1394   29.4517   37.1549 H   0  0  0  0  0  0  0  0  0  0  0  0
   39.6223   29.2304   36.2427 H   0  0  0  0  0  0  0  0  0  0  0  0
   47.3803   31.9145   43.4339 H   0  0  0  0  0  0  0  0  0  0  0  0
   48.6073   29.9910   44.2919 H   0  0  0  0  0  0  0  0  0  0  0  0
   48.3722   29.2799   46.6655 H   0  0  0  0  0  0  0  0  0  0  0  0
   47.4319   29.5904   48.7403 H   0  0  0  0  0  0  0  0  0  0  0  0
   45.9308   30.8396   50.2892 H   0  0  0  0  0  0  0  0  0  0  0  0
   44.6605   32.8290   49.4051 H   0  0  0  0  0  0  0  0  0  0  0  0
   44.9540   33.4486   47.0725 H   0  0  0  0  0  0  0  0  0  0  0  0
  1  6  2  0
  2  1  1  0
  3  2  2  0
  3  4  1  0
  4  5  2  0
  5  6  1  0
  5 23  1  0
  7  3  1  0
  8  7  2  0
  9 10  1  0
  9  8  1  0
 10 11  2  0
 11  7  1  0
 12 13  1  0
 12 10  1  0
 14 13  2  0
 15 22  2  0
 15 14  1  0
 16 15  1  0
 17 16  2  0
 18 19  1  0
 18 16  1  0
 19 21  2  0
 20 19  1  0
 21 22  1  0
 22 12  1  0
 23 32  2  0
 24 25  2  0
 24 23  1  0
 25 26  1  0
 26 27  2  0
 27 28  1  0
 28 29  2  0
 30 29  1  0
 31 30  2  0
 32 27  1  0
 32 31  1  0
  1 33  1  0
  2 34  1  0
  8 35  1  0
 13 36  1  0
 18 37  1  0
 20 38  1  0
 20 39  1  0
 24 40  1  0
 25 41  1  0
 26 42  1  0
 28 43  1  0
 29 44  1  0
 30 45  1  0
 31 46  1  0
M  END
>  <Score>  (1) 
-7.5807

$$$$
