
     RDKit          3D

 47 51  0  0  0  0  0  0  0  0999 V2000
   46.5960   34.6330   42.2110 C   0  0  0  0  0  0  0  0  0  0  0  0
   47.7970   35.2550   42.0410 C   0  0  0  0  0  0  0  0  0  0  0  0
   48.5240   35.1630   40.8380 C   0  0  0  0  0  0  0  0  0  0  0  0
   47.9840   34.4040   39.7870 C   0  0  0  0  0  0  0  0  0  0  0  0
   46.7580   33.7680   39.9580 C   0  0  0  0  0  0  0  0  0  0  0  0
   46.1020   33.9030   41.1630 C   0  0  0  0  0  0  0  0  0  0  0  0
   44.8400   33.2400   41.3170 N   0  0  0  0  0  0  0  0  0  0  0  0
   44.6080   31.9870   41.7610 C   0  0  0  0  0  0  0  0  0  0  0  0
   43.3330   31.5060   41.8460 C   0  0  0  0  0  0  0  0  0  0  0  0
   42.2580   32.2730   41.4860 C   0  0  0  0  0  0  0  0  0  0  0  0
   41.0900   31.7900   41.5780 O   0  0  0  0  0  0  0  0  0  0  0  0
   42.5090   33.5310   41.0390 N   0  0  0  0  0  0  0  0  0  0  0  0
   43.7620   34.0020   40.9570 C   0  0  0  0  0  0  0  0  0  0  0  0
   43.8600   35.1900   40.5260 O   0  0  0  0  0  0  0  0  0  0  0  0
   41.3720   34.3030   40.6730 C   0  0  0  0  0  0  0  0  0  0  0  0
   41.3260   35.6440   41.0160 C   0  0  0  0  0  0  0  0  0  0  0  0
   40.1120   36.1550   40.5400 C   0  0  0  0  0  0  0  0  0  0  0  0
   39.4770   35.1140   39.9330 N   0  0  0  0  0  0  0  0  0  0  0  0
   40.2210   34.0270   40.0140 N   0  0  0  0  0  0  0  0  0  0  0  0
   44.4540   35.8550   45.0600 C   0  0  0  0  0  0  0  0  0  0  0  0
   45.0420   35.7990   43.7920 C   0  0  0  0  0  0  0  0  0  0  0  0
   45.9270   34.7910   43.4890 C   0  0  0  0  0  0  0  0  0  0  0  0
   46.2090   33.8520   44.4630 N   0  0  0  0  0  0  0  0  0  0  0  0
   45.6160   33.9420   45.6830 C   0  0  0  0  0  0  0  0  0  0  0  0
   44.7600   34.9190   45.9780 N   0  0  0  0  0  0  0  0  0  0  0  0
   45.9440   32.9290   46.6820 C   0  0  0  0  0  0  0  0  0  0  0  0
   45.1560   32.7840   47.8050 C   0  0  0  0  0  0  0  0  0  0  0  0
   45.4170   31.8440   48.7790 C   0  0  0  0  0  0  0  0  0  0  0  0
   46.5180   31.0120   48.6220 C   0  0  0  0  0  0  0  0  0  0  0  0
   47.3170   31.1540   47.4890 C   0  0  0  0  0  0  0  0  0  0  0  0
   47.0370   32.1010   46.5270 C   0  0  0  0  0  0  0  0  0  0  0  0
   48.2117   35.8477   42.8697 H   0  0  0  0  0  0  0  0  0  0  0  0
   49.4917   35.6735   40.7245 H   0  0  0  0  0  0  0  0  0  0  0  0
   48.5267   34.3128   38.8346 H   0  0  0  0  0  0  0  0  0  0  0  0
   46.3203   33.1684   39.1463 H   0  0  0  0  0  0  0  0  0  0  0  0
   45.4530   31.3479   42.0569 H   0  0  0  0  0  0  0  0  0  0  0  0
   43.1664   30.4818   42.2110 H   0  0  0  0  0  0  0  0  0  0  0  0
   42.0998   36.2041   41.5614 H   0  0  0  0  0  0  0  0  0  0  0  0
   39.7456   37.1877   40.6367 H   0  0  0  0  0  0  0  0  0  0  0  0
   38.5541   35.1672   39.4787 H   0  0  0  0  0  0  0  0  0  0  0  0
   43.7453   36.6596   45.3058 H   0  0  0  0  0  0  0  0  0  0  0  0
   44.7966   36.5610   43.0376 H   0  0  0  0  0  0  0  0  0  0  0  0
   44.2850   33.4445   47.9281 H   0  0  0  0  0  0  0  0  0  0  0  0
   44.7670   31.7548   49.6619 H   0  0  0  0  0  0  0  0  0  0  0  0
   46.7559   30.2521   49.3809 H   0  0  0  0  0  0  0  0  0  0  0  0
   48.1894   30.4966   47.3596 H   0  0  0  0  0  0  0  0  0  0  0  0
   47.6814   32.1961   45.6406 H   0  0  0  0  0  0  0  0  0  0  0  0
  1 22  1  0
  2  1  2  0
  3  2  1  0
  4  5  1  0
  4  3  2  0
  5  6  2  0
  6  7  1  0
  6  1  1  0
  7  8  1  0
  8  9  2  0
 10 11  2  0
 10  9  1  0
 12 10  1  0
 13 12  1  0
 13  7  1  0
 14 13  2  0
 15 16  1  0
 15 12  1  0
 17 16  2  0
 18 19  1  0
 18 17  1  0
 19 15  2  0
 20 25  2  0
 21 20  1  0
 22 21  2  0
 22 23  1  0
 23 24  2  0
 24 25  1  0
 24 26  1  0
 26 27  2  0
 27 28  1  0
 29 28  2  0
 30 29  1  0
 31 26  1  0
 31 30  2  0
  2 32  1  0
  3 33  1  0
  4 34  1  0
  5 35  1  0
  8 36  1  0
  9 37  1  0
 16 38  1  0
 17 39  1  0
 18 40  1  0
 20 41  1  0
 21 42  1  0
 27 43  1  0
 28 44  1  0
 29 45  1  0
 30 46  1  0
 31 47  1  0
M  END
>  <Score>  (1) 
-9.09522

$$$$
