
     RDKit          3D

 40 44  0  0  0  0  0  0  0  0999 V2000
   44.4740   35.7670   44.9960 C   0  0  0  0  0  0  0  0  0  0  0  0
   45.1000   35.8290   43.7520 C   0  0  0  0  0  0  0  0  0  0  0  0
   46.0280   34.9000   43.3510 C   0  0  0  0  0  0  0  0  0  0  0  0
   46.2180   33.9860   44.2920 N   0  0  0  0  0  0  0  0  0  0  0  0
   45.6900   33.8320   45.4870 C   0  0  0  0  0  0  0  0  0  0  0  0
   44.7930   34.7690   45.8190 N   0  0  0  0  0  0  0  0  0  0  0  0
   46.7730   34.7890   42.1430 C   0  0  0  0  0  0  0  0  0  0  0  0
   48.0080   35.4330   42.0650 C   0  0  0  0  0  0  0  0  0  0  0  0
   48.8300   35.4310   40.9700 C   0  0  0  0  0  0  0  0  0  0  0  0
   48.4370   34.7540   39.8520 C   0  0  0  0  0  0  0  0  0  0  0  0
   47.2410   34.0940   39.8400 C   0  0  0  0  0  0  0  0  0  0  0  0
   46.8280   33.4070   38.7160 C   0  0  0  0  0  0  0  0  0  0  0  0
   45.6220   32.7260   38.6650 C   0  0  0  0  0  0  0  0  0  0  0  0
   44.8420   32.7780   39.8290 C   0  0  0  0  0  0  0  0  0  0  0  0
   45.2740   33.4600   40.9140 C   0  0  0  0  0  0  0  0  0  0  0  0
   46.4680   34.1370   40.9710 C   0  0  0  0  0  0  0  0  0  0  0  0
   45.9060   32.8260   46.5070 C   0  0  0  0  0  0  0  0  0  0  0  0
   45.3810   32.9400   47.7390 N   0  0  0  0  0  0  0  0  0  0  0  0
   45.5390   32.0540   48.7280 C   0  0  0  0  0  0  0  0  0  0  0  0
   46.2670   30.9380   48.5470 N   0  0  0  0  0  0  0  0  0  0  0  0
   46.8450   30.7240   47.3330 C   0  0  0  0  0  0  0  0  0  0  0  0
   47.5900   29.5840   47.1420 C   0  0  0  0  0  0  0  0  0  0  0  0
   48.1860   29.3360   45.9310 C   0  0  0  0  0  0  0  0  0  0  0  0
   47.9940   30.2860   44.9380 C   0  0  0  0  0  0  0  0  0  0  0  0
   47.2420   31.4050   45.1770 C   0  0  0  0  0  0  0  0  0  0  0  0
   46.6390   31.6700   46.3760 C   0  0  0  0  0  0  0  0  0  0  0  0
   43.7335   36.5248   45.2914 H   0  0  0  0  0  0  0  0  0  0  0  0
   44.8415   36.6507   43.0679 H   0  0  0  0  0  0  0  0  0  0  0  0
   48.3482   35.9859   42.9530 H   0  0  0  0  0  0  0  0  0  0  0  0
   49.7909   35.9660   40.9910 H   0  0  0  0  0  0  0  0  0  0  0  0
   49.0826   34.7398   38.9615 H   0  0  0  0  0  0  0  0  0  0  0  0
   47.4792   33.3999   37.8295 H   0  0  0  0  0  0  0  0  0  0  0  0
   45.2971   32.1790   37.7676 H   0  0  0  0  0  0  0  0  0  0  0  0
   43.8719   32.2604   39.8599 H   0  0  0  0  0  0  0  0  0  0  0  0
   44.6298   33.4735   41.8055 H   0  0  0  0  0  0  0  0  0  0  0  0
   45.0666   32.2408   49.7037 H   0  0  0  0  0  0  0  0  0  0  0  0
   47.7091   28.8654   47.9663 H   0  0  0  0  0  0  0  0  0  0  0  0
   48.7854   28.4303   45.7564 H   0  0  0  0  0  0  0  0  0  0  0  0
   48.4508   30.1386   43.9483 H   0  0  0  0  0  0  0  0  0  0  0  0
   47.1158   32.1307   44.3601 H   0  0  0  0  0  0  0  0  0  0  0  0
  1  6  2  0
  2  1  1  0
  3  2  2  0
  3  4  1  0
  4  5  2  0
  5  6  1  0
  5 17  1  0
  7  3  1  0
  8  7  2  0
  9  8  1  0
 10  9  2  0
 11 10  1  0
 11 16  2  0
 12 11  1  0
 13 12  2  0
 13 14  1  0
 14 15  2  0
 15 16  1  0
 16  7  1  0
 17 18  2  0
 18 19  1  0
 20 19  2  0
 21 20  1  0
 22 21  2  0
 23 22  1  0
 24 25  1  0
 24 23  2  0
 25 26  2  0
 26 17  1  0
 26 21  1  0
  1 27  1  0
  2 28  1  0
  8 29  1  0
  9 30  1  0
 10 31  1  0
 12 32  1  0
 13 33  1  0
 14 34  1  0
 15 35  1  0
 19 36  1  0
 22 37  1  0
 23 38  1  0
 24 39  1  0
 25 40  1  0
M  END
>  <Score>  (1) 
-7.64716

$$$$
