
     RDKit          3D

 35 38  0  0  0  0  0  0  0  0999 V2000
   46.5420   34.6540   42.1910 C   0  0  0  0  0  0  0  0  0  0  0  0
   47.7590   35.2590   42.0010 C   0  0  0  0  0  0  0  0  0  0  0  0
   48.4820   35.1480   40.8170 C   0  0  0  0  0  0  0  0  0  0  0  0
   47.9330   34.3750   39.7690 C   0  0  0  0  0  0  0  0  0  0  0  0
   46.7020   33.7560   39.9450 C   0  0  0  0  0  0  0  0  0  0  0  0
   46.0390   33.9080   41.1450 C   0  0  0  0  0  0  0  0  0  0  0  0
   44.7730   33.2630   41.3070 N   0  0  0  0  0  0  0  0  0  0  0  0
   44.5480   32.0010   41.7550 C   0  0  0  0  0  0  0  0  0  0  0  0
   43.2630   31.5420   41.8490 C   0  0  0  0  0  0  0  0  0  0  0  0
   42.1810   32.3250   41.5010 C   0  0  0  0  0  0  0  0  0  0  0  0
   41.0170   31.8540   41.6060 O   0  0  0  0  0  0  0  0  0  0  0  0
   42.4540   33.5760   41.0600 N   0  0  0  0  0  0  0  0  0  0  0  0
   43.7040   34.0370   40.9630 C   0  0  0  0  0  0  0  0  0  0  0  0
   43.8150   35.2290   40.5350 O   0  0  0  0  0  0  0  0  0  0  0  0
   41.3330   34.3790   40.7030 C   0  0  0  0  0  0  0  0  0  0  0  0
   41.1210   35.6800   40.9280 N   0  0  0  0  0  0  0  0  0  0  0  0
   39.9790   36.0400   40.4480 O   0  0  0  0  0  0  0  0  0  0  0  0
   39.3600   35.0180   39.8790 C   0  0  0  0  0  0  0  0  0  0  0  0
   40.2190   33.9870   40.0470 N   0  0  0  0  0  0  0  0  0  0  0  0
   44.4540   35.9720   45.0250 C   0  0  0  0  0  0  0  0  0  0  0  0
   45.0410   35.9020   43.7650 C   0  0  0  0  0  0  0  0  0  0  0  0
   45.8780   34.8360   43.4580 C   0  0  0  0  0  0  0  0  0  0  0  0
   46.0960   33.8880   44.4140 N   0  0  0  0  0  0  0  0  0  0  0  0
   45.5020   33.9880   45.6420 C   0  0  0  0  0  0  0  0  0  0  0  0
   44.6980   35.0110   45.9370 N   0  0  0  0  0  0  0  0  0  0  0  0
   48.1818   35.8582   42.8208 H   0  0  0  0  0  0  0  0  0  0  0  0
   49.4546   35.6485   40.7001 H   0  0  0  0  0  0  0  0  0  0  0  0
   48.4773   34.2642   38.8195 H   0  0  0  0  0  0  0  0  0  0  0  0
   46.2615   33.1523   39.1378 H   0  0  0  0  0  0  0  0  0  0  0  0
   45.3910   31.3541   42.0395 H   0  0  0  0  0  0  0  0  0  0  0  0
   43.0867   30.5189   42.2126 H   0  0  0  0  0  0  0  0  0  0  0  0
   38.3771   35.0092   39.3851 H   0  0  0  0  0  0  0  0  0  0  0  0
   43.7904   36.8125   45.2763 H   0  0  0  0  0  0  0  0  0  0  0  0
   44.8439   36.6847   43.0177 H   0  0  0  0  0  0  0  0  0  0  0  0
   45.6903   33.2122   46.3988 H   0  0  0  0  0  0  0  0  0  0  0  0
  1 22  1  0
  2  1  2  0
  3  2  1  0
  4  5  1  0
  4  3  2  0
  5  6  2  0
  6  7  1  0
  6  1  1  0
  7  8  1  0
  8  9  2  0
 10 11  2  0
 10  9  1  0
 12 10  1  0
 13 12  1  0
 13  7  1  0
 14 13  2  0
 15 16  2  0
 15 12  1  0
 17 16  1  0
 18 19  2  0
 18 17  1  0
 19 15  1  0
 20 25  2  0
 21 20  1  0
 22 21  2  0
 22 23  1  0
 23 24  2  0
 24 25  1  0
  2 26  1  0
  3 27  1  0
  4 28  1  0
  5 29  1  0
  8 30  1  0
  9 31  1  0
 18 32  1  0
 20 33  1  0
 21 34  1  0
 24 35  1  0
M  END
>  <Score>  (1) 
-7.46797

$$$$
