
     RDKit          3D

 46 50  0  0  0  0  0  0  0  0999 V2000
   46.9190   34.7640   41.9510 C   0  0  0  0  0  0  0  0  0  0  0  0
   48.1990   35.2790   41.7180 C   0  0  0  0  0  0  0  0  0  0  0  0
   48.4820   34.8560   40.4210 C   0  0  0  0  0  0  0  0  0  0  0  0
   47.3780   34.1260   39.9560 C   0  0  0  0  0  0  0  0  0  0  0  0
   46.4810   34.1080   40.9180 O   0  0  0  0  0  0  0  0  0  0  0  0
   44.4980   36.0480   44.4670 C   0  0  0  0  0  0  0  0  0  0  0  0
   45.2440   35.9450   43.2450 C   0  0  0  0  0  0  0  0  0  0  0  0
   46.1360   34.9120   43.1700 C   0  0  0  0  0  0  0  0  0  0  0  0
   46.2650   34.0610   44.2260 N   0  0  0  0  0  0  0  0  0  0  0  0
   45.5510   34.1850   45.3560 C   0  0  0  0  0  0  0  0  0  0  0  0
   44.6590   35.1840   45.4820 N   0  0  0  0  0  0  0  0  0  0  0  0
   45.8040   33.2120   46.3710 N   0  0  0  0  0  0  0  0  0  0  0  0
   45.1730   33.1510   47.5340 N   0  0  0  0  0  0  0  0  0  0  0  0
   45.6140   32.1390   48.2870 C   0  0  0  0  0  0  0  0  0  0  0  0
   46.6110   31.4920   47.5530 C   0  0  0  0  0  0  0  0  0  0  0  0
   46.7130   32.1850   46.3530 C   0  0  0  0  0  0  0  0  0  0  0  0
   47.2740   33.5250   38.6780 N   0  0  0  0  0  0  0  0  0  0  0  0
   46.5220   32.4250   38.5720 C   0  0  0  0  0  0  0  0  0  0  0  0
   46.3600   31.7670   37.3690 C   0  0  0  0  0  0  0  0  0  0  0  0
   47.0090   32.2890   36.2610 C   0  0  0  0  0  0  0  0  0  0  0  0
   46.8850   31.7170   35.1470 O   0  0  0  0  0  0  0  0  0  0  0  0
   47.7650   33.4140   36.4170 N   0  0  0  0  0  0  0  0  0  0  0  0
   47.8880   34.0170   37.6250 C   0  0  0  0  0  0  0  0  0  0  0  0
   48.5980   35.0510   37.7050 O   0  0  0  0  0  0  0  0  0  0  0  0
   45.5210   30.5580   37.3120 C   0  0  0  0  0  0  0  0  0  0  0  0
   44.1340   30.7660   37.7920 C   0  0  0  0  0  0  0  0  0  0  0  0
   43.1500   31.5050   37.1660 C   0  0  0  0  0  0  0  0  0  0  0  0
   41.8810   31.6670   37.6590 C   0  0  0  0  0  0  0  0  0  0  0  0
   41.5200   31.0680   38.8570 C   0  0  0  0  0  0  0  0  0  0  0  0
   42.5160   30.3450   39.4500 C   0  0  0  0  0  0  0  0  0  0  0  0
   43.7540   30.1870   38.9690 N   0  0  0  0  0  0  0  0  0  0  0  0
   48.8294   35.8740   42.3951 H   0  0  0  0  0  0  0  0  0  0  0  0
   49.4069   35.0585   39.8610 H   0  0  0  0  0  0  0  0  0  0  0  0
   43.7683   36.8639   44.5758 H   0  0  0  0  0  0  0  0  0  0  0  0
   45.1059   36.6560   42.4171 H   0  0  0  0  0  0  0  0  0  0  0  0
   45.2598   31.8674   49.2924 H   0  0  0  0  0  0  0  0  0  0  0  0
   47.1960   30.6132   47.8620 H   0  0  0  0  0  0  0  0  0  0  0  0
   47.4040   31.9503   45.5300 H   0  0  0  0  0  0  0  0  0  0  0  0
   46.0183   32.0332   39.4680 H   0  0  0  0  0  0  0  0  0  0  0  0
   48.2516   33.8128   35.6014 H   0  0  0  0  0  0  0  0  0  0  0  0
   45.4783   30.2150   36.2677 H   0  0  0  0  0  0  0  0  0  0  0  0
   45.9827   29.8172   37.9814 H   0  0  0  0  0  0  0  0  0  0  0  0
   43.3996   31.9940   36.2128 H   0  0  0  0  0  0  0  0  0  0  0  0
   41.1488   32.2722   37.1044 H   0  0  0  0  0  0  0  0  0  0  0  0
   40.5151   31.1670   39.2933 H   0  0  0  0  0  0  0  0  0  0  0  0
   42.2798   29.8509   40.4040 H   0  0  0  0  0  0  0  0  0  0  0  0
  1  8  1  0
  2  1  2  0
  3  2  1  0
  4  3  2  0
  4  5  1  0
  5  1  1  0
  6 11  2  0
  7  6  1  0
  8  7  2  0
  8  9  1  0
  9 10  2  0
 10 11  1  0
 10 12  1  0
 12 13  1  0
 13 14  2  0
 15 14  1  0
 16 12  1  0
 16 15  2  0
 17  4  1  0
 18 17  1  0
 19 18  2  0
 20 22  1  0
 20 19  1  0
 21 20  2  0
 22 23  1  0
 23 24  2  0
 23 17  1  0
 25 19  1  0
 25 26  1  0
 26 31  2  0
 27 28  2  0
 27 26  1  0
 28 29  1  0
 29 30  2  0
 31 30  1  0
  2 32  1  0
  3 33  1  0
  6 34  1  0
  7 35  1  0
 14 36  1  0
 15 37  1  0
 16 38  1  0
 18 39  1  0
 22 40  1  0
 25 41  1  0
 25 42  1  0
 27 43  1  0
 28 44  1  0
 29 45  1  0
 30 46  1  0
M  END
>  <Score>  (1) 
-7.36522

$$$$
