
     RDKit          3D

 40 44  0  0  1  0  0  0  0  0999 V2000
   45.7310   33.7390   45.5270 C   0  0  0  0  0  0  0  0  0  0  0  0
   46.5240   33.7540   44.3810 C   0  0  0  0  0  0  0  0  0  0  0  0
   46.3290   34.7580   43.4400 C   0  0  0  0  0  0  0  0  0  0  0  0
   45.3630   35.6970   43.6730 N   0  0  0  0  0  0  0  0  0  0  0  0
   44.6030   35.6630   44.7930 C   0  0  0  0  0  0  0  0  0  0  0  0
   44.7850   34.6890   45.7170 N   0  0  0  0  0  0  0  0  0  0  0  0
   47.1660   34.7650   42.2490 C   0  0  0  0  0  0  0  0  0  0  0  0
   48.4240   35.3550   42.1270 C   0  0  0  0  0  0  0  0  0  0  0  0
   48.8790   35.1740   40.8830 N   0  0  0  0  0  0  0  0  0  0  0  0
   47.9320   34.4790   40.2080 C   0  0  0  0  0  0  0  0  0  0  0  0
   47.9080   34.0430   38.9010 C   0  0  0  0  0  0  0  0  0  0  0  0
   46.8170   33.3450   38.4320 C   0  0  0  0  0  0  0  0  0  0  0  0
   45.7070   33.0520   39.2490 C   0  0  0  0  0  0  0  0  0  0  0  0
   45.7960   33.5190   40.5480 C   0  0  0  0  0  0  0  0  0  0  0  0
   46.8400   34.2000   41.0280 C   0  0  0  0  0  0  0  0  0  0  0  0
   45.8710   32.7700   46.4960 O   0  0  0  0  0  0  0  0  0  0  0  0
   45.1550   32.7140   47.6950 C   0  0  1  0  0  0  0  0  0  0  0  0
   44.8900   31.3450   48.2300 C   0  0  0  0  0  0  0  0  0  0  0  0
   45.9300   32.2630   48.8900 C   0  0  1  0  0  0  0  0  0  0  0  0
   47.3580   31.8550   48.6790 C   0  0  0  0  0  0  0  0  0  0  0  0
   48.1240   32.6260   48.0430 O   0  0  0  0  0  0  0  0  0  0  0  0
   47.9510   30.7020   49.1050 O   0  0  0  0  0  0  0  0  0  0  0  0
   49.1000   30.6940   49.8680 C   0  0  0  0  0  0  0  0  0  0  0  0
   49.8060   31.8480   49.8480 N   0  0  0  0  0  0  0  0  0  0  0  0
   50.8590   31.7080   50.6030 O   0  0  0  0  0  0  0  0  0  0  0  0
   50.8460   30.4930   51.1080 C   0  0  0  0  0  0  0  0  0  0  0  0
   49.7460   29.8230   50.6620 N   0  0  0  0  0  0  0  0  0  0  0  0
   47.2925   32.9829   44.2237 H   0  0  0  0  0  0  0  0  0  0  0  0
   43.8325   36.4314   44.9538 H   0  0  0  0  0  0  0  0  0  0  0  0
   48.9581   35.8860   42.9287 H   0  0  0  0  0  0  0  0  0  0  0  0
   49.7806   35.5016   40.5080 H   0  0  0  0  0  0  0  0  0  0  0  0
   48.7576   34.2517   38.2342 H   0  0  0  0  0  0  0  0  0  0  0  0
   46.8122   33.0053   37.3858 H   0  0  0  0  0  0  0  0  0  0  0  0
   44.8340   32.4931   38.8809 H   0  0  0  0  0  0  0  0  0  0  0  0
   44.9550   33.3171   41.2277 H   0  0  0  0  0  0  0  0  0  0  0  0
   44.5230   33.5865   47.4727 H   0  0  0  0  0  0  0  0  0  0  0  0
   43.9417   31.1261   48.7427 H   0  0  0  0  0  0  0  0  0  0  0  0
   44.8959   30.3268   47.8139 H   0  0  0  0  0  0  0  0  0  0  0  0
   46.1084   32.6785   49.8928 H   0  0  0  0  0  0  0  0  0  0  0  0
   51.6071   30.0807   51.7868 H   0  0  0  0  0  0  0  0  0  0  0  0
  1  6  1  0
  1 16  1  0
  2  1  2  0
  3  4  2  0
  3  2  1  0
  4  5  1  0
  5  6  2  0
  7  3  1  0
  8  7  2  0
  9  8  1  0
 10  9  1  0
 10 15  2  0
 11 10  1  0
 12 11  2  0
 12 13  1  0
 13 14  2  0
 14 15  1  0
 15  7  1  0
 16 17  1  0
 17 18  1  0
 17 19  1  0
 18 19  1  0
 20 19  1  0
 20 22  1  0
 21 20  2  0
 22 23  1  0
 23 27  1  0
 24 23  2  0
 24 25  1  0
 25 26  1  0
 27 26  2  0
  2 28  1  0
  5 29  1  0
  8 30  1  0
  9 31  1  0
 11 32  1  0
 12 33  1  0
 13 34  1  0
 14 35  1  0
 17 36  1  1
 18 37  1  0
 18 38  1  0
 19 39  1  1
 26 40  1  0
M  END
>  <Score>  (1) 
-7.01616

$$$$
