
     RDKit          3D

 40 43  0  0  0  0  0  0  0  0999 V2000
   45.0060   34.0900   41.2100 N   0  0  0  0  0  0  0  0  0  0  0  0
   46.1810   33.8900   40.5620 C   0  0  0  0  0  0  0  0  0  0  0  0
   46.1580   33.4830   39.2350 C   0  0  0  0  0  0  0  0  0  0  0  0
   44.9200   33.3100   38.6670 C   0  0  0  0  0  0  0  0  0  0  0  0
   44.7520   32.8950   37.3080 N   0  0  0  0  0  0  0  0  0  0  0  0
   43.7480   33.5140   39.3230 N   0  0  0  0  0  0  0  0  0  0  0  0
   43.7860   33.9160   40.6330 C   0  0  0  0  0  0  0  0  0  0  0  0
   42.7240   34.1160   41.2790 O   0  0  0  0  0  0  0  0  0  0  0  0
   44.7190   36.1020   44.3630 C   0  0  0  0  0  0  0  0  0  0  0  0
   44.6980   35.7930   43.0000 C   0  0  0  0  0  0  0  0  0  0  0  0
   44.9980   34.5060   42.5650 C   0  0  0  0  0  0  0  0  0  0  0  0
   45.3010   33.6110   43.5370 N   0  0  0  0  0  0  0  0  0  0  0  0
   45.3190   33.9100   44.8370 C   0  0  0  0  0  0  0  0  0  0  0  0
   45.0320   35.1440   45.2480 N   0  0  0  0  0  0  0  0  0  0  0  0
   45.6460   32.9250   45.8380 N   0  0  0  0  0  0  0  0  0  0  0  0
   45.5610   32.8350   47.1500 N   0  0  0  0  0  0  0  0  0  0  0  0
   46.0150   31.6710   47.5710 C   0  0  0  0  0  0  0  0  0  0  0  0
   46.4210   30.9620   46.4450 C   0  0  0  0  0  0  0  0  0  0  0  0
   46.1800   31.7750   45.3530 C   0  0  0  0  0  0  0  0  0  0  0  0
   47.4390   34.0940   41.2330 C   0  0  0  0  0  0  0  0  0  0  0  0
   47.9690   35.3640   41.1220 C   0  0  0  0  0  0  0  0  0  0  0  0
   49.1800   35.7050   41.7190 C   0  0  0  0  0  0  0  0  0  0  0  0
   49.8850   34.7550   42.4480 C   0  0  0  0  0  0  0  0  0  0  0  0
   49.3170   33.4950   42.5330 C   0  0  0  0  0  0  0  0  0  0  0  0
   48.1430   33.2030   41.9420 N   0  0  0  0  0  0  0  0  0  0  0  0
   47.3770   33.2400   38.4510 C   0  0  0  0  0  0  0  0  0  0  0  0
   48.0140   34.4180   38.1220 F   0  0  0  0  0  0  0  0  0  0  0  0
   47.0090   32.5520   37.2880 F   0  0  0  0  0  0  0  0  0  0  0  0
   48.1850   32.3670   39.1660 F   0  0  0  0  0  0  0  0  0  0  0  0
   43.8057   32.7765   36.9189 H   0  0  0  0  0  0  0  0  0  0  0  0
   45.5774   32.7147   36.7188 H   0  0  0  0  0  0  0  0  0  0  0  0
   44.4814   37.1198   44.7061 H   0  0  0  0  0  0  0  0  0  0  0  0
   44.4427   36.5722   42.2667 H   0  0  0  0  0  0  0  0  0  0  0  0
   46.0635   31.3260   48.6144 H   0  0  0  0  0  0  0  0  0  0  0  0
   46.8509   29.9497   46.4270 H   0  0  0  0  0  0  0  0  0  0  0  0
   46.3814   31.5367   44.2982 H   0  0  0  0  0  0  0  0  0  0  0  0
   47.4210   36.1255   40.5477 H   0  0  0  0  0  0  0  0  0  0  0  0
   49.5780   36.7251   41.6136 H   0  0  0  0  0  0  0  0  0  0  0  0
   50.8440   34.9915   42.9322 H   0  0  0  0  0  0  0  0  0  0  0  0
   49.8398   32.7103   43.0995 H   0  0  0  0  0  0  0  0  0  0  0  0
  1 11  1  0
  2  1  1  0
  2 20  1  0
  3  2  2  0
  4  3  1  0
  4  6  2  0
  5  4  1  0
  6  7  1  0
  7  1  1  0
  7  8  2  0
  9 14  2  0
 10  9  1  0
 11 10  2  0
 11 12  1  0
 12 13  2  0
 13 14  1  0
 13 15  1  0
 15 16  1  0
 16 17  2  0
 18 17  1  0
 19 15  1  0
 19 18  2  0
 20 25  1  0
 21 20  2  0
 21 22  1  0
 22 23  2  0
 23 24  1  0
 25 24  2  0
 26 29  1  0
 26  3  1  0
 27 26  1  0
 28 26  1  0
  5 30  1  0
  5 31  1  0
  9 32  1  0
 10 33  1  0
 17 34  1  0
 18 35  1  0
 19 36  1  0
 21 37  1  0
 22 38  1  0
 23 39  1  0
 24 40  1  0
M  END
>  <Score>  (1) 
-7.22586

$$$$
