
     RDKit          3D

 34 38  0  0  0  0  0  0  0  0999 V2000
   44.5500   35.9800   44.5050 C   0  0  0  0  0  0  0  0  0  0  0  0
   45.2760   36.0140   43.3120 C   0  0  0  0  0  0  0  0  0  0  0  0
   46.2250   35.0010   43.0780 C   0  0  0  0  0  0  0  0  0  0  0  0
   46.3840   34.0390   44.0270 N   0  0  0  0  0  0  0  0  0  0  0  0
   45.6520   34.0540   45.1710 C   0  0  0  0  0  0  0  0  0  0  0  0
   44.7370   35.0110   45.4230 N   0  0  0  0  0  0  0  0  0  0  0  0
   45.9220   32.9740   46.0950 N   0  0  0  0  0  0  0  0  0  0  0  0
   45.4990   32.7960   47.3600 C   0  0  0  0  0  0  0  0  0  0  0  0
   46.0080   31.6400   47.8260 N   0  0  0  0  0  0  0  0  0  0  0  0
   46.7630   31.0660   46.8610 C   0  0  0  0  0  0  0  0  0  0  0  0
   47.4960   29.8830   46.8320 C   0  0  0  0  0  0  0  0  0  0  0  0
   48.1420   29.6110   45.6860 N   0  0  0  0  0  0  0  0  0  0  0  0
   48.0710   30.4450   44.6450 C   0  0  0  0  0  0  0  0  0  0  0  0
   47.3670   31.6100   44.6300 N   0  0  0  0  0  0  0  0  0  0  0  0
   46.7020   31.9130   45.7770 C   0  0  0  0  0  0  0  0  0  0  0  0
   47.0350   34.9070   41.9110 N   0  0  0  0  0  0  0  0  0  0  0  0
   48.2690   35.4800   41.8070 C   0  0  0  0  0  0  0  0  0  0  0  0
   48.7700   35.2030   40.5720 N   0  0  0  0  0  0  0  0  0  0  0  0
   47.8960   34.4720   39.8850 C   0  0  0  0  0  0  0  0  0  0  0  0
   47.9170   33.9390   38.6140 C   0  0  0  0  0  0  0  0  0  0  0  0
   46.8300   33.2240   38.2120 N   0  0  0  0  0  0  0  0  0  0  0  0
   45.7780   33.0560   39.0500 C   0  0  0  0  0  0  0  0  0  0  0  0
   45.7740   33.5900   40.3030 N   0  0  0  0  0  0  0  0  0  0  0  0
   46.8230   34.2970   40.7310 C   0  0  0  0  0  0  0  0  0  0  0  0
   49.0280   34.1230   37.7450 N   0  0  0  0  0  0  0  0  0  0  0  0
   43.8053   36.7656   44.7006 H   0  0  0  0  0  0  0  0  0  0  0  0
   45.1102   36.8125   42.5738 H   0  0  0  0  0  0  0  0  0  0  0  0
   44.8458   33.4812   47.9203 H   0  0  0  0  0  0  0  0  0  0  0  0
   47.5436   29.2082   47.6994 H   0  0  0  0  0  0  0  0  0  0  0  0
   48.6217   30.1703   43.7332 H   0  0  0  0  0  0  0  0  0  0  0  0
   48.7736   36.0665   42.5889 H   0  0  0  0  0  0  0  0  0  0  0  0
   44.9077   32.4752   38.7104 H   0  0  0  0  0  0  0  0  0  0  0  0
   49.0162   33.7131   36.8002 H   0  0  0  0  0  0  0  0  0  0  0  0
   49.8443   34.6662   38.0606 H   0  0  0  0  0  0  0  0  0  0  0  0
  1  6  2  0
  2  1  1  0
  3  2  2  0
  3  4  1  0
  4  5  2  0
  5  6  1  0
  5  7  1  0
  7  8  1  0
  8  9  2  0
 10  9  1  0
 11 10  2  0
 12 11  1  0
 13 12  2  0
 14 13  1  0
 14 15  2  0
 15  7  1  0
 15 10  1  0
 16  3  1  0
 17 16  1  0
 18 17  2  0
 19 18  1  0
 19 24  2  0
 20 19  1  0
 21 20  2  0
 21 22  1  0
 22 23  2  0
 23 24  1  0
 24 16  1  0
 25 20  1  0
  1 26  1  0
  2 27  1  0
  8 28  1  0
 11 29  1  0
 13 30  1  0
 17 31  1  0
 22 32  1  0
 25 33  1  0
 25 34  1  0
M  END
>  <Score>  (1) 
-7.247

$$$$
