
     RDKit          3D

 47 51  0  0  0  0  0  0  0  0999 V2000
   45.1820   33.7120   41.3250 N   0  0  0  0  0  0  0  0  0  0  0  0
   46.3250   33.7790   40.5810 C   0  0  0  0  0  0  0  0  0  0  0  0
   46.2320   33.5540   39.2050 C   0  0  0  0  0  0  0  0  0  0  0  0
   44.9750   33.2800   38.7030 C   0  0  0  0  0  0  0  0  0  0  0  0
   44.7450   33.0320   37.3100 N   0  0  0  0  0  0  0  0  0  0  0  0
   43.8580   33.2190   39.4600 N   0  0  0  0  0  0  0  0  0  0  0  0
   43.9620   33.4410   40.8060 C   0  0  0  0  0  0  0  0  0  0  0  0
   42.9340   33.3910   41.5400 O   0  0  0  0  0  0  0  0  0  0  0  0
   45.0010   35.2280   44.7360 C   0  0  0  0  0  0  0  0  0  0  0  0
   44.9200   35.1110   43.3460 C   0  0  0  0  0  0  0  0  0  0  0  0
   45.2310   33.9300   42.7190 C   0  0  0  0  0  0  0  0  0  0  0  0
   45.6120   32.9100   43.5350 N   0  0  0  0  0  0  0  0  0  0  0  0
   45.6920   33.0150   44.8640 C   0  0  0  0  0  0  0  0  0  0  0  0
   45.3870   34.1710   45.4650 N   0  0  0  0  0  0  0  0  0  0  0  0
   46.0990   31.9090   45.6940 N   0  0  0  0  0  0  0  0  0  0  0  0
   46.0910   31.6490   46.9810 N   0  0  0  0  0  0  0  0  0  0  0  0
   46.6010   30.4380   47.2160 C   0  0  0  0  0  0  0  0  0  0  0  0
   46.9520   29.9050   45.9850 C   0  0  0  0  0  0  0  0  0  0  0  0
   46.6230   30.8630   45.0300 C   0  0  0  0  0  0  0  0  0  0  0  0
   47.6180   34.0770   41.1850 C   0  0  0  0  0  0  0  0  0  0  0  0
   47.8930   35.4200   41.3400 C   0  0  0  0  0  0  0  0  0  0  0  0
   49.0990   35.8310   41.9070 C   0  0  0  0  0  0  0  0  0  0  0  0
   50.0070   34.8520   42.3060 C   0  0  0  0  0  0  0  0  0  0  0  0
   49.6900   33.5150   42.1310 C   0  0  0  0  0  0  0  0  0  0  0  0
   50.5830   32.5360   42.5230 C   0  0  0  0  0  0  0  0  0  0  0  0
   50.3200   31.1870   42.3720 C   0  0  0  0  0  0  0  0  0  0  0  0
   49.1080   30.8090   41.8040 C   0  0  0  0  0  0  0  0  0  0  0  0
   48.1910   31.7570   41.4000 C   0  0  0  0  0  0  0  0  0  0  0  0
   48.5010   33.0910   41.5720 C   0  0  0  0  0  0  0  0  0  0  0  0
   47.3880   33.5970   38.3130 C   0  0  0  0  0  0  0  0  0  0  0  0
   48.2570   34.6080   38.6330 F   0  0  0  0  0  0  0  0  0  0  0  0
   46.9250   33.7210   37.0000 F   0  0  0  0  0  0  0  0  0  0  0  0
   48.0060   32.3490   38.3460 F   0  0  0  0  0  0  0  0  0  0  0  0
   43.7926   32.8310   36.9731 H   0  0  0  0  0  0  0  0  0  0  0  0
   45.5321   33.0548   36.6460 H   0  0  0  0  0  0  0  0  0  0  0  0
   44.7502   36.1793   45.2281 H   0  0  0  0  0  0  0  0  0  0  0  0
   44.6028   35.9768   42.7461 H   0  0  0  0  0  0  0  0  0  0  0  0
   46.7199   29.9557   48.1974 H   0  0  0  0  0  0  0  0  0  0  0  0
   47.4021   28.9186   45.7994 H   0  0  0  0  0  0  0  0  0  0  0  0
   46.7643   30.7805   43.9422 H   0  0  0  0  0  0  0  0  0  0  0  0
   47.1574   36.1704   41.0147 H   0  0  0  0  0  0  0  0  0  0  0  0
   49.3274   36.8993   42.0358 H   0  0  0  0  0  0  0  0  0  0  0  0
   50.9685   35.1389   42.7567 H   0  0  0  0  0  0  0  0  0  0  0  0
   51.5395   32.8415   42.9723 H   0  0  0  0  0  0  0  0  0  0  0  0
   51.0516   30.4310   42.6933 H   0  0  0  0  0  0  0  0  0  0  0  0
   48.8779   29.7411   41.6754 H   0  0  0  0  0  0  0  0  0  0  0  0
   47.2332   31.4563   40.9504 H   0  0  0  0  0  0  0  0  0  0  0  0
  1 11  1  0
  2 20  1  0
  2  1  1  0
  3  2  2  0
  4  3  1  0
  4  6  2  0
  5  4  1  0
  6  7  1  0
  7  1  1  0
  7  8  2  0
  9 14  2  0
 10  9  1  0
 11 10  2  0
 11 12  1  0
 12 13  2  0
 13 14  1  0
 13 15  1  0
 15 16  1  0
 16 17  2  0
 18 17  1  0
 19 15  1  0
 19 18  2  0
 20 21  2  0
 20 29  1  0
 21 22  1  0
 22 23  2  0
 24 23  1  0
 24 25  2  0
 26 25  1  0
 27 26  2  0
 28 29  2  0
 28 27  1  0
 29 24  1  0
 30 33  1  0
 30 31  1  0
 30  3  1  0
 32 30  1  0
  5 34  1  0
  5 35  1  0
  9 36  1  0
 10 37  1  0
 17 38  1  0
 18 39  1  0
 19 40  1  0
 21 41  1  0
 22 42  1  0
 23 43  1  0
 25 44  1  0
 26 45  1  0
 27 46  1  0
 28 47  1  0
M  END
>  <Score>  (1) 
-7.38158

$$$$
