
     RDKit          3D

 36 39  0  0  0  0  0  0  0  0999 V2000
   47.1280   34.8460   41.9990 N   0  0  0  0  0  0  0  0  0  0  0  0
   48.3030   35.4990   41.9070 C   0  0  0  0  0  0  0  0  0  0  0  0
   48.7900   35.3100   40.6560 N   0  0  0  0  0  0  0  0  0  0  0  0
   47.9310   34.5470   39.9700 C   0  0  0  0  0  0  0  0  0  0  0  0
   47.9820   34.0840   38.6700 C   0  0  0  0  0  0  0  0  0  0  0  0
   46.9290   33.3170   38.2700 N   0  0  0  0  0  0  0  0  0  0  0  0
   45.8980   33.0250   39.0960 C   0  0  0  0  0  0  0  0  0  0  0  0
   45.8700   33.4950   40.3750 N   0  0  0  0  0  0  0  0  0  0  0  0
   46.8830   34.2510   40.8080 C   0  0  0  0  0  0  0  0  0  0  0  0
   49.0690   34.3920   37.8060 N   0  0  0  0  0  0  0  0  0  0  0  0
   44.5770   35.8300   44.4700 C   0  0  0  0  0  0  0  0  0  0  0  0
   45.3670   35.8240   43.2890 C   0  0  0  0  0  0  0  0  0  0  0  0
   46.3470   34.8380   43.1850 C   0  0  0  0  0  0  0  0  0  0  0  0
   46.4880   33.9560   44.1990 N   0  0  0  0  0  0  0  0  0  0  0  0
   45.7260   33.9870   45.3010 C   0  0  0  0  0  0  0  0  0  0  0  0
   44.7690   34.9120   45.4580 N   0  0  0  0  0  0  0  0  0  0  0  0
   45.9430   33.0210   46.3190 N   0  0  0  0  0  0  0  0  0  0  0  0
   45.1810   32.9570   47.5520 C   0  0  0  0  0  0  0  0  0  0  0  0
   46.1040   32.2320   48.5390 C   0  0  0  0  0  0  0  0  0  0  0  0
   46.1980   30.8950   48.1700 O   0  0  0  0  0  0  0  0  0  0  0  0
   46.4860   30.7270   46.8230 C   0  0  0  0  0  0  0  0  0  0  0  0
   46.9710   32.0070   46.1820 C   0  0  0  0  0  0  0  0  0  0  0  0
   48.7827   36.0828   42.7064 H   0  0  0  0  0  0  0  0  0  0  0  0
   45.0706   32.3993   38.7301 H   0  0  0  0  0  0  0  0  0  0  0  0
   49.0781   34.0316   36.8412 H   0  0  0  0  0  0  0  0  0  0  0  0
   49.8471   34.9755   38.1451 H   0  0  0  0  0  0  0  0  0  0  0  0
   43.7932   36.5926   44.5891 H   0  0  0  0  0  0  0  0  0  0  0  0
   45.2120   36.5653   42.4912 H   0  0  0  0  0  0  0  0  0  0  0  0
   44.9424   33.9679   47.9141 H   0  0  0  0  0  0  0  0  0  0  0  0
   44.2194   32.4389   47.4221 H   0  0  0  0  0  0  0  0  0  0  0  0
   47.1028   32.6922   48.5164 H   0  0  0  0  0  0  0  0  0  0  0  0
   45.6946   32.3093   49.5571 H   0  0  0  0  0  0  0  0  0  0  0  0
   47.2680   29.9603   46.7203 H   0  0  0  0  0  0  0  0  0  0  0  0
   45.5598   30.4226   46.3137 H   0  0  0  0  0  0  0  0  0  0  0  0
   47.1761   31.8311   45.1157 H   0  0  0  0  0  0  0  0  0  0  0  0
   47.8944   32.3440   46.6757 H   0  0  0  0  0  0  0  0  0  0  0  0
  1 13  1  0
  2  1  1  0
  3  2  2  0
  4  3  1  0
  4  9  2  0
  5  4  1  0
  6  5  2  0
  6  7  1  0
  7  8  2  0
  8  9  1  0
  9  1  1  0
 10  5  1  0
 11 16  2  0
 12 11  1  0
 13 12  2  0
 13 14  1  0
 14 15  2  0
 15 16  1  0
 15 17  1  0
 17 18  1  0
 18 19  1  0
 20 19  1  0
 21 20  1  0
 22 17  1  0
 22 21  1  0
  2 23  1  0
  7 24  1  0
 10 25  1  0
 10 26  1  0
 11 27  1  0
 12 28  1  0
 18 29  1  0
 18 30  1  0
 19 31  1  0
 19 32  1  0
 21 33  1  0
 21 34  1  0
 22 35  1  0
 22 36  1  0
M  END
>  <Score>  (1) 
-7.02453

$$$$
