
     RDKit          3D

 50 54  0  0  0  0  0  0  0  0999 V2000
   46.5780   34.6440   42.2000 C   0  0  0  0  0  0  0  0  0  0  0  0
   47.7860   35.2560   42.0430 C   0  0  0  0  0  0  0  0  0  0  0  0
   48.5270   35.1430   40.8500 C   0  0  0  0  0  0  0  0  0  0  0  0
   47.9900   34.3700   39.7910 C   0  0  0  0  0  0  0  0  0  0  0  0
   46.7620   33.7530   39.9630 C   0  0  0  0  0  0  0  0  0  0  0  0
   46.0820   33.8990   41.1550 C   0  0  0  0  0  0  0  0  0  0  0  0
   44.8170   33.2500   41.3030 N   0  0  0  0  0  0  0  0  0  0  0  0
   44.5810   31.9860   41.7360 C   0  0  0  0  0  0  0  0  0  0  0  0
   43.3010   31.5220   41.8180 C   0  0  0  0  0  0  0  0  0  0  0  0
   42.2250   32.3010   41.4730 C   0  0  0  0  0  0  0  0  0  0  0  0
   41.0580   31.8280   41.5660 O   0  0  0  0  0  0  0  0  0  0  0  0
   42.4920   33.5670   41.0410 N   0  0  0  0  0  0  0  0  0  0  0  0
   43.7470   34.0190   40.9620 C   0  0  0  0  0  0  0  0  0  0  0  0
   43.8660   35.2110   40.5470 O   0  0  0  0  0  0  0  0  0  0  0  0
   41.3600   34.3560   40.6900 C   0  0  0  0  0  0  0  0  0  0  0  0
   41.3350   35.6860   41.0520 C   0  0  0  0  0  0  0  0  0  0  0  0
   40.1210   36.2240   40.5880 C   0  0  0  0  0  0  0  0  0  0  0  0
   39.4700   35.1850   39.9640 N   0  0  0  0  0  0  0  0  0  0  0  0
   40.2100   34.0990   40.0330 N   0  0  0  0  0  0  0  0  0  0  0  0
   44.4980   35.9750   45.0530 C   0  0  0  0  0  0  0  0  0  0  0  0
   45.1120   35.8970   43.8030 C   0  0  0  0  0  0  0  0  0  0  0  0
   45.8970   34.8220   43.4700 C   0  0  0  0  0  0  0  0  0  0  0  0
   46.0580   33.8280   44.4030 N   0  0  0  0  0  0  0  0  0  0  0  0
   45.4470   33.9260   45.6210 C   0  0  0  0  0  0  0  0  0  0  0  0
   44.6860   34.9700   45.9430 N   0  0  0  0  0  0  0  0  0  0  0  0
   45.6370   32.8760   46.5630 N   0  0  0  0  0  0  0  0  0  0  0  0
   46.4630   31.7300   46.2300 C   0  0  0  0  0  0  0  0  0  0  0  0
   47.6560   31.7770   47.1810 C   0  0  0  0  0  0  0  0  0  0  0  0
   47.3170   32.4590   48.3460 O   0  0  0  0  0  0  0  0  0  0  0  0
   46.0200   32.1430   48.7780 C   0  0  0  0  0  0  0  0  0  0  0  0
   45.0310   32.8910   47.8750 C   0  0  0  0  0  0  0  0  0  0  0  0
   48.1936   35.8548   42.8709 H   0  0  0  0  0  0  0  0  0  0  0  0
   49.5006   35.6437   40.7432 H   0  0  0  0  0  0  0  0  0  0  0  0
   48.5409   34.2614   38.8451 H   0  0  0  0  0  0  0  0  0  0  0  0
   46.3300   33.1484   39.1519 H   0  0  0  0  0  0  0  0  0  0  0  0
   45.4214   31.3359   42.0207 H   0  0  0  0  0  0  0  0  0  0  0  0
   43.1262   30.4948   42.1705 H   0  0  0  0  0  0  0  0  0  0  0  0
   42.1194   36.2265   41.6020 H   0  0  0  0  0  0  0  0  0  0  0  0
   39.7663   37.2591   40.7005 H   0  0  0  0  0  0  0  0  0  0  0  0
   38.5463   35.2475   39.5126 H   0  0  0  0  0  0  0  0  0  0  0  0
   43.8700   36.8399   45.3129 H   0  0  0  0  0  0  0  0  0  0  0  0
   44.9650   36.7080   43.0745 H   0  0  0  0  0  0  0  0  0  0  0  0
   45.8974   30.7974   46.3729 H   0  0  0  0  0  0  0  0  0  0  0  0
   46.7858   31.7593   45.1788 H   0  0  0  0  0  0  0  0  0  0  0  0
   47.9578   30.7504   47.4360 H   0  0  0  0  0  0  0  0  0  0  0  0
   48.4872   32.3019   46.6875 H   0  0  0  0  0  0  0  0  0  0  0  0
   45.8528   31.0587   48.6989 H   0  0  0  0  0  0  0  0  0  0  0  0
   45.8815   32.4390   49.8283 H   0  0  0  0  0  0  0  0  0  0  0  0
   44.8932   33.9246   48.2254 H   0  0  0  0  0  0  0  0  0  0  0  0
   44.0356   32.4228   47.8756 H   0  0  0  0  0  0  0  0  0  0  0  0
  1 22  1  0
  2  1  2  0
  3  2  1  0
  4  5  1  0
  4  3  2  0
  5  6  2  0
  6  7  1  0
  6  1  1  0
  7  8  1  0
  8  9  2  0
 10 11  2  0
 10  9  1  0
 12 10  1  0
 13 12  1  0
 13  7  1  0
 14 13  2  0
 15 12  1  0
 15 16  1  0
 17 16  2  0
 18 19  1  0
 18 17  1  0
 19 15  2  0
 20 25  2  0
 21 20  1  0
 22 21  2  0
 22 23  1  0
 23 24  2  0
 24 25  1  0
 24 26  1  0
 26 31  1  0
 27 26  1  0
 27 28  1  0
 28 29  1  0
 29 30  1  0
 31 30  1  0
  2 32  1  0
  3 33  1  0
  4 34  1  0
  5 35  1  0
  8 36  1  0
  9 37  1  0
 16 38  1  0
 17 39  1  0
 18 40  1  0
 20 41  1  0
 21 42  1  0
 27 43  1  0
 27 44  1  0
 28 45  1  0
 28 46  1  0
 30 47  1  0
 30 48  1  0
 31 49  1  0
 31 50  1  0
M  END
>  <Score>  (1) 
-8.99998

$$$$
