
     RDKit          3D

 48 52  0  0  1  0  0  0  0  0999 V2000
   47.2710   34.9660   41.8180 C   0  0  0  0  0  0  0  0  0  0  0  0
   48.5000   35.6040   41.7210 C   0  0  0  0  0  0  0  0  0  0  0  0
   49.0180   35.3850   40.4990 N   0  0  0  0  0  0  0  0  0  0  0  0
   48.1440   34.6250   39.8250 C   0  0  0  0  0  0  0  0  0  0  0  0
   48.2100   34.1340   38.5420 C   0  0  0  0  0  0  0  0  0  0  0  0
   47.1680   33.3730   38.0880 C   0  0  0  0  0  0  0  0  0  0  0  0
   46.0390   33.0580   38.8340 C   0  0  0  0  0  0  0  0  0  0  0  0
   46.0500   33.5870   40.1070 C   0  0  0  0  0  0  0  0  0  0  0  0
   47.0360   34.3400   40.6160 C   0  0  0  0  0  0  0  0  0  0  0  0
   44.5360   35.9070   44.1710 C   0  0  0  0  0  0  0  0  0  0  0  0
   45.3650   35.9240   43.0490 C   0  0  0  0  0  0  0  0  0  0  0  0
   46.4090   34.9670   42.9630 C   0  0  0  0  0  0  0  0  0  0  0  0
   46.5000   34.1090   44.0040 N   0  0  0  0  0  0  0  0  0  0  0  0
   45.7090   34.0920   45.0740 C   0  0  0  0  0  0  0  0  0  0  0  0
   44.7190   34.9970   45.1590 N   0  0  0  0  0  0  0  0  0  0  0  0
   45.9700   33.1000   46.0720 N   0  0  0  0  0  0  0  0  0  0  0  0
   45.3880   33.2330   47.2970 C   0  0  0  0  0  0  0  0  0  0  0  0
   45.5230   32.3910   48.3560 C   0  0  0  0  0  0  0  0  0  0  0  0
   46.3370   31.2980   48.1480 C   0  0  0  0  0  0  0  0  0  0  0  0
   46.5150   30.4690   49.0820 O   0  0  0  0  0  0  0  0  0  0  0  0
   46.9170   31.1530   46.9480 N   0  0  0  0  0  0  0  0  0  0  0  0
   46.7530   32.0220   45.9140 C   0  0  0  0  0  0  0  0  0  0  0  0
   47.2980   31.8770   44.8030 O   0  0  0  0  0  0  0  0  0  0  0  0
   44.8510   33.2070   40.8190 N   0  0  0  0  0  0  0  0  0  0  0  0
   43.4790   33.6090   40.9820 C   0  0  0  0  0  0  0  0  0  0  0  0
   42.7880   32.4110   41.5820 C   0  0  0  0  0  0  0  0  0  0  0  0
   43.8720   31.9650   42.5580 C   0  0  0  0  0  0  0  0  0  0  0  0
   45.0790   32.0200   41.6590 C   0  0  1  0  0  0  0  0  0  0  0  0
   45.2380   30.7840   40.8920 C   0  0  0  0  0  0  0  0  0  0  0  0
   44.4390   30.2330   40.1340 O   0  0  0  0  0  0  0  0  0  0  0  0
   48.9753   36.1953   42.5176 H   0  0  0  0  0  0  0  0  0  0  0  0
   49.9197   35.7365   40.1465 H   0  0  0  0  0  0  0  0  0  0  0  0
   49.0766   34.3473   37.8989 H   0  0  0  0  0  0  0  0  0  0  0  0
   47.2281   32.9834   37.0611 H   0  0  0  0  0  0  0  0  0  0  0  0
   45.2134   32.4438   38.4452 H   0  0  0  0  0  0  0  0  0  0  0  0
   43.7223   36.6424   44.2551 H   0  0  0  0  0  0  0  0  0  0  0  0
   45.2126   36.6631   42.2487 H   0  0  0  0  0  0  0  0  0  0  0  0
   44.7428   34.1117   47.4442 H   0  0  0  0  0  0  0  0  0  0  0  0
   45.0160   32.5701   49.3156 H   0  0  0  0  0  0  0  0  0  0  0  0
   47.5237   30.3339   46.7998 H   0  0  0  0  0  0  0  0  0  0  0  0
   43.4077   34.4744   41.6572 H   0  0  0  0  0  0  0  0  0  0  0  0
   43.0225   33.9138   40.0287 H   0  0  0  0  0  0  0  0  0  0  0  0
   41.8579   32.6890   42.0993 H   0  0  0  0  0  0  0  0  0  0  0  0
   42.4607   31.6471   40.8614 H   0  0  0  0  0  0  0  0  0  0  0  0
   43.9650   32.6573   43.4078 H   0  0  0  0  0  0  0  0  0  0  0  0
   43.6933   30.9882   43.0313 H   0  0  0  0  0  0  0  0  0  0  0  0
   46.0248   32.1034   42.2145 H   0  0  0  0  0  0  0  0  0  0  0  0
   46.2067   30.2760   41.0088 H   0  0  0  0  0  0  0  0  0  0  0  0
  1 12  1  0
  2  1  2  0
  3  2  1  0
  4  3  1  0
  4  9  2  0
  5  4  1  0
  6  5  2  0
  6  7  1  0
  7  8  2  0
  8  9  1  0
  8 24  1  0
  9  1  1  0
 10 15  2  0
 11 10  1  0
 12 11  2  0
 12 13  1  0
 13 14  2  0
 14 15  1  0
 14 16  1  0
 16 17  1  0
 17 18  2  0
 19 18  1  0
 19 20  2  0
 21 19  1  0
 22 16  1  0
 22 21  1  0
 23 22  2  0
 24 25  1  0
 24 28  1  0
 25 26  1  0
 26 27  1  0
 28 27  1  0
 29 28  1  0
 30 29  2  0
  2 31  1  0
  3 32  1  0
  5 33  1  0
  6 34  1  0
  7 35  1  0
 10 36  1  0
 11 37  1  0
 17 38  1  0
 18 39  1  0
 21 40  1  0
 25 41  1  0
 25 42  1  0
 26 43  1  0
 26 44  1  0
 27 45  1  0
 27 46  1  0
 28 47  1  1
 29 48  1  0
M  END
>  <Score>  (1) 
-7.57654

$$$$
