
     RDKit          3D

 44 48  0  0  0  0  0  0  0  0999 V2000
   46.8800   34.7360   41.8960 C   0  0  0  0  0  0  0  0  0  0  0  0
   48.1900   35.1830   41.6670 C   0  0  0  0  0  0  0  0  0  0  0  0
   48.4390   34.7890   40.3660 C   0  0  0  0  0  0  0  0  0  0  0  0
   47.3040   34.1450   39.8880 C   0  0  0  0  0  0  0  0  0  0  0  0
   46.3960   34.1390   40.8450 O   0  0  0  0  0  0  0  0  0  0  0  0
   44.5020   36.0380   44.4350 C   0  0  0  0  0  0  0  0  0  0  0  0
   45.2300   35.9240   43.2060 C   0  0  0  0  0  0  0  0  0  0  0  0
   46.1200   34.8910   43.1210 C   0  0  0  0  0  0  0  0  0  0  0  0
   46.2710   34.0380   44.1810 N   0  0  0  0  0  0  0  0  0  0  0  0
   45.5760   34.1690   45.3220 C   0  0  0  0  0  0  0  0  0  0  0  0
   44.6830   35.1740   45.4560 N   0  0  0  0  0  0  0  0  0  0  0  0
   45.8410   33.2040   46.3390 N   0  0  0  0  0  0  0  0  0  0  0  0
   45.1880   33.1400   47.5010 N   0  0  0  0  0  0  0  0  0  0  0  0
   45.6640   32.1250   48.2470 C   0  0  0  0  0  0  0  0  0  0  0  0
   46.6790   31.5050   47.5190 C   0  0  0  0  0  0  0  0  0  0  0  0
   46.7680   32.2050   46.3210 C   0  0  0  0  0  0  0  0  0  0  0  0
   47.1660   33.5920   38.5800 N   0  0  0  0  0  0  0  0  0  0  0  0
   46.2910   32.5770   38.4280 C   0  0  0  0  0  0  0  0  0  0  0  0
   46.0870   31.9770   37.2160 C   0  0  0  0  0  0  0  0  0  0  0  0
   46.8180   32.4480   36.1280 C   0  0  0  0  0  0  0  0  0  0  0  0
   46.6590   31.9220   34.9960 O   0  0  0  0  0  0  0  0  0  0  0  0
   47.6920   33.4790   36.3350 N   0  0  0  0  0  0  0  0  0  0  0  0
   47.8590   34.0420   37.5590 C   0  0  0  0  0  0  0  0  0  0  0  0
   48.6700   34.9760   37.6820 O   0  0  0  0  0  0  0  0  0  0  0  0
   45.1310   30.8760   37.0910 C   0  0  0  0  0  0  0  0  0  0  0  0
   43.7470   31.3240   36.7970 C   0  0  0  0  0  0  0  0  0  0  0  0
   43.1650   30.5950   35.5480 C   0  0  0  0  0  0  0  0  0  0  0  0
   42.5410   30.5120   36.9320 C   0  0  0  0  0  0  0  0  0  0  0  0
   48.8584   35.7185   42.3573 H   0  0  0  0  0  0  0  0  0  0  0  0
   49.3716   34.9558   39.8070 H   0  0  0  0  0  0  0  0  0  0  0  0
   43.7737   36.8543   44.5498 H   0  0  0  0  0  0  0  0  0  0  0  0
   45.0803   36.6301   42.3759 H   0  0  0  0  0  0  0  0  0  0  0  0
   45.3152   31.8369   49.2497 H   0  0  0  0  0  0  0  0  0  0  0  0
   47.2844   30.6404   47.8287 H   0  0  0  0  0  0  0  0  0  0  0  0
   47.4669   31.9895   45.4994 H   0  0  0  0  0  0  0  0  0  0  0  0
   45.7261   32.2221   39.3026 H   0  0  0  0  0  0  0  0  0  0  0  0
   48.2391   33.8386   35.5398 H   0  0  0  0  0  0  0  0  0  0  0  0
   45.4640   30.2166   36.2760 H   0  0  0  0  0  0  0  0  0  0  0  0
   45.1043   30.3590   38.0616 H   0  0  0  0  0  0  0  0  0  0  0  0
   43.9500   32.3328   37.1856 H   0  0  0  0  0  0  0  0  0  0  0  0
   42.6733   31.1654   34.7462 H   0  0  0  0  0  0  0  0  0  0  0  0
   43.5353   29.8823   34.7963 H   0  0  0  0  0  0  0  0  0  0  0  0
   42.5855   29.5651   37.4901 H   0  0  0  0  0  0  0  0  0  0  0  0
   41.5322   30.7096   37.3234 H   0  0  0  0  0  0  0  0  0  0  0  0
  1  8  1  0
  2  1  2  0
  3  2  1  0
  4  3  2  0
  4  5  1  0
  5  1  1  0
  6 11  2  0
  7  6  1  0
  8  7  2  0
  8  9  1  0
  9 10  2  0
 10 11  1  0
 10 12  1  0
 12 13  1  0
 13 14  2  0
 15 14  1  0
 16 12  1  0
 16 15  2  0
 17  4  1  0
 18 17  1  0
 19 18  2  0
 20 22  1  0
 20 19  1  0
 21 20  2  0
 22 23  1  0
 23 24  2  0
 23 17  1  0
 25 19  1  0
 26 28  1  0
 26 25  1  0
 27 26  1  0
 27 28  1  0
  2 29  1  0
  3 30  1  0
  6 31  1  0
  7 32  1  0
 14 33  1  0
 15 34  1  0
 16 35  1  0
 18 36  1  0
 22 37  1  0
 25 38  1  0
 25 39  1  0
 26 40  1  0
 27 41  1  0
 27 42  1  0
 28 43  1  0
 28 44  1  0
M  END
>  <Score>  (1) 
-7.28866

$$$$
