
     RDKit          3D

 36 39  0  0  0  0  0  0  0  0999 V2000
   44.3830   36.0630   44.6740 C   0  0  0  0  0  0  0  0  0  0  0  0
   45.0430   35.9820   43.4430 C   0  0  0  0  0  0  0  0  0  0  0  0
   45.9490   34.9730   43.2190 C   0  0  0  0  0  0  0  0  0  0  0  0
   46.1590   34.0910   44.2270 N   0  0  0  0  0  0  0  0  0  0  0  0
   45.5310   34.1670   45.4000 C   0  0  0  0  0  0  0  0  0  0  0  0
   44.6370   35.1490   45.6410 N   0  0  0  0  0  0  0  0  0  0  0  0
   45.8680   33.1520   46.3620 N   0  0  0  0  0  0  0  0  0  0  0  0
   45.2470   33.1690   47.5590 C   0  0  0  0  0  0  0  0  0  0  0  0
   45.6210   32.1600   48.4390 C   0  0  0  0  0  0  0  0  0  0  0  0
   46.5690   31.2050   48.1010 C   0  0  0  0  0  0  0  0  0  0  0  0
   46.8800   30.2170   49.0700 N   0  0  0  0  0  0  0  0  0  0  0  0
   47.1400   31.2680   46.8730 N   0  0  0  0  0  0  0  0  0  0  0  0
   46.7960   32.2360   45.9990 C   0  0  0  0  0  0  0  0  0  0  0  0
   47.3420   32.2760   44.8600 O   0  0  0  0  0  0  0  0  0  0  0  0
   46.7000   34.7790   41.9830 C   0  0  0  0  0  0  0  0  0  0  0  0
   47.9620   35.2590   41.7910 C   0  0  0  0  0  0  0  0  0  0  0  0
   48.6860   35.0870   40.6360 C   0  0  0  0  0  0  0  0  0  0  0  0
   48.1000   34.3940   39.6320 N   0  0  0  0  0  0  0  0  0  0  0  0
   46.8660   33.9170   39.8020 C   0  0  0  0  0  0  0  0  0  0  0  0
   46.1580   34.0870   40.9350 N   0  0  0  0  0  0  0  0  0  0  0  0
   46.3120   33.2020   38.7120 N   0  0  0  0  0  0  0  0  0  0  0  0
   45.3140   32.3420   38.5750 N   0  0  0  0  0  0  0  0  0  0  0  0
   45.1940   31.9470   37.3100 C   0  0  0  0  0  0  0  0  0  0  0  0
   46.1960   32.6080   36.5800 C   0  0  0  0  0  0  0  0  0  0  0  0
   46.8750   33.3850   37.4910 C   0  0  0  0  0  0  0  0  0  0  0  0
   43.6574   36.8693   44.8567 H   0  0  0  0  0  0  0  0  0  0  0  0
   44.8375   36.7235   42.6569 H   0  0  0  0  0  0  0  0  0  0  0  0
   44.4962   33.9290   47.8210 H   0  0  0  0  0  0  0  0  0  0  0  0
   45.1514   32.1175   49.4328 H   0  0  0  0  0  0  0  0  0  0  0  0
   47.5784   29.4901   48.8585 H   0  0  0  0  0  0  0  0  0  0  0  0
   46.4075   30.2265   49.9852 H   0  0  0  0  0  0  0  0  0  0  0  0
   48.4302   35.8197   42.6134 H   0  0  0  0  0  0  0  0  0  0  0  0
   49.7016   35.4963   40.5315 H   0  0  0  0  0  0  0  0  0  0  0  0
   44.4524   31.2387   36.9121 H   0  0  0  0  0  0  0  0  0  0  0  0
   46.3967   32.5222   35.5019 H   0  0  0  0  0  0  0  0  0  0  0  0
   47.7283   34.0421   37.2674 H   0  0  0  0  0  0  0  0  0  0  0  0
  1  6  2  0
  2  1  1  0
  3  2  2  0
  3  4  1  0
  4  5  2  0
  5  6  1  0
  5  7  1  0
  7  8  1  0
  8  9  2  0
 10  9  1  0
 10 11  1  0
 12 10  2  0
 13  7  1  0
 13 12  1  0
 14 13  2  0
 15  3  1  0
 16 15  2  0
 17 16  1  0
 18 19  1  0
 18 17  2  0
 19 20  2  0
 20 15  1  0
 21 19  1  0
 22 21  1  0
 23 22  2  0
 24 23  1  0
 24 25  2  0
 25 21  1  0
  1 26  1  0
  2 27  1  0
  8 28  1  0
  9 29  1  0
 11 30  1  0
 11 31  1  0
 16 32  1  0
 17 33  1  0
 23 34  1  0
 24 35  1  0
 25 36  1  0
M  END
>  <Score>  (1) 
-7.59117

$$$$
