
     RDKit          3D

 54 58  0  0  0  0  0  0  0  0999 V2000
   45.2810   33.9820   41.8930 C   0  0  0  0  0  0  0  0  0  0  0  0
   44.2330   33.5150   41.1550 C   0  0  0  0  0  0  0  0  0  0  0  0
   45.0410   33.3160   39.4810 S   0  0  0  0  0  0  0  0  0  0  0  0
   46.6840   33.9200   40.1230 C   0  0  0  0  0  0  0  0  0  0  0  0
   46.4070   34.1180   41.2200 N   0  0  0  0  0  0  0  0  0  0  0  0
   44.4430   35.8000   45.0910 C   0  0  0  0  0  0  0  0  0  0  0  0
   44.5600   35.5160   43.7330 C   0  0  0  0  0  0  0  0  0  0  0  0
   45.1450   34.3060   43.3390 C   0  0  0  0  0  0  0  0  0  0  0  0
   45.5730   33.4650   44.2980 N   0  0  0  0  0  0  0  0  0  0  0  0
   45.4510   33.7580   45.6010 C   0  0  0  0  0  0  0  0  0  0  0  0
   44.8950   34.9070   45.9930 N   0  0  0  0  0  0  0  0  0  0  0  0
   45.9310   32.8110   46.5940 C   0  0  0  0  0  0  0  0  0  0  0  0
   46.9920   31.9490   46.2890 C   0  0  0  0  0  0  0  0  0  0  0  0
   47.5000   31.0290   47.1730 C   0  0  0  0  0  0  0  0  0  0  0  0
   46.9780   30.9350   48.3770 N   0  0  0  0  0  0  0  0  0  0  0  0
   45.9480   31.7670   48.6840 C   0  0  0  0  0  0  0  0  0  0  0  0
   45.4140   32.6960   47.8340 N   0  0  0  0  0  0  0  0  0  0  0  0
   45.2370   31.8260   49.9480 N   0  0  0  0  0  0  0  0  0  0  0  0
   47.8460   34.0130   39.2380 C   0  0  0  0  0  0  0  0  0  0  0  0
   48.3600   32.6410   38.9190 C   0  0  0  0  0  0  0  0  0  0  0  0
   48.0290   32.3900   37.4700 C   0  0  0  0  0  0  0  0  0  0  0  0
   48.8910   33.0260   36.5870 C   0  0  0  0  0  0  0  0  0  0  0  0
   48.6400   32.8370   35.2460 C   0  0  0  0  0  0  0  0  0  0  0  0
   47.6280   32.0860   34.8140 N   0  0  0  0  0  0  0  0  0  0  0  0
   46.8160   31.4870   35.6910 C   0  0  0  0  0  0  0  0  0  0  0  0
   47.0370   31.6550   36.9950 N   0  0  0  0  0  0  0  0  0  0  0  0
   45.7300   30.6820   35.2500 N   0  0  0  0  0  0  0  0  0  0  0  0
   44.6610   30.2900   36.1460 C   0  0  0  0  0  0  0  0  0  0  0  0
   43.3090   30.7240   35.6050 C   0  0  0  0  0  0  0  0  0  0  0  0
   43.4000   30.9890   34.1690 N   0  0  0  0  0  0  0  0  0  0  0  0
   44.2030   29.9630   33.5230 C   0  0  0  0  0  0  0  0  0  0  0  0
   45.6690   30.2290   33.8750 C   0  0  0  0  0  0  0  0  0  0  0  0
   43.1963   33.3113   41.4611 H   0  0  0  0  0  0  0  0  0  0  0  0
   43.9863   36.7437   45.4240 H   0  0  0  0  0  0  0  0  0  0  0  0
   44.1981   36.2318   42.9802 H   0  0  0  0  0  0  0  0  0  0  0  0
   47.4426   32.0123   45.2875 H   0  0  0  0  0  0  0  0  0  0  0  0
   48.3352   30.3770   46.8773 H   0  0  0  0  0  0  0  0  0  0  0  0
   44.4670   32.4982   50.0749 H   0  0  0  0  0  0  0  0  0  0  0  0
   45.5024   31.1956   50.7181 H   0  0  0  0  0  0  0  0  0  0  0  0
   47.5540   34.5183   38.3056 H   0  0  0  0  0  0  0  0  0  0  0  0
   48.6379   34.5868   39.7416 H   0  0  0  0  0  0  0  0  0  0  0  0
   49.4481   32.5966   39.0741 H   0  0  0  0  0  0  0  0  0  0  0  0
   47.9024   31.8818   39.5703 H   0  0  0  0  0  0  0  0  0  0  0  0
   49.7283   33.6466   36.9389 H   0  0  0  0  0  0  0  0  0  0  0  0
   49.2962   33.3217   34.5081 H   0  0  0  0  0  0  0  0  0  0  0  0
   44.6690   29.1958   36.2581 H   0  0  0  0  0  0  0  0  0  0  0  0
   44.8222   30.7787   37.1182 H   0  0  0  0  0  0  0  0  0  0  0  0
   42.5738   29.9249   35.7810 H   0  0  0  0  0  0  0  0  0  0  0  0
   42.9951   31.6438   36.1202 H   0  0  0  0  0  0  0  0  0  0  0  0
   42.4540   30.9884   33.7616 H   0  0  0  0  0  0  0  0  0  0  0  0
   44.0649   30.0104   32.4327 H   0  0  0  0  0  0  0  0  0  0  0  0
   43.8996   28.9631   33.8667 H   0  0  0  0  0  0  0  0  0  0  0  0
   46.2529   29.3037   33.7617 H   0  0  0  0  0  0  0  0  0  0  0  0
   46.0878   30.9937   33.2043 H   0  0  0  0  0  0  0  0  0  0  0  0
  1  8  1  0
  2  1  2  0
  3  4  1  0
  3  2  1  0
  4  5  2  0
  5  1  1  0
  6 11  2  0
  7  6  1  0
  8  7  2  0
  8  9  1  0
  9 10  2  0
 10 11  1  0
 10 12  1  0
 12 17  1  0
 13 12  2  0
 13 14  1  0
 14 15  2  0
 15 16  1  0
 16 18  1  0
 17 16  2  0
 19  4  1  0
 20 19  1  0
 21 20  1  0
 22 21  2  0
 23 22  1  0
 24 23  2  0
 24 25  1  0
 25 26  2  0
 26 21  1  0
 27 25  1  0
 27 28  1  0
 29 28  1  0
 30 29  1  0
 31 32  1  0
 31 30  1  0
 32 27  1  0
  2 33  1  0
  6 34  1  0
  7 35  1  0
 13 36  1  0
 14 37  1  0
 18 38  1  0
 18 39  1  0
 19 40  1  0
 19 41  1  0
 20 42  1  0
 20 43  1  0
 22 44  1  0
 23 45  1  0
 28 46  1  0
 28 47  1  0
 29 48  1  0
 29 49  1  0
 30 50  1  0
 31 51  1  0
 31 52  1  0
 32 53  1  0
 32 54  1  0
M  END
>  <Score>  (1) 
-7.10377

$$$$
