
     RDKit          3D

 45 48  0  0  1  0  0  0  0  0999 V2000
   46.4560   33.8150   45.0320 C   0  0  2  0  0  0  0  0  0  0  0  0
   45.0460   34.4040   45.0710 C   0  0  0  0  0  0  0  0  0  0  0  0
   44.7130   35.3360   44.0210 C   0  0  0  0  0  0  0  0  0  0  0  0
   45.6780   35.6990   42.9810 C   0  0  0  0  0  0  0  0  0  0  0  0
   46.9910   35.0270   43.0460 C   0  0  1  0  0  0  0  0  0  0  0  0
   46.9370   33.6820   43.6230 C   0  0  0  0  0  0  0  0  0  0  0  0
   45.7770   32.5000   47.0240 C   0  0  0  0  0  0  0  0  0  0  0  0
   46.4490   32.5480   45.8020 C   0  0  0  0  0  0  0  0  0  0  0  0
   47.1230   31.3700   45.3340 C   0  0  0  0  0  0  0  0  0  0  0  0
   47.0670   30.2610   46.1200 N   0  0  0  0  0  0  0  0  0  0  0  0
   46.4170   30.2470   47.2820 C   0  0  0  0  0  0  0  0  0  0  0  0
   45.7750   31.3570   47.7370 N   0  0  0  0  0  0  0  0  0  0  0  0
   46.3470   29.0980   48.1170 N   0  0  0  0  0  0  0  0  0  0  0  0
   45.4980   28.0190   47.7610 C   0  0  0  0  0  0  0  0  0  0  0  0
   45.3730   27.6610   46.5300 N   0  0  0  0  0  0  0  0  0  0  0  0
   44.7590   27.2950   48.7550 N   0  0  0  0  0  0  0  0  0  0  0  0
   45.8220   28.0620   45.7080 H   0  0  0  0  0  0  0  0  0  0  0  0
   47.5560   34.9190   41.6840 C   0  0  0  0  0  0  0  0  0  0  0  0
   48.7440   35.4910   41.2230 C   0  0  0  0  0  0  0  0  0  0  0  0
   48.8170   35.1030   39.9500 N   0  0  0  0  0  0  0  0  0  0  0  0
   47.7800   34.3380   39.5720 C   0  0  0  0  0  0  0  0  0  0  0  0
   47.5230   33.7530   38.3250 C   0  0  0  0  0  0  0  0  0  0  0  0
   46.3680   33.0210   38.2720 C   0  0  0  0  0  0  0  0  0  0  0  0
   45.4860   32.8390   39.3230 C   0  0  0  0  0  0  0  0  0  0  0  0
   45.8340   33.4600   40.5110 C   0  0  0  0  0  0  0  0  0  0  0  0
   46.9650   34.2200   40.6940 C   0  0  0  0  0  0  0  0  0  0  0  0
   47.1842   34.4864   45.5105 H   0  0  0  0  0  0  0  0  0  0  0  0
   44.3250   34.1324   45.8561 H   0  0  0  0  0  0  0  0  0  0  0  0
   43.7091   35.7851   44.0012 H   0  0  0  0  0  0  0  0  0  0  0  0
   45.8522   36.7830   43.0486 H   0  0  0  0  0  0  0  0  0  0  0  0
   45.2263   35.3708   42.0332 H   0  0  0  0  0  0  0  0  0  0  0  0
   47.6184   35.6454   43.7048 H   0  0  0  0  0  0  0  0  0  0  0  0
   46.2416   33.0540   43.0467 H   0  0  0  0  0  0  0  0  0  0  0  0
   47.9300   33.2094   43.5962 H   0  0  0  0  0  0  0  0  0  0  0  0
   45.2524   33.3896   47.4026 H   0  0  0  0  0  0  0  0  0  0  0  0
   47.6641   31.3643   44.3763 H   0  0  0  0  0  0  0  0  0  0  0  0
   46.9110   29.0495   48.9775 H   0  0  0  0  0  0  0  0  0  0  0  0
   44.1479   26.5145   48.4754 H   0  0  0  0  0  0  0  0  0  0  0  0
   44.8396   27.5558   49.7482 H   0  0  0  0  0  0  0  0  0  0  0  0
   49.4552   36.1172   41.7817 H   0  0  0  0  0  0  0  0  0  0  0  0
   49.5897   35.3632   39.3206 H   0  0  0  0  0  0  0  0  0  0  0  0
   48.1934   33.8722   37.4611 H   0  0  0  0  0  0  0  0  0  0  0  0
   46.1202   32.5375   37.3155 H   0  0  0  0  0  0  0  0  0  0  0  0
   44.5688   32.2404   39.2214 H   0  0  0  0  0  0  0  0  0  0  0  0
   45.1573   33.3364   41.3693 H   0  0  0  0  0  0  0  0  0  0  0  0
  1  2  1  0
  1  8  1  0
  3  2  2  0
  4  5  1  0
  4  3  1  0
  5  6  1  0
  6  1  1  0
  7 12  2  0
  8  7  1  0
  9  8  2  0
  9 10  1  0
 10 11  2  0
 11 12  1  0
 11 13  1  0
 14 13  1  0
 14 16  1  0
 15 14  2  0
 17 15  1  0
 18  5  1  0
 19 18  2  0
 20 19  1  0
 21 20  1  0
 21 26  2  0
 22 21  1  0
 23 22  2  0
 23 24  1  0
 24 25  2  0
 25 26  1  0
 26 18  1  0
  1 27  1  1
  2 28  1  0
  3 29  1  0
  4 30  1  0
  4 31  1  0
  5 32  1  1
  6 33  1  0
  6 34  1  0
  7 35  1  0
  9 36  1  0
 13 37  1  0
 16 38  1  0
 16 39  1  0
 19 40  1  0
 20 41  1  0
 22 42  1  0
 23 43  1  0
 24 44  1  0
 25 45  1  0
M  END
>  <Score>  (1) 
-7.16284

$$$$
