
     RDKit          3D

 51 55  0  0  0  0  0  0  0  0999 V2000
   46.2040   31.8830   47.2480 C   0  0  0  0  0  0  0  0  0  0  0  0
   44.5520   34.9670   46.2060 C   0  0  0  0  0  0  0  0  0  0  0  0
   44.7700   35.0050   44.8180 C   0  0  0  0  0  0  0  0  0  0  0  0
   45.5010   33.9440   44.2240 C   0  0  0  0  0  0  0  0  0  0  0  0
   45.9420   32.9640   45.0380 N   0  0  0  0  0  0  0  0  0  0  0  0
   45.7050   32.9730   46.3780 C   0  0  0  0  0  0  0  0  0  0  0  0
   45.0200   33.9630   46.9530 N   0  0  0  0  0  0  0  0  0  0  0  0
   45.6930   34.0240   42.8320 N   0  0  0  0  0  0  0  0  0  0  0  0
   44.9160   33.9020   41.7600 C   0  0  0  0  0  0  0  0  0  0  0  0
   45.6370   34.0810   40.6340 N   0  0  0  0  0  0  0  0  0  0  0  0
   46.9080   34.3230   40.9930 C   0  0  0  0  0  0  0  0  0  0  0  0
   48.0370   34.5730   40.2200 C   0  0  0  0  0  0  0  0  0  0  0  0
   48.0190   34.6080   38.9850 O   0  0  0  0  0  0  0  0  0  0  0  0
   49.2180   34.7910   40.8240 N   0  0  0  0  0  0  0  0  0  0  0  0
   49.2360   34.7530   42.1660 C   0  0  0  0  0  0  0  0  0  0  0  0
   50.4300   34.9690   42.9280 N   0  0  0  0  0  0  0  0  0  0  0  0
   48.1630   34.5170   42.9060 N   0  0  0  0  0  0  0  0  0  0  0  0
   46.9410   34.2880   42.3710 C   0  0  0  0  0  0  0  0  0  0  0  0
   47.3460   32.3630   48.1130 C   0  0  0  0  0  0  0  0  0  0  0  0
   45.1230   31.3130   48.1320 C   0  0  0  0  0  0  0  0  0  0  0  0
   46.7470   30.7990   46.3330 C   0  0  0  0  0  0  0  0  0  0  0  0
   46.1560   29.4460   46.6660 C   0  0  0  0  0  0  0  0  0  0  0  0
   46.8940   28.5680   47.3790 C   0  0  0  0  0  0  0  0  0  0  0  0
   45.8360   27.0770   47.5650 S   0  0  0  0  0  0  0  0  0  0  0  0
   44.4970   27.9710   46.5800 C   0  0  0  0  0  0  0  0  0  0  0  0
   44.9860   28.9930   46.3470 N   0  0  0  0  0  0  0  0  0  0  0  0
   43.1820   27.1890   46.3390 C   0  0  0  0  0  0  0  0  0  0  0  0
   42.9570   26.0010   46.9500 C   0  0  0  0  0  0  0  0  0  0  0  0
   41.7190   25.4390   46.6180 C   0  0  0  0  0  0  0  0  0  0  0  0
   40.8710   26.1100   45.7360 C   0  0  0  0  0  0  0  0  0  0  0  0
   41.1860   27.3270   45.1560 C   0  0  0  0  0  0  0  0  0  0  0  0
   42.3910   27.8340   45.5060 N   0  0  0  0  0  0  0  0  0  0  0  0
   43.9857   35.7787   46.6860 H   0  0  0  0  0  0  0  0  0  0  0  0
   44.3841   35.8353   44.2084 H   0  0  0  0  0  0  0  0  0  0  0  0
   43.8378   33.6857   41.7874 H   0  0  0  0  0  0  0  0  0  0  0  0
   50.0725   34.9791   40.2806 H   0  0  0  0  0  0  0  0  0  0  0  0
   50.3984   34.9307   43.9568 H   0  0  0  0  0  0  0  0  0  0  0  0
   51.3200   35.1625   42.4470 H   0  0  0  0  0  0  0  0  0  0  0  0
   47.0758   32.2494   49.1732 H   0  0  0  0  0  0  0  0  0  0  0  0
   48.2448   31.7665   47.8978 H   0  0  0  0  0  0  0  0  0  0  0  0
   47.5488   33.4225   47.8978 H   0  0  0  0  0  0  0  0  0  0  0  0
   45.3979   31.4579   49.1872 H   0  0  0  0  0  0  0  0  0  0  0  0
   44.1725   31.8271   47.9268 H   0  0  0  0  0  0  0  0  0  0  0  0
   45.0103   30.2382   47.9268 H   0  0  0  0  0  0  0  0  0  0  0  0
   47.8400   30.7496   46.4466 H   0  0  0  0  0  0  0  0  0  0  0  0
   46.4723   31.0508   45.2980 H   0  0  0  0  0  0  0  0  0  0  0  0
   47.9130   28.7144   47.7665 H   0  0  0  0  0  0  0  0  0  0  0  0
   43.6738   25.5268   47.6366 H   0  0  0  0  0  0  0  0  0  0  0  0
   41.4161   24.4737   47.0499 H   0  0  0  0  0  0  0  0  0  0  0  0
   39.9034   25.6487   45.4891 H   0  0  0  0  0  0  0  0  0  0  0  0
   40.5069   27.8438   44.4619 H   0  0  0  0  0  0  0  0  0  0  0  0
  1 19  1  0
  1 20  1  0
  2  7  2  0
  3  2  1  0
  4  3  2  0
  4  5  1  0
  5  6  2  0
  6  7  1  0
  6  1  1  0
  8  4  1  0
  9  8  1  0
 10 11  1  0
 10  9  2  0
 11 18  2  0
 12 14  1  0
 12 11  1  0
 13 12  2  0
 14 15  1  0
 15 17  2  0
 15 16  1  0
 18  8  1  0
 18 17  1  0
 21 22  1  0
 21  1  1  0
 22 23  2  0
 23 24  1  0
 25 24  1  0
 26 25  2  0
 26 22  1  0
 27 25  1  0
 27 28  2  0
 29 28  1  0
 30 29  2  0
 31 32  2  0
 31 30  1  0
 32 27  1  0
  2 33  1  0
  3 34  1  0
  9 35  1  0
 14 36  1  0
 16 37  1  0
 16 38  1  0
 19 39  1  0
 19 40  1  0
 19 41  1  0
 20 42  1  0
 20 43  1  0
 20 44  1  0
 21 45  1  0
 21 46  1  0
 23 47  1  0
 28 48  1  0
 29 49  1  0
 30 50  1  0
 31 51  1  0
M  END
>  <Score>  (1) 
-7.48949

$$$$
