
     RDKit          3D

 46 50  0  0  0  0  0  0  0  0999 V2000
   46.8370   34.6700   41.5730 C   0  0  0  0  0  0  0  0  0  0  0  0
   44.6510   35.8500   44.3740 C   0  0  0  0  0  0  0  0  0  0  0  0
   45.2720   35.7760   43.1190 C   0  0  0  0  0  0  0  0  0  0  0  0
   46.1680   34.7650   42.8960 C   0  0  0  0  0  0  0  0  0  0  0  0
   46.4160   33.8780   43.9010 N   0  0  0  0  0  0  0  0  0  0  0  0
   45.8060   33.9640   45.1110 C   0  0  0  0  0  0  0  0  0  0  0  0
   44.9120   34.9700   45.3380 N   0  0  0  0  0  0  0  0  0  0  0  0
   46.0840   33.0200   46.1630 C   0  0  0  0  0  0  0  0  0  0  0  0
   45.3960   33.1030   47.3700 C   0  0  0  0  0  0  0  0  0  0  0  0
   45.6200   32.2220   48.4360 C   0  0  0  0  0  0  0  0  0  0  0  0
   46.5710   31.2960   48.1610 C   0  0  0  0  0  0  0  0  0  0  0  0
   47.2870   31.1580   46.9960 C   0  0  0  0  0  0  0  0  0  0  0  0
   46.9870   32.0560   46.0440 N   0  0  0  0  0  0  0  0  0  0  0  0
   44.4240   34.1190   47.5230 N   0  0  0  0  0  0  0  0  0  0  0  0
   48.2530   35.2000   41.6180 C   0  0  0  0  0  0  0  0  0  0  0  0
   49.2400   34.1310   41.8790 C   0  0  0  0  0  0  0  0  0  0  0  0
   50.4720   34.3900   42.3670 N   0  0  0  0  0  0  0  0  0  0  0  0
   51.1030   33.2640   42.4890 O   0  0  0  0  0  0  0  0  0  0  0  0
   50.3160   32.2770   42.0920 C   0  0  0  0  0  0  0  0  0  0  0  0
   49.1350   32.7980   41.7030 N   0  0  0  0  0  0  0  0  0  0  0  0
   50.8000   30.9260   42.1300 N   0  0  0  0  0  0  0  0  0  0  0  0
   50.6760   29.9380   43.0220 N   0  0  0  0  0  0  0  0  0  0  0  0
   51.3360   28.8520   42.5780 C   0  0  0  0  0  0  0  0  0  0  0  0
   51.8940   29.1830   41.3550 C   0  0  0  0  0  0  0  0  0  0  0  0
   51.5340   30.5190   41.0910 C   0  0  0  0  0  0  0  0  0  0  0  0
   51.9900   31.1290   39.8500 C   0  0  0  0  0  0  0  0  0  0  0  0
   53.2520   31.2280   39.3060 C   0  0  0  0  0  0  0  0  0  0  0  0
   53.2370   31.9030   38.1020 C   0  0  0  0  0  0  0  0  0  0  0  0
   51.9380   32.2090   37.9380 N   0  0  0  0  0  0  0  0  0  0  0  0
   51.2270   31.7630   38.9440 N   0  0  0  0  0  0  0  0  0  0  0  0
   46.2614   35.2549   40.8405 H   0  0  0  0  0  0  0  0  0  0  0  0
   46.8791   33.6085   41.2875 H   0  0  0  0  0  0  0  0  0  0  0  0
   43.9288   36.6569   44.5671 H   0  0  0  0  0  0  0  0  0  0  0  0
   45.0450   36.5117   42.3334 H   0  0  0  0  0  0  0  0  0  0  0  0
   45.0817   32.2759   49.3938 H   0  0  0  0  0  0  0  0  0  0  0  0
   46.7948   30.5739   48.9600 H   0  0  0  0  0  0  0  0  0  0  0  0
   48.0456   30.3741   46.8547 H   0  0  0  0  0  0  0  0  0  0  0  0
   43.9007   34.2023   48.4062 H   0  0  0  0  0  0  0  0  0  0  0  0
   44.2395   34.7756   46.7512 H   0  0  0  0  0  0  0  0  0  0  0  0
   48.4866   35.6698   40.6512 H   0  0  0  0  0  0  0  0  0  0  0  0
   48.3161   35.9269   42.4412 H   0  0  0  0  0  0  0  0  0  0  0  0
   51.4169   27.8824   43.0912 H   0  0  0  0  0  0  0  0  0  0  0  0
   52.5017   28.5285   40.7129 H   0  0  0  0  0  0  0  0  0  0  0  0
   54.1599   30.8194   39.7737 H   0  0  0  0  0  0  0  0  0  0  0  0
   54.0827   32.1344   37.4378 H   0  0  0  0  0  0  0  0  0  0  0  0
   51.5546   32.7234   37.1322 H   0  0  0  0  0  0  0  0  0  0  0  0
  1 15  1  0
  1  4  1  0
  2  7  2  0
  3  2  1  0
  4  3  2  0
  4  5  1  0
  5  6  2  0
  6  7  1  0
  6  8  1  0
  8  9  2  0
  9 14  1  0
  9 10  1  0
 11 10  2  0
 12 11  1  0
 13  8  1  0
 13 12  2  0
 15 16  1  0
 16 17  2  0
 17 18  1  0
 19 21  1  0
 19 18  1  0
 20 16  1  0
 20 19  2  0
 21 22  1  0
 23 22  2  0
 24 23  1  0
 25 24  2  0
 25 21  1  0
 26 25  1  0
 27 26  1  0
 28 27  2  0
 29 28  1  0
 29 30  1  0
 30 26  2  0
  1 31  1  0
  1 32  1  0
  2 33  1  0
  3 34  1  0
 10 35  1  0
 11 36  1  0
 12 37  1  0
 14 38  1  0
 14 39  1  0
 15 40  1  0
 15 41  1  0
 23 42  1  0
 24 43  1  0
 27 44  1  0
 28 45  1  0
 29 46  1  0
M  END
>  <Score>  (1) 
-7.71558

$$$$
