
     RDKit          3D

 53 58  0  0  0  0  0  0  0  0999 V2000
   48.4340   30.4950   39.9860 C   0  0  0  0  0  0  0  0  0  0  0  0
   47.3390   29.8220   39.6230 C   0  0  0  0  0  0  0  0  0  0  0  0
   46.8580   29.8610   38.3420 C   0  0  0  0  0  0  0  0  0  0  0  0
   47.5830   30.6510   37.4270 C   0  0  0  0  0  0  0  0  0  0  0  0
   48.9690   31.3270   38.4770 S   0  0  0  0  0  0  0  0  0  0  0  0
   47.4180   30.9500   36.0530 C   0  0  0  0  0  0  0  0  0  0  0  0
   46.9560   32.1360   35.6090 C   0  0  0  0  0  0  0  0  0  0  0  0
   46.9360   32.0500   34.2100 C   0  0  0  0  0  0  0  0  0  0  0  0
   47.4030   30.7770   33.8970 C   0  0  0  0  0  0  0  0  0  0  0  0
   47.6630   30.1930   35.0350 O   0  0  0  0  0  0  0  0  0  0  0  0
   47.5060   30.3630   32.5080 C   0  0  0  0  0  0  0  0  0  0  0  0
   46.9610   29.1840   32.0550 C   0  0  0  0  0  0  0  0  0  0  0  0
   47.0290   28.7430   30.7550 C   0  0  0  0  0  0  0  0  0  0  0  0
   47.6760   29.4970   29.8000 C   0  0  0  0  0  0  0  0  0  0  0  0
   48.2400   30.6890   30.2000 C   0  0  0  0  0  0  0  0  0  0  0  0
   48.8890   31.4490   29.2500 C   0  0  0  0  0  0  0  0  0  0  0  0
   49.4760   32.6510   29.5810 C   0  0  0  0  0  0  0  0  0  0  0  0
   49.3910   33.0660   30.8980 C   0  0  0  0  0  0  0  0  0  0  0  0
   48.7310   32.2690   31.8050 C   0  0  0  0  0  0  0  0  0  0  0  0
   48.1320   31.0660   31.5190 C   0  0  0  0  0  0  0  0  0  0  0  0
   49.1760   30.6550   41.2130 C   0  0  0  0  0  0  0  0  0  0  0  0
   47.8440   33.6060   42.8330 N   0  0  0  0  0  0  0  0  0  0  0  0
   48.9410   34.4430   42.8260 C   0  0  0  0  0  0  0  0  0  0  0  0
   50.1470   34.0440   42.2810 C   0  0  0  0  0  0  0  0  0  0  0  0
   50.2330   32.7580   41.7320 C   0  0  0  0  0  0  0  0  0  0  0  0
   51.3060   32.3700   41.2350 O   0  0  0  0  0  0  0  0  0  0  0  0
   49.1100   31.9910   41.7760 N   0  0  0  0  0  0  0  0  0  0  0  0
   47.9660   32.4110   42.3090 C   0  0  0  0  0  0  0  0  0  0  0  0
   46.9430   31.7680   42.3720 O   0  0  0  0  0  0  0  0  0  0  0  0
   45.0200   35.9190   43.3240 C   0  0  0  0  0  0  0  0  0  0  0  0
   46.1160   35.2800   42.7350 C   0  0  0  0  0  0  0  0  0  0  0  0
   46.7380   34.2410   43.4400 C   0  0  0  0  0  0  0  0  0  0  0  0
   46.2540   33.8870   44.6730 N   0  0  0  0  0  0  0  0  0  0  0  0
   45.1820   34.5370   45.2130 C   0  0  0  0  0  0  0  0  0  0  0  0
   44.5740   35.5490   44.5290 N   0  0  0  0  0  0  0  0  0  0  0  0
   46.8085   29.2192   40.3748 H   0  0  0  0  0  0  0  0  0  0  0  0
   45.9560   29.3068   38.0433 H   0  0  0  0  0  0  0  0  0  0  0  0
   46.6550   32.9985   36.2218 H   0  0  0  0  0  0  0  0  0  0  0  0
   46.6162   32.8300   33.5034 H   0  0  0  0  0  0  0  0  0  0  0  0
   46.4343   28.5503   32.7837 H   0  0  0  0  0  0  0  0  0  0  0  0
   46.5655   27.7852   30.4760 H   0  0  0  0  0  0  0  0  0  0  0  0
   47.7400   29.1592   28.7551 H   0  0  0  0  0  0  0  0  0  0  0  0
   48.9390   31.0901   28.2114 H   0  0  0  0  0  0  0  0  0  0  0  0
   49.9939   33.2591   28.8247 H   0  0  0  0  0  0  0  0  0  0  0  0
   49.8435   34.0173   31.2148 H   0  0  0  0  0  0  0  0  0  0  0  0
   48.6786   32.6243   32.8447 H   0  0  0  0  0  0  0  0  0  0  0  0
   48.7748   29.9478   41.9539 H   0  0  0  0  0  0  0  0  0  0  0  0
   50.2322   30.4645   40.9719 H   0  0  0  0  0  0  0  0  0  0  0  0
   48.8540   35.4486   43.2632 H   0  0  0  0  0  0  0  0  0  0  0  0
   51.0161   34.7183   42.2784 H   0  0  0  0  0  0  0  0  0  0  0  0
   44.5177   36.7378   42.7881 H   0  0  0  0  0  0  0  0  0  0  0  0
   46.4805   35.5855   41.7431 H   0  0  0  0  0  0  0  0  0  0  0  0
   44.8065   34.2435   46.2044 H   0  0  0  0  0  0  0  0  0  0  0  0
  1 21  1  0
  2  1  2  0
  3  2  1  0
  4  3  2  0
  4  5  1  0
  5  1  1  0
  6  4  1  0
  7  6  2  0
  8  7  1  0
  9  8  2  0
  9 10  1  0
 10  6  1  0
 11  9  1  0
 12 11  2  0
 13 12  1  0
 14 15  1  0
 14 13  2  0
 15 20  2  0
 16 17  2  0
 16 15  1  0
 17 18  1  0
 18 19  2  0
 20 19  1  0
 20 11  1  0
 21 27  1  0
 22 32  1  0
 23 22  1  0
 24 23  2  0
 25 27  1  0
 25 24  1  0
 26 25  2  0
 27 28  1  0
 28 29  2  0
 28 22  1  0
 30 35  2  0
 31 30  1  0
 31 32  2  0
 32 33  1  0
 33 34  2  0
 35 34  1  0
  2 36  1  0
  3 37  1  0
  7 38  1  0
  8 39  1  0
 12 40  1  0
 13 41  1  0
 14 42  1  0
 16 43  1  0
 17 44  1  0
 18 45  1  0
 19 46  1  0
 21 47  1  0
 21 48  1  0
 23 49  1  0
 24 50  1  0
 30 51  1  0
 31 52  1  0
 34 53  1  0
M  END
>  <Score>  (1) 
-7.33856

$$$$
