
     RDKit          3D

 40 43  0  0  0  0  0  0  0  0999 V2000
   44.4980   35.8630   44.8460 C   0  0  0  0  0  0  0  0  0  0  0  0
   45.0820   35.8870   43.5910 C   0  0  0  0  0  0  0  0  0  0  0  0
   45.9910   34.9220   43.1750 C   0  0  0  0  0  0  0  0  0  0  0  0
   46.2390   33.9650   44.1290 N   0  0  0  0  0  0  0  0  0  0  0  0
   45.6730   33.9430   45.3420 C   0  0  0  0  0  0  0  0  0  0  0  0
   44.8140   34.8870   45.6840 N   0  0  0  0  0  0  0  0  0  0  0  0
   46.0160   32.8980   46.2400 N   0  0  0  0  0  0  0  0  0  0  0  0
   45.3370   32.7600   47.3930 C   0  0  0  0  0  0  0  0  0  0  0  0
   45.7030   31.7330   48.2390 C   0  0  0  0  0  0  0  0  0  0  0  0
   46.7470   30.9000   47.8590 C   0  0  0  0  0  0  0  0  0  0  0  0
   47.1030   29.9470   48.6210 O   0  0  0  0  0  0  0  0  0  0  0  0
   47.3970   31.0760   46.6980 N   0  0  0  0  0  0  0  0  0  0  0  0
   47.0220   32.0780   45.8960 C   0  0  0  0  0  0  0  0  0  0  0  0
   47.6670   32.1970   44.8210 O   0  0  0  0  0  0  0  0  0  0  0  0
   46.6990   34.7760   41.9370 C   0  0  0  0  0  0  0  0  0  0  0  0
   47.9480   35.3780   41.8460 C   0  0  0  0  0  0  0  0  0  0  0  0
   48.7410   35.3210   40.7180 C   0  0  0  0  0  0  0  0  0  0  0  0
   48.2950   34.6450   39.6300 C   0  0  0  0  0  0  0  0  0  0  0  0
   47.0640   34.0200   39.6430 C   0  0  0  0  0  0  0  0  0  0  0  0
   46.5980   33.3300   38.5510 C   0  0  0  0  0  0  0  0  0  0  0  0
   45.3710   32.6990   38.5440 C   0  0  0  0  0  0  0  0  0  0  0  0
   44.6410   32.8050   39.7120 C   0  0  0  0  0  0  0  0  0  0  0  0
   45.1260   33.4930   40.7800 C   0  0  0  0  0  0  0  0  0  0  0  0
   46.3290   34.1170   40.7960 C   0  0  0  0  0  0  0  0  0  0  0  0
   44.0770   33.5310   42.2190 S   0  0  0  0  0  0  0  0  0  0  0  0
   45.0240   31.5000   49.5390 C   0  0  0  0  0  0  0  0  0  0  0  0
   43.7818   36.6433   45.1430 H   0  0  0  0  0  0  0  0  0  0  0  0
   44.8168   36.6993   42.8983 H   0  0  0  0  0  0  0  0  0  0  0  0
   44.5159   33.4442   47.6533 H   0  0  0  0  0  0  0  0  0  0  0  0
   48.1704   30.4508   46.4298 H   0  0  0  0  0  0  0  0  0  0  0  0
   48.3249   35.9296   42.7199 H   0  0  0  0  0  0  0  0  0  0  0  0
   49.7224   35.8175   40.7015 H   0  0  0  0  0  0  0  0  0  0  0  0
   48.9212   34.5941   38.7270 H   0  0  0  0  0  0  0  0  0  0  0  0
   47.2257   33.2785   37.6491 H   0  0  0  0  0  0  0  0  0  0  0  0
   44.9991   32.1485   37.6673 H   0  0  0  0  0  0  0  0  0  0  0  0
   43.6531   32.3259   39.7791 H   0  0  0  0  0  0  0  0  0  0  0  0
   44.8509   33.5030   43.3491 H   0  0  0  0  0  0  0  0  0  0  0  0
   45.7151   31.7371   50.3613 H   0  0  0  0  0  0  0  0  0  0  0  0
   44.1355   32.1447   49.6093 H   0  0  0  0  0  0  0  0  0  0  0  0
   44.7185   30.4456   49.6093 H   0  0  0  0  0  0  0  0  0  0  0  0
  1  6  2  0
  2  1  1  0
  3  2  2  0
  3  4  1  0
  4  5  2  0
  5  6  1  0
  5  7  1  0
  7  8  1  0
  8  9  2  0
  9 26  1  0
 10  9  1  0
 10 11  2  0
 12 10  1  0
 13  7  1  0
 13 12  1  0
 14 13  2  0
 15  3  1  0
 16 15  2  0
 17 16  1  0
 18 19  1  0
 18 17  2  0
 19 24  2  0
 20 19  1  0
 21 20  2  0
 21 22  1  0
 22 23  2  0
 23 24  1  0
 23 25  1  0
 24 15  1  0
  1 27  1  0
  2 28  1  0
  8 29  1  0
 12 30  1  0
 16 31  1  0
 17 32  1  0
 18 33  1  0
 20 34  1  0
 21 35  1  0
 22 36  1  0
 25 37  1  0
 26 38  1  0
 26 39  1  0
 26 40  1  0
M  END
>  <Score>  (1) 
-8.05973

$$$$
