
     RDKit          3D

 48 52  0  0  1  0  0  0  0  0999 V2000
   41.9870   34.4630   41.1310 N   0  0  0  0  0  0  0  0  0  0  0  0
   40.9980   35.3640   41.6380 C   0  0  0  0  0  0  0  0  0  0  0  0
   40.3830   36.1340   40.5040 C   0  0  0  0  0  0  0  0  0  0  0  0
   39.8260   35.2290   39.4620 C   0  0  0  0  0  0  0  0  0  0  0  0
   40.6900   34.0660   39.0950 C   0  0  0  0  0  0  0  0  0  0  0  0
   41.4760   33.4820   40.2170 C   0  0  2  0  0  0  0  0  0  0  0  0
   40.8110   32.4460   40.9620 N   0  0  0  0  0  0  0  0  0  0  0  0
   39.4760   32.1540   40.9280 C   0  0  0  0  0  0  0  0  0  0  0  0
   39.1660   31.1450   41.7260 N   0  0  0  0  0  0  0  0  0  0  0  0
   40.2800   30.7240   42.3260 C   0  0  0  0  0  0  0  0  0  0  0  0
   40.5880   29.7350   43.2420 C   0  0  0  0  0  0  0  0  0  0  0  0
   39.6440   29.0010   43.6700 O   0  0  0  0  0  0  0  0  0  0  0  0
   41.8600   29.5530   43.6700 N   0  0  0  0  0  0  0  0  0  0  0  0
   42.8140   30.3660   43.1780 C   0  0  0  0  0  0  0  0  0  0  0  0
   44.1230   30.1150   43.6730 N   0  0  0  0  0  0  0  0  0  0  0  0
   42.5260   31.3280   42.2910 N   0  0  0  0  0  0  0  0  0  0  0  0
   41.2790   31.5400   41.8410 C   0  0  0  0  0  0  0  0  0  0  0  0
   43.0870   35.1810   40.5710 C   0  0  0  0  0  0  0  0  0  0  0  0
   46.2230   35.0090   42.3590 N   0  0  0  0  0  0  0  0  0  0  0  0
   45.5240   35.8370   43.1400 C   0  0  0  0  0  0  0  0  0  0  0  0
   44.3020   36.0520   42.6650 N   0  0  0  0  0  0  0  0  0  0  0  0
   44.2280   35.3190   41.5220 C   0  0  0  0  0  0  0  0  0  0  0  0
   45.4220   34.6710   41.3320 N   0  0  0  0  0  0  0  0  0  0  0  0
   49.9250   34.5270   42.2860 C   0  0  0  0  0  0  0  0  0  0  0  0
   48.7010   35.1870   42.2530 C   0  0  0  0  0  0  0  0  0  0  0  0
   47.5170   34.4560   42.3770 C   0  0  0  0  0  0  0  0  0  0  0  0
   47.6590   33.1240   42.5230 N   0  0  0  0  0  0  0  0  0  0  0  0
   48.8350   32.4730   42.5560 C   0  0  0  0  0  0  0  0  0  0  0  0
   49.9660   33.1900   42.4360 N   0  0  0  0  0  0  0  0  0  0  0  0
   40.2154   34.7923   42.1582 H   0  0  0  0  0  0  0  0  0  0  0  0
   41.4717   36.0664   42.3396 H   0  0  0  0  0  0  0  0  0  0  0  0
   39.5725   36.7640   40.8991 H   0  0  0  0  0  0  0  0  0  0  0  0
   41.1692   36.7478   40.0402 H   0  0  0  0  0  0  0  0  0  0  0  0
   38.8670   34.8363   39.8309 H   0  0  0  0  0  0  0  0  0  0  0  0
   39.7331   35.8373   38.5502 H   0  0  0  0  0  0  0  0  0  0  0  0
   40.0424   33.2765   38.6858 H   0  0  0  0  0  0  0  0  0  0  0  0
   41.4262   34.4482   38.3726 H   0  0  0  0  0  0  0  0  0  0  0  0
   42.3157   33.0106   39.6853 H   0  0  0  0  0  0  0  0  0  0  0  0
   38.7447   32.6948   40.3094 H   0  0  0  0  0  0  0  0  0  0  0  0
   42.0905   28.8154   44.3509 H   0  0  0  0  0  0  0  0  0  0  0  0
   44.9146   30.6896   43.3503 H   0  0  0  0  0  0  0  0  0  0  0  0
   44.2797   29.3585   44.3542 H   0  0  0  0  0  0  0  0  0  0  0  0
   43.4375   34.6460   39.6760 H   0  0  0  0  0  0  0  0  0  0  0  0
   42.7333   36.1936   40.3270 H   0  0  0  0  0  0  0  0  0  0  0  0
   45.9133   36.2868   44.0653 H   0  0  0  0  0  0  0  0  0  0  0  0
   50.8601   35.0981   42.1894 H   0  0  0  0  0  0  0  0  0  0  0  0
   48.6655   36.2795   42.1298 H   0  0  0  0  0  0  0  0  0  0  0  0
   48.8709   31.3804   42.6782 H   0  0  0  0  0  0  0  0  0  0  0  0
  1  2  1  0
  3  2  1  0
  4  3  1  0
  5  4  1  0
  5  6  1  0
  6  7  1  0
  6  1  1  0
  7 17  1  0
  8  7  1  0
  8  9  2  0
  9 10  1  0
 10 11  1  0
 11 13  1  0
 11 12  2  0
 14 13  1  0
 14 15  1  0
 16 14  2  0
 17 16  1  0
 17 10  2  0
 18  1  1  0
 18 22  1  0
 19 26  1  0
 19 20  1  0
 21 20  2  0
 22 21  1  0
 23 22  2  0
 23 19  1  0
 24 29  2  0
 25 24  1  0
 25 26  2  0
 26 27  1  0
 27 28  2  0
 29 28  1  0
  2 30  1  0
  2 31  1  0
  3 32  1  0
  3 33  1  0
  4 34  1  0
  4 35  1  0
  5 36  1  0
  5 37  1  0
  6 38  1  6
  8 39  1  0
 13 40  1  0
 15 41  1  0
 15 42  1  0
 18 43  1  0
 18 44  1  0
 20 45  1  0
 24 46  1  0
 25 47  1  0
 28 48  1  0
M  END
>  <Score>  (1) 
-7.15173

$$$$
