
     RDKit          3D

 34 37  0  0  0  0  0  0  0  0999 V2000
   44.2580   35.6230   45.7930 C   0  0  0  0  0  0  0  0  0  0  0  0
   44.5490   35.4890   44.4150 C   0  0  0  0  0  0  0  0  0  0  0  0
   45.3000   34.3670   44.0250 C   0  0  0  0  0  0  0  0  0  0  0  0
   45.7010   33.4810   44.9780 N   0  0  0  0  0  0  0  0  0  0  0  0
   45.3930   33.6600   46.2740 C   0  0  0  0  0  0  0  0  0  0  0  0
   44.6840   34.7070   46.6890 N   0  0  0  0  0  0  0  0  0  0  0  0
   45.5780   34.2580   42.6390 N   0  0  0  0  0  0  0  0  0  0  0  0
   44.8650   33.9960   41.5400 C   0  0  0  0  0  0  0  0  0  0  0  0
   45.6730   34.0200   40.4520 N   0  0  0  0  0  0  0  0  0  0  0  0
   46.9160   34.2980   40.8570 C   0  0  0  0  0  0  0  0  0  0  0  0
   48.1020   34.4350   40.1340 C   0  0  0  0  0  0  0  0  0  0  0  0
   48.1550   34.3010   38.9010 O   0  0  0  0  0  0  0  0  0  0  0  0
   49.2500   34.7230   40.7810 N   0  0  0  0  0  0  0  0  0  0  0  0
   49.1770   34.8640   42.1110 C   0  0  0  0  0  0  0  0  0  0  0  0
   50.3170   35.1670   42.9060 N   0  0  0  0  0  0  0  0  0  0  0  0
   48.0500   34.7360   42.8060 N   0  0  0  0  0  0  0  0  0  0  0  0
   46.8630   34.4480   42.2250 C   0  0  0  0  0  0  0  0  0  0  0  0
   45.8520   32.6720   47.2510 C   0  0  0  0  0  0  0  0  0  0  0  0
   44.9700   32.1200   48.1710 C   0  0  0  0  0  0  0  0  0  0  0  0
   45.4180   31.1980   49.0740 C   0  0  0  0  0  0  0  0  0  0  0  0
   46.7230   30.7630   49.1390 C   0  0  0  0  0  0  0  0  0  0  0  0
   47.5970   31.3240   48.2100 C   0  0  0  0  0  0  0  0  0  0  0  0
   47.1870   32.2680   47.2690 C   0  0  0  0  0  0  0  0  0  0  0  0
   43.6746   36.4884   46.1405 H   0  0  0  0  0  0  0  0  0  0  0  0
   44.2024   36.2310   43.6806 H   0  0  0  0  0  0  0  0  0  0  0  0
   43.7843   33.7915   41.5209 H   0  0  0  0  0  0  0  0  0  0  0  0
   50.1413   34.8295   40.2758 H   0  0  0  0  0  0  0  0  0  0  0  0
   50.2211   35.2678   43.9266 H   0  0  0  0  0  0  0  0  0  0  0  0
   51.2384   35.2856   42.4611 H   0  0  0  0  0  0  0  0  0  0  0  0
   43.9130   32.4246   48.1725 H   0  0  0  0  0  0  0  0  0  0  0  0
   44.6953   30.7793   49.7898 H   0  0  0  0  0  0  0  0  0  0  0  0
   47.0548   30.0190   49.8782 H   0  0  0  0  0  0  0  0  0  0  0  0
   48.6512   31.0101   48.2192 H   0  0  0  0  0  0  0  0  0  0  0  0
   47.9065   32.6883   46.5508 H   0  0  0  0  0  0  0  0  0  0  0  0
  1  6  2  0
  2  1  1  0
  3  2  2  0
  3  4  1  0
  4  5  2  0
  5  6  1  0
  5 18  1  0
  7  3  1  0
  8  7  1  0
  9 10  1  0
  9  8  2  0
 10 17  2  0
 11 13  1  0
 11 10  1  0
 12 11  2  0
 13 14  1  0
 14 16  2  0
 14 15  1  0
 17  7  1  0
 17 16  1  0
 18 23  1  0
 18 19  2  0
 19 20  1  0
 20 21  2  0
 22 21  1  0
 23 22  2  0
  1 24  1  0
  2 25  1  0
  8 26  1  0
 13 27  1  0
 15 28  1  0
 15 29  1  0
 19 30  1  0
 20 31  1  0
 21 32  1  0
 22 33  1  0
 23 34  1  0
M  END
>  <Score>  (1) 
-7.23598

$$$$
