
     RDKit          3D

 35 38  0  0  0  0  0  0  0  0999 V2000
   44.6210   35.7400   44.3510 C   0  0  0  0  0  0  0  0  0  0  0  0
   45.3840   35.8240   43.1830 C   0  0  0  0  0  0  0  0  0  0  0  0
   46.4130   34.9150   43.0600 C   0  0  0  0  0  0  0  0  0  0  0  0
   46.6260   34.0100   44.0540 N   0  0  0  0  0  0  0  0  0  0  0  0
   45.8500   33.9710   45.1770 C   0  0  0  0  0  0  0  0  0  0  0  0
   44.8420   34.8440   45.3220 N   0  0  0  0  0  0  0  0  0  0  0  0
   47.2680   34.9200   41.8780 C   0  0  0  0  0  0  0  0  0  0  0  0
   48.4960   35.5410   41.7740 C   0  0  0  0  0  0  0  0  0  0  0  0
   48.9700   35.3130   40.5210 N   0  0  0  0  0  0  0  0  0  0  0  0
   48.0480   34.5600   39.8520 C   0  0  0  0  0  0  0  0  0  0  0  0
   48.1620   34.1200   38.5480 C   0  0  0  0  0  0  0  0  0  0  0  0
   47.1190   33.3670   38.0480 C   0  0  0  0  0  0  0  0  0  0  0  0
   46.0220   33.0910   38.8630 C   0  0  0  0  0  0  0  0  0  0  0  0
   45.9370   33.5510   40.1800 C   0  0  0  0  0  0  0  0  0  0  0  0
   46.9770   34.3020   40.6800 C   0  0  0  0  0  0  0  0  0  0  0  0
   46.0900   33.0020   46.2230 C   0  0  0  0  0  0  0  0  0  0  0  0
   45.3970   33.0440   47.4190 C   0  0  0  0  0  0  0  0  0  0  0  0
   45.5790   32.1540   48.4530 C   0  0  0  0  0  0  0  0  0  0  0  0
   46.5220   31.1990   48.1970 C   0  0  0  0  0  0  0  0  0  0  0  0
   47.2480   31.1000   47.0260 C   0  0  0  0  0  0  0  0  0  0  0  0
   46.9810   32.0290   46.0880 N   0  0  0  0  0  0  0  0  0  0  0  0
   44.4340   34.1020   47.5580 N   0  0  0  0  0  0  0  0  0  0  0  0
   43.7913   36.4505   44.4804 H   0  0  0  0  0  0  0  0  0  0  0  0
   45.1751   36.5735   42.4054 H   0  0  0  0  0  0  0  0  0  0  0  0
   49.0006   36.1171   42.5636 H   0  0  0  0  0  0  0  0  0  0  0  0
   49.8670   35.6491   40.1425 H   0  0  0  0  0  0  0  0  0  0  0  0
   49.0440   34.3588   37.9356 H   0  0  0  0  0  0  0  0  0  0  0  0
   47.1529   32.9881   37.0159 H   0  0  0  0  0  0  0  0  0  0  0  0
   45.1952   32.4907   38.4556 H   0  0  0  0  0  0  0  0  0  0  0  0
   45.0602   33.3186   40.8022 H   0  0  0  0  0  0  0  0  0  0  0  0
   45.0176   32.2067   49.3975 H   0  0  0  0  0  0  0  0  0  0  0  0
   46.7176   30.4535   48.9818 H   0  0  0  0  0  0  0  0  0  0  0  0
   47.9981   30.3109   46.8692 H   0  0  0  0  0  0  0  0  0  0  0  0
   43.8850   34.1880   48.4252 H   0  0  0  0  0  0  0  0  0  0  0  0
   44.2930   34.7741   46.7904 H   0  0  0  0  0  0  0  0  0  0  0  0
  1  6  2  0
  2  1  1  0
  3  2  2  0
  3  4  1  0
  4  5  2  0
  5  6  1  0
  5 16  1  0
  7  3  1  0
  8  7  2  0
  9  8  1  0
 10  9  1  0
 10 15  2  0
 11 10  1  0
 12 11  2  0
 12 13  1  0
 13 14  2  0
 14 15  1  0
 15  7  1  0
 16 17  2  0
 17 22  1  0
 17 18  1  0
 19 18  2  0
 20 19  1  0
 21 16  1  0
 21 20  2  0
  1 23  1  0
  2 24  1  0
  8 25  1  0
  9 26  1  0
 11 27  1  0
 12 28  1  0
 13 29  1  0
 14 30  1  0
 18 31  1  0
 19 32  1  0
 20 33  1  0
 22 34  1  0
 22 35  1  0
M  END
>  <Score>  (1) 
-7.9805

$$$$
