
     RDKit          3D

 44 47  0  0  1  0  0  0  0  0999 V2000
   43.7630   34.5310   40.4440 C   0  0  2  0  0  0  0  0  0  0  0  0
   42.2120   34.6820   40.3800 C   0  0  0  0  0  0  0  0  0  0  0  0
   42.1110   35.0590   38.8950 C   0  0  0  0  0  0  0  0  0  0  0  0
   43.0430   34.0960   38.2690 C   0  0  0  0  0  0  0  0  0  0  0  0
   43.9390   33.5480   39.3920 C   0  0  1  0  0  0  0  0  0  0  0  0
   44.6920   35.2440   42.6040 C   0  0  0  0  0  0  0  0  0  0  0  0
   44.2390   34.1920   41.7850 C   0  0  0  0  0  0  0  0  0  0  0  0
   44.2720   32.8670   42.2630 C   0  0  0  0  0  0  0  0  0  0  0  0
   44.7480   32.6600   43.5180 N   0  0  0  0  0  0  0  0  0  0  0  0
   45.1820   33.6970   44.2930 C   0  0  0  0  0  0  0  0  0  0  0  0
   45.1550   34.9730   43.8440 N   0  0  0  0  0  0  0  0  0  0  0  0
   45.6700   33.4030   45.5990 N   0  0  0  0  0  0  0  0  0  0  0  0
   45.0150   33.9910   46.7160 C   0  0  0  0  0  0  0  0  0  0  0  0
   44.2670   35.0460   46.5500 N   0  0  0  0  0  0  0  0  0  0  0  0
   45.2240   33.3630   47.9980 N   0  0  0  0  0  0  0  0  0  0  0  0
   43.7660   35.5090   47.3560 H   0  0  0  0  0  0  0  0  0  0  0  0
   45.2870   33.3640   38.8890 N   0  0  0  0  0  0  0  0  0  0  0  0
   46.4120   33.3910   39.6400 C   0  0  0  0  0  0  0  0  0  0  0  0
   47.4800   33.1970   38.8820 N   0  0  0  0  0  0  0  0  0  0  0  0
   47.0200   33.0430   37.6250 C   0  0  0  0  0  0  0  0  0  0  0  0
   47.7470   32.8170   36.4730 C   0  0  0  0  0  0  0  0  0  0  0  0
   49.0060   32.7250   36.4920 O   0  0  0  0  0  0  0  0  0  0  0  0
   47.0540   32.7000   35.3270 N   0  0  0  0  0  0  0  0  0  0  0  0
   45.6860   32.8000   35.3050 C   0  0  0  0  0  0  0  0  0  0  0  0
   45.0800   32.6610   34.0190 N   0  0  0  0  0  0  0  0  0  0  0  0
   45.0070   33.0210   36.4590 N   0  0  0  0  0  0  0  0  0  0  0  0
   45.6420   33.1450   37.6180 C   0  0  0  0  0  0  0  0  0  0  0  0
   44.3707   35.4326   40.2771 H   0  0  0  0  0  0  0  0  0  0  0  0
   41.6895   33.7418   40.6102 H   0  0  0  0  0  0  0  0  0  0  0  0
   41.7598   35.3857   41.0944 H   0  0  0  0  0  0  0  0  0  0  0  0
   41.0863   34.9263   38.5178 H   0  0  0  0  0  0  0  0  0  0  0  0
   42.3548   36.1113   38.6871 H   0  0  0  0  0  0  0  0  0  0  0  0
   42.4804   33.2756   37.7995 H   0  0  0  0  0  0  0  0  0  0  0  0
   43.6446   34.5817   37.4866 H   0  0  0  0  0  0  0  0  0  0  0  0
   43.6909   32.5489   39.7795 H   0  0  0  0  0  0  0  0  0  0  0  0
   44.6691   36.2805   42.2364 H   0  0  0  0  0  0  0  0  0  0  0  0
   43.9242   32.0290   41.6411 H   0  0  0  0  0  0  0  0  0  0  0  0
   46.4787   32.7789   45.7311 H   0  0  0  0  0  0  0  0  0  0  0  0
   44.7729   33.7484   48.8399 H   0  0  0  0  0  0  0  0  0  0  0  0
   45.8243   32.5292   48.0713 H   0  0  0  0  0  0  0  0  0  0  0  0
   46.4360   33.5516   40.7279 H   0  0  0  0  0  0  0  0  0  0  0  0
   47.5611   32.5316   34.4464 H   0  0  0  0  0  0  0  0  0  0  0  0
   44.0565   32.7243   33.9224 H   0  0  0  0  0  0  0  0  0  0  0  0
   45.6665   32.4975   33.1883 H   0  0  0  0  0  0  0  0  0  0  0  0
  1  7  1  0
  2  1  1  0
  3  2  1  0
  4  3  1  0
  4  5  1  0
  5  1  1  0
  6 11  2  0
  7  8  2  0
  7  6  1  0
  8  9  1  0
  9 10  2  0
 10 12  1  0
 11 10  1  0
 12 13  1  0
 13 15  1  0
 14 13  2  0
 14 16  1  0
 17  5  1  0
 17 18  1  0
 19 18  2  0
 20 19  1  0
 21 22  2  0
 21 20  1  0
 23 21  1  0
 24 23  1  0
 24 26  2  0
 25 24  1  0
 26 27  1  0
 27 20  2  0
 27 17  1  0
  1 28  1  6
  2 29  1  0
  2 30  1  0
  3 31  1  0
  3 32  1  0
  4 33  1  0
  4 34  1  0
  5 35  1  1
  6 36  1  0
  8 37  1  0
 12 38  1  0
 15 39  1  0
 15 40  1  0
 18 41  1  0
 23 42  1  0
 25 43  1  0
 25 44  1  0
M  END
>  <Score>  (1) 
-7.62595

$$$$
