
     RDKit          3D

 40 44  0  0  0  0  0  0  0  0999 V2000
   44.3490   36.1210   44.7840 C   0  0  0  0  0  0  0  0  0  0  0  0
   44.9850   36.0470   43.5330 C   0  0  0  0  0  0  0  0  0  0  0  0
   45.8920   35.0420   43.3010 C   0  0  0  0  0  0  0  0  0  0  0  0
   46.1030   34.1780   44.3190 N   0  0  0  0  0  0  0  0  0  0  0  0
   45.4930   34.2490   45.5190 C   0  0  0  0  0  0  0  0  0  0  0  0
   44.6190   35.2150   45.7500 N   0  0  0  0  0  0  0  0  0  0  0  0
   45.8220   33.2430   46.5180 C   0  0  0  0  0  0  0  0  0  0  0  0
   45.0180   33.0510   47.6040 C   0  0  0  0  0  0  0  0  0  0  0  0
   45.5440   32.0470   48.3930 C   0  0  0  0  0  0  0  0  0  0  0  0
   46.6740   31.6500   47.7530 N   0  0  0  0  0  0  0  0  0  0  0  0
   46.8410   32.3550   46.6440 N   0  0  0  0  0  0  0  0  0  0  0  0
   48.7880   28.7800   48.2210 N   0  0  0  0  0  0  0  0  0  0  0  0
   47.6870   29.3510   47.7120 N   0  0  0  0  0  0  0  0  0  0  0  0
   47.6470   30.6580   48.0630 C   0  0  0  0  0  0  0  0  0  0  0  0
   48.7690   30.9430   48.8300 C   0  0  0  0  0  0  0  0  0  0  0  0
   49.4500   29.7380   48.9020 C   0  0  0  0  0  0  0  0  0  0  0  0
   46.5990   34.7360   42.0780 C   0  0  0  0  0  0  0  0  0  0  0  0
   47.9190   35.2050   41.9960 C   0  0  0  0  0  0  0  0  0  0  0  0
   48.7480   35.0230   40.9110 C   0  0  0  0  0  0  0  0  0  0  0  0
   48.2890   34.3410   39.8100 C   0  0  0  0  0  0  0  0  0  0  0  0
   47.0010   33.8610   39.8280 C   0  0  0  0  0  0  0  0  0  0  0  0
   46.4890   33.2030   38.7330 C   0  0  0  0  0  0  0  0  0  0  0  0
   45.1850   32.7300   38.6820 C   0  0  0  0  0  0  0  0  0  0  0  0
   44.4080   32.9630   39.8220 C   0  0  0  0  0  0  0  0  0  0  0  0
   44.9470   33.6210   40.9010 C   0  0  0  0  0  0  0  0  0  0  0  0
   46.2360   34.0810   40.9420 C   0  0  0  0  0  0  0  0  0  0  0  0
   43.6238   36.9247   44.9791 H   0  0  0  0  0  0  0  0  0  0  0  0
   44.7592   36.7850   42.7492 H   0  0  0  0  0  0  0  0  0  0  0  0
   44.0945   33.6092   47.8176 H   0  0  0  0  0  0  0  0  0  0  0  0
   45.1359   31.6539   49.3359 H   0  0  0  0  0  0  0  0  0  0  0  0
   49.0741   27.7965   48.1127 H   0  0  0  0  0  0  0  0  0  0  0  0
   49.0529   31.9064   49.2786 H   0  0  0  0  0  0  0  0  0  0  0  0
   50.3975   29.5843   49.4392 H   0  0  0  0  0  0  0  0  0  0  0  0
   48.3200   35.7569   42.8589 H   0  0  0  0  0  0  0  0  0  0  0  0
   49.7730   35.4219   40.9259 H   0  0  0  0  0  0  0  0  0  0  0  0
   48.9367   34.1829   38.9351 H   0  0  0  0  0  0  0  0  0  0  0  0
   47.1409   33.0452   37.8611 H   0  0  0  0  0  0  0  0  0  0  0  0
   44.7875   32.2051   37.8008 H   0  0  0  0  0  0  0  0  0  0  0  0
   43.3638   32.6188   39.8545 H   0  0  0  0  0  0  0  0  0  0  0  0
   44.3077   33.7875   41.7805 H   0  0  0  0  0  0  0  0  0  0  0  0
  1  6  2  0
  2  1  1  0
  3  2  2  0
  3  4  1  0
  4  5  2  0
  5  6  1  0
  5  7  1  0
  7 11  2  0
  7  8  1  0
  8  9  2  0
 10 14  1  0
 10  9  1  0
 11 10  1  0
 12 16  1  0
 13 14  2  0
 13 12  1  0
 14 15  1  0
 15 16  2  0
 17  3  1  0
 18 17  2  0
 19 18  1  0
 20 21  1  0
 20 19  2  0
 21 26  2  0
 22 21  1  0
 23 22  2  0
 23 24  1  0
 24 25  2  0
 25 26  1  0
 26 17  1  0
  1 27  1  0
  2 28  1  0
  8 29  1  0
  9 30  1  0
 12 31  1  0
 15 32  1  0
 16 33  1  0
 18 34  1  0
 19 35  1  0
 20 36  1  0
 22 37  1  0
 23 38  1  0
 24 39  1  0
 25 40  1  0
M  END
>  <Score>  (1) 
-7.72201

$$$$
