
     RDKit          3D

 49 54  0  0  1  0  0  0  0  0999 V2000
   48.2200   31.2170   48.6320 C   0  0  0  0  0  0  0  0  0  0  0  0
   49.0440   32.2410   49.1390 C   0  0  0  0  0  0  0  0  0  0  0  0
   50.2140   31.8920   49.7420 C   0  0  0  0  0  0  0  0  0  0  0  0
   50.5440   30.5560   49.8320 C   0  0  0  0  0  0  0  0  0  0  0  0
   49.0940   29.6940   49.0030 S   0  0  0  0  0  0  0  0  0  0  0  0
   44.5980   35.8110   44.9340 C   0  0  0  0  0  0  0  0  0  0  0  0
   45.0890   35.6400   43.6180 C   0  0  0  0  0  0  0  0  0  0  0  0
   45.8360   34.4640   43.3390 C   0  0  0  0  0  0  0  0  0  0  0  0
   46.0420   33.5620   44.3520 N   0  0  0  0  0  0  0  0  0  0  0  0
   45.5480   33.7810   45.5860 C   0  0  0  0  0  0  0  0  0  0  0  0
   44.8260   34.9020   45.8900 N   0  0  0  0  0  0  0  0  0  0  0  0
   45.8040   32.8050   46.5670 N   0  0  0  0  0  0  0  0  0  0  0  0
   44.9560   32.3980   47.6400 C   0  0  0  0  0  0  0  0  0  0  0  0
   45.9560   32.0390   48.7050 C   0  0  0  0  0  0  0  0  0  0  0  0
   46.9310   31.2310   47.9320 C   0  0  1  0  0  0  0  0  0  0  0  0
   47.0430   32.0380   46.6180 C   0  0  0  0  0  0  0  0  0  0  0  0
   51.6820   29.9290   50.4060 N   0  0  0  0  0  0  0  0  0  0  0  0
   52.4120   28.9400   49.9550 C   0  0  0  0  0  0  0  0  0  0  0  0
   53.3940   28.6650   50.8310 N   0  0  0  0  0  0  0  0  0  0  0  0
   53.2820   29.5000   51.8610 C   0  0  0  0  0  0  0  0  0  0  0  0
   52.2140   30.2720   51.5730 N   0  0  0  0  0  0  0  0  0  0  0  0
   53.9500   29.7960   53.1380 C   0  0  0  0  0  0  0  0  0  0  0  0
   55.1110   29.2550   53.5580 N   0  0  0  0  0  0  0  0  0  0  0  0
   55.6990   29.5400   54.7230 C   0  0  0  0  0  0  0  0  0  0  0  0
   55.1520   30.4210   55.5900 N   0  0  0  0  0  0  0  0  0  0  0  0
   53.9780   31.0220   55.2550 C   0  0  0  0  0  0  0  0  0  0  0  0
   53.4450   31.9100   56.1470 C   0  0  0  0  0  0  0  0  0  0  0  0
   52.2580   32.5450   55.8550 C   0  0  0  0  0  0  0  0  0  0  0  0
   51.6630   32.2470   54.6600 C   0  0  0  0  0  0  0  0  0  0  0  0
   52.2460   31.3450   53.8020 C   0  0  0  0  0  0  0  0  0  0  0  0
   53.4280   30.6870   54.0480 C   0  0  0  0  0  0  0  0  0  0  0  0
   48.7494   33.2971   49.0499 H   0  0  0  0  0  0  0  0  0  0  0  0
   50.8845   32.6625   50.1503 H   0  0  0  0  0  0  0  0  0  0  0  0
   44.0154   36.7118   45.1772 H   0  0  0  0  0  0  0  0  0  0  0  0
   44.8989   36.3917   42.8377 H   0  0  0  0  0  0  0  0  0  0  0  0
   46.2404   34.2807   42.3326 H   0  0  0  0  0  0  0  0  0  0  0  0
   44.3011   33.2194   47.9663 H   0  0  0  0  0  0  0  0  0  0  0  0
   44.2703   31.5784   47.3790 H   0  0  0  0  0  0  0  0  0  0  0  0
   46.4270   32.9361   49.1332 H   0  0  0  0  0  0  0  0  0  0  0  0
   45.5229   31.5144   49.5694 H   0  0  0  0  0  0  0  0  0  0  0  0
   46.6389   30.1808   47.7846 H   0  0  0  0  0  0  0  0  0  0  0  0
   47.1219   31.3649   45.7515 H   0  0  0  0  0  0  0  0  0  0  0  0
   47.9376   32.6774   46.5894 H   0  0  0  0  0  0  0  0  0  0  0  0
   52.2468   28.4137   49.0033 H   0  0  0  0  0  0  0  0  0  0  0  0
   56.6479   29.0476   54.9822 H   0  0  0  0  0  0  0  0  0  0  0  0
   53.9625   32.1170   57.0954 H   0  0  0  0  0  0  0  0  0  0  0  0
   51.8065   33.2633   56.5551 H   0  0  0  0  0  0  0  0  0  0  0  0
   50.7144   32.7310   54.3845 H   0  0  0  0  0  0  0  0  0  0  0  0
   51.7312   31.1351   52.8528 H   0  0  0  0  0  0  0  0  0  0  0  0
  1  5  1  0
  1  2  2  0
  2  3  1  0
  3  4  2  0
  4 17  1  0
  5  4  1  0
  6 11  2  0
  7  6  1  0
  8  7  2  0
  8  9  1  0
  9 10  2  0
 10 11  1  0
 10 12  1  0
 12 16  1  0
 12 13  1  0
 13 14  1  0
 15  1  1  0
 15 14  1  0
 16 15  1  0
 17 21  1  0
 18 17  1  0
 18 19  2  0
 19 20  1  0
 20 22  1  0
 21 20  2  0
 22 23  2  0
 22 31  1  0
 23 24  1  0
 24 25  2  0
 26 25  1  0
 26 27  2  0
 28 27  1  0
 29 28  2  0
 30 31  2  0
 30 29  1  0
 31 26  1  0
  2 32  1  0
  3 33  1  0
  6 34  1  0
  7 35  1  0
  8 36  1  0
 13 37  1  0
 13 38  1  0
 14 39  1  0
 14 40  1  0
 15 41  1  6
 16 42  1  0
 16 43  1  0
 18 44  1  0
 24 45  1  0
 27 46  1  0
 28 47  1  0
 29 48  1  0
 30 49  1  0
M  END
>  <Score>  (1) 
-7.44381

$$$$
