
     RDKit          3D

 47 52  0  0  0  0  0  0  0  0999 V2000
   44.6630   35.4610   45.2590 C   0  0  0  0  0  0  0  0  0  0  0  0
   44.2200   35.4380   43.9240 C   0  0  0  0  0  0  0  0  0  0  0  0
   44.5850   34.3720   43.1050 C   0  0  0  0  0  0  0  0  0  0  0  0
   45.3550   33.4310   43.6900 N   0  0  0  0  0  0  0  0  0  0  0  0
   45.7730   33.4570   44.9580 C   0  0  0  0  0  0  0  0  0  0  0  0
   45.4070   34.4890   45.7130 N   0  0  0  0  0  0  0  0  0  0  0  0
   46.5660   32.3310   45.0180 C   0  0  0  0  0  0  0  0  0  0  0  0
   47.3240   31.3050   44.9780 N   0  0  0  0  0  0  0  0  0  0  0  0
   48.0170   30.3390   45.0090 C   0  0  0  0  0  0  0  0  0  0  0  0
   47.8570   30.0170   46.2810 N   0  0  0  0  0  0  0  0  0  0  0  0
   47.0270   30.8270   47.0340 C   0  0  0  0  0  0  0  0  0  0  0  0
   46.9040   30.3870   48.3760 C   0  0  0  0  0  0  0  0  0  0  0  0
   46.0840   31.1050   49.1690 C   0  0  0  0  0  0  0  0  0  0  0  0
   45.4000   32.1830   48.7400 C   0  0  0  0  0  0  0  0  0  0  0  0
   45.6170   32.5000   47.4150 C   0  0  0  0  0  0  0  0  0  0  0  0
   46.4140   31.9330   46.3930 C   0  0  0  0  0  0  0  0  0  0  0  0
   44.1520   34.3710   41.7720 N   0  0  0  0  0  0  0  0  0  0  0  0
   42.8980   34.6320   41.4200 C   0  0  0  0  0  0  0  0  0  0  0  0
   42.8450   34.5410   40.0440 C   0  0  0  0  0  0  0  0  0  0  0  0
   44.0990   34.2190   39.5920 N   0  0  0  0  0  0  0  0  0  0  0  0
   44.9090   34.1150   40.6790 C   0  0  0  0  0  0  0  0  0  0  0  0
   46.2970   33.8000   40.7190 N   0  0  0  0  0  0  0  0  0  0  0  0
   41.7870   34.7100   39.0710 C   0  0  0  0  0  0  0  0  0  0  0  0
   41.8080   35.6240   38.0350 C   0  0  0  0  0  0  0  0  0  0  0  0
   40.6900   35.5530   37.2960 N   0  0  0  0  0  0  0  0  0  0  0  0
   39.8820   34.6030   37.7970 C   0  0  0  0  0  0  0  0  0  0  0  0
   38.6390   34.1250   37.4350 C   0  0  0  0  0  0  0  0  0  0  0  0
   38.0210   33.1150   38.1430 C   0  0  0  0  0  0  0  0  0  0  0  0
   38.7080   32.6110   39.2280 C   0  0  0  0  0  0  0  0  0  0  0  0
   39.9470   33.1000   39.5750 C   0  0  0  0  0  0  0  0  0  0  0  0
   40.5730   34.1030   38.8800 C   0  0  0  0  0  0  0  0  0  0  0  0
   44.3833   36.2957   45.9186 H   0  0  0  0  0  0  0  0  0  0  0  0
   43.5929   36.2521   43.5316 H   0  0  0  0  0  0  0  0  0  0  0  0
   48.6116   29.8586   44.2180 H   0  0  0  0  0  0  0  0  0  0  0  0
   47.4483   29.5073   48.7499 H   0  0  0  0  0  0  0  0  0  0  0  0
   45.9677   30.7953   50.2181 H   0  0  0  0  0  0  0  0  0  0  0  0
   44.7265   32.7608   49.3900 H   0  0  0  0  0  0  0  0  0  0  0  0
   45.0493   33.3815   47.0823 H   0  0  0  0  0  0  0  0  0  0  0  0
   42.0635   34.8738   42.0946 H   0  0  0  0  0  0  0  0  0  0  0  0
   46.7891   33.7551   41.6227 H   0  0  0  0  0  0  0  0  0  0  0  0
   46.8090   33.6170   39.8442 H   0  0  0  0  0  0  0  0  0  0  0  0
   42.6361   36.3214   37.8406 H   0  0  0  0  0  0  0  0  0  0  0  0
   40.4832   36.1361   36.4725 H   0  0  0  0  0  0  0  0  0  0  0  0
   38.1294   34.5592   36.5622 H   0  0  0  0  0  0  0  0  0  0  0  0
   37.0307   32.7310   37.8569 H   0  0  0  0  0  0  0  0  0  0  0  0
   38.2580   31.8047   39.8259 H   0  0  0  0  0  0  0  0  0  0  0  0
   40.4575   32.6673   40.4481 H   0  0  0  0  0  0  0  0  0  0  0  0
  1  6  2  0
  2  1  1  0
  3  4  1  0
  3  2  2  0
  4  5  2  0
  5  7  1  0
  5  6  1  0
  7 16  2  0
  8  9  2  0
  8  7  1  0
  9 10  1  0
 10 11  2  0
 11 12  1  0
 12 13  2  0
 14 13  1  0
 15 14  2  0
 16 11  1  0
 16 15  1  0
 17  3  1  0
 18 17  1  0
 19 18  2  0
 20 19  1  0
 20 21  2  0
 21 22  1  0
 21 17  1  0
 23 19  1  0
 24 23  2  0
 25 26  1  0
 25 24  1  0
 26 31  2  0
 27 26  1  0
 27 28  2  0
 28 29  1  0
 29 30  2  0
 31 23  1  0
 31 30  1  0
  1 32  1  0
  2 33  1  0
  9 34  1  0
 12 35  1  0
 13 36  1  0
 14 37  1  0
 15 38  1  0
 18 39  1  0
 22 40  1  0
 22 41  1  0
 24 42  1  0
 25 43  1  0
 27 44  1  0
 28 45  1  0
 29 46  1  0
 30 47  1  0
M  END
>  <Score>  (1) 
-8.22433

$$$$
