
     RDKit          3D

 50 55  0  0  1  0  0  0  0  0999 V2000
   46.8140   34.5770   41.9610 C   0  0  0  0  0  0  0  0  0  0  0  0
   44.4730   35.9540   44.5610 C   0  0  0  0  0  0  0  0  0  0  0  0
   45.1430   35.8030   43.3360 C   0  0  0  0  0  0  0  0  0  0  0  0
   46.0770   34.7770   43.2210 C   0  0  0  0  0  0  0  0  0  0  0  0
   46.2870   33.9870   44.2840 N   0  0  0  0  0  0  0  0  0  0  0  0
   45.6280   34.1520   45.4550 C   0  0  0  0  0  0  0  0  0  0  0  0
   44.7240   35.1280   45.6030 N   0  0  0  0  0  0  0  0  0  0  0  0
   45.9410   33.2400   46.5400 C   0  0  0  0  0  0  0  0  0  0  0  0
   45.0600   33.0350   47.5720 C   0  0  0  0  0  0  0  0  0  0  0  0
   45.5800   32.1340   48.4620 C   0  0  0  0  0  0  0  0  0  0  0  0
   46.7880   31.7950   47.9540 N   0  0  0  0  0  0  0  0  0  0  0  0
   46.9870   32.4540   46.8210 N   0  0  0  0  0  0  0  0  0  0  0  0
   49.0450   29.1400   48.7850 N   0  0  0  0  0  0  0  0  0  0  0  0
   47.9750   29.5900   48.1590 N   0  0  0  0  0  0  0  0  0  0  0  0
   47.7920   30.9080   48.4090 C   0  0  0  0  0  0  0  0  0  0  0  0
   48.8090   31.2870   49.2350 C   0  0  0  0  0  0  0  0  0  0  0  0
   49.5730   30.1690   49.4520 C   0  0  0  0  0  0  0  0  0  0  0  0
   48.0470   35.4610   42.0190 C   0  0  0  0  0  0  0  0  0  0  0  0
   49.3230   34.6960   41.9150 C   0  0  1  0  0  0  0  0  0  0  0  0
   49.4130   33.4350   42.7340 C   0  0  0  0  0  0  0  0  0  0  0  0
   49.5350   33.4550   41.2300 C   0  0  1  0  0  0  0  0  0  0  0  0
   48.9800   32.4910   40.4570 N   0  0  0  0  0  0  0  0  0  0  0  0
   48.7860   31.1660   40.4970 C   0  0  0  0  0  0  0  0  0  0  0  0
   48.2480   30.7800   39.3410 N   0  0  0  0  0  0  0  0  0  0  0  0
   48.0550   31.7830   38.4880 C   0  0  0  0  0  0  0  0  0  0  0  0
   47.5560   31.9130   37.2120 C   0  0  0  0  0  0  0  0  0  0  0  0
   47.5060   33.1120   36.6170 N   0  0  0  0  0  0  0  0  0  0  0  0
   47.9530   34.1850   37.2930 C   0  0  0  0  0  0  0  0  0  0  0  0
   48.4290   34.0480   38.5120 N   0  0  0  0  0  0  0  0  0  0  0  0
   48.5230   32.8720   39.2070 C   0  0  0  0  0  0  0  0  0  0  0  0
   47.0840   30.7960   36.4800 N   0  0  0  0  0  0  0  0  0  0  0  0
   46.1841   34.8638   41.1060 H   0  0  0  0  0  0  0  0  0  0  0  0
   47.0953   33.5210   41.8357 H   0  0  0  0  0  0  0  0  0  0  0  0
   43.7310   36.7580   44.6755 H   0  0  0  0  0  0  0  0  0  0  0  0
   44.9357   36.4764   42.4912 H   0  0  0  0  0  0  0  0  0  0  0  0
   44.0792   33.5233   47.6698 H   0  0  0  0  0  0  0  0  0  0  0  0
   45.1166   31.7654   49.3890 H   0  0  0  0  0  0  0  0  0  0  0  0
   49.4057   28.1755   48.7634 H   0  0  0  0  0  0  0  0  0  0  0  0
   48.9824   32.2923   49.6464 H   0  0  0  0  0  0  0  0  0  0  0  0
   50.4775   30.1267   50.0766 H   0  0  0  0  0  0  0  0  0  0  0  0
   48.0014   36.1798   41.1876 H   0  0  0  0  0  0  0  0  0  0  0  0
   48.0447   35.9619   42.9984 H   0  0  0  0  0  0  0  0  0  0  0  0
   49.8464   35.6573   41.8055 H   0  0  0  0  0  0  0  0  0  0  0  0
   50.2936   33.2392   43.3635 H   0  0  0  0  0  0  0  0  0  0  0  0
   48.7840   32.9202   43.4752 H   0  0  0  0  0  0  0  0  0  0  0  0
   50.1646   33.3160   40.3387 H   0  0  0  0  0  0  0  0  0  0  0  0
   49.0302   30.5068   41.3431 H   0  0  0  0  0  0  0  0  0  0  0  0
   47.9206   35.1802   36.8256 H   0  0  0  0  0  0  0  0  0  0  0  0
   46.7158   30.9234   35.5265 H   0  0  0  0  0  0  0  0  0  0  0  0
   47.1089   29.8564   36.9012 H   0  0  0  0  0  0  0  0  0  0  0  0
  1 18  1  0
  1  4  1  0
  2  7  2  0
  3  2  1  0
  4  3  2  0
  4  5  1  0
  5  6  2  0
  6  7  1  0
  6  8  1  0
  8 12  2  0
  8  9  1  0
  9 10  2  0
 11 15  1  0
 11 10  1  0
 12 11  1  0
 13 17  1  0
 14 15  2  0
 14 13  1  0
 15 16  1  0
 16 17  2  0
 19 18  1  0
 19 20  1  0
 21 19  1  0
 21 20  1  0
 22 23  1  0
 22 21  1  0
 24 23  2  0
 25 30  2  0
 25 24  1  0
 26 25  1  0
 27 26  2  0
 27 28  1  0
 28 29  2  0
 29 30  1  0
 30 22  1  0
 31 26  1  0
  1 32  1  0
  1 33  1  0
  2 34  1  0
  3 35  1  0
  9 36  1  0
 10 37  1  0
 13 38  1  0
 16 39  1  0
 17 40  1  0
 18 41  1  0
 18 42  1  0
 19 43  1  1
 20 44  1  0
 20 45  1  0
 21 46  1  1
 23 47  1  0
 28 48  1  0
 31 49  1  0
 31 50  1  0
M  END
>  <Score>  (1) 
-7.20676

$$$$
