
     RDKit          3D

 46 49  0  0  0  0  0  0  0  0999 V2000
   46.4470   34.6440   42.1890 C   0  0  0  0  0  0  0  0  0  0  0  0
   47.7550   35.0130   42.0440 C   0  0  0  0  0  0  0  0  0  0  0  0
   48.4430   34.8480   40.8380 C   0  0  0  0  0  0  0  0  0  0  0  0
   47.7810   34.2840   39.7310 C   0  0  0  0  0  0  0  0  0  0  0  0
   46.4730   33.9190   39.8870 C   0  0  0  0  0  0  0  0  0  0  0  0
   45.8190   34.0960   41.1000 C   0  0  0  0  0  0  0  0  0  0  0  0
   44.4250   36.0020   45.0560 C   0  0  0  0  0  0  0  0  0  0  0  0
   44.9760   35.9160   43.7770 C   0  0  0  0  0  0  0  0  0  0  0  0
   45.8120   34.8500   43.4750 C   0  0  0  0  0  0  0  0  0  0  0  0
   46.0490   33.9430   44.4480 N   0  0  0  0  0  0  0  0  0  0  0  0
   45.4990   34.0580   45.6760 C   0  0  0  0  0  0  0  0  0  0  0  0
   44.6930   35.0760   45.9820 N   0  0  0  0  0  0  0  0  0  0  0  0
   45.8020   33.0570   46.6400 N   0  0  0  0  0  0  0  0  0  0  0  0
   45.0750   32.8730   47.8490 C   0  0  0  0  0  0  0  0  0  0  0  0
   44.8890   31.4330   48.2470 C   0  0  0  0  0  0  0  0  0  0  0  0
   45.8560   30.5700   47.7970 O   0  0  0  0  0  0  0  0  0  0  0  0
   46.2360   30.7530   46.4880 C   0  0  0  0  0  0  0  0  0  0  0  0
   46.9050   32.1350   46.4490 C   0  0  0  0  0  0  0  0  0  0  0  0
   44.4610   33.7000   41.2080 N   0  0  0  0  0  0  0  0  0  0  0  0
   43.6370   34.6600   40.6810 C   0  0  0  0  0  0  0  0  0  0  0  0
   42.2510   34.4790   40.6810 C   0  0  0  0  0  0  0  0  0  0  0  0
   41.7550   33.3020   41.2320 C   0  0  0  0  0  0  0  0  0  0  0  0
   40.5230   33.0850   41.2610 O   0  0  0  0  0  0  0  0  0  0  0  0
   42.6060   32.3970   41.7340 N   0  0  0  0  0  0  0  0  0  0  0  0
   43.9360   32.5820   41.7270 C   0  0  0  0  0  0  0  0  0  0  0  0
   44.7980   31.7960   42.1720 O   0  0  0  0  0  0  0  0  0  0  0  0
   41.3150   35.4910   40.1210 C   0  0  0  0  0  0  0  0  0  0  0  0
   48.2828   35.4535   42.9027 H   0  0  0  0  0  0  0  0  0  0  0  0
   49.4954   35.1571   40.7547 H   0  0  0  0  0  0  0  0  0  0  0  0
   48.2996   34.1416   38.7714 H   0  0  0  0  0  0  0  0  0  0  0  0
   45.9294   33.4780   39.0385 H   0  0  0  0  0  0  0  0  0  0  0  0
   43.7613   36.8429   45.3056 H   0  0  0  0  0  0  0  0  0  0  0  0
   44.7513   36.6814   43.0196 H   0  0  0  0  0  0  0  0  0  0  0  0
   45.6155   33.3869   48.6576 H   0  0  0  0  0  0  0  0  0  0  0  0
   44.0695   33.2849   47.6778 H   0  0  0  0  0  0  0  0  0  0  0  0
   44.8742   31.3835   49.3458 H   0  0  0  0  0  0  0  0  0  0  0  0
   43.9489   31.1072   47.7780 H   0  0  0  0  0  0  0  0  0  0  0  0
   46.9470   29.9720   46.1805 H   0  0  0  0  0  0  0  0  0  0  0  0
   45.3796   30.6927   45.8003 H   0  0  0  0  0  0  0  0  0  0  0  0
   47.6446   32.2356   47.2570 H   0  0  0  0  0  0  0  0  0  0  0  0
   47.4545   32.3161   45.5135 H   0  0  0  0  0  0  0  0  0  0  0  0
   44.0687   35.5780   40.2557 H   0  0  0  0  0  0  0  0  0  0  0  0
   42.2269   31.5293   42.1393 H   0  0  0  0  0  0  0  0  0  0  0  0
   40.8193   36.0269   40.9438 H   0  0  0  0  0  0  0  0  0  0  0  0
   41.8762   36.2070   39.5026 H   0  0  0  0  0  0  0  0  0  0  0  0
   40.5575   34.9873   39.5026 H   0  0  0  0  0  0  0  0  0  0  0  0
  1  9  1  0
  2  1  2  0
  3  2  1  0
  4  5  1  0
  4  3  2  0
  5  6  2  0
  6 19  1  0
  6  1  1  0
  7 12  2  0
  8  7  1  0
  9  8  2  0
  9 10  1  0
 10 11  2  0
 11 12  1  0
 11 13  1  0
 13 14  1  0
 14 15  1  0
 16 15  1  0
 17 16  1  0
 18 17  1  0
 18 13  1  0
 19 25  1  0
 20 21  2  0
 20 19  1  0
 21 22  1  0
 22 23  2  0
 22 24  1  0
 25 24  1  0
 25 26  2  0
 27 21  1  0
  2 28  1  0
  3 29  1  0
  4 30  1  0
  5 31  1  0
  7 32  1  0
  8 33  1  0
 14 34  1  0
 14 35  1  0
 15 36  1  0
 15 37  1  0
 17 38  1  0
 17 39  1  0
 18 40  1  0
 18 41  1  0
 20 42  1  0
 24 43  1  0
 27 44  1  0
 27 45  1  0
 27 46  1  0
M  END
>  <Score>  (1) 
-7.91559

$$$$
