
     RDKit          3D

 43 47  0  0  0  0  0  0  0  0999 V2000
   44.6590   35.6670   44.9980 C   0  0  0  0  0  0  0  0  0  0  0  0
   44.0490   35.5480   43.7330 C   0  0  0  0  0  0  0  0  0  0  0  0
   44.3030   34.4180   42.9590 C   0  0  0  0  0  0  0  0  0  0  0  0
   45.1360   33.5130   43.5120 N   0  0  0  0  0  0  0  0  0  0  0  0
   45.7140   33.6300   44.7140 C   0  0  0  0  0  0  0  0  0  0  0  0
   45.4520   34.7200   45.4260 N   0  0  0  0  0  0  0  0  0  0  0  0
   46.4940   32.4970   44.7640 C   0  0  0  0  0  0  0  0  0  0  0  0
   47.2410   31.4640   44.7120 N   0  0  0  0  0  0  0  0  0  0  0  0
   47.9240   30.4910   44.7300 C   0  0  0  0  0  0  0  0  0  0  0  0
   47.7900   30.1700   46.0060 N   0  0  0  0  0  0  0  0  0  0  0  0
   46.9830   30.9900   46.7740 C   0  0  0  0  0  0  0  0  0  0  0  0
   46.8850   30.5550   48.1180 C   0  0  0  0  0  0  0  0  0  0  0  0
   46.0920   31.2830   48.9260 C   0  0  0  0  0  0  0  0  0  0  0  0
   45.4150   32.3700   48.5040 C   0  0  0  0  0  0  0  0  0  0  0  0
   45.6000   32.6850   47.1770 C   0  0  0  0  0  0  0  0  0  0  0  0
   46.3670   32.1030   46.1420 C   0  0  0  0  0  0  0  0  0  0  0  0
   43.7000   34.3250   41.6990 N   0  0  0  0  0  0  0  0  0  0  0  0
   42.3780   34.3280   41.5300 C   0  0  0  0  0  0  0  0  0  0  0  0
   42.1880   34.2240   40.1470 C   0  0  0  0  0  0  0  0  0  0  0  0
   43.4140   34.1630   39.5270 N   0  0  0  0  0  0  0  0  0  0  0  0
   44.3370   34.2260   40.5030 C   0  0  0  0  0  0  0  0  0  0  0  0
   45.7560   34.1960   40.3550 N   0  0  0  0  0  0  0  0  0  0  0  0
   40.8600   34.1900   39.5020 C   0  0  0  0  0  0  0  0  0  0  0  0
   40.7220   34.4620   38.1550 C   0  0  0  0  0  0  0  0  0  0  0  0
   39.4670   34.4220   37.5820 C   0  0  0  0  0  0  0  0  0  0  0  0
   38.4100   34.1050   38.4050 C   0  0  0  0  0  0  0  0  0  0  0  0
   38.4780   33.8220   39.7540 C   0  0  0  0  0  0  0  0  0  0  0  0
   39.7700   33.8760   40.2880 C   0  0  0  0  0  0  0  0  0  0  0  0
   44.4687   36.5526   45.6222 H   0  0  0  0  0  0  0  0  0  0  0  0
   43.3802   36.3382   43.3612 H   0  0  0  0  0  0  0  0  0  0  0  0
   48.4958   30.0039   43.9264 H   0  0  0  0  0  0  0  0  0  0  0  0
   47.4276   29.6701   48.4820 H   0  0  0  0  0  0  0  0  0  0  0  0
   45.9917   30.9774   49.9779 H   0  0  0  0  0  0  0  0  0  0  0  0
   44.7656   32.9590   49.1683 H   0  0  0  0  0  0  0  0  0  0  0  0
   45.0347   33.5722   46.8557 H   0  0  0  0  0  0  0  0  0  0  0  0
   41.6040   34.3972   42.3085 H   0  0  0  0  0  0  0  0  0  0  0  0
   46.3618   34.2520   41.1861 H   0  0  0  0  0  0  0  0  0  0  0  0
   46.1744   34.1183   39.4170 H   0  0  0  0  0  0  0  0  0  0  0  0
   41.6036   34.7081   37.5449 H   0  0  0  0  0  0  0  0  0  0  0  0
   39.3177   34.6344   36.5131 H   0  0  0  0  0  0  0  0  0  0  0  0
   37.4128   34.0742   37.9417 H   0  0  0  0  0  0  0  0  0  0  0  0
   37.5922   33.5751   40.3577 H   0  0  0  0  0  0  0  0  0  0  0  0
   39.9202   33.6637   41.3568 H   0  0  0  0  0  0  0  0  0  0  0  0
  1  6  2  0
  2  1  1  0
  3  4  1  0
  3  2  2  0
  4  5  2  0
  5  7  1  0
  5  6  1  0
  7 16  2  0
  8  9  2  0
  8  7  1  0
  9 10  1  0
 10 11  2  0
 11 12  1  0
 12 13  2  0
 14 13  1  0
 15 14  2  0
 16 11  1  0
 16 15  1  0
 17  3  1  0
 18 17  1  0
 19 18  2  0
 20 19  1  0
 20 21  2  0
 21 17  1  0
 22 21  1  0
 23 19  1  0
 23 28  1  0
 24 23  2  0
 25 24  1  0
 25 26  2  0
 26 27  1  0
 27 28  2  0
  1 29  1  0
  2 30  1  0
  9 31  1  0
 12 32  1  0
 13 33  1  0
 14 34  1  0
 15 35  1  0
 18 36  1  0
 22 37  1  0
 22 38  1  0
 24 39  1  0
 25 40  1  0
 26 41  1  0
 27 42  1  0
 28 43  1  0
M  END
>  <Score>  (1) 
-7.58644

$$$$
