
     RDKit          3D

 49 52  0  0  0  0  0  0  0  0999 V2000
   44.4690   35.1390   46.1150 C   0  0  0  0  0  0  0  0  0  0  0  0
   44.7160   35.1490   44.7310 C   0  0  0  0  0  0  0  0  0  0  0  0
   45.4450   34.1000   44.1700 C   0  0  0  0  0  0  0  0  0  0  0  0
   45.8820   33.1120   45.0010 N   0  0  0  0  0  0  0  0  0  0  0  0
   45.6250   33.1380   46.3200 C   0  0  0  0  0  0  0  0  0  0  0  0
   44.9250   34.1390   46.8810 N   0  0  0  0  0  0  0  0  0  0  0  0
   45.6700   34.1480   42.7870 N   0  0  0  0  0  0  0  0  0  0  0  0
   44.8940   34.0190   41.6900 C   0  0  0  0  0  0  0  0  0  0  0  0
   45.6290   34.1550   40.5650 N   0  0  0  0  0  0  0  0  0  0  0  0
   46.9140   34.3770   40.9520 C   0  0  0  0  0  0  0  0  0  0  0  0
   48.0540   34.5810   40.1950 C   0  0  0  0  0  0  0  0  0  0  0  0
   48.0580   34.5890   38.9470 O   0  0  0  0  0  0  0  0  0  0  0  0
   49.2450   34.7850   40.8210 N   0  0  0  0  0  0  0  0  0  0  0  0
   49.2320   34.7750   42.1540 C   0  0  0  0  0  0  0  0  0  0  0  0
   50.4100   34.9750   42.9190 N   0  0  0  0  0  0  0  0  0  0  0  0
   48.1350   34.5790   42.8760 N   0  0  0  0  0  0  0  0  0  0  0  0
   46.9170   34.3690   42.3320 C   0  0  0  0  0  0  0  0  0  0  0  0
   46.0910   32.0740   47.2380 C   0  0  0  0  0  0  0  0  0  0  0  0
   47.2450   32.5520   48.0810 C   0  0  0  0  0  0  0  0  0  0  0  0
   44.9950   31.5630   48.1470 C   0  0  0  0  0  0  0  0  0  0  0  0
   46.5910   30.9440   46.3630 C   0  0  0  0  0  0  0  0  0  0  0  0
   46.1040   29.6440   46.7500 N   0  0  0  0  0  0  0  0  0  0  0  0
   44.9160   29.2940   46.1840 C   0  0  0  0  0  0  0  0  0  0  0  0
   44.2840   28.1060   46.4290 C   0  0  0  0  0  0  0  0  0  0  0  0
   42.9800   27.7450   45.7950 C   0  0  0  0  0  0  0  0  0  0  0  0
   44.8610   27.1930   47.2940 C   0  0  0  0  0  0  0  0  0  0  0  0
   44.3580   26.0660   47.5870 O   0  0  0  0  0  0  0  0  0  0  0  0
   46.0180   27.5720   47.8250 N   0  0  0  0  0  0  0  0  0  0  0  0
   46.6400   28.7400   47.5830 C   0  0  0  0  0  0  0  0  0  0  0  0
   47.7360   29.0840   48.0930 O   0  0  0  0  0  0  0  0  0  0  0  0
   43.8965   35.9592   46.5728 H   0  0  0  0  0  0  0  0  0  0  0  0
   44.3411   35.9695   44.1015 H   0  0  0  0  0  0  0  0  0  0  0  0
   43.8107   33.8290   41.7096 H   0  0  0  0  0  0  0  0  0  0  0  0
   50.1143   34.9396   40.2906 H   0  0  0  0  0  0  0  0  0  0  0  0
   50.3644   34.9611   43.9479 H   0  0  0  0  0  0  0  0  0  0  0  0
   51.3108   35.1341   42.4455 H   0  0  0  0  0  0  0  0  0  0  0  0
   46.9898   32.4463   49.1457 H   0  0  0  0  0  0  0  0  0  0  0  0
   48.1375   31.9495   47.8563 H   0  0  0  0  0  0  0  0  0  0  0  0
   47.4501   33.6091   47.8563 H   0  0  0  0  0  0  0  0  0  0  0  0
   45.2941   31.7025   49.1963 H   0  0  0  0  0  0  0  0  0  0  0  0
   44.0674   32.1215   47.9528 H   0  0  0  0  0  0  0  0  0  0  0  0
   44.8265   30.4935   47.9528 H   0  0  0  0  0  0  0  0  0  0  0  0
   47.6899   30.9300   46.4104 H   0  0  0  0  0  0  0  0  0  0  0  0
   46.2134   31.1363   45.3479 H   0  0  0  0  0  0  0  0  0  0  0  0
   44.4391   30.0046   45.4929 H   0  0  0  0  0  0  0  0  0  0  0  0
   42.2359   27.5390   46.5785 H   0  0  0  0  0  0  0  0  0  0  0  0
   42.6324   28.5807   45.1699 H   0  0  0  0  0  0  0  0  0  0  0  0
   43.1117   26.8495   45.1699 H   0  0  0  0  0  0  0  0  0  0  0  0
   46.4765   26.9180   48.4753 H   0  0  0  0  0  0  0  0  0  0  0  0
  1  6  2  0
  2  1  1  0
  3  2  2  0
  3  4  1  0
  4  5  2  0
  5  6  1  0
  5 18  1  0
  7  3  1  0
  8  7  1  0
  9 10  1  0
  9  8  2  0
 10 17  2  0
 11 13  1  0
 11 10  1  0
 12 11  2  0
 13 14  1  0
 14 16  2  0
 14 15  1  0
 17  7  1  0
 17 16  1  0
 18 19  1  0
 18 20  1  0
 21 22  1  0
 21 18  1  0
 22 29  1  0
 23 24  2  0
 23 22  1  0
 24 26  1  0
 25 24  1  0
 26 27  2  0
 26 28  1  0
 29 28  1  0
 29 30  2  0
  1 31  1  0
  2 32  1  0
  8 33  1  0
 13 34  1  0
 15 35  1  0
 15 36  1  0
 19 37  1  0
 19 38  1  0
 19 39  1  0
 20 40  1  0
 20 41  1  0
 20 42  1  0
 21 43  1  0
 21 44  1  0
 23 45  1  0
 25 46  1  0
 25 47  1  0
 25 48  1  0
 28 49  1  0
M  END
>  <Score>  (1) 
-7.35747

$$$$
