
     RDKit          3D

 48 53  0  0  1  0  0  0  0  0999 V2000
   44.4250   35.9180   44.7250 C   0  0  0  0  0  0  0  0  0  0  0  0
   45.0100   35.7440   43.4680 C   0  0  0  0  0  0  0  0  0  0  0  0
   45.9050   34.6870   43.2940 C   0  0  0  0  0  0  0  0  0  0  0  0
   46.1580   33.8910   44.3390 N   0  0  0  0  0  0  0  0  0  0  0  0
   45.5730   34.0840   45.5530 C   0  0  0  0  0  0  0  0  0  0  0  0
   44.7160   35.0830   45.7510 N   0  0  0  0  0  0  0  0  0  0  0  0
   45.9250   33.1550   46.6170 C   0  0  0  0  0  0  0  0  0  0  0  0
   45.0630   32.9430   47.6670 C   0  0  0  0  0  0  0  0  0  0  0  0
   45.6090   32.0290   48.5420 C   0  0  0  0  0  0  0  0  0  0  0  0
   46.7980   31.7010   48.0060 N   0  0  0  0  0  0  0  0  0  0  0  0
   46.9970   32.3630   46.8620 N   0  0  0  0  0  0  0  0  0  0  0  0
   49.1380   29.0770   48.7430 N   0  0  0  0  0  0  0  0  0  0  0  0
   48.0330   29.5020   48.1280 N   0  0  0  0  0  0  0  0  0  0  0  0
   47.8270   30.8210   48.4190 C   0  0  0  0  0  0  0  0  0  0  0  0
   48.8530   31.2160   49.2510 C   0  0  0  0  0  0  0  0  0  0  0  0
   49.6540   30.1140   49.4360 C   0  0  0  0  0  0  0  0  0  0  0  0
   46.5610   34.4450   41.9890 C   0  0  0  0  0  0  0  0  0  0  0  0
   47.7490   35.3840   41.9000 C   0  0  0  0  0  0  0  0  0  0  0  0
   49.0220   34.7460   41.4670 C   0  0  1  0  0  0  0  0  0  0  0  0
   50.0590   34.5440   42.5690 C   0  0  0  0  0  0  0  0  0  0  0  0
   49.4020   33.3840   41.8550 C   0  0  2  0  0  0  0  0  0  0  0  0
   50.1970   32.5030   41.0580 N   0  0  0  0  0  0  0  0  0  0  0  0
   51.4160   32.0250   41.4190 C   0  0  0  0  0  0  0  0  0  0  0  0
   51.9190   31.2270   40.4770 N   0  0  0  0  0  0  0  0  0  0  0  0
   51.0190   31.1720   39.4750 C   0  0  0  0  0  0  0  0  0  0  0  0
   51.0040   30.5030   38.2510 C   0  0  0  0  0  0  0  0  0  0  0  0
   49.9210   30.6700   37.4650 N   0  0  0  0  0  0  0  0  0  0  0  0
   48.8880   31.4510   37.8440 C   0  0  0  0  0  0  0  0  0  0  0  0
   48.8560   32.1200   39.0220 N   0  0  0  0  0  0  0  0  0  0  0  0
   49.9360   31.9720   39.8350 C   0  0  0  0  0  0  0  0  0  0  0  0
   43.7177   36.7454   44.8836 H   0  0  0  0  0  0  0  0  0  0  0  0
   44.7712   36.4231   42.6363 H   0  0  0  0  0  0  0  0  0  0  0  0
   44.0844   33.4299   47.7901 H   0  0  0  0  0  0  0  0  0  0  0  0
   45.1681   31.6501   49.4758 H   0  0  0  0  0  0  0  0  0  0  0  0
   49.5286   28.1251   48.6971 H   0  0  0  0  0  0  0  0  0  0  0  0
   49.0016   32.2169   49.6824 H   0  0  0  0  0  0  0  0  0  0  0  0
   50.5668   30.0825   50.0490 H   0  0  0  0  0  0  0  0  0  0  0  0
   46.9011   33.4008   41.9266 H   0  0  0  0  0  0  0  0  0  0  0  0
   45.8594   34.6253   41.1612 H   0  0  0  0  0  0  0  0  0  0  0  0
   47.5031   36.1786   41.1802 H   0  0  0  0  0  0  0  0  0  0  0  0
   47.9231   35.7581   42.9197 H   0  0  0  0  0  0  0  0  0  0  0  0
   48.9580   35.2333   40.4829 H   0  0  0  0  0  0  0  0  0  0  0  0
   51.1175   34.7817   42.3871 H   0  0  0  0  0  0  0  0  0  0  0  0
   50.1755   34.8660   43.6144 H   0  0  0  0  0  0  0  0  0  0  0  0
   48.8061   32.5045   42.1402 H   0  0  0  0  0  0  0  0  0  0  0  0
   51.9224   32.2651   42.3655 H   0  0  0  0  0  0  0  0  0  0  0  0
   51.8432   29.8639   37.9390 H   0  0  0  0  0  0  0  0  0  0  0  0
   48.0296   31.5495   37.1632 H   0  0  0  0  0  0  0  0  0  0  0  0
  1  6  2  0
  2  1  1  0
  3  2  2  0
  3  4  1  0
  4  5  2  0
  5  6  1  0
  5  7  1  0
  7 11  2  0
  7  8  1  0
  8  9  2  0
 10 14  1  0
 10  9  1  0
 11 10  1  0
 12 16  1  0
 13 14  2  0
 13 12  1  0
 14 15  1  0
 15 16  2  0
 17  3  1  0
 18 17  1  0
 19 21  1  0
 19 18  1  0
 19 20  1  0
 21 20  1  0
 22 23  1  0
 22 21  1  0
 24 23  2  0
 25 30  2  0
 25 24  1  0
 26 25  1  0
 27 28  1  0
 27 26  2  0
 28 29  2  0
 29 30  1  0
 30 22  1  0
  1 31  1  0
  2 32  1  0
  8 33  1  0
  9 34  1  0
 12 35  1  0
 15 36  1  0
 16 37  1  0
 17 38  1  0
 17 39  1  0
 18 40  1  0
 18 41  1  0
 19 42  1  6
 20 43  1  0
 20 44  1  0
 21 45  1  1
 23 46  1  0
 26 47  1  0
 28 48  1  0
M  END
>  <Score>  (1) 
-7.17277

$$$$
