
     RDKit          3D

 43 46  0  0  0  0  0  0  0  0999 V2000
   46.9710   34.6950   41.6680 C   0  0  0  0  0  0  0  0  0  0  0  0
   48.2730   35.1100   41.4470 C   0  0  0  0  0  0  0  0  0  0  0  0
   48.5250   34.6850   40.1450 C   0  0  0  0  0  0  0  0  0  0  0  0
   47.3950   34.0530   39.6630 C   0  0  0  0  0  0  0  0  0  0  0  0
   46.4710   34.0810   40.6240 O   0  0  0  0  0  0  0  0  0  0  0  0
   44.5440   36.0530   44.1370 C   0  0  0  0  0  0  0  0  0  0  0  0
   45.2800   35.9070   42.9280 C   0  0  0  0  0  0  0  0  0  0  0  0
   46.1970   34.8840   42.8870 C   0  0  0  0  0  0  0  0  0  0  0  0
   46.3480   34.0910   43.9700 N   0  0  0  0  0  0  0  0  0  0  0  0
   45.6220   34.2630   45.1170 C   0  0  0  0  0  0  0  0  0  0  0  0
   44.7250   35.2510   45.1790 N   0  0  0  0  0  0  0  0  0  0  0  0
   45.8090   33.4020   46.2470 N   0  0  0  0  0  0  0  0  0  0  0  0
   46.7770   32.4570   46.0920 C   0  0  0  0  0  0  0  0  0  0  0  0
   46.9520   31.6290   47.1870 C   0  0  0  0  0  0  0  0  0  0  0  0
   48.0030   30.5550   47.0980 C   0  0  0  0  0  0  0  0  0  0  0  0
   46.2430   31.6920   48.3810 C   0  0  0  0  0  0  0  0  0  0  0  0
   46.4840   30.8880   49.3130 O   0  0  0  0  0  0  0  0  0  0  0  0
   45.3180   32.6650   48.4090 N   0  0  0  0  0  0  0  0  0  0  0  0
   45.0950   33.5050   47.3830 C   0  0  0  0  0  0  0  0  0  0  0  0
   44.2220   34.4090   47.4340 O   0  0  0  0  0  0  0  0  0  0  0  0
   47.2240   33.4710   38.3780 N   0  0  0  0  0  0  0  0  0  0  0  0
   46.3840   32.4290   38.2350 C   0  0  0  0  0  0  0  0  0  0  0  0
   46.1940   31.8400   37.0050 C   0  0  0  0  0  0  0  0  0  0  0  0
   46.8820   32.3380   35.9120 C   0  0  0  0  0  0  0  0  0  0  0  0
   46.6820   31.7750   34.8050 O   0  0  0  0  0  0  0  0  0  0  0  0
   47.7030   33.3760   36.1100 N   0  0  0  0  0  0  0  0  0  0  0  0
   47.8810   33.9460   37.3310 C   0  0  0  0  0  0  0  0  0  0  0  0
   48.6700   34.9180   37.4380 O   0  0  0  0  0  0  0  0  0  0  0  0
   45.2340   30.6940   36.9670 C   0  0  0  0  0  0  0  0  0  0  0  0
   48.9454   35.6455   42.1333 H   0  0  0  0  0  0  0  0  0  0  0  0
   49.4657   34.8284   39.5931 H   0  0  0  0  0  0  0  0  0  0  0  0
   43.7989   36.8588   44.2107 H   0  0  0  0  0  0  0  0  0  0  0  0
   45.1232   36.5781   42.0706 H   0  0  0  0  0  0  0  0  0  0  0  0
   47.3714   32.3597   45.1716 H   0  0  0  0  0  0  0  0  0  0  0  0
   48.3019   30.2496   48.1116 H   0  0  0  0  0  0  0  0  0  0  0  0
   47.5956   29.6871   46.5587 H   0  0  0  0  0  0  0  0  0  0  0  0
   48.8795   30.9435   46.5587 H   0  0  0  0  0  0  0  0  0  0  0  0
   44.7495   32.7736   49.2610 H   0  0  0  0  0  0  0  0  0  0  0  0
   45.8427   32.0433   39.1115 H   0  0  0  0  0  0  0  0  0  0  0  0
   48.2204   33.7580   35.3055 H   0  0  0  0  0  0  0  0  0  0  0  0
   44.9817   30.3928   37.9944 H   0  0  0  0  0  0  0  0  0  0  0  0
   44.3186   30.9999   36.4393 H   0  0  0  0  0  0  0  0  0  0  0  0
   45.6956   29.8464   36.4393 H   0  0  0  0  0  0  0  0  0  0  0  0
  1  8  1  0
  2  1  2  0
  3  2  1  0
  4  3  2  0
  4  5  1  0
  5  1  1  0
  6 11  2  0
  7  6  1  0
  8  7  2  0
  8  9  1  0
  9 10  2  0
 10 11  1  0
 10 12  1  0
 12 19  1  0
 13 12  1  0
 13 14  2  0
 14 16  1  0
 15 14  1  0
 16 18  1  0
 16 17  2  0
 19 20  2  0
 19 18  1  0
 21  4  1  0
 22 21  1  0
 23 22  2  0
 24 26  1  0
 24 23  1  0
 25 24  2  0
 26 27  1  0
 27 28  2  0
 27 21  1  0
 29 23  1  0
  2 30  1  0
  3 31  1  0
  6 32  1  0
  7 33  1  0
 13 34  1  0
 15 35  1  0
 15 36  1  0
 15 37  1  0
 18 38  1  0
 22 39  1  0
 26 40  1  0
 29 41  1  0
 29 42  1  0
 29 43  1  0
M  END
>  <Score>  (1) 
-8.23874

$$$$
