
     RDKit          3D

 49 52  0  0  1  0  0  0  0  0999 V2000
   44.1700   34.5600   40.7950 C   0  0  0  0  0  0  0  0  0  0  0  0
   42.8280   34.9000   40.8080 C   0  0  0  0  0  0  0  0  0  0  0  0
   42.0270   34.3240   39.8070 C   0  0  0  0  0  0  0  0  0  0  0  0
   42.6050   33.4740   38.8910 N   0  0  0  0  0  0  0  0  0  0  0  0
   43.9440   33.1770   38.9320 C   0  0  0  0  0  0  0  0  0  0  0  0
   44.7070   33.7300   39.8910 N   0  0  0  0  0  0  0  0  0  0  0  0
   40.5600   34.5920   39.7210 C   0  0  0  0  0  0  0  0  0  0  0  0
   40.1900   34.9660   38.2740 C   0  0  0  0  0  0  0  0  0  0  0  0
   39.3200   33.9610   37.6100 C   0  0  0  0  0  0  0  0  0  0  0  0
   38.0860   33.6130   38.3940 C   0  0  0  0  0  0  0  0  0  0  0  0
   38.2860   33.8150   39.8770 C   0  0  0  0  0  0  0  0  0  0  0  0
   39.7120   33.4660   40.1840 C   0  0  0  0  0  0  0  0  0  0  0  0
   45.0940   35.1360   41.8210 C   0  0  1  0  0  0  0  0  0  0  0  0
   44.3940   35.7990   42.9580 C   0  0  0  0  0  0  0  0  0  0  0  0
   44.8810   35.1110   44.2420 C   0  0  0  0  0  0  0  0  0  0  0  0
   45.2860   33.7770   43.7230 C   0  0  0  0  0  0  0  0  0  0  0  0
   45.9260   34.0090   42.4190 C   0  0  2  0  0  0  0  0  0  0  0  0
   47.3550   34.2780   42.3770 C   0  0  0  0  0  0  0  0  0  0  0  0
   47.9930   35.4130   41.9250 C   0  0  0  0  0  0  0  0  0  0  0  0
   49.3470   35.6370   41.9060 C   0  0  0  0  0  0  0  0  0  0  0  0
   50.1660   34.6370   42.3840 C   0  0  0  0  0  0  0  0  0  0  0  0
   49.6450   33.4540   42.8630 C   0  0  0  0  0  0  0  0  0  0  0  0
   48.2830   33.3280   42.8390 C   0  0  0  0  0  0  0  0  0  0  0  0
   42.4109   35.5844   41.5615 H   0  0  0  0  0  0  0  0  0  0  0  0
   44.3870   32.4959   38.1905 H   0  0  0  0  0  0  0  0  0  0  0  0
   40.3554   35.4278   40.4063 H   0  0  0  0  0  0  0  0  0  0  0  0
   39.6615   35.9306   38.2872 H   0  0  0  0  0  0  0  0  0  0  0  0
   41.1275   35.0141   37.7006 H   0  0  0  0  0  0  0  0  0  0  0  0
   39.0090   34.3625   36.6342 H   0  0  0  0  0  0  0  0  0  0  0  0
   39.9109   33.0379   37.5171 H   0  0  0  0  0  0  0  0  0  0  0  0
   37.2577   34.2532   38.0563 H   0  0  0  0  0  0  0  0  0  0  0  0
   37.8610   32.5501   38.2218 H   0  0  0  0  0  0  0  0  0  0  0  0
   38.0887   34.8636   40.1445 H   0  0  0  0  0  0  0  0  0  0  0  0
   37.5962   33.1815   40.4538 H   0  0  0  0  0  0  0  0  0  0  0  0
   39.9939   32.5428   39.6566 H   0  0  0  0  0  0  0  0  0  0  0  0
   39.8452   33.3010   41.2634 H   0  0  0  0  0  0  0  0  0  0  0  0
   45.6964   35.8935   41.2981 H   0  0  0  0  0  0  0  0  0  0  0  0
   44.6443   36.8698   42.9840 H   0  0  0  0  0  0  0  0  0  0  0  0
   43.3024   35.7120   42.8537 H   0  0  0  0  0  0  0  0  0  0  0  0
   45.7333   35.6456   44.6868 H   0  0  0  0  0  0  0  0  0  0  0  0
   44.1301   35.0727   45.0449 H   0  0  0  0  0  0  0  0  0  0  0  0
   45.9962   33.3004   44.4147 H   0  0  0  0  0  0  0  0  0  0  0  0
   44.4172   33.1094   43.6249 H   0  0  0  0  0  0  0  0  0  0  0  0
   45.9248   33.0683   41.8488 H   0  0  0  0  0  0  0  0  0  0  0  0
   47.3526   36.2206   41.5408 H   0  0  0  0  0  0  0  0  0  0  0  0
   49.7633   36.5805   41.5231 H   0  0  0  0  0  0  0  0  0  0  0  0
   51.2559   34.7856   42.3833 H   0  0  0  0  0  0  0  0  0  0  0  0
   50.2923   32.6511   43.2456 H   0  0  0  0  0  0  0  0  0  0  0  0
   47.8699   32.3831   43.2218 H   0  0  0  0  0  0  0  0  0  0  0  0
  1  2  2  0
  1 13  1  0
  3  2  1  0
  4  5  1  0
  4  3  2  0
  5  6  2  0
  6  1  1  0
  7  3  1  0
  7 12  1  0
  8  7  1  0
  9  8  1  0
  9 10  1  0
 10 11  1  0
 11 12  1  0
 13 17  1  0
 13 14  1  0
 14 15  1  0
 16 15  1  0
 17 16  1  0
 18 17  1  0
 18 23  1  0
 19 18  2  0
 20 19  1  0
 20 21  2  0
 21 22  1  0
 23 22  2  0
  2 24  1  0
  5 25  1  0
  7 26  1  0
  8 27  1  0
  8 28  1  0
  9 29  1  0
  9 30  1  0
 10 31  1  0
 10 32  1  0
 11 33  1  0
 11 34  1  0
 12 35  1  0
 12 36  1  0
 13 37  1  6
 14 38  1  0
 14 39  1  0
 15 40  1  0
 15 41  1  0
 16 42  1  0
 16 43  1  0
 17 44  1  6
 19 45  1  0
 20 46  1  0
 21 47  1  0
 22 48  1  0
 23 49  1  0
M  END
>  <Score>  (1) 
-7.11946

$$$$
