
     RDKit          3D

 44 48  0  0  0  0  0  0  0  0999 V2000
   44.6700   35.5890   44.8840 C   0  0  0  0  0  0  0  0  0  0  0  0
   44.0970   35.4240   43.6160 C   0  0  0  0  0  0  0  0  0  0  0  0
   44.3770   34.2790   42.8960 C   0  0  0  0  0  0  0  0  0  0  0  0
   45.2030   33.3920   43.4980 N   0  0  0  0  0  0  0  0  0  0  0  0
   45.7480   33.5540   44.7080 C   0  0  0  0  0  0  0  0  0  0  0  0
   45.4590   34.6690   45.3730 N   0  0  0  0  0  0  0  0  0  0  0  0
   46.5360   32.4310   44.8190 C   0  0  0  0  0  0  0  0  0  0  0  0
   47.2930   31.4030   44.8220 N   0  0  0  0  0  0  0  0  0  0  0  0
   47.9840   30.4360   44.8950 C   0  0  0  0  0  0  0  0  0  0  0  0
   47.8080   30.1660   46.1730 N   0  0  0  0  0  0  0  0  0  0  0  0
   46.9750   30.9990   46.8990 C   0  0  0  0  0  0  0  0  0  0  0  0
   46.8430   30.6050   48.2420 C   0  0  0  0  0  0  0  0  0  0  0  0
   46.0190   31.3510   49.0050 C   0  0  0  0  0  0  0  0  0  0  0  0
   45.3440   32.4190   48.5310 C   0  0  0  0  0  0  0  0  0  0  0  0
   45.5690   32.6900   47.2000 C   0  0  0  0  0  0  0  0  0  0  0  0
   46.3720   32.0850   46.2040 C   0  0  0  0  0  0  0  0  0  0  0  0
   43.8080   34.1280   41.6160 N   0  0  0  0  0  0  0  0  0  0  0  0
   42.4930   33.9880   41.4200 C   0  0  0  0  0  0  0  0  0  0  0  0
   42.3540   33.8600   40.0470 C   0  0  0  0  0  0  0  0  0  0  0  0
   43.5700   33.9260   39.4410 N   0  0  0  0  0  0  0  0  0  0  0  0
   44.4860   34.0940   40.4340 C   0  0  0  0  0  0  0  0  0  0  0  0
   45.9010   34.2120   40.3200 N   0  0  0  0  0  0  0  0  0  0  0  0
   41.1720   33.6800   39.2690 N   0  0  0  0  0  0  0  0  0  0  0  0
   40.8050   32.4090   39.0160 C   0  0  0  0  0  0  0  0  0  0  0  0
   39.6620   32.2160   38.2630 C   0  0  0  0  0  0  0  0  0  0  0  0
   39.0000   33.3500   37.8390 C   0  0  0  0  0  0  0  0  0  0  0  0
   37.8120   33.3110   37.0570 N   0  0  0  0  0  0  0  0  0  0  0  0
   39.4080   34.6070   38.1190 N   0  0  0  0  0  0  0  0  0  0  0  0
   40.5300   34.7910   38.8570 C   0  0  0  0  0  0  0  0  0  0  0  0
   40.9770   35.9170   39.1620 O   0  0  0  0  0  0  0  0  0  0  0  0
   44.4552   36.4952   45.4694 H   0  0  0  0  0  0  0  0  0  0  0  0
   43.4331   36.1959   43.1996 H   0  0  0  0  0  0  0  0  0  0  0  0
   48.5856   29.9242   44.1294 H   0  0  0  0  0  0  0  0  0  0  0  0
   47.3821   29.7363   48.6478 H   0  0  0  0  0  0  0  0  0  0  0  0
   45.8911   31.0765   50.0625 H   0  0  0  0  0  0  0  0  0  0  0  0
   44.6699   33.0230   49.1561 H   0  0  0  0  0  0  0  0  0  0  0  0
   45.0056   33.5607   46.8333 H   0  0  0  0  0  0  0  0  0  0  0  0
   41.6977   33.9769   42.1799 H   0  0  0  0  0  0  0  0  0  0  0  0
   46.4771   34.3366   41.1647 H   0  0  0  0  0  0  0  0  0  0  0  0
   46.3480   34.1728   39.3929 H   0  0  0  0  0  0  0  0  0  0  0  0
   41.3915   31.5584   39.3936 H   0  0  0  0  0  0  0  0  0  0  0  0
   39.2981   31.2082   38.0141 H   0  0  0  0  0  0  0  0  0  0  0  0
   37.4062   32.4052   36.7817 H   0  0  0  0  0  0  0  0  0  0  0  0
   37.3578   34.1885   36.7662 H   0  0  0  0  0  0  0  0  0  0  0  0
  1  6  2  0
  2  1  1  0
  3  4  1  0
  3  2  2  0
  4  5  2  0
  5  7  1  0
  5  6  1  0
  7  8  2  0
  7 16  1  0
  8  9  1  0
  9 10  2  0
 10 11  1  0
 11 12  1  0
 12 13  2  0
 14 13  1  0
 15 14  2  0
 16 11  2  0
 16 15  1  0
 17  3  1  0
 18 17  1  0
 19 18  2  0
 20 19  1  0
 20 21  2  0
 21 17  1  0
 22 21  1  0
 23 19  1  0
 24 23  1  0
 25 24  2  0
 26 28  2  0
 26 25  1  0
 27 26  1  0
 28 29  1  0
 29 30  2  0
 29 23  1  0
  1 31  1  0
  2 32  1  0
  9 33  1  0
 12 34  1  0
 13 35  1  0
 14 36  1  0
 15 37  1  0
 18 38  1  0
 22 39  1  0
 22 40  1  0
 24 41  1  0
 25 42  1  0
 27 43  1  0
 27 44  1  0
M  END
>  <Score>  (1) 
-7.31701

$$$$
