
     RDKit          3D

 31 33  0  0  0  0  0  0  0  0999 V2000
   44.5460   35.9630   44.6480 C   0  0  0  0  0  0  0  0  0  0  0  0
   45.0600   35.9280   43.3370 C   0  0  0  0  0  0  0  0  0  0  0  0
   45.9090   34.8910   43.0150 C   0  0  0  0  0  0  0  0  0  0  0  0
   46.2010   33.9680   43.9710 N   0  0  0  0  0  0  0  0  0  0  0  0
   45.6810   34.0380   45.2330 C   0  0  0  0  0  0  0  0  0  0  0  0
   44.8500   35.0460   45.5630 N   0  0  0  0  0  0  0  0  0  0  0  0
   46.0060   33.0390   46.2430 C   0  0  0  0  0  0  0  0  0  0  0  0
   45.3750   33.0090   47.4570 C   0  0  0  0  0  0  0  0  0  0  0  0
   45.6390   32.0880   48.4530 C   0  0  0  0  0  0  0  0  0  0  0  0
   46.6140   31.1880   48.1060 C   0  0  0  0  0  0  0  0  0  0  0  0
   47.2920   31.1610   46.8980 C   0  0  0  0  0  0  0  0  0  0  0  0
   46.9400   32.1110   46.0160 N   0  0  0  0  0  0  0  0  0  0  0  0
   44.3710   34.0170   47.6840 N   0  0  0  0  0  0  0  0  0  0  0  0
   46.5340   34.6720   41.7550 N   0  0  0  0  0  0  0  0  0  0  0  0
   47.8120   35.0920   41.5530 C   0  0  0  0  0  0  0  0  0  0  0  0
   48.5000   34.9310   40.3910 C   0  0  0  0  0  0  0  0  0  0  0  0
   47.8660   34.3010   39.3400 C   0  0  0  0  0  0  0  0  0  0  0  0
   48.5260   34.1680   38.2810 O   0  0  0  0  0  0  0  0  0  0  0  0
   46.6020   33.8840   39.5320 N   0  0  0  0  0  0  0  0  0  0  0  0
   45.9710   34.0710   40.7070 C   0  0  0  0  0  0  0  0  0  0  0  0
   44.7890   33.6590   40.8320 O   0  0  0  0  0  0  0  0  0  0  0  0
   43.8659   36.7814   44.9266 H   0  0  0  0  0  0  0  0  0  0  0  0
   44.7941   36.6987   42.5985 H   0  0  0  0  0  0  0  0  0  0  0  0
   45.1209   32.0778   49.4233 H   0  0  0  0  0  0  0  0  0  0  0  0
   46.8803   30.4227   48.8499 H   0  0  0  0  0  0  0  0  0  0  0  0
   48.0664   30.4120   46.6761 H   0  0  0  0  0  0  0  0  0  0  0  0
   43.8622   34.0447   48.5791 H   0  0  0  0  0  0  0  0  0  0  0  0
   44.1620   34.7099   46.9512 H   0  0  0  0  0  0  0  0  0  0  0  0
   48.3237   35.5961   42.3861 H   0  0  0  0  0  0  0  0  0  0  0  0
   49.5339   35.2932   40.2918 H   0  0  0  0  0  0  0  0  0  0  0  0
   46.1055   33.4111   38.7634 H   0  0  0  0  0  0  0  0  0  0  0  0
  1  6  2  0
  2  1  1  0
  3  2  2  0
  3  4  1  0
  4  5  2  0
  5  6  1  0
  5  7  1  0
  7  8  2  0
  8 13  1  0
  8  9  1  0
 10  9  2  0
 11 10  1  0
 12  7  1  0
 12 11  2  0
 14  3  1  0
 15 14  1  0
 16 15  2  0
 17 19  1  0
 17 16  1  0
 18 17  2  0
 19 20  1  0
 20 21  2  0
 20 14  1  0
  1 22  1  0
  2 23  1  0
  9 24  1  0
 10 25  1  0
 11 26  1  0
 13 27  1  0
 13 28  1  0
 15 29  1  0
 16 30  1  0
 19 31  1  0
M  END
>  <Score>  (1) 
-7.24937

$$$$
