
     RDKit          3D

 48 52  0  0  0  0  0  0  0  0999 V2000
   44.4540   35.6580   44.4770 C   0  0  0  0  0  0  0  0  0  0  0  0
   45.1740   35.6660   43.2610 C   0  0  0  0  0  0  0  0  0  0  0  0
   46.2860   34.8300   43.1590 C   0  0  0  0  0  0  0  0  0  0  0  0
   46.6150   34.0590   44.2290 N   0  0  0  0  0  0  0  0  0  0  0  0
   45.8920   34.0820   45.3830 C   0  0  0  0  0  0  0  0  0  0  0  0
   44.8160   34.8760   45.5120 N   0  0  0  0  0  0  0  0  0  0  0  0
   47.0490   34.8050   41.9340 C   0  0  0  0  0  0  0  0  0  0  0  0
   48.2570   35.4930   41.9140 C   0  0  0  0  0  0  0  0  0  0  0  0
   48.9540   35.4490   40.7410 C   0  0  0  0  0  0  0  0  0  0  0  0
   48.4760   34.7690   39.6820 N   0  0  0  0  0  0  0  0  0  0  0  0
   47.2970   34.1130   39.7430 C   0  0  0  0  0  0  0  0  0  0  0  0
   46.5930   34.1410   40.8830 N   0  0  0  0  0  0  0  0  0  0  0  0
   46.8660   33.4160   38.5750 N   0  0  0  0  0  0  0  0  0  0  0  0
   45.9920   32.3920   38.8180 C   0  0  0  0  0  0  0  0  0  0  0  0
   45.5010   31.6340   37.7630 C   0  0  0  0  0  0  0  0  0  0  0  0
   45.9480   31.9890   36.5040 C   0  0  0  0  0  0  0  0  0  0  0  0
   45.4660   31.2630   35.5760 O   0  0  0  0  0  0  0  0  0  0  0  0
   46.7990   32.9850   36.2640 N   0  0  0  0  0  0  0  0  0  0  0  0
   47.2470   33.6880   37.3220 C   0  0  0  0  0  0  0  0  0  0  0  0
   48.0530   34.6420   37.1460 O   0  0  0  0  0  0  0  0  0  0  0  0
   46.3350   33.1880   46.4960 C   0  0  0  0  0  0  0  0  0  0  0  0
   45.8810   31.7570   46.2590 C   0  0  0  0  0  0  0  0  0  0  0  0
   47.0350   30.8700   46.0040 C   0  0  0  0  0  0  0  0  0  0  0  0
   47.4240   30.3060   44.8430 N   0  0  0  0  0  0  0  0  0  0  0  0
   48.4750   29.4920   44.7430 C   0  0  0  0  0  0  0  0  0  0  0  0
   49.2610   29.1420   45.7820 N   0  0  0  0  0  0  0  0  0  0  0  0
   48.9250   29.6760   46.9910 C   0  0  0  0  0  0  0  0  0  0  0  0
   49.7110   29.3500   48.0760 C   0  0  0  0  0  0  0  0  0  0  0  0
   49.4320   29.8650   49.3190 C   0  0  0  0  0  0  0  0  0  0  0  0
   48.3520   30.7170   49.4690 C   0  0  0  0  0  0  0  0  0  0  0  0
   47.5960   31.0090   48.3440 C   0  0  0  0  0  0  0  0  0  0  0  0
   47.8320   30.5210   47.0780 C   0  0  0  0  0  0  0  0  0  0  0  0
   43.5732   36.3087   44.5811 H   0  0  0  0  0  0  0  0  0  0  0  0
   44.8679   36.3097   42.4232 H   0  0  0  0  0  0  0  0  0  0  0  0
   48.6294   36.0409   42.7922 H   0  0  0  0  0  0  0  0  0  0  0  0
   49.9167   35.9749   40.6603 H   0  0  0  0  0  0  0  0  0  0  0  0
   45.6783   32.1691   39.8485 H   0  0  0  0  0  0  0  0  0  0  0  0
   44.7991   30.8017   37.9197 H   0  0  0  0  0  0  0  0  0  0  0  0
   47.1030   33.2092   35.3058 H   0  0  0  0  0  0  0  0  0  0  0  0
   47.4329   33.2110   46.5606 H   0  0  0  0  0  0  0  0  0  0  0  0
   45.8861   33.5472   47.4338 H   0  0  0  0  0  0  0  0  0  0  0  0
   45.3418   31.3988   47.1484 H   0  0  0  0  0  0  0  0  0  0  0  0
   45.2243   31.7396   45.3767 H   0  0  0  0  0  0  0  0  0  0  0  0
   48.7162   29.0802   43.7519 H   0  0  0  0  0  0  0  0  0  0  0  0
   50.5678   28.6726   47.9455 H   0  0  0  0  0  0  0  0  0  0  0  0
   50.0593   29.6033   50.1839 H   0  0  0  0  0  0  0  0  0  0  0  0
   48.1013   31.1487   50.4492 H   0  0  0  0  0  0  0  0  0  0  0  0
   46.7381   31.6853   48.4732 H   0  0  0  0  0  0  0  0  0  0  0  0
  1  6  2  0
  2  1  1  0
  3  2  2  0
  3  4  1  0
  4  5  2  0
  5  6  1  0
  5 21  1  0
  7  3  1  0
  8  7  2  0
  9  8  1  0
 10 11  1  0
 10  9  2  0
 11 12  2  0
 12  7  1  0
 13 14  1  0
 13 11  1  0
 15 14  2  0
 16 15  1  0
 17 16  2  0
 18 16  1  0
 18 19  1  0
 19 13  1  0
 20 19  2  0
 22 21  1  0
 23 22  1  0
 23 32  1  0
 24 23  2  0
 25 24  1  0
 25 26  2  0
 26 27  1  0
 27 32  2  0
 27 28  1  0
 28 29  2  0
 29 30  1  0
 31 30  2  0
 32 31  1  0
  1 33  1  0
  2 34  1  0
  8 35  1  0
  9 36  1  0
 14 37  1  0
 15 38  1  0
 18 39  1  0
 21 40  1  0
 21 41  1  0
 22 42  1  0
 22 43  1  0
 25 44  1  0
 28 45  1  0
 29 46  1  0
 30 47  1  0
 31 48  1  0
M  END
>  <Score>  (1) 
-7.20022

$$$$
