
     RDKit          3D

 35 39  0  0  0  0  0  0  0  0999 V2000
   44.6990   35.5020   45.0250 C   0  0  0  0  0  0  0  0  0  0  0  0
   44.1890   35.4810   43.7120 C   0  0  0  0  0  0  0  0  0  0  0  0
   44.4590   34.3440   42.9310 C   0  0  0  0  0  0  0  0  0  0  0  0
   45.1880   33.3300   43.4670 N   0  0  0  0  0  0  0  0  0  0  0  0
   45.6610   33.3850   44.7290 C   0  0  0  0  0  0  0  0  0  0  0  0
   45.4250   34.4600   45.5140 N   0  0  0  0  0  0  0  0  0  0  0  0
   46.4100   32.2830   45.2000 N   0  0  0  0  0  0  0  0  0  0  0  0
   47.2950   31.5260   44.5340 C   0  0  0  0  0  0  0  0  0  0  0  0
   47.7810   30.5780   45.3610 N   0  0  0  0  0  0  0  0  0  0  0  0
   47.1960   30.7330   46.5780 C   0  0  0  0  0  0  0  0  0  0  0  0
   47.3350   30.0400   47.7650 C   0  0  0  0  0  0  0  0  0  0  0  0
   48.1230   29.0490   47.8810 O   0  0  0  0  0  0  0  0  0  0  0  0
   46.6230   30.3950   48.8750 N   0  0  0  0  0  0  0  0  0  0  0  0
   45.8080   31.4470   48.6950 C   0  0  0  0  0  0  0  0  0  0  0  0
   45.0350   31.8740   49.8090 N   0  0  0  0  0  0  0  0  0  0  0  0
   45.6340   32.1570   47.5650 N   0  0  0  0  0  0  0  0  0  0  0  0
   46.3310   31.8150   46.4660 C   0  0  0  0  0  0  0  0  0  0  0  0
   43.9430   34.3320   41.6140 N   0  0  0  0  0  0  0  0  0  0  0  0
   44.5870   33.8050   40.5340 C   0  0  0  0  0  0  0  0  0  0  0  0
   43.8280   33.9510   39.4070 N   0  0  0  0  0  0  0  0  0  0  0  0
   42.6930   34.5840   39.8190 C   0  0  0  0  0  0  0  0  0  0  0  0
   41.5860   34.9810   39.1030 C   0  0  0  0  0  0  0  0  0  0  0  0
   40.5960   35.5970   39.7810 N   0  0  0  0  0  0  0  0  0  0  0  0
   40.6860   35.8190   41.1220 C   0  0  0  0  0  0  0  0  0  0  0  0
   41.7540   35.4450   41.8540 N   0  0  0  0  0  0  0  0  0  0  0  0
   42.7670   34.8230   41.2040 C   0  0  0  0  0  0  0  0  0  0  0  0
   44.5072   36.3753   45.6657 H   0  0  0  0  0  0  0  0  0  0  0  0
   43.6023   36.3218   43.3134 H   0  0  0  0  0  0  0  0  0  0  0  0
   47.5794   31.6578   43.4796 H   0  0  0  0  0  0  0  0  0  0  0  0
   46.7042   29.8982   49.7736 H   0  0  0  0  0  0  0  0  0  0  0  0
   44.3966   32.6769   49.7155 H   0  0  0  0  0  0  0  0  0  0  0  0
   45.1133   31.3805   50.7097 H   0  0  0  0  0  0  0  0  0  0  0  0
   45.5783   33.3292   40.5654 H   0  0  0  0  0  0  0  0  0  0  0  0
   41.5119   34.8027   38.0201 H   0  0  0  0  0  0  0  0  0  0  0  0
   39.8513   36.3251   41.6291 H   0  0  0  0  0  0  0  0  0  0  0  0
  1  6  2  0
  2  1  1  0
  3  4  1  0
  3  2  2  0
  4  5  2  0
  5  7  1  0
  5  6  1  0
  7 17  1  0
  8  7  1  0
  8  9  2  0
  9 10  1  0
 10 11  1  0
 11 12  2  0
 11 13  1  0
 14 13  1  0
 14 15  1  0
 16 14  2  0
 17 10  2  0
 17 16  1  0
 18  3  1  0
 19 18  1  0
 20 21  1  0
 20 19  2  0
 21 26  2  0
 22 23  2  0
 22 21  1  0
 23 24  1  0
 24 25  2  0
 26 18  1  0
 26 25  1  0
  1 27  1  0
  2 28  1  0
  8 29  1  0
 13 30  1  0
 15 31  1  0
 15 32  1  0
 19 33  1  0
 22 34  1  0
 24 35  1  0
M  END
>  <Score>  (1) 
-7.38086

$$$$
