
     RDKit          3D

 45 49  0  0  1  0  0  0  0  0999 V2000
   46.8970   34.4550   42.4750 N   0  0  0  0  0  0  0  0  0  0  0  0
   48.3410   34.4380   42.5290 C   0  0  0  0  0  0  0  0  0  0  0  0
   48.9150   33.7840   41.3230 C   0  0  0  0  0  0  0  0  0  0  0  0
   48.3390   34.4410   40.1580 N   0  0  0  0  0  0  0  0  0  0  0  0
   46.9950   33.9440   40.0690 C   0  0  0  0  0  0  0  0  0  0  0  0
   46.1490   34.3580   41.2470 C   0  0  1  0  0  0  0  0  0  0  0  0
   44.9740   33.5480   41.3340 N   0  0  0  0  0  0  0  0  0  0  0  0
   44.8570   32.2430   41.6130 C   0  0  0  0  0  0  0  0  0  0  0  0
   43.5620   31.8240   41.6040 N   0  0  0  0  0  0  0  0  0  0  0  0
   42.8000   32.9000   41.3060 C   0  0  0  0  0  0  0  0  0  0  0  0
   41.4550   33.1440   41.1460 C   0  0  0  0  0  0  0  0  0  0  0  0
   41.0130   34.3840   40.8370 N   0  0  0  0  0  0  0  0  0  0  0  0
   41.9150   35.3870   40.6870 C   0  0  0  0  0  0  0  0  0  0  0  0
   43.2360   35.1780   40.8370 N   0  0  0  0  0  0  0  0  0  0  0  0
   43.6810   33.9410   41.1460 C   0  0  0  0  0  0  0  0  0  0  0  0
   44.4980   35.5970   45.1060 C   0  0  0  0  0  0  0  0  0  0  0  0
   45.1880   35.5400   43.8970 C   0  0  0  0  0  0  0  0  0  0  0  0
   46.1600   34.5710   43.6760 C   0  0  0  0  0  0  0  0  0  0  0  0
   46.3640   33.7190   44.7120 N   0  0  0  0  0  0  0  0  0  0  0  0
   45.7060   33.7640   45.8790 C   0  0  0  0  0  0  0  0  0  0  0  0
   44.7780   34.7030   46.0670 N   0  0  0  0  0  0  0  0  0  0  0  0
   45.9860   32.8040   46.9520 C   0  0  0  0  0  0  0  0  0  0  0  0
   45.0460   32.5530   47.9370 C   0  0  0  0  0  0  0  0  0  0  0  0
   45.2290   31.6700   48.9740 C   0  0  0  0  0  0  0  0  0  0  0  0
   46.4490   31.0080   49.0000 C   0  0  0  0  0  0  0  0  0  0  0  0
   47.3990   31.2420   48.0270 C   0  0  0  0  0  0  0  0  0  0  0  0
   47.1930   32.1330   46.9930 C   0  0  0  0  0  0  0  0  0  0  0  0
   48.7104   35.4725   42.5866 H   0  0  0  0  0  0  0  0  0  0  0  0
   48.6504   33.8665   43.4165 H   0  0  0  0  0  0  0  0  0  0  0  0
   50.0090   33.8989   41.3173 H   0  0  0  0  0  0  0  0  0  0  0  0
   48.6848   32.7084   41.3168 H   0  0  0  0  0  0  0  0  0  0  0  0
   48.3381   35.4633   40.2839 H   0  0  0  0  0  0  0  0  0  0  0  0
   46.5345   34.3338   39.1492 H   0  0  0  0  0  0  0  0  0  0  0  0
   47.0439   32.8451   40.0613 H   0  0  0  0  0  0  0  0  0  0  0  0
   45.8053   35.3881   41.0714 H   0  0  0  0  0  0  0  0  0  0  0  0
   45.7117   31.5839   41.8255 H   0  0  0  0  0  0  0  0  0  0  0  0
   40.7333   32.3232   41.2706 H   0  0  0  0  0  0  0  0  0  0  0  0
   41.5572   36.3965   40.4364 H   0  0  0  0  0  0  0  0  0  0  0  0
   43.7307   36.3677   45.2714 H   0  0  0  0  0  0  0  0  0  0  0  0
   44.9608   36.2711   43.1072 H   0  0  0  0  0  0  0  0  0  0  0  0
   44.0905   33.0957   47.8862 H   0  0  0  0  0  0  0  0  0  0  0  0
   44.4557   31.4982   49.7372 H   0  0  0  0  0  0  0  0  0  0  0  0
   46.6607   30.2890   49.8051 H   0  0  0  0  0  0  0  0  0  0  0  0
   48.3545   30.6992   48.0771 H   0  0  0  0  0  0  0  0  0  0  0  0
   47.9641   32.3031   46.2272 H   0  0  0  0  0  0  0  0  0  0  0  0
  1  2  1  0
  1 18  1  0
  3  2  1  0
  4  3  1  0
  5  4  1  0
  5  6  1  0
  6  7  1  0
  6  1  1  0
  7  8  1  0
  9  8  2  0
 10  9  1  0
 11 10  2  0
 12 11  1  0
 13 14  1  0
 13 12  2  0
 14 15  2  0
 15 10  1  0
 15  7  1  0
 16 21  2  0
 17 16  1  0
 18 17  2  0
 18 19  1  0
 19 20  2  0
 20 21  1  0
 20 22  1  0
 22 27  1  0
 22 23  2  0
 23 24  1  0
 24 25  2  0
 26 25  1  0
 27 26  2  0
  2 28  1  0
  2 29  1  0
  3 30  1  0
  3 31  1  0
  4 32  1  0
  5 33  1  0
  5 34  1  0
  6 35  1  6
  8 36  1  0
 11 37  1  0
 13 38  1  0
 16 39  1  0
 17 40  1  0
 23 41  1  0
 24 42  1  0
 25 43  1  0
 26 44  1  0
 27 45  1  0
M  END
>  <Score>  (1) 
-7.30132

$$$$
