
     RDKit          3D

 35 38  0  0  0  0  0  0  0  0999 V2000
   44.5130   35.7180   44.9470 C   0  0  0  0  0  0  0  0  0  0  0  0
   45.1370   35.7940   43.6820 C   0  0  0  0  0  0  0  0  0  0  0  0
   46.0640   34.8200   43.3800 C   0  0  0  0  0  0  0  0  0  0  0  0
   46.2780   33.8990   44.3190 N   0  0  0  0  0  0  0  0  0  0  0  0
   45.7170   33.7880   45.5180 C   0  0  0  0  0  0  0  0  0  0  0  0
   44.8070   34.7440   45.8180 N   0  0  0  0  0  0  0  0  0  0  0  0
   46.7900   34.7330   42.1610 N   0  0  0  0  0  0  0  0  0  0  0  0
   47.9980   35.3400   42.0210 C   0  0  0  0  0  0  0  0  0  0  0  0
   48.6550   35.2420   40.8070 C   0  0  0  0  0  0  0  0  0  0  0  0
   48.0430   34.5320   39.8050 C   0  0  0  0  0  0  0  0  0  0  0  0
   48.6110   34.3880   38.5200 N   0  0  0  0  0  0  0  0  0  0  0  0
   46.8440   33.9330   39.9570 N   0  0  0  0  0  0  0  0  0  0  0  0
   46.1850   34.0230   41.1580 C   0  0  0  0  0  0  0  0  0  0  0  0
   45.0600   33.4740   41.3360 O   0  0  0  0  0  0  0  0  0  0  0  0
   45.9140   32.8130   46.5710 C   0  0  0  0  0  0  0  0  0  0  0  0
   45.3820   32.9650   47.7880 N   0  0  0  0  0  0  0  0  0  0  0  0
   45.5130   32.1180   48.8110 C   0  0  0  0  0  0  0  0  0  0  0  0
   46.2300   30.9900   48.6740 N   0  0  0  0  0  0  0  0  0  0  0  0
   46.8210   30.7240   47.4760 C   0  0  0  0  0  0  0  0  0  0  0  0
   47.5470   29.5830   47.3380 C   0  0  0  0  0  0  0  0  0  0  0  0
   48.1570   29.2880   46.1380 C   0  0  0  0  0  0  0  0  0  0  0  0
   47.9960   30.1990   45.0910 C   0  0  0  0  0  0  0  0  0  0  0  0
   47.2510   31.3290   45.3040 C   0  0  0  0  0  0  0  0  0  0  0  0
   46.6280   31.6570   46.4850 C   0  0  0  0  0  0  0  0  0  0  0  0
   43.7671   36.4777   45.2236 H   0  0  0  0  0  0  0  0  0  0  0  0
   44.8936   36.5956   42.9691 H   0  0  0  0  0  0  0  0  0  0  0  0
   48.4449   35.8985   42.8567 H   0  0  0  0  0  0  0  0  0  0  0  0
   49.6347   35.7172   40.6506 H   0  0  0  0  0  0  0  0  0  0  0  0
   49.5260   34.8123   38.3109 H   0  0  0  0  0  0  0  0  0  0  0  0
   48.1103   33.8587   37.7920 H   0  0  0  0  0  0  0  0  0  0  0  0
   45.0306   32.3450   49.7731 H   0  0  0  0  0  0  0  0  0  0  0  0
   47.6480   28.8921   48.1880 H   0  0  0  0  0  0  0  0  0  0  0  0
   48.7486   28.3696   46.0093 H   0  0  0  0  0  0  0  0  0  0  0  0
   48.4600   30.0120   44.1113 H   0  0  0  0  0  0  0  0  0  0  0  0
   47.1427   32.0297   44.4630 H   0  0  0  0  0  0  0  0  0  0  0  0
  1  6  2  0
  2  1  1  0
  3  2  2  0
  3  4  1  0
  4  5  2  0
  5  6  1  0
  5 15  1  0
  7  3  1  0
  8  7  1  0
  9  8  2  0
 10 12  2  0
 10  9  1  0
 11 10  1  0
 12 13  1  0
 13 14  2  0
 13  7  1  0
 15 16  2  0
 16 17  1  0
 18 17  2  0
 19 18  1  0
 20 19  2  0
 21 20  1  0
 22 23  1  0
 22 21  2  0
 23 24  2  0
 24 15  1  0
 24 19  1  0
  1 25  1  0
  2 26  1  0
  8 27  1  0
  9 28  1  0
 11 29  1  0
 11 30  1  0
 17 31  1  0
 20 32  1  0
 21 33  1  0
 22 34  1  0
 23 35  1  0
M  END
>  <Score>  (1) 
-7.19444

$$$$
