
     RDKit          3D

 38 41  0  0  0  0  0  0  0  0999 V2000
   46.6180   34.6410   42.1490 C   0  0  0  0  0  0  0  0  0  0  0  0
   47.7870   35.3260   41.9450 C   0  0  0  0  0  0  0  0  0  0  0  0
   48.5310   35.1960   40.7620 C   0  0  0  0  0  0  0  0  0  0  0  0
   48.0540   34.3420   39.7680 C   0  0  0  0  0  0  0  0  0  0  0  0
   46.8650   33.6430   39.9660 C   0  0  0  0  0  0  0  0  0  0  0  0
   46.1810   33.8140   41.1530 C   0  0  0  0  0  0  0  0  0  0  0  0
   44.9650   33.0860   41.3320 N   0  0  0  0  0  0  0  0  0  0  0  0
   44.8020   31.8800   41.9220 C   0  0  0  0  0  0  0  0  0  0  0  0
   43.5630   31.3250   42.0110 C   0  0  0  0  0  0  0  0  0  0  0  0
   42.4520   31.9550   41.5140 C   0  0  0  0  0  0  0  0  0  0  0  0
   41.3180   31.4090   41.6150 O   0  0  0  0  0  0  0  0  0  0  0  0
   42.6400   33.1690   40.9240 N   0  0  0  0  0  0  0  0  0  0  0  0
   43.8600   33.7150   40.8370 C   0  0  0  0  0  0  0  0  0  0  0  0
   43.8940   34.8520   40.2620 O   0  0  0  0  0  0  0  0  0  0  0  0
   41.4750   33.8330   40.4020 C   0  0  0  0  0  0  0  0  0  0  0  0
   40.6650   34.7540   41.0520 C   0  0  0  0  0  0  0  0  0  0  0  0
   39.5920   35.2660   40.3510 C   0  0  0  0  0  0  0  0  0  0  0  0
   39.3610   34.8620   39.0730 N   0  0  0  0  0  0  0  0  0  0  0  0
   40.1500   33.9700   38.4500 C   0  0  0  0  0  0  0  0  0  0  0  0
   41.1990   33.4690   39.1340 N   0  0  0  0  0  0  0  0  0  0  0  0
   44.4310   35.9630   44.9190 C   0  0  0  0  0  0  0  0  0  0  0  0
   45.0440   35.8680   43.6760 C   0  0  0  0  0  0  0  0  0  0  0  0
   45.9240   34.8400   43.4020 C   0  0  0  0  0  0  0  0  0  0  0  0
   46.1650   33.9250   44.3970 N   0  0  0  0  0  0  0  0  0  0  0  0
   45.5570   34.0290   45.6130 C   0  0  0  0  0  0  0  0  0  0  0  0
   44.7050   35.0290   45.8720 N   0  0  0  0  0  0  0  0  0  0  0  0
   48.1541   35.9993   42.7336 H   0  0  0  0  0  0  0  0  0  0  0  0
   49.4683   35.7546   40.6222 H   0  0  0  0  0  0  0  0  0  0  0  0
   48.6152   34.2205   38.8297 H   0  0  0  0  0  0  0  0  0  0  0  0
   46.4779   32.9665   39.1898 H   0  0  0  0  0  0  0  0  0  0  0  0
   45.6729   31.3467   42.3308 H   0  0  0  0  0  0  0  0  0  0  0  0
   43.4499   30.3438   42.4951 H   0  0  0  0  0  0  0  0  0  0  0  0
   40.8706   35.0642   42.0871 H   0  0  0  0  0  0  0  0  0  0  0  0
   38.9242   36.0001   40.8255 H   0  0  0  0  0  0  0  0  0  0  0  0
   39.9467   33.6583   37.4149 H   0  0  0  0  0  0  0  0  0  0  0  0
   43.7311   36.7845   45.1316 H   0  0  0  0  0  0  0  0  0  0  0  0
   44.8262   36.6191   42.9025 H   0  0  0  0  0  0  0  0  0  0  0  0
   45.7692   33.2815   46.3916 H   0  0  0  0  0  0  0  0  0  0  0  0
  1 23  1  0
  2  1  2  0
  3  2  1  0
  4  5  1  0
  4  3  2  0
  5  6  2  0
  6  7  1  0
  6  1  1  0
  7  8  1  0
  8  9  2  0
 10 11  2  0
 10  9  1  0
 12 10  1  0
 13 12  1  0
 13  7  1  0
 14 13  2  0
 15 12  1  0
 15 16  2  0
 17 16  1  0
 18 17  2  0
 19 18  1  0
 19 20  2  0
 20 15  1  0
 21 26  2  0
 22 21  1  0
 23 22  2  0
 23 24  1  0
 24 25  2  0
 25 26  1  0
  2 27  1  0
  3 28  1  0
  4 29  1  0
  5 30  1  0
  8 31  1  0
  9 32  1  0
 16 33  1  0
 17 34  1  0
 19 35  1  0
 21 36  1  0
 22 37  1  0
 25 38  1  0
M  END
>  <Score>  (1) 
-7.02146

$$$$
