
     RDKit          3D

 41 45  0  0  0  0  0  0  0  0999 V2000
   44.4170   36.0530   44.8650 C   0  0  0  0  0  0  0  0  0  0  0  0
   45.0660   36.0190   43.6160 C   0  0  0  0  0  0  0  0  0  0  0  0
   45.9170   34.9780   43.3700 C   0  0  0  0  0  0  0  0  0  0  0  0
   46.0570   34.0820   44.3420 N   0  0  0  0  0  0  0  0  0  0  0  0
   45.4620   34.0820   45.5300 C   0  0  0  0  0  0  0  0  0  0  0  0
   44.6340   35.0860   45.7840 N   0  0  0  0  0  0  0  0  0  0  0  0
   46.6770   34.7820   42.1320 C   0  0  0  0  0  0  0  0  0  0  0  0
   47.9530   35.2690   41.9430 C   0  0  0  0  0  0  0  0  0  0  0  0
   48.6840   35.0900   40.7910 C   0  0  0  0  0  0  0  0  0  0  0  0
   48.1110   34.3950   39.7880 N   0  0  0  0  0  0  0  0  0  0  0  0
   46.8790   33.9140   39.9480 C   0  0  0  0  0  0  0  0  0  0  0  0
   46.1710   34.0930   41.0790 N   0  0  0  0  0  0  0  0  0  0  0  0
   46.3280   33.1930   38.8650 N   0  0  0  0  0  0  0  0  0  0  0  0
   45.3310   32.3280   38.7230 N   0  0  0  0  0  0  0  0  0  0  0  0
   45.2210   31.9290   37.4590 C   0  0  0  0  0  0  0  0  0  0  0  0
   46.2260   32.5900   36.7350 C   0  0  0  0  0  0  0  0  0  0  0  0
   46.8950   33.3700   37.6490 C   0  0  0  0  0  0  0  0  0  0  0  0
   45.8400   32.9430   46.3640 C   0  0  0  0  0  0  0  0  0  0  0  0
   45.4080   32.8290   47.6680 C   0  0  0  0  0  0  0  0  0  0  0  0
   45.7260   31.7840   48.5050 C   0  0  0  0  0  0  0  0  0  0  0  0
   46.5270   30.7660   48.0570 C   0  0  0  0  0  0  0  0  0  0  0  0
   46.9860   30.8280   46.7690 C   0  0  0  0  0  0  0  0  0  0  0  0
   47.7900   29.8040   46.3220 C   0  0  0  0  0  0  0  0  0  0  0  0
   48.2930   29.7930   45.0360 C   0  0  0  0  0  0  0  0  0  0  0  0
   47.9410   30.8760   44.2210 C   0  0  0  0  0  0  0  0  0  0  0  0
   47.1350   31.8770   44.7120 C   0  0  0  0  0  0  0  0  0  0  0  0
   46.6350   31.8940   45.9790 C   0  0  0  0  0  0  0  0  0  0  0  0
   43.7251   36.8764   45.0956 H   0  0  0  0  0  0  0  0  0  0  0  0
   44.8941   36.8032   42.8640 H   0  0  0  0  0  0  0  0  0  0  0  0
   48.4155   35.8360   42.7644 H   0  0  0  0  0  0  0  0  0  0  0  0
   49.7001   35.4996   40.6920 H   0  0  0  0  0  0  0  0  0  0  0  0
   44.4841   31.2177   37.0579 H   0  0  0  0  0  0  0  0  0  0  0  0
   46.4352   32.5021   35.6587 H   0  0  0  0  0  0  0  0  0  0  0  0
   47.7485   34.0279   37.4285 H   0  0  0  0  0  0  0  0  0  0  0  0
   44.7653   33.6277   48.0667 H   0  0  0  0  0  0  0  0  0  0  0  0
   45.3373   31.7657   49.5339 H   0  0  0  0  0  0  0  0  0  0  0  0
   46.7931   29.9241   48.7131 H   0  0  0  0  0  0  0  0  0  0  0  0
   48.0371   28.9768   47.0037 H   0  0  0  0  0  0  0  0  0  0  0  0
   48.9353   28.9778   44.6716 H   0  0  0  0  0  0  0  0  0  0  0  0
   48.3098   30.9265   43.1859 H   0  0  0  0  0  0  0  0  0  0  0  0
   46.8796   32.7118   44.0428 H   0  0  0  0  0  0  0  0  0  0  0  0
  1  6  2  0
  2  1  1  0
  3  2  2  0
  3  4  1  0
  4  5  2  0
  5  6  1  0
  5 18  1  0
  7  3  1  0
  8  7  2  0
  9  8  1  0
 10 11  1  0
 10  9  2  0
 11 12  2  0
 12  7  1  0
 13 11  1  0
 14 13  1  0
 15 14  2  0
 16 15  1  0
 16 17  2  0
 17 13  1  0
 18 19  2  0
 19 20  1  0
 21 20  2  0
 22 21  1  0
 23 22  2  0
 24 23  1  0
 25 26  1  0
 25 24  2  0
 26 27  2  0
 27 18  1  0
 27 22  1  0
  1 28  1  0
  2 29  1  0
  8 30  1  0
  9 31  1  0
 15 32  1  0
 16 33  1  0
 17 34  1  0
 19 35  1  0
 20 36  1  0
 21 37  1  0
 23 38  1  0
 24 39  1  0
 25 40  1  0
 26 41  1  0
M  END
>  <Score>  (1) 
-7.38944

$$$$
