
     RDKit          3D

 48 51  0  0  1  0  0  0  0  0999 V2000
   46.4630   33.8390   42.3360 N   0  0  0  0  0  0  0  0  0  0  0  0
   47.7720   34.1730   41.7850 C   0  0  0  0  0  0  0  0  0  0  0  0
   47.3830   34.4610   40.3470 C   0  0  0  0  0  0  0  0  0  0  0  0
   46.5610   33.2370   40.0410 C   0  0  0  0  0  0  0  0  0  0  0  0
   45.7870   33.0370   41.3040 C   0  0  2  0  0  0  0  0  0  0  0  0
   44.5930   35.5660   45.0370 C   0  0  0  0  0  0  0  0  0  0  0  0
   45.1090   35.3030   43.7560 C   0  0  0  0  0  0  0  0  0  0  0  0
   45.9080   34.1770   43.5730 C   0  0  0  0  0  0  0  0  0  0  0  0
   46.1360   33.3960   44.6720 N   0  0  0  0  0  0  0  0  0  0  0  0
   45.6350   33.6610   45.8880 C   0  0  0  0  0  0  0  0  0  0  0  0
   44.8680   34.7400   46.0680 N   0  0  0  0  0  0  0  0  0  0  0  0
   45.9520   32.7620   46.9470 N   0  0  0  0  0  0  0  0  0  0  0  0
   47.2180   32.0530   46.9090 C   0  0  0  0  0  0  0  0  0  0  0  0
   47.6510   32.0160   48.3820 C   0  0  0  0  0  0  0  0  0  0  0  0
   46.7290   31.2540   49.0360 O   0  0  0  0  0  0  0  0  0  0  0  0
   45.4840   31.8220   49.1760 C   0  0  0  0  0  0  0  0  0  0  0  0
   44.9920   32.6040   48.0080 C   0  0  0  0  0  0  0  0  0  0  0  0
   44.3900   33.2460   41.2300 N   0  0  0  0  0  0  0  0  0  0  0  0
   43.7400   34.2040   40.5580 C   0  0  0  0  0  0  0  0  0  0  0  0
   42.3610   34.3170   40.5540 C   0  0  0  0  0  0  0  0  0  0  0  0
   41.5970   33.4080   41.2720 C   0  0  0  0  0  0  0  0  0  0  0  0
   40.3180   33.4650   41.3030 O   0  0  0  0  0  0  0  0  0  0  0  0
   42.2540   32.4550   41.9380 N   0  0  0  0  0  0  0  0  0  0  0  0
   43.5780   32.3870   41.9120 C   0  0  0  0  0  0  0  0  0  0  0  0
   44.0990   31.4400   42.5820 O   0  0  0  0  0  0  0  0  0  0  0  0
   41.6760   35.3890   39.8000 C   0  0  0  0  0  0  0  0  0  0  0  0
   48.2086   35.0557   42.2750 H   0  0  0  0  0  0  0  0  0  0  0  0
   48.5412   33.3969   41.9117 H   0  0  0  0  0  0  0  0  0  0  0  0
   46.7880   35.3824   40.2630 H   0  0  0  0  0  0  0  0  0  0  0  0
   48.2299   34.6293   39.6655 H   0  0  0  0  0  0  0  0  0  0  0  0
   45.8894   33.4133   39.1879 H   0  0  0  0  0  0  0  0  0  0  0  0
   47.1670   32.3639   39.7574 H   0  0  0  0  0  0  0  0  0  0  0  0
   45.8005   31.9667   41.5577 H   0  0  0  0  0  0  0  0  0  0  0  0
   43.9607   36.4512   45.2000 H   0  0  0  0  0  0  0  0  0  0  0  0
   44.8858   35.9743   42.9136 H   0  0  0  0  0  0  0  0  0  0  0  0
   47.0874   31.0356   46.5117 H   0  0  0  0  0  0  0  0  0  0  0  0
   47.9602   32.5351   46.2557 H   0  0  0  0  0  0  0  0  0  0  0  0
   48.6504   31.5656   48.4734 H   0  0  0  0  0  0  0  0  0  0  0  0
   47.7044   33.0291   48.8072 H   0  0  0  0  0  0  0  0  0  0  0  0
   44.7638   31.0129   49.3677 H   0  0  0  0  0  0  0  0  0  0  0  0
   45.5767   32.5441   50.0006 H   0  0  0  0  0  0  0  0  0  0  0  0
   44.7034   33.6048   48.3618 H   0  0  0  0  0  0  0  0  0  0  0  0
   44.1495   32.0372   47.5851 H   0  0  0  0  0  0  0  0  0  0  0  0
   44.3286   34.9342   39.9832 H   0  0  0  0  0  0  0  0  0  0  0  0
   41.7226   31.7601   42.4818 H   0  0  0  0  0  0  0  0  0  0  0  0
   41.2214   36.1004   40.5052 H   0  0  0  0  0  0  0  0  0  0  0  0
   42.4053   35.9156   39.1670 H   0  0  0  0  0  0  0  0  0  0  0  0
   40.8917   34.9484   39.1670 H   0  0  0  0  0  0  0  0  0  0  0  0
  1  8  1  0
  2  1  1  0
  3  2  1  0
  4  3  1  0
  4  5  1  0
  5  1  1  0
  6 11  2  0
  7  6  1  0
  8  7  2  0
  8  9  1  0
  9 10  2  0
 10 11  1  0
 10 12  1  0
 12 17  1  0
 13 12  1  0
 13 14  1  0
 14 15  1  0
 15 16  1  0
 17 16  1  0
 18  5  1  0
 18 24  1  0
 19 18  1  0
 20 19  2  0
 20 21  1  0
 21 22  2  0
 21 23  1  0
 24 23  1  0
 24 25  2  0
 26 20  1  0
  2 27  1  0
  2 28  1  0
  3 29  1  0
  3 30  1  0
  4 31  1  0
  4 32  1  0
  5 33  1  1
  6 34  1  0
  7 35  1  0
 13 36  1  0
 13 37  1  0
 14 38  1  0
 14 39  1  0
 16 40  1  0
 16 41  1  0
 17 42  1  0
 17 43  1  0
 19 44  1  0
 23 45  1  0
 26 46  1  0
 26 47  1  0
 26 48  1  0
M  END
>  <Score>  (1) 
-7.03927

$$$$
