
     RDKit          3D

 34 37  0  0  0  0  0  0  0  0999 V2000
   44.4350   36.0190   44.7610 C   0  0  0  0  0  0  0  0  0  0  0  0
   45.0970   35.9990   43.5270 C   0  0  0  0  0  0  0  0  0  0  0  0
   45.9910   34.9680   43.2820 C   0  0  0  0  0  0  0  0  0  0  0  0
   46.1770   34.0310   44.2540 N   0  0  0  0  0  0  0  0  0  0  0  0
   45.5230   34.0790   45.4320 C   0  0  0  0  0  0  0  0  0  0  0  0
   44.6520   35.0760   45.6820 N   0  0  0  0  0  0  0  0  0  0  0  0
   45.8510   33.0030   46.3270 N   0  0  0  0  0  0  0  0  0  0  0  0
   45.4750   32.8890   47.6150 C   0  0  0  0  0  0  0  0  0  0  0  0
   45.9960   31.7270   48.1000 N   0  0  0  0  0  0  0  0  0  0  0  0
   46.6750   31.1520   47.1170 C   0  0  0  0  0  0  0  0  0  0  0  0
   47.4120   29.9950   46.9700 C   0  0  0  0  0  0  0  0  0  0  0  0
   48.0300   29.6170   45.8270 N   0  0  0  0  0  0  0  0  0  0  0  0
   47.9320   30.4210   44.7300 C   0  0  0  0  0  0  0  0  0  0  0  0
   47.2200   31.5580   44.8410 N   0  0  0  0  0  0  0  0  0  0  0  0
   46.6100   31.9270   45.9740 C   0  0  0  0  0  0  0  0  0  0  0  0
   46.7390   34.8180   42.0700 N   0  0  0  0  0  0  0  0  0  0  0  0
   47.9940   35.3530   41.9720 C   0  0  0  0  0  0  0  0  0  0  0  0
   48.6780   35.1810   40.7750 C   0  0  0  0  0  0  0  0  0  0  0  0
   48.0490   34.4820   39.7680 C   0  0  0  0  0  0  0  0  0  0  0  0
   48.6620   34.2530   38.5110 N   0  0  0  0  0  0  0  0  0  0  0  0
   46.8070   33.9710   39.9080 N   0  0  0  0  0  0  0  0  0  0  0  0
   46.1280   34.1350   41.0780 C   0  0  0  0  0  0  0  0  0  0  0  0
   44.9640   33.6650   41.2340 O   0  0  0  0  0  0  0  0  0  0  0  0
   47.5470   29.1190   48.0830 N   0  0  0  0  0  0  0  0  0  0  0  0
   43.7215   36.8280   44.9763 H   0  0  0  0  0  0  0  0  0  0  0  0
   44.9129   36.7791   42.7736 H   0  0  0  0  0  0  0  0  0  0  0  0
   44.8574   33.6061   48.1757 H   0  0  0  0  0  0  0  0  0  0  0  0
   48.4202   30.1486   43.7827 H   0  0  0  0  0  0  0  0  0  0  0  0
   48.4462   35.9006   42.8120 H   0  0  0  0  0  0  0  0  0  0  0  0
   49.6896   35.5899   40.6357 H   0  0  0  0  0  0  0  0  0  0  0  0
   49.6098   34.6118   38.3273 H   0  0  0  0  0  0  0  0  0  0  0  0
   48.1597   33.7277   37.7811 H   0  0  0  0  0  0  0  0  0  0  0  0
   48.0935   28.2507   47.9917 H   0  0  0  0  0  0  0  0  0  0  0  0
   47.0982   29.3531   48.9800 H   0  0  0  0  0  0  0  0  0  0  0  0
  1  6  2  0
  2  1  1  0
  3  2  2  0
  3  4  1  0
  4  5  2  0
  5  6  1  0
  5  7  1  0
  7  8  1  0
  8  9  2  0
 10  9  1  0
 11 10  2  0
 11 24  1  0
 12 11  1  0
 13 14  1  0
 13 12  2  0
 14 15  2  0
 15  7  1  0
 15 10  1  0
 16  3  1  0
 17 16  1  0
 18 17  2  0
 19 21  2  0
 19 18  1  0
 20 19  1  0
 21 22  1  0
 22 23  2  0
 22 16  1  0
  1 25  1  0
  2 26  1  0
  8 27  1  0
 13 28  1  0
 17 29  1  0
 18 30  1  0
 20 31  1  0
 20 32  1  0
 24 33  1  0
 24 34  1  0
M  END
>  <Score>  (1) 
-7.41963

$$$$
