
     RDKit          3D

 54 59  0  0  0  0  0  0  0  0999 V2000
   47.6110   33.6360   38.8430 C   0  0  0  0  0  0  0  0  0  0  0  0
   45.1570   33.8310   41.5830 C   0  0  0  0  0  0  0  0  0  0  0  0
   44.0560   33.3960   40.9040 C   0  0  0  0  0  0  0  0  0  0  0  0
   44.7690   33.0910   39.2090 S   0  0  0  0  0  0  0  0  0  0  0  0
   46.4670   33.6260   39.7630 C   0  0  0  0  0  0  0  0  0  0  0  0
   46.2670   33.8840   40.8660 N   0  0  0  0  0  0  0  0  0  0  0  0
   44.5070   35.7900   44.7460 C   0  0  0  0  0  0  0  0  0  0  0  0
   44.5560   35.4580   43.3940 C   0  0  0  0  0  0  0  0  0  0  0  0
   45.0900   34.2150   43.0220 C   0  0  0  0  0  0  0  0  0  0  0  0
   45.5320   33.3940   43.9910 N   0  0  0  0  0  0  0  0  0  0  0  0
   45.4710   33.7450   45.2960 C   0  0  0  0  0  0  0  0  0  0  0  0
   44.9700   34.9150   45.6590 N   0  0  0  0  0  0  0  0  0  0  0  0
   45.9680   32.8070   46.2930 C   0  0  0  0  0  0  0  0  0  0  0  0
   46.9430   31.8700   45.9750 C   0  0  0  0  0  0  0  0  0  0  0  0
   47.4580   30.9550   46.8620 C   0  0  0  0  0  0  0  0  0  0  0  0
   47.0090   30.9550   48.0880 N   0  0  0  0  0  0  0  0  0  0  0  0
   46.0580   31.8600   48.4250 C   0  0  0  0  0  0  0  0  0  0  0  0
   45.5310   32.7800   47.5590 N   0  0  0  0  0  0  0  0  0  0  0  0
   45.4370   32.0240   49.7330 N   0  0  0  0  0  0  0  0  0  0  0  0
   47.9100   32.2260   38.4000 C   0  0  0  0  0  0  0  0  0  0  0  0
   47.7470   32.1980   36.9150 C   0  0  0  0  0  0  0  0  0  0  0  0
   48.7510   32.8330   36.2070 C   0  0  0  0  0  0  0  0  0  0  0  0
   48.6180   32.8130   34.8380 C   0  0  0  0  0  0  0  0  0  0  0  0
   47.6120   32.2350   34.2280 N   0  0  0  0  0  0  0  0  0  0  0  0
   46.6330   31.6150   34.9200 C   0  0  0  0  0  0  0  0  0  0  0  0
   46.7630   31.6350   36.2500 N   0  0  0  0  0  0  0  0  0  0  0  0
   45.4110   30.9000   34.5300 C   0  0  0  0  0  0  0  0  0  0  0  0
   44.2100   31.0510   35.1150 N   0  0  0  0  0  0  0  0  0  0  0  0
   43.1040   30.4010   34.7570 C   0  0  0  0  0  0  0  0  0  0  0  0
   43.1000   29.5210   33.7600 N   0  0  0  0  0  0  0  0  0  0  0  0
   44.2620   29.2810   33.0860 C   0  0  0  0  0  0  0  0  0  0  0  0
   44.2440   28.3700   32.0570 C   0  0  0  0  0  0  0  0  0  0  0  0
   45.3990   28.1100   31.3620 C   0  0  0  0  0  0  0  0  0  0  0  0
   46.5500   28.7960   31.7450 C   0  0  0  0  0  0  0  0  0  0  0  0
   46.4970   29.6870   32.7760 C   0  0  0  0  0  0  0  0  0  0  0  0
   45.3680   29.9830   33.5020 C   0  0  0  0  0  0  0  0  0  0  0  0
   47.3704   34.2533   37.9649 H   0  0  0  0  0  0  0  0  0  0  0  0
   48.4902   34.0546   39.3546 H   0  0  0  0  0  0  0  0  0  0  0  0
   43.0244   33.2614   41.2612 H   0  0  0  0  0  0  0  0  0  0  0  0
   44.0938   36.7582   45.0650 H   0  0  0  0  0  0  0  0  0  0  0  0
   44.1828   36.1578   42.6318 H   0  0  0  0  0  0  0  0  0  0  0  0
   47.3285   31.8596   44.9448 H   0  0  0  0  0  0  0  0  0  0  0  0
   48.2309   30.2389   46.5461 H   0  0  0  0  0  0  0  0  0  0  0  0
   44.7202   32.7499   49.8754 H   0  0  0  0  0  0  0  0  0  0  0  0
   45.7148   31.4141   50.5151 H   0  0  0  0  0  0  0  0  0  0  0  0
   48.9400   31.9532   38.6734 H   0  0  0  0  0  0  0  0  0  0  0  0
   47.2336   31.5072   38.8856 H   0  0  0  0  0  0  0  0  0  0  0  0
   49.6005   33.3222   36.7060 H   0  0  0  0  0  0  0  0  0  0  0  0
   49.3904   33.3040   34.2279 H   0  0  0  0  0  0  0  0  0  0  0  0
   42.1683   30.5975   35.3009 H   0  0  0  0  0  0  0  0  0  0  0  0
   43.3102   27.8526   31.7921 H   0  0  0  0  0  0  0  0  0  0  0  0
   45.4153   27.3868   30.5333 H   0  0  0  0  0  0  0  0  0  0  0  0
   47.4987   28.6192   31.2171 H   0  0  0  0  0  0  0  0  0  0  0  0
   47.4273   30.2078   33.0469 H   0  0  0  0  0  0  0  0  0  0  0  0
  1  5  1  0
  2  9  1  0
  3  2  2  0
  4  5  1  0
  4  3  1  0
  5  6  2  0
  6  2  1  0
  7 12  2  0
  8  7  1  0
  9  8  2  0
  9 10  1  0
 10 11  2  0
 11 12  1  0
 11 13  1  0
 13 18  1  0
 14 13  2  0
 14 15  1  0
 15 16  2  0
 16 17  1  0
 17 19  1  0
 18 17  2  0
 20  1  1  0
 21 20  1  0
 22 21  2  0
 23 22  1  0
 24 23  2  0
 24 25  1  0
 25 26  2  0
 26 21  1  0
 27 25  1  0
 27 28  2  0
 29 28  1  0
 30 29  2  0
 31 36  2  0
 31 30  1  0
 32 31  1  0
 33 34  1  0
 33 32  2  0
 34 35  2  0
 35 36  1  0
 36 27  1  0
  1 37  1  0
  1 38  1  0
  3 39  1  0
  7 40  1  0
  8 41  1  0
 14 42  1  0
 15 43  1  0
 19 44  1  0
 19 45  1  0
 20 46  1  0
 20 47  1  0
 22 48  1  0
 23 49  1  0
 29 50  1  0
 32 51  1  0
 33 52  1  0
 34 53  1  0
 35 54  1  0
M  END
>  <Score>  (1) 
-7.34391

$$$$
