
     RDKit          3D

 41 44  0  0  0  0  0  0  0  0999 V2000
   47.0220   34.7870   42.0250 C   0  0  0  0  0  0  0  0  0  0  0  0
   48.2250   35.4830   42.0040 C   0  0  0  0  0  0  0  0  0  0  0  0
   48.9260   35.4520   40.8460 C   0  0  0  0  0  0  0  0  0  0  0  0
   48.4670   34.7800   39.7840 N   0  0  0  0  0  0  0  0  0  0  0  0
   47.2960   34.1090   39.8220 C   0  0  0  0  0  0  0  0  0  0  0  0
   46.5770   34.1270   40.9740 N   0  0  0  0  0  0  0  0  0  0  0  0
   46.8580   33.4090   38.6550 N   0  0  0  0  0  0  0  0  0  0  0  0
   46.0020   32.3880   38.8930 C   0  0  0  0  0  0  0  0  0  0  0  0
   45.5030   31.6280   37.8340 C   0  0  0  0  0  0  0  0  0  0  0  0
   45.9470   32.0000   36.5860 C   0  0  0  0  0  0  0  0  0  0  0  0
   45.4750   31.2880   35.6370 O   0  0  0  0  0  0  0  0  0  0  0  0
   46.7950   33.0080   36.3420 N   0  0  0  0  0  0  0  0  0  0  0  0
   47.2530   33.7190   37.3960 C   0  0  0  0  0  0  0  0  0  0  0  0
   48.0450   34.6710   37.2410 O   0  0  0  0  0  0  0  0  0  0  0  0
   44.5150   35.7220   44.6400 C   0  0  0  0  0  0  0  0  0  0  0  0
   45.2470   35.7400   43.4260 C   0  0  0  0  0  0  0  0  0  0  0  0
   46.2520   34.8020   43.2470 C   0  0  0  0  0  0  0  0  0  0  0  0
   46.4760   33.9170   44.2480 N   0  0  0  0  0  0  0  0  0  0  0  0
   45.7530   33.9290   45.4000 C   0  0  0  0  0  0  0  0  0  0  0  0
   44.7790   34.8220   45.5990 N   0  0  0  0  0  0  0  0  0  0  0  0
   46.0390   32.9710   46.4130 N   0  0  0  0  0  0  0  0  0  0  0  0
   47.0890   31.9870   46.2300 C   0  0  0  0  0  0  0  0  0  0  0  0
   46.3850   30.6290   46.1960 C   0  0  0  0  0  0  0  0  0  0  0  0
   45.1740   30.6820   46.9010 O   0  0  0  0  0  0  0  0  0  0  0  0
   45.2870   31.4610   48.0700 C   0  0  0  0  0  0  0  0  0  0  0  0
   45.2980   32.9400   47.6600 C   0  0  0  0  0  0  0  0  0  0  0  0
   48.5896   36.0319   42.8848 H   0  0  0  0  0  0  0  0  0  0  0  0
   49.8852   35.9862   40.7775 H   0  0  0  0  0  0  0  0  0  0  0  0
   45.6985   32.1564   39.9246 H   0  0  0  0  0  0  0  0  0  0  0  0
   44.8049   30.7917   37.9862 H   0  0  0  0  0  0  0  0  0  0  0  0
   47.0887   33.2340   35.3810 H   0  0  0  0  0  0  0  0  0  0  0  0
   43.7151   36.4603   44.7986 H   0  0  0  0  0  0  0  0  0  0  0  0
   45.0228   36.4809   42.6444 H   0  0  0  0  0  0  0  0  0  0  0  0
   47.6216   32.1663   45.2844 H   0  0  0  0  0  0  0  0  0  0  0  0
   47.8356   32.0363   47.0363 H   0  0  0  0  0  0  0  0  0  0  0  0
   46.1827   30.3530   45.1506 H   0  0  0  0  0  0  0  0  0  0  0  0
   47.0374   29.8799   46.6685 H   0  0  0  0  0  0  0  0  0  0  0  0
   44.4314   31.2645   48.7328 H   0  0  0  0  0  0  0  0  0  0  0  0
   46.2128   31.2083   48.6076 H   0  0  0  0  0  0  0  0  0  0  0  0
   45.8000   33.5508   48.4248 H   0  0  0  0  0  0  0  0  0  0  0  0
   44.2828   33.3493   47.5511 H   0  0  0  0  0  0  0  0  0  0  0  0
  1 17  1  0
  2  1  2  0
  3  2  1  0
  4  5  1  0
  4  3  2  0
  5  6  2  0
  6  1  1  0
  7  8  1  0
  7  5  1  0
  9  8  2  0
 10  9  1  0
 11 10  2  0
 12 10  1  0
 12 13  1  0
 13  7  1  0
 14 13  2  0
 15 20  2  0
 16 15  1  0
 17 16  2  0
 17 18  1  0
 18 19  2  0
 19 20  1  0
 19 21  1  0
 21 26  1  0
 22 21  1  0
 23 22  1  0
 23 24  1  0
 24 25  1  0
 26 25  1  0
  2 27  1  0
  3 28  1  0
  8 29  1  0
  9 30  1  0
 12 31  1  0
 15 32  1  0
 16 33  1  0
 22 34  1  0
 22 35  1  0
 23 36  1  0
 23 37  1  0
 25 38  1  0
 25 39  1  0
 26 40  1  0
 26 41  1  0
M  END
>  <Score>  (1) 
-7.52182

$$$$
