
     RDKit          3D

 49 53  0  0  1  0  0  0  0  0999 V2000
   47.2930   34.9280   41.8620 C   0  0  0  0  0  0  0  0  0  0  0  0
   48.5090   35.5950   41.7470 C   0  0  0  0  0  0  0  0  0  0  0  0
   48.9940   35.4030   40.5120 N   0  0  0  0  0  0  0  0  0  0  0  0
   48.1130   34.6310   39.8470 C   0  0  0  0  0  0  0  0  0  0  0  0
   48.1390   34.1520   38.5560 C   0  0  0  0  0  0  0  0  0  0  0  0
   47.1110   33.3830   38.1180 C   0  0  0  0  0  0  0  0  0  0  0  0
   46.0090   33.0410   38.9020 C   0  0  0  0  0  0  0  0  0  0  0  0
   46.0510   33.5550   40.1810 C   0  0  0  0  0  0  0  0  0  0  0  0
   47.0310   34.3180   40.6750 C   0  0  0  0  0  0  0  0  0  0  0  0
   44.6220   35.8150   44.3180 C   0  0  0  0  0  0  0  0  0  0  0  0
   45.4210   35.8560   43.1790 C   0  0  0  0  0  0  0  0  0  0  0  0
   46.4590   34.8990   43.0380 C   0  0  0  0  0  0  0  0  0  0  0  0
   46.5740   34.0130   44.0570 N   0  0  0  0  0  0  0  0  0  0  0  0
   45.8040   33.9810   45.1430 C   0  0  0  0  0  0  0  0  0  0  0  0
   44.8280   34.8840   45.2740 N   0  0  0  0  0  0  0  0  0  0  0  0
   46.0320   32.9920   46.1440 N   0  0  0  0  0  0  0  0  0  0  0  0
   45.2570   33.1890   47.2490 C   0  0  0  0  0  0  0  0  0  0  0  0
   45.3400   32.3180   48.3420 C   0  0  0  0  0  0  0  0  0  0  0  0
   46.2400   31.2840   48.2080 C   0  0  0  0  0  0  0  0  0  0  0  0
   46.3880   30.3490   49.2750 N   0  0  0  0  0  0  0  0  0  0  0  0
   47.0040   31.0980   47.1100 N   0  0  0  0  0  0  0  0  0  0  0  0
   46.8980   31.9630   46.0670 C   0  0  0  0  0  0  0  0  0  0  0  0
   47.5630   31.8750   45.0050 O   0  0  0  0  0  0  0  0  0  0  0  0
   44.8780   33.1390   40.9160 N   0  0  0  0  0  0  0  0  0  0  0  0
   43.5080   33.5110   41.1410 C   0  0  0  0  0  0  0  0  0  0  0  0
   42.8440   32.3000   41.7250 C   0  0  0  0  0  0  0  0  0  0  0  0
   43.9680   31.8390   42.6460 C   0  0  0  0  0  0  0  0  0  0  0  0
   45.1450   31.9270   41.7110 C   0  0  1  0  0  0  0  0  0  0  0  0
   45.2910   30.7140   40.9060 C   0  0  0  0  0  0  0  0  0  0  0  0
   44.4600   30.1810   40.1670 O   0  0  0  0  0  0  0  0  0  0  0  0
   48.9932   36.1837   42.5401 H   0  0  0  0  0  0  0  0  0  0  0  0
   49.8784   35.7773   40.1398 H   0  0  0  0  0  0  0  0  0  0  0  0
   48.9813   34.3896   37.8896 H   0  0  0  0  0  0  0  0  0  0  0  0
   47.1485   33.0073   37.0848 H   0  0  0  0  0  0  0  0  0  0  0  0
   45.1812   32.4175   38.5333 H   0  0  0  0  0  0  0  0  0  0  0  0
   43.8129   36.5500   44.4408 H   0  0  0  0  0  0  0  0  0  0  0  0
   45.2508   36.6163   42.4025 H   0  0  0  0  0  0  0  0  0  0  0  0
   44.5605   34.0398   47.2817 H   0  0  0  0  0  0  0  0  0  0  0  0
   44.7280   32.4505   49.2464 H   0  0  0  0  0  0  0  0  0  0  0  0
   47.0572   29.5708   49.1887 H   0  0  0  0  0  0  0  0  0  0  0  0
   45.8257   30.4521   50.1318 H   0  0  0  0  0  0  0  0  0  0  0  0
   43.4512   34.3550   41.8442 H   0  0  0  0  0  0  0  0  0  0  0  0
   43.0180   33.8305   40.2094 H   0  0  0  0  0  0  0  0  0  0  0  0
   41.9318   32.5576   42.2831 H   0  0  0  0  0  0  0  0  0  0  0  0
   42.4904   31.5548   40.9973 H   0  0  0  0  0  0  0  0  0  0  0  0
   44.0852   32.5094   43.5102 H   0  0  0  0  0  0  0  0  0  0  0  0
   43.8136   30.8469   43.0953 H   0  0  0  0  0  0  0  0  0  0  0  0
   46.1096   31.9998   42.2348 H   0  0  0  0  0  0  0  0  0  0  0  0
   46.2682   30.2127   40.9680 H   0  0  0  0  0  0  0  0  0  0  0  0
  1 12  1  0
  2  1  2  0
  3  2  1  0
  4  3  1  0
  4  9  2  0
  5  4  1  0
  6  5  2  0
  6  7  1  0
  7  8  2  0
  8  9  1  0
  8 24  1  0
  9  1  1  0
 10 15  2  0
 11 10  1  0
 12 11  2  0
 12 13  1  0
 13 14  2  0
 14 15  1  0
 14 16  1  0
 16 17  1  0
 17 18  2  0
 19 18  1  0
 19 20  1  0
 21 19  2  0
 22 16  1  0
 22 21  1  0
 23 22  2  0
 24 25  1  0
 24 28  1  0
 25 26  1  0
 26 27  1  0
 28 27  1  0
 29 28  1  0
 30 29  2  0
  2 31  1  0
  3 32  1  0
  5 33  1  0
  6 34  1  0
  7 35  1  0
 10 36  1  0
 11 37  1  0
 17 38  1  0
 18 39  1  0
 20 40  1  0
 20 41  1  0
 25 42  1  0
 25 43  1  0
 26 44  1  0
 26 45  1  0
 27 46  1  0
 27 47  1  0
 28 48  1  1
 29 49  1  0
M  END
>  <Score>  (1) 
-7.90036

$$$$
