
     RDKit          3D

 51 56  0  0  0  0  0  0  0  0999 V2000
   48.5150   31.8740   38.5180 C   0  0  0  0  0  0  0  0  0  0  0  0
   48.5810   33.1090   38.0190 C   0  0  0  0  0  0  0  0  0  0  0  0
   48.5760   33.3520   36.6710 C   0  0  0  0  0  0  0  0  0  0  0  0
   48.4970   32.2350   35.8300 C   0  0  0  0  0  0  0  0  0  0  0  0
   48.4310   30.8370   37.0620 S   0  0  0  0  0  0  0  0  0  0  0  0
   48.4720   32.0120   34.4350 C   0  0  0  0  0  0  0  0  0  0  0  0
   48.8930   32.9980   33.5760 C   0  0  0  0  0  0  0  0  0  0  0  0
   48.7520   32.4800   32.2840 C   0  0  0  0  0  0  0  0  0  0  0  0
   48.2420   31.1840   32.4700 C   0  0  0  0  0  0  0  0  0  0  0  0
   48.0910   30.9550   33.7770 O   0  0  0  0  0  0  0  0  0  0  0  0
   47.9320   30.2520   31.3900 C   0  0  0  0  0  0  0  0  0  0  0  0
   48.6680   30.0570   30.2400 C   0  0  0  0  0  0  0  0  0  0  0  0
   48.0530   29.1140   29.4950 N   0  0  0  0  0  0  0  0  0  0  0  0
   46.9540   28.7300   30.1690 C   0  0  0  0  0  0  0  0  0  0  0  0
   45.9400   27.8100   29.9180 C   0  0  0  0  0  0  0  0  0  0  0  0
   44.8850   27.6020   30.8110 C   0  0  0  0  0  0  0  0  0  0  0  0
   44.8240   28.3220   31.9920 C   0  0  0  0  0  0  0  0  0  0  0  0
   45.8140   29.2330   32.2590 C   0  0  0  0  0  0  0  0  0  0  0  0
   46.8350   29.4150   31.3610 C   0  0  0  0  0  0  0  0  0  0  0  0
   48.4990   31.3010   39.8440 C   0  0  0  0  0  0  0  0  0  0  0  0
   47.6410   33.6770   42.4400 N   0  0  0  0  0  0  0  0  0  0  0  0
   48.8880   34.0770   42.8730 C   0  0  0  0  0  0  0  0  0  0  0  0
   50.0460   33.5640   42.3100 C   0  0  0  0  0  0  0  0  0  0  0  0
   49.9170   32.6210   41.2790 C   0  0  0  0  0  0  0  0  0  0  0  0
   50.9360   32.1430   40.7550 O   0  0  0  0  0  0  0  0  0  0  0  0
   48.6650   32.2800   40.9130 N   0  0  0  0  0  0  0  0  0  0  0  0
   47.5670   32.7920   41.4750 C   0  0  0  0  0  0  0  0  0  0  0  0
   46.4240   32.5190   41.1810 O   0  0  0  0  0  0  0  0  0  0  0  0
   45.0720   36.1570   43.3210 C   0  0  0  0  0  0  0  0  0  0  0  0
   46.0780   35.4910   42.6160 C   0  0  0  0  0  0  0  0  0  0  0  0
   46.6250   34.3370   43.1660 C   0  0  0  0  0  0  0  0  0  0  0  0
   46.1580   33.8980   44.3760 N   0  0  0  0  0  0  0  0  0  0  0  0
   45.1830   34.5580   45.0420 C   0  0  0  0  0  0  0  0  0  0  0  0
   44.6430   35.6930   44.5040 N   0  0  0  0  0  0  0  0  0  0  0  0
   48.6414   33.9605   38.7128 H   0  0  0  0  0  0  0  0  0  0  0  0
   48.6313   34.3743   36.2688 H   0  0  0  0  0  0  0  0  0  0  0  0
   49.2665   33.9958   33.8495 H   0  0  0  0  0  0  0  0  0  0  0  0
   48.9884   32.9778   31.3320 H   0  0  0  0  0  0  0  0  0  0  0  0
   49.5982   30.5809   29.9749 H   0  0  0  0  0  0  0  0  0  0  0  0
   48.3665   28.7557   28.5816 H   0  0  0  0  0  0  0  0  0  0  0  0
   45.9700   27.2271   28.9856 H   0  0  0  0  0  0  0  0  0  0  0  0
   44.1026   26.8657   30.5753 H   0  0  0  0  0  0  0  0  0  0  0  0
   43.9982   28.1666   32.7019 H   0  0  0  0  0  0  0  0  0  0  0  0
   45.7893   29.8164   33.1912 H   0  0  0  0  0  0  0  0  0  0  0  0
   47.5358   30.7899   39.9889 H   0  0  0  0  0  0  0  0  0  0  0  0
   49.3553   30.6132   39.9050 H   0  0  0  0  0  0  0  0  0  0  0  0
   48.9651   34.8185   43.6819 H   0  0  0  0  0  0  0  0  0  0  0  0
   51.0372   33.8867   42.6612 H   0  0  0  0  0  0  0  0  0  0  0  0
   44.6273   37.0714   42.9013 H   0  0  0  0  0  0  0  0  0  0  0  0
   46.4299   35.8718   41.6459 H   0  0  0  0  0  0  0  0  0  0  0  0
   44.8260   34.1830   46.0126 H   0  0  0  0  0  0  0  0  0  0  0  0
  1 20  1  0
  2  1  2  0
  3  2  1  0
  4  3  2  0
  4  5  1  0
  5  1  1  0
  6  4  1  0
  7  6  2  0
  8  9  2  0
  8  7  1  0
  9 10  1  0
 10  6  1  0
 11  9  1  0
 12 11  2  0
 13 14  1  0
 13 12  1  0
 14 19  2  0
 15 14  1  0
 15 16  2  0
 16 17  1  0
 17 18  2  0
 19 11  1  0
 19 18  1  0
 20 26  1  0
 21 22  1  0
 21 31  1  0
 23 22  2  0
 24 23  1  0
 25 24  2  0
 26 24  1  0
 26 27  1  0
 27 21  1  0
 28 27  2  0
 29 34  2  0
 30 31  2  0
 30 29  1  0
 31 32  1  0
 32 33  2  0
 34 33  1  0
  2 35  1  0
  3 36  1  0
  7 37  1  0
  8 38  1  0
 12 39  1  0
 13 40  1  0
 15 41  1  0
 16 42  1  0
 17 43  1  0
 18 44  1  0
 20 45  1  0
 20 46  1  0
 22 47  1  0
 23 48  1  0
 29 49  1  0
 30 50  1  0
 33 51  1  0
M  END
>  <Score>  (1) 
-7.33394

$$$$
