
     RDKit          3D

 42 46  0  0  0  0  0  0  0  0999 V2000
   45.1660   34.2500   45.5820 C   0  0  0  0  0  0  0  0  0  0  0  0
   45.6470   34.5000   44.2780 C   0  0  0  0  0  0  0  0  0  0  0  0
   46.8080   33.8460   43.8430 C   0  0  0  0  0  0  0  0  0  0  0  0
   47.4330   32.9830   44.7080 N   0  0  0  0  0  0  0  0  0  0  0  0
   46.9450   32.7670   45.9470 C   0  0  0  0  0  0  0  0  0  0  0  0
   45.8410   33.3820   46.3770 N   0  0  0  0  0  0  0  0  0  0  0  0
   47.3140   34.0980   42.4960 C   0  0  0  0  0  0  0  0  0  0  0  0
   48.2020   35.1520   42.4140 C   0  0  0  0  0  0  0  0  0  0  0  0
   48.7840   35.5390   41.2340 C   0  0  0  0  0  0  0  0  0  0  0  0
   48.4790   34.8560   40.0590 C   0  0  0  0  0  0  0  0  0  0  0  0
   47.5890   33.8020   40.1550 C   0  0  0  0  0  0  0  0  0  0  0  0
   47.0100   33.4180   41.3360 C   0  0  0  0  0  0  0  0  0  0  0  0
   44.7690   35.6410   43.2150 S   0  0  0  0  0  0  0  0  0  0  0  0
   42.7410   33.2210   40.9750 N   0  0  0  0  0  0  0  0  0  0  0  0
   43.5480   33.4430   41.9710 N   0  0  0  0  0  0  0  0  0  0  0  0
   43.7620   34.7880   42.0550 C   0  0  0  0  0  0  0  0  0  0  0  0
   43.0280   35.2970   41.0500 C   0  0  0  0  0  0  0  0  0  0  0  0
   42.3530   34.3300   40.3280 C   0  0  0  0  0  0  0  0  0  0  0  0
   41.5020   34.6230   39.2070 C   0  0  0  0  0  0  0  0  0  0  0  0
   41.7660   35.5890   38.2290 C   0  0  0  0  0  0  0  0  0  0  0  0
   40.7830   35.6180   37.3210 N   0  0  0  0  0  0  0  0  0  0  0  0
   39.8360   34.7120   37.6200 C   0  0  0  0  0  0  0  0  0  0  0  0
   38.6450   34.3400   37.0330 C   0  0  0  0  0  0  0  0  0  0  0  0
   37.8640   33.3480   37.5870 C   0  0  0  0  0  0  0  0  0  0  0  0
   38.2990   32.7360   38.7410 C   0  0  0  0  0  0  0  0  0  0  0  0
   39.4950   33.1390   39.2930 C   0  0  0  0  0  0  0  0  0  0  0  0
   40.3010   34.1220   38.7730 C   0  0  0  0  0  0  0  0  0  0  0  0
   44.2578   34.7514   45.9477 H   0  0  0  0  0  0  0  0  0  0  0  0
   47.4681   32.0691   46.6173 H   0  0  0  0  0  0  0  0  0  0  0  0
   48.4528   35.7036   43.3321 H   0  0  0  0  0  0  0  0  0  0  0  0
   49.4878   36.3842   41.2156 H   0  0  0  0  0  0  0  0  0  0  0  0
   48.9269   35.1427   39.0961 H   0  0  0  0  0  0  0  0  0  0  0  0
   47.3340   33.2460   39.2408 H   0  0  0  0  0  0  0  0  0  0  0  0
   46.3069   32.5723   41.3584 H   0  0  0  0  0  0  0  0  0  0  0  0
   42.4277   32.2771   40.7070 H   0  0  0  0  0  0  0  0  0  0  0  0
   42.9704   36.3723   40.8252 H   0  0  0  0  0  0  0  0  0  0  0  0
   42.6568   36.2341   38.2094 H   0  0  0  0  0  0  0  0  0  0  0  0
   40.7559   36.2473   36.5061 H   0  0  0  0  0  0  0  0  0  0  0  0
   38.3139   34.8409   36.1113 H   0  0  0  0  0  0  0  0  0  0  0  0
   36.9143   33.0521   37.1174 H   0  0  0  0  0  0  0  0  0  0  0  0
   37.7032   31.9408   39.2129 H   0  0  0  0  0  0  0  0  0  0  0  0
   39.8277   32.6387   40.2144 H   0  0  0  0  0  0  0  0  0  0  0  0
  1  6  2  0
  2  1  1  0
  3  2  2  0
  3  4  1  0
  4  5  2  0
  5  6  1  0
  7  3  1  0
  8  7  2  0
  9  8  1  0
 10 11  1  0
 10  9  2  0
 11 12  2  0
 12  7  1  0
 13  2  1  0
 14 15  1  0
 15 16  2  0
 16 13  1  0
 17 16  1  0
 18 14  1  0
 18 17  2  0
 19 18  1  0
 20 19  2  0
 21 22  1  0
 21 20  1  0
 22 27  2  0
 23 24  2  0
 23 22  1  0
 24 25  1  0
 25 26  2  0
 27 19  1  0
 27 26  1  0
  1 28  1  0
  5 29  1  0
  8 30  1  0
  9 31  1  0
 10 32  1  0
 11 33  1  0
 12 34  1  0
 14 35  1  0
 17 36  1  0
 20 37  1  0
 21 38  1  0
 23 39  1  0
 24 40  1  0
 25 41  1  0
 26 42  1  0
M  END
>  <Score>  (1) 
-7.34849

$$$$
