
     RDKit          3D

 49 54  0  0  1  0  0  0  0  0999 V2000
   45.6800   33.8630   45.4640 C   0  0  0  0  0  0  0  0  0  0  0  0
   46.4820   33.8560   44.3210 C   0  0  0  0  0  0  0  0  0  0  0  0
   46.2920   34.8590   43.3650 C   0  0  0  0  0  0  0  0  0  0  0  0
   45.3460   35.7950   43.5770 N   0  0  0  0  0  0  0  0  0  0  0  0
   44.5800   35.7840   44.6900 C   0  0  0  0  0  0  0  0  0  0  0  0
   44.7510   34.8190   45.6240 N   0  0  0  0  0  0  0  0  0  0  0  0
   47.1400   34.8350   42.1790 C   0  0  0  0  0  0  0  0  0  0  0  0
   48.4140   35.4030   42.0560 C   0  0  0  0  0  0  0  0  0  0  0  0
   48.8880   35.1750   40.8170 N   0  0  0  0  0  0  0  0  0  0  0  0
   47.9500   34.4780   40.1540 C   0  0  0  0  0  0  0  0  0  0  0  0
   47.9370   33.9980   38.8660 C   0  0  0  0  0  0  0  0  0  0  0  0
   46.8430   33.3000   38.4020 C   0  0  0  0  0  0  0  0  0  0  0  0
   45.7160   33.0480   39.1950 C   0  0  0  0  0  0  0  0  0  0  0  0
   45.7890   33.5550   40.4730 C   0  0  0  0  0  0  0  0  0  0  0  0
   46.8360   34.2440   40.9730 C   0  0  0  0  0  0  0  0  0  0  0  0
   45.8130   32.9010   46.4460 O   0  0  0  0  0  0  0  0  0  0  0  0
   45.0770   32.8590   47.6350 C   0  0  1  0  0  0  0  0  0  0  0  0
   44.7510   31.4930   48.1400 C   0  0  0  0  0  0  0  0  0  0  0  0
   45.8130   32.3620   48.8360 C   0  0  1  0  0  0  0  0  0  0  0  0
   47.2260   31.8980   48.6480 C   0  0  0  0  0  0  0  0  0  0  0  0
   47.9260   32.4380   47.7520 O   0  0  0  0  0  0  0  0  0  0  0  0
   47.8810   30.9250   49.3380 O   0  0  0  0  0  0  0  0  0  0  0  0
   49.1100   30.4150   48.9700 C   0  0  0  0  0  0  0  0  0  0  0  0
   49.4820   29.2930   48.2590 C   0  0  0  0  0  0  0  0  0  0  0  0
   50.8150   29.2430   48.1730 N   0  0  0  0  0  0  0  0  0  0  0  0
   51.3160   30.3330   48.8270 C   0  0  0  0  0  0  0  0  0  0  0  0
   52.6480   30.6640   48.9780 C   0  0  0  0  0  0  0  0  0  0  0  0
   52.8830   31.8240   49.6880 C   0  0  0  0  0  0  0  0  0  0  0  0
   51.8950   32.6230   50.2250 C   0  0  0  0  0  0  0  0  0  0  0  0
   50.5700   32.2530   50.0510 C   0  0  0  0  0  0  0  0  0  0  0  0
   50.2740   31.0950   49.3440 C   0  0  0  0  0  0  0  0  0  0  0  0
   47.2465   33.0786   44.1756 H   0  0  0  0  0  0  0  0  0  0  0  0
   43.8155   36.5611   44.8376 H   0  0  0  0  0  0  0  0  0  0  0  0
   48.9449   35.9504   42.8487 H   0  0  0  0  0  0  0  0  0  0  0  0
   49.7998   35.4783   40.4463 H   0  0  0  0  0  0  0  0  0  0  0  0
   48.7996   34.1710   38.2058 H   0  0  0  0  0  0  0  0  0  0  0  0
   46.8552   32.9258   37.3677 H   0  0  0  0  0  0  0  0  0  0  0  0
   44.8428   32.4898   38.8262 H   0  0  0  0  0  0  0  0  0  0  0  0
   44.9285   33.3855   41.1369 H   0  0  0  0  0  0  0  0  0  0  0  0
   44.4847   33.7603   47.4185 H   0  0  0  0  0  0  0  0  0  0  0  0
   43.7855   31.3011   48.6310 H   0  0  0  0  0  0  0  0  0  0  0  0
   44.7270   30.4824   47.7063 H   0  0  0  0  0  0  0  0  0  0  0  0
   45.9889   32.7582   49.8470 H   0  0  0  0  0  0  0  0  0  0  0  0
   48.7893   28.5542   47.8295 H   0  0  0  0  0  0  0  0  0  0  0  0
   51.3659   28.5134   47.6986 H   0  0  0  0  0  0  0  0  0  0  0  0
   53.4607   30.0494   48.5636 H   0  0  0  0  0  0  0  0  0  0  0  0
   53.9286   32.1321   49.8356 H   0  0  0  0  0  0  0  0  0  0  0  0
   52.1534   33.5364   50.7808 H   0  0  0  0  0  0  0  0  0  0  0  0
   49.7614   32.8707   50.4689 H   0  0  0  0  0  0  0  0  0  0  0  0
  1  6  1  0
  1 16  1  0
  2  1  2  0
  3  4  2  0
  3  2  1  0
  4  5  1  0
  5  6  2  0
  7  3  1  0
  8  7  2  0
  9  8  1  0
 10  9  1  0
 10 15  2  0
 11 10  1  0
 12 11  2  0
 12 13  1  0
 13 14  2  0
 14 15  1  0
 15  7  1  0
 16 17  1  0
 17 18  1  0
 17 19  1  0
 18 19  1  0
 20 19  1  0
 20 22  1  0
 21 20  2  0
 23 22  1  0
 23 31  1  0
 24 23  2  0
 25 24  1  0
 25 26  1  0
 26 27  2  0
 26 31  1  0
 27 28  1  0
 28 29  2  0
 30 29  1  0
 31 30  2  0
  2 32  1  0
  5 33  1  0
  8 34  1  0
  9 35  1  0
 11 36  1  0
 12 37  1  0
 13 38  1  0
 14 39  1  0
 17 40  1  1
 18 41  1  0
 18 42  1  0
 19 43  1  1
 24 44  1  0
 25 45  1  0
 27 46  1  0
 28 47  1  0
 29 48  1  0
 30 49  1  0
M  END
>  <Score>  (1) 
-7.54436

$$$$
