
     RDKit          3D

 56 61  0  0  0  0  0  0  0  0999 V2000
   46.1500   32.0140   47.2930 C   0  0  0  0  0  0  0  0  0  0  0  0
   44.4980   35.0670   46.1650 C   0  0  0  0  0  0  0  0  0  0  0  0
   44.7290   35.0680   44.7810 C   0  0  0  0  0  0  0  0  0  0  0  0
   45.4660   34.0000   44.2260 C   0  0  0  0  0  0  0  0  0  0  0  0
   45.9040   33.0420   45.0590 N   0  0  0  0  0  0  0  0  0  0  0  0
   45.6580   33.0780   46.3960 C   0  0  0  0  0  0  0  0  0  0  0  0
   44.9650   34.0790   46.9370 N   0  0  0  0  0  0  0  0  0  0  0  0
   45.6720   34.0470   42.8330 N   0  0  0  0  0  0  0  0  0  0  0  0
   44.9120   33.8890   41.7510 C   0  0  0  0  0  0  0  0  0  0  0  0
   45.6410   34.0450   40.6350 N   0  0  0  0  0  0  0  0  0  0  0  0
   46.9180   34.3130   40.9880 C   0  0  0  0  0  0  0  0  0  0  0  0
   48.0420   34.5500   40.2270 C   0  0  0  0  0  0  0  0  0  0  0  0
   48.0360   34.5520   38.9900 O   0  0  0  0  0  0  0  0  0  0  0  0
   49.2190   34.7970   40.8410 N   0  0  0  0  0  0  0  0  0  0  0  0
   49.2220   34.7950   42.1790 C   0  0  0  0  0  0  0  0  0  0  0  0
   50.3960   35.0410   42.9370 N   0  0  0  0  0  0  0  0  0  0  0  0
   48.1450   34.5670   42.9200 N   0  0  0  0  0  0  0  0  0  0  0  0
   46.9300   34.3120   42.3690 C   0  0  0  0  0  0  0  0  0  0  0  0
   47.2710   32.5280   48.1730 C   0  0  0  0  0  0  0  0  0  0  0  0
   45.0500   31.4600   48.1820 C   0  0  0  0  0  0  0  0  0  0  0  0
   46.7160   30.9100   46.4270 C   0  0  0  0  0  0  0  0  0  0  0  0
   46.0240   29.5930   46.6630 C   0  0  0  0  0  0  0  0  0  0  0  0
   46.5950   28.7020   47.4960 C   0  0  0  0  0  0  0  0  0  0  0  0
   45.4450   27.2660   47.4980 S   0  0  0  0  0  0  0  0  0  0  0  0
   44.3230   28.1950   46.2920 C   0  0  0  0  0  0  0  0  0  0  0  0
   44.9120   29.1850   46.1580 N   0  0  0  0  0  0  0  0  0  0  0  0
   43.1240   27.4130   45.9230 C   0  0  0  0  0  0  0  0  0  0  0  0
   42.6400   26.3400   46.5800 N   0  0  0  0  0  0  0  0  0  0  0  0
   41.5530   25.6720   46.2020 C   0  0  0  0  0  0  0  0  0  0  0  0
   40.8630   26.0340   45.1230 N   0  0  0  0  0  0  0  0  0  0  0  0
   41.2470   27.0860   44.3880 C   0  0  0  0  0  0  0  0  0  0  0  0
   40.5540   27.4770   43.2750 C   0  0  0  0  0  0  0  0  0  0  0  0
   40.9700   28.5680   42.5280 C   0  0  0  0  0  0  0  0  0  0  0  0
   42.1170   29.2340   42.9700 C   0  0  0  0  0  0  0  0  0  0  0  0
   42.8050   28.8290   44.0930 C   0  0  0  0  0  0  0  0  0  0  0  0
   42.3790   27.7450   44.8200 C   0  0  0  0  0  0  0  0  0  0  0  0
   43.9260   35.8885   46.6209 H   0  0  0  0  0  0  0  0  0  0  0  0
   44.3458   35.8798   44.1453 H   0  0  0  0  0  0  0  0  0  0  0  0
   43.8358   33.6621   41.7694 H   0  0  0  0  0  0  0  0  0  0  0  0
   50.0778   34.9792   40.3024 H   0  0  0  0  0  0  0  0  0  0  0  0
   50.3561   35.0306   43.9662 H   0  0  0  0  0  0  0  0  0  0  0  0
   51.2881   35.2300   42.4581 H   0  0  0  0  0  0  0  0  0  0  0  0
   46.9947   32.4013   49.2302 H   0  0  0  0  0  0  0  0  0  0  0  0
   48.1904   31.9615   47.9639 H   0  0  0  0  0  0  0  0  0  0  0  0
   47.4418   33.5944   47.9639 H   0  0  0  0  0  0  0  0  0  0  0  0
   45.3266   31.5993   49.2375 H   0  0  0  0  0  0  0  0  0  0  0  0
   44.1094   31.9919   47.9761 H   0  0  0  0  0  0  0  0  0  0  0  0
   44.9174   30.3876   47.9761 H   0  0  0  0  0  0  0  0  0  0  0  0
   47.7860   30.7942   46.6545 H   0  0  0  0  0  0  0  0  0  0  0  0
   46.5595   31.1910   45.3751 H   0  0  0  0  0  0  0  0  0  0  0  0
   47.5385   28.8090   48.0513 H   0  0  0  0  0  0  0  0  0  0  0  0
   41.2189   24.8055   46.7916 H   0  0  0  0  0  0  0  0  0  0  0  0
   39.6565   26.9192   42.9695 H   0  0  0  0  0  0  0  0  0  0  0  0
   40.4239   28.8941   41.6305 H   0  0  0  0  0  0  0  0  0  0  0  0
   42.4803   30.1055   42.4056 H   0  0  0  0  0  0  0  0  0  0  0  0
   43.7034   29.3790   44.4098 H   0  0  0  0  0  0  0  0  0  0  0  0
  1 19  1  0
  1 20  1  0
  2  7  2  0
  3  2  1  0
  4  3  2  0
  4  5  1  0
  5  6  2  0
  6  7  1  0
  6  1  1  0
  8  4  1  0
  9  8  1  0
 10 11  1  0
 10  9  2  0
 11 18  2  0
 12 14  1  0
 12 11  1  0
 13 12  2  0
 14 15  1  0
 15 17  2  0
 15 16  1  0
 18  8  1  0
 18 17  1  0
 21 22  1  0
 21  1  1  0
 22 23  2  0
 23 24  1  0
 25 24  1  0
 26 25  2  0
 26 22  1  0
 27 25  1  0
 27 28  2  0
 29 28  1  0
 30 29  2  0
 31 36  2  0
 31 30  1  0
 32 31  1  0
 33 34  1  0
 33 32  2  0
 34 35  2  0
 35 36  1  0
 36 27  1  0
  2 37  1  0
  3 38  1  0
  9 39  1  0
 14 40  1  0
 16 41  1  0
 16 42  1  0
 19 43  1  0
 19 44  1  0
 19 45  1  0
 20 46  1  0
 20 47  1  0
 20 48  1  0
 21 49  1  0
 21 50  1  0
 23 51  1  0
 29 52  1  0
 32 53  1  0
 33 54  1  0
 34 55  1  0
 35 56  1  0
M  END
>  <Score>  (1) 
-7.61659

$$$$
