
     RDKit          3D

 42 46  0  0  0  0  0  0  0  0999 V2000
   44.5670   35.7420   44.6350 C   0  0  0  0  0  0  0  0  0  0  0  0
   45.2770   35.8160   43.3970 C   0  0  0  0  0  0  0  0  0  0  0  0
   46.2330   34.8430   43.1930 C   0  0  0  0  0  0  0  0  0  0  0  0
   46.3760   33.9610   44.1660 N   0  0  0  0  0  0  0  0  0  0  0  0
   45.7370   33.8540   45.3320 C   0  0  0  0  0  0  0  0  0  0  0  0
   44.8030   34.7940   45.5500 N   0  0  0  0  0  0  0  0  0  0  0  0
   47.0190   34.8110   41.9830 C   0  0  0  0  0  0  0  0  0  0  0  0
   48.2270   35.5000   41.9630 C   0  0  0  0  0  0  0  0  0  0  0  0
   48.9370   35.4600   40.8100 C   0  0  0  0  0  0  0  0  0  0  0  0
   48.4830   34.7810   39.7450 N   0  0  0  0  0  0  0  0  0  0  0  0
   47.3090   34.1180   39.7840 C   0  0  0  0  0  0  0  0  0  0  0  0
   46.5780   34.1440   40.9330 N   0  0  0  0  0  0  0  0  0  0  0  0
   46.8710   33.4120   38.6160 N   0  0  0  0  0  0  0  0  0  0  0  0
   46.0170   32.3870   38.8520 C   0  0  0  0  0  0  0  0  0  0  0  0
   45.5250   31.6330   37.7790 C   0  0  0  0  0  0  0  0  0  0  0  0
   45.9720   32.0160   36.5430 C   0  0  0  0  0  0  0  0  0  0  0  0
   45.4910   31.2940   35.6020 O   0  0  0  0  0  0  0  0  0  0  0  0
   46.8190   33.0320   36.3030 N   0  0  0  0  0  0  0  0  0  0  0  0
   47.2660   33.7290   37.3570 C   0  0  0  0  0  0  0  0  0  0  0  0
   48.0500   34.6770   37.2010 O   0  0  0  0  0  0  0  0  0  0  0  0
   45.8820   32.8960   46.4070 C   0  0  0  0  0  0  0  0  0  0  0  0
   45.3040   33.0770   47.5990 N   0  0  0  0  0  0  0  0  0  0  0  0
   45.3900   32.2420   48.6380 C   0  0  0  0  0  0  0  0  0  0  0  0
   46.0960   31.1020   48.5590 N   0  0  0  0  0  0  0  0  0  0  0  0
   46.7090   30.8340   47.4050 C   0  0  0  0  0  0  0  0  0  0  0  0
   47.4320   29.6710   47.3160 C   0  0  0  0  0  0  0  0  0  0  0  0
   48.1000   29.3320   46.1340 C   0  0  0  0  0  0  0  0  0  0  0  0
   47.9880   30.2250   45.0740 C   0  0  0  0  0  0  0  0  0  0  0  0
   47.2490   31.3750   45.2210 C   0  0  0  0  0  0  0  0  0  0  0  0
   46.5950   31.7210   46.3630 C   0  0  0  0  0  0  0  0  0  0  0  0
   43.7939   36.4959   44.8448 H   0  0  0  0  0  0  0  0  0  0  0  0
   45.0737   36.6003   42.6530 H   0  0  0  0  0  0  0  0  0  0  0  0
   48.5892   36.0520   42.8429 H   0  0  0  0  0  0  0  0  0  0  0  0
   49.8982   35.9910   40.7458 H   0  0  0  0  0  0  0  0  0  0  0  0
   45.7115   32.1481   39.8814 H   0  0  0  0  0  0  0  0  0  0  0  0
   44.8290   30.7929   37.9195 H   0  0  0  0  0  0  0  0  0  0  0  0
   47.1137   33.2662   35.3442 H   0  0  0  0  0  0  0  0  0  0  0  0
   44.8729   32.4926   49.5760 H   0  0  0  0  0  0  0  0  0  0  0  0
   47.4871   28.9974   48.1839 H   0  0  0  0  0  0  0  0  0  0  0  0
   48.6851   28.4045   46.0476 H   0  0  0  0  0  0  0  0  0  0  0  0
   48.4901   30.0115   44.1189 H   0  0  0  0  0  0  0  0  0  0  0  0
   47.1822   32.0583   44.3615 H   0  0  0  0  0  0  0  0  0  0  0  0
  1  6  2  0
  2  1  1  0
  3  2  2  0
  3  4  1  0
  4  5  2  0
  5  6  1  0
  5 21  1  0
  7  3  1  0
  8  7  2  0
  9  8  1  0
 10 11  1  0
 10  9  2  0
 11 12  2  0
 12  7  1  0
 13 14  1  0
 13 11  1  0
 15 14  2  0
 16 15  1  0
 17 16  2  0
 18 16  1  0
 18 19  1  0
 19 13  1  0
 20 19  2  0
 21 22  2  0
 22 23  1  0
 24 23  2  0
 25 24  1  0
 26 25  2  0
 27 26  1  0
 28 29  1  0
 28 27  2  0
 29 30  2  0
 30 21  1  0
 30 25  1  0
  1 31  1  0
  2 32  1  0
  8 33  1  0
  9 34  1  0
 14 35  1  0
 15 36  1  0
 18 37  1  0
 23 38  1  0
 26 39  1  0
 27 40  1  0
 28 41  1  0
 29 42  1  0
M  END
>  <Score>  (1) 
-8.00603

$$$$
