
     RDKit          3D

 30 32  0  0  0  0  0  0  0  0999 V2000
   44.4920   35.7000   44.9600 C   0  0  0  0  0  0  0  0  0  0  0  0
   45.1120   35.7320   43.7080 C   0  0  0  0  0  0  0  0  0  0  0  0
   46.0630   34.7640   43.4240 C   0  0  0  0  0  0  0  0  0  0  0  0
   46.3600   33.8290   44.3590 N   0  0  0  0  0  0  0  0  0  0  0  0
   45.7340   33.8310   45.5690 C   0  0  0  0  0  0  0  0  0  0  0  0
   44.8040   34.7520   45.8870 N   0  0  0  0  0  0  0  0  0  0  0  0
   46.0810   32.8090   46.5470 C   0  0  0  0  0  0  0  0  0  0  0  0
   47.0330   31.8490   46.2430 C   0  0  0  0  0  0  0  0  0  0  0  0
   47.4050   30.8570   47.1190 C   0  0  0  0  0  0  0  0  0  0  0  0
   46.8420   30.7950   48.3220 N   0  0  0  0  0  0  0  0  0  0  0  0
   45.9020   31.7400   48.6290 C   0  0  0  0  0  0  0  0  0  0  0  0
   45.5240   32.7270   47.7690 N   0  0  0  0  0  0  0  0  0  0  0  0
   45.1900   31.8380   49.8630 N   0  0  0  0  0  0  0  0  0  0  0  0
   46.7700   34.6930   42.1700 C   0  0  0  0  0  0  0  0  0  0  0  0
   47.9600   35.3760   42.0400 C   0  0  0  0  0  0  0  0  0  0  0  0
   48.7230   35.3770   40.8750 C   0  0  0  0  0  0  0  0  0  0  0  0
   48.2170   34.6350   39.8150 C   0  0  0  0  0  0  0  0  0  0  0  0
   47.0350   33.9280   39.8760 C   0  0  0  0  0  0  0  0  0  0  0  0
   46.3410   33.9820   41.0690 C   0  0  0  0  0  0  0  0  0  0  0  0
   43.7336   36.4588   45.2028 H   0  0  0  0  0  0  0  0  0  0  0  0
   44.8527   36.5038   42.9684 H   0  0  0  0  0  0  0  0  0  0  0  0
   47.5137   31.8823   45.2541 H   0  0  0  0  0  0  0  0  0  0  0  0
   48.1651   30.1178   46.8260 H   0  0  0  0  0  0  0  0  0  0  0  0
   44.4980   32.5885   50.0001 H   0  0  0  0  0  0  0  0  0  0  0  0
   45.3684   31.1582   50.6159 H   0  0  0  0  0  0  0  0  0  0  0  0
   48.3268   35.9513   42.9028 H   0  0  0  0  0  0  0  0  0  0  0  0
   49.6696   35.9320   40.7986 H   0  0  0  0  0  0  0  0  0  0  0  0
   48.7903   34.6103   38.8766 H   0  0  0  0  0  0  0  0  0  0  0  0
   46.6631   33.3497   39.0173 H   0  0  0  0  0  0  0  0  0  0  0  0
   45.3941   33.4274   41.1451 H   0  0  0  0  0  0  0  0  0  0  0  0
  1  6  2  0
  2  1  1  0
  3  2  2  0
  3  4  1  0
  4  5  2  0
  5  6  1  0
  5  7  1  0
  7 12  1  0
  8  7  2  0
  8  9  1  0
  9 10  2  0
 10 11  1  0
 11 13  1  0
 12 11  2  0
 14  3  1  0
 15 14  2  0
 16 15  1  0
 17 18  1  0
 17 16  2  0
 18 19  2  0
 19 14  1  0
  1 20  1  0
  2 21  1  0
  8 22  1  0
  9 23  1  0
 13 24  1  0
 13 25  1  0
 15 26  1  0
 16 27  1  0
 17 28  1  0
 18 29  1  0
 19 30  1  0
M  END
>  <Score>  (1) 
-7.0533

$$$$
