
     RDKit          3D

 44 48  0  0  0  0  0  0  0  0999 V2000
   44.6430   36.2660   44.1500 C   0  0  0  0  0  0  0  0  0  0  0  0
   45.3630   36.0720   42.9340 C   0  0  0  0  0  0  0  0  0  0  0  0
   46.1610   34.9510   42.8670 C   0  0  0  0  0  0  0  0  0  0  0  0
   46.2080   34.1320   43.9230 N   0  0  0  0  0  0  0  0  0  0  0  0
   45.5120   34.3390   45.0710 C   0  0  0  0  0  0  0  0  0  0  0  0
   44.7250   35.4220   45.1720 N   0  0  0  0  0  0  0  0  0  0  0  0
   45.5580   33.4740   46.1900 N   0  0  0  0  0  0  0  0  0  0  0  0
   44.8300   33.6930   47.3120 C   0  0  0  0  0  0  0  0  0  0  0  0
   45.0420   32.7300   48.2460 N   0  0  0  0  0  0  0  0  0  0  0  0
   45.9290   31.8680   47.7170 C   0  0  0  0  0  0  0  0  0  0  0  0
   46.5140   30.7150   48.1880 C   0  0  0  0  0  0  0  0  0  0  0  0
   46.2190   30.2950   49.3550 O   0  0  0  0  0  0  0  0  0  0  0  0
   47.3820   30.0730   47.3860 N   0  0  0  0  0  0  0  0  0  0  0  0
   47.6750   30.5510   46.1430 C   0  0  0  0  0  0  0  0  0  0  0  0
   48.6130   29.7590   45.4170 N   0  0  0  0  0  0  0  0  0  0  0  0
   47.1020   31.6920   45.6660 N   0  0  0  0  0  0  0  0  0  0  0  0
   46.2320   32.3410   46.4580 C   0  0  0  0  0  0  0  0  0  0  0  0
   46.9100   34.7150   41.6440 C   0  0  0  0  0  0  0  0  0  0  0  0
   48.2360   35.0730   41.4060 C   0  0  0  0  0  0  0  0  0  0  0  0
   48.4540   34.6220   40.1040 C   0  0  0  0  0  0  0  0  0  0  0  0
   47.2740   34.0310   39.6390 C   0  0  0  0  0  0  0  0  0  0  0  0
   46.3820   34.1170   40.6090 O   0  0  0  0  0  0  0  0  0  0  0  0
   47.0790   33.4500   38.3610 N   0  0  0  0  0  0  0  0  0  0  0  0
   46.2150   32.4220   38.2490 C   0  0  0  0  0  0  0  0  0  0  0  0
   45.9880   31.8200   37.0290 C   0  0  0  0  0  0  0  0  0  0  0  0
   46.6720   32.2960   35.9200 C   0  0  0  0  0  0  0  0  0  0  0  0
   46.4420   31.7250   34.8280 O   0  0  0  0  0  0  0  0  0  0  0  0
   47.5190   33.3210   36.0920 N   0  0  0  0  0  0  0  0  0  0  0  0
   47.7250   33.8990   37.3020 C   0  0  0  0  0  0  0  0  0  0  0  0
   48.5340   34.8620   37.3980 O   0  0  0  0  0  0  0  0  0  0  0  0
   45.0040   30.7020   37.0200 C   0  0  0  0  0  0  0  0  0  0  0  0
   43.9944   37.1494   44.2449 H   0  0  0  0  0  0  0  0  0  0  0  0
   45.2853   36.7793   42.0951 H   0  0  0  0  0  0  0  0  0  0  0  0
   44.1502   34.5468   47.4495 H   0  0  0  0  0  0  0  0  0  0  0  0
   47.8322   29.2072   47.7157 H   0  0  0  0  0  0  0  0  0  0  0  0
   48.8977   30.0391   44.4676 H   0  0  0  0  0  0  0  0  0  0  0  0
   49.0057   28.9070   45.8421 H   0  0  0  0  0  0  0  0  0  0  0  0
   48.9384   35.5855   42.0798 H   0  0  0  0  0  0  0  0  0  0  0  0
   49.3933   34.7151   39.5392 H   0  0  0  0  0  0  0  0  0  0  0  0
   45.6843   32.0586   39.1414 H   0  0  0  0  0  0  0  0  0  0  0  0
   48.0321   33.6829   35.2755 H   0  0  0  0  0  0  0  0  0  0  0  0
   44.7576   30.4221   38.0549 H   0  0  0  0  0  0  0  0  0  0  0  0
   44.0896   31.0225   36.4992 H   0  0  0  0  0  0  0  0  0  0  0  0
   45.4380   29.8357   36.4992 H   0  0  0  0  0  0  0  0  0  0  0  0
  1  6  2  0
  2  1  1  0
  3  2  2  0
  3  4  1  0
  4  5  2  0
  5  6  1  0
  5  7  1  0
  7 17  1  0
  7  8  1  0
  8  9  2  0
 10 11  1  0
 10  9  1  0
 11 12  2  0
 13 11  1  0
 14 13  1  0
 15 14  1  0
 16 14  2  0
 16 17  1  0
 17 10  2  0
 18  3  1  0
 19 18  2  0
 20 19  1  0
 21 20  2  0
 21 22  1  0
 22 18  1  0
 23 21  1  0
 24 23  1  0
 25 24  2  0
 26 28  1  0
 26 25  1  0
 27 26  2  0
 28 29  1  0
 29 30  2  0
 29 23  1  0
 31 25  1  0
  1 32  1  0
  2 33  1  0
  8 34  1  0
 13 35  1  0
 15 36  1  0
 15 37  1  0
 19 38  1  0
 20 39  1  0
 24 40  1  0
 28 41  1  0
 31 42  1  0
 31 43  1  0
 31 44  1  0
M  END
>  <Score>  (1) 
-7.84256

$$$$
