
     RDKit          3D

 44 47  0  0  0  0  0  0  0  0999 V2000
   44.5700   35.8160   44.5730 C   0  0  0  0  0  0  0  0  0  0  0  0
   45.1780   35.7790   43.3040 C   0  0  0  0  0  0  0  0  0  0  0  0
   46.0980   34.7910   43.0610 C   0  0  0  0  0  0  0  0  0  0  0  0
   46.3700   33.9050   44.0570 N   0  0  0  0  0  0  0  0  0  0  0  0
   45.7720   33.9580   45.2730 C   0  0  0  0  0  0  0  0  0  0  0  0
   44.8620   34.9320   45.5220 N   0  0  0  0  0  0  0  0  0  0  0  0
   46.0860   33.0000   46.3130 C   0  0  0  0  0  0  0  0  0  0  0  0
   45.3940   33.0230   47.5160 C   0  0  0  0  0  0  0  0  0  0  0  0
   45.6460   32.1330   48.5580 C   0  0  0  0  0  0  0  0  0  0  0  0
   46.6260   31.2480   48.2830 C   0  0  0  0  0  0  0  0  0  0  0  0
   47.3470   31.1730   47.1130 C   0  0  0  0  0  0  0  0  0  0  0  0
   47.0270   32.0810   46.1660 N   0  0  0  0  0  0  0  0  0  0  0  0
   44.3800   34.0130   47.6760 N   0  0  0  0  0  0  0  0  0  0  0  0
   46.7500   34.7350   41.7310 C   0  0  0  0  0  0  0  0  0  0  0  0
   48.1100   35.4140   41.7360 C   0  0  0  0  0  0  0  0  0  0  0  0
   49.2080   34.4210   41.8120 C   0  0  0  0  0  0  0  0  0  0  0  0
   50.2870   34.6380   42.5610 N   0  0  0  0  0  0  0  0  0  0  0  0
   51.0810   33.6380   42.4570 O   0  0  0  0  0  0  0  0  0  0  0  0
   50.5580   32.7250   41.6360 C   0  0  0  0  0  0  0  0  0  0  0  0
   49.3720   33.2270   41.2320 N   0  0  0  0  0  0  0  0  0  0  0  0
   51.2530   31.5150   41.3560 N   0  0  0  0  0  0  0  0  0  0  0  0
   52.3300   31.3180   40.4380 C   0  0  0  0  0  0  0  0  0  0  0  0
   53.3300   30.2920   40.8070 C   0  0  0  0  0  0  0  0  0  0  0  0
   53.0000   29.3880   41.8520 N   0  0  0  0  0  0  0  0  0  0  0  0
   52.0970   29.9030   42.8440 C   0  0  0  0  0  0  0  0  0  0  0  0
   50.8350   30.3250   42.0780 C   0  0  0  0  0  0  0  0  0  0  0  0
   43.8298   36.6013   44.7862 H   0  0  0  0  0  0  0  0  0  0  0  0
   44.9233   36.5193   42.5313 H   0  0  0  0  0  0  0  0  0  0  0  0
   45.0989   32.1504   49.5121 H   0  0  0  0  0  0  0  0  0  0  0  0
   46.8722   30.5174   49.0676 H   0  0  0  0  0  0  0  0  0  0  0  0
   48.1345   30.4206   46.9590 H   0  0  0  0  0  0  0  0  0  0  0  0
   43.8435   34.0635   48.5538 H   0  0  0  0  0  0  0  0  0  0  0  0
   44.1841   34.6775   46.9138 H   0  0  0  0  0  0  0  0  0  0  0  0
   46.1039   35.2388   40.9970 H   0  0  0  0  0  0  0  0  0  0  0  0
   46.8987   33.6770   41.4691 H   0  0  0  0  0  0  0  0  0  0  0  0
   48.2209   36.0007   40.8121 H   0  0  0  0  0  0  0  0  0  0  0  0
   48.1694   36.0654   42.6204 H   0  0  0  0  0  0  0  0  0  0  0  0
   52.4113   31.8980   39.5069 H   0  0  0  0  0  0  0  0  0  0  0  0
   54.2983   30.2311   40.2886 H   0  0  0  0  0  0  0  0  0  0  0  0
   53.3807   28.4319   41.8955 H   0  0  0  0  0  0  0  0  0  0  0  0
   51.8549   29.1250   43.5830 H   0  0  0  0  0  0  0  0  0  0  0  0
   52.5380   30.7463   43.3957 H   0  0  0  0  0  0  0  0  0  0  0  0
   50.0134   30.5555   42.7721 H   0  0  0  0  0  0  0  0  0  0  0  0
   50.4547   29.5347   41.4140 H   0  0  0  0  0  0  0  0  0  0  0  0
  1  6  2  0
  2  1  1  0
  3  2  2  0
  3  4  1  0
  4  5  2  0
  5  6  1  0
  5  7  1  0
  7  8  2  0
  8 13  1  0
  8  9  1  0
 10  9  2  0
 11 10  1  0
 12  7  1  0
 12 11  2  0
 14 15  1  0
 14  3  1  0
 15 16  1  0
 16 17  2  0
 18 17  1  0
 19 18  1  0
 20 19  2  0
 20 16  1  0
 21 19  1  0
 21 26  1  0
 22 23  2  0
 22 21  1  0
 23 24  1  0
 24 25  1  0
 26 25  1  0
  1 27  1  0
  2 28  1  0
  9 29  1  0
 10 30  1  0
 11 31  1  0
 13 32  1  0
 13 33  1  0
 14 34  1  0
 14 35  1  0
 15 36  1  0
 15 37  1  0
 22 38  1  0
 23 39  1  0
 24 40  1  0
 25 41  1  0
 25 42  1  0
 26 43  1  0
 26 44  1  0
M  END
>  <Score>  (1) 
-7.36226

$$$$
