
     RDKit          3D

 43 46  0  0  0  0  0  0  0  0999 V2000
   44.6180   35.7300   44.3780 C   0  0  0  0  0  0  0  0  0  0  0  0
   44.6760   35.2960   43.0630 C   0  0  0  0  0  0  0  0  0  0  0  0
   45.2010   34.0330   42.8250 C   0  0  0  0  0  0  0  0  0  0  0  0
   45.6350   33.2710   43.8790 N   0  0  0  0  0  0  0  0  0  0  0  0
   45.5570   33.7380   45.1490 C   0  0  0  0  0  0  0  0  0  0  0  0
   45.0440   34.9720   45.3810 N   0  0  0  0  0  0  0  0  0  0  0  0
   45.9990   32.9480   46.2680 C   0  0  0  0  0  0  0  0  0  0  0  0
   45.4040   33.0720   47.5230 C   0  0  0  0  0  0  0  0  0  0  0  0
   45.7700   32.3470   48.6270 C   0  0  0  0  0  0  0  0  0  0  0  0
   46.7820   31.4830   48.3780 C   0  0  0  0  0  0  0  0  0  0  0  0
   47.4200   31.2990   47.1810 C   0  0  0  0  0  0  0  0  0  0  0  0
   46.9800   32.0660   46.1570 N   0  0  0  0  0  0  0  0  0  0  0  0
   44.3420   34.0250   47.6480 N   0  0  0  0  0  0  0  0  0  0  0  0
   45.2830   33.5270   41.4260 C   0  0  0  0  0  0  0  0  0  0  0  0
   46.3470   34.2010   40.6330 C   0  0  0  0  0  0  0  0  0  0  0  0
   47.6880   34.2170   41.2110 C   0  0  0  0  0  0  0  0  0  0  0  0
   48.1920   35.4060   41.7580 C   0  0  0  0  0  0  0  0  0  0  0  0
   49.4260   35.5710   42.3540 C   0  0  0  0  0  0  0  0  0  0  0  0
   50.2380   34.4630   42.4150 C   0  0  0  0  0  0  0  0  0  0  0  0
   49.8070   33.2620   41.8970 C   0  0  0  0  0  0  0  0  0  0  0  0
   50.6680   32.1870   41.9830 C   0  0  0  0  0  0  0  0  0  0  0  0
   50.2140   30.9980   41.4490 C   0  0  0  0  0  0  0  0  0  0  0  0
   48.9780   30.8510   40.8560 C   0  0  0  0  0  0  0  0  0  0  0  0
   48.1350   31.9540   40.7870 C   0  0  0  0  0  0  0  0  0  0  0  0
   48.5580   33.1520   41.3090 C   0  0  0  0  0  0  0  0  0  0  0  0
   44.2087   36.7275   44.5959 H   0  0  0  0  0  0  0  0  0  0  0  0
   44.3189   35.9294   42.2376 H   0  0  0  0  0  0  0  0  0  0  0  0
   45.2918   32.4557   49.6116 H   0  0  0  0  0  0  0  0  0  0  0  0
   47.1260   30.8672   49.2220 H   0  0  0  0  0  0  0  0  0  0  0  0
   48.2382   30.5739   47.0594 H   0  0  0  0  0  0  0  0  0  0  0  0
   43.8700   34.1542   48.5543 H   0  0  0  0  0  0  0  0  0  0  0  0
   44.0503   34.5811   46.8316 H   0  0  0  0  0  0  0  0  0  0  0  0
   45.4950   32.4480   41.4539 H   0  0  0  0  0  0  0  0  0  0  0  0
   44.3201   33.7399   40.9387 H   0  0  0  0  0  0  0  0  0  0  0  0
   46.0376   35.2456   40.4809 H   0  0  0  0  0  0  0  0  0  0  0  0
   46.4379   33.6085   39.7107 H   0  0  0  0  0  0  0  0  0  0  0  0
   47.5417   36.2917   41.7072 H   0  0  0  0  0  0  0  0  0  0  0  0
   49.7445   36.5422   42.7606 H   0  0  0  0  0  0  0  0  0  0  0  0
   51.2331   34.5360   42.8781 H   0  0  0  0  0  0  0  0  0  0  0  0
   51.6599   32.2728   42.4506 H   0  0  0  0  0  0  0  0  0  0  0  0
   50.8744   30.1197   41.4993 H   0  0  0  0  0  0  0  0  0  0  0  0
   48.6651   29.8796   40.4454 H   0  0  0  0  0  0  0  0  0  0  0  0
   47.1424   31.8686   40.3206 H   0  0  0  0  0  0  0  0  0  0  0  0
  1  6  2  0
  2  1  1  0
  3  2  2  0
  3  4  1  0
  4  5  2  0
  5  6  1  0
  5  7  1  0
  7  8  2  0
  8 13  1  0
  8  9  1  0
 10  9  2  0
 11 10  1  0
 12  7  1  0
 12 11  2  0
 14  3  1  0
 15 16  1  0
 15 14  1  0
 16 25  1  0
 16 17  2  0
 17 18  1  0
 18 19  2  0
 20 21  2  0
 20 19  1  0
 22 21  1  0
 23 22  2  0
 24 23  1  0
 24 25  2  0
 25 20  1  0
  1 26  1  0
  2 27  1  0
  9 28  1  0
 10 29  1  0
 11 30  1  0
 13 31  1  0
 13 32  1  0
 14 33  1  0
 14 34  1  0
 15 35  1  0
 15 36  1  0
 17 37  1  0
 18 38  1  0
 19 39  1  0
 21 40  1  0
 22 41  1  0
 23 42  1  0
 24 43  1  0
M  END
>  <Score>  (1) 
-7.25367

$$$$
