
     RDKit          3D

 45 49  0  0  0  0  0  0  0  0999 V2000
   44.6090   35.8380   44.9440 C   0  0  0  0  0  0  0  0  0  0  0  0
   44.1070   35.7540   43.6280 C   0  0  0  0  0  0  0  0  0  0  0  0
   44.3780   34.5980   42.9440 C   0  0  0  0  0  0  0  0  0  0  0  0
   45.0970   33.6590   43.6010 N   0  0  0  0  0  0  0  0  0  0  0  0
   45.5850   33.7170   44.8540 C   0  0  0  0  0  0  0  0  0  0  0  0
   45.2820   34.8340   45.4160 N   0  0  0  0  0  0  0  0  0  0  0  0
   46.2940   32.5290   45.2260 C   0  0  0  0  0  0  0  0  0  0  0  0
   47.0550   31.8110   44.3160 C   0  0  0  0  0  0  0  0  0  0  0  0
   47.7370   30.6610   44.6390 C   0  0  0  0  0  0  0  0  0  0  0  0
   47.6950   30.1520   45.9140 C   0  0  0  0  0  0  0  0  0  0  0  0
   46.9590   30.8310   46.8250 C   0  0  0  0  0  0  0  0  0  0  0  0
   46.9170   30.3150   48.1170 C   0  0  0  0  0  0  0  0  0  0  0  0
   46.1840   30.9570   49.1050 C   0  0  0  0  0  0  0  0  0  0  0  0
   45.4990   32.1180   48.7680 C   0  0  0  0  0  0  0  0  0  0  0  0
   45.5960   32.5540   47.4770 C   0  0  0  0  0  0  0  0  0  0  0  0
   46.2950   31.9700   46.4710 C   0  0  0  0  0  0  0  0  0  0  0  0
   43.8980   34.4080   41.5840 C   0  0  0  0  0  0  0  0  0  0  0  0
   44.5320   33.4130   40.7380 C   0  0  0  0  0  0  0  0  0  0  0  0
   43.5460   33.5720   39.1280 S   0  0  0  0  0  0  0  0  0  0  0  0
   42.5090   34.9220   39.9300 C   0  0  0  0  0  0  0  0  0  0  0  0
   42.9140   35.0310   40.9580 N   0  0  0  0  0  0  0  0  0  0  0  0
   41.4180   35.5470   39.0980 C   0  0  0  0  0  0  0  0  0  0  0  0
   40.3010   36.0590   39.9790 C   0  0  0  0  0  0  0  0  0  0  0  0
   39.3890   34.8660   40.0980 C   0  0  0  0  0  0  0  0  0  0  0  0
   39.6630   33.9600   38.9260 C   0  0  0  0  0  0  0  0  0  0  0  0
   40.8190   34.5450   38.1630 C   0  0  0  0  0  0  0  0  0  0  0  0
   44.4337   36.7348   45.5563 H   0  0  0  0  0  0  0  0  0  0  0  0
   43.5288   36.5730   43.1752 H   0  0  0  0  0  0  0  0  0  0  0  0
   47.1165   32.1804   43.2817 H   0  0  0  0  0  0  0  0  0  0  0  0
   48.3235   30.1424   43.8663 H   0  0  0  0  0  0  0  0  0  0  0  0
   48.2358   29.2327   46.1831 H   0  0  0  0  0  0  0  0  0  0  0  0
   47.4678   29.3934   48.3562 H   0  0  0  0  0  0  0  0  0  0  0  0
   46.1462   30.5570   50.1290 H   0  0  0  0  0  0  0  0  0  0  0  0
   44.9015   32.6650   49.5122 H   0  0  0  0  0  0  0  0  0  0  0  0
   45.0500   33.4755   47.2265 H   0  0  0  0  0  0  0  0  0  0  0  0
   45.3698   32.7396   40.9718 H   0  0  0  0  0  0  0  0  0  0  0  0
   41.8779   36.3722   38.5344 H   0  0  0  0  0  0  0  0  0  0  0  0
   40.6830   36.3644   40.9643 H   0  0  0  0  0  0  0  0  0  0  0  0
   39.7997   36.9487   39.5701 H   0  0  0  0  0  0  0  0  0  0  0  0
   39.5908   34.3328   41.0387 H   0  0  0  0  0  0  0  0  0  0  0  0
   38.3363   35.1850   40.0999 H   0  0  0  0  0  0  0  0  0  0  0  0
   39.9203   32.9518   39.2828 H   0  0  0  0  0  0  0  0  0  0  0  0
   38.7747   33.8800   38.2822 H   0  0  0  0  0  0  0  0  0  0  0  0
   41.5513   33.7647   37.9085 H   0  0  0  0  0  0  0  0  0  0  0  0
   40.5048   34.9977   37.2110 H   0  0  0  0  0  0  0  0  0  0  0  0
  1  6  2  0
  2  1  1  0
  3  4  1  0
  3  2  2  0
  4  5  2  0
  5  7  1  0
  5  6  1  0
  7 16  2  0
  8  9  2  0
  8  7  1  0
  9 10  1  0
 10 11  2  0
 11 12  1  0
 12 13  2  0
 14 13  1  0
 15 14  2  0
 16 11  1  0
 16 15  1  0
 17  3  1  0
 18 17  2  0
 19 20  1  0
 19 18  1  0
 20 21  2  0
 21 17  1  0
 22 20  1  0
 22 23  1  0
 23 24  1  0
 25 24  1  0
 26 25  1  0
 26 22  1  0
  1 27  1  0
  2 28  1  0
  8 29  1  0
  9 30  1  0
 10 31  1  0
 12 32  1  0
 13 33  1  0
 14 34  1  0
 15 35  1  0
 18 36  1  0
 22 37  1  0
 23 38  1  0
 23 39  1  0
 24 40  1  0
 24 41  1  0
 25 42  1  0
 25 43  1  0
 26 44  1  0
 26 45  1  0
M  END
>  <Score>  (1) 
-7.27856

$$$$
