
     RDKit          3D

 46 50  0  0  1  0  0  0  0  0999 V2000
   46.1820   33.7780   41.9930 N   0  0  0  0  0  0  0  0  0  0  0  0
   47.4760   33.9970   41.3560 C   0  0  0  0  0  0  0  0  0  0  0  0
   47.0320   34.1800   39.9180 C   0  0  0  0  0  0  0  0  0  0  0  0
   46.1300   32.9900   39.7530 C   0  0  0  0  0  0  0  0  0  0  0  0
   45.4170   32.9380   41.0650 C   0  0  2  0  0  0  0  0  0  0  0  0
   44.6290   35.8560   44.6440 C   0  0  0  0  0  0  0  0  0  0  0  0
   45.0680   35.4720   43.3750 C   0  0  0  0  0  0  0  0  0  0  0  0
   45.7110   34.2410   43.2220 C   0  0  0  0  0  0  0  0  0  0  0  0
   45.8640   33.4930   44.3490 N   0  0  0  0  0  0  0  0  0  0  0  0
   45.4380   33.8690   45.5730 C   0  0  0  0  0  0  0  0  0  0  0  0
   44.8200   35.0580   45.7050 N   0  0  0  0  0  0  0  0  0  0  0  0
   45.6500   33.0070   46.6830 N   0  0  0  0  0  0  0  0  0  0  0  0
   45.0830   33.1500   47.9000 C   0  0  0  0  0  0  0  0  0  0  0  0
   45.4950   32.1750   48.7010 N   0  0  0  0  0  0  0  0  0  0  0  0
   46.3300   31.3940   48.0220 C   0  0  0  0  0  0  0  0  0  0  0  0
   47.0440   30.2620   48.3410 C   0  0  0  0  0  0  0  0  0  0  0  0
   47.8210   29.6830   47.4230 N   0  0  0  0  0  0  0  0  0  0  0  0
   47.9140   30.1970   46.1820 C   0  0  0  0  0  0  0  0  0  0  0  0
   47.2230   31.3100   45.8410 N   0  0  0  0  0  0  0  0  0  0  0  0
   46.4350   31.9140   46.7440 C   0  0  0  0  0  0  0  0  0  0  0  0
   44.0260   33.2190   41.0350 N   0  0  0  0  0  0  0  0  0  0  0  0
   43.4030   34.1800   40.3520 C   0  0  0  0  0  0  0  0  0  0  0  0
   42.0270   34.3600   40.4030 C   0  0  0  0  0  0  0  0  0  0  0  0
   41.2490   33.5380   41.1750 C   0  0  0  0  0  0  0  0  0  0  0  0
   39.9790   33.6550   41.2600 O   0  0  0  0  0  0  0  0  0  0  0  0
   41.8850   32.5660   41.8650 N   0  0  0  0  0  0  0  0  0  0  0  0
   43.2010   32.4310   41.7870 C   0  0  0  0  0  0  0  0  0  0  0  0
   43.7020   31.4860   42.4760 O   0  0  0  0  0  0  0  0  0  0  0  0
   41.3570   35.4350   39.6340 C   0  0  0  0  0  0  0  0  0  0  0  0
   47.9767   34.8953   41.7464 H   0  0  0  0  0  0  0  0  0  0  0  0
   48.2131   33.1963   41.5156 H   0  0  0  0  0  0  0  0  0  0  0  0
   46.4862   35.1249   39.7792 H   0  0  0  0  0  0  0  0  0  0  0  0
   47.8541   34.2350   39.1892 H   0  0  0  0  0  0  0  0  0  0  0  0
   45.4239   33.1389   38.9228 H   0  0  0  0  0  0  0  0  0  0  0  0
   46.6691   32.0623   39.5106 H   0  0  0  0  0  0  0  0  0  0  0  0
   45.3928   31.8940   41.4106 H   0  0  0  0  0  0  0  0  0  0  0  0
   44.1213   36.8230   44.7747 H   0  0  0  0  0  0  0  0  0  0  0  0
   44.9097   36.1298   42.5077 H   0  0  0  0  0  0  0  0  0  0  0  0
   44.3860   33.9521   48.1843 H   0  0  0  0  0  0  0  0  0  0  0  0
   46.9746   29.8343   49.3521 H   0  0  0  0  0  0  0  0  0  0  0  0
   48.5585   29.7072   45.4372 H   0  0  0  0  0  0  0  0  0  0  0  0
   44.0020   34.8560   39.7241 H   0  0  0  0  0  0  0  0  0  0  0  0
   41.3412   31.9230   42.4580 H   0  0  0  0  0  0  0  0  0  0  0  0
   40.9065   36.1577   40.3302 H   0  0  0  0  0  0  0  0  0  0  0  0
   42.0958   35.9477   39.0005 H   0  0  0  0  0  0  0  0  0  0  0  0
   40.5713   34.9976   39.0005 H   0  0  0  0  0  0  0  0  0  0  0  0
  1  8  1  0
  2  1  1  0
  3  2  1  0
  4  3  1  0
  4  5  1  0
  5  1  1  0
  6 11  2  0
  7  6  1  0
  8  7  2  0
  8  9  1  0
  9 10  2  0
 10 11  1  0
 10 12  1  0
 12 20  1  0
 12 13  1  0
 13 14  2  0
 15 16  2  0
 15 14  1  0
 17 16  1  0
 18 17  2  0
 19 18  1  0
 19 20  2  0
 20 15  1  0
 21  5  1  0
 21 27  1  0
 22 23  2  0
 22 21  1  0
 23 24  1  0
 24 25  2  0
 24 26  1  0
 27 26  1  0
 27 28  2  0
 29 23  1  0
  2 30  1  0
  2 31  1  0
  3 32  1  0
  3 33  1  0
  4 34  1  0
  4 35  1  0
  5 36  1  1
  6 37  1  0
  7 38  1  0
 13 39  1  0
 16 40  1  0
 18 41  1  0
 22 42  1  0
 26 43  1  0
 29 44  1  0
 29 45  1  0
 29 46  1  0
M  END
>  <Score>  (1) 
-7.17446

$$$$
