
     RDKit          3D

 53 57  0  0  1  0  0  0  0  0999 V2000
   48.2340   31.9610   42.7550 C   0  0  2  0  0  0  0  0  0  0  0  0
   48.5010   31.3520   41.4300 C   0  0  0  0  0  0  0  0  0  0  0  0
   47.9330   29.9850   41.7310 C   0  0  0  0  0  0  0  0  0  0  0  0
   46.6320   30.2760   42.4150 C   0  0  0  0  0  0  0  0  0  0  0  0
   46.7950   31.6810   43.0190 C   0  0  1  0  0  0  0  0  0  0  0  0
   46.6500   31.5240   44.4560 N   0  0  0  0  0  0  0  0  0  0  0  0
   47.0600   30.4950   45.2200 C   0  0  0  0  0  0  0  0  0  0  0  0
   46.7590   30.6870   46.5060 N   0  0  0  0  0  0  0  0  0  0  0  0
   46.1310   31.8760   46.6070 C   0  0  0  0  0  0  0  0  0  0  0  0
   45.6100   32.5560   47.6930 C   0  0  0  0  0  0  0  0  0  0  0  0
   45.7070   32.0220   48.8290 O   0  0  0  0  0  0  0  0  0  0  0  0
   45.0260   33.7610   47.4670 N   0  0  0  0  0  0  0  0  0  0  0  0
   44.9690   34.2560   46.2050 C   0  0  0  0  0  0  0  0  0  0  0  0
   44.3250   35.5230   46.1470 N   0  0  0  0  0  0  0  0  0  0  0  0
   45.4770   33.5900   45.1520 N   0  0  0  0  0  0  0  0  0  0  0  0
   46.0660   32.3920   45.3290 C   0  0  0  0  0  0  0  0  0  0  0  0
   48.5120   33.3670   42.7600 C   0  0  0  0  0  0  0  0  0  0  0  0
   49.7070   33.4450   43.0230 O   0  0  0  0  0  0  0  0  0  0  0  0
   43.4020   34.1180   40.3700 C   0  0  0  0  0  0  0  0  0  0  0  0
   42.7100   34.7880   41.3770 C   0  0  0  0  0  0  0  0  0  0  0  0
   43.4520   35.3820   42.4090 C   0  0  0  0  0  0  0  0  0  0  0  0
   44.8180   35.2730   42.3680 N   0  0  0  0  0  0  0  0  0  0  0  0
   45.4430   34.6150   41.3730 C   0  0  0  0  0  0  0  0  0  0  0  0
   44.7500   34.0640   40.4180 N   0  0  0  0  0  0  0  0  0  0  0  0
   46.8570   34.5720   41.4180 N   0  0  0  0  0  0  0  0  0  0  0  0
   47.7640   34.5030   40.3010 C   0  0  0  0  0  0  0  0  0  0  0  0
   48.8800   35.4510   40.6650 C   0  0  0  0  0  0  0  0  0  0  0  0
   48.6560   35.7280   42.0860 C   0  0  0  0  0  0  0  0  0  0  0  0
   47.7880   34.6040   42.5560 C   0  0  2  0  0  0  0  0  0  0  0  0
   42.7830   33.4910   39.2910 N   0  0  0  0  0  0  0  0  0  0  0  0
   48.8836   31.5416   43.5374 H   0  0  0  0  0  0  0  0  0  0  0  0
   49.5745   31.3176   41.1924 H   0  0  0  0  0  0  0  0  0  0  0  0
   48.0832   31.8750   40.5571 H   0  0  0  0  0  0  0  0  0  0  0  0
   47.7687   29.4169   40.8035 H   0  0  0  0  0  0  0  0  0  0  0  0
   48.6076   29.3723   42.3471 H   0  0  0  0  0  0  0  0  0  0  0  0
   45.8044   30.2619   41.6905 H   0  0  0  0  0  0  0  0  0  0  0  0
   46.3960   29.5248   43.1831 H   0  0  0  0  0  0  0  0  0  0  0  0
   46.1002   32.4429   42.6359 H   0  0  0  0  0  0  0  0  0  0  0  0
   47.5789   29.6058   44.8327 H   0  0  0  0  0  0  0  0  0  0  0  0
   44.6277   34.2974   48.2509 H   0  0  0  0  0  0  0  0  0  0  0  0
   44.2182   36.0055   45.2433 H   0  0  0  0  0  0  0  0  0  0  0  0
   43.9655   35.9579   47.0087 H   0  0  0  0  0  0  0  0  0  0  0  0
   41.6118   34.8495   41.3632 H   0  0  0  0  0  0  0  0  0  0  0  0
   42.9519   35.9199   43.2278 H   0  0  0  0  0  0  0  0  0  0  0  0
   47.2660   34.8253   39.3747 H   0  0  0  0  0  0  0  0  0  0  0  0
   48.1256   33.4806   40.1169 H   0  0  0  0  0  0  0  0  0  0  0  0
   49.8613   34.9794   40.5079 H   0  0  0  0  0  0  0  0  0  0  0  0
   48.8805   36.3627   40.0495 H   0  0  0  0  0  0  0  0  0  0  0  0
   49.6093   35.7384   42.6348 H   0  0  0  0  0  0  0  0  0  0  0  0
   48.1920   36.7115   42.2517 H   0  0  0  0  0  0  0  0  0  0  0  0
   47.3215   34.7341   43.5437 H   0  0  0  0  0  0  0  0  0  0  0  0
   41.7564   33.5034   39.2078 H   0  0  0  0  0  0  0  0  0  0  0  0
   43.3519   33.0150   38.5764 H   0  0  0  0  0  0  0  0  0  0  0  0
  1 17  1  0
  1  5  1  0
  2  3  1  0
  2  1  1  0
  3  4  1  0
  4  5  1  0
  5  6  1  0
  6  7  1  0
  6 16  1  0
  7  8  2  0
  8  9  1  0
  9 10  1  0
 10 11  2  0
 12 10  1  0
 13 12  1  0
 14 13  1  0
 15 16  1  0
 15 13  2  0
 16  9  2  0
 17 18  2  0
 19 24  2  0
 19 20  1  0
 20 21  2  0
 22 21  1  0
 23 25  1  0
 23 22  2  0
 24 23  1  0
 25 29  1  0
 26 27  1  0
 26 25  1  0
 27 28  1  0
 28 29  1  0
 29 17  1  0
 30 19  1  0
  1 31  1  1
  2 32  1  0
  2 33  1  0
  3 34  1  0
  3 35  1  0
  4 36  1  0
  4 37  1  0
  5 38  1  6
  7 39  1  0
 12 40  1  0
 14 41  1  0
 14 42  1  0
 20 43  1  0
 21 44  1  0
 26 45  1  0
 26 46  1  0
 27 47  1  0
 27 48  1  0
 28 49  1  0
 28 50  1  0
 29 51  1  1
 30 52  1  0
 30 53  1  0
M  END
>  <Score>  (1) 
-7.45269

$$$$
