
     RDKit          3D

 53 57  0  0  1  0  0  0  0  0999 V2000
   44.2010   35.6650   42.8940 C   0  0  0  0  0  0  0  0  0  0  0  0
   47.7920   35.0070   42.2940 C   0  0  0  0  0  0  0  0  0  0  0  0
   48.0360   33.8790   43.1040 C   0  0  0  0  0  0  0  0  0  0  0  0
   46.9560   33.3650   43.8460 C   0  0  0  0  0  0  0  0  0  0  0  0
   45.7800   33.9850   43.7260 N   0  0  0  0  0  0  0  0  0  0  0  0
   45.5710   35.0740   42.9360 C   0  0  0  0  0  0  0  0  0  0  0  0
   46.5790   35.5840   42.2200 N   0  0  0  0  0  0  0  0  0  0  0  0
   47.1160   32.2360   44.6830 N   0  0  0  0  0  0  0  0  0  0  0  0
   47.7760   31.0660   44.5640 C   0  0  0  0  0  0  0  0  0  0  0  0
   47.5940   30.3330   45.6790 N   0  0  0  0  0  0  0  0  0  0  0  0
   46.8220   30.9990   46.5360 C   0  0  0  0  0  0  0  0  0  0  0  0
   46.3370   30.7090   47.7990 C   0  0  0  0  0  0  0  0  0  0  0  0
   45.5510   31.6340   48.4190 N   0  0  0  0  0  0  0  0  0  0  0  0
   45.2660   32.7910   47.8060 C   0  0  0  0  0  0  0  0  0  0  0  0
   45.7350   33.0600   46.5950 N   0  0  0  0  0  0  0  0  0  0  0  0
   46.5270   32.1820   45.9140 C   0  0  0  0  0  0  0  0  0  0  0  0
   48.9520   35.5390   41.5060 C   0  0  0  0  0  0  0  0  0  0  0  0
   48.6880   35.4740   40.1700 F   0  0  0  0  0  0  0  0  0  0  0  0
   49.2210   36.8340   41.8780 F   0  0  0  0  0  0  0  0  0  0  0  0
   50.0480   34.6950   41.7230 F   0  0  0  0  0  0  0  0  0  0  0  0
   46.6300   29.5000   48.4530 N   0  0  0  0  0  0  0  0  0  0  0  0
   43.5850   35.4290   41.5510 C   0  0  0  0  0  0  0  0  0  0  0  0
   43.6970   34.0140   41.0690 C   0  0  1  0  0  0  0  0  0  0  0  0
   42.7180   32.9880   41.4730 C   0  0  0  0  0  0  0  0  0  0  0  0
   42.7550   33.5260   40.0470 C   0  0  1  0  0  0  0  0  0  0  0  0
   41.7030   34.2030   39.6380 O   0  0  0  0  0  0  0  0  0  0  0  0
   38.8810   33.0400   38.8600 N   0  0  0  0  0  0  0  0  0  0  0  0
   39.8790   32.0870   38.5240 C   0  0  0  0  0  0  0  0  0  0  0  0
   41.1410   32.6120   38.0190 C   0  0  0  0  0  0  0  0  0  0  0  0
   41.3550   34.1830   38.3070 C   0  0  1  0  0  0  0  0  0  0  0  0
   40.2030   34.8350   37.7730 C   0  0  0  0  0  0  0  0  0  0  0  0
   38.9000   34.2350   38.1010 C   0  0  0  0  0  0  0  0  0  0  0  0
   43.5773   35.1953   43.6689 H   0  0  0  0  0  0  0  0  0  0  0  0
   44.2681   36.7477   43.0762 H   0  0  0  0  0  0  0  0  0  0  0  0
   49.0334   33.4178   43.1542 H   0  0  0  0  0  0  0  0  0  0  0  0
   48.3708   30.7581   43.6914 H   0  0  0  0  0  0  0  0  0  0  0  0
   44.6318   33.5308   48.3163 H   0  0  0  0  0  0  0  0  0  0  0  0
   46.2513   29.3183   49.3935 H   0  0  0  0  0  0  0  0  0  0  0  0
   47.2235   28.7957   47.9918 H   0  0  0  0  0  0  0  0  0  0  0  0
   42.5183   35.6913   41.6088 H   0  0  0  0  0  0  0  0  0  0  0  0
   44.1367   36.0542   40.8335 H   0  0  0  0  0  0  0  0  0  0  0  0
   44.7922   34.0801   41.1471 H   0  0  0  0  0  0  0  0  0  0  0  0
   43.0490   31.9607   41.6855 H   0  0  0  0  0  0  0  0  0  0  0  0
   41.9532   32.8992   42.2587 H   0  0  0  0  0  0  0  0  0  0  0  0
   42.8977   33.1441   39.0253 H   0  0  0  0  0  0  0  0  0  0  0  0
   38.1901   32.8731   39.6055 H   0  0  0  0  0  0  0  0  0  0  0  0
   40.0996   31.5020   39.4291 H   0  0  0  0  0  0  0  0  0  0  0  0
   39.4547   31.5046   37.6929 H   0  0  0  0  0  0  0  0  0  0  0  0
   41.1726   32.4516   36.9312 H   0  0  0  0  0  0  0  0  0  0  0  0
   41.9442   32.0776   38.5475 H   0  0  0  0  0  0  0  0  0  0  0  0
   42.1527   34.7678   37.8256 H   0  0  0  0  0  0  0  0  0  0  0  0
   40.2848   35.7376   37.1497 H   0  0  0  0  0  0  0  0  0  0  0  0
   37.9634   34.7036   37.7646 H   0  0  0  0  0  0  0  0  0  0  0  0
  1  6  1  0
  2  3  2  0
  3  4  1  0
  4  8  1  0
  5  4  2  0
  6  5  1  0
  7  2  1  0
  7  6  2  0
  8 16  1  0
  9  8  1  0
  9 10  2  0
 10 11  1  0
 11 12  2  0
 12 13  1  0
 12 21  1  0
 14 13  2  0
 15 14  1  0
 16 11  1  0
 16 15  2  0
 17 20  1  0
 17 19  1  0
 17  2  1  0
 18 17  1  0
 22  1  1  0
 23 24  1  0
 23 22  1  0
 25 23  1  0
 25 24  1  0
 26 25  1  0
 28 27  1  0
 29 30  1  0
 29 28  1  0
 30 26  1  0
 31 32  2  0
 31 30  1  0
 32 27  1  0
  1 33  1  0
  1 34  1  0
  3 35  1  0
  9 36  1  0
 14 37  1  0
 21 38  1  0
 21 39  1  0
 22 40  1  0
 22 41  1  0
 23 42  1  6
 24 43  1  0
 24 44  1  0
 25 45  1  6
 27 46  1  0
 28 47  1  0
 28 48  1  0
 29 49  1  0
 29 50  1  0
 30 51  1  6
 31 52  1  0
 32 53  1  0
M  END
>  <Score>  (1) 
-7.54285

$$$$
