
     RDKit          3D

 37 41  0  0  0  0  0  0  0  0999 V2000
   44.5660   35.9360   44.3950 C   0  0  0  0  0  0  0  0  0  0  0  0
   45.3700   35.9070   43.2160 C   0  0  0  0  0  0  0  0  0  0  0  0
   46.3180   34.8730   43.1360 C   0  0  0  0  0  0  0  0  0  0  0  0
   46.4220   33.9750   44.1580 N   0  0  0  0  0  0  0  0  0  0  0  0
   45.6360   34.0560   45.2430 C   0  0  0  0  0  0  0  0  0  0  0  0
   44.7150   35.0200   45.3730 N   0  0  0  0  0  0  0  0  0  0  0  0
   47.1110   34.8600   41.9530 N   0  0  0  0  0  0  0  0  0  0  0  0
   48.3060   35.5140   41.8850 C   0  0  0  0  0  0  0  0  0  0  0  0
   48.8080   35.3130   40.6410 N   0  0  0  0  0  0  0  0  0  0  0  0
   47.9580   34.5590   39.9480 C   0  0  0  0  0  0  0  0  0  0  0  0
   48.0040   34.0760   38.6460 C   0  0  0  0  0  0  0  0  0  0  0  0
   46.9490   33.3180   38.2410 N   0  0  0  0  0  0  0  0  0  0  0  0
   45.9020   33.0430   39.0600 C   0  0  0  0  0  0  0  0  0  0  0  0
   45.8690   33.5240   40.3360 N   0  0  0  0  0  0  0  0  0  0  0  0
   46.8810   34.2670   40.7680 C   0  0  0  0  0  0  0  0  0  0  0  0
   49.0960   34.3610   37.7870 N   0  0  0  0  0  0  0  0  0  0  0  0
   45.7860   33.0710   46.3090 C   0  0  0  0  0  0  0  0  0  0  0  0
   45.2520   33.1100   47.5810 C   0  0  0  0  0  0  0  0  0  0  0  0
   45.6120   32.0130   48.2850 N   0  0  0  0  0  0  0  0  0  0  0  0
   46.3760   31.2750   47.4660 C   0  0  0  0  0  0  0  0  0  0  0  0
   46.9920   30.0690   47.6960 C   0  0  0  0  0  0  0  0  0  0  0  0
   47.7560   29.4230   46.7370 C   0  0  0  0  0  0  0  0  0  0  0  0
   47.8770   30.0630   45.5010 C   0  0  0  0  0  0  0  0  0  0  0  0
   47.2550   31.2700   45.2850 C   0  0  0  0  0  0  0  0  0  0  0  0
   46.4990   31.8920   46.2580 C   0  0  0  0  0  0  0  0  0  0  0  0
   43.8071   36.7241   44.5083 H   0  0  0  0  0  0  0  0  0  0  0  0
   45.2540   36.6521   42.4152 H   0  0  0  0  0  0  0  0  0  0  0  0
   48.7761   36.0971   42.6906 H   0  0  0  0  0  0  0  0  0  0  0  0
   45.0704   32.4250   38.6904 H   0  0  0  0  0  0  0  0  0  0  0  0
   49.1056   33.9906   36.8259 H   0  0  0  0  0  0  0  0  0  0  0  0
   49.8795   34.9384   38.1242 H   0  0  0  0  0  0  0  0  0  0  0  0
   44.6200   33.9223   47.9691 H   0  0  0  0  0  0  0  0  0  0  0  0
   45.3516   31.7889   49.2560 H   0  0  0  0  0  0  0  0  0  0  0  0
   46.8740   29.5964   48.6823 H   0  0  0  0  0  0  0  0  0  0  0  0
   48.2418   28.4568   46.9385 H   0  0  0  0  0  0  0  0  0  0  0  0
   48.4711   29.6003   44.6991 H   0  0  0  0  0  0  0  0  0  0  0  0
   47.3635   31.7561   44.3042 H   0  0  0  0  0  0  0  0  0  0  0  0
  1  6  2  0
  2  1  1  0
  3  2  2  0
  3  4  1  0
  4  5  2  0
  5  6  1  0
  5 17  1  0
  7  3  1  0
  8  7  1  0
  9  8  2  0
 10  9  1  0
 10 15  2  0
 11 10  1  0
 12 11  2  0
 12 13  1  0
 13 14  2  0
 14 15  1  0
 15  7  1  0
 16 11  1  0
 17 18  2  0
 18 19  1  0
 20 21  2  0
 20 19  1  0
 22 21  1  0
 23 22  2  0
 24 23  1  0
 24 25  2  0
 25 17  1  0
 25 20  1  0
  1 26  1  0
  2 27  1  0
  8 28  1  0
 13 29  1  0
 16 30  1  0
 16 31  1  0
 18 32  1  0
 19 33  1  0
 21 34  1  0
 22 35  1  0
 23 36  1  0
 24 37  1  0
M  END
>  <Score>  (1) 
-7.22432

$$$$
