
     RDKit          3D

 46 48  0  0  1  0  0  0  0  0999 V2000
   48.8730   33.5510   42.3350 C   0  0  2  0  0  0  0  0  0  0  0  0
   48.4850   32.3150   43.0380 C   0  0  0  0  0  0  0  0  0  0  0  0
   48.9240   31.1320   42.4260 C   0  0  0  0  0  0  0  0  0  0  0  0
   48.5790   29.9090   43.0410 C   0  0  0  0  0  0  0  0  0  0  0  0
   47.8500   29.9480   44.1790 N   0  0  0  0  0  0  0  0  0  0  0  0
   47.4490   31.1440   44.7360 C   0  0  0  0  0  0  0  0  0  0  0  0
   47.7730   32.3020   44.1550 N   0  0  0  0  0  0  0  0  0  0  0  0
   46.6950   31.2060   45.9510 N   0  0  0  0  0  0  0  0  0  0  0  0
   46.6050   30.0800   46.6610 C   0  0  0  0  0  0  0  0  0  0  0  0
   45.9140   29.9990   47.8530 C   0  0  0  0  0  0  0  0  0  0  0  0
   45.3000   31.1220   48.3200 C   0  0  0  0  0  0  0  0  0  0  0  0
   44.6200   31.2310   49.3970 O   0  0  0  0  0  0  0  0  0  0  0  0
   45.4040   32.2420   47.5940 N   0  0  0  0  0  0  0  0  0  0  0  0
   46.0800   32.2980   46.4370 C   0  0  0  0  0  0  0  0  0  0  0  0
   46.1720   33.3510   45.7610 O   0  0  0  0  0  0  0  0  0  0  0  0
   50.3450   33.8520   42.3920 C   0  0  0  0  0  0  0  0  0  0  0  0
   48.0210   34.7360   42.5860 C   0  0  0  0  0  0  0  0  0  0  0  0
   46.7360   34.6590   41.9040 C   0  0  0  0  0  0  0  0  0  0  0  0
   46.8770   33.8400   40.7530 C   0  0  0  0  0  0  0  0  0  0  0  0
   45.8270   33.5440   39.9560 C   0  0  0  0  0  0  0  0  0  0  0  0
   44.5420   34.0300   40.1990 C   0  0  0  0  0  0  0  0  0  0  0  0
   44.3720   34.8240   41.2850 C   0  0  0  0  0  0  0  0  0  0  0  0
   45.4510   35.1070   42.0900 C   0  0  0  0  0  0  0  0  0  0  0  0
   45.4510   35.9260   43.2920 N   0  0  0  0  0  0  0  0  0  0  0  0
   44.3750   35.7890   44.2130 C   0  0  0  0  0  0  0  0  0  0  0  0
   43.1490   35.7820   43.7370 N   0  0  0  0  0  0  0  0  0  0  0  0
   44.5620   35.6650   45.6180 N   0  0  0  0  0  0  0  0  0  0  0  0
   42.3290   35.6860   44.3570 H   0  0  0  0  0  0  0  0  0  0  0  0
   48.6575   33.3028   41.2852 H   0  0  0  0  0  0  0  0  0  0  0  0
   49.5163   31.1562   41.4994 H   0  0  0  0  0  0  0  0  0  0  0  0
   48.8950   28.9495   42.6057 H   0  0  0  0  0  0  0  0  0  0  0  0
   47.1034   29.1766   46.2796 H   0  0  0  0  0  0  0  0  0  0  0  0
   45.8604   29.0527   48.4113 H   0  0  0  0  0  0  0  0  0  0  0  0
   44.9452   33.0973   47.9388 H   0  0  0  0  0  0  0  0  0  0  0  0
   50.6655   33.9175   43.4422 H   0  0  0  0  0  0  0  0  0  0  0  0
   50.9032   33.0494   41.8877 H   0  0  0  0  0  0  0  0  0  0  0  0
   50.5433   34.8093   41.8877 H   0  0  0  0  0  0  0  0  0  0  0  0
   47.8408   34.8171   43.6681 H   0  0  0  0  0  0  0  0  0  0  0  0
   48.5525   35.6162   42.1951 H   0  0  0  0  0  0  0  0  0  0  0  0
   47.8688   33.4351   40.5031 H   0  0  0  0  0  0  0  0  0  0  0  0
   45.9914   32.8955   39.0828 H   0  0  0  0  0  0  0  0  0  0  0  0
   43.7006   33.7792   39.5363 H   0  0  0  0  0  0  0  0  0  0  0  0
   43.3804   35.2380   41.5201 H   0  0  0  0  0  0  0  0  0  0  0  0
   46.2152   36.5924   43.4731 H   0  0  0  0  0  0  0  0  0  0  0  0
   43.7464   35.5684   46.2396 H   0  0  0  0  0  0  0  0  0  0  0  0
   45.5130   35.6718   46.0136 H   0  0  0  0  0  0  0  0  0  0  0  0
  1 16  1  0
  1 17  1  0
  1  2  1  0
  2  7  1  0
  3  2  2  0
  3  4  1  0
  4  5  2  0
  5  6  1  0
  6  8  1  0
  7  6  2  0
  8 14  1  0
  8  9  1  0
  9 10  2  0
 10 11  1  0
 11 12  2  0
 13 11  1  0
 14 13  1  0
 15 14  2  0
 18 23  1  0
 18 17  1  0
 19 18  2  0
 20 21  2  0
 20 19  1  0
 21 22  1  0
 22 23  2  0
 23 24  1  0
 24 25  1  0
 25 27  1  0
 26 25  2  0
 26 28  1  0
  1 29  1  6
  3 30  1  0
  4 31  1  0
  9 32  1  0
 10 33  1  0
 13 34  1  0
 16 35  1  0
 16 36  1  0
 16 37  1  0
 17 38  1  0
 17 39  1  0
 19 40  1  0
 20 41  1  0
 21 42  1  0
 22 43  1  0
 24 44  1  0
 27 45  1  0
 27 46  1  0
M  END
>  <Score>  (1) 
-7.07511

$$$$
