
     RDKit          3D

 41 44  0  0  0  0  0  0  0  0999 V2000
   44.5040   35.8800   44.8860 C   0  0  0  0  0  0  0  0  0  0  0  0
   45.0750   35.8880   43.6270 C   0  0  0  0  0  0  0  0  0  0  0  0
   45.9610   34.9190   43.1890 C   0  0  0  0  0  0  0  0  0  0  0  0
   46.2160   33.9530   44.1360 N   0  0  0  0  0  0  0  0  0  0  0  0
   45.6610   33.9420   45.3660 C   0  0  0  0  0  0  0  0  0  0  0  0
   44.8220   34.8990   45.7150 N   0  0  0  0  0  0  0  0  0  0  0  0
   46.0120   32.8750   46.2470 N   0  0  0  0  0  0  0  0  0  0  0  0
   45.3430   32.7470   47.4130 C   0  0  0  0  0  0  0  0  0  0  0  0
   45.6880   31.7150   48.2520 C   0  0  0  0  0  0  0  0  0  0  0  0
   46.7020   30.8610   47.8570 C   0  0  0  0  0  0  0  0  0  0  0  0
   47.0400   29.9010   48.6150 O   0  0  0  0  0  0  0  0  0  0  0  0
   47.3440   31.0310   46.6760 N   0  0  0  0  0  0  0  0  0  0  0  0
   46.9840   32.0420   45.8870 C   0  0  0  0  0  0  0  0  0  0  0  0
   47.6120   32.1490   44.8080 O   0  0  0  0  0  0  0  0  0  0  0  0
   46.6500   34.7640   41.9460 C   0  0  0  0  0  0  0  0  0  0  0  0
   47.8940   35.3830   41.8170 C   0  0  0  0  0  0  0  0  0  0  0  0
   48.6760   35.3150   40.6880 C   0  0  0  0  0  0  0  0  0  0  0  0
   48.2230   34.6000   39.6080 C   0  0  0  0  0  0  0  0  0  0  0  0
   46.9920   33.9580   39.6640 C   0  0  0  0  0  0  0  0  0  0  0  0
   46.5300   33.2420   38.5920 C   0  0  0  0  0  0  0  0  0  0  0  0
   45.3070   32.5900   38.6160 C   0  0  0  0  0  0  0  0  0  0  0  0
   44.5880   32.7130   39.7920 C   0  0  0  0  0  0  0  0  0  0  0  0
   45.0880   33.4380   40.8380 C   0  0  0  0  0  0  0  0  0  0  0  0
   46.2810   34.0770   40.8230 C   0  0  0  0  0  0  0  0  0  0  0  0
   44.2130   33.4610   41.9610 N   0  0  0  0  0  0  0  0  0  0  0  0
   45.0160   31.4880   49.5550 C   0  0  0  0  0  0  0  0  0  0  0  0
   43.8022   36.6701   45.1912 H   0  0  0  0  0  0  0  0  0  0  0  0
   44.8121   36.7051   42.9391 H   0  0  0  0  0  0  0  0  0  0  0  0
   44.5424   33.4509   47.6842 H   0  0  0  0  0  0  0  0  0  0  0  0
   48.0981   30.3890   46.3930 H   0  0  0  0  0  0  0  0  0  0  0  0
   48.2729   35.9617   42.6723 H   0  0  0  0  0  0  0  0  0  0  0  0
   49.6495   35.8258   40.6512 H   0  0  0  0  0  0  0  0  0  0  0  0
   48.8353   34.5350   38.6965 H   0  0  0  0  0  0  0  0  0  0  0  0
   47.1483   33.1824   37.6842 H   0  0  0  0  0  0  0  0  0  0  0  0
   44.9329   32.0132   37.7573 H   0  0  0  0  0  0  0  0  0  0  0  0
   43.6072   32.2240   39.8860 H   0  0  0  0  0  0  0  0  0  0  0  0
   44.4805   33.9762   42.8118 H   0  0  0  0  0  0  0  0  0  0  0  0
   43.3125   32.9624   41.9226 H   0  0  0  0  0  0  0  0  0  0  0  0
   45.7129   31.7234   50.3729 H   0  0  0  0  0  0  0  0  0  0  0  0
   44.1310   32.1370   49.6291 H   0  0  0  0  0  0  0  0  0  0  0  0
   44.7059   30.4352   49.6291 H   0  0  0  0  0  0  0  0  0  0  0  0
  1  6  2  0
  2  1  1  0
  3  2  2  0
  3  4  1  0
  4  5  2  0
  5  6  1  0
  5  7  1  0
  7  8  1  0
  8  9  2  0
  9 26  1  0
 10  9  1  0
 10 11  2  0
 12 10  1  0
 13  7  1  0
 13 12  1  0
 14 13  2  0
 15  3  1  0
 16 15  2  0
 17 16  1  0
 18 19  1  0
 18 17  2  0
 19 24  2  0
 20 21  2  0
 20 19  1  0
 21 22  1  0
 22 23  2  0
 23 25  1  0
 24 23  1  0
 24 15  1  0
  1 27  1  0
  2 28  1  0
  8 29  1  0
 12 30  1  0
 16 31  1  0
 17 32  1  0
 18 33  1  0
 20 34  1  0
 21 35  1  0
 22 36  1  0
 25 37  1  0
 25 38  1  0
 26 39  1  0
 26 40  1  0
 26 41  1  0
M  END
>  <Score>  (1) 
-8.0935

$$$$
