
     RDKit          3D

 42 46  0  0  0  0  0  0  0  0999 V2000
   44.9670   34.0070   40.8020 C   0  0  0  0  0  0  0  0  0  0  0  0
   44.5750   34.4360   42.0690 C   0  0  0  0  0  0  0  0  0  0  0  0
   45.5540   35.0680   42.8340 C   0  0  0  0  0  0  0  0  0  0  0  0
   46.8000   35.2240   42.3100 N   0  0  0  0  0  0  0  0  0  0  0  0
   47.1360   34.7930   41.0770 C   0  0  0  0  0  0  0  0  0  0  0  0
   46.2130   34.1940   40.3500 N   0  0  0  0  0  0  0  0  0  0  0  0
   48.4980   34.9840   40.5560 C   0  0  0  0  0  0  0  0  0  0  0  0
   48.4640   34.9190   39.1570 F   0  0  0  0  0  0  0  0  0  0  0  0
   49.3130   33.9560   40.9860 F   0  0  0  0  0  0  0  0  0  0  0  0
   49.1020   36.1610   40.9930 F   0  0  0  0  0  0  0  0  0  0  0  0
   45.2940   35.5730   44.1820 C   0  0  0  0  0  0  0  0  0  0  0  0
   44.7680   34.4670   45.0770 C   0  0  0  0  0  0  0  0  0  0  0  0
   45.8010   33.5130   45.3860 N   0  0  0  0  0  0  0  0  0  0  0  0
   46.7900   33.0370   44.6070 C   0  0  0  0  0  0  0  0  0  0  0  0
   47.5030   32.1660   45.3450 N   0  0  0  0  0  0  0  0  0  0  0  0
   46.9630   32.1030   46.5690 C   0  0  0  0  0  0  0  0  0  0  0  0
   47.3920   31.3280   47.6340 C   0  0  0  0  0  0  0  0  0  0  0  0
   46.6790   31.4310   48.7930 N   0  0  0  0  0  0  0  0  0  0  0  0
   45.6040   32.2720   48.8430 C   0  0  0  0  0  0  0  0  0  0  0  0
   45.2070   33.0160   47.7900 N   0  0  0  0  0  0  0  0  0  0  0  0
   45.8900   32.9460   46.6110 C   0  0  0  0  0  0  0  0  0  0  0  0
   43.7470   33.1770   39.7510 S   0  0  0  0  0  0  0  0  0  0  0  0
   39.2770   33.2430   41.8440 N   0  0  0  0  0  0  0  0  0  0  0  0
   39.9590   32.1120   42.1380 C   0  0  0  0  0  0  0  0  0  0  0  0
   41.1530   32.2190   41.5120 N   0  0  0  0  0  0  0  0  0  0  0  0
   41.1590   33.3840   40.8710 C   0  0  0  0  0  0  0  0  0  0  0  0
   42.1620   33.9220   40.1000 C   0  0  0  0  0  0  0  0  0  0  0  0
   42.0010   35.1320   39.5140 N   0  0  0  0  0  0  0  0  0  0  0  0
   40.8260   35.7790   39.7200 C   0  0  0  0  0  0  0  0  0  0  0  0
   39.8370   35.2440   40.4830 N   0  0  0  0  0  0  0  0  0  0  0  0
   40.0040   34.0520   41.0560 C   0  0  0  0  0  0  0  0  0  0  0  0
   43.5519   34.2845   42.4436 H   0  0  0  0  0  0  0  0  0  0  0  0
   46.2292   35.9670   44.6066 H   0  0  0  0  0  0  0  0  0  0  0  0
   44.5371   36.3689   44.1215 H   0  0  0  0  0  0  0  0  0  0  0  0
   44.3959   34.9091   46.0130 H   0  0  0  0  0  0  0  0  0  0  0  0
   43.9582   33.9446   44.5466 H   0  0  0  0  0  0  0  0  0  0  0  0
   46.9808   33.3100   43.5586 H   0  0  0  0  0  0  0  0  0  0  0  0
   48.2639   30.6627   47.5497 H   0  0  0  0  0  0  0  0  0  0  0  0
   45.0372   32.3459   49.7828 H   0  0  0  0  0  0  0  0  0  0  0  0
   38.3267   33.4553   42.1798 H   0  0  0  0  0  0  0  0  0  0  0  0
   39.6121   31.2742   42.7608 H   0  0  0  0  0  0  0  0  0  0  0  0
   40.6698   36.7642   39.2563 H   0  0  0  0  0  0  0  0  0  0  0  0
  1  2  2  0
  2  3  1  0
  3 11  1  0
  4  3  2  0
  5  4  1  0
  6  1  1  0
  6  5  2  0
  7  9  1  0
  7 10  1  0
  7  5  1  0
  8  7  1  0
 11 12  1  0
 12 13  1  0
 13 21  1  0
 14 15  2  0
 14 13  1  0
 15 16  1  0
 16 21  2  0
 16 17  1  0
 17 18  2  0
 18 19  1  0
 20 19  2  0
 21 20  1  0
 22 27  1  0
 22  1  1  0
 23 24  1  0
 25 24  2  0
 26 31  2  0
 26 25  1  0
 27 26  1  0
 28 29  1  0
 28 27  2  0
 29 30  2  0
 30 31  1  0
 31 23  1  0
  2 32  1  0
 11 33  1  0
 11 34  1  0
 12 35  1  0
 12 36  1  0
 14 37  1  0
 17 38  1  0
 19 39  1  0
 23 40  1  0
 24 41  1  0
 29 42  1  0
M  END
>  <Score>  (1) 
-7.19892

$$$$
