
     RDKit          3D

 49 54  0  0  0  0  0  0  0  0999 V2000
   44.6960   35.4600   45.2280 C   0  0  0  0  0  0  0  0  0  0  0  0
   44.2360   35.4200   43.9050 C   0  0  0  0  0  0  0  0  0  0  0  0
   44.5840   34.3430   43.0960 C   0  0  0  0  0  0  0  0  0  0  0  0
   45.3590   33.4050   43.6820 N   0  0  0  0  0  0  0  0  0  0  0  0
   45.7960   33.4470   44.9440 C   0  0  0  0  0  0  0  0  0  0  0  0
   45.4440   34.4920   45.6880 N   0  0  0  0  0  0  0  0  0  0  0  0
   46.5840   32.3180   45.0090 C   0  0  0  0  0  0  0  0  0  0  0  0
   47.3380   31.2880   44.9750 N   0  0  0  0  0  0  0  0  0  0  0  0
   48.0260   30.3210   45.0120 C   0  0  0  0  0  0  0  0  0  0  0  0
   47.8580   30.0040   46.2840 N   0  0  0  0  0  0  0  0  0  0  0  0
   47.0290   30.8180   47.0360 C   0  0  0  0  0  0  0  0  0  0  0  0
   46.9010   30.3840   48.3750 C   0  0  0  0  0  0  0  0  0  0  0  0
   46.0830   31.1070   49.1650 C   0  0  0  0  0  0  0  0  0  0  0  0
   45.4070   32.1860   48.7290 C   0  0  0  0  0  0  0  0  0  0  0  0
   45.6270   32.5000   47.4020 C   0  0  0  0  0  0  0  0  0  0  0  0
   46.4240   31.9260   46.3840 C   0  0  0  0  0  0  0  0  0  0  0  0
   44.1300   34.3210   41.7680 N   0  0  0  0  0  0  0  0  0  0  0  0
   43.0180   34.9370   41.3730 C   0  0  0  0  0  0  0  0  0  0  0  0
   42.8950   34.7000   40.0250 C   0  0  0  0  0  0  0  0  0  0  0  0
   43.9690   33.9210   39.6210 N   0  0  0  0  0  0  0  0  0  0  0  0
   44.7240   33.6960   40.7220 C   0  0  0  0  0  0  0  0  0  0  0  0
   45.9330   32.9460   40.8180 N   0  0  0  0  0  0  0  0  0  0  0  0
   41.9240   35.0050   39.0020 C   0  0  0  0  0  0  0  0  0  0  0  0
   42.1500   36.0640   38.1230 C   0  0  0  0  0  0  0  0  0  0  0  0
   41.2960   36.4560   37.1170 C   0  0  0  0  0  0  0  0  0  0  0  0
   40.1150   35.7820   36.9230 C   0  0  0  0  0  0  0  0  0  0  0  0
   39.8190   34.7260   37.7530 C   0  0  0  0  0  0  0  0  0  0  0  0
   38.6340   34.0820   37.5730 C   0  0  0  0  0  0  0  0  0  0  0  0
   38.2590   33.0410   38.3850 C   0  0  0  0  0  0  0  0  0  0  0  0
   39.1440   32.6730   39.3990 C   0  0  0  0  0  0  0  0  0  0  0  0
   40.3230   33.3640   39.5240 C   0  0  0  0  0  0  0  0  0  0  0  0
   40.7250   34.4010   38.7330 C   0  0  0  0  0  0  0  0  0  0  0  0
   44.4278   36.3053   45.8788 H   0  0  0  0  0  0  0  0  0  0  0  0
   43.6066   36.2313   43.5104 H   0  0  0  0  0  0  0  0  0  0  0  0
   48.6227   29.8358   44.2255 H   0  0  0  0  0  0  0  0  0  0  0  0
   47.4405   29.5027   48.7523 H   0  0  0  0  0  0  0  0  0  0  0  0
   45.9622   30.8012   50.2147 H   0  0  0  0  0  0  0  0  0  0  0  0
   44.7351   32.7694   49.3757 H   0  0  0  0  0  0  0  0  0  0  0  0
   45.0634   33.3828   47.0659 H   0  0  0  0  0  0  0  0  0  0  0  0
   42.3314   35.5217   42.0028 H   0  0  0  0  0  0  0  0  0  0  0  0
   46.4107   32.8530   41.7258 H   0  0  0  0  0  0  0  0  0  0  0  0
   46.3286   32.4972   39.9795 H   0  0  0  0  0  0  0  0  0  0  0  0
   43.0849   36.6310   38.2431 H   0  0  0  0  0  0  0  0  0  0  0  0
   41.5586   37.3064   36.4705 H   0  0  0  0  0  0  0  0  0  0  0  0
   39.4220   36.0799   36.1224 H   0  0  0  0  0  0  0  0  0  0  0  0
   37.9639   34.4017   36.7614 H   0  0  0  0  0  0  0  0  0  0  0  0
   37.3013   32.5189   38.2424 H   0  0  0  0  0  0  0  0  0  0  0  0
   38.9018   31.8467   40.0835 H   0  0  0  0  0  0  0  0  0  0  0  0
   41.0030   33.0554   40.3317 H   0  0  0  0  0  0  0  0  0  0  0  0
  1  6  2  0
  2  1  1  0
  3  4  1  0
  3  2  2  0
  4  5  2  0
  5  7  1  0
  5  6  1  0
  7 16  1  0
  8  7  2  0
  8  9  1  0
  9 10  2  0
 10 11  1  0
 11 12  1  0
 12 13  2  0
 14 13  1  0
 15 14  2  0
 16 11  2  0
 16 15  1  0
 17  3  1  0
 18 17  1  0
 19 18  2  0
 20 19  1  0
 20 21  2  0
 21 22  1  0
 21 17  1  0
 23 19  1  0
 24 23  2  0
 25 24  1  0
 26 25  2  0
 26 27  1  0
 27 32  2  0
 28 27  1  0
 28 29  2  0
 29 30  1  0
 30 31  2  0
 32 23  1  0
 32 31  1  0
  1 33  1  0
  2 34  1  0
  9 35  1  0
 12 36  1  0
 13 37  1  0
 14 38  1  0
 15 39  1  0
 18 40  1  0
 22 41  1  0
 22 42  1  0
 24 43  1  0
 25 44  1  0
 26 45  1  0
 28 46  1  0
 29 47  1  0
 30 48  1  0
 31 49  1  0
M  END
>  <Score>  (1) 
-8.24263

$$$$
