
     RDKit          3D

 39 41  0  0  0  0  0  0  0  0999 V2000
   45.5800   35.1470   42.7210 C   0  0  0  0  0  0  0  0  0  0  0  0
   46.7210   34.9610   41.9290 C   0  0  0  0  0  0  0  0  0  0  0  0
   47.7320   34.1750   42.4470 C   0  0  0  0  0  0  0  0  0  0  0  0
   47.5950   33.6280   43.6650 N   0  0  0  0  0  0  0  0  0  0  0  0
   46.4950   33.8210   44.4050 C   0  0  0  0  0  0  0  0  0  0  0  0
   45.5100   34.5670   43.9380 N   0  0  0  0  0  0  0  0  0  0  0  0
   46.2710   33.2810   45.7010 N   0  0  0  0  0  0  0  0  0  0  0  0
   46.9720   32.2650   46.2250 C   0  0  0  0  0  0  0  0  0  0  0  0
   46.6590   31.8270   47.5040 C   0  0  0  0  0  0  0  0  0  0  0  0
   45.6370   32.4350   48.2200 C   0  0  0  0  0  0  0  0  0  0  0  0
   45.3900   32.0060   49.3740 O   0  0  0  0  0  0  0  0  0  0  0  0
   44.9820   33.4500   47.6180 N   0  0  0  0  0  0  0  0  0  0  0  0
   45.2770   33.8780   46.3860 C   0  0  0  0  0  0  0  0  0  0  0  0
   44.5540   34.8390   45.9890 O   0  0  0  0  0  0  0  0  0  0  0  0
   44.5730   35.9210   42.2180 O   0  0  0  0  0  0  0  0  0  0  0  0
   43.3570   35.4050   41.8680 C   0  0  0  0  0  0  0  0  0  0  0  0
   42.3120   35.4410   42.5930 O   0  0  0  0  0  0  0  0  0  0  0  0
   42.3710   34.7050   40.9820 C   0  0  0  0  0  0  0  0  0  0  0  0
   42.6550   34.9900   39.5240 C   0  0  0  0  0  0  0  0  0  0  0  0
   41.5400   34.3180   38.7510 C   0  0  0  0  0  0  0  0  0  0  0  0
   40.3150   35.2020   38.8370 C   0  0  0  0  0  0  0  0  0  0  0  0
   40.3740   35.9900   40.1470 C   0  0  0  0  0  0  0  0  0  0  0  0
   40.9510   35.0890   41.2400 C   0  0  0  0  0  0  0  0  0  0  0  0
   46.8081   35.4226   40.9343 H   0  0  0  0  0  0  0  0  0  0  0  0
   48.6470   33.9979   41.8627 H   0  0  0  0  0  0  0  0  0  0  0  0
   47.7802   31.7876   45.6516 H   0  0  0  0  0  0  0  0  0  0  0  0
   47.2226   30.9953   47.9519 H   0  0  0  0  0  0  0  0  0  0  0  0
   44.2201   33.9162   48.1310 H   0  0  0  0  0  0  0  0  0  0  0  0
   42.4942   33.6373   41.2162 H   0  0  0  0  0  0  0  0  0  0  0  0
   42.6520   36.0740   39.3373 H   0  0  0  0  0  0  0  0  0  0  0  0
   43.6433   34.6134   39.2215 H   0  0  0  0  0  0  0  0  0  0  0  0
   41.3217   33.3333   39.1901 H   0  0  0  0  0  0  0  0  0  0  0  0
   41.8350   34.1736   37.7012 H   0  0  0  0  0  0  0  0  0  0  0  0
   40.2999   35.8985   37.9857 H   0  0  0  0  0  0  0  0  0  0  0  0
   39.4040   34.5862   38.8091 H   0  0  0  0  0  0  0  0  0  0  0  0
   41.0172   36.8731   40.0184 H   0  0  0  0  0  0  0  0  0  0  0  0
   39.3635   36.3198   40.4300 H   0  0  0  0  0  0  0  0  0  0  0  0
   40.3440   34.1734   41.2978 H   0  0  0  0  0  0  0  0  0  0  0  0
   40.9264   35.6544   42.1833 H   0  0  0  0  0  0  0  0  0  0  0  0
  1  6  2  0
  2  3  2  0
  2  1  1  0
  3  4  1  0
  4  5  2  0
  5  7  1  0
  6  5  1  0
  7  8  1  0
  7 13  1  0
  8  9  2  0
  9 10  1  0
 10 11  2  0
 12 10  1  0
 13 12  1  0
 14 13  2  0
 15  1  1  0
 16 15  1  0
 16 17  2  0
 18 23  1  0
 18 16  1  0
 19 18  1  0
 20 21  1  0
 20 19  1  0
 21 22  1  0
 22 23  1  0
  2 24  1  0
  3 25  1  0
  8 26  1  0
  9 27  1  0
 12 28  1  0
 18 29  1  0
 19 30  1  0
 19 31  1  0
 20 32  1  0
 20 33  1  0
 21 34  1  0
 21 35  1  0
 22 36  1  0
 22 37  1  0
 23 38  1  0
 23 39  1  0
M  END
>  <Score>  (1) 
-7.03123

$$$$
