
     RDKit          3D

 38 42  0  0  0  0  0  0  0  0999 V2000
   44.7410   35.5580   45.0480 C   0  0  0  0  0  0  0  0  0  0  0  0
   44.2660   35.5630   43.7210 C   0  0  0  0  0  0  0  0  0  0  0  0
   44.5010   34.4480   42.9250 C   0  0  0  0  0  0  0  0  0  0  0  0
   45.1840   33.3930   43.4640 N   0  0  0  0  0  0  0  0  0  0  0  0
   45.6270   33.4210   44.7430 C   0  0  0  0  0  0  0  0  0  0  0  0
   45.4120   34.4890   45.5320 N   0  0  0  0  0  0  0  0  0  0  0  0
   46.3390   32.3380   45.3260 N   0  0  0  0  0  0  0  0  0  0  0  0
   47.2730   31.6510   44.6170 C   0  0  0  0  0  0  0  0  0  0  0  0
   47.8100   30.6770   45.3720 N   0  0  0  0  0  0  0  0  0  0  0  0
   47.2370   30.7130   46.5780 C   0  0  0  0  0  0  0  0  0  0  0  0
   47.3030   30.0390   47.7860 C   0  0  0  0  0  0  0  0  0  0  0  0
   48.1300   29.0830   47.8540 O   0  0  0  0  0  0  0  0  0  0  0  0
   46.5100   30.3980   48.8350 N   0  0  0  0  0  0  0  0  0  0  0  0
   45.6440   31.4010   48.7580 C   0  0  0  0  0  0  0  0  0  0  0  0
   44.8390   31.7450   49.8650 N   0  0  0  0  0  0  0  0  0  0  0  0
   45.5390   32.0980   47.5940 N   0  0  0  0  0  0  0  0  0  0  0  0
   46.3270   31.7480   46.5350 C   0  0  0  0  0  0  0  0  0  0  0  0
   44.0140   34.4450   41.5570 C   0  0  0  0  0  0  0  0  0  0  0  0
   44.6840   34.0040   40.4260 C   0  0  0  0  0  0  0  0  0  0  0  0
   43.9040   34.1630   39.3410 N   0  0  0  0  0  0  0  0  0  0  0  0
   42.7360   34.7020   39.7610 C   0  0  0  0  0  0  0  0  0  0  0  0
   41.6120   35.0560   39.0410 C   0  0  0  0  0  0  0  0  0  0  0  0
   40.5510   35.5900   39.7230 C   0  0  0  0  0  0  0  0  0  0  0  0
   40.5110   35.8100   41.1030 C   0  0  0  0  0  0  0  0  0  0  0  0
   41.6690   35.4310   41.7490 C   0  0  0  0  0  0  0  0  0  0  0  0
   42.7660   34.8960   41.1520 C   0  0  0  0  0  0  0  0  0  0  0  0
   44.5644   36.4303   45.6945 H   0  0  0  0  0  0  0  0  0  0  0  0
   43.7205   36.4315   43.3234 H   0  0  0  0  0  0  0  0  0  0  0  0
   47.5502   31.8620   43.5736 H   0  0  0  0  0  0  0  0  0  0  0  0
   46.5854   29.8728   49.7179 H   0  0  0  0  0  0  0  0  0  0  0  0
   44.1706   32.5254   49.7930 H   0  0  0  0  0  0  0  0  0  0  0  0
   44.9199   31.2157   50.7449 H   0  0  0  0  0  0  0  0  0  0  0  0
   45.7016   33.5864   40.4170 H   0  0  0  0  0  0  0  0  0  0  0  0
   44.1503   33.9196   38.3709 H   0  0  0  0  0  0  0  0  0  0  0  0
   41.5700   34.9132   37.9511 H   0  0  0  0  0  0  0  0  0  0  0  0
   39.6609   35.8674   39.1393 H   0  0  0  0  0  0  0  0  0  0  0  0
   39.6426   36.2422   41.6218 H   0  0  0  0  0  0  0  0  0  0  0  0
   41.7078   35.5738   42.8390 H   0  0  0  0  0  0  0  0  0  0  0  0
  1  6  2  0
  2  1  1  0
  3  4  1  0
  3  2  2  0
  4  5  2  0
  5  7  1  0
  5  6  1  0
  7 17  1  0
  8  7  1  0
  8  9  2  0
  9 10  1  0
 10 11  1  0
 11 12  2  0
 11 13  1  0
 14 13  1  0
 14 15  1  0
 16 14  2  0
 17 10  2  0
 17 16  1  0
 18  3  1  0
 19 18  2  0
 20 21  1  0
 20 19  1  0
 21 26  2  0
 22 23  2  0
 22 21  1  0
 23 24  1  0
 24 25  2  0
 26 18  1  0
 26 25  1  0
  1 27  1  0
  2 28  1  0
  8 29  1  0
 13 30  1  0
 15 31  1  0
 15 32  1  0
 19 33  1  0
 20 34  1  0
 22 35  1  0
 23 36  1  0
 24 37  1  0
 25 38  1  0
M  END
>  <Score>  (1) 
-8.11606

$$$$
