
     RDKit          3D

 43 46  0  0  0  0  0  0  0  0999 V2000
   46.9730   34.6840   41.9580 C   0  0  0  0  0  0  0  0  0  0  0  0
   48.2050   35.2560   41.6880 C   0  0  0  0  0  0  0  0  0  0  0  0
   48.4360   34.9050   40.3590 C   0  0  0  0  0  0  0  0  0  0  0  0
   47.3440   34.1520   39.9110 C   0  0  0  0  0  0  0  0  0  0  0  0
   46.5000   34.0570   40.9210 O   0  0  0  0  0  0  0  0  0  0  0  0
   47.1890   33.6050   38.6190 N   0  0  0  0  0  0  0  0  0  0  0  0
   46.3190   32.5900   38.4590 C   0  0  0  0  0  0  0  0  0  0  0  0
   46.1410   32.0250   37.2090 C   0  0  0  0  0  0  0  0  0  0  0  0
   46.8550   32.5040   36.1410 C   0  0  0  0  0  0  0  0  0  0  0  0
   46.6740   31.9720   35.0160 O   0  0  0  0  0  0  0  0  0  0  0  0
   47.7130   33.5210   36.3550 N   0  0  0  0  0  0  0  0  0  0  0  0
   47.8830   34.0740   37.5870 C   0  0  0  0  0  0  0  0  0  0  0  0
   48.6990   35.0190   37.7210 O   0  0  0  0  0  0  0  0  0  0  0  0
   45.1630   30.9060   37.1180 C   0  0  0  0  0  0  0  0  0  0  0  0
   44.5920   35.7270   44.6200 C   0  0  0  0  0  0  0  0  0  0  0  0
   45.2790   35.7100   43.3680 C   0  0  0  0  0  0  0  0  0  0  0  0
   46.2440   34.7420   43.2200 C   0  0  0  0  0  0  0  0  0  0  0  0
   46.4890   33.8770   44.2400 N   0  0  0  0  0  0  0  0  0  0  0  0
   45.8130   33.9330   45.4060 C   0  0  0  0  0  0  0  0  0  0  0  0
   44.8530   34.8690   45.5980 N   0  0  0  0  0  0  0  0  0  0  0  0
   46.0970   32.9710   46.5210 C   0  0  0  0  0  0  0  0  0  0  0  0
   46.0190   31.5390   46.0050 C   0  0  0  0  0  0  0  0  0  0  0  0
   45.7540   30.7200   47.2500 C   0  0  0  0  0  0  0  0  0  0  0  0
   45.2960   31.6740   48.3100 C   0  0  0  0  0  0  0  0  0  0  0  0
   45.0970   33.0330   47.6280 C   0  0  0  0  0  0  0  0  0  0  0  0
   48.8464   35.8451   42.3601 H   0  0  0  0  0  0  0  0  0  0  0  0
   49.3223   35.1731   39.7653 H   0  0  0  0  0  0  0  0  0  0  0  0
   45.7506   32.2106   39.3210 H   0  0  0  0  0  0  0  0  0  0  0  0
   48.2566   33.8910   35.5622 H   0  0  0  0  0  0  0  0  0  0  0  0
   44.8804   30.5827   38.1307 H   0  0  0  0  0  0  0  0  0  0  0  0
   44.2668   31.2453   36.5780 H   0  0  0  0  0  0  0  0  0  0  0  0
   45.6193   30.0632   36.5780 H   0  0  0  0  0  0  0  0  0  0  0  0
   43.8115   36.4853   44.7808 H   0  0  0  0  0  0  0  0  0  0  0  0
   45.0493   36.4297   42.5685 H   0  0  0  0  0  0  0  0  0  0  0  0
   47.0931   33.2518   46.8937 H   0  0  0  0  0  0  0  0  0  0  0  0
   45.1985   31.4277   45.2808 H   0  0  0  0  0  0  0  0  0  0  0  0
   46.9322   31.2269   45.4771 H   0  0  0  0  0  0  0  0  0  0  0  0
   44.9724   29.9719   47.0512 H   0  0  0  0  0  0  0  0  0  0  0  0
   46.6601   30.1837   47.5683 H   0  0  0  0  0  0  0  0  0  0  0  0
   44.3480   31.3274   48.7472 H   0  0  0  0  0  0  0  0  0  0  0  0
   46.0341   31.7448   49.1225 H   0  0  0  0  0  0  0  0  0  0  0  0
   45.3141   33.8623   48.3174 H   0  0  0  0  0  0  0  0  0  0  0  0
   44.0668   33.2127   47.2869 H   0  0  0  0  0  0  0  0  0  0  0  0
  1 17  1  0
  2  1  2  0
  3  2  1  0
  4  3  2  0
  4  5  1  0
  5  1  1  0
  6  4  1  0
  7  6  1  0
  8  7  2  0
  9 11  1  0
  9  8  1  0
 10  9  2  0
 11 12  1  0
 12 13  2  0
 12  6  1  0
 14  8  1  0
 15 20  2  0
 16 15  1  0
 17 16  2  0
 17 18  1  0
 18 19  2  0
 19 20  1  0
 19 21  1  0
 21 25  1  0
 22 21  1  0
 22 23  1  0
 23 24  1  0
 25 24  1  0
  2 26  1  0
  3 27  1  0
  7 28  1  0
 11 29  1  0
 14 30  1  0
 14 31  1  0
 14 32  1  0
 15 33  1  0
 16 34  1  0
 21 35  1  0
 22 36  1  0
 22 37  1  0
 23 38  1  0
 23 39  1  0
 24 40  1  0
 24 41  1  0
 25 42  1  0
 25 43  1  0
M  END
>  <Score>  (1) 
-7.21475

$$$$
