
     RDKit          3D

 51 56  0  0  1  0  0  0  0  0999 V2000
   45.7710   33.8520   45.4920 C   0  0  0  0  0  0  0  0  0  0  0  0
   46.5720   33.8440   44.3540 C   0  0  0  0  0  0  0  0  0  0  0  0
   46.3540   34.8000   43.3660 C   0  0  0  0  0  0  0  0  0  0  0  0
   45.3660   35.7100   43.5480 N   0  0  0  0  0  0  0  0  0  0  0  0
   44.5980   35.7020   44.6620 C   0  0  0  0  0  0  0  0  0  0  0  0
   44.8050   34.7760   45.6230 N   0  0  0  0  0  0  0  0  0  0  0  0
   47.1990   34.7780   42.1830 C   0  0  0  0  0  0  0  0  0  0  0  0
   48.4830   35.3180   42.0670 C   0  0  0  0  0  0  0  0  0  0  0  0
   48.9480   35.1080   40.8280 N   0  0  0  0  0  0  0  0  0  0  0  0
   47.9830   34.4430   40.1490 C   0  0  0  0  0  0  0  0  0  0  0  0
   47.9560   33.9850   38.8360 C   0  0  0  0  0  0  0  0  0  0  0  0
   46.8510   33.3270   38.3710 C   0  0  0  0  0  0  0  0  0  0  0  0
   45.7160   33.0810   39.1590 C   0  0  0  0  0  0  0  0  0  0  0  0
   45.8090   33.5630   40.4530 C   0  0  0  0  0  0  0  0  0  0  0  0
   46.8720   34.2170   40.9620 C   0  0  0  0  0  0  0  0  0  0  0  0
   45.9330   32.9370   46.5060 O   0  0  0  0  0  0  0  0  0  0  0  0
   45.0670   32.7550   47.5890 C   0  0  1  0  0  0  0  0  0  0  0  0
   44.7990   31.3450   47.9840 C   0  0  0  0  0  0  0  0  0  0  0  0
   45.7030   32.2380   48.8390 C   0  0  1  0  0  0  0  0  0  0  0  0
   47.1590   31.8950   48.8010 C   0  0  0  0  0  0  0  0  0  0  0  0
   47.9480   32.6440   48.1610 O   0  0  0  0  0  0  0  0  0  0  0  0
   47.7720   30.8270   49.3840 O   0  0  0  0  0  0  0  0  0  0  0  0
   48.9390   30.3500   48.7590 C   0  0  0  0  0  0  0  0  0  0  0  0
   48.7990   29.6400   47.5610 C   0  0  0  0  0  0  0  0  0  0  0  0
   49.9180   29.1380   46.8870 C   0  0  0  0  0  0  0  0  0  0  0  0
   51.1880   29.3540   47.4300 C   0  0  0  0  0  0  0  0  0  0  0  0
   51.3250   30.0590   48.6160 C   0  0  0  0  0  0  0  0  0  0  0  0
   52.5530   30.3040   49.2010 C   0  0  0  0  0  0  0  0  0  0  0  0
   52.6750   31.0130   50.3940 C   0  0  0  0  0  0  0  0  0  0  0  0
   51.5090   31.4780   51.0000 C   0  0  0  0  0  0  0  0  0  0  0  0
   50.2790   31.2480   50.4410 C   0  0  0  0  0  0  0  0  0  0  0  0
   50.1950   30.5360   49.2480 C   0  0  0  0  0  0  0  0  0  0  0  0
   47.3666   33.0924   44.2368 H   0  0  0  0  0  0  0  0  0  0  0  0
   43.8027   36.4519   44.7852 H   0  0  0  0  0  0  0  0  0  0  0  0
   49.0282   35.8360   42.8698 H   0  0  0  0  0  0  0  0  0  0  0  0
   49.8659   35.3976   40.4612 H   0  0  0  0  0  0  0  0  0  0  0  0
   48.8193   34.1512   38.1748 H   0  0  0  0  0  0  0  0  0  0  0  0
   46.8518   32.9736   37.3293 H   0  0  0  0  0  0  0  0  0  0  0  0
   44.8293   32.5510   38.7809 H   0  0  0  0  0  0  0  0  0  0  0  0
   44.9482   33.3996   41.1180 H   0  0  0  0  0  0  0  0  0  0  0  0
   44.4268   33.6161   47.3467 H   0  0  0  0  0  0  0  0  0  0  0  0
   43.8037   31.0544   48.3513 H   0  0  0  0  0  0  0  0  0  0  0  0
   44.9033   30.3636   47.4982 H   0  0  0  0  0  0  0  0  0  0  0  0
   45.7344   32.5811   49.8836 H   0  0  0  0  0  0  0  0  0  0  0  0
   47.7950   29.4742   47.1432 H   0  0  0  0  0  0  0  0  0  0  0  0
   49.8002   28.5823   45.9450 H   0  0  0  0  0  0  0  0  0  0  0  0
   52.0791   28.9644   46.9160 H   0  0  0  0  0  0  0  0  0  0  0  0
   53.4622   29.9275   48.7094 H   0  0  0  0  0  0  0  0  0  0  0  0
   53.6612   31.2001   50.8439 H   0  0  0  0  0  0  0  0  0  0  0  0
   51.5773   32.0394   51.9435 H   0  0  0  0  0  0  0  0  0  0  0  0
   49.3676   31.6222   50.9301 H   0  0  0  0  0  0  0  0  0  0  0  0
  1  6  1  0
  1 16  1  0
  2  1  2  0
  3  4  2  0
  3  2  1  0
  4  5  1  0
  5  6  2  0
  7  3  1  0
  8  7  2  0
  9  8  1  0
 10  9  1  0
 10 15  2  0
 11 10  1  0
 12 11  2  0
 12 13  1  0
 13 14  2  0
 14 15  1  0
 15  7  1  0
 16 17  1  0
 17 18  1  0
 17 19  1  0
 18 19  1  0
 20 19  1  0
 20 22  1  0
 21 20  2  0
 23 32  1  0
 23 22  1  0
 24 23  2  0
 25 26  2  0
 25 24  1  0
 26 27  1  0
 27 28  1  0
 27 32  2  0
 28 29  2  0
 29 30  1  0
 31 30  2  0
 32 31  1  0
  2 33  1  0
  5 34  1  0
  8 35  1  0
  9 36  1  0
 11 37  1  0
 12 38  1  0
 13 39  1  0
 14 40  1  0
 17 41  1  1
 18 42  1  0
 18 43  1  0
 19 44  1  1
 24 45  1  0
 25 46  1  0
 26 47  1  0
 28 48  1  0
 29 49  1  0
 30 50  1  0
 31 51  1  0
M  END
>  <Score>  (1) 
-7.62005

$$$$
