
     RDKit          3D

 28 29  0  0  0  0  0  0  0  0999 V2000
   44.5310   36.0510   44.5780 C   0  0  0  0  0  0  0  0  0  0  0  0
   45.2020   36.0300   43.3360 C   0  0  0  0  0  0  0  0  0  0  0  0
   46.0580   34.9710   43.0750 C   0  0  0  0  0  0  0  0  0  0  0  0
   46.1910   34.0210   44.0400 N   0  0  0  0  0  0  0  0  0  0  0  0
   45.5440   34.0590   45.2160 C   0  0  0  0  0  0  0  0  0  0  0  0
   44.7120   35.0800   45.4820 N   0  0  0  0  0  0  0  0  0  0  0  0
   45.7450   33.0200   46.1690 N   0  0  0  0  0  0  0  0  0  0  0  0
   45.3260   33.2140   47.5130 C   0  0  0  0  0  0  0  0  0  0  0  0
   44.3500   34.0350   47.6810 N   0  0  0  0  0  0  0  0  0  0  0  0
   46.0220   32.4830   48.5420 N   0  0  0  0  0  0  0  0  0  0  0  0
   43.9960   34.2210   48.6450 H   0  0  0  0  0  0  0  0  0  0  0  0
   46.8010   34.8130   41.8740 N   0  0  0  0  0  0  0  0  0  0  0  0
   48.0240   35.3680   41.7370 C   0  0  0  0  0  0  0  0  0  0  0  0
   48.7120   35.1850   40.5450 C   0  0  0  0  0  0  0  0  0  0  0  0
   48.0990   34.4430   39.5670 C   0  0  0  0  0  0  0  0  0  0  0  0
   48.7110   34.1940   38.3140 N   0  0  0  0  0  0  0  0  0  0  0  0
   46.8690   33.8920   39.7230 N   0  0  0  0  0  0  0  0  0  0  0  0
   46.1980   34.0770   40.9020 C   0  0  0  0  0  0  0  0  0  0  0  0
   45.0480   33.5760   41.0760 O   0  0  0  0  0  0  0  0  0  0  0  0
   43.8464   36.8809   44.8074 H   0  0  0  0  0  0  0  0  0  0  0  0
   45.0501   36.8305   42.5970 H   0  0  0  0  0  0  0  0  0  0  0  0
   46.1904   32.1353   45.8865 H   0  0  0  0  0  0  0  0  0  0  0  0
   45.7485   32.5959   49.5286 H   0  0  0  0  0  0  0  0  0  0  0  0
   46.7928   31.8477   48.2907 H   0  0  0  0  0  0  0  0  0  0  0  0
   48.4675   35.9547   42.5550 H   0  0  0  0  0  0  0  0  0  0  0  0
   49.7111   35.6186   40.3904 H   0  0  0  0  0  0  0  0  0  0  0  0
   49.6461   34.5760   38.1126 H   0  0  0  0  0  0  0  0  0  0  0  0
   48.2209   33.6309   37.6043 H   0  0  0  0  0  0  0  0  0  0  0  0
  1  6  2  0
  2  1  1  0
  3  2  2  0
  3  4  1  0
  4  5  2  0
  5  6  1  0
  5  7  1  0
  7  8  1  0
  8  9  2  0
  8 10  1  0
  9 11  1  0
 12  3  1  0
 13 12  1  0
 14 13  2  0
 15 17  2  0
 15 14  1  0
 16 15  1  0
 17 18  1  0
 18 19  2  0
 18 12  1  0
  1 20  1  0
  2 21  1  0
  7 22  1  0
 10 23  1  0
 10 24  1  0
 13 25  1  0
 14 26  1  0
 16 27  1  0
 16 28  1  0
M  END
>  <Score>  (1) 
-7.04937

$$$$
