
     RDKit          3D

 46 50  0  0  0  0  0  0  0  0999 V2000
   46.5870   34.6420   42.1840 C   0  0  0  0  0  0  0  0  0  0  0  0
   47.7950   35.2710   42.0210 C   0  0  0  0  0  0  0  0  0  0  0  0
   48.5260   35.1580   40.8110 C   0  0  0  0  0  0  0  0  0  0  0  0
   47.9810   34.3820   39.7770 C   0  0  0  0  0  0  0  0  0  0  0  0
   46.7580   33.7510   39.9540 C   0  0  0  0  0  0  0  0  0  0  0  0
   46.0900   33.8910   41.1410 C   0  0  0  0  0  0  0  0  0  0  0  0
   44.8330   33.2330   41.3010 N   0  0  0  0  0  0  0  0  0  0  0  0
   44.6090   31.9820   41.7540 C   0  0  0  0  0  0  0  0  0  0  0  0
   43.3280   31.5020   41.8460 C   0  0  0  0  0  0  0  0  0  0  0  0
   42.2600   32.2710   41.4860 C   0  0  0  0  0  0  0  0  0  0  0  0
   41.0840   31.7900   41.5850 O   0  0  0  0  0  0  0  0  0  0  0  0
   42.5020   33.5330   41.0300 N   0  0  0  0  0  0  0  0  0  0  0  0
   43.7520   33.9930   40.9430 C   0  0  0  0  0  0  0  0  0  0  0  0
   43.8610   35.1860   40.5040 O   0  0  0  0  0  0  0  0  0  0  0  0
   41.3650   34.3020   40.6650 C   0  0  0  0  0  0  0  0  0  0  0  0
   41.3190   35.6290   41.0040 C   0  0  0  0  0  0  0  0  0  0  0  0
   40.1120   36.1550   40.5380 C   0  0  0  0  0  0  0  0  0  0  0  0
   39.4740   35.1060   39.9290 N   0  0  0  0  0  0  0  0  0  0  0  0
   40.2170   34.0290   40.0100 N   0  0  0  0  0  0  0  0  0  0  0  0
   44.4480   35.8870   45.0330 C   0  0  0  0  0  0  0  0  0  0  0  0
   45.0340   35.8220   43.7650 C   0  0  0  0  0  0  0  0  0  0  0  0
   45.9140   34.8180   43.4600 C   0  0  0  0  0  0  0  0  0  0  0  0
   46.1940   33.8900   44.4360 N   0  0  0  0  0  0  0  0  0  0  0  0
   45.6100   33.9730   45.6650 C   0  0  0  0  0  0  0  0  0  0  0  0
   44.7510   34.9550   45.9600 N   0  0  0  0  0  0  0  0  0  0  0  0
   45.9440   32.9640   46.6540 C   0  0  0  0  0  0  0  0  0  0  0  0
   45.1840   32.7740   47.7740 C   0  0  0  0  0  0  0  0  0  0  0  0
   45.4600   31.8250   48.7480 C   0  0  0  0  0  0  0  0  0  0  0  0
   46.5900   31.0200   48.5580 C   0  0  0  0  0  0  0  0  0  0  0  0
   47.3550   31.2150   47.4270 C   0  0  0  0  0  0  0  0  0  0  0  0
   46.9970   32.1640   46.5460 N   0  0  0  0  0  0  0  0  0  0  0  0
   48.2045   35.8745   42.8444 H   0  0  0  0  0  0  0  0  0  0  0  0
   49.4942   35.6651   40.6865 H   0  0  0  0  0  0  0  0  0  0  0  0
   48.5232   34.2738   38.8261 H   0  0  0  0  0  0  0  0  0  0  0  0
   46.3276   33.1419   39.1455 H   0  0  0  0  0  0  0  0  0  0  0  0
   45.4560   31.3457   42.0502 H   0  0  0  0  0  0  0  0  0  0  0  0
   43.1585   30.4801   42.2161 H   0  0  0  0  0  0  0  0  0  0  0  0
   42.0974   36.1835   41.5485 H   0  0  0  0  0  0  0  0  0  0  0  0
   39.7510   37.1892   40.6383 H   0  0  0  0  0  0  0  0  0  0  0  0
   38.5503   35.1562   39.4761 H   0  0  0  0  0  0  0  0  0  0  0  0
   43.7422   36.6956   45.2738 H   0  0  0  0  0  0  0  0  0  0  0  0
   44.7868   36.5814   43.0085 H   0  0  0  0  0  0  0  0  0  0  0  0
   44.2991   33.4127   47.9117 H   0  0  0  0  0  0  0  0  0  0  0  0
   44.8174   31.7097   49.6333 H   0  0  0  0  0  0  0  0  0  0  0  0
   46.8615   30.2493   49.2944 H   0  0  0  0  0  0  0  0  0  0  0  0
   48.2491   30.5998   47.2482 H   0  0  0  0  0  0  0  0  0  0  0  0
  1 22  1  0
  2  1  2  0
  3  2  1  0
  4  5  1  0
  4  3  2  0
  5  6  2  0
  6  7  1  0
  6  1  1  0
  7  8  1  0
  8  9  2  0
 10 11  2  0
 10  9  1  0
 12 10  1  0
 13 12  1  0
 13  7  1  0
 14 13  2  0
 15 16  1  0
 15 12  1  0
 17 16  2  0
 18 19  1  0
 18 17  1  0
 19 15  2  0
 20 25  2  0
 21 20  1  0
 22 21  2  0
 22 23  1  0
 23 24  2  0
 24 25  1  0
 24 26  1  0
 26 27  2  0
 27 28  1  0
 29 28  2  0
 30 29  1  0
 31 26  1  0
 31 30  2  0
  2 32  1  0
  3 33  1  0
  4 34  1  0
  5 35  1  0
  8 36  1  0
  9 37  1  0
 16 38  1  0
 17 39  1  0
 18 40  1  0
 20 41  1  0
 21 42  1  0
 27 43  1  0
 28 44  1  0
 29 45  1  0
 30 46  1  0
M  END
>  <Score>  (1) 
-9.002

$$$$
