
     RDKit          3D

 44 48  0  0  0  0  0  0  0  0999 V2000
   46.9980   34.7910   41.9380 C   0  0  0  0  0  0  0  0  0  0  0  0
   48.2490   35.3440   41.7150 C   0  0  0  0  0  0  0  0  0  0  0  0
   48.5720   34.9250   40.4260 C   0  0  0  0  0  0  0  0  0  0  0  0
   47.5090   34.1530   39.9520 C   0  0  0  0  0  0  0  0  0  0  0  0
   46.5820   34.0990   40.8990 O   0  0  0  0  0  0  0  0  0  0  0  0
   44.5010   36.0030   44.4130 C   0  0  0  0  0  0  0  0  0  0  0  0
   45.2700   35.9240   43.2030 C   0  0  0  0  0  0  0  0  0  0  0  0
   46.1930   34.9170   43.1390 C   0  0  0  0  0  0  0  0  0  0  0  0
   46.3370   34.0590   44.1980 N   0  0  0  0  0  0  0  0  0  0  0  0
   45.5990   34.1620   45.3200 C   0  0  0  0  0  0  0  0  0  0  0  0
   44.6740   35.1370   45.4360 N   0  0  0  0  0  0  0  0  0  0  0  0
   45.8490   33.2030   46.3370 N   0  0  0  0  0  0  0  0  0  0  0  0
   45.2030   33.1310   47.4930 N   0  0  0  0  0  0  0  0  0  0  0  0
   45.6520   32.1180   48.2440 C   0  0  0  0  0  0  0  0  0  0  0  0
   46.6660   31.4890   47.5170 C   0  0  0  0  0  0  0  0  0  0  0  0
   46.7740   32.1880   46.3190 C   0  0  0  0  0  0  0  0  0  0  0  0
   47.4520   33.5420   38.6800 N   0  0  0  0  0  0  0  0  0  0  0  0
   46.7970   32.3660   38.5800 C   0  0  0  0  0  0  0  0  0  0  0  0
   46.7020   31.7110   37.3760 C   0  0  0  0  0  0  0  0  0  0  0  0
   47.2950   32.2830   36.2650 C   0  0  0  0  0  0  0  0  0  0  0  0
   47.1930   31.6540   35.1680 O   0  0  0  0  0  0  0  0  0  0  0  0
   47.9400   33.4640   36.4140 N   0  0  0  0  0  0  0  0  0  0  0  0
   48.0120   34.0790   37.6190 C   0  0  0  0  0  0  0  0  0  0  0  0
   48.6210   35.1690   37.6910 O   0  0  0  0  0  0  0  0  0  0  0  0
   45.9530   30.4270   37.3430 C   0  0  0  0  0  0  0  0  0  0  0  0
   44.5670   30.5990   37.0100 N   0  0  0  0  0  0  0  0  0  0  0  0
   44.1160   30.2600   35.8030 N   0  0  0  0  0  0  0  0  0  0  0  0
   42.8030   30.5060   35.7220 C   0  0  0  0  0  0  0  0  0  0  0  0
   42.4470   31.0210   36.9480 C   0  0  0  0  0  0  0  0  0  0  0  0
   43.5570   31.0800   37.7630 C   0  0  0  0  0  0  0  0  0  0  0  0
   48.8468   35.9676   42.3960 H   0  0  0  0  0  0  0  0  0  0  0  0
   49.4976   35.1599   39.8800 H   0  0  0  0  0  0  0  0  0  0  0  0
   43.7448   36.7959   44.5107 H   0  0  0  0  0  0  0  0  0  0  0  0
   45.1249   36.6331   42.3747 H   0  0  0  0  0  0  0  0  0  0  0  0
   45.2912   31.8345   49.2437 H   0  0  0  0  0  0  0  0  0  0  0  0
   47.2593   30.6169   47.8290 H   0  0  0  0  0  0  0  0  0  0  0  0
   47.4762   31.9668   45.5017 H   0  0  0  0  0  0  0  0  0  0  0  0
   46.3328   31.9259   39.4749 H   0  0  0  0  0  0  0  0  0  0  0  0
   48.3846   33.9034   35.5954 H   0  0  0  0  0  0  0  0  0  0  0  0
   46.4157   29.7695   36.5922 H   0  0  0  0  0  0  0  0  0  0  0  0
   45.9993   29.9909   38.3518 H   0  0  0  0  0  0  0  0  0  0  0  0
   42.1459   30.3329   34.8570 H   0  0  0  0  0  0  0  0  0  0  0  0
   41.4327   31.3369   37.2333 H   0  0  0  0  0  0  0  0  0  0  0  0
   43.6079   31.4407   38.8009 H   0  0  0  0  0  0  0  0  0  0  0  0
  1  8  1  0
  2  1  2  0
  3  2  1  0
  4  3  2  0
  4  5  1  0
  5  1  1  0
  6 11  2  0
  7  6  1  0
  8  7  2  0
  8  9  1  0
  9 10  2  0
 10 11  1  0
 10 12  1  0
 12 13  1  0
 13 14  2  0
 15 14  1  0
 16 12  1  0
 16 15  2  0
 17  4  1  0
 18 17  1  0
 19 18  2  0
 20 22  1  0
 20 19  1  0
 21 20  2  0
 22 23  1  0
 23 24  2  0
 23 17  1  0
 25 19  1  0
 26 25  1  0
 26 30  1  0
 27 26  1  0
 28 27  2  0
 28 29  1  0
 29 30  2  0
  2 31  1  0
  3 32  1  0
  6 33  1  0
  7 34  1  0
 14 35  1  0
 15 36  1  0
 16 37  1  0
 18 38  1  0
 22 39  1  0
 25 40  1  0
 25 41  1  0
 28 42  1  0
 29 43  1  0
 30 44  1  0
M  END
>  <Score>  (1) 
-7.251

$$$$
