
     RDKit          3D

 37 41  0  0  0  0  0  0  0  0999 V2000
   44.6710   35.6650   44.4690 C   0  0  0  0  0  0  0  0  0  0  0  0
   45.4380   35.7490   43.2670 C   0  0  0  0  0  0  0  0  0  0  0  0
   46.4180   34.7910   43.1010 C   0  0  0  0  0  0  0  0  0  0  0  0
   46.5290   33.9070   44.0820 N   0  0  0  0  0  0  0  0  0  0  0  0
   45.8570   33.7810   45.2010 C   0  0  0  0  0  0  0  0  0  0  0  0
   44.8880   34.7070   45.3920 N   0  0  0  0  0  0  0  0  0  0  0  0
   47.1870   34.8540   41.9270 N   0  0  0  0  0  0  0  0  0  0  0  0
   48.3460   35.5760   41.8450 C   0  0  0  0  0  0  0  0  0  0  0  0
   48.8430   35.4570   40.5940 N   0  0  0  0  0  0  0  0  0  0  0  0
   48.0110   34.6680   39.8850 C   0  0  0  0  0  0  0  0  0  0  0  0
   48.0660   34.2440   38.5750 C   0  0  0  0  0  0  0  0  0  0  0  0
   47.0650   33.4450   38.1490 N   0  0  0  0  0  0  0  0  0  0  0  0
   46.0540   33.0780   38.9720 C   0  0  0  0  0  0  0  0  0  0  0  0
   46.0080   33.5040   40.2640 N   0  0  0  0  0  0  0  0  0  0  0  0
   46.9730   34.2880   40.7180 C   0  0  0  0  0  0  0  0  0  0  0  0
   49.1310   34.6460   37.7150 N   0  0  0  0  0  0  0  0  0  0  0  0
   45.9710   32.8170   46.2760 C   0  0  0  0  0  0  0  0  0  0  0  0
   45.3720   33.0130   47.4620 N   0  0  0  0  0  0  0  0  0  0  0  0
   45.4310   32.1730   48.5010 C   0  0  0  0  0  0  0  0  0  0  0  0
   46.1380   31.0100   48.4130 N   0  0  0  0  0  0  0  0  0  0  0  0
   46.7840   30.7150   47.2520 C   0  0  0  0  0  0  0  0  0  0  0  0
   47.5040   29.5460   47.1390 C   0  0  0  0  0  0  0  0  0  0  0  0
   48.1650   29.2280   45.9740 C   0  0  0  0  0  0  0  0  0  0  0  0
   48.0700   30.1380   44.9260 C   0  0  0  0  0  0  0  0  0  0  0  0
   47.3360   31.2890   45.0980 C   0  0  0  0  0  0  0  0  0  0  0  0
   46.6680   31.6340   46.2410 C   0  0  0  0  0  0  0  0  0  0  0  0
   43.8777   36.4059   44.6472 H   0  0  0  0  0  0  0  0  0  0  0  0
   45.2580   36.5325   42.5162 H   0  0  0  0  0  0  0  0  0  0  0  0
   48.7985   36.1572   42.6620 H   0  0  0  0  0  0  0  0  0  0  0  0
   45.2562   32.4243   38.5897 H   0  0  0  0  0  0  0  0  0  0  0  0
   49.1557   34.3192   36.7385 H   0  0  0  0  0  0  0  0  0  0  0  0
   49.8751   35.2630   38.0706 H   0  0  0  0  0  0  0  0  0  0  0  0
   44.9049   32.4222   49.4344 H   0  0  0  0  0  0  0  0  0  0  0  0
   47.5516   28.8552   47.9937 H   0  0  0  0  0  0  0  0  0  0  0  0
   48.7421   28.2966   45.8762 H   0  0  0  0  0  0  0  0  0  0  0  0
   48.5764   29.9394   43.9699 H   0  0  0  0  0  0  0  0  0  0  0  0
   47.2820   31.9869   44.2495 H   0  0  0  0  0  0  0  0  0  0  0  0
  1  6  2  0
  2  1  1  0
  3  2  2  0
  3  4  1  0
  4  5  2  0
  5  6  1  0
  5 17  1  0
  7  3  1  0
  8  7  1  0
  9  8  2  0
 10  9  1  0
 10 15  2  0
 11 10  1  0
 12 11  2  0
 12 13  1  0
 13 14  2  0
 14 15  1  0
 15  7  1  0
 16 11  1  0
 17 18  2  0
 18 19  1  0
 20 19  2  0
 21 20  1  0
 22 21  2  0
 23 22  1  0
 24 25  1  0
 24 23  2  0
 25 26  2  0
 26 17  1  0
 26 21  1  0
  1 27  1  0
  2 28  1  0
  8 29  1  0
 13 30  1  0
 16 31  1  0
 16 32  1  0
 19 33  1  0
 22 34  1  0
 23 35  1  0
 24 36  1  0
 25 37  1  0
M  END
>  <Score>  (1) 
-7.38889

$$$$
