
     RDKit          3D

 43 46  0  0  0  0  0  0  0  0999 V2000
   46.9870   34.8580   41.9890 C   0  0  0  0  0  0  0  0  0  0  0  0
   48.2110   35.4770   41.9740 C   0  0  0  0  0  0  0  0  0  0  0  0
   48.9320   35.3950   40.8290 C   0  0  0  0  0  0  0  0  0  0  0  0
   48.4530   34.7300   39.7620 N   0  0  0  0  0  0  0  0  0  0  0  0
   47.2350   34.1200   39.7960 C   0  0  0  0  0  0  0  0  0  0  0  0
   46.5190   34.2030   40.9360 N   0  0  0  0  0  0  0  0  0  0  0  0
   46.7980   33.4390   38.6340 N   0  0  0  0  0  0  0  0  0  0  0  0
   45.8690   32.4650   38.8670 C   0  0  0  0  0  0  0  0  0  0  0  0
   45.3580   31.7210   37.8030 C   0  0  0  0  0  0  0  0  0  0  0  0
   45.8510   32.0410   36.5610 C   0  0  0  0  0  0  0  0  0  0  0  0
   45.3650   31.3430   35.6170 O   0  0  0  0  0  0  0  0  0  0  0  0
   46.7690   32.9980   36.3160 N   0  0  0  0  0  0  0  0  0  0  0  0
   47.2330   33.6950   37.3850 C   0  0  0  0  0  0  0  0  0  0  0  0
   48.0790   34.5900   37.2270 O   0  0  0  0  0  0  0  0  0  0  0  0
   44.4810   35.9460   44.5470 C   0  0  0  0  0  0  0  0  0  0  0  0
   45.2390   35.9230   43.3460 C   0  0  0  0  0  0  0  0  0  0  0  0
   46.1880   34.9250   43.1970 C   0  0  0  0  0  0  0  0  0  0  0  0
   46.3470   34.0180   44.2060 N   0  0  0  0  0  0  0  0  0  0  0  0
   45.5930   34.0870   45.3370 C   0  0  0  0  0  0  0  0  0  0  0  0
   44.6690   35.0360   45.5160 N   0  0  0  0  0  0  0  0  0  0  0  0
   45.8470   33.0900   46.3200 N   0  0  0  0  0  0  0  0  0  0  0  0
   46.8640   32.0860   46.0640 C   0  0  0  0  0  0  0  0  0  0  0  0
   46.2490   30.7350   46.3070 C   0  0  0  0  0  0  0  0  0  0  0  0
   45.8580   30.6350   47.7600 C   0  0  0  0  0  0  0  0  0  0  0  0
   45.7160   31.9540   48.4400 C   0  0  0  0  0  0  0  0  0  0  0  0
   45.1210   33.0400   47.5750 C   0  0  0  0  0  0  0  0  0  0  0  0
   48.5913   36.0170   42.8537 H   0  0  0  0  0  0  0  0  0  0  0  0
   49.9190   35.8772   40.7716 H   0  0  0  0  0  0  0  0  0  0  0  0
   45.5241   32.2674   39.8927 H   0  0  0  0  0  0  0  0  0  0  0  0
   44.6086   30.9291   37.9491 H   0  0  0  0  0  0  0  0  0  0  0  0
   47.1031   33.1915   35.3611 H   0  0  0  0  0  0  0  0  0  0  0  0
   43.7210   36.7289   44.6866 H   0  0  0  0  0  0  0  0  0  0  0  0
   45.0775   36.6742   42.5588 H   0  0  0  0  0  0  0  0  0  0  0  0
   47.7169   32.2362   46.7422 H   0  0  0  0  0  0  0  0  0  0  0  0
   47.2264   32.1621   45.0282 H   0  0  0  0  0  0  0  0  0  0  0  0
   45.3569   30.6155   45.6747 H   0  0  0  0  0  0  0  0  0  0  0  0
   46.9722   29.9443   46.0586 H   0  0  0  0  0  0  0  0  0  0  0  0
   44.8951   30.1071   47.8239 H   0  0  0  0  0  0  0  0  0  0  0  0
   46.6695   30.0975   48.2725 H   0  0  0  0  0  0  0  0  0  0  0  0
   45.0681   31.8202   49.3188 H   0  0  0  0  0  0  0  0  0  0  0  0
   46.7321   32.2830   48.7031 H   0  0  0  0  0  0  0  0  0  0  0  0
   45.2044   34.0090   48.0890 H   0  0  0  0  0  0  0  0  0  0  0  0
   44.0593   32.8251   47.3837 H   0  0  0  0  0  0  0  0  0  0  0  0
  1 17  1  0
  2  1  2  0
  3  2  1  0
  4  5  1  0
  4  3  2  0
  5  6  2  0
  6  1  1  0
  7  8  1  0
  7  5  1  0
  9  8  2  0
 10  9  1  0
 11 10  2  0
 12 10  1  0
 12 13  1  0
 13  7  1  0
 14 13  2  0
 15 20  2  0
 16 15  1  0
 17 16  2  0
 17 18  1  0
 18 19  2  0
 19 20  1  0
 19 21  1  0
 21 26  1  0
 22 23  1  0
 22 21  1  0
 23 24  1  0
 24 25  1  0
 26 25  1  0
  2 27  1  0
  3 28  1  0
  8 29  1  0
  9 30  1  0
 12 31  1  0
 15 32  1  0
 16 33  1  0
 22 34  1  0
 22 35  1  0
 23 36  1  0
 23 37  1  0
 24 38  1  0
 24 39  1  0
 25 40  1  0
 25 41  1  0
 26 42  1  0
 26 43  1  0
M  END
>  <Score>  (1) 
-7.74848

$$$$
