
     RDKit          3D

 34 37  0  0  0  0  0  0  0  0999 V2000
   46.7680   34.7630   42.1020 N   0  0  0  0  0  0  0  0  0  0  0  0
   48.0330   35.1990   41.9870 C   0  0  0  0  0  0  0  0  0  0  0  0
   48.4020   34.8970   40.7060 C   0  0  0  0  0  0  0  0  0  0  0  0
   47.3550   34.2950   40.1010 N   0  0  0  0  0  0  0  0  0  0  0  0
   46.3450   34.2130   40.9690 C   0  0  0  0  0  0  0  0  0  0  0  0
   45.0740   33.6390   40.6890 N   0  0  0  0  0  0  0  0  0  0  0  0
   44.0240   33.3380   41.4780 C   0  0  0  0  0  0  0  0  0  0  0  0
   43.0200   32.8040   40.7880 N   0  0  0  0  0  0  0  0  0  0  0  0
   43.4270   32.7550   39.5060 C   0  0  0  0  0  0  0  0  0  0  0  0
   42.8560   32.3180   38.3270 C   0  0  0  0  0  0  0  0  0  0  0  0
   41.6810   31.8370   38.3650 O   0  0  0  0  0  0  0  0  0  0  0  0
   43.4400   32.3550   37.1190 N   0  0  0  0  0  0  0  0  0  0  0  0
   44.6940   32.8740   37.1190 C   0  0  0  0  0  0  0  0  0  0  0  0
   45.3630   32.9370   35.8560 N   0  0  0  0  0  0  0  0  0  0  0  0
   45.3230   33.3220   38.2210 N   0  0  0  0  0  0  0  0  0  0  0  0
   44.7190   33.2760   39.4210 C   0  0  0  0  0  0  0  0  0  0  0  0
   44.4790   35.9980   44.7720 C   0  0  0  0  0  0  0  0  0  0  0  0
   45.1550   35.9560   43.5200 C   0  0  0  0  0  0  0  0  0  0  0  0
   46.0350   34.9070   43.3220 C   0  0  0  0  0  0  0  0  0  0  0  0
   46.1990   33.9950   44.3190 N   0  0  0  0  0  0  0  0  0  0  0  0
   45.5470   34.0630   45.4880 C   0  0  0  0  0  0  0  0  0  0  0  0
   44.6800   35.0730   45.7160 N   0  0  0  0  0  0  0  0  0  0  0  0
   45.8770   32.9630   46.4330 C   0  0  0  0  0  0  0  0  0  0  0  0
   47.1460   33.0590   46.9500 F   0  0  0  0  0  0  0  0  0  0  0  0
   45.6740   31.7670   45.7850 F   0  0  0  0  0  0  0  0  0  0  0  0
   44.9910   33.0250   47.4820 F   0  0  0  0  0  0  0  0  0  0  0  0
   48.6418   35.6933   42.7584 H   0  0  0  0  0  0  0  0  0  0  0  0
   49.3798   35.1073   40.2482 H   0  0  0  0  0  0  0  0  0  0  0  0
   44.0000   33.5131   42.5637 H   0  0  0  0  0  0  0  0  0  0  0  0
   42.9754   32.0178   36.2638 H   0  0  0  0  0  0  0  0  0  0  0  0
   46.3166   33.3217   35.7970 H   0  0  0  0  0  0  0  0  0  0  0  0
   44.8910   32.5977   35.0057 H   0  0  0  0  0  0  0  0  0  0  0  0
   43.7702   36.8159   44.9686 H   0  0  0  0  0  0  0  0  0  0  0  0
   44.9859   36.7205   42.7474 H   0  0  0  0  0  0  0  0  0  0  0  0
  1 19  1  0
  2  1  1  0
  3  2  2  0
  4  3  1  0
  4  5  2  0
  5  1  1  0
  6  5  1  0
  6  7  1  0
  8  7  2  0
  9  8  1  0
 10 11  2  0
 10  9  1  0
 12 13  1  0
 12 10  1  0
 13 15  2  0
 14 13  1  0
 15 16  1  0
 16  9  2  0
 16  6  1  0
 17 22  2  0
 18 17  1  0
 19 18  2  0
 19 20  1  0
 20 21  2  0
 21 22  1  0
 21 23  1  0
 23 24  1  0
 23 26  1  0
 25 23  1  0
  2 27  1  0
  3 28  1  0
  7 29  1  0
 12 30  1  0
 14 31  1  0
 14 32  1  0
 17 33  1  0
 18 34  1  0
M  END
>  <Score>  (1) 
-7.15245

$$$$
