
     RDKit          3D

 51 55  0  0  1  0  0  0  0  0999 V2000
   47.2680   34.9330   41.9200 C   0  0  0  0  0  0  0  0  0  0  0  0
   48.4990   35.5700   41.8230 C   0  0  0  0  0  0  0  0  0  0  0  0
   49.0010   35.3600   40.6020 N   0  0  0  0  0  0  0  0  0  0  0  0
   48.1170   34.6070   39.9260 C   0  0  0  0  0  0  0  0  0  0  0  0
   48.1660   34.1220   38.6380 C   0  0  0  0  0  0  0  0  0  0  0  0
   47.1260   33.3740   38.1870 C   0  0  0  0  0  0  0  0  0  0  0  0
   46.0020   33.0570   38.9410 C   0  0  0  0  0  0  0  0  0  0  0  0
   46.0250   33.5750   40.2160 C   0  0  0  0  0  0  0  0  0  0  0  0
   47.0200   34.3220   40.7270 C   0  0  0  0  0  0  0  0  0  0  0  0
   44.5390   35.8650   44.2920 C   0  0  0  0  0  0  0  0  0  0  0  0
   45.3600   35.8790   43.1670 C   0  0  0  0  0  0  0  0  0  0  0  0
   46.4100   34.9280   43.0820 C   0  0  0  0  0  0  0  0  0  0  0  0
   46.5150   34.0750   44.1290 N   0  0  0  0  0  0  0  0  0  0  0  0
   45.7260   34.0690   45.1990 C   0  0  0  0  0  0  0  0  0  0  0  0
   44.7360   34.9610   45.2860 N   0  0  0  0  0  0  0  0  0  0  0  0
   45.9620   33.1070   46.2220 N   0  0  0  0  0  0  0  0  0  0  0  0
   45.0910   33.1220   47.3720 C   0  0  0  0  0  0  0  0  0  0  0  0
   45.2320   31.9390   48.2650 C   0  0  0  0  0  0  0  0  0  0  0  0
   46.4360   31.3080   48.2410 O   0  0  0  0  0  0  0  0  0  0  0  0
   47.4660   31.9450   47.6000 C   0  0  0  0  0  0  0  0  0  0  0  0
   47.0250   32.1330   46.1470 C   0  0  0  0  0  0  0  0  0  0  0  0
   44.8300   33.1940   40.9350 N   0  0  0  0  0  0  0  0  0  0  0  0
   43.4640   33.6140   41.1240 C   0  0  0  0  0  0  0  0  0  0  0  0
   42.7580   32.4140   41.7040 C   0  0  0  0  0  0  0  0  0  0  0  0
   43.8500   31.9320   42.6570 C   0  0  0  0  0  0  0  0  0  0  0  0
   45.0490   31.9850   41.7470 C   0  0  1  0  0  0  0  0  0  0  0  0
   45.1770   30.7660   40.9490 C   0  0  0  0  0  0  0  0  0  0  0  0
   44.3480   30.2400   40.2030 O   0  0  0  0  0  0  0  0  0  0  0  0
   48.9821   36.1525   42.6213 H   0  0  0  0  0  0  0  0  0  0  0  0
   49.9009   35.7112   40.2447 H   0  0  0  0  0  0  0  0  0  0  0  0
   49.0281   34.3356   37.9891 H   0  0  0  0  0  0  0  0  0  0  0  0
   47.1765   32.9936   37.1561 H   0  0  0  0  0  0  0  0  0  0  0  0
   45.1711   32.4485   38.5545 H   0  0  0  0  0  0  0  0  0  0  0  0
   43.7208   36.5953   44.3764 H   0  0  0  0  0  0  0  0  0  0  0  0
   45.1981   36.6111   42.3621 H   0  0  0  0  0  0  0  0  0  0  0  0
   45.3124   34.0251   47.9597 H   0  0  0  0  0  0  0  0  0  0  0  0
   44.0610   33.1036   46.9863 H   0  0  0  0  0  0  0  0  0  0  0  0
   45.0493   32.2739   49.2967 H   0  0  0  0  0  0  0  0  0  0  0  0
   44.5060   31.2013   47.8926 H   0  0  0  0  0  0  0  0  0  0  0  0
   47.6584   32.9217   48.0679 H   0  0  0  0  0  0  0  0  0  0  0  0
   48.3948   31.3588   47.6606 H   0  0  0  0  0  0  0  0  0  0  0  0
   46.6571   31.1859   45.7254 H   0  0  0  0  0  0  0  0  0  0  0  0
   47.8493   32.4587   45.4956 H   0  0  0  0  0  0  0  0  0  0  0  0
   43.4147   34.4643   41.8201 H   0  0  0  0  0  0  0  0  0  0  0  0
   43.0024   33.9474   40.1828 H   0  0  0  0  0  0  0  0  0  0  0  0
   41.8385   32.6949   42.2385 H   0  0  0  0  0  0  0  0  0  0  0  0
   42.4076   31.6716   40.9718 H   0  0  0  0  0  0  0  0  0  0  0  0
   43.9638   32.6060   43.5188 H   0  0  0  0  0  0  0  0  0  0  0  0
   43.6615   30.9480   43.1111 H   0  0  0  0  0  0  0  0  0  0  0  0
   46.0016   32.0380   42.2946 H   0  0  0  0  0  0  0  0  0  0  0  0
   46.1444   30.2480   41.0246 H   0  0  0  0  0  0  0  0  0  0  0  0
  1 12  1  0
  2  1  2  0
  3  2  1  0
  4  3  1  0
  4  9  2  0
  5  4  1  0
  6  5  2  0
  6  7  1  0
  7  8  2  0
  8  9  1  0
  8 22  1  0
  9  1  1  0
 10 15  2  0
 11 10  1  0
 12 11  2  0
 12 13  1  0
 13 14  2  0
 14 15  1  0
 14 16  1  0
 16 17  1  0
 17 18  1  0
 19 18  1  0
 20 19  1  0
 21 16  1  0
 21 20  1  0
 22 23  1  0
 22 26  1  0
 23 24  1  0
 24 25  1  0
 26 25  1  0
 27 26  1  0
 28 27  2  0
  2 29  1  0
  3 30  1  0
  5 31  1  0
  6 32  1  0
  7 33  1  0
 10 34  1  0
 11 35  1  0
 17 36  1  0
 17 37  1  0
 18 38  1  0
 18 39  1  0
 20 40  1  0
 20 41  1  0
 21 42  1  0
 21 43  1  0
 23 44  1  0
 23 45  1  0
 24 46  1  0
 24 47  1  0
 25 48  1  0
 25 49  1  0
 26 50  1  1
 27 51  1  0
M  END
>  <Score>  (1) 
-7.20368

$$$$
