
     RDKit          3D

 37 41  0  0  0  0  0  0  0  0999 V2000
   44.6230   35.0310   45.4250 C   0  0  0  0  0  0  0  0  0  0  0  0
   44.8130   34.8240   44.0450 C   0  0  0  0  0  0  0  0  0  0  0  0
   45.6150   33.7580   43.6450 C   0  0  0  0  0  0  0  0  0  0  0  0
   46.1650   32.9840   44.6100 N   0  0  0  0  0  0  0  0  0  0  0  0
   45.9760   33.1930   45.9270 C   0  0  0  0  0  0  0  0  0  0  0  0
   45.2020   34.2230   46.3240 N   0  0  0  0  0  0  0  0  0  0  0  0
   46.5800   32.3480   46.9020 N   0  0  0  0  0  0  0  0  0  0  0  0
   46.5260   32.5460   48.2240 C   0  0  0  0  0  0  0  0  0  0  0  0
   47.2140   31.5360   48.8130 N   0  0  0  0  0  0  0  0  0  0  0  0
   47.6760   30.7420   47.8470 C   0  0  0  0  0  0  0  0  0  0  0  0
   48.4260   29.5840   47.8180 C   0  0  0  0  0  0  0  0  0  0  0  0
   48.7660   28.9580   46.6540 N   0  0  0  0  0  0  0  0  0  0  0  0
   48.3530   29.4910   45.4700 C   0  0  0  0  0  0  0  0  0  0  0  0
   47.6200   30.6210   45.4600 N   0  0  0  0  0  0  0  0  0  0  0  0
   47.2900   31.2300   46.6130 C   0  0  0  0  0  0  0  0  0  0  0  0
   45.7870   33.5730   42.2560 N   0  0  0  0  0  0  0  0  0  0  0  0
   45.1520   32.9100   41.2860 C   0  0  0  0  0  0  0  0  0  0  0  0
   45.7760   33.0880   40.1010 N   0  0  0  0  0  0  0  0  0  0  0  0
   46.8340   33.8790   40.3010 C   0  0  0  0  0  0  0  0  0  0  0  0
   47.8030   34.3690   39.4270 C   0  0  0  0  0  0  0  0  0  0  0  0
   47.7910   34.0900   38.2080 O   0  0  0  0  0  0  0  0  0  0  0  0
   48.7860   35.1620   39.8740 N   0  0  0  0  0  0  0  0  0  0  0  0
   48.7790   35.4470   41.1810 C   0  0  0  0  0  0  0  0  0  0  0  0
   49.7670   36.2740   41.7710 N   0  0  0  0  0  0  0  0  0  0  0  0
   47.8630   34.9890   42.0340 N   0  0  0  0  0  0  0  0  0  0  0  0
   46.8450   34.1840   41.6460 C   0  0  0  0  0  0  0  0  0  0  0  0
   48.8830   28.9830   49.0240 N   0  0  0  0  0  0  0  0  0  0  0  0
   43.9928   35.8645   45.7686 H   0  0  0  0  0  0  0  0  0  0  0  0
   44.3411   35.4858   43.3038 H   0  0  0  0  0  0  0  0  0  0  0  0
   46.0176   33.3748   48.7384 H   0  0  0  0  0  0  0  0  0  0  0  0
   48.6181   28.9987   44.5227 H   0  0  0  0  0  0  0  0  0  0  0  0
   44.2463   32.3030   41.4317 H   0  0  0  0  0  0  0  0  0  0  0  0
   49.5105   35.5335   39.2432 H   0  0  0  0  0  0  0  0  0  0  0  0
   49.7345   36.4750   42.7807 H   0  0  0  0  0  0  0  0  0  0  0  0
   50.5177   36.6741   41.1902 H   0  0  0  0  0  0  0  0  0  0  0  0
   49.4421   28.1186   48.9890 H   0  0  0  0  0  0  0  0  0  0  0  0
   48.6547   29.4123   49.9320 H   0  0  0  0  0  0  0  0  0  0  0  0
  1  6  2  0
  2  1  1  0
  3  2  2  0
  3  4  1  0
  4  5  2  0
  5  6  1  0
  5  7  1  0
  7  8  1  0
  8  9  2  0
 10  9  1  0
 11 10  2  0
 11 27  1  0
 12 11  1  0
 13 12  2  0
 14 13  1  0
 14 15  2  0
 15  7  1  0
 15 10  1  0
 16  3  1  0
 17 16  1  0
 18 19  1  0
 18 17  2  0
 19 26  2  0
 20 22  1  0
 20 19  1  0
 21 20  2  0
 22 23  1  0
 23 24  1  0
 23 25  2  0
 26 25  1  0
 26 16  1  0
  1 28  1  0
  2 29  1  0
  8 30  1  0
 13 31  1  0
 17 32  1  0
 22 33  1  0
 24 34  1  0
 24 35  1  0
 27 36  1  0
 27 37  1  0
M  END
>  <Score>  (1) 
-7.03834

$$$$
