
     RDKit          3D

 39 42  0  0  0  0  0  0  0  0999 V2000
   46.5460   34.7020   42.1870 C   0  0  0  0  0  0  0  0  0  0  0  0
   47.7550   35.3160   42.0130 C   0  0  0  0  0  0  0  0  0  0  0  0
   48.5110   35.1570   40.8390 C   0  0  0  0  0  0  0  0  0  0  0  0
   47.9880   34.3330   39.8230 C   0  0  0  0  0  0  0  0  0  0  0  0
   46.7580   33.7040   39.9960 C   0  0  0  0  0  0  0  0  0  0  0  0
   46.0680   33.9090   41.1810 C   0  0  0  0  0  0  0  0  0  0  0  0
   44.8050   33.2560   41.3430 N   0  0  0  0  0  0  0  0  0  0  0  0
   44.5720   32.0170   41.8070 C   0  0  0  0  0  0  0  0  0  0  0  0
   43.2940   31.5370   41.9000 C   0  0  0  0  0  0  0  0  0  0  0  0
   42.2210   32.3060   41.5230 C   0  0  0  0  0  0  0  0  0  0  0  0
   41.0510   31.8340   41.6210 O   0  0  0  0  0  0  0  0  0  0  0  0
   42.4900   33.5600   41.0550 N   0  0  0  0  0  0  0  0  0  0  0  0
   43.7320   34.0190   40.9680 C   0  0  0  0  0  0  0  0  0  0  0  0
   43.8460   35.2020   40.5160 O   0  0  0  0  0  0  0  0  0  0  0  0
   41.3500   34.3300   40.6740 C   0  0  0  0  0  0  0  0  0  0  0  0
   41.3070   35.6680   40.9930 C   0  0  0  0  0  0  0  0  0  0  0  0
   40.0990   36.1870   40.5130 C   0  0  0  0  0  0  0  0  0  0  0  0
   39.4570   35.1370   39.9170 N   0  0  0  0  0  0  0  0  0  0  0  0
   40.2040   34.0500   40.0190 N   0  0  0  0  0  0  0  0  0  0  0  0
   44.4140   36.1450   44.9400 C   0  0  0  0  0  0  0  0  0  0  0  0
   45.0380   36.0190   43.6990 C   0  0  0  0  0  0  0  0  0  0  0  0
   45.8480   34.9350   43.4390 C   0  0  0  0  0  0  0  0  0  0  0  0
   46.0100   34.0040   44.4330 N   0  0  0  0  0  0  0  0  0  0  0  0
   45.3900   34.1510   45.6350 C   0  0  0  0  0  0  0  0  0  0  0  0
   44.6070   35.1980   45.8880 N   0  0  0  0  0  0  0  0  0  0  0  0
   45.5980   33.1450   46.6360 N   0  0  0  0  0  0  0  0  0  0  0  0
   48.1486   35.9548   42.8174 H   0  0  0  0  0  0  0  0  0  0  0  0
   49.4814   35.6605   40.7171 H   0  0  0  0  0  0  0  0  0  0  0  0
   48.5529   34.1862   38.8906 H   0  0  0  0  0  0  0  0  0  0  0  0
   46.3423   33.0578   39.2089 H   0  0  0  0  0  0  0  0  0  0  0  0
   45.4162   31.3826   42.1150 H   0  0  0  0  0  0  0  0  0  0  0  0
   43.1238   30.5198   42.2825 H   0  0  0  0  0  0  0  0  0  0  0  0
   42.0848   36.2304   41.5304 H   0  0  0  0  0  0  0  0  0  0  0  0
   39.7407   37.2236   40.5976 H   0  0  0  0  0  0  0  0  0  0  0  0
   38.5353   35.1850   39.4598 H   0  0  0  0  0  0  0  0  0  0  0  0
   43.7676   37.0105   45.1477 H   0  0  0  0  0  0  0  0  0  0  0  0
   44.8832   36.7865   42.9263 H   0  0  0  0  0  0  0  0  0  0  0  0
   45.1410   33.2308   47.5551 H   0  0  0  0  0  0  0  0  0  0  0  0
   46.2043   32.3368   46.4357 H   0  0  0  0  0  0  0  0  0  0  0  0
  1 22  1  0
  2  1  2  0
  3  2  1  0
  4  5  1  0
  4  3  2  0
  5  6  2  0
  6  7  1  0
  6  1  1  0
  7  8  1  0
  8  9  2  0
 10 11  2  0
 10  9  1  0
 12 10  1  0
 13 12  1  0
 13  7  1  0
 14 13  2  0
 15 16  1  0
 15 12  1  0
 17 16  2  0
 18 19  1  0
 18 17  1  0
 19 15  2  0
 20 25  2  0
 21 20  1  0
 22 21  2  0
 22 23  1  0
 23 24  2  0
 24 25  1  0
 24 26  1  0
  2 27  1  0
  3 28  1  0
  4 29  1  0
  5 30  1  0
  8 31  1  0
  9 32  1  0
 16 33  1  0
 17 34  1  0
 18 35  1  0
 20 36  1  0
 21 37  1  0
 26 38  1  0
 26 39  1  0
M  END
>  <Score>  (1) 
-8.00369

$$$$
