
     RDKit          3D

 38 41  0  0  0  0  0  0  0  0999 V2000
   44.5700   35.8220   44.5600 C   0  0  0  0  0  0  0  0  0  0  0  0
   45.1590   35.7530   43.2910 C   0  0  0  0  0  0  0  0  0  0  0  0
   46.0730   34.7380   43.0400 C   0  0  0  0  0  0  0  0  0  0  0  0
   46.3540   33.8560   44.0450 N   0  0  0  0  0  0  0  0  0  0  0  0
   45.7650   33.9490   45.2660 C   0  0  0  0  0  0  0  0  0  0  0  0
   44.8710   34.9400   45.5160 N   0  0  0  0  0  0  0  0  0  0  0  0
   46.0800   33.0000   46.3170 C   0  0  0  0  0  0  0  0  0  0  0  0
   45.3880   33.0300   47.5150 C   0  0  0  0  0  0  0  0  0  0  0  0
   45.6330   32.1520   48.5680 C   0  0  0  0  0  0  0  0  0  0  0  0
   46.6180   31.2570   48.3090 C   0  0  0  0  0  0  0  0  0  0  0  0
   47.3460   31.1810   47.1200 C   0  0  0  0  0  0  0  0  0  0  0  0
   47.0250   32.0770   46.1740 N   0  0  0  0  0  0  0  0  0  0  0  0
   44.3830   34.0120   47.6700 N   0  0  0  0  0  0  0  0  0  0  0  0
   46.7040   34.6520   41.7040 C   0  0  0  0  0  0  0  0  0  0  0  0
   48.0420   35.3650   41.6720 C   0  0  0  0  0  0  0  0  0  0  0  0
   49.1750   34.4310   41.8200 C   0  0  0  0  0  0  0  0  0  0  0  0
   50.2130   34.6990   42.6160 N   0  0  0  0  0  0  0  0  0  0  0  0
   51.0450   33.7040   42.5440 O   0  0  0  0  0  0  0  0  0  0  0  0
   50.5810   32.7880   41.7210 C   0  0  0  0  0  0  0  0  0  0  0  0
   49.4010   33.2420   41.2610 N   0  0  0  0  0  0  0  0  0  0  0  0
   51.2040   31.5550   41.3800 N   0  0  0  0  0  0  0  0  0  0  0  0
   51.0360   30.2570   41.6910 C   0  0  0  0  0  0  0  0  0  0  0  0
   51.9710   29.5260   41.0290 N   0  0  0  0  0  0  0  0  0  0  0  0
   52.7120   30.3770   40.3130 C   0  0  0  0  0  0  0  0  0  0  0  0
   52.2370   31.6130   40.5330 N   0  0  0  0  0  0  0  0  0  0  0  0
   43.8438   36.6201   44.7735 H   0  0  0  0  0  0  0  0  0  0  0  0
   44.9035   36.4857   42.5114 H   0  0  0  0  0  0  0  0  0  0  0  0
   45.0804   32.1818   49.5186 H   0  0  0  0  0  0  0  0  0  0  0  0
   46.8634   30.5323   49.0993 H   0  0  0  0  0  0  0  0  0  0  0  0
   48.1361   30.4309   46.9677 H   0  0  0  0  0  0  0  0  0  0  0  0
   43.8464   34.0657   48.5475 H   0  0  0  0  0  0  0  0  0  0  0  0
   44.1873   34.6738   46.9054 H   0  0  0  0  0  0  0  0  0  0  0  0
   46.8576   33.5930   41.4492 H   0  0  0  0  0  0  0  0  0  0  0  0
   46.0374   35.1383   40.9766 H   0  0  0  0  0  0  0  0  0  0  0  0
   48.1400   35.8914   40.7111 H   0  0  0  0  0  0  0  0  0  0  0  0
   48.0707   36.0675   42.5180 H   0  0  0  0  0  0  0  0  0  0  0  0
   50.2690   29.8541   42.3688 H   0  0  0  0  0  0  0  0  0  0  0  0
   53.5579   30.1125   39.6614 H   0  0  0  0  0  0  0  0  0  0  0  0
  1  6  2  0
  2  1  1  0
  3  2  2  0
  3  4  1  0
  4  5  2  0
  5  6  1  0
  5  7  1  0
  7  8  2  0
  8 13  1  0
  8  9  1  0
 10  9  2  0
 11 10  1  0
 12  7  1  0
 12 11  2  0
 14  3  1  0
 15 14  1  0
 15 16  1  0
 16 17  2  0
 18 17  1  0
 19 18  1  0
 20 19  2  0
 20 16  1  0
 21 22  1  0
 21 19  1  0
 23 22  2  0
 24 25  2  0
 24 23  1  0
 25 21  1  0
  1 26  1  0
  2 27  1  0
  9 28  1  0
 10 29  1  0
 11 30  1  0
 13 31  1  0
 13 32  1  0
 14 33  1  0
 14 34  1  0
 15 35  1  0
 15 36  1  0
 22 37  1  0
 24 38  1  0
M  END
>  <Score>  (1) 
-7.21195

$$$$
