
     RDKit          3D

 53 57  0  0  0  0  0  0  0  0999 V2000
   46.7490   34.8020   41.7010 C   0  0  0  0  0  0  0  0  0  0  0  0
   44.5800   35.8810   44.5550 C   0  0  0  0  0  0  0  0  0  0  0  0
   45.1870   35.8510   43.2910 C   0  0  0  0  0  0  0  0  0  0  0  0
   46.0930   34.8550   43.0310 C   0  0  0  0  0  0  0  0  0  0  0  0
   46.3620   33.9410   44.0090 N   0  0  0  0  0  0  0  0  0  0  0  0
   45.7660   33.9830   45.2280 C   0  0  0  0  0  0  0  0  0  0  0  0
   44.8660   34.9730   45.4850 N   0  0  0  0  0  0  0  0  0  0  0  0
   46.0620   33.0100   46.2480 C   0  0  0  0  0  0  0  0  0  0  0  0
   45.3750   33.0400   47.4550 C   0  0  0  0  0  0  0  0  0  0  0  0
   45.6110   32.1290   48.4870 C   0  0  0  0  0  0  0  0  0  0  0  0
   46.5750   31.2210   48.1870 C   0  0  0  0  0  0  0  0  0  0  0  0
   47.2900   31.1390   47.0110 C   0  0  0  0  0  0  0  0  0  0  0  0
   46.9770   32.0750   46.0800 N   0  0  0  0  0  0  0  0  0  0  0  0
   44.3840   34.0410   47.6470 N   0  0  0  0  0  0  0  0  0  0  0  0
   48.1820   35.3280   41.7460 C   0  0  0  0  0  0  0  0  0  0  0  0
   49.1560   34.2360   41.9780 C   0  0  0  0  0  0  0  0  0  0  0  0
   50.4000   34.4770   42.4340 N   0  0  0  0  0  0  0  0  0  0  0  0
   51.0170   33.3390   42.5430 O   0  0  0  0  0  0  0  0  0  0  0  0
   50.2260   32.3700   42.1760 C   0  0  0  0  0  0  0  0  0  0  0  0
   49.0240   32.9110   41.8070 N   0  0  0  0  0  0  0  0  0  0  0  0
   50.6740   31.0120   42.2030 N   0  0  0  0  0  0  0  0  0  0  0  0
   50.5570   30.0280   43.0810 N   0  0  0  0  0  0  0  0  0  0  0  0
   51.1650   28.9260   42.6020 C   0  0  0  0  0  0  0  0  0  0  0  0
   51.6870   29.2460   41.3620 C   0  0  0  0  0  0  0  0  0  0  0  0
   51.3650   30.5880   41.1200 C   0  0  0  0  0  0  0  0  0  0  0  0
   51.8050   31.1140   39.8620 N   0  0  0  0  0  0  0  0  0  0  0  0
   50.9170   31.4770   38.7790 C   0  0  0  0  0  0  0  0  0  0  0  0
   51.1390   30.5190   37.6150 C   0  0  0  0  0  0  0  0  0  0  0  0
   52.5550   30.5140   37.2360 N   0  0  0  0  0  0  0  0  0  0  0  0
   53.2310   31.5890   37.9330 C   0  0  0  0  0  0  0  0  0  0  0  0
   53.1530   31.3940   39.4330 C   0  0  0  0  0  0  0  0  0  0  0  0
   46.1686   35.4137   40.9946 H   0  0  0  0  0  0  0  0  0  0  0  0
   46.7842   33.7498   41.3823 H   0  0  0  0  0  0  0  0  0  0  0  0
   43.8512   36.6728   44.7828 H   0  0  0  0  0  0  0  0  0  0  0  0
   44.9430   36.6058   42.5290 H   0  0  0  0  0  0  0  0  0  0  0  0
   45.0710   32.1454   49.4452 H   0  0  0  0  0  0  0  0  0  0  0  0
   46.8093   30.4751   48.9608 H   0  0  0  0  0  0  0  0  0  0  0  0
   48.0583   30.3706   46.8400 H   0  0  0  0  0  0  0  0  0  0  0  0
   43.8607   34.0844   48.5331 H   0  0  0  0  0  0  0  0  0  0  0  0
   44.1893   34.7229   46.9000 H   0  0  0  0  0  0  0  0  0  0  0  0
   48.4137   35.8155   40.7876 H   0  0  0  0  0  0  0  0  0  0  0  0
   48.2606   36.0423   42.5788 H   0  0  0  0  0  0  0  0  0  0  0  0
   51.2338   27.9501   43.1049 H   0  0  0  0  0  0  0  0  0  0  0  0
   52.2475   28.5756   40.6939 H   0  0  0  0  0  0  0  0  0  0  0  0
   49.8731   31.4089   39.1191 H   0  0  0  0  0  0  0  0  0  0  0  0
   51.1246   32.5082   38.4572 H   0  0  0  0  0  0  0  0  0  0  0  0
   50.8382   29.5044   37.9152 H   0  0  0  0  0  0  0  0  0  0  0  0
   50.5353   30.8469   36.7559 H   0  0  0  0  0  0  0  0  0  0  0  0
   52.9794   29.6124   37.4964 H   0  0  0  0  0  0  0  0  0  0  0  0
   54.2874   31.6085   37.6268 H   0  0  0  0  0  0  0  0  0  0  0  0
   52.7388   32.5386   37.6760 H   0  0  0  0  0  0  0  0  0  0  0  0
   53.8006   30.5516   39.7177 H   0  0  0  0  0  0  0  0  0  0  0  0
   53.4827   32.3243   39.9187 H   0  0  0  0  0  0  0  0  0  0  0  0
  1 15  1  0
  1  4  1  0
  2  7  2  0
  3  2  1  0
  4  3  2  0
  4  5  1  0
  5  6  2  0
  6  7  1  0
  6  8  1  0
  8  9  2  0
  9 14  1  0
  9 10  1  0
 11 10  2  0
 12 11  1  0
 13  8  1  0
 13 12  2  0
 15 16  1  0
 16 17  2  0
 17 18  1  0
 19 21  1  0
 19 18  1  0
 20 16  1  0
 20 19  2  0
 21 22  1  0
 23 22  2  0
 24 23  1  0
 25 24  2  0
 25 21  1  0
 26 25  1  0
 27 26  1  0
 28 27  1  0
 29 28  1  0
 29 30  1  0
 30 31  1  0
 31 26  1  0
  1 32  1  0
  1 33  1  0
  2 34  1  0
  3 35  1  0
 10 36  1  0
 11 37  1  0
 12 38  1  0
 14 39  1  0
 14 40  1  0
 15 41  1  0
 15 42  1  0
 23 43  1  0
 24 44  1  0
 27 45  1  0
 27 46  1  0
 28 47  1  0
 28 48  1  0
 29 49  1  0
 30 50  1  0
 30 51  1  0
 31 52  1  0
 31 53  1  0
M  END
>  <Score>  (1) 
-7.49705

$$$$
