
     RDKit          3D

 44 47  0  0  0  0  0  0  0  0999 V2000
   39.6420   76.7670   60.2540 C   0  0  0  0  0  0  0  0  0  0  0  0
   38.8230   76.1390   60.9790 O   0  0  0  0  0  0  0  0  0  0  0  0
   41.2290   79.6850   61.7420 C   0  0  0  0  0  0  0  0  0  0  0  0
   42.4950   79.1880   62.1250 C   0  0  0  0  0  0  0  0  0  0  0  0
   42.7700   77.8290   61.8520 C   0  0  0  0  0  0  0  0  0  0  0  0
   41.7840   77.1060   61.2380 N   0  0  0  0  0  0  0  0  0  0  0  0
   40.6140   77.6250   60.9010 C   0  0  0  0  0  0  0  0  0  0  0  0
   40.3110   78.9290   61.1460 N   0  0  0  0  0  0  0  0  0  0  0  0
   40.9870   81.0790   62.0400 C   0  0  0  0  0  0  0  0  0  0  0  0
   41.8640   81.9760   62.6250 C   0  0  0  0  0  0  0  0  0  0  0  0
   41.2140   83.1610   62.7080 N   0  0  0  0  0  0  0  0  0  0  0  0
   39.9640   83.0350   62.1960 C   0  0  0  0  0  0  0  0  0  0  0  0
   39.8310   81.7660   61.7910 N   0  0  0  0  0  0  0  0  0  0  0  0
   38.9790   84.0560   62.1050 N   0  0  0  0  0  0  0  0  0  0  0  0
   41.8400   84.3450   63.2780 C   0  0  0  0  0  0  0  0  0  0  0  0
   40.9430   85.1310   63.9720 F   0  0  0  0  0  0  0  0  0  0  0  0
   42.4000   85.1370   62.2780 F   0  0  0  0  0  0  0  0  0  0  0  0
   42.8060   83.9180   64.1720 F   0  0  0  0  0  0  0  0  0  0  0  0
   39.4880   75.2250   58.3050 C   0  0  0  0  0  0  0  0  0  0  0  0
   39.4270   76.4820   58.8340 C   0  0  0  0  0  0  0  0  0  0  0  0
   39.1470   77.4820   57.9470 C   0  0  0  0  0  0  0  0  0  0  0  0
   38.9320   77.2690   56.5820 C   0  0  0  0  0  0  0  0  0  0  0  0
   39.0080   75.9760   56.1060 C   0  0  0  0  0  0  0  0  0  0  0  0
   39.2890   74.9410   56.9730 C   0  0  0  0  0  0  0  0  0  0  0  0
   38.8000   75.6540   54.6990 C   0  0  0  0  0  0  0  0  0  0  0  0
   39.6960   75.7530   53.6550 C   0  0  0  0  0  0  0  0  0  0  0  0
   39.0060   75.3300   52.5370 C   0  0  0  0  0  0  0  0  0  0  0  0
   37.7500   74.9930   52.8950 N   0  0  0  0  0  0  0  0  0  0  0  0
   37.6560   75.1960   54.1880 N   0  0  0  0  0  0  0  0  0  0  0  0
   39.3730   73.5830   56.5030 N   0  0  0  0  0  0  0  0  0  0  0  0
   40.0190   73.2300   59.9370 N   0  0  0  0  0  0  0  0  0  0  0  0
   39.7850   74.1140   59.2080 C   0  0  0  0  0  0  0  0  0  0  0  0
   43.2376   79.8337   62.6165 H   0  0  0  0  0  0  0  0  0  0  0  0
   43.7340   77.3727   62.1212 H   0  0  0  0  0  0  0  0  0  0  0  0
   42.8912   81.7666   62.9583 H   0  0  0  0  0  0  0  0  0  0  0  0
   38.0573   83.8474   61.6952 H   0  0  0  0  0  0  0  0  0  0  0  0
   39.1870   85.0044   62.4489 H   0  0  0  0  0  0  0  0  0  0  0  0
   39.0873   78.5123   58.3277 H   0  0  0  0  0  0  0  0  0  0  0  0
   38.7086   78.1082   55.9068 H   0  0  0  0  0  0  0  0  0  0  0  0
   40.7399   76.0965   53.7033 H   0  0  0  0  0  0  0  0  0  0  0  0
   39.4149   75.2763   51.5172 H   0  0  0  0  0  0  0  0  0  0  0  0
   37.0072   74.6434   52.2729 H   0  0  0  0  0  0  0  0  0  0  0  0
   39.5838   72.8215   57.1637 H   0  0  0  0  0  0  0  0  0  0  0  0
   39.2223   73.3728   55.5060 H   0  0  0  0  0  0  0  0  0  0  0  0
  1  7  1  0
  1  2  2  0
  3  9  1  0
  3  4  2  0
  5  4  1  0
  6  5  2  0
  7  8  2  0
  7  6  1  0
  8  3  1  0
  9 10  2  0
 10 11  1  0
 11 15  1  0
 12 11  1  0
 13  9  1  0
 13 12  2  0
 14 12  1  0
 15 16  1  0
 15 18  1  0
 17 15  1  0
 19 20  2  0
 19 32  1  0
 20  1  1  0
 21 20  1  0
 22 21  2  0
 23 22  1  0
 23 24  2  0
 24 19  1  0
 25 23  1  0
 26 25  1  0
 27 28  1  0
 27 26  2  0
 28 29  1  0
 29 25  2  0
 30 24  1  0
 32 31  3  0
  4 33  1  0
  5 34  1  0
 10 35  1  0
 14 36  1  0
 14 37  1  0
 21 38  1  0
 22 39  1  0
 26 40  1  0
 27 41  1  0
 28 42  1  0
 30 43  1  0
 30 44  1  0
M  END
>  <Score>  (1) 
-7.36327

>  <Score_dual>  (1) 
-8.55

>  <Choices>  (1) 
[None, 6, ['23-9', 180], 15, ['11-3', 300], 16, ['0-2', 0], 21, ['5-9', 345], 23, ['40-8', 135], 34, ['0-2', 0], 34, ['22-6', 60]]

$$$$
