
     RDKit          3D

 52 57  0  0  0  0  0  0  0  0999 V2000
   42.6990   81.3550   60.7040 C   0  0  0  0  0  0  0  0  0  0  0  0
   42.4040   82.3710   61.5550 C   0  0  0  0  0  0  0  0  0  0  0  0
   43.2950   82.7030   62.5670 C   0  0  0  0  0  0  0  0  0  0  0  0
   44.4990   81.9810   62.6970 C   0  0  0  0  0  0  0  0  0  0  0  0
   45.5250   82.0840   63.5650 N   0  0  0  0  0  0  0  0  0  0  0  0
   46.4400   81.1410   63.2510 C   0  0  0  0  0  0  0  0  0  0  0  0
   45.9720   80.4620   62.1870 N   0  0  0  0  0  0  0  0  0  0  0  0
   44.7690   80.9520   61.8130 C   0  0  0  0  0  0  0  0  0  0  0  0
   43.8720   80.6200   60.7980 C   0  0  0  0  0  0  0  0  0  0  0  0
   39.6940   84.6820   60.3570 C   0  0  0  0  0  0  0  0  0  0  0  0
   40.9670   84.0850   60.4280 C   0  0  0  0  0  0  0  0  0  0  0  0
   41.1380   83.0820   61.3670 C   0  0  0  0  0  0  0  0  0  0  0  0
   40.0920   82.7440   62.1440 N   0  0  0  0  0  0  0  0  0  0  0  0
   38.8770   83.3310   62.0590 C   0  0  0  0  0  0  0  0  0  0  0  0
   38.6680   84.3210   61.1510 N   0  0  0  0  0  0  0  0  0  0  0  0
   41.8610   80.9620   59.6680 O   0  0  0  0  0  0  0  0  0  0  0  0
   40.3170   79.4690   58.5930 C   0  0  0  0  0  0  0  0  0  0  0  0
   41.1120   79.8270   59.6750 C   0  0  0  0  0  0  0  0  0  0  0  0
   41.0930   78.9470   60.7680 C   0  0  0  0  0  0  0  0  0  0  0  0
   40.3220   77.7930   60.7550 C   0  0  0  0  0  0  0  0  0  0  0  0
   40.1220   76.7960   61.6480 N   0  0  0  0  0  0  0  0  0  0  0  0
   39.2770   75.9140   61.1410 N   0  0  0  0  0  0  0  0  0  0  0  0
   38.9140   76.3360   59.8980 C   0  0  0  0  0  0  0  0  0  0  0  0
   39.5690   77.5130   59.6560 C   0  0  0  0  0  0  0  0  0  0  0  0
   39.5390   78.3300   58.5480 C   0  0  0  0  0  0  0  0  0  0  0  0
   38.7680   78.0830   57.3750 N   0  0  0  0  0  0  0  0  0  0  0  0
   37.9370   76.8710   57.3100 C   0  0  0  0  0  0  0  0  0  0  0  0
   36.6190   77.1610   56.6350 C   0  0  0  0  0  0  0  0  0  0  0  0
   36.8640   77.7760   55.2760 C   0  0  0  0  0  0  0  0  0  0  0  0
   37.6260   79.0460   55.3950 C   0  0  0  0  0  0  0  0  0  0  0  0
   38.8210   79.0210   56.2810 C   0  0  0  0  0  0  0  0  0  0  0  0
   43.0631   83.5233   63.2622 H   0  0  0  0  0  0  0  0  0  0  0  0
   45.5987   82.7643   64.3349 H   0  0  0  0  0  0  0  0  0  0  0  0
   47.3931   80.9609   63.7698 H   0  0  0  0  0  0  0  0  0  0  0  0
   44.0875   79.8020   60.0948 H   0  0  0  0  0  0  0  0  0  0  0  0
   39.5298   85.4806   59.6185 H   0  0  0  0  0  0  0  0  0  0  0  0
   41.7881   84.4009   59.7677 H   0  0  0  0  0  0  0  0  0  0  0  0
   38.0606   83.0087   62.7221 H   0  0  0  0  0  0  0  0  0  0  0  0
   40.3072   80.1351   57.7176 H   0  0  0  0  0  0  0  0  0  0  0  0
   41.7025   79.1769   61.6544 H   0  0  0  0  0  0  0  0  0  0  0  0
   40.5599   76.7338   62.5782 H   0  0  0  0  0  0  0  0  0  0  0  0
   38.2211   75.8244   59.2138 H   0  0  0  0  0  0  0  0  0  0  0  0
   38.4717   76.0972   56.7397 H   0  0  0  0  0  0  0  0  0  0  0  0
   37.7395   76.5233   58.3348 H   0  0  0  0  0  0  0  0  0  0  0  0
   36.0559   76.2236   56.5155 H   0  0  0  0  0  0  0  0  0  0  0  0
   36.0414   77.8642   57.2530 H   0  0  0  0  0  0  0  0  0  0  0  0
   35.8965   77.9809   54.7943 H   0  0  0  0  0  0  0  0  0  0  0  0
   37.4531   77.0694   54.6730 H   0  0  0  0  0  0  0  0  0  0  0  0
   37.9628   79.3297   54.3870 H   0  0  0  0  0  0  0  0  0  0  0  0
   36.9317   79.7602   55.8617 H   0  0  0  0  0  0  0  0  0  0  0  0
   39.6953   78.7700   55.6625 H   0  0  0  0  0  0  0  0  0  0  0  0
   38.8732   80.0180   56.7428 H   0  0  0  0  0  0  0  0  0  0  0  0
  1  9  2  0
  1  2  1  0
  2  3  2  0
  3  4  1  0
  4  5  1  0
  6  5  1  0
  7  6  2  0
  8  7  1  0
  8  4  2  0
  9  8  1  0
 10 11  2  0
 10 15  1  0
 11 12  1  0
 12  2  1  0
 12 13  2  0
 14 13  1  0
 15 14  2  0
 16 18  1  0
 16  1  1  0
 17 18  2  0
 18 19  1  0
 20 19  2  0
 20 21  1  0
 22 21  1  0
 23 22  2  0
 24 23  1  0
 24 20  1  0
 25 17  1  0
 25 24  2  0
 26 25  1  0
 27 26  1  0
 28 27  1  0
 29 30  1  0
 29 28  1  0
 30 31  1  0
 31 26  1  0
  3 32  1  0
  5 33  1  0
  6 34  1  0
  9 35  1  0
 10 36  1  0
 11 37  1  0
 14 38  1  0
 17 39  1  0
 19 40  1  0
 21 41  1  0
 23 42  1  0
 27 43  1  0
 27 44  1  0
 28 45  1  0
 28 46  1  0
 29 47  1  0
 29 48  1  0
 30 49  1  0
 30 50  1  0
 31 51  1  0
 31 52  1  0
M  END
>  <Score>  (1) 
-7.6656

>  <Score_dual>  (1) 
-7.25

>  <Choices>  (1) 
[None, 8, ['34-23', 60], 15, ['2-1', 0], 23, ['54-21', 15], 36, ['8-5', 300]]

$$$$
