
     RDKit          3D

 52 55  0  0  1  0  0  0  0  0999 V2000
   39.8520   80.3270   57.1860 O   0  0  0  0  0  0  0  0  0  0  0  0
   40.8940   82.2010   58.6450 N   0  0  0  0  0  0  0  0  0  0  0  0
   40.8820   82.8720   57.3110 C   0  0  0  0  0  0  0  0  0  0  0  0
   42.0560   82.4130   56.4890 C   0  0  0  0  0  0  0  0  0  0  0  0
   41.8880   80.9700   56.1340 C   0  0  0  0  0  0  0  0  0  0  0  0
   41.2380   80.2380   57.3910 C   0  0  1  0  0  0  0  0  0  0  0  0
   41.6840   80.9930   58.5870 C   0  0  0  0  0  0  0  0  0  0  0  0
   39.6470   83.9960   59.8540 C   0  0  0  0  0  0  0  0  0  0  0  0
   40.2050   82.7550   59.7240 C   0  0  0  0  0  0  0  0  0  0  0  0
   40.0830   81.9090   60.8150 C   0  0  0  0  0  0  0  0  0  0  0  0
   39.4290   82.3420   61.9380 N   0  0  0  0  0  0  0  0  0  0  0  0
   38.9050   83.5770   61.9950 C   0  0  0  0  0  0  0  0  0  0  0  0
   39.0130   84.3860   60.9740 N   0  0  0  0  0  0  0  0  0  0  0  0
   39.7820   78.2610   59.3720 Cl  0  0  0  0  0  0  0  0  0  0  0  0
   38.8450   78.3310   57.9240 C   0  0  0  0  0  0  0  0  0  0  0  0
   38.9740   79.3320   57.0210 C   0  0  0  0  0  0  0  0  0  0  0  0
   38.1470   79.3120   55.8670 C   0  0  0  0  0  0  0  0  0  0  0  0
   37.2090   78.2980   55.6400 C   0  0  0  0  0  0  0  0  0  0  0  0
   37.1210   77.3000   56.6020 C   0  0  0  0  0  0  0  0  0  0  0  0
   37.9190   77.3220   57.7090 C   0  0  0  0  0  0  0  0  0  0  0  0
   37.7850   76.2900   58.6360 O   0  0  0  0  0  0  0  0  0  0  0  0
   39.2160   74.3140   58.0870 C   0  0  0  0  0  0  0  0  0  0  0  0
   38.6500   75.2780   58.8860 C   0  0  0  0  0  0  0  0  0  0  0  0
   39.0280   75.2290   60.2350 C   0  0  0  0  0  0  0  0  0  0  0  0
   39.9060   74.2670   60.6990 C   0  0  0  0  0  0  0  0  0  0  0  0
   40.4350   73.3300   59.8370 C   0  0  0  0  0  0  0  0  0  0  0  0
   40.0870   73.3520   58.5180 C   0  0  0  0  0  0  0  0  0  0  0  0
   37.9310   74.1900   55.8260 N   0  0  0  0  0  0  0  0  0  0  0  0
   38.8460   74.3220   56.7150 C   0  0  0  0  0  0  0  0  0  0  0  0
   39.8610   74.5910   55.7250 N   0  0  0  0  0  0  0  0  0  0  0  0
   38.1260   74.2920   54.8110 H   0  0  0  0  0  0  0  0  0  0  0  0
   39.9493   82.6195   56.7854 H   0  0  0  0  0  0  0  0  0  0  0  0
   40.9481   83.9604   57.4556 H   0  0  0  0  0  0  0  0  0  0  0  0
   42.1144   83.0119   55.5682 H   0  0  0  0  0  0  0  0  0  0  0  0
   42.9807   82.5402   57.0710 H   0  0  0  0  0  0  0  0  0  0  0  0
   41.2270   80.8731   55.2601 H   0  0  0  0  0  0  0  0  0  0  0  0
   42.8589   80.5181   55.8828 H   0  0  0  0  0  0  0  0  0  0  0  0
   41.5226   79.1836   57.5223 H   0  0  0  0  0  0  0  0  0  0  0  0
   41.5225   80.3925   59.4943 H   0  0  0  0  0  0  0  0  0  0  0  0
   42.7565   81.2290   58.5239 H   0  0  0  0  0  0  0  0  0  0  0  0
   39.7191   84.7008   59.0125 H   0  0  0  0  0  0  0  0  0  0  0  0
   40.5090   80.8955   60.7793 H   0  0  0  0  0  0  0  0  0  0  0  0
   38.3828   83.9092   62.9044 H   0  0  0  0  0  0  0  0  0  0  0  0
   38.2467   80.1198   55.1271 H   0  0  0  0  0  0  0  0  0  0  0  0
   36.5723   78.2919   54.7430 H   0  0  0  0  0  0  0  0  0  0  0  0
   36.3986   76.4811   56.4699 H   0  0  0  0  0  0  0  0  0  0  0  0
   38.6184   75.9698   60.9375 H   0  0  0  0  0  0  0  0  0  0  0  0
   40.1843   74.2491   61.7631 H   0  0  0  0  0  0  0  0  0  0  0  0
   41.1346   72.5680   60.2111 H   0  0  0  0  0  0  0  0  0  0  0  0
   40.4983   72.6116   57.8161 H   0  0  0  0  0  0  0  0  0  0  0  0
   40.8317   74.7713   56.0185 H   0  0  0  0  0  0  0  0  0  0  0  0
   39.6147   74.6027   54.7249 H   0  0  0  0  0  0  0  0  0  0  0  0
  1  6  1  0
  2  9  1  0
  3  2  1  0
  4  3  1  0
  5  4  1  0
  5  6  1  0
  6  7  1  0
  7  2  1  0
  8 13  2  0
  9  8  1  0
  9 10  2  0
 10 11  1  0
 11 12  2  0
 13 12  1  0
 15 14  1  0
 16  1  1  0
 16 15  2  0
 17 16  1  0
 18 17  2  0
 18 19  1  0
 19 20  2  0
 20 15  1  0
 20 21  1  0
 21 23  1  0
 22 27  2  0
 22 23  1  0
 23 24  2  0
 24 25  1  0
 26 25  2  0
 27 26  1  0
 28 29  2  0
 29 22  1  0
 30 29  1  0
 31 28  1  0
  3 32  1  0
  3 33  1  0
  4 34  1  0
  4 35  1  0
  5 36  1  0
  5 37  1  0
  6 38  1  1
  7 39  1  0
  7 40  1  0
  8 41  1  0
 10 42  1  0
 12 43  1  0
 17 44  1  0
 18 45  1  0
 19 46  1  0
 24 47  1  0
 25 48  1  0
 26 49  1  0
 27 50  1  0
 30 51  1  0
 30 52  1  0
M  END
>  <Score>  (1) 
-7.29316

>  <Score_dual>  (1) 
-7.19

>  <Choices>  (1) 
[None, 7, ['8-4', 180], 21, ['2-1', 0], 25, ['7-8', 225], 35, ['2-1', 0], 36, ['44-15', 0]]

$$$$
