
     RDKit          3D

 39 43  0  0  0  0  0  0  0  0999 V2000
   41.3820   76.7150   59.8780 C   0  0  0  0  0  0  0  0  0  0  0  0
   41.8100   76.3800   58.6390 C   0  0  0  0  0  0  0  0  0  0  0  0
   41.9920   75.0100   58.5990 C   0  0  0  0  0  0  0  0  0  0  0  0
   41.6650   74.5540   59.8250 N   0  0  0  0  0  0  0  0  0  0  0  0
   41.3000   75.5730   60.5930 N   0  0  0  0  0  0  0  0  0  0  0  0
   41.6540   73.2400   60.3790 C   0  0  0  0  0  0  0  0  0  0  0  0
   42.0050   72.9960   61.7120 C   0  0  0  0  0  0  0  0  0  0  0  0
   41.9700   71.6970   62.1770 C   0  0  0  0  0  0  0  0  0  0  0  0
   41.6010   70.6430   61.3650 C   0  0  0  0  0  0  0  0  0  0  0  0
   41.5750   69.3820   61.8480 N   0  0  0  0  0  0  0  0  0  0  0  0
   41.2120   68.3380   61.0500 C   0  0  0  0  0  0  0  0  0  0  0  0
   40.8620   68.5620   59.7300 C   0  0  0  0  0  0  0  0  0  0  0  0
   40.8690   69.8450   59.1730 C   0  0  0  0  0  0  0  0  0  0  0  0
   41.2510   70.8590   60.0470 C   0  0  0  0  0  0  0  0  0  0  0  0
   41.2840   72.1590   59.5770 C   0  0  0  0  0  0  0  0  0  0  0  0
   40.3280   80.5510   60.9110 C   0  0  0  0  0  0  0  0  0  0  0  0
   40.6580   79.7640   61.9260 C   0  0  0  0  0  0  0  0  0  0  0  0
   41.0240   78.4720   61.7280 C   0  0  0  0  0  0  0  0  0  0  0  0
   41.0400   78.0230   60.4560 C   0  0  0  0  0  0  0  0  0  0  0  0
   40.5060   79.4920   59.4320 S   0  0  0  0  0  0  0  0  0  0  0  0
   39.6460   84.0400   59.7960 C   0  0  0  0  0  0  0  0  0  0  0  0
   40.1150   82.6970   59.7210 C   0  0  0  0  0  0  0  0  0  0  0  0
   39.9080   81.9180   60.8480 C   0  0  0  0  0  0  0  0  0  0  0  0
   39.2820   82.4520   61.9490 N   0  0  0  0  0  0  0  0  0  0  0  0
   38.8530   83.7120   61.9910 C   0  0  0  0  0  0  0  0  0  0  0  0
   39.0380   84.4930   60.9170 N   0  0  0  0  0  0  0  0  0  0  0  0
   41.9834   77.0777   57.8065 H   0  0  0  0  0  0  0  0  0  0  0  0
   42.3342   74.4130   57.7408 H   0  0  0  0  0  0  0  0  0  0  0  0
   42.3024   73.8220   62.3748 H   0  0  0  0  0  0  0  0  0  0  0  0
   42.2436   71.4959   63.2233 H   0  0  0  0  0  0  0  0  0  0  0  0
   41.1973   67.3158   61.4560 H   0  0  0  0  0  0  0  0  0  0  0  0
   40.5703   67.7076   59.1016 H   0  0  0  0  0  0  0  0  0  0  0  0
   40.5940   70.0378   58.1255 H   0  0  0  0  0  0  0  0  0  0  0  0
   41.0077   72.3489   58.5293 H   0  0  0  0  0  0  0  0  0  0  0  0
   40.6347   80.1665   62.9495 H   0  0  0  0  0  0  0  0  0  0  0  0
   41.2962   77.8183   62.5697 H   0  0  0  0  0  0  0  0  0  0  0  0
   39.7790   84.7137   58.9366 H   0  0  0  0  0  0  0  0  0  0  0  0
   40.6116   82.3021   58.8224 H   0  0  0  0  0  0  0  0  0  0  0  0
   38.3560   84.1048   62.8903 H   0  0  0  0  0  0  0  0  0  0  0  0
  1 19  1  0
  1  5  2  0
  2  1  1  0
  3  2  2  0
  3  4  1  0
  4  6  1  0
  4  5  1  0
  6  7  2  0
  7  8  1  0
  9 10  1  0
  9  8  2  0
 11 10  2  0
 12 11  1  0
 13 12  2  0
 13 14  1  0
 14  9  1  0
 15 14  2  0
 15  6  1  0
 16 17  2  0
 18 17  1  0
 19 18  2  0
 20 19  1  0
 20 16  1  0
 21 26  2  0
 22 21  1  0
 22 23  2  0
 23 16  1  0
 23 24  1  0
 24 25  2  0
 26 25  1  0
  2 27  1  0
  3 28  1  0
  7 29  1  0
  8 30  1  0
 11 31  1  0
 12 32  1  0
 13 33  1  0
 15 34  1  0
 17 35  1  0
 18 36  1  0
 21 37  1  0
 22 38  1  0
 25 39  1  0
M  END
>  <Score>  (1) 
-7.42053

>  <Score_dual>  (1) 
-7.62

>  <Choices>  (1) 
[None, 8, ['25-21', 150], 16, ['22-8', 60], 23, ['36-22', 330]]

$$$$
