
     RDKit          3D

 49 54  0  0  0  0  0  0  0  0999 V2000
   41.1130   78.9460   58.2830 C   0  0  0  0  0  0  0  0  0  0  0  0
   40.9380   80.3100   58.2880 C   0  0  0  0  0  0  0  0  0  0  0  0
   39.8250   80.8880   57.6780 C   0  0  0  0  0  0  0  0  0  0  0  0
   38.8700   80.0870   57.0550 C   0  0  0  0  0  0  0  0  0  0  0  0
   37.7250   80.3820   56.4040 N   0  0  0  0  0  0  0  0  0  0  0  0
   37.1750   79.2310   55.9910 N   0  0  0  0  0  0  0  0  0  0  0  0
   37.9750   78.2130   56.3810 C   0  0  0  0  0  0  0  0  0  0  0  0
   39.0570   78.7170   57.0560 C   0  0  0  0  0  0  0  0  0  0  0  0
   40.1610   78.1520   57.6620 C   0  0  0  0  0  0  0  0  0  0  0  0
   40.3550   76.7060   57.6610 C   0  0  0  0  0  0  0  0  0  0  0  0
   41.1660   76.2690   56.6200 C   0  0  0  0  0  0  0  0  0  0  0  0
   41.4600   74.9400   56.4590 C   0  0  0  0  0  0  0  0  0  0  0  0
   40.9480   73.9930   57.3430 C   0  0  0  0  0  0  0  0  0  0  0  0
   40.1570   74.4670   58.3500 C   0  0  0  0  0  0  0  0  0  0  0  0
   39.6020   73.5880   59.2830 C   0  0  0  0  0  0  0  0  0  0  0  0
   38.7970   74.0490   60.3140 C   0  0  0  0  0  0  0  0  0  0  0  0
   38.5130   75.4080   60.4550 C   0  0  0  0  0  0  0  0  0  0  0  0
   39.0550   76.3020   59.5380 C   0  0  0  0  0  0  0  0  0  0  0  0
   39.8410   75.7830   58.5440 C   0  0  0  0  0  0  0  0  0  0  0  0
   42.0440   81.5010   59.0310 S   0  0  0  0  0  0  0  0  0  0  0  0
   41.2150   84.0890   59.2130 C   0  0  0  0  0  0  0  0  0  0  0  0
   41.7610   83.1530   58.3940 C   0  0  0  0  0  0  0  0  0  0  0  0
   42.1330   83.3480   57.0760 C   0  0  0  0  0  0  0  0  0  0  0  0
   41.9390   84.5940   56.5370 C   0  0  0  0  0  0  0  0  0  0  0  0
   41.3770   85.5500   57.3870 C   0  0  0  0  0  0  0  0  0  0  0  0
   41.0260   85.3230   58.6700 N   0  0  0  0  0  0  0  0  0  0  0  0
   39.6240   83.2530   60.9970 C   0  0  0  0  0  0  0  0  0  0  0  0
   40.8370   83.8420   60.5980 C   0  0  0  0  0  0  0  0  0  0  0  0
   41.7370   84.2130   61.5960 C   0  0  0  0  0  0  0  0  0  0  0  0
   41.4000   83.9890   62.9040 N   0  0  0  0  0  0  0  0  0  0  0  0
   40.2050   83.4120   63.2370 C   0  0  0  0  0  0  0  0  0  0  0  0
   39.3170   83.0450   62.2770 N   0  0  0  0  0  0  0  0  0  0  0  0
   41.9928   78.4929   58.7632 H   0  0  0  0  0  0  0  0  0  0  0  0
   39.7005   81.9809   57.6887 H   0  0  0  0  0  0  0  0  0  0  0  0
   37.3412   81.3255   56.2513 H   0  0  0  0  0  0  0  0  0  0  0  0
   37.7871   77.1467   56.1870 H   0  0  0  0  0  0  0  0  0  0  0  0
   41.5793   77.0031   55.9127 H   0  0  0  0  0  0  0  0  0  0  0  0
   42.1040   74.6194   55.6269 H   0  0  0  0  0  0  0  0  0  0  0  0
   41.1691   72.9208   57.2356 H   0  0  0  0  0  0  0  0  0  0  0  0
   39.8071   72.5106   59.1985 H   0  0  0  0  0  0  0  0  0  0  0  0
   38.3752   73.3311   61.0329 H   0  0  0  0  0  0  0  0  0  0  0  0
   37.8730   75.7650   61.2753 H   0  0  0  0  0  0  0  0  0  0  0  0
   38.8602   77.3823   59.6083 H   0  0  0  0  0  0  0  0  0  0  0  0
   42.5692   82.5321   56.4810 H   0  0  0  0  0  0  0  0  0  0  0  0
   42.2099   84.8271   55.4967 H   0  0  0  0  0  0  0  0  0  0  0  0
   41.2088   86.5587   56.9817 H   0  0  0  0  0  0  0  0  0  0  0  0
   38.9016   82.9528   60.2237 H   0  0  0  0  0  0  0  0  0  0  0  0
   42.7001   84.6772   61.3373 H   0  0  0  0  0  0  0  0  0  0  0  0
   39.9602   83.2431   64.2960 H   0  0  0  0  0  0  0  0  0  0  0  0
  1  2  2  0
  2 20  1  0
  3  2  1  0
  4  8  1  0
  4  3  2  0
  5  4  1  0
  6  7  2  0
  6  5  1  0
  7  8  1  0
  8  9  2  0
  9  1  1  0
 10  9  1  0
 10 19  1  0
 11 10  2  0
 12 11  1  0
 12 13  2  0
 13 14  1  0
 14 19  2  0
 14 15  1  0
 15 16  2  0
 16 17  1  0
 18 17  2  0
 19 18  1  0
 21 28  1  0
 22 20  1  0
 22 21  1  0
 23 22  2  0
 24 23  1  0
 24 25  2  0
 25 26  1  0
 26 21  2  0
 27 32  2  0
 28 27  1  0
 28 29  2  0
 29 30  1  0
 30 31  2  0
 32 31  1  0
  1 33  1  0
  3 34  1  0
  5 35  1  0
  7 36  1  0
 11 37  1  0
 12 38  1  0
 13 39  1  0
 15 40  1  0
 16 41  1  0
 17 42  1  0
 18 43  1  0
 23 44  1  0
 24 45  1  0
 25 46  1  0
 27 47  1  0
 29 48  1  0
 31 49  1  0
M  END
>  <Score>  (1) 
-7.16617

>  <Score_dual>  (1) 
-8.04

>  <Choices>  (1) 
[None, 7, ['6-18', 150], 15, ['17-16', 0], 19, ['54-19', 0], 32, ['26-22', 60]]

$$$$
