
     RDKit          3D

 45 49  0  0  0  0  0  0  0  0999 V2000
   40.3430   79.7630   60.8150 C   0  0  0  0  0  0  0  0  0  0  0  0
   40.9750   80.9200   61.2030 C   0  0  0  0  0  0  0  0  0  0  0  0
   42.2590   80.8760   61.7190 C   0  0  0  0  0  0  0  0  0  0  0  0
   42.9080   79.6380   61.8420 C   0  0  0  0  0  0  0  0  0  0  0  0
   44.1300   79.2720   62.2960 N   0  0  0  0  0  0  0  0  0  0  0  0
   44.2610   77.9340   62.1960 C   0  0  0  0  0  0  0  0  0  0  0  0
   43.1220   77.4620   61.6810 N   0  0  0  0  0  0  0  0  0  0  0  0
   42.2660   78.4810   61.4500 C   0  0  0  0  0  0  0  0  0  0  0  0
   40.9720   78.5210   60.9290 C   0  0  0  0  0  0  0  0  0  0  0  0
   39.5570   84.1400   59.8620 C   0  0  0  0  0  0  0  0  0  0  0  0
   40.3000   82.9510   59.8980 C   0  0  0  0  0  0  0  0  0  0  0  0
   40.2490   82.1670   61.0490 C   0  0  0  0  0  0  0  0  0  0  0  0
   39.4780   82.5920   62.0860 N   0  0  0  0  0  0  0  0  0  0  0  0
   38.7680   83.7530   62.0190 C   0  0  0  0  0  0  0  0  0  0  0  0
   38.8000   84.5240   60.9240 N   0  0  0  0  0  0  0  0  0  0  0  0
   42.9590   82.0840   62.1380 C   0  0  0  0  0  0  0  0  0  0  0  0
   42.9570   82.9660   63.1650 C   0  0  0  0  0  0  0  0  0  0  0  0
   43.8910   83.9190   62.9500 N   0  0  0  0  0  0  0  0  0  0  0  0
   44.4860   83.6130   61.7530 C   0  0  0  0  0  0  0  0  0  0  0  0
   43.9230   82.5140   61.2730 N   0  0  0  0  0  0  0  0  0  0  0  0
   45.5740   84.4390   61.1680 C   0  0  0  0  0  0  0  0  0  0  0  0
   44.9810   85.9040   59.2860 C   0  0  0  0  0  0  0  0  0  0  0  0
   45.1110   85.7440   60.6530 C   0  0  0  0  0  0  0  0  0  0  0  0
   44.8070   86.7800   61.4970 C   0  0  0  0  0  0  0  0  0  0  0  0
   44.3720   87.9900   61.0110 C   0  0  0  0  0  0  0  0  0  0  0  0
   44.2300   88.1850   59.6330 C   0  0  0  0  0  0  0  0  0  0  0  0
   44.5390   87.1330   58.7940 C   0  0  0  0  0  0  0  0  0  0  0  0
   45.2770   84.8810   58.3650 O   0  0  0  0  0  0  0  0  0  0  0  0
   44.3950   87.3380   57.4210 O   0  0  0  0  0  0  0  0  0  0  0  0
   39.3228   79.8159   60.4071 H   0  0  0  0  0  0  0  0  0  0  0  0
   44.8472   79.9151   62.6606 H   0  0  0  0  0  0  0  0  0  0  0  0
   45.1415   77.3412   62.4846 H   0  0  0  0  0  0  0  0  0  0  0  0
   40.4607   77.5986   60.6163 H   0  0  0  0  0  0  0  0  0  0  0  0
   39.5872   84.7710   58.9615 H   0  0  0  0  0  0  0  0  0  0  0  0
   40.9102   82.6438   59.0358 H   0  0  0  0  0  0  0  0  0  0  0  0
   38.1573   84.0629   62.8799 H   0  0  0  0  0  0  0  0  0  0  0  0
   42.2951   82.9148   64.0421 H   0  0  0  0  0  0  0  0  0  0  0  0
   44.1119   84.7165   63.5633 H   0  0  0  0  0  0  0  0  0  0  0  0
   46.3303   84.6201   61.9459 H   0  0  0  0  0  0  0  0  0  0  0  0
   45.9810   83.8795   60.3128 H   0  0  0  0  0  0  0  0  0  0  0  0
   44.9130   86.6408   62.5830 H   0  0  0  0  0  0  0  0  0  0  0  0
   44.1348   88.8075   61.7078 H   0  0  0  0  0  0  0  0  0  0  0  0
   43.8825   89.1477   59.2300 H   0  0  0  0  0  0  0  0  0  0  0  0
   45.1685   85.0423   57.3943 H   0  0  0  0  0  0  0  0  0  0  0  0
   44.0808   88.2133   57.0815 H   0  0  0  0  0  0  0  0  0  0  0  0
  1  9  2  0
  1  2  1  0
  2  3  2  0
  3  4  1  0
  3 16  1  0
  4  5  1  0
  6  5  1  0
  7  6  2  0
  8  7  1  0
  8  4  2  0
  9  8  1  0
 10 11  2  0
 10 15  1  0
 11 12  1  0
 12  2  1  0
 12 13  2  0
 14 13  1  0
 15 14  2  0
 16 17  2  0
 18 17  1  0
 19 18  1  0
 20 19  2  0
 20 16  1  0
 21 19  1  0
 22 23  2  0
 23 21  1  0
 23 24  1  0
 25 24  2  0
 26 25  1  0
 27 22  1  0
 27 26  2  0
 28 22  1  0
 29 27  1  0
  1 30  1  0
  5 31  1  0
  6 32  1  0
  9 33  1  0
 10 34  1  0
 11 35  1  0
 14 36  1  0
 17 37  1  0
 18 38  1  0
 21 39  1  0
 21 40  1  0
 24 41  1  0
 25 42  1  0
 26 43  1  0
 28 44  1  0
 29 45  1  0
M  END
>  <Score>  (1) 
-7.15623

>  <Score_dual>  (1) 
-7.08

>  <Choices>  (1) 
[None, 8, ['34-23', 60], 16, ['23-9', 150], 29, ['3-10', 0], 32, ['35-16', 315]]

$$$$
