
     RDKit          3D

 39 42  0  0  0  0  0  0  0  0999 V2000
   41.9590   78.4650   62.5980 Cl  0  0  0  0  0  0  0  0  0  0  0  0
   43.4570   79.3140   62.2520 C   0  0  0  0  0  0  0  0  0  0  0  0
   43.3990   80.6170   61.8120 C   0  0  0  0  0  0  0  0  0  0  0  0
   44.6080   81.1950   61.5700 C   0  0  0  0  0  0  0  0  0  0  0  0
   45.8170   80.5680   61.7370 C   0  0  0  0  0  0  0  0  0  0  0  0
   45.8490   79.2550   62.1810 C   0  0  0  0  0  0  0  0  0  0  0  0
   44.6440   78.6310   62.4390 C   0  0  0  0  0  0  0  0  0  0  0  0
   39.9540   81.4450   60.6930 C   0  0  0  0  0  0  0  0  0  0  0  0
   41.1590   80.7380   60.7760 C   0  0  0  0  0  0  0  0  0  0  0  0
   42.1130   81.2620   61.6410 C   0  0  0  0  0  0  0  0  0  0  0  0
   41.8220   82.3970   62.3280 N   0  0  0  0  0  0  0  0  0  0  0  0
   40.6380   83.0470   62.2130 C   0  0  0  0  0  0  0  0  0  0  0  0
   39.6940   82.5600   61.3800 N   0  0  0  0  0  0  0  0  0  0  0  0
   40.3710   84.0870   64.4150 C   0  0  0  0  0  0  0  0  0  0  0  0
   40.3010   82.9090   64.8850 O   0  0  0  0  0  0  0  0  0  0  0  0
   40.5490   84.1920   63.0090 N   0  0  0  0  0  0  0  0  0  0  0  0
   40.2830   85.2410   65.2080 N   0  0  0  0  0  0  0  0  0  0  0  0
   45.5690   76.8210   63.9110 C   0  0  0  0  0  0  0  0  0  0  0  0
   44.7260   77.2500   62.9050 C   0  0  0  0  0  0  0  0  0  0  0  0
   43.9220   76.2970   62.3210 C   0  0  0  0  0  0  0  0  0  0  0  0
   43.9620   74.9800   62.7260 C   0  0  0  0  0  0  0  0  0  0  0  0
   43.3050   73.8820   62.3370 N   0  0  0  0  0  0  0  0  0  0  0  0
   43.7450   72.8420   63.0860 C   0  0  0  0  0  0  0  0  0  0  0  0
   44.6730   73.2330   63.9560 N   0  0  0  0  0  0  0  0  0  0  0  0
   44.8120   74.5640   63.7350 C   0  0  0  0  0  0  0  0  0  0  0  0
   45.6300   75.5090   64.3360 C   0  0  0  0  0  0  0  0  0  0  0  0
   44.6159   82.2365   61.2162 H   0  0  0  0  0  0  0  0  0  0  0  0
   46.7535   81.1029   61.5203 H   0  0  0  0  0  0  0  0  0  0  0  0
   46.8035   78.7271   62.3233 H   0  0  0  0  0  0  0  0  0  0  0  0
   39.1736   81.0586   60.0209 H   0  0  0  0  0  0  0  0  0  0  0  0
   41.3403   79.8234   60.1924 H   0  0  0  0  0  0  0  0  0  0  0  0
   40.6131   85.1224   62.5718 H   0  0  0  0  0  0  0  0  0  0  0  0
   40.3464   86.1718   64.7716 H   0  0  0  0  0  0  0  0  0  0  0  0
   40.1550   85.1574   66.2266 H   0  0  0  0  0  0  0  0  0  0  0  0
   46.2231   77.5599   64.3969 H   0  0  0  0  0  0  0  0  0  0  0  0
   43.2340   76.5925   61.5152 H   0  0  0  0  0  0  0  0  0  0  0  0
   42.5897   73.8351   61.5974 H   0  0  0  0  0  0  0  0  0  0  0  0
   43.3821   71.8083   62.9876 H   0  0  0  0  0  0  0  0  0  0  0  0
   46.3193   75.2165   65.1418 H   0  0  0  0  0  0  0  0  0  0  0  0
  2  7  2  0
  2  1  1  0
  3  2  1  0
  4  5  1  0
  4  3  2  0
  5  6  2  0
  6  7  1  0
  7 19  1  0
  8  9  2  0
  8 13  1  0
  9 10  1  0
 10  3  1  0
 10 11  2  0
 12 11  1  0
 12 16  1  0
 13 12  2  0
 14 15  2  0
 14 17  1  0
 16 14  1  0
 18 26  2  0
 19 18  1  0
 20 21  1  0
 20 19  2  0
 21 25  2  0
 22 21  1  0
 22 23  1  0
 23 24  2  0
 25 24  1  0
 25 26  1  0
  4 27  1  0
  5 28  1  0
  6 29  1  0
  8 30  1  0
  9 31  1  0
 16 32  1  0
 17 33  1  0
 17 34  1  0
 18 35  1  0
 20 36  1  0
 22 37  1  0
 23 38  1  0
 26 39  1  0
M  END
>  <Score>  (1) 
-7.2783

>  <Score_dual>  (1) 
-7.07

>  <Choices>  (1) 
[None, 9, ['12-5', 195], 12, ['0-20', 0], 12, ['7-17', 150], 25, ['34-21', 120]]

$$$$
