
     RDKit          3D

 50 54  0  0  1  0  0  0  0  0999 V2000
   40.6140   79.0530   57.9930 C   0  0  0  0  0  0  0  0  0  0  0  0
   40.5610   80.4250   58.0360 C   0  0  0  0  0  0  0  0  0  0  0  0
   39.6100   81.1420   57.3000 C   0  0  0  0  0  0  0  0  0  0  0  0
   38.6960   80.4600   56.5050 C   0  0  0  0  0  0  0  0  0  0  0  0
   37.7000   80.8850   55.7130 N   0  0  0  0  0  0  0  0  0  0  0  0
   37.1080   79.8270   55.1610 N   0  0  0  0  0  0  0  0  0  0  0  0
   37.7340   78.7090   55.6070 C   0  0  0  0  0  0  0  0  0  0  0  0
   38.7500   79.0820   56.4630 C   0  0  0  0  0  0  0  0  0  0  0  0
   39.7010   78.3790   57.2020 C   0  0  0  0  0  0  0  0  0  0  0  0
   38.9560   76.2290   58.2150 C   0  0  2  0  0  0  0  0  0  0  0  0
   39.7460   76.9100   57.1470 C   0  0  1  0  0  0  0  0  0  0  0  0
   39.3750   76.3840   55.9170 O   0  0  0  0  0  0  0  0  0  0  0  0
   39.7800   75.0550   55.8410 C   0  0  0  0  0  0  0  0  0  0  0  0
   39.0790   74.2040   56.8640 C   0  0  2  0  0  0  0  0  0  0  0  0
   39.3470   74.7650   58.2340 C   0  0  1  0  0  0  0  0  0  0  0  0
   37.5750   76.2360   57.9500 O   0  0  0  0  0  0  0  0  0  0  0  0
   39.5920   72.9140   56.8080 O   0  0  0  0  0  0  0  0  0  0  0  0
   40.6850   74.5610   58.5490 O   0  0  0  0  0  0  0  0  0  0  0  0
   41.6500   81.4750   58.9960 S   0  0  0  0  0  0  0  0  0  0  0  0
   41.1920   84.1320   59.3300 C   0  0  0  0  0  0  0  0  0  0  0  0
   41.5670   83.1750   58.4480 C   0  0  0  0  0  0  0  0  0  0  0  0
   41.9020   83.3980   57.1210 C   0  0  0  0  0  0  0  0  0  0  0  0
   41.8500   84.6960   56.6530 C   0  0  0  0  0  0  0  0  0  0  0  0
   41.4650   85.6580   57.5720 C   0  0  0  0  0  0  0  0  0  0  0  0
   41.1440   85.4050   58.8640 N   0  0  0  0  0  0  0  0  0  0  0  0
   39.5770   83.4440   61.1660 C   0  0  0  0  0  0  0  0  0  0  0  0
   40.8440   83.8630   60.7290 C   0  0  0  0  0  0  0  0  0  0  0  0
   41.8420   84.0350   61.6880 C   0  0  0  0  0  0  0  0  0  0  0  0
   41.5500   83.7930   63.0030 N   0  0  0  0  0  0  0  0  0  0  0  0
   40.2890   83.3840   63.3740 C   0  0  0  0  0  0  0  0  0  0  0  0
   39.3020   83.2110   62.4500 N   0  0  0  0  0  0  0  0  0  0  0  0
   41.3669   78.5017   58.5755 H   0  0  0  0  0  0  0  0  0  0  0  0
   39.5861   82.2406   57.3506 H   0  0  0  0  0  0  0  0  0  0  0  0
   37.4362   81.8684   55.5573 H   0  0  0  0  0  0  0  0  0  0  0  0
   37.4745   77.6761   55.3318 H   0  0  0  0  0  0  0  0  0  0  0  0
   39.1615   76.7616   59.1553 H   0  0  0  0  0  0  0  0  0  0  0  0
   40.8118   76.6990   57.3186 H   0  0  0  0  0  0  0  0  0  0  0  0
   39.5503   74.6685   54.8371 H   0  0  0  0  0  0  0  0  0  0  0  0
   40.8610   75.0125   56.0401 H   0  0  0  0  0  0  0  0  0  0  0  0
   37.9979   74.1931   56.6612 H   0  0  0  0  0  0  0  0  0  0  0  0
   38.7562   74.2643   59.0152 H   0  0  0  0  0  0  0  0  0  0  0  0
   37.0750   76.2385   58.8045 H   0  0  0  0  0  0  0  0  0  0  0  0
   39.7277   72.5727   57.7273 H   0  0  0  0  0  0  0  0  0  0  0  0
   40.7936   74.5444   59.5329 H   0  0  0  0  0  0  0  0  0  0  0  0
   42.1993   82.5682   56.4629 H   0  0  0  0  0  0  0  0  0  0  0  0
   42.0995   84.9508   55.6124 H   0  0  0  0  0  0  0  0  0  0  0  0
   41.4163   86.7019   57.2286 H   0  0  0  0  0  0  0  0  0  0  0  0
   38.7806   83.3025   60.4205 H   0  0  0  0  0  0  0  0  0  0  0  0
   42.8500   84.3607   61.3915 H   0  0  0  0  0  0  0  0  0  0  0  0
   40.0739   83.1933   64.4358 H   0  0  0  0  0  0  0  0  0  0  0  0
  1  2  2  0
  2 19  1  0
  3  2  1  0
  4  3  2  0
  5  4  1  0
  6  7  2  0
  6  5  1  0
  7  8  1  0
  8  4  1  0
  8  9  2  0
  9  1  1  0
 10 16  1  0
 10 15  1  0
 11  9  1  0
 11 10  1  0
 12 11  1  0
 13 12  1  0
 13 14  1  0
 14 17  1  0
 14 15  1  0
 15 18  1  0
 20 27  1  0
 21 19  1  0
 21 20  1  0
 22 21  2  0
 23 22  1  0
 23 24  2  0
 24 25  1  0
 25 20  2  0
 26 31  2  0
 27 26  1  0
 27 28  2  0
 28 29  1  0
 29 30  2  0
 31 30  1  0
  1 32  1  0
  3 33  1  0
  5 34  1  0
  7 35  1  0
 10 36  1  1
 11 37  1  1
 13 38  1  0
 13 39  1  0
 14 40  1  6
 15 41  1  1
 16 42  1  0
 17 43  1  0
 18 44  1  0
 22 45  1  0
 23 46  1  0
 24 47  1  0
 26 48  1  0
 28 49  1  0
 30 50  1  0
M  END
>  <Score>  (1) 
-7.2941

>  <Score_dual>  (1) 
-7.74

>  <Choices>  (1) 
[None, 7, ['6-18', 150], 15, ['17-16', 0], 19, ['54-19', 0], 32, ['21-21', 135]]

$$$$
