
     RDKit          3D

 45 48  0  0  0  0  0  0  0  0999 V2000
   41.9770   78.4610   62.7370 Cl  0  0  0  0  0  0  0  0  0  0  0  0
   43.4200   79.3500   62.2780 C   0  0  0  0  0  0  0  0  0  0  0  0
   43.3000   80.6420   61.8040 C   0  0  0  0  0  0  0  0  0  0  0  0
   44.4700   81.2460   61.4750 C   0  0  0  0  0  0  0  0  0  0  0  0
   45.7080   80.6600   61.5860 C   0  0  0  0  0  0  0  0  0  0  0  0
   45.8010   79.3570   62.0660 C   0  0  0  0  0  0  0  0  0  0  0  0
   44.6460   78.7040   62.4120 C   0  0  0  0  0  0  0  0  0  0  0  0
   39.7700   81.3280   60.8910 C   0  0  0  0  0  0  0  0  0  0  0  0
   40.9910   80.6530   60.9140 C   0  0  0  0  0  0  0  0  0  0  0  0
   41.9920   81.2380   61.6950 C   0  0  0  0  0  0  0  0  0  0  0  0
   41.7040   82.3930   62.3590 N   0  0  0  0  0  0  0  0  0  0  0  0
   40.5040   82.9990   62.2990 C   0  0  0  0  0  0  0  0  0  0  0  0
   39.5170   82.4570   61.5520 N   0  0  0  0  0  0  0  0  0  0  0  0
   40.3420   84.1150   64.4820 C   0  0  0  0  0  0  0  0  0  0  0  0
   40.3340   82.9490   64.9930 O   0  0  0  0  0  0  0  0  0  0  0  0
   40.4310   84.1690   63.0560 N   0  0  0  0  0  0  0  0  0  0  0  0
   40.2700   85.2880   65.2460 N   0  0  0  0  0  0  0  0  0  0  0  0
   45.7160   76.9620   63.8600 C   0  0  0  0  0  0  0  0  0  0  0  0
   44.8000   77.3410   62.9070 C   0  0  0  0  0  0  0  0  0  0  0  0
   43.9830   76.3510   62.4000 C   0  0  0  0  0  0  0  0  0  0  0  0
   44.0880   75.0480   62.8330 C   0  0  0  0  0  0  0  0  0  0  0  0
   43.4320   73.9190   62.5110 N   0  0  0  0  0  0  0  0  0  0  0  0
   43.9500   72.9200   63.2510 C   0  0  0  0  0  0  0  0  0  0  0  0
   44.9190   73.3520   64.0440 N   0  0  0  0  0  0  0  0  0  0  0  0
   45.0140   74.6800   63.7910 C   0  0  0  0  0  0  0  0  0  0  0  0
   45.8380   75.6580   64.3080 C   0  0  0  0  0  0  0  0  0  0  0  0
   46.8340   75.2620   65.3400 C   0  0  0  0  0  0  0  0  0  0  0  0
   47.8070   76.3880   65.6620 C   0  0  0  0  0  0  0  0  0  0  0  0
   44.4241   82.2765   61.0929 H   0  0  0  0  0  0  0  0  0  0  0  0
   46.6141   81.2138   61.2991 H   0  0  0  0  0  0  0  0  0  0  0  0
   46.7785   78.8624   62.1655 H   0  0  0  0  0  0  0  0  0  0  0  0
   38.9593   80.8979   60.2846 H   0  0  0  0  0  0  0  0  0  0  0  0
   41.1553   79.7207   60.3537 H   0  0  0  0  0  0  0  0  0  0  0  0
   40.4414   85.0831   62.5815 H   0  0  0  0  0  0  0  0  0  0  0  0
   40.2802   86.2070   64.7809 H   0  0  0  0  0  0  0  0  0  0  0  0
   40.2069   85.2310   66.2725 H   0  0  0  0  0  0  0  0  0  0  0  0
   46.3808   77.7285   64.2849 H   0  0  0  0  0  0  0  0  0  0  0  0
   43.2343   76.6074   61.6361 H   0  0  0  0  0  0  0  0  0  0  0  0
   42.6707   73.8337   61.8225 H   0  0  0  0  0  0  0  0  0  0  0  0
   43.6104   71.8748   63.2028 H   0  0  0  0  0  0  0  0  0  0  0  0
   46.2992   74.9821   66.2596 H   0  0  0  0  0  0  0  0  0  0  0  0
   47.4150   74.4170   64.9420 H   0  0  0  0  0  0  0  0  0  0  0  0
   47.8979   76.4932   66.7532 H   0  0  0  0  0  0  0  0  0  0  0  0
   48.7926   76.1549   65.2327 H   0  0  0  0  0  0  0  0  0  0  0  0
   47.4334   77.3294   65.2327 H   0  0  0  0  0  0  0  0  0  0  0  0
  2  7  2  0
  2  1  1  0
  3  2  1  0
  4  5  1  0
  4  3  2  0
  5  6  2  0
  6  7  1  0
  7 19  1  0
  8  9  2  0
  8 13  1  0
  9 10  1  0
 10  3  1  0
 10 11  2  0
 12 11  1  0
 12 16  1  0
 13 12  2  0
 14 15  2  0
 14 17  1  0
 16 14  1  0
 18 26  2  0
 19 18  1  0
 20 21  1  0
 20 19  2  0
 21 25  2  0
 22 21  1  0
 22 23  1  0
 23 24  2  0
 25 24  1  0
 25 26  1  0
 26 27  1  0
 27 28  1  0
  4 29  1  0
  5 30  1  0
  6 31  1  0
  8 32  1  0
  9 33  1  0
 16 34  1  0
 17 35  1  0
 17 36  1  0
 18 37  1  0
 20 38  1  0
 22 39  1  0
 23 40  1  0
 27 41  1  0
 27 42  1  0
 28 43  1  0
 28 44  1  0
 28 45  1  0
M  END
>  <Score>  (1) 
-7.28305

>  <Score_dual>  (1) 
-7.52

>  <Choices>  (1) 
[None, 9, ['12-5', 195], 12, ['0-20', 0], 12, ['7-17', 150], 25, ['34-21', 120], 38, ['4-13', 135]]

$$$$
