
     RDKit          3D

 48 52  0  0  0  0  0  0  0  0999 V2000
   40.4630   79.6200   60.6060 C   0  0  0  0  0  0  0  0  0  0  0  0
   41.9130   81.4570   61.5320 C   0  0  0  0  0  0  0  0  0  0  0  0
   43.1270   81.7930   62.0870 C   0  0  0  0  0  0  0  0  0  0  0  0
   44.0970   80.8350   62.3060 C   0  0  0  0  0  0  0  0  0  0  0  0
   43.8980   79.5110   61.9830 C   0  0  0  0  0  0  0  0  0  0  0  0
   42.7030   79.1600   61.4330 C   0  0  0  0  0  0  0  0  0  0  0  0
   41.7110   80.1180   61.2040 C   0  0  0  0  0  0  0  0  0  0  0  0
   40.8660   82.4380   61.2850 C   0  0  0  0  0  0  0  0  0  0  0  0
   40.7430   83.1720   60.1240 C   0  0  0  0  0  0  0  0  0  0  0  0
   39.7300   84.0960   59.9310 C   0  0  0  0  0  0  0  0  0  0  0  0
   38.8330   84.2480   60.9760 N   0  0  0  0  0  0  0  0  0  0  0  0
   38.9770   83.5180   62.1010 C   0  0  0  0  0  0  0  0  0  0  0  0
   39.9730   82.6150   62.2800 N   0  0  0  0  0  0  0  0  0  0  0  0
   41.6970   82.9650   59.0910 N   0  0  0  0  0  0  0  0  0  0  0  0
   40.6050   79.0370   59.2310 C   0  0  0  0  0  0  0  0  0  0  0  0
   39.6580   77.9450   59.1130 N   0  0  0  0  0  0  0  0  0  0  0  0
   39.4500   76.9350   59.9720 C   0  0  0  0  0  0  0  0  0  0  0  0
   38.4600   76.1490   59.4340 N   0  0  0  0  0  0  0  0  0  0  0  0
   38.0880   76.6980   58.2580 C   0  0  0  0  0  0  0  0  0  0  0  0
   37.1450   76.3070   57.3040 C   0  0  0  0  0  0  0  0  0  0  0  0
   36.9420   77.0760   56.1950 N   0  0  0  0  0  0  0  0  0  0  0  0
   37.7120   78.1780   56.0570 C   0  0  0  0  0  0  0  0  0  0  0  0
   38.6200   78.5160   56.9670 N   0  0  0  0  0  0  0  0  0  0  0  0
   38.8410   77.8180   58.0670 C   0  0  0  0  0  0  0  0  0  0  0  0
   37.4220   78.9490   54.8240 C   0  0  0  0  0  0  0  0  0  0  0  0
   37.4960   80.3000   54.5820 C   0  0  0  0  0  0  0  0  0  0  0  0
   37.1310   80.5070   53.3030 N   0  0  0  0  0  0  0  0  0  0  0  0
   36.8280   79.3310   52.7220 C   0  0  0  0  0  0  0  0  0  0  0  0
   37.0120   78.3870   53.6700 N   0  0  0  0  0  0  0  0  0  0  0  0
   40.0560   78.8402   61.2665 H   0  0  0  0  0  0  0  0  0  0  0  0
   39.8030   80.4938   60.5018 H   0  0  0  0  0  0  0  0  0  0  0  0
   43.3273   82.8396   62.3599 H   0  0  0  0  0  0  0  0  0  0  0  0
   45.0562   81.1380   62.7512 H   0  0  0  0  0  0  0  0  0  0  0  0
   44.6809   78.7598   62.1639 H   0  0  0  0  0  0  0  0  0  0  0  0
   42.5158   78.1096   61.1655 H   0  0  0  0  0  0  0  0  0  0  0  0
   39.6423   84.6765   59.0008 H   0  0  0  0  0  0  0  0  0  0  0  0
   38.2502   83.6623   62.9140 H   0  0  0  0  0  0  0  0  0  0  0  0
   41.6296   83.4994   58.2131 H   0  0  0  0  0  0  0  0  0  0  0  0
   42.4558   82.2806   59.2203 H   0  0  0  0  0  0  0  0  0  0  0  0
   40.3867   79.8051   58.4744 H   0  0  0  0  0  0  0  0  0  0  0  0
   41.6313   78.6748   59.0711 H   0  0  0  0  0  0  0  0  0  0  0  0
   39.9727   76.7683   60.9254 H   0  0  0  0  0  0  0  0  0  0  0  0
   37.4455   75.3100   56.9494 H   0  0  0  0  0  0  0  0  0  0  0  0
   36.1898   76.3823   57.8444 H   0  0  0  0  0  0  0  0  0  0  0  0
   39.1800   79.3654   56.8065 H   0  0  0  0  0  0  0  0  0  0  0  0
   37.7990   81.0729   55.3036 H   0  0  0  0  0  0  0  0  0  0  0  0
   37.0898   81.4258   52.8392 H   0  0  0  0  0  0  0  0  0  0  0  0
   36.4975   79.1714   51.6850 H   0  0  0  0  0  0  0  0  0  0  0  0
  1  7  1  0
  2  3  2  0
  3  4  1  0
  5  4  2  0
  6  5  1  0
  7  6  2  0
  7  2  1  0
  8  2  1  0
  8 13  1  0
  9  8  2  0
 10  9  1  0
 10 11  2  0
 11 12  1  0
 12 13  2  0
 14  9  1  0
 15  1  1  0
 16 15  1  0
 16 17  1  0
 18 17  2  0
 19 18  1  0
 20 19  1  0
 21 20  1  0
 22 21  2  0
 22 23  1  0
 23 24  1  0
 24 19  2  0
 24 16  1  0
 25 22  1  0
 26 25  2  0
 27 26  1  0
 28 27  1  0
 28 29  2  0
 29 25  1  0
  1 30  1  0
  1 31  1  0
  3 32  1  0
  4 33  1  0
  5 34  1  0
  6 35  1  0
 10 36  1  0
 12 37  1  0
 14 38  1  0
 14 39  1  0
 15 40  1  0
 15 41  1  0
 17 42  1  0
 20 43  1  0
 20 44  1  0
 23 45  1  0
 26 46  1  0
 27 47  1  0
 28 48  1  0
M  END
>  <Score>  (1) 
-7.23518

>  <Score_dual>  (1) 
-7.16

>  <Choices>  (1) 
[None, 7, ['0-3', 0], 7, ['1-25', 90], 19, ['4-13', 0], 27, ['45-11', 285], 39, ['23-8', 150]]

$$$$
