
     RDKit          3D

 41 44  0  0  0  0  0  0  0  0999 V2000
   40.4430   80.3820   54.8280 Cl  0  0  0  0  0  0  0  0  0  0  0  0
   40.6400   81.2260   56.3900 C   0  0  0  0  0  0  0  0  0  0  0  0
   39.8690   80.8080   57.4730 C   0  0  0  0  0  0  0  0  0  0  0  0
   39.9940   81.4370   58.6950 C   0  0  0  0  0  0  0  0  0  0  0  0
   40.9080   82.4790   58.7810 C   0  0  0  0  0  0  0  0  0  0  0  0
   41.6720   82.9020   57.7310 C   0  0  0  0  0  0  0  0  0  0  0  0
   41.5320   82.2630   56.5230 C   0  0  0  0  0  0  0  0  0  0  0  0
   41.0140   83.1240   60.0990 C   0  0  0  0  0  0  0  0  0  0  0  0
   42.1080   83.8630   60.5610 C   0  0  0  0  0  0  0  0  0  0  0  0
   41.7610   84.2570   61.8080 N   0  0  0  0  0  0  0  0  0  0  0  0
   40.5350   83.7990   62.1100 C   0  0  0  0  0  0  0  0  0  0  0  0
   40.0770   83.1040   61.0590 N   0  0  0  0  0  0  0  0  0  0  0  0
   40.4440   84.1340   64.5870 C   0  0  0  0  0  0  0  0  0  0  0  0
   41.7130   84.0940   64.6500 O   0  0  0  0  0  0  0  0  0  0  0  0
   39.8020   83.9890   63.3180 N   0  0  0  0  0  0  0  0  0  0  0  0
   37.0040   78.8610   56.3160 C   0  0  0  0  0  0  0  0  0  0  0  0
   37.2080   77.5920   56.9040 C   0  0  0  0  0  0  0  0  0  0  0  0
   38.3320   77.4400   57.6870 C   0  0  0  0  0  0  0  0  0  0  0  0
   39.1480   78.5020   57.8350 N   0  0  0  0  0  0  0  0  0  0  0  0
   38.9360   79.6970   57.2680 C   0  0  0  0  0  0  0  0  0  0  0  0
   37.8440   79.8970   56.4880 N   0  0  0  0  0  0  0  0  0  0  0  0
   39.3900   75.3120   56.2840 F   0  0  0  0  0  0  0  0  0  0  0  0
   39.1800   75.1370   57.6180 C   0  0  0  0  0  0  0  0  0  0  0  0
   38.6530   76.1820   58.3470 C   0  0  0  0  0  0  0  0  0  0  0  0
   38.4620   75.9470   59.6920 C   0  0  0  0  0  0  0  0  0  0  0  0
   38.7670   74.7590   60.3020 C   0  0  0  0  0  0  0  0  0  0  0  0
   39.2950   73.7410   59.5220 C   0  0  0  0  0  0  0  0  0  0  0  0
   39.5160   73.9080   58.1510 C   0  0  0  0  0  0  0  0  0  0  0  0
   39.3952   81.1263   59.5638 H   0  0  0  0  0  0  0  0  0  0  0  0
   42.3819   83.7338   57.8496 H   0  0  0  0  0  0  0  0  0  0  0  0
   42.1352   82.5821   55.6602 H   0  0  0  0  0  0  0  0  0  0  0  0
   43.0456   84.0771   60.0271 H   0  0  0  0  0  0  0  0  0  0  0  0
   42.3503   84.8246   62.4336 H   0  0  0  0  0  0  0  0  0  0  0  0
   39.8464   84.2786   65.4991 H   0  0  0  0  0  0  0  0  0  0  0  0
   38.7735   84.0230   63.2749 H   0  0  0  0  0  0  0  0  0  0  0  0
   36.1141   79.0085   55.6865 H   0  0  0  0  0  0  0  0  0  0  0  0
   36.5021   76.7637   56.7440 H   0  0  0  0  0  0  0  0  0  0  0  0
   38.0425   76.7562   60.3078 H   0  0  0  0  0  0  0  0  0  0  0  0
   38.5980   74.6165   61.3796 H   0  0  0  0  0  0  0  0  0  0  0  0
   39.5460   72.7791   59.9929 H   0  0  0  0  0  0  0  0  0  0  0  0
   39.9354   73.1028   57.5299 H   0  0  0  0  0  0  0  0  0  0  0  0
  1  2  1  0
  2  7  2  0
  2  3  1  0
  3  4  2  0
  4  5  1  0
  5  8  1  0
  6  5  2  0
  7  6  1  0
  8  9  2  0
  8 12  1  0
  9 10  1  0
 10 11  1  0
 11 15  1  0
 12 11  2  0
 13 14  2  0
 15 13  1  0
 16 21  2  0
 16 17  1  0
 17 18  2  0
 18 19  1  0
 18 24  1  0
 20  3  1  0
 20 19  2  0
 21 20  1  0
 22 23  1  0
 23 28  2  0
 23 24  1  0
 24 25  2  0
 25 26  1  0
 27 26  2  0
 28 27  1  0
  4 29  1  0
  6 30  1  0
  7 31  1  0
  9 32  1  0
 10 33  1  0
 13 34  1  0
 15 35  1  0
 16 36  1  0
 17 37  1  0
 25 38  1  0
 26 39  1  0
 27 40  1  0
 28 41  1  0
M  END
>  <Score>  (1) 
-7.55707

>  <Score_dual>  (1) 
-7.26

>  <Choices>  (1) 
[None, 9, ['7-18', 60], 17, ['23-8', 315], 26, ['12-5', 150], 30, ['9-17', 285]]

$$$$
