
     RDKit          3D

 46 50  0  0  0  0  0  0  0  0999 V2000
   40.6890   79.5030   61.6230 C   0  0  0  0  0  0  0  0  0  0  0  0
   40.3710   79.8970   62.7710 O   0  0  0  0  0  0  0  0  0  0  0  0
   40.5680   80.4800   60.5810 N   0  0  0  0  0  0  0  0  0  0  0  0
   39.5980   83.9940   59.9080 C   0  0  0  0  0  0  0  0  0  0  0  0
   40.1250   82.7170   59.7280 C   0  0  0  0  0  0  0  0  0  0  0  0
   40.0290   81.7820   60.7670 C   0  0  0  0  0  0  0  0  0  0  0  0
   39.4280   82.1660   61.8960 N   0  0  0  0  0  0  0  0  0  0  0  0
   38.9250   83.4220   62.0380 C   0  0  0  0  0  0  0  0  0  0  0  0
   39.0150   84.3250   61.0400 N   0  0  0  0  0  0  0  0  0  0  0  0
   42.9580   83.7180   59.5100 Cl  0  0  0  0  0  0  0  0  0  0  0  0
   42.0710   82.8320   58.2720 C   0  0  0  0  0  0  0  0  0  0  0  0
   40.7650   82.4030   58.4450 C   0  0  0  0  0  0  0  0  0  0  0  0
   40.1320   81.7080   57.4200 C   0  0  0  0  0  0  0  0  0  0  0  0
   40.7940   81.4460   56.2350 C   0  0  0  0  0  0  0  0  0  0  0  0
   42.0860   81.8790   56.0830 C   0  0  0  0  0  0  0  0  0  0  0  0
   42.7560   82.5770   57.0840 C   0  0  0  0  0  0  0  0  0  0  0  0
   41.1680   78.1460   61.2650 C   0  0  0  0  0  0  0  0  0  0  0  0
   40.4340   77.1640   60.6300 C   0  0  0  0  0  0  0  0  0  0  0  0
   41.2890   76.0910   60.5130 C   0  0  0  0  0  0  0  0  0  0  0  0
   42.4890   76.4610   61.0740 C   0  0  0  0  0  0  0  0  0  0  0  0
   42.3780   77.7140   61.5200 O   0  0  0  0  0  0  0  0  0  0  0  0
   40.8530   74.8750   59.8910 N   0  0  0  0  0  0  0  0  0  0  0  0
   40.1770   74.7940   58.7320 C   0  0  0  0  0  0  0  0  0  0  0  0
   39.9650   73.4640   58.5080 N   0  0  0  0  0  0  0  0  0  0  0  0
   40.5050   72.7590   59.5170 C   0  0  0  0  0  0  0  0  0  0  0  0
   40.6200   71.4250   59.8580 C   0  0  0  0  0  0  0  0  0  0  0  0
   41.2520   71.0620   60.9880 N   0  0  0  0  0  0  0  0  0  0  0  0
   41.8000   71.9410   61.8420 C   0  0  0  0  0  0  0  0  0  0  0  0
   41.7070   73.2320   61.5410 N   0  0  0  0  0  0  0  0  0  0  0  0
   41.0730   73.6340   60.4050 C   0  0  0  0  0  0  0  0  0  0  0  0
   43.6140   75.5920   61.1310 N   0  0  0  0  0  0  0  0  0  0  0  0
   40.8921   80.2222   59.6379 H   0  0  0  0  0  0  0  0  0  0  0  0
   39.6700   84.7325   59.0960 H   0  0  0  0  0  0  0  0  0  0  0  0
   38.4369   83.7058   62.9821 H   0  0  0  0  0  0  0  0  0  0  0  0
   39.0958   81.3639   57.5534 H   0  0  0  0  0  0  0  0  0  0  0  0
   40.2910   80.8975   55.4250 H   0  0  0  0  0  0  0  0  0  0  0  0
   42.6103   81.6680   55.1393 H   0  0  0  0  0  0  0  0  0  0  0  0
   43.7927   82.9166   56.9425 H   0  0  0  0  0  0  0  0  0  0  0  0
   39.3896   77.2256   60.2902 H   0  0  0  0  0  0  0  0  0  0  0  0
   39.8587   75.6307   58.0928 H   0  0  0  0  0  0  0  0  0  0  0  0
   39.5965   71.0281   59.9278 H   0  0  0  0  0  0  0  0  0  0  0  0
   41.2728   71.0231   59.0691 H   0  0  0  0  0  0  0  0  0  0  0  0
   42.3078   71.6047   62.7580 H   0  0  0  0  0  0  0  0  0  0  0  0
   42.1180   73.9345   62.1723 H   0  0  0  0  0  0  0  0  0  0  0  0
   44.4924   75.9143   61.5615 H   0  0  0  0  0  0  0  0  0  0  0  0
   43.5500   74.6405   60.7417 H   0  0  0  0  0  0  0  0  0  0  0  0
  1  2  2  0
  3  6  1  0
  3  1  1  0
  4  9  2  0
  5  4  1  0
  5  6  2  0
  6  7  1  0
  7  8  2  0
  9  8  1  0
 11 12  2  0
 11 10  1  0
 12  5  1  0
 13 12  1  0
 14 13  2  0
 15 14  1  0
 15 16  2  0
 16 11  1  0
 17 21  1  0
 17  1  1  0
 18 17  2  0
 19 18  1  0
 19 20  2  0
 20 31  1  0
 20 21  1  0
 22 30  1  0
 22 19  1  0
 23 22  1  0
 24 23  2  0
 24 25  1  0
 25 26  1  0
 25 30  2  0
 26 27  1  0
 27 28  2  0
 29 28  1  0
 30 29  1  0
  3 32  1  0
  4 33  1  0
  8 34  1  0
 13 35  1  0
 14 36  1  0
 15 37  1  0
 16 38  1  0
 18 39  1  0
 23 40  1  0
 26 41  1  0
 26 42  1  0
 28 43  1  0
 29 44  1  0
 31 45  1  0
 31 46  1  0
M  END
>  <Score>  (1) 
-7.38296

>  <Score_dual>  (1) 
-7.57

>  <Choices>  (1) 
[None, 8, ['12-5', 75], 10, ['7-17', 330], 22, ['43-9', 315], 30, ['0-4', 0], 30, ['45-13', 180]]

$$$$
