
     RDKit          3D

 54 58  0  0  0  0  0  0  0  0999 V2000
   40.4090   76.7100   60.6350 C   0  0  0  0  0  0  0  0  0  0  0  0
   40.2500   78.0330   58.5120 C   0  0  0  0  0  0  0  0  0  0  0  0
   39.7290   77.1190   59.4270 C   0  0  0  0  0  0  0  0  0  0  0  0
   38.4870   76.6060   59.1090 C   0  0  0  0  0  0  0  0  0  0  0  0
   37.7770   76.9490   57.9720 C   0  0  0  0  0  0  0  0  0  0  0  0
   36.5770   76.5590   57.5050 N   0  0  0  0  0  0  0  0  0  0  0  0
   36.3600   77.2060   56.3450 C   0  0  0  0  0  0  0  0  0  0  0  0
   37.4330   77.9920   56.1080 N   0  0  0  0  0  0  0  0  0  0  0  0
   38.3390   77.8540   57.1080 C   0  0  0  0  0  0  0  0  0  0  0  0
   39.5860   78.4070   57.3700 C   0  0  0  0  0  0  0  0  0  0  0  0
   40.0440   79.3170   56.4070 N   0  0  0  0  0  0  0  0  0  0  0  0
   39.9160   80.6850   56.7860 C   0  0  0  0  0  0  0  0  0  0  0  0
   40.8690   81.6100   56.0880 C   0  0  0  0  0  0  0  0  0  0  0  0
   42.0550   80.8910   55.4930 C   0  0  0  0  0  0  0  0  0  0  0  0
   41.6650   79.7660   54.5940 C   0  0  0  0  0  0  0  0  0  0  0  0
   40.5950   78.8880   55.1410 C   0  0  0  0  0  0  0  0  0  0  0  0
   40.2840   77.5320   61.8640 C   0  0  0  0  0  0  0  0  0  0  0  0
   41.4490   80.9980   61.5720 C   0  0  0  0  0  0  0  0  0  0  0  0
   42.8060   80.9280   61.7530 C   0  0  0  0  0  0  0  0  0  0  0  0
   43.3660   79.6650   61.9830 C   0  0  0  0  0  0  0  0  0  0  0  0
   42.5300   78.5980   62.0120 N   0  0  0  0  0  0  0  0  0  0  0  0
   41.2100   78.7120   61.8310 C   0  0  0  0  0  0  0  0  0  0  0  0
   40.6220   79.9160   61.6050 N   0  0  0  0  0  0  0  0  0  0  0  0
   40.7530   82.2480   61.3260 N   0  0  0  0  0  0  0  0  0  0  0  0
   40.6780   82.5280   59.9710 C   0  0  0  0  0  0  0  0  0  0  0  0
   40.0570   83.6700   59.5170 C   0  0  0  0  0  0  0  0  0  0  0  0
   39.5100   84.5270   60.4590 C   0  0  0  0  0  0  0  0  0  0  0  0
   38.9380   85.5730   60.0690 O   0  0  0  0  0  0  0  0  0  0  0  0
   39.6070   84.2160   61.7430 N   0  0  0  0  0  0  0  0  0  0  0  0
   40.2090   83.1090   62.1820 C   0  0  0  0  0  0  0  0  0  0  0  0
   40.3450   82.7430   63.3500 O   0  0  0  0  0  0  0  0  0  0  0  0
   41.4811   76.6565   60.3949 H   0  0  0  0  0  0  0  0  0  0  0  0
   39.9076   75.7688   60.9047 H   0  0  0  0  0  0  0  0  0  0  0  0
   41.2372   78.4742   58.7141 H   0  0  0  0  0  0  0  0  0  0  0  0
   38.0347   75.8808   59.8015 H   0  0  0  0  0  0  0  0  0  0  0  0
   35.9393   75.8864   57.9543 H   0  0  0  0  0  0  0  0  0  0  0  0
   35.4700   77.1119   55.7055 H   0  0  0  0  0  0  0  0  0  0  0  0
   38.8903   81.0111   56.5586 H   0  0  0  0  0  0  0  0  0  0  0  0
   40.1533   80.7386   57.8588 H   0  0  0  0  0  0  0  0  0  0  0  0
   40.3294   82.1256   55.2799 H   0  0  0  0  0  0  0  0  0  0  0  0
   41.2534   82.3161   56.8387 H   0  0  0  0  0  0  0  0  0  0  0  0
   42.6479   81.6136   54.9130 H   0  0  0  0  0  0  0  0  0  0  0  0
   42.6307   80.4615   56.3261 H   0  0  0  0  0  0  0  0  0  0  0  0
   42.5562   79.1484   54.4084 H   0  0  0  0  0  0  0  0  0  0  0  0
   41.2616   80.2206   53.6771 H   0  0  0  0  0  0  0  0  0  0  0  0
   39.7762   78.8494   54.4074 H   0  0  0  0  0  0  0  0  0  0  0  0
   41.0623   77.9091   55.3236 H   0  0  0  0  0  0  0  0  0  0  0  0
   39.2482   77.8924   61.9495 H   0  0  0  0  0  0  0  0  0  0  0  0
   40.5525   76.9058   62.7276 H   0  0  0  0  0  0  0  0  0  0  0  0
   43.4327   81.8314   61.7188 H   0  0  0  0  0  0  0  0  0  0  0  0
   44.4486   79.5428   62.1351 H   0  0  0  0  0  0  0  0  0  0  0  0
   41.1210   81.8278   59.2475 H   0  0  0  0  0  0  0  0  0  0  0  0
   39.9970   83.8948   58.4419 H   0  0  0  0  0  0  0  0  0  0  0  0
   39.1982   84.8594   62.4356 H   0  0  0  0  0  0  0  0  0  0  0  0
  1 17  1  0
  2  3  2  0
  3  1  1  0
  4  3  1  0
  5  4  2  0
  6  5  1  0
  7  6  1  0
  8  7  2  0
  8  9  1  0
  9 10  2  0
  9  5  1  0
 10  2  1  0
 11 12  1  0
 11 10  1  0
 13 12  1  0
 14 13  1  0
 15 16  1  0
 15 14  1  0
 16 11  1  0
 18 23  1  0
 18 19  2  0
 19 20  1  0
 20 21  2  0
 22 17  1  0
 22 21  1  0
 23 22  2  0
 24 18  1  0
 24 30  1  0
 25 24  1  0
 26 25  2  0
 26 27  1  0
 27 29  1  0
 28 27  2  0
 29 30  1  0
 30 31  2  0
  1 32  1  0
  1 33  1  0
  2 34  1  0
  4 35  1  0
  6 36  1  0
  7 37  1  0
 12 38  1  0
 12 39  1  0
 13 40  1  0
 13 41  1  0
 14 42  1  0
 14 43  1  0
 15 44  1  0
 15 45  1  0
 16 46  1  0
 16 47  1  0
 17 48  1  0
 17 49  1  0
 19 50  1  0
 20 51  1  0
 25 52  1  0
 26 53  1  0
 29 54  1  0
M  END
>  <Score>  (1) 
-7.26024

>  <Score_dual>  (1) 
-7.33

>  <Choices>  (1) 
[None, 6, ['37-16', 135], 19, ['4-9', 270], 25, ['34-15', 255], 38, ['8-3', 150]]

$$$$
