
     RDKit          3D

 49 52  0  0  0  0  0  0  0  0999 V2000
   40.1040   77.0500   60.8650 C   0  0  0  0  0  0  0  0  0  0  0  0
   39.7490   78.9790   57.6470 C   0  0  0  0  0  0  0  0  0  0  0  0
   39.7960   77.9050   58.5120 C   0  0  0  0  0  0  0  0  0  0  0  0
   40.0340   78.1250   59.8590 C   0  0  0  0  0  0  0  0  0  0  0  0
   40.2090   79.3850   60.2540 N   0  0  0  0  0  0  0  0  0  0  0  0
   40.1720   80.4520   59.4430 C   0  0  0  0  0  0  0  0  0  0  0  0
   39.9340   80.2330   58.1010 N   0  0  0  0  0  0  0  0  0  0  0  0
   41.5680   82.3600   60.4710 C   0  0  0  0  0  0  0  0  0  0  0  0
   42.5610   81.6000   60.3090 O   0  0  0  0  0  0  0  0  0  0  0  0
   40.3800   81.7450   60.0210 N   0  0  0  0  0  0  0  0  0  0  0  0
   41.6630   83.6100   61.0140 O   0  0  0  0  0  0  0  0  0  0  0  0
   41.2720   83.8070   62.3240 C   0  0  0  0  0  0  0  0  0  0  0  0
   40.0610   83.6210   62.9880 C   0  0  0  0  0  0  0  0  0  0  0  0
   40.2020   83.9660   64.2880 N   0  0  0  0  0  0  0  0  0  0  0  0
   41.4670   84.3580   64.4300 C   0  0  0  0  0  0  0  0  0  0  0  0
   42.1310   84.2720   63.2640 N   0  0  0  0  0  0  0  0  0  0  0  0
   39.2690   74.2250   60.6550 Cl  0  0  0  0  0  0  0  0  0  0  0  0
   40.9170   74.7990   60.6200 C   0  0  0  0  0  0  0  0  0  0  0  0
   41.2580   76.1490   60.7230 C   0  0  0  0  0  0  0  0  0  0  0  0
   42.5870   76.4890   60.6830 C   0  0  0  0  0  0  0  0  0  0  0  0
   43.5630   75.5580   60.5480 C   0  0  0  0  0  0  0  0  0  0  0  0
   43.2520   74.2170   60.4430 C   0  0  0  0  0  0  0  0  0  0  0  0
   41.9240   73.8550   60.4810 C   0  0  0  0  0  0  0  0  0  0  0  0
   41.4980   71.4700   61.3490 C   0  0  0  0  0  0  0  0  0  0  0  0
   41.6000   72.4160   60.3690 C   0  0  0  0  0  0  0  0  0  0  0  0
   41.3750   72.0290   59.0360 C   0  0  0  0  0  0  0  0  0  0  0  0
   41.0590   70.7190   58.7440 C   0  0  0  0  0  0  0  0  0  0  0  0
   40.9540   69.7650   59.7170 C   0  0  0  0  0  0  0  0  0  0  0  0
   41.1820   70.1750   61.0220 C   0  0  0  0  0  0  0  0  0  0  0  0
   41.7380   71.9660   62.5980 O   0  0  0  0  0  0  0  0  0  0  0  0
   41.1150   69.3300   62.1320 O   0  0  0  0  0  0  0  0  0  0  0  0
   40.1531   77.5152   61.8606 H   0  0  0  0  0  0  0  0  0  0  0  0
   39.2067   76.4304   60.7203 H   0  0  0  0  0  0  0  0  0  0  0  0
   39.5587   78.8092   56.5770 H   0  0  0  0  0  0  0  0  0  0  0  0
   39.6457   76.8825   58.1352 H   0  0  0  0  0  0  0  0  0  0  0  0
   39.5292   82.3162   60.1248 H   0  0  0  0  0  0  0  0  0  0  0  0
   39.2877   84.2504   62.5234 H   0  0  0  0  0  0  0  0  0  0  0  0
   39.7637   82.5642   62.9193 H   0  0  0  0  0  0  0  0  0  0  0  0
   39.5602   84.7359   64.5254 H   0  0  0  0  0  0  0  0  0  0  0  0
   41.4836   85.4015   64.7775 H   0  0  0  0  0  0  0  0  0  0  0  0
   41.9579   83.7005   65.1626 H   0  0  0  0  0  0  0  0  0  0  0  0
   42.8688   77.5493   60.7629 H   0  0  0  0  0  0  0  0  0  0  0  0
   44.6160   75.8750   60.5218 H   0  0  0  0  0  0  0  0  0  0  0  0
   44.0421   73.4597   60.3322 H   0  0  0  0  0  0  0  0  0  0  0  0
   41.4510   72.7705   58.2271 H   0  0  0  0  0  0  0  0  0  0  0  0
   40.8861   70.4330   57.6960 H   0  0  0  0  0  0  0  0  0  0  0  0
   40.7008   68.7219   59.4765 H   0  0  0  0  0  0  0  0  0  0  0  0
   41.6913   71.3679   63.3855 H   0  0  0  0  0  0  0  0  0  0  0  0
   41.2894   69.6884   63.0382 H   0  0  0  0  0  0  0  0  0  0  0  0
  2  7  2  0
  2  3  1  0
  3  4  2  0
  4  5  1  0
  4  1  1  0
  6 10  1  0
  6  5  2  0
  7  6  1  0
  8 11  1  0
  9  8  2  0
 10  8  1  0
 11 12  1  0
 12 13  1  0
 12 16  2  0
 13 14  1  0
 14 15  1  0
 16 15  1  0
 18 17  1  0
 18 19  2  0
 19  1  1  0
 20 19  1  0
 21 20  2  0
 22 23  2  0
 22 21  1  0
 23 18  1  0
 24 30  1  0
 25 23  1  0
 25 24  2  0
 26 25  1  0
 27 26  2  0
 27 28  1  0
 28 29  2  0
 29 24  1  0
 29 31  1  0
  1 32  1  0
  1 33  1  0
  2 34  1  0
  3 35  1  0
 10 36  1  0
 13 37  1  0
 13 38  1  0
 14 39  1  0
 15 40  1  0
 15 41  1  0
 20 42  1  0
 21 43  1  0
 22 44  1  0
 26 45  1  0
 27 46  1  0
 28 47  1  0
 30 48  1  0
 31 49  1  0
M  END
>  <Score>  (1) 
-7.12474

>  <Score_dual>  (1) 
-7.85

>  <Choices>  (1) 
[None, 8, ['3-10', 0], 12, ['7-12', 15], 22, ['35-25', 330], 34, ['12-5', 345], 37, ['2-17', 255], 39, ['23-11', 300]]

$$$$
