20-9_45_repair
     RDKit          3D

 29 33  0  0  0  0  0  0  0  0999 V2000
   40.0430   78.9840   60.0600 O   0  0  0  0  0  0  0  0  0  0  0  0
   40.9900   81.1540   60.3850 C   0  0  0  0  0  0  0  0  0  0  0  0
   41.0770   80.7970   61.9040 C   0  0  0  0  0  0  0  0  0  0  0  0
   42.0590   79.9270   61.9930 O   0  0  0  0  0  0  0  0  0  0  0  0
   42.2510   79.2460   60.7860 C   0  0  0  0  0  0  0  0  0  0  0  0
   41.1390   79.7570   59.8210 C   0  0  0  0  0  0  0  0  0  0  0  0
   41.3180   82.0660   62.6400 C   0  0  0  0  0  0  0  0  0  0  0  0
   42.6850   82.5100   62.6400 C   0  0  0  0  0  0  0  0  0  0  0  0
   42.9800   83.7010   63.3050 C   0  0  0  0  0  0  0  0  0  0  0  0
   41.9220   84.3770   63.9250 N   0  0  0  0  0  0  0  0  0  0  0  0
   40.6410   83.8930   63.8830 C   0  0  0  0  0  0  0  0  0  0  0  0
   40.3430   82.7560   63.2520 N   0  0  0  0  0  0  0  0  0  0  0  0
   39.6970   81.6430   60.0980 O   0  0  0  0  0  0  0  0  0  0  0  0
   39.5310   76.7360   60.3280 C   0  0  0  0  0  0  0  0  0  0  0  0
   39.6840   77.7830   59.4760 C   0  0  0  0  0  0  0  0  0  0  0  0
   39.4820   77.5920   58.1400 C   0  0  0  0  0  0  0  0  0  0  0  0
   39.1300   76.3960   57.5950 C   0  0  0  0  0  0  0  0  0  0  0  0
   38.9720   75.3320   58.4240 C   0  0  0  0  0  0  0  0  0  0  0  0
   39.1760   75.5260   59.7630 C   0  0  0  0  0  0  0  0  0  0  0  0
   39.6820   76.7210   61.7080 O   0  0  0  0  0  0  0  0  0  0  0  0
   39.0020   74.3620   60.5720 O   0  0  0  0  0  0  0  0  0  0  0  0
   40.1060   73.5190   60.6240 C   0  0  0  0  0  0  0  0  0  0  0  0
   39.6700   72.5100   59.9280 O   0  0  0  0  0  0  0  0  0  0  0  0
   41.1740   72.5410   60.5930 N   0  0  0  0  0  0  0  0  0  0  0  0
   41.6570   71.8110   59.4950 C   0  0  0  0  0  0  0  0  0  0  0  0
   41.3100   70.3350   59.7180 C   0  0  0  0  0  0  0  0  0  0  0  0
   41.1610   70.1040   61.0900 O   0  0  0  0  0  0  0  0  0  0  0  0
   42.0930   70.7680   61.8640 C   0  0  0  0  0  0  0  0  0  0  0  0
   41.8290   72.2800   61.8750 C   0  0  0  0  0  0  0  0  0  0  0  0
  1  6  1  0
  1 15  1  0
  2  3  1  0
  2  6  1  0
  2 13  1  0
  3  4  1  0
  3  7  1  0
  4  5  1  0
  5  6  1  0
  7  8  2  0
  7 12  1  0
  8  9  1  0
  9 10  2  0
 10 11  1  0
 11 12  2  0
 14 15  2  0
 14 19  1  0
 14 20  1  0
 15 16  1  0
 16 17  2  0
 17 18  1  0
 18 19  2  0
 19 21  1  0
 21 22  1  0
 22 23  2  0
 22 24  1  0
 23 24  1  0
 24 25  1  0
 24 29  1  0
 25 26  1  0
 26 27  1  0
 27 28  1  0
 28 29  1  0
M  CHG  8   2  -1   3  -1   5  -2   6  -1   8  -1   9  -1  11  -1  13  -1
M  CHG  8  16  -1  17  -1  18  -1  20  -1  23   1  24   1  25  -2  26  -2
M  CHG  2  28  -2  29  -2
M  END
>  <Score>  (1) 
-7.00227

>  <Score_dual>  (1) 
-7.04

>  <Choices>  (1) 
[None, 6, ['14-14', 120], 22, ['35-19', 195], 34, ['5-2', 345], 36, ['20-9', 45]]

$$$$
