
     RDKit          3D

 42 45  0  0  0  0  0  0  0  0999 V2000
   39.8860   78.3330   59.2860 C   0  0  0  0  0  0  0  0  0  0  0  0
   40.2930   81.8180   57.8430 C   0  0  0  0  0  0  0  0  0  0  0  0
   40.1500   80.4340   57.8810 C   0  0  0  0  0  0  0  0  0  0  0  0
   40.0420   79.7890   59.1130 C   0  0  0  0  0  0  0  0  0  0  0  0
   40.0830   80.5540   60.2280 N   0  0  0  0  0  0  0  0  0  0  0  0
   40.2230   81.8870   60.1660 C   0  0  0  0  0  0  0  0  0  0  0  0
   40.3300   82.5310   58.9740 N   0  0  0  0  0  0  0  0  0  0  0  0
   40.2520   82.5740   61.4360 N   0  0  0  0  0  0  0  0  0  0  0  0
   41.0750   82.0200   62.3700 C   0  0  0  0  0  0  0  0  0  0  0  0
   41.2080   82.5660   63.6350 C   0  0  0  0  0  0  0  0  0  0  0  0
   40.4670   83.7060   63.9160 C   0  0  0  0  0  0  0  0  0  0  0  0
   40.5640   84.2310   65.0620 O   0  0  0  0  0  0  0  0  0  0  0  0
   39.6820   84.1970   62.9600 N   0  0  0  0  0  0  0  0  0  0  0  0
   39.5440   83.6780   61.7310 C   0  0  0  0  0  0  0  0  0  0  0  0
   38.8010   84.1440   60.8280 O   0  0  0  0  0  0  0  0  0  0  0  0
   39.5800   75.8720   60.8410 Cl  0  0  0  0  0  0  0  0  0  0  0  0
   41.0900   76.4210   60.1670 C   0  0  0  0  0  0  0  0  0  0  0  0
   41.1430   77.5990   59.4430 C   0  0  0  0  0  0  0  0  0  0  0  0
   42.3950   77.9640   58.9380 C   0  0  0  0  0  0  0  0  0  0  0  0
   43.5060   77.2080   59.1430 C   0  0  0  0  0  0  0  0  0  0  0  0
   43.4060   76.0370   59.8730 C   0  0  0  0  0  0  0  0  0  0  0  0
   42.1820   75.6280   60.3980 C   0  0  0  0  0  0  0  0  0  0  0  0
   42.2850   74.3850   61.1240 C   0  0  0  0  0  0  0  0  0  0  0  0
   43.2430   74.0410   62.0560 C   0  0  0  0  0  0  0  0  0  0  0  0
   43.3270   72.8590   62.7360 C   0  0  0  0  0  0  0  0  0  0  0  0
   42.3860   71.9020   62.4920 C   0  0  0  0  0  0  0  0  0  0  0  0
   41.4300   72.2210   61.5750 C   0  0  0  0  0  0  0  0  0  0  0  0
   41.3850   73.3960   60.9310 N   0  0  0  0  0  0  0  0  0  0  0  0
   39.3654   77.9364   58.4019 H   0  0  0  0  0  0  0  0  0  0  0  0
   39.3226   78.1889   60.2197 H   0  0  0  0  0  0  0  0  0  0  0  0
   40.3764   82.3304   56.8732 H   0  0  0  0  0  0  0  0  0  0  0  0
   40.1224   79.8536   56.9470 H   0  0  0  0  0  0  0  0  0  0  0  0
   41.6477   81.1168   62.1125 H   0  0  0  0  0  0  0  0  0  0  0  0
   41.8731   82.1154   64.3864 H   0  0  0  0  0  0  0  0  0  0  0  0
   39.1373   85.0426   63.1815 H   0  0  0  0  0  0  0  0  0  0  0  0
   42.4837   78.8932   58.3559 H   0  0  0  0  0  0  0  0  0  0  0  0
   44.4760   77.5245   58.7321 H   0  0  0  0  0  0  0  0  0  0  0  0
   44.3026   75.4222   60.0407 H   0  0  0  0  0  0  0  0  0  0  0  0
   44.0157   74.7932   62.2729 H   0  0  0  0  0  0  0  0  0  0  0  0
   44.1339   72.6833   63.4627 H   0  0  0  0  0  0  0  0  0  0  0  0
   42.3983   70.9294   63.0057 H   0  0  0  0  0  0  0  0  0  0  0  0
   40.6537   71.4746   61.3511 H   0  0  0  0  0  0  0  0  0  0  0  0
  1 18  1  0
  2  3  2  0
  2  7  1  0
  3  4  1  0
  4  1  1  0
  4  5  2  0
  6  5  1  0
  6  8  1  0
  7  6  2  0
  8 14  1  0
  8  9  1  0
  9 10  2  0
 10 11  1  0
 11 12  2  0
 13 11  1  0
 14 13  1  0
 15 14  2  0
 17 22  2  0
 17 16  1  0
 18 17  1  0
 19 20  1  0
 19 18  2  0
 20 21  2  0
 21 22  1  0
 22 23  1  0
 23 24  2  0
 24 25  1  0
 26 25  2  0
 27 26  1  0
 28 23  1  0
 28 27  2  0
  1 29  1  0
  1 30  1  0
  2 31  1  0
  3 32  1  0
  9 33  1  0
 10 34  1  0
 13 35  1  0
 19 36  1  0
 20 37  1  0
 21 38  1  0
 24 39  1  0
 25 40  1  0
 26 41  1  0
 27 42  1  0
M  END
>  <Score>  (1) 
-7.31767

>  <Score_dual>  (1) 
-7.2

>  <Choices>  (1) 
[None, 8, ['3-10', 0], 10, ['7-12', 15], 22, ['6-16', 195], 31, ['37-14', 120]]

$$$$
