
     RDKit          3D

 39 41  0  0  0  0  0  0  0  0999 V2000
   39.6320   81.1670   57.9850 F   0  0  0  0  0  0  0  0  0  0  0  0
   40.5810   81.9310   57.4080 C   0  0  0  0  0  0  0  0  0  0  0  0
   41.1220   82.9730   58.1370 C   0  0  0  0  0  0  0  0  0  0  0  0
   42.0800   83.7370   57.5360 C   0  0  0  0  0  0  0  0  0  0  0  0
   42.4710   83.4540   56.2530 C   0  0  0  0  0  0  0  0  0  0  0  0
   41.9260   82.4120   55.5350 C   0  0  0  0  0  0  0  0  0  0  0  0
   40.9630   81.6270   56.1040 C   0  0  0  0  0  0  0  0  0  0  0  0
   39.6550   84.1540   59.7770 C   0  0  0  0  0  0  0  0  0  0  0  0
   40.6650   83.2320   59.5110 C   0  0  0  0  0  0  0  0  0  0  0  0
   41.2800   82.5130   60.5720 C   0  0  0  0  0  0  0  0  0  0  0  0
   40.8100   82.8000   61.8190 N   0  0  0  0  0  0  0  0  0  0  0  0
   39.8420   83.6870   62.0610 C   0  0  0  0  0  0  0  0  0  0  0  0
   39.2730   84.3540   61.0500 N   0  0  0  0  0  0  0  0  0  0  0  0
   40.6160   84.0110   64.2810 C   0  0  0  0  0  0  0  0  0  0  0  0
   41.8290   83.9590   63.9520 O   0  0  0  0  0  0  0  0  0  0  0  0
   39.4420   83.8900   63.4400 N   0  0  0  0  0  0  0  0  0  0  0  0
   40.3670   80.5280   55.3850 C   0  0  0  0  0  0  0  0  0  0  0  0
   40.1500   80.6680   54.1370 O   0  0  0  0  0  0  0  0  0  0  0  0
   40.4170   77.0840   56.8700 N   0  0  0  0  0  0  0  0  0  0  0  0
   40.8410   78.2490   56.3470 C   0  0  0  0  0  0  0  0  0  0  0  0
   39.9830   79.2490   55.9560 C   0  0  0  0  0  0  0  0  0  0  0  0
   38.6280   78.9760   56.1380 C   0  0  0  0  0  0  0  0  0  0  0  0
   37.7970   79.8510   55.7990 O   0  0  0  0  0  0  0  0  0  0  0  0
   38.2450   77.8090   56.6600 N   0  0  0  0  0  0  0  0  0  0  0  0
   39.0960   76.8380   57.0390 C   0  0  0  0  0  0  0  0  0  0  0  0
   38.7670   75.7390   57.5280 O   0  0  0  0  0  0  0  0  0  0  0  0
   36.8290   77.5790   56.8250 C   0  0  0  0  0  0  0  0  0  0  0  0
   36.6940   76.7040   57.8990 F   0  0  0  0  0  0  0  0  0  0  0  0
   36.2330   78.7930   57.1530 F   0  0  0  0  0  0  0  0  0  0  0  0
   36.2230   77.0380   55.7300 F   0  0  0  0  0  0  0  0  0  0  0  0
   42.5369   84.5772   58.0794 H   0  0  0  0  0  0  0  0  0  0  0  0
   43.2443   84.0785   55.7818 H   0  0  0  0  0  0  0  0  0  0  0  0
   42.2648   82.2127   54.5076 H   0  0  0  0  0  0  0  0  0  0  0  0
   39.1771   84.7102   58.9571 H   0  0  0  0  0  0  0  0  0  0  0  0
   42.0789   81.7769   60.3989 H   0  0  0  0  0  0  0  0  0  0  0  0
   40.4199   84.1698   65.3517 H   0  0  0  0  0  0  0  0  0  0  0  0
   38.4684   83.9407   63.7723 H   0  0  0  0  0  0  0  0  0  0  0  0
   41.1062   76.3699   57.1455 H   0  0  0  0  0  0  0  0  0  0  0  0
   41.9228   78.4082   56.2270 H   0  0  0  0  0  0  0  0  0  0  0  0
  2  1  1  0
  2  3  2  0
  3  9  1  0
  4  3  1  0
  5  4  2  0
  6  7  2  0
  6  5  1  0
  7  2  1  0
  8 13  2  0
  9  8  1  0
  9 10  2  0
 10 11  1  0
 11 12  2  0
 12 16  1  0
 13 12  1  0
 15 14  2  0
 16 14  1  0
 17 21  1  0
 17  7  1  0
 18 17  2  0
 19 25  1  0
 20 19  1  0
 21 22  1  0
 21 20  2  0
 22 24  1  0
 23 22  2  0
 24 27  1  0
 24 25  1  0
 25 26  2  0
 27 29  1  0
 27 28  1  0
 30 27  1  0
  4 31  1  0
  5 32  1  0
  6 33  1  0
  8 34  1  0
 10 35  1  0
 14 36  1  0
 16 37  1  0
 19 38  1  0
 20 39  1  0
M  END
>  <Score>  (1) 
-7.32212

>  <Score_dual>  (1) 
-7.25

>  <Choices>  (1) 
[None, 7, ['9-20', 150], 15, ['12-5', 135], 23, ['5-8', 300], 25, ['37-17', 165], 35, ['11-3', 240]]

$$$$
