
     RDKit          3D

 47 52  0  0  0  0  0  0  0  0999 V2000
   41.1470   80.4340   59.5060 O   0  0  0  0  0  0  0  0  0  0  0  0
   42.1260   80.6990   60.4520 C   0  0  0  0  0  0  0  0  0  0  0  0
   42.0990   81.7840   61.2810 C   0  0  0  0  0  0  0  0  0  0  0  0
   43.1310   81.9570   62.1950 C   0  0  0  0  0  0  0  0  0  0  0  0
   44.1830   81.0360   62.2670 C   0  0  0  0  0  0  0  0  0  0  0  0
   45.2830   80.9490   63.0280 N   0  0  0  0  0  0  0  0  0  0  0  0
   45.9800   79.8400   62.6860 C   0  0  0  0  0  0  0  0  0  0  0  0
   45.2950   79.2500   61.7070 N   0  0  0  0  0  0  0  0  0  0  0  0
   44.1720   79.9420   61.4020 C   0  0  0  0  0  0  0  0  0  0  0  0
   43.1480   79.7510   60.4810 C   0  0  0  0  0  0  0  0  0  0  0  0
   39.7870   84.5410   60.2220 C   0  0  0  0  0  0  0  0  0  0  0  0
   40.9250   83.7160   60.2200 C   0  0  0  0  0  0  0  0  0  0  0  0
   40.9820   82.7130   61.1660 C   0  0  0  0  0  0  0  0  0  0  0  0
   39.9590   82.5810   62.0300 N   0  0  0  0  0  0  0  0  0  0  0  0
   38.8770   83.3880   62.0090 C   0  0  0  0  0  0  0  0  0  0  0  0
   38.7790   84.3780   61.1050 N   0  0  0  0  0  0  0  0  0  0  0  0
   39.8410   78.8930   58.2250 C   0  0  0  0  0  0  0  0  0  0  0  0
   40.4710   79.2590   59.3890 C   0  0  0  0  0  0  0  0  0  0  0  0
   40.3860   78.3590   60.4590 C   0  0  0  0  0  0  0  0  0  0  0  0
   39.6950   77.1630   60.3300 C   0  0  0  0  0  0  0  0  0  0  0  0
   39.4570   76.1290   61.1850 N   0  0  0  0  0  0  0  0  0  0  0  0
   38.7310   75.2120   60.5610 N   0  0  0  0  0  0  0  0  0  0  0  0
   38.4860   75.6320   59.2960 C   0  0  0  0  0  0  0  0  0  0  0  0
   39.0930   76.8570   59.1570 C   0  0  0  0  0  0  0  0  0  0  0  0
   39.1500   77.7190   58.0640 C   0  0  0  0  0  0  0  0  0  0  0  0
   36.4540   78.2660   57.4220 F   0  0  0  0  0  0  0  0  0  0  0  0
   37.1590   77.5800   56.5030 C   0  0  0  0  0  0  0  0  0  0  0  0
   38.4760   77.3190   56.8320 C   0  0  0  0  0  0  0  0  0  0  0  0
   39.2940   76.6130   55.9460 C   0  0  0  0  0  0  0  0  0  0  0  0
   38.7650   76.1800   54.7410 C   0  0  0  0  0  0  0  0  0  0  0  0
   37.4360   76.4320   54.3860 C   0  0  0  0  0  0  0  0  0  0  0  0
   36.6660   77.1330   55.2920 C   0  0  0  0  0  0  0  0  0  0  0  0
   43.1214   82.8264   62.8689 H   0  0  0  0  0  0  0  0  0  0  0  0
   45.5555   81.6213   63.7592 H   0  0  0  0  0  0  0  0  0  0  0  0
   46.9256   79.4940   63.1290 H   0  0  0  0  0  0  0  0  0  0  0  0
   43.1443   78.8858   59.8018 H   0  0  0  0  0  0  0  0  0  0  0  0
   39.7153   85.3479   59.4778 H   0  0  0  0  0  0  0  0  0  0  0  0
   41.7376   83.8640   59.4935 H   0  0  0  0  0  0  0  0  0  0  0  0
   38.0681   83.2340   62.7384 H   0  0  0  0  0  0  0  0  0  0  0  0
   39.8936   79.5830   57.3700 H   0  0  0  0  0  0  0  0  0  0  0  0
   40.8736   78.6038   61.4142 H   0  0  0  0  0  0  0  0  0  0  0  0
   39.7877   76.0695   62.1587 H   0  0  0  0  0  0  0  0  0  0  0  0
   37.9110   75.0949   58.5273 H   0  0  0  0  0  0  0  0  0  0  0  0
   40.3432   76.4040   56.2017 H   0  0  0  0  0  0  0  0  0  0  0  0
   39.4081   75.6225   54.0442 H   0  0  0  0  0  0  0  0  0  0  0  0
   37.0225   76.0867   53.4269 H   0  0  0  0  0  0  0  0  0  0  0  0
   35.6165   77.3446   55.0396 H   0  0  0  0  0  0  0  0  0  0  0  0
  1  2  1  0
  2 10  2  0
  2  3  1  0
  3  4  2  0
  4  5  1  0
  5  6  1  0
  7  6  1  0
  8  7  2  0
  9  8  1  0
  9  5  2  0
 10  9  1  0
 11 16  2  0
 12 11  1  0
 12 13  2  0
 13  3  1  0
 13 14  1  0
 15 14  2  0
 16 15  1  0
 17 18  2  0
 18  1  1  0
 18 19  1  0
 20 19  2  0
 20 21  1  0
 22 21  1  0
 23 22  2  0
 24 23  1  0
 24 20  1  0
 25 17  1  0
 25 24  2  0
 27 28  2  0
 27 26  1  0
 28 25  1  0
 29 28  1  0
 30 29  2  0
 31 30  1  0
 31 32  2  0
 32 27  1  0
  4 33  1  0
  6 34  1  0
  7 35  1  0
 10 36  1  0
 11 37  1  0
 12 38  1  0
 15 39  1  0
 17 40  1  0
 19 41  1  0
 21 42  1  0
 23 43  1  0
 29 44  1  0
 30 45  1  0
 31 46  1  0
 32 47  1  0
M  END
>  <Score>  (1) 
-7.87032

>  <Score_dual>  (1) 
-7.7

>  <Choices>  (1) 
[None, 8, ['34-23', 60], 15, ['2-1', 0], 23, ['54-21', 15], 36, ['9-20', 15]]

$$$$
