
     RDKit          3D

 47 50  0  0  1  0  0  0  0  0999 V2000
   40.4740   82.1460   62.5480 O   0  0  0  0  0  0  0  0  0  0  0  0
   41.9050   84.7040   63.5140 C   0  0  1  0  0  0  0  0  0  0  0  0
   42.1010   84.1990   62.1480 C   0  0  1  0  0  0  0  0  0  0  0  0
   40.8380   84.2860   61.6460 O   0  0  0  0  0  0  0  0  0  0  0  0
   40.0560   83.5250   62.6980 C   0  0  2  0  0  0  0  0  0  0  0  0
   40.4310   84.2280   63.8090 C   0  0  1  0  0  0  0  0  0  0  0  0
   45.0980   86.0460   61.0850 C   0  0  0  0  0  0  0  0  0  0  0  0
   44.7060   86.5040   59.7610 C   0  0  0  0  0  0  0  0  0  0  0  0
   43.4220   86.1660   59.2640 C   0  0  0  0  0  0  0  0  0  0  0  0
   42.6280   85.4300   60.0520 N   0  0  0  0  0  0  0  0  0  0  0  0
   43.0150   85.0110   61.2870 C   0  0  0  0  0  0  0  0  0  0  0  0
   44.2500   85.3050   61.8320 N   0  0  0  0  0  0  0  0  0  0  0  0
   42.8300   84.1820   64.3660 O   0  0  0  0  0  0  0  0  0  0  0  0
   40.5640   83.3680   64.9440 O   0  0  0  0  0  0  0  0  0  0  0  0
   39.9730   81.4610   61.4770 C   0  0  0  0  0  0  0  0  0  0  0  0
   39.9260   80.3700   62.1010 O   0  0  0  0  0  0  0  0  0  0  0  0
   40.1700   80.0990   60.9820 O   0  0  0  0  0  0  0  0  0  0  0  0
   40.7990   79.0210   60.3660 C   0  0  0  0  0  0  0  0  0  0  0  0
   41.2830   78.9780   59.0350 C   0  0  0  0  0  0  0  0  0  0  0  0
   41.9090   77.2300   58.9940 S   0  0  0  0  0  0  0  0  0  0  0  0
   41.3280   76.8960   60.7750 C   0  0  1  0  0  0  0  0  0  0  0  0
   40.9170   77.9770   61.1700 N   0  0  0  0  0  0  0  0  0  0  0  0
   41.8950   74.1140   61.1380 F   0  0  0  0  0  0  0  0  0  0  0  0
   40.6370   74.4630   60.7880 C   0  0  0  0  0  0  0  0  0  0  0  0
   40.3190   75.7910   60.6030 C   0  0  0  0  0  0  0  0  0  0  0  0
   39.0040   76.0990   60.2410 C   0  0  0  0  0  0  0  0  0  0  0  0
   38.0660   75.0980   60.0800 C   0  0  0  0  0  0  0  0  0  0  0  0
   38.4270   73.7670   60.2780 C   0  0  0  0  0  0  0  0  0  0  0  0
   39.7180   73.4480   60.6330 C   0  0  0  0  0  0  0  0  0  0  0  0
   42.0338   85.7895   63.6372 H   0  0  0  0  0  0  0  0  0  0  0  0
   42.5712   83.2047   62.1635 H   0  0  0  0  0  0  0  0  0  0  0  0
   38.9581   83.4594   62.6827 H   0  0  0  0  0  0  0  0  0  0  0  0
   39.6962   85.0215   64.0100 H   0  0  0  0  0  0  0  0  0  0  0  0
   46.0913   86.3046   61.4807 H   0  0  0  0  0  0  0  0  0  0  0  0
   45.3976   87.1054   59.1527 H   0  0  0  0  0  0  0  0  0  0  0  0
   43.0904   86.4960   58.2684 H   0  0  0  0  0  0  0  0  0  0  0  0
   42.5455   84.3425   65.3006 H   0  0  0  0  0  0  0  0  0  0  0  0
   40.4815   83.9016   65.7738 H   0  0  0  0  0  0  0  0  0  0  0  0
   40.6560   81.4406   60.6150 H   0  0  0  0  0  0  0  0  0  0  0  0
   39.0553   81.8326   60.9977 H   0  0  0  0  0  0  0  0  0  0  0  0
   40.4808   79.1441   58.3009 H   0  0  0  0  0  0  0  0  0  0  0  0
   42.0266   79.7480   58.7817 H   0  0  0  0  0  0  0  0  0  0  0  0
   42.0545   76.5576   61.5285 H   0  0  0  0  0  0  0  0  0  0  0  0
   38.7138   77.1482   60.0830 H   0  0  0  0  0  0  0  0  0  0  0  0
   37.0341   75.3516   59.7955 H   0  0  0  0  0  0  0  0  0  0  0  0
   37.6794   72.9702   60.1505 H   0  0  0  0  0  0  0  0  0  0  0  0
   40.0114   72.3996   60.7905 H   0  0  0  0  0  0  0  0  0  0  0  0
  1  5  1  0
  2  6  1  0
  2 13  1  0
  3  2  1  0
  4  3  1  0
  4  5  1  0
  5  6  1  0
  6 14  1  0
  7 12  2  0
  8  7  1  0
  9  8  2  0
  9 10  1  0
 10 11  2  0
 11 12  1  0
 11  3  1  0
 15 16  1  0
 15  1  1  0
 17 16  1  0
 18 17  1  0
 18 22  2  0
 19 18  1  0
 20 19  1  0
 20 21  1  0
 21 22  1  0
 24 23  1  0
 25 21  1  0
 25 24  2  0
 26 25  1  0
 27 26  2  0
 27 28  1  0
 28 29  2  0
 29 24  1  0
  2 30  1  6
  3 31  1  1
  5 32  1  6
  6 33  1  1
  7 34  1  0
  8 35  1  0
  9 36  1  0
 13 37  1  0
 14 38  1  0
 15 39  1  0
 15 40  1  0
 19 41  1  0
 19 42  1  0
 21 43  1  1
 26 44  1  0
 27 45  1  0
 28 46  1  0
 29 47  1  0
M  END
>  <Score>  (1) 
-7.17369

>  <Score_dual>  (1) 
-7.34

>  <Choices>  (1) 
[None, 9, ['14-13', 255], 18, ['2-1', 0], 23, ['5-2', 135], 25, ['2-18', 0], 28, ['33-11', 195], 36, ['9-20', 240]]

$$$$
