
     RDKit          3D

 49 53  0  0  1  0  0  0  0  0999 V2000
   40.5560   80.5870   60.9340 C   0  0  0  0  0  0  0  0  0  0  0  0
   40.1000   79.4060   60.3790 C   0  0  0  0  0  0  0  0  0  0  0  0
   40.7720   78.2610   60.6220 C   0  0  0  0  0  0  0  0  0  0  0  0
   41.8990   78.3230   61.4260 C   0  0  0  0  0  0  0  0  0  0  0  0
   42.0720   80.0490   61.8910 S   0  0  0  0  0  0  0  0  0  0  0  0
   39.6950   84.0040   59.7330 C   0  0  0  0  0  0  0  0  0  0  0  0
   40.2420   82.7180   59.7060 C   0  0  0  0  0  0  0  0  0  0  0  0
   40.0410   81.9360   60.8430 C   0  0  0  0  0  0  0  0  0  0  0  0
   39.3520   82.4290   61.8950 N   0  0  0  0  0  0  0  0  0  0  0  0
   38.8420   83.6660   61.8850 C   0  0  0  0  0  0  0  0  0  0  0  0
   39.0080   84.4640   60.8080 N   0  0  0  0  0  0  0  0  0  0  0  0
   40.4700   81.5200   57.5160 C   0  0  0  0  0  0  0  0  0  0  0  0
   40.9520   82.2470   58.5910 C   0  0  0  0  0  0  0  0  0  0  0  0
   42.3100   82.5460   58.5570 C   0  0  0  0  0  0  0  0  0  0  0  0
   43.1310   82.1440   57.5170 C   0  0  0  0  0  0  0  0  0  0  0  0
   42.6140   81.4130   56.4490 C   0  0  0  0  0  0  0  0  0  0  0  0
   41.2780   81.1130   56.4730 C   0  0  0  0  0  0  0  0  0  0  0  0
   39.1180   81.2220   57.5500 O   0  0  0  0  0  0  0  0  0  0  0  0
   40.7690   80.3860   55.4100 O   0  0  0  0  0  0  0  0  0  0  0  0
   42.8060   77.3510   61.8720 C   0  0  0  0  0  0  0  0  0  0  0  0
   43.6090   77.4020   62.9910 C   0  0  0  0  0  0  0  0  0  0  0  0
   44.4360   76.3340   63.2830 C   0  0  0  0  0  0  0  0  0  0  0  0
   44.4190   75.2430   62.4200 C   0  0  0  0  0  0  0  0  0  0  0  0
   43.1570   75.8090   61.1540 S   0  0  0  0  0  0  0  0  0  0  0  0
   45.1850   73.4770   63.7960 C   0  0  2  0  0  0  0  0  0  0  0  0
   45.1080   73.9970   62.3840 C   0  0  2  0  0  0  0  0  0  0  0  0
   46.4840   74.1850   62.1160 O   0  0  0  0  0  0  0  0  0  0  0  0
   46.9650   74.8840   63.2080 C   0  0  0  0  0  0  0  0  0  0  0  0
   46.2360   74.3600   64.4200 C   0  0  1  0  0  0  0  0  0  0  0  0
   45.7350   72.1920   63.7340 O   0  0  0  0  0  0  0  0  0  0  0  0
   45.6750   75.3660   65.1820 O   0  0  0  0  0  0  0  0  0  0  0  0
   39.1999   79.3994   59.7467 H   0  0  0  0  0  0  0  0  0  0  0  0
   40.4346   77.3055   60.1939 H   0  0  0  0  0  0  0  0  0  0  0  0
   39.8251   84.6600   58.8596 H   0  0  0  0  0  0  0  0  0  0  0  0
   38.2846   84.0350   62.7586 H   0  0  0  0  0  0  0  0  0  0  0  0
   42.7472   83.1223   59.3857 H   0  0  0  0  0  0  0  0  0  0  0  0
   44.1998   82.4037   57.5339 H   0  0  0  0  0  0  0  0  0  0  0  0
   43.2559   81.0887   55.6167 H   0  0  0  0  0  0  0  0  0  0  0  0
   38.7065   80.7046   56.8131 H   0  0  0  0  0  0  0  0  0  0  0  0
   39.8083   80.1479   55.3880 H   0  0  0  0  0  0  0  0  0  0  0  0
   43.5918   78.2854   63.6462 H   0  0  0  0  0  0  0  0  0  0  0  0
   45.0870   76.3462   64.1696 H   0  0  0  0  0  0  0  0  0  0  0  0
   44.2197   73.4656   64.3234 H   0  0  0  0  0  0  0  0  0  0  0  0
   44.5924   73.3646   61.6463 H   0  0  0  0  0  0  0  0  0  0  0  0
   48.0470   74.7182   63.3165 H   0  0  0  0  0  0  0  0  0  0  0  0
   46.8008   75.9649   63.0868 H   0  0  0  0  0  0  0  0  0  0  0  0
   46.8959   73.8381   65.1286 H   0  0  0  0  0  0  0  0  0  0  0  0
   45.8810   71.8509   64.6518 H   0  0  0  0  0  0  0  0  0  0  0  0
   45.7918   75.1566   66.1425 H   0  0  0  0  0  0  0  0  0  0  0  0
  1  5  1  0
  2  3  1  0
  2  1  2  0
  3  4  2  0
  4 20  1  0
  4  5  1  0
  6 11  2  0
  7  6  1  0
  7  8  2  0
  8  1  1  0
  8  9  1  0
 10  9  2  0
 11 10  1  0
 12 18  1  0
 12 13  2  0
 13  7  1  0
 14 13  1  0
 15 14  2  0
 16 17  2  0
 16 15  1  0
 17 12  1  0
 19 17  1  0
 20 21  2  0
 21 22  1  0
 23 22  2  0
 24 20  1  0
 24 23  1  0
 25 30  1  0
 25 29  1  0
 26 23  1  0
 26 25  1  0
 27 26  1  0
 27 28  1  0
 28 29  1  0
 29 31  1  0
  2 32  1  0
  3 33  1  0
  6 34  1  0
 10 35  1  0
 14 36  1  0
 15 37  1  0
 16 38  1  0
 18 39  1  0
 19 40  1  0
 21 41  1  0
 22 42  1  0
 25 43  1  1
 26 44  1  6
 28 45  1  0
 28 46  1  0
 29 47  1  1
 30 48  1  0
 31 49  1  0
M  END
>  <Score>  (1) 
-7.01936

>  <Score_dual>  (1) 
-7.87

>  <Choices>  (1) 
[None, 7, ['35-27', 225], 18, ['25-19', 45], 28, ['25-18', 195], 35, ['14-12', 60]]

$$$$
