
     RDKit          3D

 48 52  0  0  0  0  0  0  0  0999 V2000
   41.1530   82.9100   62.5910 C   0  0  0  0  0  0  0  0  0  0  0  0
   42.0900   83.8600   62.3520 C   0  0  0  0  0  0  0  0  0  0  0  0
   42.2400   84.8550   63.3080 C   0  0  0  0  0  0  0  0  0  0  0  0
   41.4510   84.8110   64.4030 N   0  0  0  0  0  0  0  0  0  0  0  0
   40.5200   83.8430   64.6130 C   0  0  0  0  0  0  0  0  0  0  0  0
   40.3880   82.8980   63.6870 N   0  0  0  0  0  0  0  0  0  0  0  0
   42.9810   83.9840   61.2020 C   0  0  0  0  0  0  0  0  0  0  0  0
   44.1130   83.3380   60.8370 C   0  0  0  0  0  0  0  0  0  0  0  0
   44.7760   83.6400   59.6950 C   0  0  0  0  0  0  0  0  0  0  0  0
   44.2680   84.6270   58.9090 C   0  0  0  0  0  0  0  0  0  0  0  0
   43.1170   85.2970   59.2610 C   0  0  0  0  0  0  0  0  0  0  0  0
   42.4630   84.9740   60.4200 N   0  0  0  0  0  0  0  0  0  0  0  0
   42.6270   86.3640   58.3430 C   0  0  0  0  0  0  0  0  0  0  0  0
   41.3060   85.9420   57.7760 C   0  0  0  0  0  0  0  0  0  0  0  0
   40.9230   81.8000   61.6170 C   0  0  0  0  0  0  0  0  0  0  0  0
   41.2210   80.5090   61.6970 C   0  0  0  0  0  0  0  0  0  0  0  0
   40.9070   79.6740   60.6650 C   0  0  0  0  0  0  0  0  0  0  0  0
   40.2930   80.2350   59.5930 C   0  0  0  0  0  0  0  0  0  0  0  0
   40.1530   81.9760   60.0450 S   0  0  0  0  0  0  0  0  0  0  0  0
   39.8380   79.6200   58.3480 C   0  0  0  0  0  0  0  0  0  0  0  0
   40.1270   78.3940   57.9400 N   0  0  0  0  0  0  0  0  0  0  0  0
   39.5480   78.1480   56.7450 C   0  0  0  0  0  0  0  0  0  0  0  0
   38.8660   79.2830   56.4100 N   0  0  0  0  0  0  0  0  0  0  0  0
   39.0460   80.1640   57.3760 N   0  0  0  0  0  0  0  0  0  0  0  0
   38.0860   79.4870   55.2080 C   0  0  0  0  0  0  0  0  0  0  0  0
   37.4210   78.5550   54.5050 N   0  0  0  0  0  0  0  0  0  0  0  0
   36.8110   79.1390   53.4450 C   0  0  0  0  0  0  0  0  0  0  0  0
   37.1080   80.4470   53.5020 N   0  0  0  0  0  0  0  0  0  0  0  0
   37.8740   80.6540   54.5640 N   0  0  0  0  0  0  0  0  0  0  0  0
   42.9811   85.6573   63.1773 H   0  0  0  0  0  0  0  0  0  0  0  0
   39.8964   83.8415   65.5191 H   0  0  0  0  0  0  0  0  0  0  0  0
   44.5067   82.5433   61.4877 H   0  0  0  0  0  0  0  0  0  0  0  0
   45.6946   83.1048   59.4127 H   0  0  0  0  0  0  0  0  0  0  0  0
   44.7853   84.8949   57.9759 H   0  0  0  0  0  0  0  0  0  0  0  0
   42.5069   87.3049   58.9001 H   0  0  0  0  0  0  0  0  0  0  0  0
   43.3510   86.5195   57.5296 H   0  0  0  0  0  0  0  0  0  0  0  0
   40.6088   85.7193   58.5972 H   0  0  0  0  0  0  0  0  0  0  0  0
   40.8963   86.7540   57.1573 H   0  0  0  0  0  0  0  0  0  0  0  0
   41.4429   85.0429   57.1573 H   0  0  0  0  0  0  0  0  0  0  0  0
   41.7202   80.1132   62.5937 H   0  0  0  0  0  0  0  0  0  0  0  0
   41.1400   78.5995   60.7002 H   0  0  0  0  0  0  0  0  0  0  0  0
   40.3150   77.9269   55.9882 H   0  0  0  0  0  0  0  0  0  0  0  0
   38.8767   77.2781   56.7969 H   0  0  0  0  0  0  0  0  0  0  0  0
   38.6506   81.1149   57.3945 H   0  0  0  0  0  0  0  0  0  0  0  0
   35.7223   78.9943   53.5070 H   0  0  0  0  0  0  0  0  0  0  0  0
   37.1533   78.6963   52.4980 H   0  0  0  0  0  0  0  0  0  0  0  0
   37.6125   80.7271   52.6488 H   0  0  0  0  0  0  0  0  0  0  0  0
   38.2506   81.5678   54.8540 H   0  0  0  0  0  0  0  0  0  0  0  0
  1  6  2  0
  2  1  1  0
  2  3  2  0
  3  4  1  0
  4  5  2  0
  6  5  1  0
  7  2  1  0
  8  7  2  0
  9  8  1  0
 10 11  1  0
 10  9  2  0
 11 12  2  0
 12  7  1  0
 13 11  1  0
 14 13  1  0
 15 16  2  0
 15  1  1  0
 17 16  1  0
 18 19  1  0
 18 17  2  0
 19 15  1  0
 20 18  1  0
 21 20  2  0
 22 21  1  0
 23 22  1  0
 23 24  1  0
 24 20  1  0
 25 23  1  0
 26 25  2  0
 27 28  1  0
 27 26  1  0
 28 29  1  0
 29 25  1  0
  3 30  1  0
  5 31  1  0
  8 32  1  0
  9 33  1  0
 10 34  1  0
 13 35  1  0
 13 36  1  0
 14 37  1  0
 14 38  1  0
 14 39  1  0
 16 40  1  0
 17 41  1  0
 22 42  1  0
 22 43  1  0
 24 44  1  0
 27 45  1  0
 27 46  1  0
 28 47  1  0
 29 48  1  0
M  END
>  <Score>  (1) 
-7.13124

>  <Score_dual>  (1) 
-7.02

>  <Choices>  (1) 
[None, 6, ['25-21', 60], 11, ['6-15', 120], 25, ['4-11', 15], 31, ['57-14', 105], 38, ['57-16', 30]]

$$$$
