
     RDKit          3D

 50 55  0  0  1  0  0  0  0  0999 V2000
   42.0820   81.1400   59.6370 O   0  0  0  0  0  0  0  0  0  0  0  0
   42.8590   81.5350   60.7110 C   0  0  0  0  0  0  0  0  0  0  0  0
   42.4900   82.4890   61.6040 C   0  0  0  0  0  0  0  0  0  0  0  0
   43.3500   82.8080   62.6500 C   0  0  0  0  0  0  0  0  0  0  0  0
   44.5810   82.1560   62.7810 C   0  0  0  0  0  0  0  0  0  0  0  0
   45.5860   82.2620   63.6730 N   0  0  0  0  0  0  0  0  0  0  0  0
   46.5540   81.3940   63.3390 C   0  0  0  0  0  0  0  0  0  0  0  0
   46.1490   80.7410   62.2300 N   0  0  0  0  0  0  0  0  0  0  0  0
   44.9290   81.1850   61.8500 C   0  0  0  0  0  0  0  0  0  0  0  0
   44.0730   80.8600   60.8020 C   0  0  0  0  0  0  0  0  0  0  0  0
   39.6840   84.6890   60.4130 C   0  0  0  0  0  0  0  0  0  0  0  0
   40.9740   84.1480   60.4920 C   0  0  0  0  0  0  0  0  0  0  0  0
   41.1950   83.1360   61.4200 C   0  0  0  0  0  0  0  0  0  0  0  0
   40.1710   82.7350   62.1860 N   0  0  0  0  0  0  0  0  0  0  0  0
   38.9330   83.2660   62.0980 C   0  0  0  0  0  0  0  0  0  0  0  0
   38.6750   84.2510   61.2080 N   0  0  0  0  0  0  0  0  0  0  0  0
   40.5870   79.6680   58.4920 C   0  0  0  0  0  0  0  0  0  0  0  0
   41.3090   80.0240   59.6000 C   0  0  0  0  0  0  0  0  0  0  0  0
   41.2020   79.1650   60.6950 C   0  0  0  0  0  0  0  0  0  0  0  0
   40.4180   78.0350   60.6550 C   0  0  0  0  0  0  0  0  0  0  0  0
   40.1380   77.0490   61.5530 N   0  0  0  0  0  0  0  0  0  0  0  0
   39.3090   76.1800   61.0010 N   0  0  0  0  0  0  0  0  0  0  0  0
   39.0310   76.5820   59.7320 C   0  0  0  0  0  0  0  0  0  0  0  0
   39.7240   77.7460   59.5090 C   0  0  0  0  0  0  0  0  0  0  0  0
   39.7830   78.5470   58.3930 C   0  0  0  0  0  0  0  0  0  0  0  0
   38.7220   79.5710   56.4000 C   0  0  1  0  0  0  0  0  0  0  0  0
   39.0780   78.3090   57.1330 C   0  0  2  0  0  0  0  0  0  0  0  0
   37.8970   77.6190   57.4030 O   0  0  0  0  0  0  0  0  0  0  0  0
   37.1110   77.8720   56.2690 C   0  0  0  0  0  0  0  0  0  0  0  0
   37.2640   79.3510   56.0340 C   0  0  2  0  0  0  0  0  0  0  0  0
   38.8940   80.7280   57.1580 O   0  0  0  0  0  0  0  0  0  0  0  0
   37.0250   79.6900   54.7020 O   0  0  0  0  0  0  0  0  0  0  0  0
   43.0600   83.5786   63.3795 H   0  0  0  0  0  0  0  0  0  0  0  0
   45.6077   82.9036   64.4785 H   0  0  0  0  0  0  0  0  0  0  0  0
   47.5041   81.2427   63.8722 H   0  0  0  0  0  0  0  0  0  0  0  0
   44.3482   80.0906   60.0656 H   0  0  0  0  0  0  0  0  0  0  0  0
   39.4835   85.4906   59.6868 H   0  0  0  0  0  0  0  0  0  0  0  0
   41.7840   84.5112   59.8424 H   0  0  0  0  0  0  0  0  0  0  0  0
   38.1306   82.8959   62.7531 H   0  0  0  0  0  0  0  0  0  0  0  0
   40.6516   80.3250   57.6121 H   0  0  0  0  0  0  0  0  0  0  0  0
   41.7593   79.3977   61.6144 H   0  0  0  0  0  0  0  0  0  0  0  0
   40.5131   76.9902   62.5105 H   0  0  0  0  0  0  0  0  0  0  0  0
   38.3721   76.0690   59.0160 H   0  0  0  0  0  0  0  0  0  0  0  0
   39.3784   79.7406   55.5338 H   0  0  0  0  0  0  0  0  0  0  0  0
   39.7607   77.7334   56.4906 H   0  0  0  0  0  0  0  0  0  0  0  0
   37.4785   77.2998   55.4044 H   0  0  0  0  0  0  0  0  0  0  0  0
   36.0613   77.5748   56.4099 H   0  0  0  0  0  0  0  0  0  0  0  0
   36.5554   79.9647   56.6096 H   0  0  0  0  0  0  0  0  0  0  0  0
   38.8601   80.4998   58.1208 H   0  0  0  0  0  0  0  0  0  0  0  0
   36.4550   80.4985   54.6644 H   0  0  0  0  0  0  0  0  0  0  0  0
  1  2  1  0
  2 10  2  0
  2  3  1  0
  3  4  2  0
  4  5  1  0
  5  6  1  0
  7  6  1  0
  8  7  2  0
  9  8  1  0
  9  5  2  0
 10  9  1  0
 11 12  2  0
 11 16  1  0
 12 13  1  0
 13  3  1  0
 13 14  2  0
 15 14  1  0
 16 15  2  0
 17 18  2  0
 18  1  1  0
 18 19  1  0
 20 19  2  0
 20 21  1  0
 22 21  1  0
 23 22  2  0
 24 23  1  0
 24 20  1  0
 25 17  1  0
 25 24  2  0
 26 27  1  0
 26 31  1  0
 27 28  1  0
 27 25  1  0
 29 28  1  0
 30 32  1  0
 30 29  1  0
 30 26  1  0
  4 33  1  0
  6 34  1  0
  7 35  1  0
 10 36  1  0
 11 37  1  0
 12 38  1  0
 15 39  1  0
 17 40  1  0
 19 41  1  0
 21 42  1  0
 23 43  1  0
 26 44  1  6
 27 45  1  6
 29 46  1  0
 29 47  1  0
 30 48  1  1
 31 49  1  0
 32 50  1  0
M  END
>  <Score>  (1) 
-7.84442

>  <Score_dual>  (1) 
-7.55

>  <Choices>  (1) 
[None, 8, ['34-23', 60], 15, ['2-1', 0], 23, ['54-21', 15], 36, ['14-14', 60]]

$$$$
