
     RDKit          3D

 47 52  0  0  0  0  0  0  0  0999 V2000
   41.9310   77.6490   59.8740 Cl  0  0  0  0  0  0  0  0  0  0  0  0
   42.6250   76.4340   60.9030 C   0  0  0  0  0  0  0  0  0  0  0  0
   43.5020   76.7990   61.8830 C   0  0  0  0  0  0  0  0  0  0  0  0
   44.0070   75.7530   62.6720 C   0  0  0  0  0  0  0  0  0  0  0  0
   43.6480   74.4470   62.4780 C   0  0  0  0  0  0  0  0  0  0  0  0
   42.7570   74.1120   61.4740 C   0  0  0  0  0  0  0  0  0  0  0  0
   42.2500   75.1210   60.6900 C   0  0  0  0  0  0  0  0  0  0  0  0
   42.4770   71.7540   62.1270 C   0  0  0  0  0  0  0  0  0  0  0  0
   42.3010   72.7460   61.1760 C   0  0  0  0  0  0  0  0  0  0  0  0
   41.6980   72.3280   60.0160 C   0  0  0  0  0  0  0  0  0  0  0  0
   41.3050   71.0290   59.8240 C   0  0  0  0  0  0  0  0  0  0  0  0
   40.7090   70.3790   58.8070 N   0  0  0  0  0  0  0  0  0  0  0  0
   40.5270   69.1010   59.0910 N   0  0  0  0  0  0  0  0  0  0  0  0
   41.0050   68.8470   60.3330 C   0  0  0  0  0  0  0  0  0  0  0  0
   41.4900   70.0690   60.7780 C   0  0  0  0  0  0  0  0  0  0  0  0
   42.0900   70.4380   61.9560 C   0  0  0  0  0  0  0  0  0  0  0  0
   45.3890   79.9680   62.5670 C   0  0  0  0  0  0  0  0  0  0  0  0
   45.0920   78.6100   62.4310 C   0  0  0  0  0  0  0  0  0  0  0  0
   43.8390   78.2010   62.0530 C   0  0  0  0  0  0  0  0  0  0  0  0
   42.8680   79.1570   61.8100 N   0  0  0  0  0  0  0  0  0  0  0  0
   43.1730   80.4690   61.9490 C   0  0  0  0  0  0  0  0  0  0  0  0
   44.4160   80.8840   62.3220 N   0  0  0  0  0  0  0  0  0  0  0  0
   41.4320   82.0010   62.7510 C   0  0  0  0  0  0  0  0  0  0  0  0
   42.1610   81.4870   61.6970 C   0  0  0  0  0  0  0  0  0  0  0  0
   41.9030   81.9560   60.4350 C   0  0  0  0  0  0  0  0  0  0  0  0
   40.9280   82.9270   60.2390 C   0  0  0  0  0  0  0  0  0  0  0  0
   40.4430   83.5810   59.1710 N   0  0  0  0  0  0  0  0  0  0  0  0
   39.4760   84.4480   59.5250 C   0  0  0  0  0  0  0  0  0  0  0  0
   39.3010   84.3730   60.9110 C   0  0  0  0  0  0  0  0  0  0  0  0
   40.2250   83.4120   61.3290 C   0  0  0  0  0  0  0  0  0  0  0  0
   40.4610   82.9570   62.6280 C   0  0  0  0  0  0  0  0  0  0  0  0
   44.7180   75.9926   63.4764 H   0  0  0  0  0  0  0  0  0  0  0  0
   44.0691   73.6611   63.1222 H   0  0  0  0  0  0  0  0  0  0  0  0
   41.5391   74.8811   59.8856 H   0  0  0  0  0  0  0  0  0  0  0  0
   42.9549   72.0311   63.0782 H   0  0  0  0  0  0  0  0  0  0  0  0
   41.5243   73.0600   59.2135 H   0  0  0  0  0  0  0  0  0  0  0  0
   40.4301   70.8216   57.9197 H   0  0  0  0  0  0  0  0  0  0  0  0
   41.0080   67.8865   60.8692 H   0  0  0  0  0  0  0  0  0  0  0  0
   42.2603   69.6979   62.7518 H   0  0  0  0  0  0  0  0  0  0  0  0
   46.3964   80.2913   62.8682 H   0  0  0  0  0  0  0  0  0  0  0  0
   45.8720   77.8602   62.6294 H   0  0  0  0  0  0  0  0  0  0  0  0
   41.6466   81.6154   63.7586 H   0  0  0  0  0  0  0  0  0  0  0  0
   42.4681   81.5635   59.5767 H   0  0  0  0  0  0  0  0  0  0  0  0
   40.7692   83.4375   58.2046 H   0  0  0  0  0  0  0  0  0  0  0  0
   38.9181   85.1041   58.8407 H   0  0  0  0  0  0  0  0  0  0  0  0
   38.5944   84.9428   61.5323 H   0  0  0  0  0  0  0  0  0  0  0  0
   39.9033   83.3416   63.4947 H   0  0  0  0  0  0  0  0  0  0  0  0
  1  2  1  0
  2  3  2  0
  3 19  1  0
  3  4  1  0
  5  4  2  0
  6  5  1  0
  7  2  1  0
  7  6  2  0
  9  6  1  0
  9  8  2  0
 10  9  1  0
 11 10  2  0
 11 15  1  0
 12 13  1  0
 12 11  1  0
 13 14  2  0
 14 15  1  0
 15 16  2  0
 16  8  1  0
 18 17  2  0
 19 18  1  0
 20 21  1  0
 20 19  2  0
 21 22  2  0
 22 17  1  0
 24 21  1  0
 24 23  2  0
 25 24  1  0
 26 25  2  0
 26 30  1  0
 27 28  1  0
 27 26  1  0
 28 29  2  0
 29 30  1  0
 30 31  2  0
 31 23  1  0
  4 32  1  0
  5 33  1  0
  7 34  1  0
  8 35  1  0
 10 36  1  0
 12 37  1  0
 14 38  1  0
 16 39  1  0
 17 40  1  0
 18 41  1  0
 23 42  1  0
 25 43  1  0
 27 44  1  0
 28 45  1  0
 29 46  1  0
 31 47  1  0
M  END
>  <Score>  (1) 
-7.46889

>  <Score_dual>  (1) 
-9.41

>  <Choices>  (1) 
[None, 8, ['7-18', 120], 18, ['54-9', 240], 32, ['24-10', 270]]

$$$$
