
     RDKit          3D

 42 46  0  0  0  0  0  0  0  0999 V2000
   42.1830   83.9160   61.8920 C   0  0  0  0  0  0  0  0  0  0  0  0
   42.3390   82.6570   61.3410 C   0  0  0  0  0  0  0  0  0  0  0  0
   41.6580   81.5930   61.9120 C   0  0  0  0  0  0  0  0  0  0  0  0
   40.8760   81.8420   62.9800 N   0  0  0  0  0  0  0  0  0  0  0  0
   40.7370   83.0680   63.4990 C   0  0  0  0  0  0  0  0  0  0  0  0
   41.3850   84.1010   62.9620 N   0  0  0  0  0  0  0  0  0  0  0  0
   43.8150   85.8490   61.9680 C   0  0  0  0  0  0  0  0  0  0  0  0
   42.8890   85.0590   61.3110 C   0  0  0  0  0  0  0  0  0  0  0  0
   42.6430   85.4200   59.9910 C   0  0  0  0  0  0  0  0  0  0  0  0
   43.2620   86.4810   59.3640 C   0  0  0  0  0  0  0  0  0  0  0  0
   43.2000   87.0180   58.1350 N   0  0  0  0  0  0  0  0  0  0  0  0
   44.0240   88.0630   58.0330 C   0  0  0  0  0  0  0  0  0  0  0  0
   44.6790   88.2490   59.2460 C   0  0  0  0  0  0  0  0  0  0  0  0
   44.1710   87.2390   60.0410 C   0  0  0  0  0  0  0  0  0  0  0  0
   44.4410   86.9120   61.3480 C   0  0  0  0  0  0  0  0  0  0  0  0
   41.7340   80.2170   61.4300 C   0  0  0  0  0  0  0  0  0  0  0  0
   42.7020   79.3190   61.8230 C   0  0  0  0  0  0  0  0  0  0  0  0
   42.7490   78.0190   61.3480 C   0  0  0  0  0  0  0  0  0  0  0  0
   41.8430   77.5890   60.4800 N   0  0  0  0  0  0  0  0  0  0  0  0
   40.8900   78.4690   60.0930 C   0  0  0  0  0  0  0  0  0  0  0  0
   40.8360   79.7270   60.5460 N   0  0  0  0  0  0  0  0  0  0  0  0
   39.3280   76.0100   60.8450 Cl  0  0  0  0  0  0  0  0  0  0  0  0
   39.0700   76.9300   59.3710 C   0  0  0  0  0  0  0  0  0  0  0  0
   39.8590   78.0530   59.1350 C   0  0  0  0  0  0  0  0  0  0  0  0
   39.6230   78.7580   57.9520 C   0  0  0  0  0  0  0  0  0  0  0  0
   38.6440   78.3550   57.0540 C   0  0  0  0  0  0  0  0  0  0  0  0
   37.8840   77.2350   57.3270 C   0  0  0  0  0  0  0  0  0  0  0  0
   36.6470   76.7530   56.1590 Cl  0  0  0  0  0  0  0  0  0  0  0  0
   38.0850   76.5020   58.4940 C   0  0  0  0  0  0  0  0  0  0  0  0
   42.9900   82.5031   60.4678 H   0  0  0  0  0  0  0  0  0  0  0  0
   40.0856   83.2232   64.3717 H   0  0  0  0  0  0  0  0  0  0  0  0
   44.0601   85.6235   63.0164 H   0  0  0  0  0  0  0  0  0  0  0  0
   41.9159   84.8277   59.4161 H   0  0  0  0  0  0  0  0  0  0  0  0
   42.5984   86.6708   57.3744 H   0  0  0  0  0  0  0  0  0  0  0  0
   44.1631   88.6794   57.1326 H   0  0  0  0  0  0  0  0  0  0  0  0
   45.4226   89.0157   59.5092 H   0  0  0  0  0  0  0  0  0  0  0  0
   45.1716   87.5100   61.9125 H   0  0  0  0  0  0  0  0  0  0  0  0
   43.4672   79.6473   62.5419 H   0  0  0  0  0  0  0  0  0  0  0  0
   43.5422   77.3392   61.6925 H   0  0  0  0  0  0  0  0  0  0  0  0
   40.2253   79.6507   57.7276 H   0  0  0  0  0  0  0  0  0  0  0  0
   38.4745   78.9255   56.1289 H   0  0  0  0  0  0  0  0  0  0  0  0
   37.4802   75.6098   58.7135 H   0  0  0  0  0  0  0  0  0  0  0  0
  1  6  1  0
  2  1  2  0
  2  3  1  0
  3  4  2  0
  4  5  1  0
  6  5  2  0
  8  1  1  0
  8  7  2  0
  9  8  1  0
 10  9  2  0
 10 14  1  0
 11 10  1  0
 12 11  1  0
 12 13  2  0
 13 14  1  0
 14 15  2  0
 15  7  1  0
 16 17  2  0
 16  3  1  0
 18 17  1  0
 19 18  2  0
 20 19  1  0
 20 21  2  0
 21 16  1  0
 23 22  1  0
 24 23  2  0
 24 20  1  0
 25 24  1  0
 26 27  1  0
 26 25  2  0
 27 29  2  0
 28 27  1  0
 29 23  1  0
  2 30  1  0
  5 31  1  0
  7 32  1  0
  9 33  1  0
 11 34  1  0
 12 35  1  0
 13 36  1  0
 15 37  1  0
 17 38  1  0
 18 39  1  0
 25 40  1  0
 26 41  1  0
 29 42  1  0
M  END
>  <Score>  (1) 
-7.43441

>  <Score_dual>  (1) 
-7.91

>  <Choices>  (1) 
[None, 8, ['19-20', 0], 12, ['24-9', 315], 31, ['29-18', 45]]

$$$$
