
     RDKit          3D

 54 59  0  0  1  0  0  0  0  0999 V2000
   45.0140   81.0400   62.8710 C   0  0  2  0  0  0  0  0  0  0  0  0
   45.0340   82.4890   62.3070 C   0  0  2  0  0  0  0  0  0  0  0  0
   46.0460   83.0850   63.2370 C   0  0  0  0  0  0  0  0  0  0  0  0
   46.9960   82.1040   63.4970 O   0  0  0  0  0  0  0  0  0  0  0  0
   46.4290   80.8740   63.2780 C   0  0  0  0  0  0  0  0  0  0  0  0
   41.6960   84.1600   61.6950 C   0  0  0  0  0  0  0  0  0  0  0  0
   42.9180   83.5170   61.4150 C   0  0  0  0  0  0  0  0  0  0  0  0
   43.7450   83.1490   62.4770 C   0  0  0  0  0  0  0  0  0  0  0  0
   43.3300   83.4300   63.7380 N   0  0  0  0  0  0  0  0  0  0  0  0
   42.1340   84.0580   63.9690 C   0  0  0  0  0  0  0  0  0  0  0  0
   41.3490   84.4070   62.9350 N   0  0  0  0  0  0  0  0  0  0  0  0
   40.8750   84.5140   60.5580 C   0  0  0  0  0  0  0  0  0  0  0  0
   39.5160   84.1940   60.4130 C   0  0  0  0  0  0  0  0  0  0  0  0
   39.1260   84.7010   59.2260 N   0  0  0  0  0  0  0  0  0  0  0  0
   40.1770   85.3230   58.6250 C   0  0  0  0  0  0  0  0  0  0  0  0
   41.2370   85.1990   59.4530 N   0  0  0  0  0  0  0  0  0  0  0  0
   44.6930   80.1420   61.8840 O   0  0  0  0  0  0  0  0  0  0  0  0
   43.6950   79.1990   61.9120 C   0  0  0  0  0  0  0  0  0  0  0  0
   43.5210   77.8160   62.0310 C   0  0  0  0  0  0  0  0  0  0  0  0
   42.1850   77.6310   62.1020 N   0  0  0  0  0  0  0  0  0  0  0  0
   41.5200   78.7520   61.8530 C   0  0  1  0  0  0  0  0  0  0  0  0
   42.4610   79.7540   61.7860 N   0  0  0  0  0  0  0  0  0  0  0  0
   40.8530   78.6860   60.5400 C   0  0  0  0  0  0  0  0  0  0  0  0
   41.0310   79.6620   59.5880 C   0  0  0  0  0  0  0  0  0  0  0  0
   40.4360   79.6480   58.3470 C   0  0  0  0  0  0  0  0  0  0  0  0
   39.6000   78.6140   57.9860 C   0  0  0  0  0  0  0  0  0  0  0  0
   39.3820   77.6050   58.8980 C   0  0  0  0  0  0  0  0  0  0  0  0
   38.5470   76.5670   58.5460 C   0  0  0  0  0  0  0  0  0  0  0  0
   38.2920   75.5350   59.4160 C   0  0  0  0  0  0  0  0  0  0  0  0
   38.9150   75.5830   60.6680 C   0  0  0  0  0  0  0  0  0  0  0  0
   39.7390   76.6370   60.9760 C   0  0  0  0  0  0  0  0  0  0  0  0
   40.0100   77.6820   60.1210 C   0  0  0  0  0  0  0  0  0  0  0  0
   44.2823   80.8750   63.6756 H   0  0  0  0  0  0  0  0  0  0  0  0
   45.2504   82.5685   61.2314 H   0  0  0  0  0  0  0  0  0  0  0  0
   46.5238   83.9563   62.7652 H   0  0  0  0  0  0  0  0  0  0  0  0
   45.5682   83.4215   64.1689 H   0  0  0  0  0  0  0  0  0  0  0  0
   46.4759   80.2802   64.2028 H   0  0  0  0  0  0  0  0  0  0  0  0
   46.9793   80.3572   62.4779 H   0  0  0  0  0  0  0  0  0  0  0  0
   43.2152   83.3086   60.3766 H   0  0  0  0  0  0  0  0  0  0  0  0
   41.8167   84.2763   64.9994 H   0  0  0  0  0  0  0  0  0  0  0  0
   38.8914   83.6383   61.1279 H   0  0  0  0  0  0  0  0  0  0  0  0
   38.1765   84.6286   58.8335 H   0  0  0  0  0  0  0  0  0  0  0  0
   40.1653   85.8308   57.6493 H   0  0  0  0  0  0  0  0  0  0  0  0
   43.9358   77.2983   61.1535 H   0  0  0  0  0  0  0  0  0  0  0  0
   44.0391   77.4113   62.9129 H   0  0  0  0  0  0  0  0  0  0  0  0
   41.9095   76.9190   61.4106 H   0  0  0  0  0  0  0  0  0  0  0  0
   40.7613   78.9193   62.6317 H   0  0  0  0  0  0  0  0  0  0  0  0
   41.6906   80.5073   59.8337 H   0  0  0  0  0  0  0  0  0  0  0  0
   40.6291   80.4674   57.6390 H   0  0  0  0  0  0  0  0  0  0  0  0
   39.1198   78.5948   56.9965 H   0  0  0  0  0  0  0  0  0  0  0  0
   38.0767   76.5647   57.5516 H   0  0  0  0  0  0  0  0  0  0  0  0
   37.6253   74.7048   59.1397 H   0  0  0  0  0  0  0  0  0  0  0  0
   38.7455   74.7808   61.4013 H   0  0  0  0  0  0  0  0  0  0  0  0
   40.2128   76.6475   61.9687 H   0  0  0  0  0  0  0  0  0  0  0  0
  1  5  1  0
  2  8  1  0
  2  1  1  0
  2  3  1  0
  3  4  1  0
  5  4  1  0
  6 11  1  0
  7  6  2  0
  7  8  1  0
  8  9  2  0
  9 10  1  0
 11 10  2  0
 12  6  1  0
 13 12  2  0
 14 13  1  0
 15 14  1  0
 15 16  2  0
 16 12  1  0
 17 18  1  0
 17  1  1  0
 18 19  1  0
 19 20  1  0
 21 20  1  0
 22 21  1  0
 22 18  2  0
 23 21  1  0
 24 23  2  0
 25 24  1  0
 26 25  2  0
 26 27  1  0
 27 32  2  0
 28 27  1  0
 28 29  2  0
 29 30  1  0
 30 31  2  0
 32 23  1  0
 32 31  1  0
  1 33  1  1
  2 34  1  6
  3 35  1  0
  3 36  1  0
  5 37  1  0
  5 38  1  0
  7 39  1  0
 10 40  1  0
 13 41  1  0
 14 42  1  0
 15 43  1  0
 19 44  1  0
 19 45  1  0
 20 46  1  0
 21 47  1  1
 24 48  1  0
 25 49  1  0
 26 50  1  0
 28 51  1  0
 29 52  1  0
 30 53  1  0
 31 54  1  0
M  END
>  <Score>  (1) 
-7.28024

>  <Score_dual>  (1) 
-7.13

>  <Choices>  (1) 
[None, 6, ['23-9', 180], 12, ['30-12', 270], 28, ['23-10', 195], 37, ['26-24', 180]]

$$$$
