
     RDKit          3D

 40 43  0  0  0  0  0  0  0  0999 V2000
   40.0610   79.0140   59.9300 C   0  0  0  0  0  0  0  0  0  0  0  0
   40.3650   78.0970   60.9140 C   0  0  0  0  0  0  0  0  0  0  0  0
   40.1650   76.7350   60.8110 C   0  0  0  0  0  0  0  0  0  0  0  0
   39.6170   76.2560   59.6310 C   0  0  0  0  0  0  0  0  0  0  0  0
   39.3160   77.1580   58.6600 C   0  0  0  0  0  0  0  0  0  0  0  0
   39.5390   78.4810   58.8270 N   0  0  0  0  0  0  0  0  0  0  0  0
   38.7400   76.7800   57.3790 C   0  0  0  0  0  0  0  0  0  0  0  0
   37.4450   77.0500   57.0080 C   0  0  0  0  0  0  0  0  0  0  0  0
   36.8500   76.7140   55.8090 C   0  0  0  0  0  0  0  0  0  0  0  0
   37.6180   76.0390   54.8810 C   0  0  0  0  0  0  0  0  0  0  0  0
   38.9150   75.7610   55.2360 C   0  0  0  0  0  0  0  0  0  0  0  0
   39.4340   76.1160   56.4190 N   0  0  0  0  0  0  0  0  0  0  0  0
   39.6910   75.0650   54.2650 N   0  0  0  0  0  0  0  0  0  0  0  0
   40.8880   84.4670   60.2240 F   0  0  0  0  0  0  0  0  0  0  0  0
   40.6940   83.1290   60.2200 C   0  0  0  0  0  0  0  0  0  0  0  0
   40.7350   82.3950   61.4060 C   0  0  0  0  0  0  0  0  0  0  0  0
   40.5220   81.0600   61.2560 C   0  0  0  0  0  0  0  0  0  0  0  0
   40.2850   80.4380   60.0710 C   0  0  0  0  0  0  0  0  0  0  0  0
   40.2520   81.2000   58.9170 C   0  0  0  0  0  0  0  0  0  0  0  0
   40.4610   82.5670   59.0010 C   0  0  0  0  0  0  0  0  0  0  0  0
   40.9910   83.1020   62.6500 C   0  0  0  0  0  0  0  0  0  0  0  0
   42.2780   83.4830   63.0110 C   0  0  0  0  0  0  0  0  0  0  0  0
   42.5950   84.1590   64.1810 C   0  0  0  0  0  0  0  0  0  0  0  0
   41.5200   84.4280   64.9680 N   0  0  0  0  0  0  0  0  0  0  0  0
   40.2680   84.0680   64.6360 C   0  0  0  0  0  0  0  0  0  0  0  0
   40.0200   83.4160   63.4910 N   0  0  0  0  0  0  0  0  0  0  0  0
   40.7988   78.4789   61.8499 H   0  0  0  0  0  0  0  0  0  0  0  0
   40.4304   76.0553   61.6342 H   0  0  0  0  0  0  0  0  0  0  0  0
   39.4320   75.1815   59.4855 H   0  0  0  0  0  0  0  0  0  0  0  0
   36.8213   77.5865   57.7382 H   0  0  0  0  0  0  0  0  0  0  0  0
   35.8019   76.9745   55.6001 H   0  0  0  0  0  0  0  0  0  0  0  0
   37.2105   75.7385   53.9045 H   0  0  0  0  0  0  0  0  0  0  0  0
   40.6721   74.8244   54.4660 H   0  0  0  0  0  0  0  0  0  0  0  0
   39.2709   74.8023   53.3620 H   0  0  0  0  0  0  0  0  0  0  0  0
   40.5432   80.4367   62.1621 H   0  0  0  0  0  0  0  0  0  0  0  0
   40.0618   80.7256   57.9429 H   0  0  0  0  0  0  0  0  0  0  0  0
   40.4391   83.1906   58.0951 H   0  0  0  0  0  0  0  0  0  0  0  0
   43.0997   83.2322   62.3240 H   0  0  0  0  0  0  0  0  0  0  0  0
   43.6219   84.4503   64.4469 H   0  0  0  0  0  0  0  0  0  0  0  0
   39.4358   84.3116   65.3129 H   0  0  0  0  0  0  0  0  0  0  0  0
  1 18  1  0
  1  2  2  0
  3  2  1  0
  4  3  2  0
  5  6  2  0
  5  4  1  0
  6  1  1  0
  7  5  1  0
  8  7  2  0
  9  8  1  0
 10 11  1  0
 10  9  2  0
 11 12  2  0
 12  7  1  0
 13 11  1  0
 15 14  1  0
 15 16  2  0
 16 21  1  0
 17 16  1  0
 18 17  2  0
 19 20  2  0
 19 18  1  0
 20 15  1  0
 21 22  2  0
 21 26  1  0
 22 23  1  0
 23 24  2  0
 25 24  1  0
 26 25  2  0
  2 27  1  0
  3 28  1  0
  4 29  1  0
  8 30  1  0
  9 31  1  0
 10 32  1  0
 13 33  1  0
 13 34  1  0
 17 35  1  0
 19 36  1  0
 20 37  1  0
 22 38  1  0
 23 39  1  0
 25 40  1  0
M  END
>  <Score>  (1) 
-7.13474

>  <Score_dual>  (1) 
-7.32

>  <Choices>  (1) 
[None, 6, ['9-20', 270], 17, ['6-14', 300], 28, ['6-16', 75], 37, ['0-2', 0]]

$$$$
