
     RDKit          3D

 53 57  0  0  1  0  0  0  0  0999 V2000
   40.4390   79.8890   61.0920 C   0  0  0  0  0  0  0  0  0  0  0  0
   39.6560   80.3430   61.9530 O   0  0  0  0  0  0  0  0  0  0  0  0
   41.4130   80.8090   60.6150 N   0  0  0  0  0  0  0  0  0  0  0  0
   40.3720   78.5800   60.6270 N   0  0  0  0  0  0  0  0  0  0  0  0
   40.7980   77.4030   61.3860 C   0  0  0  0  0  0  0  0  0  0  0  0
   40.8680   76.2700   60.3990 C   0  0  0  0  0  0  0  0  0  0  0  0
   40.8090   76.9410   59.0820 C   0  0  0  0  0  0  0  0  0  0  0  0
   39.8880   78.1500   59.3490 C   0  0  0  0  0  0  0  0  0  0  0  0
   42.1190   84.4290   60.6100 C   0  0  0  0  0  0  0  0  0  0  0  0
   41.9590   83.1160   60.1810 C   0  0  0  0  0  0  0  0  0  0  0  0
   41.5690   82.1440   61.0720 C   0  0  0  0  0  0  0  0  0  0  0  0
   41.3660   82.5400   62.3190 N   0  0  0  0  0  0  0  0  0  0  0  0
   41.5140   83.7940   62.7480 C   0  0  0  0  0  0  0  0  0  0  0  0
   41.8880   84.7380   61.9070 N   0  0  0  0  0  0  0  0  0  0  0  0
   42.5330   85.4880   59.6970 C   0  0  0  0  0  0  0  0  0  0  0  0
   42.1210   85.9960   58.4900 C   0  0  0  0  0  0  0  0  0  0  0  0
   42.7840   87.0220   57.9400 C   0  0  0  0  0  0  0  0  0  0  0  0
   43.8520   87.5490   58.5790 C   0  0  0  0  0  0  0  0  0  0  0  0
   43.9440   86.5300   60.0720 S   0  0  0  0  0  0  0  0  0  0  0  0
   44.6790   88.6630   58.1190 N   0  0  0  0  0  0  0  0  0  0  0  0
   45.9030   88.4540   57.6420 C   0  0  0  0  0  0  0  0  0  0  0  0
   46.3580   89.6800   57.3220 N   0  0  0  0  0  0  0  0  0  0  0  0
   45.4340   90.5860   57.6000 C   0  0  0  0  0  0  0  0  0  0  0  0
   45.3640   91.9780   57.4770 C   0  0  1  0  0  0  0  0  0  0  0  0
   44.2410   92.6190   57.8660 N   0  0  0  0  0  0  0  0  0  0  0  0
   43.1680   91.9650   58.3770 C   0  0  0  0  0  0  0  0  0  0  0  0
   43.2110   90.6230   58.5050 N   0  0  0  0  0  0  0  0  0  0  0  0
   44.3170   89.9560   58.1260 C   0  0  0  0  0  0  0  0  0  0  0  0
   46.4630   92.7150   56.9470 N   0  0  0  0  0  0  0  0  0  0  0  0
   41.2450   84.0910   64.2050 C   0  0  0  0  0  0  0  0  0  0  0  0
   42.4090   84.1100   64.9190 F   0  0  0  0  0  0  0  0  0  0  0  0
   40.6530   85.3510   64.2850 F   0  0  0  0  0  0  0  0  0  0  0  0
   40.4230   83.1120   64.7560 F   0  0  0  0  0  0  0  0  0  0  0  0
   42.2070   82.8110   58.8060 N   0  0  0  0  0  0  0  0  0  0  0  0
   42.0558   80.4809   59.8801 H   0  0  0  0  0  0  0  0  0  0  0  0
   41.7860   77.5773   61.8372 H   0  0  0  0  0  0  0  0  0  0  0  0
   40.0981   77.1789   62.2045 H   0  0  0  0  0  0  0  0  0  0  0  0
   41.8085   75.7106   60.5114 H   0  0  0  0  0  0  0  0  0  0  0  0
   40.0604   75.5362   60.5377 H   0  0  0  0  0  0  0  0  0  0  0  0
   40.3778   76.2765   58.3188 H   0  0  0  0  0  0  0  0  0  0  0  0
   41.7988   77.2270   58.6966 H   0  0  0  0  0  0  0  0  0  0  0  0
   40.0138   78.9312   58.5848 H   0  0  0  0  0  0  0  0  0  0  0  0
   38.8131   77.9176   59.3241 H   0  0  0  0  0  0  0  0  0  0  0  0
   41.2501   85.5624   57.9766 H   0  0  0  0  0  0  0  0  0  0  0  0
   42.4606   87.4337   56.9726 H   0  0  0  0  0  0  0  0  0  0  0  0
   46.4270   87.4930   57.5332 H   0  0  0  0  0  0  0  0  0  0  0  0
   44.9495   91.8677   56.4641 H   0  0  0  0  0  0  0  0  0  0  0  0
   42.2716   92.5237   58.6840 H   0  0  0  0  0  0  0  0  0  0  0  0
   42.4035   90.1124   58.8899 H   0  0  0  0  0  0  0  0  0  0  0  0
   47.0276   93.0936   57.7208 H   0  0  0  0  0  0  0  0  0  0  0  0
   47.0462   92.0935   56.3686 H   0  0  0  0  0  0  0  0  0  0  0  0
   42.0953   81.8458   58.4643 H   0  0  0  0  0  0  0  0  0  0  0  0
   42.4974   83.5566   58.1574 H   0  0  0  0  0  0  0  0  0  0  0  0
  1  2  2  0
  3 11  1  0
  3  1  1  0
  4  1  1  0
  4  5  1  0
  6  5  1  0
  7  8  1  0
  7  6  1  0
  8  4  1  0
  9 14  1  0
 10  9  2  0
 10 11  1  0
 11 12  2  0
 12 13  1  0
 13 30  1  0
 14 13  2  0
 15 19  1  0
 15  9  1  0
 16 15  2  0
 17 16  1  0
 17 18  2  0
 18 19  1  0
 20 28  1  0
 20 18  1  0
 21 20  1  0
 22 23  1  0
 22 21  2  0
 23 28  2  0
 24 29  1  0
 24 23  1  0
 24 25  1  0
 25 26  2  0
 26 27  1  0
 28 27  1  0
 30 32  1  0
 30 33  1  0
 30 31  1  0
 34 10  1  0
  3 35  1  0
  5 36  1  0
  5 37  1  0
  6 38  1  0
  6 39  1  0
  7 40  1  0
  7 41  1  0
  8 42  1  0
  8 43  1  0
 16 44  1  0
 17 45  1  0
 21 46  1  0
 24 47  1  6
 26 48  1  0
 27 49  1  0
 29 50  1  0
 29 51  1  0
 34 52  1  0
 34 53  1  0
M  END
>  <Score>  (1) 
-7.313

>  <Score_dual>  (1) 
-8.86

>  <Choices>  (1) 
[None, 8, ['12-5', 75], 12, ['13-1', 285], 25, ['11-11', 135], 28, ['0-3', 0], 28, ['25-19', 0], 35, ['28-5', 210]]

$$$$
