
     RDKit          3D

 48 53  0  0  1  0  0  0  0  0999 V2000
   40.7780   81.9380   61.2010 N   0  0  0  0  0  0  0  0  0  0  0  0
   40.2690   80.7160   61.2710 C   0  0  0  0  0  0  0  0  0  0  0  0
   40.0220   80.2740   59.9950 N   0  0  0  0  0  0  0  0  0  0  0  0
   40.3870   81.2430   59.1680 C   0  0  0  0  0  0  0  0  0  0  0  0
   40.3140   81.4470   57.8240 C   0  0  1  0  0  0  0  0  0  0  0  0
   40.9880   82.4910   57.2340 N   0  0  0  0  0  0  0  0  0  0  0  0
   41.4690   83.4930   57.9740 C   0  0  0  0  0  0  0  0  0  0  0  0
   41.3960   83.3860   59.3260 N   0  0  0  0  0  0  0  0  0  0  0  0
   40.8650   82.2830   59.9010 C   0  0  0  0  0  0  0  0  0  0  0  0
   41.1480   82.8020   62.2700 C   0  0  0  0  0  0  0  0  0  0  0  0
   40.1790   83.5870   62.9810 C   0  0  0  0  0  0  0  0  0  0  0  0
   40.6210   84.4070   64.0080 C   0  0  0  0  0  0  0  0  0  0  0  0
   41.9640   84.4100   64.2740 N   0  0  0  0  0  0  0  0  0  0  0  0
   42.8450   83.6550   63.5810 C   0  0  0  0  0  0  0  0  0  0  0  0
   42.4160   82.8510   62.5740 N   0  0  0  0  0  0  0  0  0  0  0  0
   38.8640   83.4630   62.5800 O   0  0  0  0  0  0  0  0  0  0  0  0
   40.3010   80.3000   56.9880 N   0  0  0  0  0  0  0  0  0  0  0  0
   39.4650   80.3190   55.8550 C   0  0  2  0  0  0  0  0  0  0  0  0
   38.0260   80.5000   55.8100 C   0  0  0  0  0  0  0  0  0  0  0  0
   38.5490   79.1180   55.6600 C   0  0  2  0  0  0  0  0  0  0  0  0
   38.3720   78.1170   56.7190 C   0  0  0  0  0  0  0  0  0  0  0  0
   37.2040   77.4670   57.0610 C   0  0  0  0  0  0  0  0  0  0  0  0
   37.0950   76.5380   58.0720 C   0  0  0  0  0  0  0  0  0  0  0  0
   38.2130   76.2120   58.8110 C   0  0  0  0  0  0  0  0  0  0  0  0
   38.1900   75.3160   59.8140 N   0  0  0  0  0  0  0  0  0  0  0  0
   39.3310   75.0390   60.5050 C   0  0  0  0  0  0  0  0  0  0  0  0
   40.5550   75.6380   60.2370 C   0  0  0  0  0  0  0  0  0  0  0  0
   40.6000   76.5590   59.2150 C   0  0  0  0  0  0  0  0  0  0  0  0
   39.4210   76.8180   58.5310 C   0  0  0  0  0  0  0  0  0  0  0  0
   39.4690   77.7410   57.5070 C   0  0  0  0  0  0  0  0  0  0  0  0
   40.0770   80.1515   62.1954 H   0  0  0  0  0  0  0  0  0  0  0  0
   39.2846   81.8303   57.8830 H   0  0  0  0  0  0  0  0  0  0  0  0
   41.9126   84.3816   57.5011 H   0  0  0  0  0  0  0  0  0  0  0  0
   41.7481   84.1514   59.9185 H   0  0  0  0  0  0  0  0  0  0  0  0
   39.9215   85.0295   64.5852 H   0  0  0  0  0  0  0  0  0  0  0  0
   43.9149   83.6919   63.8338 H   0  0  0  0  0  0  0  0  0  0  0  0
   38.1560   83.9824   63.0372 H   0  0  0  0  0  0  0  0  0  0  0  0
   41.2646   80.1520   56.6556 H   0  0  0  0  0  0  0  0  0  0  0  0
   40.2680   80.8632   55.3363 H   0  0  0  0  0  0  0  0  0  0  0  0
   37.4849   80.7794   56.7261 H   0  0  0  0  0  0  0  0  0  0  0  0
   37.3548   81.1312   55.2091 H   0  0  0  0  0  0  0  0  0  0  0  0
   38.4488   78.3104   54.9199 H   0  0  0  0  0  0  0  0  0  0  0  0
   36.2972   77.7073   56.4865 H   0  0  0  0  0  0  0  0  0  0  0  0
   36.1273   76.0615   58.2876 H   0  0  0  0  0  0  0  0  0  0  0  0
   39.2800   74.3011   61.3192 H   0  0  0  0  0  0  0  0  0  0  0  0
   41.4538   75.3862   60.8190 H   0  0  0  0  0  0  0  0  0  0  0  0
   41.5368   77.0711   58.9502 H   0  0  0  0  0  0  0  0  0  0  0  0
   40.4377   78.2163   57.2933 H   0  0  0  0  0  0  0  0  0  0  0  0
  1  2  1  0
  1 10  1  0
  3  2  2  0
  4  9  2  0
  4  3  1  0
  5  4  1  0
  6  5  1  0
  6  7  2  0
  7  8  1  0
  8  9  1  0
  9  1  1  0
 10 15  1  0
 10 11  2  0
 11 12  1  0
 12 13  2  0
 14 13  1  0
 15 14  2  0
 16 11  1  0
 17  5  1  0
 18 17  1  0
 19 18  1  0
 20 19  1  0
 20 18  1  0
 20 21  1  0
 21 22  2  0
 21 30  1  0
 22 23  1  0
 23 24  2  0
 24 25  1  0
 25 26  2  0
 27 26  1  0
 28 27  2  0
 29 24  1  0
 29 28  1  0
 30 29  2  0
  2 31  1  0
  5 32  1  1
  7 33  1  0
  8 34  1  0
 12 35  1  0
 14 36  1  0
 16 37  1  0
 17 38  1  0
 18 39  1  6
 19 40  1  0
 19 41  1  0
 20 42  1  6
 22 43  1  0
 23 44  1  0
 26 45  1  0
 27 46  1  0
 28 47  1  0
 30 48  1  0
M  END
>  <Score>  (1) 
-7.07827

>  <Score_dual>  (1) 
-7.74

>  <Choices>  (1) 
[None, 7, ['2-1', 0], 7, ['28-7', 165], 25, ['16-17', 150], 32, ['36-27', 105]]

$$$$
