
     RDKit          3D

 46 50  0  0  0  0  0  0  0  0999 V2000
   44.4620   82.6440   61.4790 Cl  0  0  0  0  0  0  0  0  0  0  0  0
   44.5460   80.9430   61.9610 C   0  0  0  0  0  0  0  0  0  0  0  0
   43.4360   80.1290   61.8250 C   0  0  0  0  0  0  0  0  0  0  0  0
   43.5650   78.8310   62.2130 C   0  0  0  0  0  0  0  0  0  0  0  0
   44.7370   78.3100   62.7260 C   0  0  0  0  0  0  0  0  0  0  0  0
   45.8070   79.1670   62.8390 C   0  0  0  0  0  0  0  0  0  0  0  0
   45.7630   80.4850   62.4720 C   0  0  0  0  0  0  0  0  0  0  0  0
   45.9200   76.6320   64.0270 C   0  0  0  0  0  0  0  0  0  0  0  0
   44.8990   76.9300   63.1470 C   0  0  0  0  0  0  0  0  0  0  0  0
   44.0980   75.8640   62.7270 C   0  0  0  0  0  0  0  0  0  0  0  0
   44.3350   74.5920   63.1810 C   0  0  0  0  0  0  0  0  0  0  0  0
   43.7550   73.4020   62.9640 N   0  0  0  0  0  0  0  0  0  0  0  0
   44.3500   72.4270   63.6430 C   0  0  0  0  0  0  0  0  0  0  0  0
   45.3630   72.9900   64.3380 N   0  0  0  0  0  0  0  0  0  0  0  0
   45.3680   74.3060   64.0690 C   0  0  0  0  0  0  0  0  0  0  0  0
   46.1600   75.3720   64.4820 C   0  0  0  0  0  0  0  0  0  0  0  0
   42.2180   80.7160   61.2780 C   0  0  0  0  0  0  0  0  0  0  0  0
   41.6910   80.2610   60.0750 C   0  0  0  0  0  0  0  0  0  0  0  0
   40.5320   80.7940   59.5200 C   0  0  0  0  0  0  0  0  0  0  0  0
   39.9410   81.7840   60.2160 N   0  0  0  0  0  0  0  0  0  0  0  0
   40.4480   82.2350   61.3900 C   0  0  0  0  0  0  0  0  0  0  0  0
   41.5660   81.6930   61.8890 N   0  0  0  0  0  0  0  0  0  0  0  0
   39.9450   80.3500   58.2660 C   0  0  0  0  0  0  0  0  0  0  0  0
   39.5550   79.0280   58.2120 C   0  0  0  0  0  0  0  0  0  0  0  0
   38.9790   78.4840   57.0640 C   0  0  0  0  0  0  0  0  0  0  0  0
   38.8180   79.3310   55.9820 C   0  0  0  0  0  0  0  0  0  0  0  0
   39.2110   80.6510   56.0460 C   0  0  0  0  0  0  0  0  0  0  0  0
   39.7790   81.1840   57.1850 C   0  0  0  0  0  0  0  0  0  0  0  0
   39.8000   83.3280   62.1620 C   0  0  0  0  0  0  0  0  0  0  0  0
   38.4260   83.1130   62.0560 F   0  0  0  0  0  0  0  0  0  0  0  0
   40.1060   84.5290   61.5890 F   0  0  0  0  0  0  0  0  0  0  0  0
   40.1780   83.2970   63.4980 F   0  0  0  0  0  0  0  0  0  0  0  0
   42.6950   78.1653   62.1134 H   0  0  0  0  0  0  0  0  0  0  0  0
   46.7492   78.7717   63.2464 H   0  0  0  0  0  0  0  0  0  0  0  0
   46.6363   81.1461   62.5736 H   0  0  0  0  0  0  0  0  0  0  0  0
   46.5684   77.4492   64.3760 H   0  0  0  0  0  0  0  0  0  0  0  0
   43.2703   76.0472   62.0261 H   0  0  0  0  0  0  0  0  0  0  0  0
   42.9444   73.2608   62.3444 H   0  0  0  0  0  0  0  0  0  0  0  0
   44.0708   71.3630   63.6399 H   0  0  0  0  0  0  0  0  0  0  0  0
   46.9887   75.1950   65.1834 H   0  0  0  0  0  0  0  0  0  0  0  0
   42.2092   79.4500   59.5424 H   0  0  0  0  0  0  0  0  0  0  0  0
   39.7016   78.3880   59.0946 H   0  0  0  0  0  0  0  0  0  0  0  0
   38.6671   77.4300   57.0209 H   0  0  0  0  0  0  0  0  0  0  0  0
   38.3689   78.9448   55.0551 H   0  0  0  0  0  0  0  0  0  0  0  0
   39.0681   81.2959   55.1664 H   0  0  0  0  0  0  0  0  0  0  0  0
   40.0882   82.2388   57.2270 H   0  0  0  0  0  0  0  0  0  0  0  0
  1  2  1  0
  2  7  2  0
  3  2  1  0
  3  4  2  0
  4  5  1  0
  5  6  2  0
  5  9  1  0
  7  6  1  0
  8 16  2  0
  9  8  1  0
 10  9  2  0
 10 11  1  0
 11 15  2  0
 12 11  1  0
 12 13  1  0
 13 14  2  0
 15 14  1  0
 15 16  1  0
 17  3  1  0
 17 22  1  0
 18 17  2  0
 19 18  1  0
 19 20  2  0
 20 21  1  0
 21 22  2  0
 21 29  1  0
 23 19  1  0
 24 23  2  0
 25 24  1  0
 26 27  1  0
 26 25  2  0
 27 28  2  0
 28 23  1  0
 29 32  1  0
 30 29  1  0
 31 29  1  0
  4 33  1  0
  6 34  1  0
  7 35  1  0
  8 36  1  0
 10 37  1  0
 12 38  1  0
 13 39  1  0
 16 40  1  0
 18 41  1  0
 24 42  1  0
 25 43  1  0
 26 44  1  0
 27 45  1  0
 28 46  1  0
M  END
>  <Score>  (1) 
-7.25726

>  <Score_dual>  (1) 
-7.42

>  <Choices>  (1) 
[None, 6, ['7-19', 90], 17, ['34-24', 330], 32, ['11-14', 60], 35, ['1-25', 210]]

$$$$
