
     RDKit          3D

 53 57  0  0  1  0  0  0  0  0999 V2000
   41.7560   81.1770   58.5690 C   0  0  0  0  0  0  0  0  0  0  0  0
   42.9690   80.8010   59.1020 C   0  0  0  0  0  0  0  0  0  0  0  0
   42.6400   79.0410   59.6210 S   0  0  0  0  0  0  0  0  0  0  0  0
   40.8750   79.1710   58.9940 C   0  0  0  0  0  0  0  0  0  0  0  0
   40.8950   80.2050   58.6320 N   0  0  0  0  0  0  0  0  0  0  0  0
   40.9570   85.8890   59.1640 F   0  0  0  0  0  0  0  0  0  0  0  0
   41.3410   84.8230   58.4030 C   0  0  0  0  0  0  0  0  0  0  0  0
   41.3350   83.5370   58.9220 C   0  0  0  0  0  0  0  0  0  0  0  0
   41.7380   82.5710   58.0640 C   0  0  0  0  0  0  0  0  0  0  0  0
   42.1300   82.8250   56.7600 C   0  0  0  0  0  0  0  0  0  0  0  0
   42.1220   84.1120   56.2840 C   0  0  0  0  0  0  0  0  0  0  0  0
   41.7160   85.1400   57.1310 C   0  0  0  0  0  0  0  0  0  0  0  0
   40.9100   83.3440   60.2980 C   0  0  0  0  0  0  0  0  0  0  0  0
   41.8250   83.3780   61.3650 C   0  0  0  0  0  0  0  0  0  0  0  0
   41.4460   83.1930   62.6860 C   0  0  0  0  0  0  0  0  0  0  0  0
   40.1110   82.9720   62.8900 N   0  0  0  0  0  0  0  0  0  0  0  0
   39.2470   82.9410   61.8760 C   0  0  0  0  0  0  0  0  0  0  0  0
   39.6290   83.1220   60.6020 N   0  0  0  0  0  0  0  0  0  0  0  0
   39.9160   78.0090   59.0950 C   0  0  0  0  0  0  0  0  0  0  0  0
   40.0660   77.2260   60.2110 C   0  0  0  0  0  0  0  0  0  0  0  0
   39.1810   76.1740   60.2780 C   0  0  0  0  0  0  0  0  0  0  0  0
   38.2340   75.9420   59.3010 C   0  0  0  0  0  0  0  0  0  0  0  0
   38.1330   76.7710   58.1960 C   0  0  0  0  0  0  0  0  0  0  0  0
   39.0040   77.8450   58.0850 C   0  0  0  0  0  0  0  0  0  0  0  0
   38.8690   77.8370   55.6630 C   0  0  1  0  0  0  0  0  0  0  0  0
   38.8970   78.7030   56.9070 C   0  0  1  0  0  0  0  0  0  0  0  0
   37.7530   79.5050   56.9250 O   0  0  0  0  0  0  0  0  0  0  0  0
   37.0740   79.5590   55.7380 C   0  0  0  0  0  0  0  0  0  0  0  0
   38.0600   79.9700   54.6600 C   0  0  1  0  0  0  0  0  0  0  0  0
   38.9050   78.7200   54.4100 C   0  0  2  0  0  0  0  0  0  0  0  0
   39.9540   77.0000   55.6920 O   0  0  0  0  0  0  0  0  0  0  0  0
   37.4190   80.3940   53.5080 O   0  0  0  0  0  0  0  0  0  0  0  0
   38.2700   78.0230   53.3860 O   0  0  0  0  0  0  0  0  0  0  0  0
   43.8942   81.3883   59.1970 H   0  0  0  0  0  0  0  0  0  0  0  0
   42.4467   81.9976   56.1080 H   0  0  0  0  0  0  0  0  0  0  0  0
   42.4311   84.3280   55.2507 H   0  0  0  0  0  0  0  0  0  0  0  0
   41.6982   86.1831   56.7822 H   0  0  0  0  0  0  0  0  0  0  0  0
   42.8869   83.5591   61.1424 H   0  0  0  0  0  0  0  0  0  0  0  0
   42.1696   83.2219   63.5140 H   0  0  0  0  0  0  0  0  0  0  0  0
   38.1833   82.7607   62.0905 H   0  0  0  0  0  0  0  0  0  0  0  0
   40.8251   77.4211   60.9828 H   0  0  0  0  0  0  0  0  0  0  0  0
   39.2302   75.4938   61.1411 H   0  0  0  0  0  0  0  0  0  0  0  0
   37.5498   75.0866   59.4014 H   0  0  0  0  0  0  0  0  0  0  0  0
   37.3761   76.5812   57.4207 H   0  0  0  0  0  0  0  0  0  0  0  0
   37.9443   77.2419   55.6358 H   0  0  0  0  0  0  0  0  0  0  0  0
   39.7707   79.3713   56.9088 H   0  0  0  0  0  0  0  0  0  0  0  0
   36.6521   78.5708   55.5026 H   0  0  0  0  0  0  0  0  0  0  0  0
   36.2475   80.2822   55.7998 H   0  0  0  0  0  0  0  0  0  0  0  0
   38.6741   80.8274   54.9725 H   0  0  0  0  0  0  0  0  0  0  0  0
   39.9447   78.9812   54.1632 H   0  0  0  0  0  0  0  0  0  0  0  0
   40.1996   76.8105   56.6322 H   0  0  0  0  0  0  0  0  0  0  0  0
   36.6187   80.9234   53.7515 H   0  0  0  0  0  0  0  0  0  0  0  0
   37.6570   77.3502   53.7755 H   0  0  0  0  0  0  0  0  0  0  0  0
  1  5  1  0
  1  2  2  0
  2  3  1  0
  4 19  1  0
  4  3  1  0
  5  4  2  0
  7  8  2  0
  7  6  1  0
  8 13  1  0
  9  1  1  0
  9  8  1  0
 10  9  2  0
 11 10  1  0
 11 12  2  0
 12  7  1  0
 13 18  1  0
 13 14  2  0
 14 15  1  0
 15 16  2  0
 17 16  1  0
 18 17  2  0
 19 20  2  0
 20 21  1  0
 22 21  2  0
 23 22  1  0
 24 23  2  0
 24 19  1  0
 25 31  1  0
 25 26  1  0
 26 27  1  0
 26 24  1  0
 28 27  1  0
 29 32  1  0
 29 28  1  0
 30 33  1  0
 30 29  1  0
 30 25  1  0
  2 34  1  0
 10 35  1  0
 11 36  1  0
 12 37  1  0
 14 38  1  0
 15 39  1  0
 17 40  1  0
 20 41  1  0
 21 42  1  0
 22 43  1  0
 23 44  1  0
 25 45  1  6
 26 46  1  6
 28 47  1  0
 28 48  1  0
 29 49  1  1
 30 50  1  6
 31 51  1  0
 32 52  1  0
 33 53  1  0
M  END
>  <Score>  (1) 
-7.08808

>  <Score_dual>  (1) 
-7.1

>  <Choices>  (1) 
[None, 6, ['9-20', 270], 16, ['33-18', 285], 25, ['1-27', 300], 35, ['21-24', 60]]

$$$$
