
     RDKit          3D

 49 53  0  0  0  0  0  0  0  0999 V2000
   41.9290   78.9780   62.1490 Cl  0  0  0  0  0  0  0  0  0  0  0  0
   43.4150   79.8160   61.7600 C   0  0  0  0  0  0  0  0  0  0  0  0
   43.3660   81.1390   61.3900 C   0  0  0  0  0  0  0  0  0  0  0  0
   44.5700   81.7080   61.1060 C   0  0  0  0  0  0  0  0  0  0  0  0
   45.7680   81.0630   61.1670 C   0  0  0  0  0  0  0  0  0  0  0  0
   45.8120   79.7280   61.5410 C   0  0  0  0  0  0  0  0  0  0  0  0
   44.6100   79.1060   61.8390 C   0  0  0  0  0  0  0  0  0  0  0  0
   39.9210   82.1620   60.4240 C   0  0  0  0  0  0  0  0  0  0  0  0
   41.1170   81.4400   60.3950 C   0  0  0  0  0  0  0  0  0  0  0  0
   42.0800   81.8200   61.3280 C   0  0  0  0  0  0  0  0  0  0  0  0
   41.8000   82.8370   62.1810 N   0  0  0  0  0  0  0  0  0  0  0  0
   40.6200   83.5000   62.1610 C   0  0  0  0  0  0  0  0  0  0  0  0
   39.6710   83.1560   61.2720 N   0  0  0  0  0  0  0  0  0  0  0  0
   40.3730   84.1950   64.4990 C   0  0  0  0  0  0  0  0  0  0  0  0
   40.2870   82.9540   64.7850 O   0  0  0  0  0  0  0  0  0  0  0  0
   40.5480   84.5120   63.1280 N   0  0  0  0  0  0  0  0  0  0  0  0
   40.3030   85.2110   65.4660 N   0  0  0  0  0  0  0  0  0  0  0  0
   45.7330   77.1650   62.9640 C   0  0  0  0  0  0  0  0  0  0  0  0
   44.6930   77.7050   62.2280 C   0  0  0  0  0  0  0  0  0  0  0  0
   43.6810   76.8400   61.8490 C   0  0  0  0  0  0  0  0  0  0  0  0
   43.7140   75.5060   62.1930 C   0  0  0  0  0  0  0  0  0  0  0  0
   42.8910   74.4870   61.9610 N   0  0  0  0  0  0  0  0  0  0  0  0
   43.4150   73.3840   62.5350 C   0  0  0  0  0  0  0  0  0  0  0  0
   44.5750   73.6520   63.1450 N   0  0  0  0  0  0  0  0  0  0  0  0
   44.7620   74.9850   62.9300 C   0  0  0  0  0  0  0  0  0  0  0  0
   45.7790   75.8290   63.3160 C   0  0  0  0  0  0  0  0  0  0  0  0
   46.8970   75.3680   64.0790 N   0  0  0  0  0  0  0  0  0  0  0  0
   48.0220   74.8740   63.5330 C   0  0  0  0  0  0  0  0  0  0  0  0
   49.0740   74.4420   64.3490 C   0  0  0  0  0  0  0  0  0  0  0  0
   48.8800   74.5570   65.7100 C   0  0  0  0  0  0  0  0  0  0  0  0
   49.8370   74.1630   66.4180 O   0  0  0  0  0  0  0  0  0  0  0  0
   47.7380   75.0580   66.2150 N   0  0  0  0  0  0  0  0  0  0  0  0
   46.7200   75.4760   65.4080 C   0  0  0  0  0  0  0  0  0  0  0  0
   45.6930   75.9280   65.9770 O   0  0  0  0  0  0  0  0  0  0  0  0
   44.5755   82.7661   60.8053 H   0  0  0  0  0  0  0  0  0  0  0  0
   46.6968   81.5985   60.9207 H   0  0  0  0  0  0  0  0  0  0  0  0
   46.7658   79.1831   61.5989 H   0  0  0  0  0  0  0  0  0  0  0  0
   39.1376   81.8916   59.7007 H   0  0  0  0  0  0  0  0  0  0  0  0
   41.2879   80.6220   59.6797 H   0  0  0  0  0  0  0  0  0  0  0  0
   40.6231   85.4979   62.8393 H   0  0  0  0  0  0  0  0  0  0  0  0
   40.3780   86.1983   65.1821 H   0  0  0  0  0  0  0  0  0  0  0  0
   40.1767   84.9689   66.4591 H   0  0  0  0  0  0  0  0  0  0  0  0
   46.5546   77.8241   63.2811 H   0  0  0  0  0  0  0  0  0  0  0  0
   42.8341   77.2249   61.2619 H   0  0  0  0  0  0  0  0  0  0  0  0
   42.0069   74.5321   61.4344 H   0  0  0  0  0  0  0  0  0  0  0  0
   42.9469   72.3890   62.5051 H   0  0  0  0  0  0  0  0  0  0  0  0
   48.1162   74.8090   62.4390 H   0  0  0  0  0  0  0  0  0  0  0  0
   50.0045   74.0332   63.9281 H   0  0  0  0  0  0  0  0  0  0  0  0
   47.6293   75.1278   67.2369 H   0  0  0  0  0  0  0  0  0  0  0  0
  2  7  2  0
  2  1  1  0
  3  2  1  0
  4  5  1  0
  4  3  2  0
  5  6  2  0
  6  7  1  0
  7 19  1  0
  8 13  2  0
  9  8  1  0
  9 10  2  0
 10  3  1  0
 10 11  1  0
 12 11  2  0
 12 16  1  0
 13 12  1  0
 14 15  2  0
 14 17  1  0
 16 14  1  0
 18 26  2  0
 19 18  1  0
 20 21  1  0
 20 19  2  0
 21 25  2  0
 22 21  1  0
 22 23  1  0
 23 24  2  0
 25 24  1  0
 25 26  1  0
 26 27  1  0
 27 33  1  0
 28 27  1  0
 28 29  2  0
 29 30  1  0
 30 32  1  0
 30 31  2  0
 33 34  2  0
 33 32  1  0
  4 35  1  0
  5 36  1  0
  6 37  1  0
  8 38  1  0
  9 39  1  0
 16 40  1  0
 17 41  1  0
 17 42  1  0
 18 43  1  0
 20 44  1  0
 22 45  1  0
 23 46  1  0
 28 47  1  0
 29 48  1  0
 32 49  1  0
M  END
>  <Score>  (1) 
-7.88646

>  <Score_dual>  (1) 
-8.37

>  <Choices>  (1) 
[None, 9, ['12-5', 195], 12, ['0-20', 0], 12, ['7-17', 150], 25, ['34-21', 120], 38, ['37-17', 240]]

$$$$
