
     RDKit          3D

 49 55  0  0  0  0  0  0  0  0999 V2000
   42.5890   75.4670   60.9360 C   0  0  0  0  0  0  0  0  0  0  0  0
   43.0350   76.6570   61.4550 C   0  0  0  0  0  0  0  0  0  0  0  0
   43.9430   76.6600   62.4780 C   0  0  0  0  0  0  0  0  0  0  0  0
   44.4180   75.4450   62.9980 C   0  0  0  0  0  0  0  0  0  0  0  0
   45.2900   75.1630   63.9790 N   0  0  0  0  0  0  0  0  0  0  0  0
   45.4010   73.8200   64.0840 C   0  0  0  0  0  0  0  0  0  0  0  0
   44.5900   73.2720   63.1620 N   0  0  0  0  0  0  0  0  0  0  0  0
   43.9650   74.2580   62.4700 C   0  0  0  0  0  0  0  0  0  0  0  0
   43.0460   74.2400   61.4340 C   0  0  0  0  0  0  0  0  0  0  0  0
   41.5910   72.3510   61.6210 C   0  0  0  0  0  0  0  0  0  0  0  0
   42.6230   72.9580   60.9380 C   0  0  0  0  0  0  0  0  0  0  0  0
   43.2140   72.3560   59.8370 C   0  0  0  0  0  0  0  0  0  0  0  0
   42.7060   71.1380   59.4830 C   0  0  0  0  0  0  0  0  0  0  0  0
   43.0370   70.2880   58.4830 N   0  0  0  0  0  0  0  0  0  0  0  0
   42.2640   69.1760   58.5020 C   0  0  0  0  0  0  0  0  0  0  0  0
   41.4140   69.3140   59.5410 N   0  0  0  0  0  0  0  0  0  0  0  0
   41.6670   70.4750   60.1330 C   0  0  0  0  0  0  0  0  0  0  0  0
   41.1130   71.1230   61.2280 C   0  0  0  0  0  0  0  0  0  0  0  0
   41.4580   79.1710   59.1290 C   0  0  0  0  0  0  0  0  0  0  0  0
   41.9480   77.9470   59.5990 C   0  0  0  0  0  0  0  0  0  0  0  0
   42.4950   77.8740   60.8620 C   0  0  0  0  0  0  0  0  0  0  0  0
   42.5320   79.0120   61.5960 N   0  0  0  0  0  0  0  0  0  0  0  0
   42.0490   80.1920   61.1180 C   0  0  0  0  0  0  0  0  0  0  0  0
   41.5180   80.2840   59.9060 N   0  0  0  0  0  0  0  0  0  0  0  0
   43.2950   82.1050   62.0800 C   0  0  0  0  0  0  0  0  0  0  0  0
   42.1290   81.3740   61.9820 C   0  0  0  0  0  0  0  0  0  0  0  0
   41.0230   81.7660   62.7100 C   0  0  0  0  0  0  0  0  0  0  0  0
   41.0380   82.8840   63.5510 C   0  0  0  0  0  0  0  0  0  0  0  0
   40.1800   83.5150   64.3640 N   0  0  0  0  0  0  0  0  0  0  0  0
   40.7960   84.5490   64.9080 N   0  0  0  0  0  0  0  0  0  0  0  0
   42.0580   84.6400   64.4830 C   0  0  0  0  0  0  0  0  0  0  0  0
   42.2230   83.5680   63.6070 C   0  0  0  0  0  0  0  0  0  0  0  0
   43.3480   83.2220   62.9050 C   0  0  0  0  0  0  0  0  0  0  0  0
   41.8588   75.4771   60.1134 H   0  0  0  0  0  0  0  0  0  0  0  0
   44.3010   77.6137   62.8932 H   0  0  0  0  0  0  0  0  0  0  0  0
   45.7907   75.8544   64.5553 H   0  0  0  0  0  0  0  0  0  0  0  0
   46.0390   73.2743   64.7948 H   0  0  0  0  0  0  0  0  0  0  0  0
   41.1445   72.8550   62.4908 H   0  0  0  0  0  0  0  0  0  0  0  0
   44.0390   72.8290   59.2841 H   0  0  0  0  0  0  0  0  0  0  0  0
   43.7825   70.4645   57.7946 H   0  0  0  0  0  0  0  0  0  0  0  0
   42.3185   68.3259   57.8060 H   0  0  0  0  0  0  0  0  0  0  0  0
   40.2884   70.6526   61.7837 H   0  0  0  0  0  0  0  0  0  0  0  0
   41.0205   79.2324   58.1216 H   0  0  0  0  0  0  0  0  0  0  0  0
   41.8969   77.0497   58.9648 H   0  0  0  0  0  0  0  0  0  0  0  0
   44.1829   81.8036   61.5049 H   0  0  0  0  0  0  0  0  0  0  0  0
   40.0970   81.1782   62.6257 H   0  0  0  0  0  0  0  0  0  0  0  0
   39.2026   83.2395   64.5361 H   0  0  0  0  0  0  0  0  0  0  0  0
   42.8057   85.3966   64.7631 H   0  0  0  0  0  0  0  0  0  0  0  0
   44.2708   83.8143   62.9925 H   0  0  0  0  0  0  0  0  0  0  0  0
  1  9  2  0
  1  2  1  0
  2  3  2  0
  3  4  1  0
  4  5  1  0
  5  6  1  0
  7  6  2  0
  8  4  2  0
  8  7  1  0
  9  8  1  0
 11  9  1  0
 11 10  2  0
 12 11  1  0
 13 12  2  0
 13 17  1  0
 14 15  1  0
 14 13  1  0
 15 16  2  0
 16 17  1  0
 17 18  2  0
 18 10  1  0
 19 20  2  0
 19 24  1  0
 20 21  1  0
 21  2  1  0
 21 22  2  0
 23 22  1  0
 23 26  1  0
 24 23  2  0
 25 33  2  0
 26 25  1  0
 26 27  2  0
 27 28  1  0
 28 32  2  0
 28 29  1  0
 29 30  1  0
 31 30  2  0
 32 31  1  0
 33 32  1  0
  1 34  1  0
  3 35  1  0
  5 36  1  0
  6 37  1  0
 10 38  1  0
 12 39  1  0
 14 40  1  0
 15 41  1  0
 18 42  1  0
 19 43  1  0
 20 44  1  0
 25 45  1  0
 27 46  1  0
 29 47  1  0
 31 48  1  0
 33 49  1  0
M  END
>  <Score>  (1) 
-7.42699

>  <Score_dual>  (1) 
-8.6

>  <Choices>  (1) 
[None, 8, ['34-23', 60], 19, ['34-22', 180], 35, ['54-7', 90]]

$$$$
