
     RDKit          3D

 53 57  0  0  1  0  0  0  0  0999 V2000
   44.4770   82.7860   61.3550 Cl  0  0  0  0  0  0  0  0  0  0  0  0
   44.5170   81.0840   61.8330 C   0  0  0  0  0  0  0  0  0  0  0  0
   43.3780   80.3320   61.7570 C   0  0  0  0  0  0  0  0  0  0  0  0
   43.4630   79.0260   62.1370 C   0  0  0  0  0  0  0  0  0  0  0  0
   44.6270   78.4420   62.5870 C   0  0  0  0  0  0  0  0  0  0  0  0
   45.7380   79.2510   62.6410 C   0  0  0  0  0  0  0  0  0  0  0  0
   45.7400   80.5700   62.2780 C   0  0  0  0  0  0  0  0  0  0  0  0
   45.7700   76.7250   63.8620 C   0  0  0  0  0  0  0  0  0  0  0  0
   44.7460   77.0560   62.9970 C   0  0  0  0  0  0  0  0  0  0  0  0
   43.9150   76.0170   62.5900 C   0  0  0  0  0  0  0  0  0  0  0  0
   44.1250   74.7280   63.0440 C   0  0  0  0  0  0  0  0  0  0  0  0
   43.5000   73.5750   62.8210 N   0  0  0  0  0  0  0  0  0  0  0  0
   44.0670   72.5700   63.4870 C   0  0  0  0  0  0  0  0  0  0  0  0
   45.1070   73.0990   64.1710 N   0  0  0  0  0  0  0  0  0  0  0  0
   45.1530   74.4110   63.9110 C   0  0  0  0  0  0  0  0  0  0  0  0
   45.9830   75.4470   64.3170 C   0  0  0  0  0  0  0  0  0  0  0  0
   42.1550   80.9660   61.2790 C   0  0  0  0  0  0  0  0  0  0  0  0
   41.6250   80.6290   60.0140 C   0  0  0  0  0  0  0  0  0  0  0  0
   40.4600   81.2180   59.5290 C   0  0  0  0  0  0  0  0  0  0  0  0
   39.8670   82.1280   60.3380 N   0  0  0  0  0  0  0  0  0  0  0  0
   40.3690   82.4510   61.5420 C   0  0  0  0  0  0  0  0  0  0  0  0
   41.4840   81.8630   61.9600 N   0  0  0  0  0  0  0  0  0  0  0  0
   40.1220   79.3610   57.9300 C   0  0  2  0  0  0  0  0  0  0  0  0
   39.9250   80.8430   58.1950 C   0  0  2  0  0  0  0  0  0  0  0  0
   40.5070   81.6030   57.1820 O   0  0  0  0  0  0  0  0  0  0  0  0
   40.4980   81.0040   55.9480 C   0  0  0  0  0  0  0  0  0  0  0  0
   39.3490   80.0590   55.7340 C   0  0  2  0  0  0  0  0  0  0  0  0
   39.3270   78.9350   56.7420 C   0  0  1  0  0  0  0  0  0  0  0  0
   39.7330   78.6430   59.0570 O   0  0  0  0  0  0  0  0  0  0  0  0
   39.5170   79.4610   54.4810 O   0  0  0  0  0  0  0  0  0  0  0  0
   39.9560   77.7830   56.2340 O   0  0  0  0  0  0  0  0  0  0  0  0
   39.7170   83.4510   62.4280 C   0  0  0  0  0  0  0  0  0  0  0  0
   38.3450   83.2750   62.2480 F   0  0  0  0  0  0  0  0  0  0  0  0
   40.0560   84.7160   62.0010 F   0  0  0  0  0  0  0  0  0  0  0  0
   40.0680   83.2610   63.7540 F   0  0  0  0  0  0  0  0  0  0  0  0
   42.5558   78.4063   62.0816 H   0  0  0  0  0  0  0  0  0  0  0  0
   46.6812   78.8112   62.9973 H   0  0  0  0  0  0  0  0  0  0  0  0
   46.6478   81.1888   62.3326 H   0  0  0  0  0  0  0  0  0  0  0  0
   46.4469   77.5224   64.2026 H   0  0  0  0  0  0  0  0  0  0  0  0
   43.0830   76.2230   61.9005 H   0  0  0  0  0  0  0  0  0  0  0  0
   42.6784   73.4719   62.2085 H   0  0  0  0  0  0  0  0  0  0  0  0
   43.7511   71.5163   63.4816 H   0  0  0  0  0  0  0  0  0  0  0  0
   46.8154   75.2432   65.0066 H   0  0  0  0  0  0  0  0  0  0  0  0
   42.1456   79.8824   59.3962 H   0  0  0  0  0  0  0  0  0  0  0  0
   41.1834   79.1644   57.7184 H   0  0  0  0  0  0  0  0  0  0  0  0
   38.8456   81.0551   58.1989 H   0  0  0  0  0  0  0  0  0  0  0  0
   40.4451   81.7916   55.1819 H   0  0  0  0  0  0  0  0  0  0  0  0
   41.4185   80.4057   55.8786 H   0  0  0  0  0  0  0  0  0  0  0  0
   38.4192   80.6396   55.8259 H   0  0  0  0  0  0  0  0  0  0  0  0
   38.2780   78.7119   56.9868 H   0  0  0  0  0  0  0  0  0  0  0  0
   40.0008   79.1373   59.8719 H   0  0  0  0  0  0  0  0  0  0  0  0
   39.7828   78.5148   54.5999 H   0  0  0  0  0  0  0  0  0  0  0  0
   40.2649   77.2172   56.9853 H   0  0  0  0  0  0  0  0  0  0  0  0
  1  2  1  0
  2  7  2  0
  3  2  1  0
  3  4  2  0
  4  5  1  0
  5  6  2  0
  5  9  1  0
  7  6  1  0
  8 16  2  0
  9  8  1  0
 10  9  2  0
 10 11  1  0
 11 15  2  0
 12 11  1  0
 12 13  1  0
 13 14  2  0
 15 14  1  0
 15 16  1  0
 17  3  1  0
 17 22  1  0
 18 17  2  0
 19 18  1  0
 19 20  2  0
 20 21  1  0
 21 22  2  0
 21 32  1  0
 23 24  1  0
 23 29  1  0
 24 19  1  0
 25 24  1  0
 26 25  1  0
 27 30  1  0
 27 26  1  0
 27 28  1  0
 28 31  1  0
 28 23  1  0
 32 35  1  0
 33 32  1  0
 34 32  1  0
  4 36  1  0
  6 37  1  0
  7 38  1  0
  8 39  1  0
 10 40  1  0
 12 41  1  0
 13 42  1  0
 16 43  1  0
 18 44  1  0
 23 45  1  6
 24 46  1  1
 26 47  1  0
 26 48  1  0
 27 49  1  6
 28 50  1  1
 29 51  1  0
 30 52  1  0
 31 53  1  0
M  END
>  <Score>  (1) 
-7.60844

>  <Score_dual>  (1) 
-8.53

>  <Choices>  (1) 
[None, 6, ['7-19', 90], 17, ['34-24', 330], 32, ['11-14', 60], 35, ['21-22', 330]]

$$$$
