
     RDKit          3D

 50 56  0  0  0  0  0  0  0  0999 V2000
   40.2870   79.4000   58.5220 C   0  0  0  0  0  0  0  0  0  0  0  0
   41.0730   79.7290   59.6090 C   0  0  0  0  0  0  0  0  0  0  0  0
   41.0290   78.8490   60.6800 C   0  0  0  0  0  0  0  0  0  0  0  0
   40.2410   77.7090   60.6550 C   0  0  0  0  0  0  0  0  0  0  0  0
   40.0160   76.7040   61.5380 N   0  0  0  0  0  0  0  0  0  0  0  0
   39.1600   75.8460   61.0110 N   0  0  0  0  0  0  0  0  0  0  0  0
   38.8120   76.2730   59.7770 C   0  0  0  0  0  0  0  0  0  0  0  0
   39.4930   77.4500   59.5460 C   0  0  0  0  0  0  0  0  0  0  0  0
   39.4890   78.2820   58.4500 C   0  0  0  0  0  0  0  0  0  0  0  0
   37.7320   78.8380   56.6690 C   0  0  0  0  0  0  0  0  0  0  0  0
   38.7070   78.0500   57.2390 C   0  0  0  0  0  0  0  0  0  0  0  0
   39.0290   76.8450   56.6040 C   0  0  0  0  0  0  0  0  0  0  0  0
   38.4220   76.4250   55.4570 C   0  0  0  0  0  0  0  0  0  0  0  0
   38.4870   75.3700   54.6220 N   0  0  0  0  0  0  0  0  0  0  0  0
   37.6320   75.5030   53.6350 N   0  0  0  0  0  0  0  0  0  0  0  0
   36.9270   76.6550   53.7300 C   0  0  0  0  0  0  0  0  0  0  0  0
   37.4320   77.2290   54.8810 C   0  0  0  0  0  0  0  0  0  0  0  0
   37.1170   78.4170   55.5090 C   0  0  0  0  0  0  0  0  0  0  0  0
   41.8440   80.8530   59.6260 O   0  0  0  0  0  0  0  0  0  0  0  0
   42.6940   81.2130   60.6620 C   0  0  0  0  0  0  0  0  0  0  0  0
   42.4260   82.2260   61.5280 C   0  0  0  0  0  0  0  0  0  0  0  0
   43.3410   82.5110   62.5340 C   0  0  0  0  0  0  0  0  0  0  0  0
   44.5170   81.7700   62.6540 C   0  0  0  0  0  0  0  0  0  0  0  0
   45.5580   81.8250   63.5140 N   0  0  0  0  0  0  0  0  0  0  0  0
   46.4410   80.8680   63.1800 C   0  0  0  0  0  0  0  0  0  0  0  0
   45.9460   80.2160   62.1080 N   0  0  0  0  0  0  0  0  0  0  0  0
   44.7560   80.7400   61.7470 C   0  0  0  0  0  0  0  0  0  0  0  0
   43.8460   80.4470   60.7370 C   0  0  0  0  0  0  0  0  0  0  0  0
   39.7790   84.6280   60.3660 C   0  0  0  0  0  0  0  0  0  0  0  0
   41.0270   83.9920   60.4280 C   0  0  0  0  0  0  0  0  0  0  0  0
   41.1820   82.9700   61.3580 C   0  0  0  0  0  0  0  0  0  0  0  0
   40.1390   82.6570   62.1300 N   0  0  0  0  0  0  0  0  0  0  0  0
   38.9440   83.2830   62.0560 C   0  0  0  0  0  0  0  0  0  0  0  0
   38.7530   84.2790   61.1670 N   0  0  0  0  0  0  0  0  0  0  0  0
   40.3001   80.0776   57.6556 H   0  0  0  0  0  0  0  0  0  0  0  0
   41.6354   79.0613   61.5728 H   0  0  0  0  0  0  0  0  0  0  0  0
   40.4444   76.6226   62.4712 H   0  0  0  0  0  0  0  0  0  0  0  0
   38.1159   75.7751   59.0860 H   0  0  0  0  0  0  0  0  0  0  0  0
   37.4469   79.7931   57.1342 H   0  0  0  0  0  0  0  0  0  0  0  0
   39.8068   76.2078   57.0501 H   0  0  0  0  0  0  0  0  0  0  0  0
   39.1216   74.5676   54.7418 H   0  0  0  0  0  0  0  0  0  0  0  0
   36.1457   77.0389   53.0575 H   0  0  0  0  0  0  0  0  0  0  0  0
   36.3405   79.0566   55.0641 H   0  0  0  0  0  0  0  0  0  0  0  0
   43.1365   83.3278   63.2418 H   0  0  0  0  0  0  0  0  0  0  0  0
   45.6581   82.4892   64.2949 H   0  0  0  0  0  0  0  0  0  0  0  0
   47.3932   80.6555   63.6881 H   0  0  0  0  0  0  0  0  0  0  0  0
   44.0347   79.6336   60.0210 H   0  0  0  0  0  0  0  0  0  0  0  0
   39.6323   85.4399   59.6384 H   0  0  0  0  0  0  0  0  0  0  0  0
   41.8528   84.2905   59.7655 H   0  0  0  0  0  0  0  0  0  0  0  0
   38.1239   82.9792   62.7232 H   0  0  0  0  0  0  0  0  0  0  0  0
  1  2  2  0
  2 19  1  0
  2  3  1  0
  4  3  2  0
  4  5  1  0
  6  5  1  0
  7  6  2  0
  8  7  1  0
  8  4  1  0
  9  1  1  0
  9  8  2  0
 10 11  2  0
 11  9  1  0
 12 11  1  0
 13 12  2  0
 14 13  1  0
 15 16  2  0
 15 14  1  0
 16 17  1  0
 17 13  1  0
 17 18  2  0
 18 10  1  0
 19 20  1  0
 20 28  2  0
 20 21  1  0
 21 22  2  0
 22 23  1  0
 23 24  1  0
 25 24  1  0
 26 25  2  0
 27 26  1  0
 27 23  2  0
 28 27  1  0
 29 30  2  0
 29 34  1  0
 30 31  1  0
 31 21  1  0
 31 32  2  0
 33 32  1  0
 34 33  2  0
  1 35  1  0
  3 36  1  0
  5 37  1  0
  7 38  1  0
 10 39  1  0
 12 40  1  0
 14 41  1  0
 16 42  1  0
 18 43  1  0
 22 44  1  0
 24 45  1  0
 25 46  1  0
 28 47  1  0
 29 48  1  0
 30 49  1  0
 33 50  1  0
M  END
>  <Score>  (1) 
-8.45666

>  <Score_dual>  (1) 
-8.39

>  <Choices>  (1) 
[None, 8, ['34-23', 60], 15, ['2-1', 0], 23, ['54-21', 15], 36, ['54-10', 195]]

$$$$
