
     RDKit          3D

 47 50  0  0  0  0  0  0  0  0999 V2000
   43.1400   82.3630   62.4270 C   0  0  0  0  0  0  0  0  0  0  0  0
   44.1460   83.0590   63.0640 C   0  0  0  0  0  0  0  0  0  0  0  0
   45.2940   82.3280   63.3840 C   0  0  0  0  0  0  0  0  0  0  0  0
   45.3460   81.0230   63.0580 N   0  0  0  0  0  0  0  0  0  0  0  0
   44.3190   80.3990   62.4300 C   0  0  0  0  0  0  0  0  0  0  0  0
   43.1930   81.0650   62.1030 N   0  0  0  0  0  0  0  0  0  0  0  0
   41.8910   83.0100   62.0390 N   0  0  0  0  0  0  0  0  0  0  0  0
   41.9830   83.5910   60.7730 C   0  0  0  0  0  0  0  0  0  0  0  0
   40.9250   84.2520   60.2110 C   0  0  0  0  0  0  0  0  0  0  0  0
   39.7500   84.3350   60.9340 C   0  0  0  0  0  0  0  0  0  0  0  0
   38.7540   84.9320   60.4560 O   0  0  0  0  0  0  0  0  0  0  0  0
   39.7150   83.7650   62.1330 N   0  0  0  0  0  0  0  0  0  0  0  0
   40.7410   83.1190   62.6860 C   0  0  0  0  0  0  0  0  0  0  0  0
   40.7840   82.5740   63.7800 O   0  0  0  0  0  0  0  0  0  0  0  0
   41.0180   84.8750   58.8580 C   0  0  0  0  0  0  0  0  0  0  0  0
   40.0950   85.9360   58.7650 F   0  0  0  0  0  0  0  0  0  0  0  0
   42.2450   85.4130   58.6050 F   0  0  0  0  0  0  0  0  0  0  0  0
   40.7590   83.9510   57.8610 F   0  0  0  0  0  0  0  0  0  0  0  0
   44.4150   78.9850   62.0960 C   0  0  0  0  0  0  0  0  0  0  0  0
   45.0520   78.1520   62.7800 O   0  0  0  0  0  0  0  0  0  0  0  0
   41.9350   77.7080   62.1270 F   0  0  0  0  0  0  0  0  0  0  0  0
   42.5040   77.8450   60.9180 C   0  0  0  0  0  0  0  0  0  0  0  0
   43.7320   78.4740   60.8840 C   0  0  0  0  0  0  0  0  0  0  0  0
   44.3940   78.6610   59.6930 C   0  0  0  0  0  0  0  0  0  0  0  0
   43.8500   78.2220   58.4710 C   0  0  0  0  0  0  0  0  0  0  0  0
   42.6220   77.6010   58.5740 C   0  0  0  0  0  0  0  0  0  0  0  0
   41.9410   77.4010   59.7470 C   0  0  0  0  0  0  0  0  0  0  0  0
   40.6750   76.7530   59.7830 N   0  0  0  0  0  0  0  0  0  0  0  0
   39.4660   77.3620   59.2080 C   0  0  0  0  0  0  0  0  0  0  0  0
   38.4620   76.2360   59.2450 C   0  0  0  0  0  0  0  0  0  0  0  0
   38.8670   75.5520   60.5370 C   0  0  0  0  0  0  0  0  0  0  0  0
   40.3670   75.4570   60.3570 C   0  0  0  0  0  0  0  0  0  0  0  0
   44.0506   84.1277   63.3063 H   0  0  0  0  0  0  0  0  0  0  0  0
   46.1406   82.8112   63.8937 H   0  0  0  0  0  0  0  0  0  0  0  0
   42.9277   83.5157   60.2145 H   0  0  0  0  0  0  0  0  0  0  0  0
   38.8383   83.8262   62.6701 H   0  0  0  0  0  0  0  0  0  0  0  0
   45.3715   79.1654   59.6953 H   0  0  0  0  0  0  0  0  0  0  0  0
   44.3640   78.3631   57.5087 H   0  0  0  0  0  0  0  0  0  0  0  0
   42.1548   77.2396   57.6460 H   0  0  0  0  0  0  0  0  0  0  0  0
   39.6456   77.6966   58.1756 H   0  0  0  0  0  0  0  0  0  0  0  0
   39.1317   78.2563   59.7544 H   0  0  0  0  0  0  0  0  0  0  0  0
   37.4296   76.6129   59.2906 H   0  0  0  0  0  0  0  0  0  0  0  0
   38.4684   75.5849   58.3584 H   0  0  0  0  0  0  0  0  0  0  0  0
   38.6034   76.1595   61.4153 H   0  0  0  0  0  0  0  0  0  0  0  0
   38.3699   74.5868   60.7137 H   0  0  0  0  0  0  0  0  0  0  0  0
   40.6381   74.6401   59.6721 H   0  0  0  0  0  0  0  0  0  0  0  0
   40.9158   75.2368   61.2846 H   0  0  0  0  0  0  0  0  0  0  0  0
  1  2  2  0
  2  3  1  0
  4  3  2  0
  5  4  1  0
  6  1  1  0
  6  5  2  0
  7  1  1  0
  7 13  1  0
  8  7  1  0
  9  8  2  0
  9 10  1  0
 10 12  1  0
 11 10  2  0
 12 13  1  0
 13 14  2  0
 15  9  1  0
 16 15  1  0
 17 15  1  0
 18 15  1  0
 19  5  1  0
 19 20  2  0
 22 21  1  0
 23 22  2  0
 23 19  1  0
 24 23  1  0
 25 26  1  0
 25 24  2  0
 26 27  2  0
 27 28  1  0
 27 22  1  0
 28 32  1  0
 29 30  1  0
 29 28  1  0
 30 31  1  0
 32 31  1  0
  2 33  1  0
  3 34  1  0
  8 35  1  0
 12 36  1  0
 24 37  1  0
 25 38  1  0
 26 39  1  0
 29 40  1  0
 29 41  1  0
 30 42  1  0
 30 43  1  0
 31 44  1  0
 31 45  1  0
 32 46  1  0
 32 47  1  0
M  END
>  <Score>  (1) 
-7.02017

>  <Score_dual>  (1) 
-7.39

>  <Choices>  (1) 
[None, 6, ['37-16', 135], 15, ['11-10', 135], 22, ['5-7', 30], 24, ['9-4', 330], 34, ['13-4', 0]]

$$$$
