
     RDKit          3D

 50 53  0  0  0  0  0  0  0  0999 V2000
   40.0410   76.7700   60.7250 C   0  0  0  0  0  0  0  0  0  0  0  0
   39.7500   78.3920   57.3360 C   0  0  0  0  0  0  0  0  0  0  0  0
   39.8340   77.4100   58.2910 C   0  0  0  0  0  0  0  0  0  0  0  0
   39.9470   77.7590   59.6320 C   0  0  0  0  0  0  0  0  0  0  0  0
   39.9660   79.0580   59.9170 N   0  0  0  0  0  0  0  0  0  0  0  0
   39.8860   80.0430   59.0080 C   0  0  0  0  0  0  0  0  0  0  0  0
   39.7750   79.6870   57.6800 N   0  0  0  0  0  0  0  0  0  0  0  0
   40.9940   82.1660   59.9710 C   0  0  0  0  0  0  0  0  0  0  0  0
   42.0740   81.5020   59.9520 O   0  0  0  0  0  0  0  0  0  0  0  0
   39.9230   81.3890   59.4880 N   0  0  0  0  0  0  0  0  0  0  0  0
   40.9170   83.4590   60.4100 O   0  0  0  0  0  0  0  0  0  0  0  0
   38.8660   83.0920   62.2620 F   0  0  0  0  0  0  0  0  0  0  0  0
   40.0740   83.5480   62.6700 C   0  0  0  0  0  0  0  0  0  0  0  0
   41.0960   83.7300   61.7430 C   0  0  0  0  0  0  0  0  0  0  0  0
   42.3340   84.2000   62.1720 C   0  0  0  0  0  0  0  0  0  0  0  0
   42.5340   84.4820   63.5220 C   0  0  0  0  0  0  0  0  0  0  0  0
   41.5110   84.2960   64.4310 C   0  0  0  0  0  0  0  0  0  0  0  0
   40.2770   83.8290   64.0170 C   0  0  0  0  0  0  0  0  0  0  0  0
   39.2470   73.9360   60.5820 Cl  0  0  0  0  0  0  0  0  0  0  0  0
   40.9080   74.5290   60.5640 C   0  0  0  0  0  0  0  0  0  0  0  0
   41.2040   75.8850   60.6350 C   0  0  0  0  0  0  0  0  0  0  0  0
   42.5420   76.2310   60.6130 C   0  0  0  0  0  0  0  0  0  0  0  0
   43.5330   75.3080   60.5260 C   0  0  0  0  0  0  0  0  0  0  0  0
   43.2290   73.9610   60.4560 C   0  0  0  0  0  0  0  0  0  0  0  0
   41.8930   73.5790   60.4760 C   0  0  0  0  0  0  0  0  0  0  0  0
   41.4680   71.2340   61.4120 C   0  0  0  0  0  0  0  0  0  0  0  0
   41.5890   72.1410   60.4010 C   0  0  0  0  0  0  0  0  0  0  0  0
   41.4120   71.7130   59.0840 C   0  0  0  0  0  0  0  0  0  0  0  0
   41.1170   70.3800   58.8300 C   0  0  0  0  0  0  0  0  0  0  0  0
   40.9930   69.4590   59.8350 C   0  0  0  0  0  0  0  0  0  0  0  0
   41.1750   69.9200   61.1340 C   0  0  0  0  0  0  0  0  0  0  0  0
   41.6620   71.7680   62.6550 O   0  0  0  0  0  0  0  0  0  0  0  0
   41.0830   69.1170   62.2570 O   0  0  0  0  0  0  0  0  0  0  0  0
   40.0948   77.3145   61.6793 H   0  0  0  0  0  0  0  0  0  0  0  0
   39.1498   76.1296   60.6495 H   0  0  0  0  0  0  0  0  0  0  0  0
   39.6611   78.1129   56.2757 H   0  0  0  0  0  0  0  0  0  0  0  0
   39.8120   76.3504   57.9965 H   0  0  0  0  0  0  0  0  0  0  0  0
   39.0133   81.8720   59.4792 H   0  0  0  0  0  0  0  0  0  0  0  0
   43.1500   84.3480   61.4493 H   0  0  0  0  0  0  0  0  0  0  0  0
   43.5106   84.8542   63.8650 H   0  0  0  0  0  0  0  0  0  0  0  0
   41.6794   84.5215   65.4944 H   0  0  0  0  0  0  0  0  0  0  0  0
   39.4653   83.6815   64.7446 H   0  0  0  0  0  0  0  0  0  0  0  0
   42.8140   77.2954   60.6681 H   0  0  0  0  0  0  0  0  0  0  0  0
   44.5837   75.6332   60.5111 H   0  0  0  0  0  0  0  0  0  0  0  0
   44.0276   73.2078   60.3860 H   0  0  0  0  0  0  0  0  0  0  0  0
   41.5056   72.4272   58.2527 H   0  0  0  0  0  0  0  0  0  0  0  0
   40.9786   70.0540   57.7886 H   0  0  0  0  0  0  0  0  0  0  0  0
   40.7605   68.4046   59.6249 H   0  0  0  0  0  0  0  0  0  0  0  0
   41.5958   71.1916   63.4572 H   0  0  0  0  0  0  0  0  0  0  0  0
   41.2235   69.5059   63.1565 H   0  0  0  0  0  0  0  0  0  0  0  0
  2  7  2  0
  2  3  1  0
  3  4  2  0
  4  5  1  0
  4  1  1  0
  6 10  1  0
  6  5  2  0
  7  6  1  0
  8 11  1  0
  9  8  2  0
 10  8  1  0
 11 14  1  0
 12 13  1  0
 13 18  2  0
 14 15  2  0
 14 13  1  0
 15 16  1  0
 16 17  2  0
 18 17  1  0
 20 19  1  0
 20 21  2  0
 21  1  1  0
 22 21  1  0
 23 22  2  0
 24 25  2  0
 24 23  1  0
 25 20  1  0
 26 32  1  0
 27 25  1  0
 27 26  2  0
 28 27  1  0
 29 28  2  0
 29 30  1  0
 30 31  2  0
 31 26  1  0
 31 33  1  0
  1 34  1  0
  1 35  1  0
  2 36  1  0
  3 37  1  0
 10 38  1  0
 15 39  1  0
 16 40  1  0
 17 41  1  0
 18 42  1  0
 22 43  1  0
 23 44  1  0
 24 45  1  0
 28 46  1  0
 29 47  1  0
 30 48  1  0
 32 49  1  0
 33 50  1  0
M  END
>  <Score>  (1) 
-7.76057

>  <Score_dual>  (1) 
-8.78

>  <Choices>  (1) 
[None, 8, ['3-10', 0], 12, ['7-12', 15], 22, ['35-25', 330], 34, ['12-5', 345], 37, ['2-17', 255], 39, ['9-9', 105]]

$$$$
