
     RDKit          3D

 49 53  0  0  0  0  0  0  0  0999 V2000
   38.8900   78.1880   57.9840 Cl  0  0  0  0  0  0  0  0  0  0  0  0
   40.0680   77.5260   59.0790 C   0  0  0  0  0  0  0  0  0  0  0  0
   40.8820   78.3710   59.7930 C   0  0  0  0  0  0  0  0  0  0  0  0
   41.7950   77.7500   60.6560 C   0  0  0  0  0  0  0  0  0  0  0  0
   41.8750   76.3900   60.7840 C   0  0  0  0  0  0  0  0  0  0  0  0
   41.0410   75.5670   60.0500 C   0  0  0  0  0  0  0  0  0  0  0  0
   40.1350   76.1550   59.1950 C   0  0  0  0  0  0  0  0  0  0  0  0
   40.7140   73.3740   58.9750 C   0  0  0  0  0  0  0  0  0  0  0  0
   41.0420   74.0960   60.1110 C   0  0  0  0  0  0  0  0  0  0  0  0
   41.3430   73.3350   61.2130 C   0  0  0  0  0  0  0  0  0  0  0  0
   41.3210   71.9690   61.1850 C   0  0  0  0  0  0  0  0  0  0  0  0
   41.5660   71.0070   62.0920 N   0  0  0  0  0  0  0  0  0  0  0  0
   41.4090   69.7970   61.5770 N   0  0  0  0  0  0  0  0  0  0  0  0
   41.0480   69.9090   60.2910 C   0  0  0  0  0  0  0  0  0  0  0  0
   40.9940   71.2780   60.0480 C   0  0  0  0  0  0  0  0  0  0  0  0
   40.6840   71.9950   58.9180 C   0  0  0  0  0  0  0  0  0  0  0  0
   40.1250   81.7430   58.3350 C   0  0  0  0  0  0  0  0  0  0  0  0
   40.2770   80.3630   58.4650 C   0  0  0  0  0  0  0  0  0  0  0  0
   40.7380   79.7990   59.6240 C   0  0  0  0  0  0  0  0  0  0  0  0
   41.0590   80.6330   60.6780 N   0  0  0  0  0  0  0  0  0  0  0  0
   40.9110   81.9770   60.5450 C   0  0  0  0  0  0  0  0  0  0  0  0
   40.4480   82.5410   59.3910 N   0  0  0  0  0  0  0  0  0  0  0  0
   41.2440   82.9150   61.6520 C   0  0  0  0  0  0  0  0  0  0  0  0
   40.0700   83.1660   62.5790 C   0  0  0  0  0  0  0  0  0  0  0  0
   40.5390   83.5090   63.9750 C   0  0  0  0  0  0  0  0  0  0  0  0
   41.7550   84.3970   63.8450 C   0  0  0  0  0  0  0  0  0  0  0  0
   42.8950   83.5690   63.2970 C   0  0  0  0  0  0  0  0  0  0  0  0
   42.3560   82.3740   62.5250 C   0  0  0  0  0  0  0  0  0  0  0  0
   42.4722   78.3790   61.2524 H   0  0  0  0  0  0  0  0  0  0  0  0
   42.6078   75.9485   61.4755 H   0  0  0  0  0  0  0  0  0  0  0  0
   39.4589   75.5240   58.5995 H   0  0  0  0  0  0  0  0  0  0  0  0
   40.4620   73.9340   58.0623 H   0  0  0  0  0  0  0  0  0  0  0  0
   41.6113   73.8425   62.1514 H   0  0  0  0  0  0  0  0  0  0  0  0
   41.8419   71.1888   63.0676 H   0  0  0  0  0  0  0  0  0  0  0  0
   40.8395   69.0948   59.5813 H   0  0  0  0  0  0  0  0  0  0  0  0
   40.4165   71.4793   57.9839 H   0  0  0  0  0  0  0  0  0  0  0  0
   39.7511   82.1794   57.3970 H   0  0  0  0  0  0  0  0  0  0  0  0
   40.0204   79.7122   57.6161 H   0  0  0  0  0  0  0  0  0  0  0  0
   41.5421   83.8465   61.1485 H   0  0  0  0  0  0  0  0  0  0  0  0
   39.4742   84.0025   62.1850 H   0  0  0  0  0  0  0  0  0  0  0  0
   39.4646   82.2490   62.6305 H   0  0  0  0  0  0  0  0  0  0  0  0
   39.7433   84.0402   64.5178 H   0  0  0  0  0  0  0  0  0  0  0  0
   40.7871   82.5947   64.5340 H   0  0  0  0  0  0  0  0  0  0  0  0
   41.5362   85.2282   63.1585 H   0  0  0  0  0  0  0  0  0  0  0  0
   42.0270   84.8110   64.8271 H   0  0  0  0  0  0  0  0  0  0  0  0
   43.5044   84.1906   62.6245 H   0  0  0  0  0  0  0  0  0  0  0  0
   43.5090   83.2065   64.1347 H   0  0  0  0  0  0  0  0  0  0  0  0
   41.9641   81.6152   63.2182 H   0  0  0  0  0  0  0  0  0  0  0  0
   43.1421   81.8905   61.9264 H   0  0  0  0  0  0  0  0  0  0  0  0
  1  2  1  0
  2  7  2  0
  2  3  1  0
  3  4  2  0
  4  5  1  0
  6  9  1  0
  6  5  2  0
  7  6  1  0
  8  9  2  0
  9 10  1  0
 11 10  2  0
 11 12  1  0
 13 12  1  0
 14 13  2  0
 15 14  1  0
 15 11  1  0
 16  8  1  0
 16 15  2  0
 17 18  2  0
 17 22  1  0
 18 19  1  0
 19  3  1  0
 19 20  2  0
 21 20  1  0
 21 23  1  0
 22 21  2  0
 23 28  1  0
 23 24  1  0
 24 25  1  0
 26 25  1  0
 27 26  1  0
 28 27  1  0
  4 29  1  0
  5 30  1  0
  7 31  1  0
  8 32  1  0
 10 33  1  0
 12 34  1  0
 14 35  1  0
 16 36  1  0
 17 37  1  0
 18 38  1  0
 23 39  1  0
 24 40  1  0
 24 41  1  0
 25 42  1  0
 25 43  1  0
 26 44  1  0
 26 45  1  0
 27 46  1  0
 27 47  1  0
 28 48  1  0
 28 49  1  0
M  END
>  <Score>  (1) 
-7.13744

>  <Score_dual>  (1) 
-8.54

>  <Choices>  (1) 
[None, 8, ['7-18', 120], 18, ['54-9', 240], 32, ['18-25', 150]]

$$$$
