
     RDKit          3D

 53 57  0  0  1  0  0  0  0  0999 V2000
   40.6700   83.9220   60.7850 C   0  0  0  0  0  0  0  0  0  0  0  0
   40.4170   82.5520   60.5790 C   0  0  0  0  0  0  0  0  0  0  0  0
   40.3520   81.6670   61.6630 C   0  0  0  0  0  0  0  0  0  0  0  0
   40.5450   82.2110   62.8930 N   0  0  0  0  0  0  0  0  0  0  0  0
   40.7870   83.5240   63.0670 C   0  0  0  0  0  0  0  0  0  0  0  0
   40.8530   84.3990   62.0270 N   0  0  0  0  0  0  0  0  0  0  0  0
   40.7430   84.8640   59.6740 C   0  0  0  0  0  0  0  0  0  0  0  0
   39.5380   85.2550   59.1040 C   0  0  0  0  0  0  0  0  0  0  0  0
   39.4990   86.1550   58.0360 C   0  0  0  0  0  0  0  0  0  0  0  0
   40.6700   86.6580   57.5460 C   0  0  0  0  0  0  0  0  0  0  0  0
   41.8620   86.2820   58.0970 C   0  0  0  0  0  0  0  0  0  0  0  0
   41.8870   85.3790   59.1690 C   0  0  0  0  0  0  0  0  0  0  0  0
   43.2340   82.8180   58.2210 Cl  0  0  0  0  0  0  0  0  0  0  0  0
   43.9530   83.8900   59.4100 C   0  0  0  0  0  0  0  0  0  0  0  0
   43.1880   85.0140   59.7190 C   0  0  0  0  0  0  0  0  0  0  0  0
   43.7120   85.9100   60.6640 C   0  0  0  0  0  0  0  0  0  0  0  0
   44.9290   85.7030   61.2700 C   0  0  0  0  0  0  0  0  0  0  0  0
   45.6690   84.5830   60.9480 C   0  0  0  0  0  0  0  0  0  0  0  0
   45.1820   83.6770   60.0180 C   0  0  0  0  0  0  0  0  0  0  0  0
   41.0020   84.1380   64.4090 C   0  0  0  0  0  0  0  0  0  0  0  0
   40.1310   83.5830   65.3420 F   0  0  0  0  0  0  0  0  0  0  0  0
   40.6680   85.4860   64.3750 F   0  0  0  0  0  0  0  0  0  0  0  0
   42.3360   84.0170   64.7530 F   0  0  0  0  0  0  0  0  0  0  0  0
   40.0900   80.2220   61.4790 C   0  0  0  0  0  0  0  0  0  0  0  0
   41.2940   79.3960   61.3450 C   0  0  0  0  0  0  0  0  0  0  0  0
   41.5180   78.4730   62.2560 C   0  0  0  0  0  0  0  0  0  0  0  0
   42.6580   77.6490   62.1640 N   0  0  0  0  0  0  0  0  0  0  0  0
   43.7490   77.0270   62.8770 C   0  0  0  0  0  0  0  0  0  0  0  0
   43.9590   76.5950   64.0360 O   0  0  0  0  0  0  0  0  0  0  0  0
   44.5320   77.1210   61.6190 C   0  0  0  0  0  0  0  0  0  0  0  0
   43.1710   77.0290   60.9630 C   0  0  2  0  0  0  0  0  0  0  0  0
   42.9080   78.1210   59.5740 S   0  0  0  0  0  0  0  0  0  0  0  0
   42.1830   79.6640   60.1890 C   0  0  0  0  0  0  0  0  0  0  0  0
   40.6090   78.2650   63.3690 C   0  0  0  0  0  0  0  0  0  0  0  0
   40.9480   78.1910   64.5950 O   0  0  0  0  0  0  0  0  0  0  0  0
   39.4560   78.0660   64.0960 O   0  0  0  0  0  0  0  0  0  0  0  0
   40.2690   82.1731   59.5570 H   0  0  0  0  0  0  0  0  0  0  0  0
   38.5963   84.8482   59.5012 H   0  0  0  0  0  0  0  0  0  0  0  0
   38.5367   86.4547   57.5953 H   0  0  0  0  0  0  0  0  0  0  0  0
   40.6534   87.3676   56.7057 H   0  0  0  0  0  0  0  0  0  0  0  0
   42.8036   86.6883   57.6990 H   0  0  0  0  0  0  0  0  0  0  0  0
   43.1309   86.8059   60.9281 H   0  0  0  0  0  0  0  0  0  0  0  0
   45.3104   86.4254   62.0067 H   0  0  0  0  0  0  0  0  0  0  0  0
   46.6433   84.4095   61.4283 H   0  0  0  0  0  0  0  0  0  0  0  0
   45.7727   82.7853   59.7611 H   0  0  0  0  0  0  0  0  0  0  0  0
   39.5224   79.8625   62.3500 H   0  0  0  0  0  0  0  0  0  0  0  0
   39.5371   80.1232   60.5332 H   0  0  0  0  0  0  0  0  0  0  0  0
   45.0685   78.0689   61.4651 H   0  0  0  0  0  0  0  0  0  0  0  0
   45.3750   76.4586   61.3729 H   0  0  0  0  0  0  0  0  0  0  0  0
   42.8264   76.0735   60.5407 H   0  0  0  0  0  0  0  0  0  0  0  0
   42.9896   80.3431   60.5025 H   0  0  0  0  0  0  0  0  0  0  0  0
   41.5909   80.1242   59.3843 H   0  0  0  0  0  0  0  0  0  0  0  0
   39.5009   77.9778   65.0810 H   0  0  0  0  0  0  0  0  0  0  0  0
  1  6  1  0
  2  1  2  0
  2  3  1  0
  3  4  2  0
  4  5  1  0
  5 20  1  0
  6  5  2  0
  7  1  1  0
  8  7  2  0
  9  8  1  0
 10  9  2  0
 10 11  1  0
 11 12  2  0
 12  7  1  0
 12 15  1  0
 13 14  1  0
 14 15  2  0
 14 19  1  0
 15 16  1  0
 16 17  2  0
 18 17  1  0
 19 18  2  0
 20 23  1  0
 20 21  1  0
 22 20  1  0
 24  3  1  0
 25 24  1  0
 25 26  2  0
 26 34  1  0
 27 26  1  0
 27 28  1  0
 28 29  2  0
 30 28  1  0
 31 32  1  0
 31 30  1  0
 31 27  1  0
 32 33  1  0
 33 25  1  0
 34 36  1  0
 34 35  2  0
  2 37  1  0
  8 38  1  0
  9 39  1  0
 10 40  1  0
 11 41  1  0
 16 42  1  0
 17 43  1  0
 18 44  1  0
 19 45  1  0
 24 46  1  0
 24 47  1  0
 30 48  1  0
 30 49  1  0
 31 50  1  6
 33 51  1  0
 33 52  1  0
 36 53  1  0
M  END
>  <Score>  (1) 
-7.09443

>  <Score_dual>  (1) 
-7.76

>  <Choices>  (1) 
[None, 6, ['1-28', 270], 14, ['11-14', 45], 22, ['7-16', 0], 32, ['55-14', 195]]

$$$$
