
     RDKit          3D

 43 46  0  0  0  0  0  0  0  0999 V2000
   39.4900   77.6620   59.0130 C   0  0  0  0  0  0  0  0  0  0  0  0
   40.9040   79.9690   61.5860 C   0  0  0  0  0  0  0  0  0  0  0  0
   40.1500   79.4450   60.5680 C   0  0  0  0  0  0  0  0  0  0  0  0
   40.3270   78.1510   60.0970 C   0  0  0  0  0  0  0  0  0  0  0  0
   41.2880   77.4610   60.7130 N   0  0  0  0  0  0  0  0  0  0  0  0
   42.0310   77.9800   61.7170 C   0  0  0  0  0  0  0  0  0  0  0  0
   41.8340   79.2330   62.1490 N   0  0  0  0  0  0  0  0  0  0  0  0
   40.6220   81.3510   61.9960 C   0  0  0  0  0  0  0  0  0  0  0  0
   39.8360   82.2740   61.3410 C   0  0  0  0  0  0  0  0  0  0  0  0
   39.8970   83.4120   62.1340 C   0  0  0  0  0  0  0  0  0  0  0  0
   40.6590   83.1780   63.1780 N   0  0  0  0  0  0  0  0  0  0  0  0
   41.1120   81.9160   63.1070 N   0  0  0  0  0  0  0  0  0  0  0  0
   40.9670   84.1280   64.2410 C   0  0  0  0  0  0  0  0  0  0  0  0
   42.2290   83.9270   64.7560 F   0  0  0  0  0  0  0  0  0  0  0  0
   40.0100   84.0080   65.2650 F   0  0  0  0  0  0  0  0  0  0  0  0
   40.8350   85.4400   63.7900 F   0  0  0  0  0  0  0  0  0  0  0  0
   38.8690   76.3720   59.4360 C   0  0  0  0  0  0  0  0  0  0  0  0
   39.2590   75.1390   58.8250 C   0  0  0  0  0  0  0  0  0  0  0  0
   39.1420   74.7520   57.5170 C   0  0  0  0  0  0  0  0  0  0  0  0
   39.5350   73.5370   56.9870 C   0  0  0  0  0  0  0  0  0  0  0  0
   40.0840   72.6680   57.8780 N   0  0  0  0  0  0  0  0  0  0  0  0
   40.2120   73.0140   59.1630 C   0  0  0  0  0  0  0  0  0  0  0  0
   39.8160   74.2010   59.6210 N   0  0  0  0  0  0  0  0  0  0  0  0
   40.8150   72.0360   60.0890 C   0  0  0  0  0  0  0  0  0  0  0  0
   41.3910   72.4390   61.2760 C   0  0  0  0  0  0  0  0  0  0  0  0
   41.9440   71.4790   62.1120 C   0  0  0  0  0  0  0  0  0  0  0  0
   41.8710   70.1700   61.6800 C   0  0  0  0  0  0  0  0  0  0  0  0
   41.2950   69.7590   60.4940 C   0  0  0  0  0  0  0  0  0  0  0  0
   40.7760   70.7620   59.7300 N   0  0  0  0  0  0  0  0  0  0  0  0
   40.1038   77.5008   58.1145 H   0  0  0  0  0  0  0  0  0  0  0  0
   38.7064   78.3984   58.7815 H   0  0  0  0  0  0  0  0  0  0  0  0
   39.3747   80.0742   60.1064 H   0  0  0  0  0  0  0  0  0  0  0  0
   42.8106   77.3626   62.1871 H   0  0  0  0  0  0  0  0  0  0  0  0
   39.2833   82.1392   60.3995 H   0  0  0  0  0  0  0  0  0  0  0  0
   39.3862   84.3626   61.9209 H   0  0  0  0  0  0  0  0  0  0  0  0
   39.0677   76.2658   60.5127 H   0  0  0  0  0  0  0  0  0  0  0  0
   37.8235   76.4857   59.1134 H   0  0  0  0  0  0  0  0  0  0  0  0
   38.6927   75.4764   56.8218 H   0  0  0  0  0  0  0  0  0  0  0  0
   39.4126   73.2909   55.9219 H   0  0  0  0  0  0  0  0  0  0  0  0
   41.4116   73.5028   61.5551 H   0  0  0  0  0  0  0  0  0  0  0  0
   42.4158   71.7472   63.0688 H   0  0  0  0  0  0  0  0  0  0  0  0
   42.3045   69.3954   62.3297 H   0  0  0  0  0  0  0  0  0  0  0  0
   41.2578   68.7028   60.1889 H   0  0  0  0  0  0  0  0  0  0  0  0
  1 17  1  0
  1  4  1  0
  2  8  1  0
  2  7  1  0
  3  2  2  0
  4  3  1  0
  4  5  2  0
  5  6  1  0
  6  7  2  0
  8 12  2  0
  9  8  1  0
  9 10  2  0
 10 11  1  0
 11 13  1  0
 12 11  1  0
 13 14  1  0
 13 15  1  0
 16 13  1  0
 18 17  1  0
 18 23  1  0
 19 18  2  0
 20 19  1  0
 20 21  2  0
 21 22  1  0
 22 23  2  0
 22 24  1  0
 24 25  2  0
 25 26  1  0
 27 26  2  0
 28 27  1  0
 29 24  1  0
 29 28  2  0
  1 30  1  0
  1 31  1  0
  3 32  1  0
  6 33  1  0
  9 34  1  0
 10 35  1  0
 17 36  1  0
 17 37  1  0
 19 38  1  0
 20 39  1  0
 25 40  1  0
 26 41  1  0
 27 42  1  0
 28 43  1  0
M  END
>  <Score>  (1) 
-7.03014

>  <Score_dual>  (1) 
-7.09

>  <Choices>  (1) 
[None, 6, ['22-8', 120], 16, ['11-3', 255], 18, ['4-11', 330], 25, ['19-12', 285], 33, ['6-17', 345]]

$$$$
