
     RDKit          3D

 55 60  0  0  1  0  0  0  0  0999 V2000
   41.7740   84.2530   61.0900 N   0  0  0  0  0  0  0  0  0  0  0  0
   43.0360   84.1030   61.7890 C   0  0  0  0  0  0  0  0  0  0  0  0
   42.8480   83.3150   63.0630 C   0  0  0  0  0  0  0  0  0  0  0  0
   42.2040   82.0060   62.7480 C   0  0  0  0  0  0  0  0  0  0  0  0
   40.8280   82.2320   62.1200 C   0  0  1  0  0  0  0  0  0  0  0  0
   40.5980   83.5480   61.5350 C   0  0  0  0  0  0  0  0  0  0  0  0
   41.7450   85.1180   59.9540 C   0  0  0  0  0  0  0  0  0  0  0  0
   42.9460   85.7020   59.5600 C   0  0  0  0  0  0  0  0  0  0  0  0
   42.9080   86.5340   58.4460 C   0  0  0  0  0  0  0  0  0  0  0  0
   41.7400   86.7420   57.8020 N   0  0  0  0  0  0  0  0  0  0  0  0
   40.5950   86.1570   58.2160 C   0  0  0  0  0  0  0  0  0  0  0  0
   40.5650   85.3300   59.3010 N   0  0  0  0  0  0  0  0  0  0  0  0
   39.3840   86.4080   57.4950 N   0  0  0  0  0  0  0  0  0  0  0  0
   44.1280   87.1430   58.0250 N   0  0  0  0  0  0  0  0  0  0  0  0
   45.2890   86.5860   57.5950 C   0  0  0  0  0  0  0  0  0  0  0  0
   46.1290   87.6130   57.3210 N   0  0  0  0  0  0  0  0  0  0  0  0
   45.5090   88.7860   57.5720 C   0  0  0  0  0  0  0  0  0  0  0  0
   45.9950   90.0530   57.4320 C   0  0  1  0  0  0  0  0  0  0  0  0
   45.1790   91.0900   57.7510 N   0  0  0  0  0  0  0  0  0  0  0  0
   43.9300   90.8180   58.1910 C   0  0  0  0  0  0  0  0  0  0  0  0
   43.4700   89.5610   58.3230 N   0  0  0  0  0  0  0  0  0  0  0  0
   44.2460   88.4860   58.0170 C   0  0  0  0  0  0  0  0  0  0  0  0
   47.3110   90.3570   56.9680 N   0  0  0  0  0  0  0  0  0  0  0  0
   40.3340   81.2790   59.8320 C   0  0  0  0  0  0  0  0  0  0  0  0
   40.5600   81.0570   61.2140 C   0  0  0  0  0  0  0  0  0  0  0  0
   40.5310   79.7620   61.6840 C   0  0  0  0  0  0  0  0  0  0  0  0
   40.2900   78.7030   60.8340 C   0  0  0  0  0  0  0  0  0  0  0  0
   40.2160   77.3650   61.0690 N   0  0  0  0  0  0  0  0  0  0  0  0
   39.9470   76.7490   59.8670 C   0  0  0  0  0  0  0  0  0  0  0  0
   39.8580   77.7240   58.8900 N   0  0  0  0  0  0  0  0  0  0  0  0
   40.0700   78.9140   59.4920 C   0  0  0  0  0  0  0  0  0  0  0  0
   40.0890   80.2000   58.9700 C   0  0  0  0  0  0  0  0  0  0  0  0
   43.7486   83.5743   61.1389 H   0  0  0  0  0  0  0  0  0  0  0  0
   43.4211   85.1015   62.0434 H   0  0  0  0  0  0  0  0  0  0  0  0
   43.8269   83.1384   63.5327 H   0  0  0  0  0  0  0  0  0  0  0  0
   42.2068   83.8823   63.7537 H   0  0  0  0  0  0  0  0  0  0  0  0
   42.8384   81.4494   62.0425 H   0  0  0  0  0  0  0  0  0  0  0  0
   42.0839   81.4319   63.6786 H   0  0  0  0  0  0  0  0  0  0  0  0
   40.0690   82.2653   62.9155 H   0  0  0  0  0  0  0  0  0  0  0  0
   40.0979   84.1705   62.2916 H   0  0  0  0  0  0  0  0  0  0  0  0
   39.9968   83.3712   60.6310 H   0  0  0  0  0  0  0  0  0  0  0  0
   43.8827   85.5139   60.1052 H   0  0  0  0  0  0  0  0  0  0  0  0
   38.5032   85.9689   57.7989 H   0  0  0  0  0  0  0  0  0  0  0  0
   39.3934   87.0277   56.6723 H   0  0  0  0  0  0  0  0  0  0  0  0
   45.5051   85.5126   57.4898 H   0  0  0  0  0  0  0  0  0  0  0  0
   45.6236   90.0811   56.3970 H   0  0  0  0  0  0  0  0  0  0  0  0
   43.2656   91.6554   58.4506 H   0  0  0  0  0  0  0  0  0  0  0  0
   42.5097   89.4089   58.6630 H   0  0  0  0  0  0  0  0  0  0  0  0
   47.9348   90.5011   57.7749 H   0  0  0  0  0  0  0  0  0  0  0  0
   47.6630   89.5752   56.3972 H   0  0  0  0  0  0  0  0  0  0  0  0
   40.3509   82.3040   59.4333 H   0  0  0  0  0  0  0  0  0  0  0  0
   40.7027   79.5700   62.7534 H   0  0  0  0  0  0  0  0  0  0  0  0
   40.3387   76.8983   61.9790 H   0  0  0  0  0  0  0  0  0  0  0  0
   39.8240   75.6671   59.7107 H   0  0  0  0  0  0  0  0  0  0  0  0
   39.9147   80.3702   57.8973 H   0  0  0  0  0  0  0  0  0  0  0  0
  1  6  1  0
  1  2  1  0
  2  3  1  0
  4  3  1  0
  5  4  1  0
  6  5  1  0
  7  1  1  0
  8  7  2  0
  9  8  1  0
 10 11  1  0
 10  9  2  0
 11 12  2  0
 12  7  1  0
 13 11  1  0
 14  9  1  0
 15 14  1  0
 16 17  1  0
 16 15  2  0
 17 22  2  0
 18 23  1  0
 18 17  1  0
 18 19  1  0
 19 20  2  0
 20 21  1  0
 22 14  1  0
 22 21  1  0
 24 25  2  0
 25 26  1  0
 25  5  1  0
 27 28  1  0
 27 26  2  0
 29 28  1  0
 30 31  1  0
 30 29  2  0
 31 27  1  0
 32 31  2  0
 32 24  1  0
  2 33  1  0
  2 34  1  0
  3 35  1  0
  3 36  1  0
  4 37  1  0
  4 38  1  0
  5 39  1  1
  6 40  1  0
  6 41  1  0
  8 42  1  0
 13 43  1  0
 13 44  1  0
 15 45  1  0
 18 46  1  6
 20 47  1  0
 21 48  1  0
 23 49  1  0
 23 50  1  0
 24 51  1  0
 26 52  1  0
 28 53  1  0
 29 54  1  0
 32 55  1  0
M  END
>  <Score>  (1) 
-7.19168

>  <Score_dual>  (1) 
-8.95

>  <Choices>  (1) 
[None, 6, ['8-4', 120], 22, ['34-19', 210], 37, ['0-2', 0], 37, ['28-10', 165]]

$$$$
