
     RDKit          3D

 50 53  0  0  1  0  0  0  0  0999 V2000
   39.5670   75.8530   59.9380 C   0  0  2  0  0  0  0  0  0  0  0  0
   40.2180   77.1020   59.3460 C   0  0  1  0  0  0  0  0  0  0  0  0
   39.4550   77.6090   58.3800 O   0  0  0  0  0  0  0  0  0  0  0  0
   38.6380   76.7390   57.6870 C   0  0  0  0  0  0  0  0  0  0  0  0
   39.1910   75.3520   57.5590 C   0  0  1  0  0  0  0  0  0  0  0  0
   39.7310   74.7820   58.8300 C   0  0  1  0  0  0  0  0  0  0  0  0
   39.4110   79.8040   59.2260 F   0  0  0  0  0  0  0  0  0  0  0  0
   40.1520   79.4220   60.2990 C   0  0  0  0  0  0  0  0  0  0  0  0
   40.4360   80.3580   61.2320 C   0  0  0  0  0  0  0  0  0  0  0  0
   41.2050   79.9270   62.3070 C   0  0  0  0  0  0  0  0  0  0  0  0
   41.6370   78.6330   62.4010 C   0  0  0  0  0  0  0  0  0  0  0  0
   41.3330   77.6830   61.4300 C   0  0  0  0  0  0  0  0  0  0  0  0
   40.5780   78.1010   60.3670 C   0  0  0  0  0  0  0  0  0  0  0  0
   39.7790   83.7700   59.7480 C   0  0  0  0  0  0  0  0  0  0  0  0
   40.2240   82.4530   59.8970 C   0  0  0  0  0  0  0  0  0  0  0  0
   39.9720   81.7200   61.0770 C   0  0  0  0  0  0  0  0  0  0  0  0
   39.2830   82.3540   62.0450 N   0  0  0  0  0  0  0  0  0  0  0  0
   38.8630   83.6260   61.8780 C   0  0  0  0  0  0  0  0  0  0  0  0
   39.1030   84.3280   60.7520 N   0  0  0  0  0  0  0  0  0  0  0  0
   38.2800   76.1330   60.2030 O   0  0  0  0  0  0  0  0  0  0  0  0
   38.1590   74.5190   57.1260 O   0  0  0  0  0  0  0  0  0  0  0  0
   41.1330   74.6380   58.6620 O   0  0  0  0  0  0  0  0  0  0  0  0
   40.4050   72.7100   59.7340 C   0  0  1  0  0  0  0  0  0  0  0  0
   41.5870   73.4000   59.1070 C   0  0  1  0  0  0  0  0  0  0  0  0
   41.9960   72.7030   58.0060 O   0  0  0  0  0  0  0  0  0  0  0  0
   41.1280   71.6450   57.8000 C   0  0  0  0  0  0  0  0  0  0  0  0
   40.5130   71.3200   59.1430 C   0  0  1  0  0  0  0  0  0  0  0  0
   40.5560   72.6250   61.1310 O   0  0  0  0  0  0  0  0  0  0  0  0
   41.4290   70.5790   59.8570 O   0  0  0  0  0  0  0  0  0  0  0  0
   40.0112   75.5039   60.8818 H   0  0  0  0  0  0  0  0  0  0  0  0
   41.1742   76.7961   58.8964 H   0  0  0  0  0  0  0  0  0  0  0  0
   37.6730   76.6792   58.2116 H   0  0  0  0  0  0  0  0  0  0  0  0
   38.5424   77.1381   56.6664 H   0  0  0  0  0  0  0  0  0  0  0  0
   40.0331   75.4119   56.8538 H   0  0  0  0  0  0  0  0  0  0  0  0
   39.2247   73.8373   59.0772 H   0  0  0  0  0  0  0  0  0  0  0  0
   41.4717   80.6423   63.0990 H   0  0  0  0  0  0  0  0  0  0  0  0
   42.2425   78.3340   63.2693 H   0  0  0  0  0  0  0  0  0  0  0  0
   41.6834   76.6436   61.5129 H   0  0  0  0  0  0  0  0  0  0  0  0
   39.9819   84.3321   58.8245 H   0  0  0  0  0  0  0  0  0  0  0  0
   40.7825   81.9777   59.0772 H   0  0  0  0  0  0  0  0  0  0  0  0
   38.3030   84.1088   62.6924 H   0  0  0  0  0  0  0  0  0  0  0  0
   38.1438   76.1626   61.1831 H   0  0  0  0  0  0  0  0  0  0  0  0
   37.6895   74.1400   57.9109 H   0  0  0  0  0  0  0  0  0  0  0  0
   39.4505   73.2250   59.5502 H   0  0  0  0  0  0  0  0  0  0  0  0
   42.4131   73.4805   59.8288 H   0  0  0  0  0  0  0  0  0  0  0  0
   40.3442   71.9316   57.0834 H   0  0  0  0  0  0  0  0  0  0  0  0
   41.6569   70.7740   57.3857 H   0  0  0  0  0  0  0  0  0  0  0  0
   39.5678   70.7577   59.1235 H   0  0  0  0  0  0  0  0  0  0  0  0
   39.7842   73.0594   61.5734 H   0  0  0  0  0  0  0  0  0  0  0  0
   41.2723   70.7057   60.8263 H   0  0  0  0  0  0  0  0  0  0  0  0
  1 20  1  0
  2  1  1  0
  2 13  1  0
  3  2  1  0
  4  3  1  0
  5  4  1  0
  5  6  1  0
  6  1  1  0
  7  8  1  0
  8 13  2  0
  8  9  1  0
  9 10  2  0
 10 11  1  0
 12 11  2  0
 13 12  1  0
 14 15  2  0
 14 19  1  0
 15 16  1  0
 16  9  1  0
 16 17  2  0
 18 17  1  0
 19 18  2  0
 21  5  1  0
 22  6  1  0
 23 28  1  0
 24 22  1  0
 24 23  1  0
 25 24  1  0
 26 25  1  0
 26 27  1  0
 27 23  1  0
 27 29  1  0
  1 30  1  1
  2 31  1  6
  4 32  1  0
  4 33  1  0
  5 34  1  6
  6 35  1  1
 10 36  1  0
 11 37  1  0
 12 38  1  0
 14 39  1  0
 15 40  1  0
 18 41  1  0
 20 42  1  0
 21 43  1  0
 23 44  1  1
 24 45  1  1
 26 46  1  0
 26 47  1  0
 27 48  1  6
 28 49  1  0
 29 50  1  0
M  END
>  <Score>  (1) 
-7.11379

>  <Score_dual>  (1) 
-7.25

>  <Choices>  (1) 
[None, 8, ['9-19', 105], 19, ['21-23', 315], 36, ['14-5', 255]]

$$$$
