
     RDKit          3D

 48 52  0  0  0  0  0  0  0  0999 V2000
   40.5860   79.9120   54.6280 C   0  0  0  0  0  0  0  0  0  0  0  0
   41.3390   79.2860   53.6360 C   0  0  0  0  0  0  0  0  0  0  0  0
   40.5080   79.2250   52.4980 C   0  0  0  0  0  0  0  0  0  0  0  0
   39.3250   79.7930   52.8300 N   0  0  0  0  0  0  0  0  0  0  0  0
   39.3700   80.2020   54.0930 N   0  0  0  0  0  0  0  0  0  0  0  0
   38.1460   79.9700   52.0030 C   0  0  0  0  0  0  0  0  0  0  0  0
   38.5610   81.0160   50.9470 C   0  0  0  0  0  0  0  0  0  0  0  0
   37.5230   81.9710   48.8980 C   0  0  0  0  0  0  0  0  0  0  0  0
   37.3900   81.1330   50.0100 C   0  0  0  0  0  0  0  0  0  0  0  0
   36.1900   80.4720   50.1640 C   0  0  0  0  0  0  0  0  0  0  0  0
   35.1750   80.6470   49.2450 C   0  0  0  0  0  0  0  0  0  0  0  0
   33.9320   80.1300   49.1660 N   0  0  0  0  0  0  0  0  0  0  0  0
   33.3350   80.6160   48.0780 N   0  0  0  0  0  0  0  0  0  0  0  0
   34.1590   81.4470   47.4330 C   0  0  0  0  0  0  0  0  0  0  0  0
   35.3330   81.4920   48.1410 C   0  0  0  0  0  0  0  0  0  0  0  0
   36.5240   82.1630   47.9660 C   0  0  0  0  0  0  0  0  0  0  0  0
   41.2100   80.0820   55.8460 O   0  0  0  0  0  0  0  0  0  0  0  0
   40.6520   81.4800   57.7060 C   0  0  0  0  0  0  0  0  0  0  0  0
   40.7000   82.6790   58.4210 C   0  0  0  0  0  0  0  0  0  0  0  0
   41.4490   83.6740   57.8240 C   0  0  0  0  0  0  0  0  0  0  0  0
   42.1120   83.5270   56.6170 C   0  0  0  0  0  0  0  0  0  0  0  0
   42.0290   82.3050   55.9450 C   0  0  0  0  0  0  0  0  0  0  0  0
   41.2810   81.2820   56.5230 C   0  0  0  0  0  0  0  0  0  0  0  0
   39.4580   84.1970   59.8710 C   0  0  0  0  0  0  0  0  0  0  0  0
   40.0880   82.9850   59.6490 C   0  0  0  0  0  0  0  0  0  0  0  0
   40.0920   82.0550   60.7150 C   0  0  0  0  0  0  0  0  0  0  0  0
   39.4820   82.4160   61.8780 N   0  0  0  0  0  0  0  0  0  0  0  0
   38.8850   83.5940   62.0560 C   0  0  0  0  0  0  0  0  0  0  0  0
   38.8630   84.5070   61.0510 N   0  0  0  0  0  0  0  0  0  0  0  0
   39.8970   80.4740   58.3050 O   0  0  0  0  0  0  0  0  0  0  0  0
   42.3709   78.9152   53.7230 H   0  0  0  0  0  0  0  0  0  0  0  0
   40.7725   78.7950   51.5207 H   0  0  0  0  0  0  0  0  0  0  0  0
   37.8649   79.0223   51.5205 H   0  0  0  0  0  0  0  0  0  0  0  0
   37.2723   80.2934   52.5879 H   0  0  0  0  0  0  0  0  0  0  0  0
   38.7672   81.9843   51.4264 H   0  0  0  0  0  0  0  0  0  0  0  0
   39.4775   80.7173   50.4171 H   0  0  0  0  0  0  0  0  0  0  0  0
   38.4745   82.5052   48.7592 H   0  0  0  0  0  0  0  0  0  0  0  0
   36.0406   79.8019   51.0234 H   0  0  0  0  0  0  0  0  0  0  0  0
   33.5133   79.4689   49.8357 H   0  0  0  0  0  0  0  0  0  0  0  0
   33.9368   81.9943   46.5050 H   0  0  0  0  0  0  0  0  0  0  0  0
   36.6740   82.8333   47.1068 H   0  0  0  0  0  0  0  0  0  0  0  0
   41.5236   84.6431   58.3390 H   0  0  0  0  0  0  0  0  0  0  0  0
   42.6945   84.3589   56.1943 H   0  0  0  0  0  0  0  0  0  0  0  0
   42.5416   82.1545   54.9834 H   0  0  0  0  0  0  0  0  0  0  0  0
   39.4386   84.9387   59.0589 H   0  0  0  0  0  0  0  0  0  0  0  0
   40.5726   81.0714   60.6080 H   0  0  0  0  0  0  0  0  0  0  0  0
   38.4087   83.8275   63.0197 H   0  0  0  0  0  0  0  0  0  0  0  0
   39.8103   79.5915   57.8648 H   0  0  0  0  0  0  0  0  0  0  0  0
  1 17  1  0
  2  1  1  0
  3  4  1  0
  3  2  2  0
  4  5  1  0
  5  1  2  0
  6  4  1  0
  7  6  1  0
  8  9  2  0
  9 10  1  0
  9  7  1  0
 11 10  2  0
 12 11  1  0
 13 12  1  0
 14 13  2  0
 14 15  1  0
 15 11  1  0
 16 15  2  0
 16  8  1  0
 17 23  1  0
 18 30  1  0
 18 19  2  0
 19 25  1  0
 20 19  1  0
 21 20  2  0
 22 23  2  0
 22 21  1  0
 23 18  1  0
 24 29  2  0
 25 24  1  0
 25 26  2  0
 26 27  1  0
 27 28  2  0
 29 28  1  0
  2 31  1  0
  3 32  1  0
  6 33  1  0
  6 34  1  0
  7 35  1  0
  7 36  1  0
  8 37  1  0
 10 38  1  0
 12 39  1  0
 14 40  1  0
 16 41  1  0
 20 42  1  0
 21 43  1  0
 22 44  1  0
 24 45  1  0
 26 46  1  0
 28 47  1  0
 30 48  1  0
M  END
>  <Score>  (1) 
-7.22366

>  <Score_dual>  (1) 
-7.94

>  <Choices>  (1) 
[None, 7, ['35-27', 225], 21, ['22-11', 270], 28, ['4-2', 150], 34, ['54-8', 135]]

$$$$
