
     RDKit          3D

 46 50  0  0  0  0  0  0  0  0999 V2000
   40.9500   83.7650   60.5310 C   0  0  0  0  0  0  0  0  0  0  0  0
   41.2690   82.4040   60.6040 C   0  0  0  0  0  0  0  0  0  0  0  0
   40.4950   81.5190   61.3450 C   0  0  0  0  0  0  0  0  0  0  0  0
   39.4160   82.0400   61.9930 N   0  0  0  0  0  0  0  0  0  0  0  0
   39.0960   83.3420   61.9340 C   0  0  0  0  0  0  0  0  0  0  0  0
   39.8540   84.1870   61.2120 N   0  0  0  0  0  0  0  0  0  0  0  0
   41.6100   84.8040   59.8200 C   0  0  0  0  0  0  0  0  0  0  0  0
   41.0250   85.2000   58.6050 C   0  0  0  0  0  0  0  0  0  0  0  0
   41.5250   86.1970   57.7740 C   0  0  0  0  0  0  0  0  0  0  0  0
   42.6610   86.8450   58.1510 C   0  0  0  0  0  0  0  0  0  0  0  0
   43.2760   86.5080   59.3180 C   0  0  0  0  0  0  0  0  0  0  0  0
   44.4380   87.1540   59.7240 C   0  0  0  0  0  0  0  0  0  0  0  0
   45.1110   86.8630   60.8900 C   0  0  0  0  0  0  0  0  0  0  0  0
   44.5310   85.8510   61.6500 C   0  0  0  0  0  0  0  0  0  0  0  0
   43.3910   85.2070   61.2660 C   0  0  0  0  0  0  0  0  0  0  0  0
   42.7500   85.5230   60.1020 C   0  0  0  0  0  0  0  0  0  0  0  0
   40.8650   80.1530   61.3780 C   0  0  0  0  0  0  0  0  0  0  0  0
   41.5800   79.6050   62.2560 O   0  0  0  0  0  0  0  0  0  0  0  0
   40.0440   77.7060   62.2590 F   0  0  0  0  0  0  0  0  0  0  0  0
   40.0390   77.9830   60.9270 C   0  0  0  0  0  0  0  0  0  0  0  0
   40.4320   79.1880   60.3460 C   0  0  0  0  0  0  0  0  0  0  0  0
   40.3820   79.3420   58.9950 C   0  0  0  0  0  0  0  0  0  0  0  0
   39.9460   78.3120   58.2260 C   0  0  0  0  0  0  0  0  0  0  0  0
   39.5480   77.1020   58.7730 C   0  0  0  0  0  0  0  0  0  0  0  0
   39.5960   76.9360   60.1370 C   0  0  0  0  0  0  0  0  0  0  0  0
   39.1200   76.1390   57.7740 C   0  0  0  0  0  0  0  0  0  0  0  0
   38.2760   76.5610   56.6310 C   0  0  0  0  0  0  0  0  0  0  0  0
   37.9980   75.0600   55.6730 S   0  0  0  0  0  0  0  0  0  0  0  0
   39.0360   74.0640   56.9120 C   0  0  0  0  0  0  0  0  0  0  0  0
   39.3390   74.8520   57.6540 N   0  0  0  0  0  0  0  0  0  0  0  0
   39.1870   75.6930   60.6960 N   0  0  0  0  0  0  0  0  0  0  0  0
   42.1502   82.0273   60.0639 H   0  0  0  0  0  0  0  0  0  0  0  0
   38.2152   83.7177   62.4752 H   0  0  0  0  0  0  0  0  0  0  0  0
   40.1061   84.6847   58.2887 H   0  0  0  0  0  0  0  0  0  0  0  0
   41.0145   86.4556   56.8346 H   0  0  0  0  0  0  0  0  0  0  0  0
   43.0808   87.6383   57.5150 H   0  0  0  0  0  0  0  0  0  0  0  0
   44.8441   87.9444   59.0757 H   0  0  0  0  0  0  0  0  0  0  0  0
   46.0293   87.3861   61.1950 H   0  0  0  0  0  0  0  0  0  0  0  0
   45.0101   85.5594   62.5963 H   0  0  0  0  0  0  0  0  0  0  0  0
   42.9787   84.4151   61.9086 H   0  0  0  0  0  0  0  0  0  0  0  0
   40.6914   80.2903   58.5313 H   0  0  0  0  0  0  0  0  0  0  0  0
   39.9073   78.4415   57.1343 H   0  0  0  0  0  0  0  0  0  0  0  0
   37.9004   77.5719   56.4143 H   0  0  0  0  0  0  0  0  0  0  0  0
   39.2786   72.9911   56.9054 H   0  0  0  0  0  0  0  0  0  0  0  0
   39.2168   75.5523   61.7159 H   0  0  0  0  0  0  0  0  0  0  0  0
   38.8611   74.9340   60.0807 H   0  0  0  0  0  0  0  0  0  0  0  0
  1  2  2  0
  1  6  1  0
  2  3  1  0
  3 17  1  0
  3  4  2  0
  5  4  1  0
  6  5  2  0
  7 16  1  0
  7  1  1  0
  8  7  2  0
  9 10  2  0
  9  8  1  0
 10 11  1  0
 11 12  1  0
 11 16  2  0
 12 13  2  0
 13 14  1  0
 15 14  2  0
 16 15  1  0
 17 18  2  0
 20 19  1  0
 21 20  2  0
 21 17  1  0
 22 21  1  0
 23 24  1  0
 23 22  2  0
 24 25  2  0
 25 31  1  0
 25 20  1  0
 26 24  1  0
 27 26  2  0
 28 27  1  0
 28 29  1  0
 29 30  2  0
 30 26  1  0
  2 32  1  0
  5 33  1  0
  8 34  1  0
  9 35  1  0
 10 36  1  0
 12 37  1  0
 13 38  1  0
 14 39  1  0
 15 40  1  0
 22 41  1  0
 23 42  1  0
 27 43  1  0
 29 44  1  0
 31 45  1  0
 31 46  1  0
M  END
>  <Score>  (1) 
-7.22704

>  <Score_dual>  (1) 
-8.22

>  <Choices>  (1) 
[None, 8, ['5-9', 180], 8, ['26-25', 345], 27, ['9-4', 240], 37, ['0-3', 0], 37, ['33-19', 135]]

$$$$
