
     RDKit          3D

 50 54  0  0  1  0  0  0  0  0999 V2000
   39.4700   84.8940   59.5220 C   0  0  0  0  0  0  0  0  0  0  0  0
   39.2060   85.6600   58.3920 C   0  0  0  0  0  0  0  0  0  0  0  0
   40.2770   86.3400   57.8130 C   0  0  0  0  0  0  0  0  0  0  0  0
   41.4800   86.1880   58.4100 N   0  0  0  0  0  0  0  0  0  0  0  0
   41.7180   85.4540   59.4870 C   0  0  0  0  0  0  0  0  0  0  0  0
   40.7090   84.8120   60.0350 N   0  0  0  0  0  0  0  0  0  0  0  0
   43.0350   85.4000   59.9860 N   0  0  0  0  0  0  0  0  0  0  0  0
   43.7800   86.6350   60.1110 C   0  0  1  0  0  0  0  0  0  0  0  0
   44.9180   86.5560   61.0890 C   0  0  0  0  0  0  0  0  0  0  0  0
   44.9110   85.3640   61.8640 N   0  0  0  0  0  0  0  0  0  0  0  0
   44.9520   84.2490   60.9650 C   0  0  0  0  0  0  0  0  0  0  0  0
   43.5680   84.1040   60.3480 C   0  0  1  0  0  0  0  0  0  0  0  0
   42.5060   81.6740   59.2760 F   0  0  0  0  0  0  0  0  0  0  0  0
   42.1980   82.0880   60.5430 C   0  0  0  0  0  0  0  0  0  0  0  0
   42.6780   83.2570   61.1320 C   0  0  0  0  0  0  0  0  0  0  0  0
   42.2900   83.5580   62.4180 C   0  0  0  0  0  0  0  0  0  0  0  0
   41.4570   82.7750   63.1630 C   0  0  0  0  0  0  0  0  0  0  0  0
   40.9880   81.6200   62.5730 C   0  0  0  0  0  0  0  0  0  0  0  0
   41.3500   81.2740   61.2790 C   0  0  0  0  0  0  0  0  0  0  0  0
   40.3930   80.0270   59.4200 C   0  0  0  0  0  0  0  0  0  0  0  0
   40.8030   80.0270   60.7330 C   0  0  0  0  0  0  0  0  0  0  0  0
   40.7090   78.9000   61.5270 C   0  0  0  0  0  0  0  0  0  0  0  0
   40.2000   77.7350   61.0230 C   0  0  0  0  0  0  0  0  0  0  0  0
   40.0030   76.5100   61.5800 N   0  0  0  0  0  0  0  0  0  0  0  0
   39.4640   75.7240   60.6140 C   0  0  0  0  0  0  0  0  0  0  0  0
   39.3300   76.4480   59.4830 N   0  0  0  0  0  0  0  0  0  0  0  0
   39.7770   77.7070   59.6960 C   0  0  0  0  0  0  0  0  0  0  0  0
   39.8730   78.8480   58.8990 C   0  0  0  0  0  0  0  0  0  0  0  0
   44.3160   87.1570   58.7760 C   0  0  0  0  0  0  0  0  0  0  0  0
   45.5380   87.7990   58.8990 F   0  0  0  0  0  0  0  0  0  0  0  0
   44.2660   86.2390   57.7450 F   0  0  0  0  0  0  0  0  0  0  0  0
   43.4010   88.1390   58.3700 F   0  0  0  0  0  0  0  0  0  0  0  0
   38.6486   84.3446   60.0052 H   0  0  0  0  0  0  0  0  0  0  0  0
   38.1919   85.7270   57.9712 H   0  0  0  0  0  0  0  0  0  0  0  0
   40.1495   86.9667   56.9180 H   0  0  0  0  0  0  0  0  0  0  0  0
   43.0343   87.3450   60.4981 H   0  0  0  0  0  0  0  0  0  0  0  0
   45.8636   86.6030   60.5290 H   0  0  0  0  0  0  0  0  0  0  0  0
   44.8075   87.3992   61.7867 H   0  0  0  0  0  0  0  0  0  0  0  0
   45.7346   85.3446   62.4823 H   0  0  0  0  0  0  0  0  0  0  0  0
   45.6971   84.4303   60.1764 H   0  0  0  0  0  0  0  0  0  0  0  0
   45.2341   83.3308   61.5010 H   0  0  0  0  0  0  0  0  0  0  0  0
   43.6629   83.5465   59.4045 H   0  0  0  0  0  0  0  0  0  0  0  0
   42.6739   84.4837   62.8715 H   0  0  0  0  0  0  0  0  0  0  0  0
   41.1722   83.0527   64.1886 H   0  0  0  0  0  0  0  0  0  0  0  0
   40.3140   80.9604   63.1392 H   0  0  0  0  0  0  0  0  0  0  0  0
   40.4742   80.9327   58.8010 H   0  0  0  0  0  0  0  0  0  0  0  0
   41.0464   78.9402   62.5732 H   0  0  0  0  0  0  0  0  0  0  0  0
   40.2208   76.2326   62.5477 H   0  0  0  0  0  0  0  0  0  0  0  0
   39.1819   74.6675   60.7335 H   0  0  0  0  0  0  0  0  0  0  0  0
   39.5353   78.8144   57.8526 H   0  0  0  0  0  0  0  0  0  0  0  0
  1  6  2  0
  2  1  1  0
  3  2  2  0
  3  4  1  0
  4  5  2  0
  5  7  1  0
  5  6  1  0
  7  8  1  0
  7 12  1  0
  8  9  1  0
  9 10  1  0
 11 10  1  0
 12 11  1  0
 12 15  1  0
 13 14  1  0
 14 15  2  0
 14 19  1  0
 15 16  1  0
 16 17  2  0
 18 17  1  0
 19 18  2  0
 20 21  2  0
 21 19  1  0
 21 22  1  0
 23 22  2  0
 23 24  1  0
 25 24  1  0
 26 27  1  0
 26 25  2  0
 27 23  1  0
 28 20  1  0
 28 27  2  0
 29 30  1  0
 29  8  1  0
 31 29  1  0
 32 29  1  0
  1 33  1  0
  2 34  1  0
  3 35  1  0
  8 36  1  1
  9 37  1  0
  9 38  1  0
 10 39  1  0
 11 40  1  0
 11 41  1  0
 12 42  1  6
 16 43  1  0
 17 44  1  0
 18 45  1  0
 20 46  1  0
 22 47  1  0
 24 48  1  0
 25 49  1  0
 28 50  1  0
M  END
>  <Score>  (1) 
-7.56451

>  <Score_dual>  (1) 
-7.33

>  <Choices>  (1) 
[None, 9, ['15-7', 45], 16, ['11-13', 300], 26, ['9-15', 30], 36, ['34-20', 30]]

$$$$
