
     RDKit          3D

 50 54  0  0  1  0  0  0  0  0999 V2000
   41.0550   82.1010   59.5220 C   0  0  0  0  0  0  0  0  0  0  0  0
   40.2930   83.2110   60.0840 C   0  0  1  0  0  0  0  0  0  0  0  0
   40.8480   83.5840   61.4510 C   0  0  0  0  0  0  0  0  0  0  0  0
   42.0780   84.0070   61.7190 C   0  0  0  0  0  0  0  0  0  0  0  0
   42.4970   84.3100   63.0050 C   0  0  0  0  0  0  0  0  0  0  0  0
   41.6440   84.1840   64.0730 C   0  0  0  0  0  0  0  0  0  0  0  0
   40.3710   83.7530   63.8380 C   0  0  0  0  0  0  0  0  0  0  0  0
   40.0120   83.4700   62.5650 C   0  0  0  0  0  0  0  0  0  0  0  0
   40.1660   84.3690   59.2700 C   0  0  0  0  0  0  0  0  0  0  0  0
   41.1790   84.6330   58.2920 C   0  0  0  0  0  0  0  0  0  0  0  0
   41.0720   85.7670   57.4950 C   0  0  0  0  0  0  0  0  0  0  0  0
   39.9830   86.5610   57.7100 N   0  0  0  0  0  0  0  0  0  0  0  0
   39.0560   86.2970   58.6220 C   0  0  0  0  0  0  0  0  0  0  0  0
   39.1810   85.2040   59.3750 N   0  0  0  0  0  0  0  0  0  0  0  0
   40.3700   80.9140   59.7880 O   0  0  0  0  0  0  0  0  0  0  0  0
   39.7840   78.3460   58.5610 Cl  0  0  0  0  0  0  0  0  0  0  0  0
   40.1890   78.7200   60.2260 C   0  0  0  0  0  0  0  0  0  0  0  0
   40.4620   79.9920   60.7510 C   0  0  0  0  0  0  0  0  0  0  0  0
   40.7560   80.0410   62.0860 C   0  0  0  0  0  0  0  0  0  0  0  0
   40.7950   78.9430   62.9050 C   0  0  0  0  0  0  0  0  0  0  0  0
   40.5300   77.7190   62.3890 C   0  0  0  0  0  0  0  0  0  0  0  0
   40.2260   77.5900   61.0520 C   0  0  0  0  0  0  0  0  0  0  0  0
   38.7410   75.6160   60.3800 C   0  0  0  0  0  0  0  0  0  0  0  0
   39.9590   76.2260   60.6010 C   0  0  0  0  0  0  0  0  0  0  0  0
   41.0860   75.4310   60.3620 C   0  0  0  0  0  0  0  0  0  0  0  0
   41.0590   74.1220   59.9350 C   0  0  0  0  0  0  0  0  0  0  0  0
   41.9890   73.2140   59.6560 N   0  0  0  0  0  0  0  0  0  0  0  0
   41.3760   72.0780   59.2750 C   0  0  0  0  0  0  0  0  0  0  0  0
   40.0260   72.2750   59.3150 N   0  0  0  0  0  0  0  0  0  0  0  0
   39.8250   73.5490   59.7270 C   0  0  0  0  0  0  0  0  0  0  0  0
   38.6940   74.3050   59.9530 C   0  0  0  0  0  0  0  0  0  0  0  0
   42.0530   82.0649   59.9832 H   0  0  0  0  0  0  0  0  0  0  0  0
   41.1703   82.2345   58.4362 H   0  0  0  0  0  0  0  0  0  0  0  0
   39.2656   82.8257   60.1609 H   0  0  0  0  0  0  0  0  0  0  0  0
   42.7911   84.1212   60.8892 H   0  0  0  0  0  0  0  0  0  0  0  0
   43.5276   84.6563   63.1721 H   0  0  0  0  0  0  0  0  0  0  0  0
   41.9784   84.4245   65.0930 H   0  0  0  0  0  0  0  0  0  0  0  0
   39.6538   83.6384   64.6641 H   0  0  0  0  0  0  0  0  0  0  0  0
   38.9823   83.1233   62.3933 H   0  0  0  0  0  0  0  0  0  0  0  0
   42.0307   83.9471   58.1732 H   0  0  0  0  0  0  0  0  0  0  0  0
   41.8252   86.0114   56.7315 H   0  0  0  0  0  0  0  0  0  0  0  0
   38.1965   86.9705   58.7548 H   0  0  0  0  0  0  0  0  0  0  0  0
   40.9748   81.0233   62.5300 H   0  0  0  0  0  0  0  0  0  0  0  0
   41.0393   79.0546   63.9717 H   0  0  0  0  0  0  0  0  0  0  0  0
   40.5575   76.8301   63.0364 H   0  0  0  0  0  0  0  0  0  0  0  0
   37.8079   76.1749   60.5443 H   0  0  0  0  0  0  0  0  0  0  0  0
   42.0724   75.8885   60.5286 H   0  0  0  0  0  0  0  0  0  0  0  0
   43.0071   73.3559   59.7205 H   0  0  0  0  0  0  0  0  0  0  0  0
   41.8795   71.1455   58.9803 H   0  0  0  0  0  0  0  0  0  0  0  0
   37.7104   73.8420   59.7853 H   0  0  0  0  0  0  0  0  0  0  0  0
  1 15  1  0
  1  2  1  0
  2  3  1  0
  3  4  2  0
  3  8  1  0
  4  5  1  0
  5  6  2  0
  7  6  1  0
  8  7  2  0
  9 14  1  0
  9  2  1  0
 10  9  2  0
 11 12  2  0
 11 10  1  0
 12 13  1  0
 13 14  2  0
 15 18  1  0
 16 17  1  0
 17 18  2  0
 17 22  1  0
 18 19  1  0
 19 20  2  0
 21 20  1  0
 22 21  2  0
 23 24  2  0
 24 22  1  0
 25 24  1  0
 26 25  2  0
 27 26  1  0
 28 29  2  0
 28 27  1  0
 29 30  1  0
 30 26  1  0
 30 31  2  0
 31 23  1  0
  1 32  1  0
  1 33  1  0
  2 34  1  1
  4 35  1  0
  5 36  1  0
  6 37  1  0
  7 38  1  0
  8 39  1  0
 10 40  1  0
 11 41  1  0
 13 42  1  0
 19 43  1  0
 20 44  1  0
 21 45  1  0
 23 46  1  0
 25 47  1  0
 27 48  1  0
 28 49  1  0
 31 50  1  0
M  END
>  <Score>  (1) 
-7.24602

>  <Score_dual>  (1) 
-7.43

>  <Choices>  (1) 
[None, 6, ['4-12', 180], 12, ['1-22', 45], 25, ['2-1', 0], 26, ['7-11', 270], 36, ['34-25', 285]]

$$$$
