
     RDKit          3D

 49 53  0  0  1  0  0  0  0  0999 V2000
   42.2710   81.9560   61.6670 N   0  0  0  0  0  0  0  0  0  0  0  0
   42.6510   82.9780   60.8480 C   0  0  0  0  0  0  0  0  0  0  0  0
   41.7640   83.9350   60.3990 C   0  0  0  0  0  0  0  0  0  0  0  0
   40.4440   83.8130   60.8230 C   0  0  0  0  0  0  0  0  0  0  0  0
   39.4620   84.7650   60.4020 N   0  0  0  0  0  0  0  0  0  0  0  0
   40.1120   82.7930   61.6290 N   0  0  0  0  0  0  0  0  0  0  0  0
   40.9960   81.8660   62.0580 C   0  0  0  0  0  0  0  0  0  0  0  0
   40.7450   80.8960   62.8080 O   0  0  0  0  0  0  0  0  0  0  0  0
   42.1550   85.0030   59.5440 N   0  0  0  0  0  0  0  0  0  0  0  0
   41.7590   85.2170   58.2720 C   0  0  0  0  0  0  0  0  0  0  0  0
   42.3690   86.3270   57.8590 N   0  0  0  0  0  0  0  0  0  0  0  0
   43.1310   86.7940   58.8500 C   0  0  0  0  0  0  0  0  0  0  0  0
   43.9150   87.9210   58.8060 C   0  0  1  0  0  0  0  0  0  0  0  0
   44.6200   88.2370   59.9200 N   0  0  0  0  0  0  0  0  0  0  0  0
   44.5020   87.4130   61.0020 C   0  0  0  0  0  0  0  0  0  0  0  0
   43.7220   86.3070   61.0220 N   0  0  0  0  0  0  0  0  0  0  0  0
   43.0160   85.9670   59.9470 C   0  0  0  0  0  0  0  0  0  0  0  0
   44.0160   88.7600   57.6580 N   0  0  0  0  0  0  0  0  0  0  0  0
   43.3460   81.0840   62.0080 C   0  0  0  0  0  0  0  0  0  0  0  0
   44.4440   81.7750   62.5240 C   0  0  0  0  0  0  0  0  0  0  0  0
   45.5650   81.0470   62.8920 C   0  0  0  0  0  0  0  0  0  0  0  0
   45.5560   79.6930   62.7390 N   0  0  0  0  0  0  0  0  0  0  0  0
   44.4720   79.0380   62.2330 C   0  0  0  0  0  0  0  0  0  0  0  0
   43.3680   79.7320   61.8680 N   0  0  0  0  0  0  0  0  0  0  0  0
   47.8470   81.9720   62.4610 C   0  0  1  0  0  0  0  0  0  0  0  0
   46.7860   81.6970   63.4660 C   0  0  2  0  0  0  0  0  0  0  0  0
   47.2940   80.9330   64.4900 O   0  0  0  0  0  0  0  0  0  0  0  0
   48.5810   80.5480   64.2090 C   0  0  0  0  0  0  0  0  0  0  0  0
   49.0450   81.2120   62.9560 C   0  0  1  0  0  0  0  0  0  0  0  0
   47.5240   81.6170   61.1600 O   0  0  0  0  0  0  0  0  0  0  0  0
   49.5560   80.3290   62.0400 O   0  0  0  0  0  0  0  0  0  0  0  0
   43.7032   83.0419   60.5337 H   0  0  0  0  0  0  0  0  0  0  0  0
   38.4860   84.6719   60.7176 H   0  0  0  0  0  0  0  0  0  0  0  0
   39.7312   85.5433   59.7834 H   0  0  0  0  0  0  0  0  0  0  0  0
   41.0654   84.5943   57.6879 H   0  0  0  0  0  0  0  0  0  0  0  0
   43.0701   88.5230   59.1717 H   0  0  0  0  0  0  0  0  0  0  0  0
   45.0730   87.6619   61.9087 H   0  0  0  0  0  0  0  0  0  0  0  0
   43.6749   85.7270   61.8719 H   0  0  0  0  0  0  0  0  0  0  0  0
   44.1338   89.7385   57.9572 H   0  0  0  0  0  0  0  0  0  0  0  0
   44.8286   88.4733   57.0937 H   0  0  0  0  0  0  0  0  0  0  0  0
   44.4202   82.8691   62.6357 H   0  0  0  0  0  0  0  0  0  0  0  0
   44.4946   77.9439   62.1212 H   0  0  0  0  0  0  0  0  0  0  0  0
   48.0177   83.0560   62.3842 H   0  0  0  0  0  0  0  0  0  0  0  0
   46.4605   82.6757   63.8483 H   0  0  0  0  0  0  0  0  0  0  0  0
   49.2390   80.8383   65.0413 H   0  0  0  0  0  0  0  0  0  0  0  0
   48.6125   79.4567   64.0748 H   0  0  0  0  0  0  0  0  0  0  0  0
   49.8950   81.8860   63.1383 H   0  0  0  0  0  0  0  0  0  0  0  0
   46.8578   80.8848   61.1735 H   0  0  0  0  0  0  0  0  0  0  0  0
   49.9913   79.5768   62.5140 H   0  0  0  0  0  0  0  0  0  0  0  0
  1 19  1  0
  1  7  1  0
  2  1  1  0
  3  4  1  0
  3  2  2  0
  4  6  2  0
  5  4  1  0
  6  7  1  0
  7  8  2  0
  9 17  1  0
  9  3  1  0
 10  9  1  0
 11 10  2  0
 11 12  1  0
 12 17  2  0
 13 18  1  0
 13 12  1  0
 13 14  1  0
 14 15  2  0
 15 16  1  0
 17 16  1  0
 19 20  2  0
 20 21  1  0
 21 26  1  0
 22 21  2  0
 23 22  1  0
 24 19  1  0
 24 23  2  0
 25 29  1  0
 25 26  1  0
 26 27  1  0
 28 27  1  0
 29 28  1  0
 30 25  1  0
 31 29  1  0
  2 32  1  0
  5 33  1  0
  5 34  1  0
 10 35  1  0
 13 36  1  1
 15 37  1  0
 16 38  1  0
 18 39  1  0
 18 40  1  0
 20 41  1  0
 23 42  1  0
 25 43  1  6
 26 44  1  1
 28 45  1  0
 28 46  1  0
 29 47  1  1
 30 48  1  0
 31 49  1  0
M  END
>  <Score>  (1) 
-7.10586

>  <Score_dual>  (1) 
-7.29

>  <Choices>  (1) 
[None, 8, ['14-13', 0], 13, ['49-18', 225], 31, ['28-9', 165]]

$$$$
