
     RDKit          3D

 51 55  0  0  1  0  0  0  0  0999 V2000
   41.0200   83.9160   59.4130 C   0  0  0  0  0  0  0  0  0  0  0  0
   40.6450   84.7980   58.4580 C   0  0  0  0  0  0  0  0  0  0  0  0
   41.5000   85.9050   58.2250 C   0  0  0  0  0  0  0  0  0  0  0  0
   42.6510   85.9810   58.9890 C   0  0  0  0  0  0  0  0  0  0  0  0
   43.4560   87.0850   58.8370 N   0  0  0  0  0  0  0  0  0  0  0  0
   44.5530   87.2000   59.6170 C   0  0  0  0  0  0  0  0  0  0  0  0
   44.9430   86.2360   60.5950 C   0  0  0  0  0  0  0  0  0  0  0  0
   44.0970   85.1660   60.7050 C   0  0  0  0  0  0  0  0  0  0  0  0
   42.9650   85.0520   59.9220 C   0  0  0  0  0  0  0  0  0  0  0  0
   42.1570   84.0010   60.1680 C   0  0  0  0  0  0  0  0  0  0  0  0
   43.0500   83.4620   61.1570 N   0  0  0  0  0  0  0  0  0  0  0  0
   44.1860   82.7560   60.7580 C   0  0  0  0  0  0  0  0  0  0  0  0
   45.1950   82.3940   61.6690 C   0  0  0  0  0  0  0  0  0  0  0  0
   44.9370   82.8070   62.9700 C   0  0  0  0  0  0  0  0  0  0  0  0
   45.8000   82.5120   63.8190 O   0  0  0  0  0  0  0  0  0  0  0  0
   43.8610   83.4930   63.4370 N   0  0  0  0  0  0  0  0  0  0  0  0
   42.9270   83.8160   62.5260 C   0  0  0  0  0  0  0  0  0  0  0  0
   41.8790   84.4530   62.8180 O   0  0  0  0  0  0  0  0  0  0  0  0
   40.2900   82.6960   59.6460 C   0  0  0  0  0  0  0  0  0  0  0  0
   40.0320   82.2280   60.9710 C   0  0  0  0  0  0  0  0  0  0  0  0
   41.7570   79.1350   62.1970 C   0  0  0  0  0  0  0  0  0  0  0  0
   41.4130   80.4290   62.1140 C   0  0  0  0  0  0  0  0  0  0  0  0
   40.5140   80.8620   61.1770 C   0  0  1  0  0  0  0  0  0  0  0  0
   40.0050   79.8950   60.3730 N   0  0  0  0  0  0  0  0  0  0  0  0
   40.3350   78.5900   60.4560 C   0  0  0  0  0  0  0  0  0  0  0  0
   41.2140   78.1960   61.3590 N   0  0  0  0  0  0  0  0  0  0  0  0
   39.6200   77.6700   59.5630 C   0  0  0  0  0  0  0  0  0  0  0  0
   39.2420   76.4310   60.0300 C   0  0  0  0  0  0  0  0  0  0  0  0
   38.5510   75.5930   59.1840 C   0  0  0  0  0  0  0  0  0  0  0  0
   38.2320   75.9440   57.9140 N   0  0  0  0  0  0  0  0  0  0  0  0
   38.6300   77.1750   57.5070 C   0  0  0  0  0  0  0  0  0  0  0  0
   39.3030   78.0120   58.3040 N   0  0  0  0  0  0  0  0  0  0  0  0
   39.7153   84.6620   57.8860 H   0  0  0  0  0  0  0  0  0  0  0  0
   41.2591   86.6688   57.4709 H   0  0  0  0  0  0  0  0  0  0  0  0
   45.1848   88.0916   59.4907 H   0  0  0  0  0  0  0  0  0  0  0  0
   45.8489   86.3443   61.2095 H   0  0  0  0  0  0  0  0  0  0  0  0
   44.3245   84.3762   61.4361 H   0  0  0  0  0  0  0  0  0  0  0  0
   44.2955   82.4744   59.7003 H   0  0  0  0  0  0  0  0  0  0  0  0
   46.0993   81.8386   61.3796 H   0  0  0  0  0  0  0  0  0  0  0  0
   43.7667   83.7501   64.4299 H   0  0  0  0  0  0  0  0  0  0  0  0
   39.3094   82.8229   59.1640 H   0  0  0  0  0  0  0  0  0  0  0  0
   40.9728   81.9296   59.2505 H   0  0  0  0  0  0  0  0  0  0  0  0
   40.5367   82.8937   61.6866 H   0  0  0  0  0  0  0  0  0  0  0  0
   38.9427   82.2290   61.1240 H   0  0  0  0  0  0  0  0  0  0  0  0
   42.4907   78.8207   62.9539 H   0  0  0  0  0  0  0  0  0  0  0  0
   41.8606   81.1537   62.8101 H   0  0  0  0  0  0  0  0  0  0  0  0
   41.3378   81.0463   60.4718 H   0  0  0  0  0  0  0  0  0  0  0  0
   41.4856   77.2052   61.4321 H   0  0  0  0  0  0  0  0  0  0  0  0
   39.4866   76.1179   61.0557 H   0  0  0  0  0  0  0  0  0  0  0  0
   38.2465   74.6021   59.5521 H   0  0  0  0  0  0  0  0  0  0  0  0
   38.3903   77.4971   56.4829 H   0  0  0  0  0  0  0  0  0  0  0  0
  1 19  1  0
  1 10  1  0
  2  1  2  0
  3  2  1  0
  3  4  2  0
  4  9  1  0
  5  4  1  0
  5  6  2  0
  6  7  1  0
  7  8  2  0
  9 10  2  0
  9  8  1  0
 10 11  1  0
 11 17  1  0
 12 11  1  0
 12 13  2  0
 13 14  1  0
 14 16  1  0
 14 15  2  0
 17 18  2  0
 17 16  1  0
 19 20  1  0
 22 21  2  0
 23 20  1  0
 23 22  1  0
 24 25  2  0
 24 23  1  0
 25 26  1  0
 26 21  1  0
 27 28  2  0
 27 25  1  0
 29 28  1  0
 30 29  2  0
 31 30  1  0
 31 32  2  0
 32 27  1  0
  2 33  1  0
  3 34  1  0
  6 35  1  0
  7 36  1  0
  8 37  1  0
 12 38  1  0
 13 39  1  0
 16 40  1  0
 19 41  1  0
 19 42  1  0
 20 43  1  0
 20 44  1  0
 21 45  1  0
 22 46  1  0
 23 47  1  6
 26 48  1  0
 28 49  1  0
 29 50  1  0
 31 51  1  0
M  END
>  <Score>  (1) 
-7.15529

>  <Score_dual>  (1) 
-7.13

>  <Choices>  (1) 
[None, 8, ['4-11', 150], 10, ['19-19', 90], 23, ['36-22', 300], 38, ['37-12', 315]]

$$$$
