
     RDKit          3D

 52 55  0  0  0  0  0  0  0  0999 V2000
   39.4370   76.6950   60.0230 C   0  0  0  0  0  0  0  0  0  0  0  0
   38.7530   75.8920   60.6820 O   0  0  0  0  0  0  0  0  0  0  0  0
   41.0780   79.5410   61.5890 C   0  0  0  0  0  0  0  0  0  0  0  0
   42.3190   79.0060   61.9990 C   0  0  0  0  0  0  0  0  0  0  0  0
   42.5640   77.6360   61.7130 C   0  0  0  0  0  0  0  0  0  0  0  0
   41.5760   76.9540   61.0680 N   0  0  0  0  0  0  0  0  0  0  0  0
   40.4240   77.5140   60.7070 C   0  0  0  0  0  0  0  0  0  0  0  0
   40.1320   78.8290   60.9540 N   0  0  0  0  0  0  0  0  0  0  0  0
   40.8630   80.9380   61.8960 C   0  0  0  0  0  0  0  0  0  0  0  0
   41.7640   81.8210   62.4760 C   0  0  0  0  0  0  0  0  0  0  0  0
   41.1390   83.0250   62.5760 N   0  0  0  0  0  0  0  0  0  0  0  0
   39.8910   82.9170   62.0800 C   0  0  0  0  0  0  0  0  0  0  0  0
   39.7280   81.6610   61.6710 N   0  0  0  0  0  0  0  0  0  0  0  0
   38.9270   83.9650   62.0090 N   0  0  0  0  0  0  0  0  0  0  0  0
   41.7890   84.1880   63.1410 C   0  0  0  0  0  0  0  0  0  0  0  0
   40.9540   84.9300   63.9390 F   0  0  0  0  0  0  0  0  0  0  0  0
   42.2760   85.0230   62.1630 F   0  0  0  0  0  0  0  0  0  0  0  0
   42.8380   83.7260   63.9450 F   0  0  0  0  0  0  0  0  0  0  0  0
   39.4930   75.6610   57.7520 C   0  0  0  0  0  0  0  0  0  0  0  0
   39.0850   76.6500   58.5960 C   0  0  0  0  0  0  0  0  0  0  0  0
   38.3010   77.6340   58.0230 C   0  0  0  0  0  0  0  0  0  0  0  0
   37.9390   77.6400   56.6820 C   0  0  0  0  0  0  0  0  0  0  0  0
   38.3900   76.5960   55.8650 C   0  0  0  0  0  0  0  0  0  0  0  0
   39.1710   75.6050   56.4140 C   0  0  0  0  0  0  0  0  0  0  0  0
   38.0060   76.6220   54.4940 N   0  0  0  0  0  0  0  0  0  0  0  0
   36.6990   77.0440   54.0240 C   0  0  0  0  0  0  0  0  0  0  0  0
   36.7880   78.2990   53.1850 C   0  0  0  0  0  0  0  0  0  0  0  0
   38.1780   78.6190   52.7440 C   0  0  0  0  0  0  0  0  0  0  0  0
   38.9760   77.3860   52.3840 C   0  0  0  0  0  0  0  0  0  0  0  0
   38.8070   76.2500   53.3420 C   0  0  0  0  0  0  0  0  0  0  0  0
   39.6330   74.5400   55.5900 N   0  0  0  0  0  0  0  0  0  0  0  0
   40.9850   73.7480   58.7400 N   0  0  0  0  0  0  0  0  0  0  0  0
   40.3200   74.5940   58.2920 C   0  0  0  0  0  0  0  0  0  0  0  0
   43.0655   79.6247   62.5186 H   0  0  0  0  0  0  0  0  0  0  0  0
   43.5076   77.1483   61.9990 H   0  0  0  0  0  0  0  0  0  0  0  0
   42.7911   81.5901   62.7950 H   0  0  0  0  0  0  0  0  0  0  0  0
   37.9952   83.7815   61.6103 H   0  0  0  0  0  0  0  0  0  0  0  0
   39.1624   84.9056   62.3564 H   0  0  0  0  0  0  0  0  0  0  0  0
   37.9452   78.4552   58.6626 H   0  0  0  0  0  0  0  0  0  0  0  0
   37.3128   78.4458   56.2715 H   0  0  0  0  0  0  0  0  0  0  0  0
   36.2609   76.2386   53.4163 H   0  0  0  0  0  0  0  0  0  0  0  0
   36.0711   77.2601   54.9010 H   0  0  0  0  0  0  0  0  0  0  0  0
   36.1603   78.1665   52.2914 H   0  0  0  0  0  0  0  0  0  0  0  0
   36.4456   79.1348   53.8129 H   0  0  0  0  0  0  0  0  0  0  0  0
   38.1250   79.2736   51.8616 H   0  0  0  0  0  0  0  0  0  0  0  0
   38.6882   79.1101   53.5857 H   0  0  0  0  0  0  0  0  0  0  0  0
   38.6583   77.0475   51.3868 H   0  0  0  0  0  0  0  0  0  0  0  0
   40.0373   77.6736   52.4159 H   0  0  0  0  0  0  0  0  0  0  0  0
   38.3131   75.4168   52.8206 H   0  0  0  0  0  0  0  0  0  0  0  0
   39.8048   75.9596   53.7026 H   0  0  0  0  0  0  0  0  0  0  0  0
   40.2181   73.7940   55.9925 H   0  0  0  0  0  0  0  0  0  0  0  0
   39.3822   74.5155   54.5913 H   0  0  0  0  0  0  0  0  0  0  0  0
  1  2  2  0
  1  7  1  0
  3  9  1  0
  3  4  2  0
  5  4  1  0
  6  5  2  0
  7  8  2  0
  7  6  1  0
  8  3  1  0
  9 10  2  0
 10 11  1  0
 11 15  1  0
 12 11  1  0
 13  9  1  0
 13 12  2  0
 14 12  1  0
 15 16  1  0
 15 18  1  0
 17 15  1  0
 19 33  1  0
 19 20  2  0
 20  1  1  0
 21 20  1  0
 22 21  2  0
 23 24  2  0
 23 22  1  0
 24 19  1  0
 25 23  1  0
 26 25  1  0
 27 26  1  0
 28 27  1  0
 29 28  1  0
 29 30  1  0
 30 25  1  0
 31 24  1  0
 33 32  3  0
  4 34  1  0
  5 35  1  0
 10 36  1  0
 14 37  1  0
 14 38  1  0
 21 39  1  0
 22 40  1  0
 26 41  1  0
 26 42  1  0
 27 43  1  0
 27 44  1  0
 28 45  1  0
 28 46  1  0
 29 47  1  0
 29 48  1  0
 30 49  1  0
 30 50  1  0
 31 51  1  0
 31 52  1  0
M  END
>  <Score>  (1) 
-7.67838

>  <Score_dual>  (1) 
-8.52

>  <Choices>  (1) 
[None, 6, ['23-9', 180], 15, ['11-3', 300], 16, ['0-2', 0], 21, ['5-9', 345], 23, ['40-8', 135], 34, ['0-2', 0], 34, ['8-3', 135]]

$$$$
