
     RDKit          3D

 46 50  0  0  1  0  0  0  0  0999 V2000
   39.7980   83.9640   59.9810 C   0  0  0  0  0  0  0  0  0  0  0  0
   40.4630   82.7310   60.0780 C   0  0  0  0  0  0  0  0  0  0  0  0
   40.2540   81.9500   61.2010 C   0  0  0  0  0  0  0  0  0  0  0  0
   39.4200   82.4120   62.1470 N   0  0  0  0  0  0  0  0  0  0  0  0
   38.7920   83.5940   62.0360 C   0  0  0  0  0  0  0  0  0  0  0  0
   38.9860   84.3710   60.9440 N   0  0  0  0  0  0  0  0  0  0  0  0
   40.9080   80.7080   61.3250 N   0  0  0  0  0  0  0  0  0  0  0  0
   42.3230   80.7510   61.6120 C   0  0  0  0  0  0  0  0  0  0  0  0
   43.0340   79.4770   61.6730 C   0  0  0  0  0  0  0  0  0  0  0  0
   42.2270   78.3050   61.4380 C   0  0  2  0  0  0  0  0  0  0  0  0
   40.8140   78.4420   62.0350 C   0  0  0  0  0  0  0  0  0  0  0  0
   40.1390   79.4960   61.1610 C   0  0  0  0  0  0  0  0  0  0  0  0
   41.6510   75.5480   60.1800 Cl  0  0  0  0  0  0  0  0  0  0  0  0
   42.7920   75.8400   61.4660 C   0  0  0  0  0  0  0  0  0  0  0  0
   42.8920   77.1090   61.9300 C   0  0  0  0  0  0  0  0  0  0  0  0
   43.8240   77.2820   62.9810 C   0  0  0  0  0  0  0  0  0  0  0  0
   44.5880   76.2610   63.5150 C   0  0  0  0  0  0  0  0  0  0  0  0
   44.4150   74.9730   62.9680 C   0  0  0  0  0  0  0  0  0  0  0  0
   43.5110   74.7790   61.9420 C   0  0  0  0  0  0  0  0  0  0  0  0
   44.1070   72.8570   60.3930 C   0  0  0  0  0  0  0  0  0  0  0  0
   43.3820   73.4200   61.4250 C   0  0  0  0  0  0  0  0  0  0  0  0
   42.4300   72.6290   62.0450 C   0  0  0  0  0  0  0  0  0  0  0  0
   42.2280   71.3240   61.6300 C   0  0  0  0  0  0  0  0  0  0  0  0
   41.3840   70.3650   62.0540 N   0  0  0  0  0  0  0  0  0  0  0  0
   41.5270   69.2400   61.3640 N   0  0  0  0  0  0  0  0  0  0  0  0
   42.4870   69.4640   60.4640 C   0  0  0  0  0  0  0  0  0  0  0  0
   42.9480   70.7590   60.6010 C   0  0  0  0  0  0  0  0  0  0  0  0
   43.8850   71.5540   60.0000 C   0  0  0  0  0  0  0  0  0  0  0  0
   39.9534   84.5981   59.0957 H   0  0  0  0  0  0  0  0  0  0  0  0
   41.1368   82.3927   59.2770 H   0  0  0  0  0  0  0  0  0  0  0  0
   38.1169   83.9325   62.8358 H   0  0  0  0  0  0  0  0  0  0  0  0
   42.8442   81.7054   61.7780 H   0  0  0  0  0  0  0  0  0  0  0  0
   44.1118   79.4154   61.8839 H   0  0  0  0  0  0  0  0  0  0  0  0
   42.1053   78.2081   60.3491 H   0  0  0  0  0  0  0  0  0  0  0  0
   40.2732   77.4857   61.9809 H   0  0  0  0  0  0  0  0  0  0  0  0
   40.8312   78.7242   63.0981 H   0  0  0  0  0  0  0  0  0  0  0  0
   39.1012   79.6555   61.4888 H   0  0  0  0  0  0  0  0  0  0  0  0
   40.1058   79.1817   60.1074 H   0  0  0  0  0  0  0  0  0  0  0  0
   43.9482   78.2919   63.3990 H   0  0  0  0  0  0  0  0  0  0  0  0
   45.3008   76.4457   64.3322 H   0  0  0  0  0  0  0  0  0  0  0  0
   44.9982   74.1254   63.3572 H   0  0  0  0  0  0  0  0  0  0  0  0
   44.8720   73.4562   59.8775 H   0  0  0  0  0  0  0  0  0  0  0  0
   41.8312   73.0395   62.8714 H   0  0  0  0  0  0  0  0  0  0  0  0
   40.7084   70.4891   62.8215 H   0  0  0  0  0  0  0  0  0  0  0  0
   42.8534   68.7324   59.7288 H   0  0  0  0  0  0  0  0  0  0  0  0
   44.4822   71.1395   59.1745 H   0  0  0  0  0  0  0  0  0  0  0  0
  1  2  2  0
  1  6  1  0
  2  3  1  0
  3  7  1  0
  3  4  2  0
  5  4  1  0
  6  5  2  0
  7  8  1  0
  8  9  2  0
 10  9  1  0
 10 15  1  0
 10 11  1  0
 12  7  1  0
 12 11  1  0
 13 14  1  0
 14 15  2  0
 14 19  1  0
 15 16  1  0
 16 17  2  0
 18 17  1  0
 19 18  2  0
 20 21  2  0
 21 19  1  0
 21 22  1  0
 23 22  2  0
 23 24  1  0
 25 24  1  0
 26 27  1  0
 26 25  2  0
 27 23  1  0
 28 20  1  0
 28 27  2  0
  1 29  1  0
  2 30  1  0
  5 31  1  0
  8 32  1  0
  9 33  1  0
 10 34  1  6
 11 35  1  0
 11 36  1  0
 12 37  1  0
 12 38  1  0
 16 39  1  0
 17 40  1  0
 18 41  1  0
 20 42  1  0
 22 43  1  0
 24 44  1  0
 26 45  1  0
 28 46  1  0
M  END
>  <Score>  (1) 
-7.82406

>  <Score_dual>  (1) 
-7.78

>  <Choices>  (1) 
[None, 8, ['8-4', 60], 17, ['7-17', 165], 32, ['54-9', 225]]

$$$$
