
     RDKit          3D

 51 55  0  0  1  0  0  0  0  0999 V2000
   40.2860   81.0590   56.9030 C   0  0  0  0  0  0  0  0  0  0  0  0
   40.8390   81.6490   55.8520 C   0  0  0  0  0  0  0  0  0  0  0  0
   40.6830   80.6230   54.9420 N   0  0  0  0  0  0  0  0  0  0  0  0
   40.1080   79.5360   55.3390 C   0  0  1  0  0  0  0  0  0  0  0  0
   39.7430   79.7710   56.6060 N   0  0  0  0  0  0  0  0  0  0  0  0
   38.9280   79.2100   54.4500 C   0  0  0  0  0  0  0  0  0  0  0  0
   37.8230   78.5840   54.9880 C   0  0  0  0  0  0  0  0  0  0  0  0
   36.6960   78.2420   54.2750 C   0  0  0  0  0  0  0  0  0  0  0  0
   36.7520   78.5750   52.9700 N   0  0  0  0  0  0  0  0  0  0  0  0
   37.8200   79.1930   52.4010 C   0  0  0  0  0  0  0  0  0  0  0  0
   38.9110   79.5100   53.1490 N   0  0  0  0  0  0  0  0  0  0  0  0
   36.6970   80.4960   50.5870 C   0  0  2  0  0  0  0  0  0  0  0  0
   37.7850   79.5180   50.9510 C   0  0  1  0  0  0  0  0  0  0  0  0
   39.0110   80.3850   50.6280 C   0  0  0  0  0  0  0  0  0  0  0  0
   38.6810   81.6530   51.0670 O   0  0  0  0  0  0  0  0  0  0  0  0
   37.3160   81.8040   50.9630 C   0  0  0  0  0  0  0  0  0  0  0  0
   35.4890   80.2480   51.2200 O   0  0  0  0  0  0  0  0  0  0  0  0
   40.0400   81.2830   58.3130 O   0  0  0  0  0  0  0  0  0  0  0  0
   41.0250   83.7390   60.7980 C   0  0  0  0  0  0  0  0  0  0  0  0
   41.2910   84.7490   59.9240 C   0  0  0  0  0  0  0  0  0  0  0  0
   41.1560   84.6600   58.5440 C   0  0  0  0  0  0  0  0  0  0  0  0
   40.7100   83.4200   58.0500 C   0  0  0  0  0  0  0  0  0  0  0  0
   40.4560   82.4360   58.9530 C   0  0  0  0  0  0  0  0  0  0  0  0
   40.5960   82.5640   60.2540 N   0  0  0  0  0  0  0  0  0  0  0  0
   41.1920   83.8790   62.2360 C   0  0  0  0  0  0  0  0  0  0  0  0
   40.1220   83.7670   63.0540 C   0  0  0  0  0  0  0  0  0  0  0  0
   40.2730   83.9070   64.4470 C   0  0  0  0  0  0  0  0  0  0  0  0
   41.5030   84.1510   64.9210 N   0  0  0  0  0  0  0  0  0  0  0  0
   42.5720   84.2610   64.0930 C   0  0  0  0  0  0  0  0  0  0  0  0
   42.4300   84.1250   62.7320 N   0  0  0  0  0  0  0  0  0  0  0  0
   38.8620   83.5010   62.4400 N   0  0  0  0  0  0  0  0  0  0  0  0
   40.2954   82.5568   55.5516 H   0  0  0  0  0  0  0  0  0  0  0  0
   41.8673   82.0134   55.9924 H   0  0  0  0  0  0  0  0  0  0  0  0
   41.6227   80.3665   54.6071 H   0  0  0  0  0  0  0  0  0  0  0  0
   40.7718   78.6606   55.2831 H   0  0  0  0  0  0  0  0  0  0  0  0
   37.8436   78.3413   56.0607 H   0  0  0  0  0  0  0  0  0  0  0  0
   35.8279   77.7420   54.7294 H   0  0  0  0  0  0  0  0  0  0  0  0
   36.4024   80.4434   49.5285 H   0  0  0  0  0  0  0  0  0  0  0  0
   37.6875   78.5486   50.4405 H   0  0  0  0  0  0  0  0  0  0  0  0
   39.8989   80.0114   51.1591 H   0  0  0  0  0  0  0  0  0  0  0  0
   39.2549   80.3707   49.5555 H   0  0  0  0  0  0  0  0  0  0  0  0
   37.0878   82.5532   50.1905 H   0  0  0  0  0  0  0  0  0  0  0  0
   36.9094   82.1378   51.9291 H   0  0  0  0  0  0  0  0  0  0  0  0
   35.6189   80.2747   52.2011 H   0  0  0  0  0  0  0  0  0  0  0  0
   41.6383   85.7057   60.3413 H   0  0  0  0  0  0  0  0  0  0  0  0
   41.3836   85.5061   57.8790 H   0  0  0  0  0  0  0  0  0  0  0  0
   40.5718   83.2529   56.9716 H   0  0  0  0  0  0  0  0  0  0  0  0
   39.4103   83.8191   65.1238 H   0  0  0  0  0  0  0  0  0  0  0  0
   43.5671   84.4620   64.5166 H   0  0  0  0  0  0  0  0  0  0  0  0
   38.0161   83.4068   63.0201 H   0  0  0  0  0  0  0  0  0  0  0  0
   38.7982   83.4032   61.4166 H   0  0  0  0  0  0  0  0  0  0  0  0
  1 18  1  0
  2  1  1  0
  3  4  1  0
  3  2  1  0
  4  5  1  0
  5  1  2  0
  6  7  2  0
  6  4  1  0
  8  7  1  0
  9  8  2  0
 10  9  1  0
 10 11  2  0
 11  6  1  0
 12 13  1  0
 12 16  1  0
 12 17  1  0
 13 10  1  0
 14 13  1  0
 14 15  1  0
 16 15  1  0
 18 23  1  0
 19 25  1  0
 20 19  2  0
 21 20  1  0
 22 21  2  0
 22 23  1  0
 23 24  2  0
 24 19  1  0
 25 30  1  0
 25 26  2  0
 26 27  1  0
 27 28  2  0
 29 28  1  0
 30 29  2  0
 31 26  1  0
  2 32  1  0
  2 33  1  0
  3 34  1  0
  4 35  1  1
  7 36  1  0
  8 37  1  0
 12 38  1  6
 13 39  1  6
 14 40  1  0
 14 41  1  0
 16 42  1  0
 16 43  1  0
 17 44  1  0
 20 45  1  0
 21 46  1  0
 22 47  1  0
 27 48  1  0
 29 49  1  0
 31 50  1  0
 31 51  1  0
M  END
>  <Score>  (1) 
-7.22965

>  <Score_dual>  (1) 
-8.17

>  <Choices>  (1) 
[None, 7, ['0-3', 0], 7, ['6-11', 240], 18, ['2-1', 0], 19, ['23-13', 30], 30, ['19-15', 105], 38, ['30-13', 0]]

$$$$
