
     RDKit          3D

 44 48  0  0  0  0  0  0  0  0999 V2000
   44.8410   82.8040   61.6850 Cl  0  0  0  0  0  0  0  0  0  0  0  0
   44.8180   81.0860   62.0960 C   0  0  0  0  0  0  0  0  0  0  0  0
   43.6700   80.3350   61.8810 C   0  0  0  0  0  0  0  0  0  0  0  0
   43.7170   79.0200   62.2160 C   0  0  0  0  0  0  0  0  0  0  0  0
   44.8340   78.4100   62.7510 C   0  0  0  0  0  0  0  0  0  0  0  0
   45.9410   79.2010   62.9430 C   0  0  0  0  0  0  0  0  0  0  0  0
   45.9870   80.5370   62.6340 C   0  0  0  0  0  0  0  0  0  0  0  0
   45.9180   76.6120   63.9750 C   0  0  0  0  0  0  0  0  0  0  0  0
   44.8940   77.0070   63.1130 C   0  0  0  0  0  0  0  0  0  0  0  0
   44.0240   76.0160   62.6790 C   0  0  0  0  0  0  0  0  0  0  0  0
   44.1750   74.7140   63.0880 C   0  0  0  0  0  0  0  0  0  0  0  0
   43.5110   73.5780   62.8420 N   0  0  0  0  0  0  0  0  0  0  0  0
   44.0440   72.5490   63.4770 C   0  0  0  0  0  0  0  0  0  0  0  0
   45.1050   73.0110   64.1750 N   0  0  0  0  0  0  0  0  0  0  0  0
   45.2000   74.3200   63.9510 C   0  0  0  0  0  0  0  0  0  0  0  0
   46.0740   75.3130   64.3870 C   0  0  0  0  0  0  0  0  0  0  0  0
   42.5110   81.0120   61.3140 C   0  0  0  0  0  0  0  0  0  0  0  0
   42.1570   80.8090   59.9850 C   0  0  0  0  0  0  0  0  0  0  0  0
   41.0600   81.4310   59.3970 C   0  0  0  0  0  0  0  0  0  0  0  0
   40.3560   82.2490   60.2050 N   0  0  0  0  0  0  0  0  0  0  0  0
   40.6870   82.4540   61.4970 C   0  0  0  0  0  0  0  0  0  0  0  0
   41.7490   81.8360   62.0170 N   0  0  0  0  0  0  0  0  0  0  0  0
   40.6610   81.2460   58.0190 C   0  0  0  0  0  0  0  0  0  0  0  0
   39.5210   80.5790   57.6480 C   0  0  0  0  0  0  0  0  0  0  0  0
   39.1270   80.3950   56.3330 C   0  0  0  0  0  0  0  0  0  0  0  0
   39.9160   80.9020   55.3610 N   0  0  0  0  0  0  0  0  0  0  0  0
   41.0450   81.5610   55.7350 C   0  0  0  0  0  0  0  0  0  0  0  0
   41.4170   81.7340   57.0320 N   0  0  0  0  0  0  0  0  0  0  0  0
   39.9030   83.3590   62.3810 C   0  0  0  0  0  0  0  0  0  0  0  0
   38.5620   83.0620   62.1400 F   0  0  0  0  0  0  0  0  0  0  0  0
   40.1310   84.6560   62.0260 F   0  0  0  0  0  0  0  0  0  0  0  0
   40.2040   83.1370   63.7220 F   0  0  0  0  0  0  0  0  0  0  0  0
   42.8175   78.4083   62.0525 H   0  0  0  0  0  0  0  0  0  0  0  0
   46.8424   78.7363   63.3690 H   0  0  0  0  0  0  0  0  0  0  0  0
   46.8909   81.1416   62.7997 H   0  0  0  0  0  0  0  0  0  0  0  0
   46.6268   77.3710   64.3377 H   0  0  0  0  0  0  0  0  0  0  0  0
   43.2014   76.2778   61.9973 H   0  0  0  0  0  0  0  0  0  0  0  0
   42.6841   73.5137   62.2312 H   0  0  0  0  0  0  0  0  0  0  0  0
   43.6894   71.5082   63.4436 H   0  0  0  0  0  0  0  0  0  0  0  0
   46.8974   75.0529   65.0684 H   0  0  0  0  0  0  0  0  0  0  0  0
   42.7688   80.1293   59.3737 H   0  0  0  0  0  0  0  0  0  0  0  0
   38.8818   80.1657   58.4422 H   0  0  0  0  0  0  0  0  0  0  0  0
   38.2014   79.8534   56.0881 H   0  0  0  0  0  0  0  0  0  0  0  0
   41.6914   81.9759   54.9476 H   0  0  0  0  0  0  0  0  0  0  0  0
  1  2  1  0
  2  7  2  0
  3  2  1  0
  3  4  2  0
  4  5  1  0
  5  6  2  0
  5  9  1  0
  7  6  1  0
  8 16  2  0
  9  8  1  0
 10 11  1  0
 10  9  2  0
 11 15  2  0
 12 11  1  0
 12 13  1  0
 13 14  2  0
 15 14  1  0
 15 16  1  0
 17  3  1  0
 17 22  1  0
 18 17  2  0
 19 18  1  0
 19 20  2  0
 20 21  1  0
 21 22  2  0
 21 29  1  0
 23 19  1  0
 24 23  2  0
 25 24  1  0
 26 27  1  0
 26 25  2  0
 27 28  2  0
 28 23  1  0
 29 32  1  0
 30 29  1  0
 31 29  1  0
  4 33  1  0
  6 34  1  0
  7 35  1  0
  8 36  1  0
 10 37  1  0
 12 38  1  0
 13 39  1  0
 16 40  1  0
 18 41  1  0
 24 42  1  0
 25 43  1  0
 27 44  1  0
M  END
>  <Score>  (1) 
-7.24103

>  <Score_dual>  (1) 
-7.34

>  <Choices>  (1) 
[None, 6, ['7-19', 90], 17, ['34-24', 330], 32, ['11-14', 60], 35, ['19-15', 135]]

$$$$
