
     RDKit          3D

 49 53  0  0  1  0  0  0  0  0999 V2000
   43.0560   83.8140   62.8960 C   0  0  0  0  0  0  0  0  0  0  0  0
   43.4750   84.7550   61.9270 C   0  0  0  0  0  0  0  0  0  0  0  0
   44.6780   84.4980   61.2420 C   0  0  0  0  0  0  0  0  0  0  0  0
   45.3630   83.3790   61.5420 N   0  0  0  0  0  0  0  0  0  0  0  0
   44.9370   82.5120   62.4630 C   0  0  0  0  0  0  0  0  0  0  0  0
   43.8010   82.7090   63.1430 N   0  0  0  0  0  0  0  0  0  0  0  0
   41.8270   84.0330   63.6280 C   0  0  0  0  0  0  0  0  0  0  0  0
   40.5700   83.7610   63.2070 C   0  0  0  0  0  0  0  0  0  0  0  0
   39.6950   84.1130   64.1910 N   0  0  0  0  0  0  0  0  0  0  0  0
   40.4380   84.6020   65.2140 C   0  0  0  0  0  0  0  0  0  0  0  0
   41.7450   84.5570   64.8760 N   0  0  0  0  0  0  0  0  0  0  0  0
   40.0960   83.2110   61.9940 C   0  0  0  0  0  0  0  0  0  0  0  0
   39.4640   82.1360   61.8750 O   0  0  0  0  0  0  0  0  0  0  0  0
   40.1290   83.5790   60.6160 N   0  0  0  0  0  0  0  0  0  0  0  0
   39.4880   84.8300   60.4770 C   0  0  0  0  0  0  0  0  0  0  0  0
   39.5600   85.1960   59.0190 C   0  0  0  0  0  0  0  0  0  0  0  0
   40.5650   84.2960   58.4100 C   0  0  0  0  0  0  0  0  0  0  0  0
   40.6100   83.0800   59.2960 C   0  0  2  0  0  0  0  0  0  0  0  0
   39.7760   82.0640   58.8640 O   0  0  0  0  0  0  0  0  0  0  0  0
   45.6430   81.2780   62.8380 C   0  0  0  0  0  0  0  0  0  0  0  0
   45.4920   79.9150   62.7370 C   0  0  0  0  0  0  0  0  0  0  0  0
   46.5600   79.3340   63.3230 N   0  0  0  0  0  0  0  0  0  0  0  0
   47.3740   80.2900   63.7880 C   0  0  0  0  0  0  0  0  0  0  0  0
   46.8180   81.4910   63.4940 N   0  0  0  0  0  0  0  0  0  0  0  0
   47.7570   78.7290   66.1590 F   0  0  0  0  0  0  0  0  0  0  0  0
   48.8030   79.3880   65.6280 C   0  0  0  0  0  0  0  0  0  0  0  0
   48.6400   80.1410   64.4910 C   0  0  0  0  0  0  0  0  0  0  0  0
   49.7890   80.7630   64.0530 C   0  0  0  0  0  0  0  0  0  0  0  0
   51.0230   80.6530   64.6890 C   0  0  0  0  0  0  0  0  0  0  0  0
   51.1170   79.8790   65.8280 C   0  0  0  0  0  0  0  0  0  0  0  0
   49.9880   79.2330   66.3100 C   0  0  0  0  0  0  0  0  0  0  0  0
   42.8815   85.6567   61.7157 H   0  0  0  0  0  0  0  0  0  0  0  0
   45.0499   85.1967   60.4781 H   0  0  0  0  0  0  0  0  0  0  0  0
   38.6692   84.0247   64.1628 H   0  0  0  0  0  0  0  0  0  0  0  0
   40.0395   84.9763   66.1685 H   0  0  0  0  0  0  0  0  0  0  0  0
   38.4383   84.7553   60.7973 H   0  0  0  0  0  0  0  0  0  0  0  0
   39.9750   85.5944   61.1003 H   0  0  0  0  0  0  0  0  0  0  0  0
   38.5799   85.0499   58.5415 H   0  0  0  0  0  0  0  0  0  0  0  0
   39.8389   86.2518   58.8868 H   0  0  0  0  0  0  0  0  0  0  0  0
   40.2622   84.0168   57.3900 H   0  0  0  0  0  0  0  0  0  0  0  0
   41.5500   84.7794   58.3324 H   0  0  0  0  0  0  0  0  0  0  0  0
   41.6214   82.6478   59.3124 H   0  0  0  0  0  0  0  0  0  0  0  0
   39.3922   81.5964   59.6477 H   0  0  0  0  0  0  0  0  0  0  0  0
   44.6495   79.3907   62.2624 H   0  0  0  0  0  0  0  0  0  0  0  0
   46.7225   78.3198   63.4000 H   0  0  0  0  0  0  0  0  0  0  0  0
   49.7278   81.3835   63.1468 H   0  0  0  0  0  0  0  0  0  0  0  0
   51.9066   81.1734   64.2910 H   0  0  0  0  0  0  0  0  0  0  0  0
   52.0799   79.7752   66.3496 H   0  0  0  0  0  0  0  0  0  0  0  0
   50.0389   78.6114   67.2161 H   0  0  0  0  0  0  0  0  0  0  0  0
  1  6  1  0
  1  7  1  0
  2  1  2  0
  3  4  2  0
  3  2  1  0
  4  5  1  0
  5 20  1  0
  5  6  2  0
  7 11  1  0
  8  7  2  0
  8  9  1  0
  9 10  1  0
 11 10  2  0
 12  8  1  0
 13 12  2  0
 14 12  1  0
 15 14  1  0
 16 15  1  0
 17 16  1  0
 17 18  1  0
 18 14  1  0
 19 18  1  0
 20 24  1  0
 21 20  2  0
 21 22  1  0
 22 23  1  0
 23 27  1  0
 24 23  2  0
 26 25  1  0
 26 31  2  0
 27 26  1  0
 28 27  2  0
 28 29  1  0
 29 30  2  0
 30 31  1  0
  2 32  1  0
  3 33  1  0
  9 34  1  0
 10 35  1  0
 15 36  1  0
 15 37  1  0
 16 38  1  0
 16 39  1  0
 17 40  1  0
 17 41  1  0
 18 42  1  1
 19 43  1  0
 21 44  1  0
 22 45  1  0
 28 46  1  0
 29 47  1  0
 30 48  1  0
 31 49  1  0
M  END
>  <Score>  (1) 
-7.23545

>  <Score_dual>  (1) 
-7.67

>  <Choices>  (1) 
[None, 6, ['23-9', 180], 14, ['5-8', 345], 18, ['13-1', 120], 30, ['2-1', 330], 31, ['23-6', 210], 38, ['9-16', 285]]

$$$$
