
     RDKit          3D

 47 52  0  0  1  0  0  0  0  0999 V2000
   39.9660   81.6820   57.7660 C   0  0  1  0  0  0  0  0  0  0  0  0
   41.0100   81.0520   56.8390 C   0  0  0  0  0  0  0  0  0  0  0  0
   40.3660   80.3060   57.9510 C   0  0  2  0  0  0  0  0  0  0  0  0
   40.8420   77.6560   58.9940 F   0  0  0  0  0  0  0  0  0  0  0  0
   39.7420   77.8580   58.2840 C   0  0  0  0  0  0  0  0  0  0  0  0
   39.5500   79.1180   57.7980 C   0  0  0  0  0  0  0  0  0  0  0  0
   38.4000   79.3240   57.0480 C   0  0  0  0  0  0  0  0  0  0  0  0
   37.4870   78.3260   56.7940 C   0  0  0  0  0  0  0  0  0  0  0  0
   37.7600   77.0810   57.3240 C   0  0  0  0  0  0  0  0  0  0  0  0
   38.8850   76.8080   58.0790 C   0  0  0  0  0  0  0  0  0  0  0  0
   38.8780   75.1490   59.9630 C   0  0  0  0  0  0  0  0  0  0  0  0
   39.1880   75.5000   58.6440 C   0  0  0  0  0  0  0  0  0  0  0  0
   39.8060   74.5410   57.8750 C   0  0  0  0  0  0  0  0  0  0  0  0
   40.1360   73.2780   58.3090 C   0  0  0  0  0  0  0  0  0  0  0  0
   40.7230   72.1870   57.7830 N   0  0  0  0  0  0  0  0  0  0  0  0
   40.7690   71.2270   58.7240 C   0  0  0  0  0  0  0  0  0  0  0  0
   40.2120   71.6660   59.8910 N   0  0  0  0  0  0  0  0  0  0  0  0
   39.8190   72.9470   59.6280 C   0  0  0  0  0  0  0  0  0  0  0  0
   39.1890   73.8810   60.4580 C   0  0  0  0  0  0  0  0  0  0  0  0
   41.0470   83.7090   60.6320 C   0  0  0  0  0  0  0  0  0  0  0  0
   41.5990   84.8530   60.0230 C   0  0  0  0  0  0  0  0  0  0  0  0
   41.5980   84.9040   58.6190 C   0  0  0  0  0  0  0  0  0  0  0  0
   41.0710   83.8620   57.9360 N   0  0  0  0  0  0  0  0  0  0  0  0
   40.5570   82.7950   58.5620 C   0  0  0  0  0  0  0  0  0  0  0  0
   40.5310   82.6900   59.9130 N   0  0  0  0  0  0  0  0  0  0  0  0
   41.0480   83.6930   62.0830 C   0  0  0  0  0  0  0  0  0  0  0  0
   41.8540   84.4500   62.9060 C   0  0  0  0  0  0  0  0  0  0  0  0
   41.4570   84.0640   64.2140 C   0  0  0  0  0  0  0  0  0  0  0  0
   40.4740   83.1320   64.1270 N   0  0  0  0  0  0  0  0  0  0  0  0
   40.2450   82.9250   62.8520 N   0  0  0  0  0  0  0  0  0  0  0  0
   38.9656   82.1375   57.7240 H   0  0  0  0  0  0  0  0  0  0  0  0
   40.7596   80.8200   55.7933 H   0  0  0  0  0  0  0  0  0  0  0  0
   42.0400   81.2834   56.5299 H   0  0  0  0  0  0  0  0  0  0  0  0
   40.7272   79.7420   58.8236 H   0  0  0  0  0  0  0  0  0  0  0  0
   38.2105   80.3276   56.6394 H   0  0  0  0  0  0  0  0  0  0  0  0
   36.5822   78.5117   56.1967 H   0  0  0  0  0  0  0  0  0  0  0  0
   37.0464   76.2653   57.1360 H   0  0  0  0  0  0  0  0  0  0  0  0
   38.3831   75.8813   60.6179 H   0  0  0  0  0  0  0  0  0  0  0  0
   40.0546   74.8037   56.8362 H   0  0  0  0  0  0  0  0  0  0  0  0
   41.0780   72.1014   56.8199 H   0  0  0  0  0  0  0  0  0  0  0  0
   41.1970   70.2248   58.5740 H   0  0  0  0  0  0  0  0  0  0  0  0
   38.9397   73.6173   61.4964 H   0  0  0  0  0  0  0  0  0  0  0  0
   42.0150   85.6751   60.6239 H   0  0  0  0  0  0  0  0  0  0  0  0
   42.0162   85.7714   58.0873 H   0  0  0  0  0  0  0  0  0  0  0  0
   42.6236   85.1811   62.6176 H   0  0  0  0  0  0  0  0  0  0  0  0
   41.8796   84.4582   65.1500 H   0  0  0  0  0  0  0  0  0  0  0  0
   39.9965   82.6726   64.9156 H   0  0  0  0  0  0  0  0  0  0  0  0
  1  3  1  0
  1 24  1  0
  2  1  1  0
  2  3  1  0
  5  4  1  0
  6  3  1  0
  6  5  2  0
  7  6  1  0
  8  7  2  0
  8  9  1  0
  9 10  2  0
 10  5  1  0
 10 12  1  0
 11 19  2  0
 12 11  1  0
 13 14  1  0
 13 12  2  0
 14 18  2  0
 15 14  1  0
 15 16  1  0
 16 17  2  0
 18 17  1  0
 18 19  1  0
 20 26  1  0
 21 20  2  0
 22 21  1  0
 23 24  1  0
 23 22  2  0
 24 25  2  0
 25 20  1  0
 26 30  2  0
 26 27  1  0
 27 28  2  0
 29 28  1  0
 30 29  1  0
  1 31  1  6
  2 32  1  0
  2 33  1  0
  3 34  1  1
  7 35  1  0
  8 36  1  0
  9 37  1  0
 11 38  1  0
 13 39  1  0
 15 40  1  0
 16 41  1  0
 19 42  1  0
 21 43  1  0
 22 44  1  0
 27 45  1  0
 28 46  1  0
 29 47  1  0
M  END
>  <Score>  (1) 
-7.10845

>  <Score_dual>  (1) 
-7.55

>  <Choices>  (1) 
[None, 6, ['22-8', 120], 13, ['16-22', 285], 23, ['9-15', 180], 33, ['34-15', 240]]

$$$$
