
     RDKit          3D

 54 59  0  0  1  0  0  0  0  0999 V2000
   40.8070   82.3220   57.4180 C   0  0  0  0  0  0  0  0  0  0  0  0
   40.0920   81.1660   57.7530 C   0  0  0  0  0  0  0  0  0  0  0  0
   39.9670   80.8260   59.1360 C   0  0  0  0  0  0  0  0  0  0  0  0
   40.5540   81.6490   60.0480 N   0  0  0  0  0  0  0  0  0  0  0  0
   41.2370   82.7600   59.6670 C   0  0  0  0  0  0  0  0  0  0  0  0
   41.3590   83.0870   58.3720 N   0  0  0  0  0  0  0  0  0  0  0  0
   39.5010   80.3490   56.7150 C   0  0  0  0  0  0  0  0  0  0  0  0
   40.0350   80.4980   55.4410 C   0  0  0  0  0  0  0  0  0  0  0  0
   39.5580   79.7740   54.3550 C   0  0  0  0  0  0  0  0  0  0  0  0
   38.5240   78.8900   54.5770 C   0  0  0  0  0  0  0  0  0  0  0  0
   38.0470   78.1850   53.5640 N   0  0  0  0  0  0  0  0  0  0  0  0
   37.0560   77.3030   53.6520 C   0  0  0  0  0  0  0  0  0  0  0  0
   36.4990   77.1260   54.8980 C   0  0  0  0  0  0  0  0  0  0  0  0
   36.9490   77.8320   56.0150 C   0  0  0  0  0  0  0  0  0  0  0  0
   37.9820   78.7330   55.8480 C   0  0  0  0  0  0  0  0  0  0  0  0
   38.4710   79.4580   56.9040 C   0  0  0  0  0  0  0  0  0  0  0  0
   41.8500   83.6060   60.7040 C   0  0  0  0  0  0  0  0  0  0  0  0
   41.6180   83.3570   62.0200 C   0  0  0  0  0  0  0  0  0  0  0  0
   42.1380   84.0710   63.0670 C   0  0  0  0  0  0  0  0  0  0  0  0
   42.9830   85.1480   62.7120 C   0  0  0  0  0  0  0  0  0  0  0  0
   43.2100   85.3880   61.3430 C   0  0  0  0  0  0  0  0  0  0  0  0
   42.6420   84.6180   60.4360 N   0  0  0  0  0  0  0  0  0  0  0  0
   44.1080   86.4750   61.0420 C   0  0  1  0  0  0  0  0  0  0  0  0
   44.4290   87.3410   61.9360 O   0  0  0  0  0  0  0  0  0  0  0  0
   44.8640   86.9460   59.8880 C   0  0  0  0  0  0  0  0  0  0  0  0
   45.7300   86.0090   59.2790 C   0  0  0  0  0  0  0  0  0  0  0  0
   46.4960   86.1560   58.1170 C   0  0  0  0  0  0  0  0  0  0  0  0
   46.3590   87.3880   57.5220 C   0  0  0  0  0  0  0  0  0  0  0  0
   45.5500   88.3810   58.0210 C   0  0  0  0  0  0  0  0  0  0  0  0
   45.4310   89.6210   57.4390 C   0  0  0  0  0  0  0  0  0  0  0  0
   44.6310   90.6330   57.9580 C   0  0  0  0  0  0  0  0  0  0  0  0
   43.9370   90.3330   59.1230 C   0  0  0  0  0  0  0  0  0  0  0  0
   44.0680   89.0940   59.6870 C   0  0  0  0  0  0  0  0  0  0  0  0
   44.8550   88.1100   59.1630 C   0  0  0  0  0  0  0  0  0  0  0  0
   40.9174   82.6062   56.3611 H   0  0  0  0  0  0  0  0  0  0  0  0
   39.4147   79.9290   59.4528 H   0  0  0  0  0  0  0  0  0  0  0  0
   40.8594   81.2099   55.2875 H   0  0  0  0  0  0  0  0  0  0  0  0
   39.9910   79.9021   53.3520 H   0  0  0  0  0  0  0  0  0  0  0  0
   36.6997   76.7437   52.7743 H   0  0  0  0  0  0  0  0  0  0  0  0
   35.6750   76.4071   55.0172 H   0  0  0  0  0  0  0  0  0  0  0  0
   36.4923   77.6746   57.0032 H   0  0  0  0  0  0  0  0  0  0  0  0
   38.0376   79.3263   57.9064 H   0  0  0  0  0  0  0  0  0  0  0  0
   40.9578   82.5118   62.2645 H   0  0  0  0  0  0  0  0  0  0  0  0
   41.9131   83.8230   64.1148 H   0  0  0  0  0  0  0  0  0  0  0  0
   43.4492   85.7797   63.4825 H   0  0  0  0  0  0  0  0  0  0  0  0
   43.2526   87.0993   60.7444 H   0  0  0  0  0  0  0  0  0  0  0  0
   44.2858   86.9546   62.8362 H   0  0  0  0  0  0  0  0  0  0  0  0
   45.8126   85.0360   59.7853 H   0  0  0  0  0  0  0  0  0  0  0  0
   47.1451   85.3625   57.7182 H   0  0  0  0  0  0  0  0  0  0  0  0
   46.9251   87.5890   56.6005 H   0  0  0  0  0  0  0  0  0  0  0  0
   45.9966   89.8224   56.5173 H   0  0  0  0  0  0  0  0  0  0  0  0
   44.5522   91.6170   57.4726 H   0  0  0  0  0  0  0  0  0  0  0  0
   43.2860   91.0872   59.5892 H   0  0  0  0  0  0  0  0  0  0  0  0
   43.5103   88.8796   60.6106 H   0  0  0  0  0  0  0  0  0  0  0  0
  1  2  2  0
  1  6  1  0
  2  3  1  0
  3  4  2  0
  5  4  1  0
  5 17  1  0
  6  5  2  0
  7 16  1  0
  7  2  1  0
  8  7  2  0
  9 10  2  0
  9  8  1  0
 10 15  1  0
 11 12  2  0
 11 10  1  0
 12 13  1  0
 13 14  2  0
 15 14  1  0
 15 16  2  0
 17 18  2  0
 18 19  1  0
 20 19  2  0
 21 20  1  0
 22 17  1  0
 22 21  2  0
 23 21  1  0
 23 24  1  0
 25 23  1  0
 26 25  2  0
 27 26  1  0
 28 29  1  0
 28 27  2  0
 29 34  2  0
 30 31  2  0
 30 29  1  0
 31 32  1  0
 32 33  2  0
 34 33  1  0
 34 25  1  0
  1 35  1  0
  3 36  1  0
  8 37  1  0
  9 38  1  0
 12 39  1  0
 13 40  1  0
 14 41  1  0
 16 42  1  0
 18 43  1  0
 19 44  1  0
 20 45  1  0
 23 46  1  6
 24 47  1  0
 26 48  1  0
 27 49  1  0
 28 50  1  0
 30 51  1  0
 31 52  1  0
 32 53  1  0
 33 54  1  0
M  END
>  <Score>  (1) 
-7.10655

>  <Score_dual>  (1) 
-8.74

>  <Choices>  (1) 
[None, 9, ['6-17', 240], 13, ['36-26', 0], 33, ['5-9', 330], 35, ['26-11', 45]]

$$$$
