
     RDKit          3D

 52 57  0  0  0  0  0  0  0  0999 V2000
   40.9550   83.1340   62.8870 C   0  0  0  0  0  0  0  0  0  0  0  0
   42.2600   83.4180   63.1630 C   0  0  0  0  0  0  0  0  0  0  0  0
   42.4820   84.1940   64.2660 C   0  0  0  0  0  0  0  0  0  0  0  0
   41.3790   84.6130   64.9900 C   0  0  0  0  0  0  0  0  0  0  0  0
   40.0710   84.3110   64.6880 C   0  0  0  0  0  0  0  0  0  0  0  0
   39.8650   83.5340   63.5820 N   0  0  0  0  0  0  0  0  0  0  0  0
   43.5090   83.0750   62.5250 C   0  0  0  0  0  0  0  0  0  0  0  0
   43.9450   84.0800   61.6230 C   0  0  0  0  0  0  0  0  0  0  0  0
   45.1260   83.9230   60.9290 C   0  0  0  0  0  0  0  0  0  0  0  0
   45.8710   82.7760   61.1280 C   0  0  0  0  0  0  0  0  0  0  0  0
   47.0390   82.6180   60.4450 N   0  0  0  0  0  0  0  0  0  0  0  0
   47.7760   81.5180   60.6230 C   0  0  0  0  0  0  0  0  0  0  0  0
   47.3820   80.5060   61.5010 C   0  0  0  0  0  0  0  0  0  0  0  0
   46.1940   80.6420   62.2100 C   0  0  0  0  0  0  0  0  0  0  0  0
   45.4530   81.7750   62.0150 C   0  0  0  0  0  0  0  0  0  0  0  0
   44.2770   81.9380   62.7020 C   0  0  0  0  0  0  0  0  0  0  0  0
   40.6710   82.3000   61.7120 C   0  0  0  0  0  0  0  0  0  0  0  0
   40.4650   82.9500   60.4900 C   0  0  0  0  0  0  0  0  0  0  0  0
   40.1940   82.2070   59.3510 C   0  0  0  0  0  0  0  0  0  0  0  0
   40.1420   80.8610   59.4830 N   0  0  0  0  0  0  0  0  0  0  0  0
   40.3440   80.2400   60.6770 C   0  0  0  0  0  0  0  0  0  0  0  0
   40.6100   80.9410   61.8010 N   0  0  0  0  0  0  0  0  0  0  0  0
   40.2670   78.7840   60.7260 C   0  0  0  0  0  0  0  0  0  0  0  0
   40.4910   78.2340   61.8410 O   0  0  0  0  0  0  0  0  0  0  0  0
   39.9380   78.0410   59.5110 C   0  0  0  0  0  0  0  0  0  0  0  0
   39.9650   78.6370   58.2710 C   0  0  0  0  0  0  0  0  0  0  0  0
   39.6580   78.0150   57.0550 C   0  0  0  0  0  0  0  0  0  0  0  0
   39.3050   76.6860   57.1810 C   0  0  0  0  0  0  0  0  0  0  0  0
   39.2680   76.0560   58.4030 C   0  0  0  0  0  0  0  0  0  0  0  0
   38.8970   74.7290   58.3570 C   0  0  0  0  0  0  0  0  0  0  0  0
   38.8220   73.9760   59.5360 C   0  0  0  0  0  0  0  0  0  0  0  0
   39.1450   74.6840   60.6860 C   0  0  0  0  0  0  0  0  0  0  0  0
   39.5160   75.9950   60.7660 C   0  0  0  0  0  0  0  0  0  0  0  0
   39.5800   76.7160   59.5720 C   0  0  0  0  0  0  0  0  0  0  0  0
   43.5015   84.4758   64.5679 H   0  0  0  0  0  0  0  0  0  0  0  0
   41.5628   85.2369   65.8771 H   0  0  0  0  0  0  0  0  0  0  0  0
   39.2354   84.6753   65.3037 H   0  0  0  0  0  0  0  0  0  0  0  0
   43.3393   84.9865   61.4771 H   0  0  0  0  0  0  0  0  0  0  0  0
   45.4697   84.6981   60.2283 H   0  0  0  0  0  0  0  0  0  0  0  0
   48.7168   81.4066   60.0639 H   0  0  0  0  0  0  0  0  0  0  0  0
   48.0060   79.6094   61.6304 H   0  0  0  0  0  0  0  0  0  0  0  0
   45.8594   79.8605   62.9081 H   0  0  0  0  0  0  0  0  0  0  0  0
   43.9414   81.1572   63.4003 H   0  0  0  0  0  0  0  0  0  0  0  0
   40.5179   84.0473   60.4331 H   0  0  0  0  0  0  0  0  0  0  0  0
   40.0278   82.6926   58.3781 H   0  0  0  0  0  0  0  0  0  0  0  0
   40.2538   79.6977   58.2317 H   0  0  0  0  0  0  0  0  0  0  0  0
   39.6946   78.5372   56.0876 H   0  0  0  0  0  0  0  0  0  0  0  0
   39.0458   76.1145   56.2776 H   0  0  0  0  0  0  0  0  0  0  0  0
   38.6590   74.2597   57.3910 H   0  0  0  0  0  0  0  0  0  0  0  0
   38.5321   72.9150   59.5495 H   0  0  0  0  0  0  0  0  0  0  0  0
   39.0967   74.1287   61.6343 H   0  0  0  0  0  0  0  0  0  0  0  0
   39.7548   76.4644   61.7317 H   0  0  0  0  0  0  0  0  0  0  0  0
  1  2  1  0
  1  6  2  0
  2  3  2  0
  3  4  1  0
  5  4  2  0
  6  5  1  0
  7 16  1  0
  7  2  1  0
  8  7  2  0
  9 10  2  0
  9  8  1  0
 10 15  1  0
 11 12  2  0
 11 10  1  0
 12 13  1  0
 13 14  2  0
 15 14  1  0
 15 16  2  0
 17 22  1  0
 17  1  1  0
 18 17  2  0
 19 20  2  0
 19 18  1  0
 20 21  1  0
 21 23  1  0
 21 22  2  0
 23 24  2  0
 25 34  1  0
 25 23  1  0
 26 25  2  0
 27 28  2  0
 27 26  1  0
 28 29  1  0
 29 34  2  0
 30 29  1  0
 30 31  2  0
 31 32  1  0
 32 33  2  0
 34 33  1  0
  3 35  1  0
  4 36  1  0
  5 37  1  0
  8 38  1  0
  9 39  1  0
 12 40  1  0
 13 41  1  0
 14 42  1  0
 16 43  1  0
 18 44  1  0
 19 45  1  0
 26 46  1  0
 27 47  1  0
 28 48  1  0
 30 49  1  0
 31 50  1  0
 32 51  1  0
 33 52  1  0
M  END
>  <Score>  (1) 
-7.35351

>  <Score_dual>  (1) 
-7.84

>  <Choices>  (1) 
[None, 6, ['6-18', 60], 15, ['36-27', 300], 33, ['5-8', 150], 35, ['26-11', 45]]

$$$$
