
     RDKit          3D

 46 50  0  0  0  0  0  0  0  0999 V2000
   40.5680   80.5530   60.9220 C   0  0  0  0  0  0  0  0  0  0  0  0
   40.0920   79.3750   60.3980 C   0  0  0  0  0  0  0  0  0  0  0  0
   40.7830   78.2410   60.6270 C   0  0  0  0  0  0  0  0  0  0  0  0
   41.9350   78.3060   61.3730 C   0  0  0  0  0  0  0  0  0  0  0  0
   42.1330   80.0330   61.8220 S   0  0  0  0  0  0  0  0  0  0  0  0
   39.6860   83.9850   59.7610 C   0  0  0  0  0  0  0  0  0  0  0  0
   40.2320   82.6990   59.7240 C   0  0  0  0  0  0  0  0  0  0  0  0
   40.0460   81.9100   60.8430 C   0  0  0  0  0  0  0  0  0  0  0  0
   39.3640   82.3980   61.9010 N   0  0  0  0  0  0  0  0  0  0  0  0
   38.8510   83.6330   61.9110 C   0  0  0  0  0  0  0  0  0  0  0  0
   39.0070   84.4340   60.8500 N   0  0  0  0  0  0  0  0  0  0  0  0
   40.4550   81.5060   57.5110 C   0  0  0  0  0  0  0  0  0  0  0  0
   40.9440   82.2300   58.5820 C   0  0  0  0  0  0  0  0  0  0  0  0
   42.2850   82.5410   58.5530 C   0  0  0  0  0  0  0  0  0  0  0  0
   43.1040   82.1580   57.5190 C   0  0  0  0  0  0  0  0  0  0  0  0
   42.5940   81.4270   56.4420 C   0  0  0  0  0  0  0  0  0  0  0  0
   41.2470   81.1080   56.4610 C   0  0  0  0  0  0  0  0  0  0  0  0
   39.1140   81.2030   57.5560 O   0  0  0  0  0  0  0  0  0  0  0  0
   40.7360   80.3850   55.4000 O   0  0  0  0  0  0  0  0  0  0  0  0
   42.8750   77.3450   61.8000 C   0  0  0  0  0  0  0  0  0  0  0  0
   43.7590   77.4430   62.8350 C   0  0  0  0  0  0  0  0  0  0  0  0
   44.6060   76.3670   63.1210 C   0  0  0  0  0  0  0  0  0  0  0  0
   44.4820   75.2390   62.3000 C   0  0  0  0  0  0  0  0  0  0  0  0
   43.1260   75.7480   61.1140 S   0  0  0  0  0  0  0  0  0  0  0  0
   45.5640   76.4200   64.2130 C   0  0  0  0  0  0  0  0  0  0  0  0
   46.5010   77.3350   64.5100 N   0  0  0  0  0  0  0  0  0  0  0  0
   47.1820   77.0020   65.6180 C   0  0  0  0  0  0  0  0  0  0  0  0
   46.6550   75.8490   66.0210 N   0  0  0  0  0  0  0  0  0  0  0  0
   45.7050   75.5180   65.1860 N   0  0  0  0  0  0  0  0  0  0  0  0
   45.1460   74.0440   62.3070 N   0  0  0  0  0  0  0  0  0  0  0  0
   39.1663   79.3582   59.8041 H   0  0  0  0  0  0  0  0  0  0  0  0
   40.4309   77.2801   60.2237 H   0  0  0  0  0  0  0  0  0  0  0  0
   39.8081   84.6474   58.8913 H   0  0  0  0  0  0  0  0  0  0  0  0
   38.2997   83.9913   62.7929 H   0  0  0  0  0  0  0  0  0  0  0  0
   42.7151   83.1158   59.3864 H   0  0  0  0  0  0  0  0  0  0  0  0
   44.1700   82.4287   57.5385 H   0  0  0  0  0  0  0  0  0  0  0  0
   43.2407   81.1160   55.6083 H   0  0  0  0  0  0  0  0  0  0  0  0
   38.6983   80.6864   56.8208 H   0  0  0  0  0  0  0  0  0  0  0  0
   39.7767   80.1410   55.3836 H   0  0  0  0  0  0  0  0  0  0  0  0
   43.8052   78.3608   63.4396 H   0  0  0  0  0  0  0  0  0  0  0  0
   48.2511   76.8783   65.3905 H   0  0  0  0  0  0  0  0  0  0  0  0
   47.1092   77.7792   66.3931 H   0  0  0  0  0  0  0  0  0  0  0  0
   47.3810   75.1184   66.0300 H   0  0  0  0  0  0  0  0  0  0  0  0
   45.1346   74.6644   65.2692 H   0  0  0  0  0  0  0  0  0  0  0  0
   44.9127   73.3211   61.6113 H   0  0  0  0  0  0  0  0  0  0  0  0
   45.8795   73.8665   63.0079 H   0  0  0  0  0  0  0  0  0  0  0  0
  1  5  1  0
  2  3  1  0
  2  1  2  0
  3  4  2  0
  4 20  1  0
  4  5  1  0
  6 11  2  0
  7  6  1  0
  7  8  2  0
  8  1  1  0
  8  9  1  0
  9 10  2  0
 11 10  1  0
 12 18  1  0
 12 13  2  0
 13  7  1  0
 14 13  1  0
 15 14  2  0
 16 17  2  0
 16 15  1  0
 17 12  1  0
 19 17  1  0
 20 21  2  0
 21 22  1  0
 22 25  1  0
 23 30  1  0
 23 22  2  0
 24 20  1  0
 24 23  1  0
 25 26  2  0
 25 29  1  0
 26 27  1  0
 27 28  1  0
 29 28  1  0
  2 31  1  0
  3 32  1  0
  6 33  1  0
 10 34  1  0
 14 35  1  0
 15 36  1  0
 16 37  1  0
 18 38  1  0
 19 39  1  0
 21 40  1  0
 27 41  1  0
 27 42  1  0
 28 43  1  0
 29 44  1  0
 30 45  1  0
 30 46  1  0
M  END
>  <Score>  (1) 
-7.0255

>  <Score_dual>  (1) 
-7.47

>  <Choices>  (1) 
[None, 7, ['35-27', 225], 18, ['25-19', 45], 28, ['25-18', 195], 35, ['0-4', 0], 35, ['57-14', 330]]

$$$$
