
     RDKit          3D

 46 50  0  0  0  0  0  0  0  0999 V2000
   40.4620   76.7760   60.4980 C   0  0  0  0  0  0  0  0  0  0  0  0
   40.1710   78.1900   58.4300 C   0  0  0  0  0  0  0  0  0  0  0  0
   39.7230   77.2010   59.3330 C   0  0  0  0  0  0  0  0  0  0  0  0
   38.5060   76.6480   59.0330 C   0  0  0  0  0  0  0  0  0  0  0  0
   37.7320   76.9960   57.9400 C   0  0  0  0  0  0  0  0  0  0  0  0
   36.5300   76.5660   57.4940 N   0  0  0  0  0  0  0  0  0  0  0  0
   36.2450   77.2530   56.3700 C   0  0  0  0  0  0  0  0  0  0  0  0
   37.2730   78.1090   56.1200 N   0  0  0  0  0  0  0  0  0  0  0  0
   38.2100   77.9680   57.0830 C   0  0  0  0  0  0  0  0  0  0  0  0
   39.4380   78.5650   57.3340 C   0  0  0  0  0  0  0  0  0  0  0  0
   39.9520   79.5940   56.4350 C   0  0  0  0  0  0  0  0  0  0  0  0
   40.6230   80.7480   56.7700 C   0  0  0  0  0  0  0  0  0  0  0  0
   40.9160   81.4140   55.6030 C   0  0  0  0  0  0  0  0  0  0  0  0
   40.4230   80.6610   54.5870 N   0  0  0  0  0  0  0  0  0  0  0  0
   39.8460   79.5700   55.0990 N   0  0  0  0  0  0  0  0  0  0  0  0
   40.3480   77.5390   61.7610 C   0  0  0  0  0  0  0  0  0  0  0  0
   41.4700   81.0310   61.5550 C   0  0  0  0  0  0  0  0  0  0  0  0
   42.8250   80.9750   61.7710 C   0  0  0  0  0  0  0  0  0  0  0  0
   43.3980   79.7150   61.9970 C   0  0  0  0  0  0  0  0  0  0  0  0
   42.5740   78.6350   61.9860 N   0  0  0  0  0  0  0  0  0  0  0  0
   41.2590   78.7380   61.7720 C   0  0  0  0  0  0  0  0  0  0  0  0
   40.6650   79.9360   61.5490 N   0  0  0  0  0  0  0  0  0  0  0  0
   40.7680   82.2720   61.3100 N   0  0  0  0  0  0  0  0  0  0  0  0
   40.7130   82.5720   59.9610 C   0  0  0  0  0  0  0  0  0  0  0  0
   40.0880   83.7130   59.5070 C   0  0  0  0  0  0  0  0  0  0  0  0
   39.5110   84.5560   60.4520 C   0  0  0  0  0  0  0  0  0  0  0  0
   38.9390   85.5970   60.0600 O   0  0  0  0  0  0  0  0  0  0  0  0
   39.5890   84.2250   61.7390 N   0  0  0  0  0  0  0  0  0  0  0  0
   40.2010   83.1100   62.1610 C   0  0  0  0  0  0  0  0  0  0  0  0
   40.3110   82.7410   63.3310 O   0  0  0  0  0  0  0  0  0  0  0  0
   41.5260   76.7796   60.2188 H   0  0  0  0  0  0  0  0  0  0  0  0
   40.0099   75.8043   60.7458 H   0  0  0  0  0  0  0  0  0  0  0  0
   41.1409   78.6759   58.6122 H   0  0  0  0  0  0  0  0  0  0  0  0
   38.1165   75.8724   59.7089 H   0  0  0  0  0  0  0  0  0  0  0  0
   35.9399   75.8450   57.9331 H   0  0  0  0  0  0  0  0  0  0  0  0
   35.3370   77.1410   55.7593 H   0  0  0  0  0  0  0  0  0  0  0  0
   40.8788   81.0781   57.7876 H   0  0  0  0  0  0  0  0  0  0  0  0
   41.4476   82.3726   55.5107 H   0  0  0  0  0  0  0  0  0  0  0  0
   40.4837   80.8927   53.5852 H   0  0  0  0  0  0  0  0  0  0  0  0
   39.3088   77.8799   61.8789 H   0  0  0  0  0  0  0  0  0  0  0  0
   40.6424   76.8773   62.5889 H   0  0  0  0  0  0  0  0  0  0  0  0
   43.4399   81.8871   61.7669 H   0  0  0  0  0  0  0  0  0  0  0  0
   44.4776   79.6050   62.1770 H   0  0  0  0  0  0  0  0  0  0  0  0
   41.1771   81.8866   59.2366 H   0  0  0  0  0  0  0  0  0  0  0  0
   40.0465   83.9496   58.4335 H   0  0  0  0  0  0  0  0  0  0  0  0
   39.1624   84.8502   62.4376 H   0  0  0  0  0  0  0  0  0  0  0  0
  1 16  1  0
  2  3  2  0
  3  1  1  0
  4  3  1  0
  5  4  2  0
  6  5  1  0
  7  6  1  0
  8  7  2  0
  8  9  1  0
  9 10  2  0
  9  5  1  0
 10  2  1  0
 11 12  1  0
 11 10  1  0
 13 12  2  0
 14 15  1  0
 14 13  1  0
 15 11  2  0
 16 21  1  0
 17 18  2  0
 18 19  1  0
 20 19  2  0
 21 20  1  0
 22 17  1  0
 22 21  2  0
 23 17  1  0
 23 29  1  0
 24 23  1  0
 25 24  2  0
 25 26  1  0
 26 28  1  0
 27 26  2  0
 28 29  1  0
 29 30  2  0
  1 31  1  0
  1 32  1  0
  2 33  1  0
  4 34  1  0
  6 35  1  0
  7 36  1  0
 12 37  1  0
 13 38  1  0
 14 39  1  0
 16 40  1  0
 16 41  1  0
 18 42  1  0
 19 43  1  0
 24 44  1  0
 25 45  1  0
 28 46  1  0
M  END
>  <Score>  (1) 
-7.41114

>  <Score_dual>  (1) 
-7.53

>  <Choices>  (1) 
[None, 6, ['37-16', 135], 19, ['4-9', 270], 25, ['34-15', 255], 38, ['22-4', 180]]

$$$$
