
     RDKit          3D

 46 50  0  0  0  0  0  0  0  0999 V2000
   41.3180   81.7930   60.9470 C   0  0  0  0  0  0  0  0  0  0  0  0
   41.0060   84.0990   61.9440 C   0  0  0  0  0  0  0  0  0  0  0  0
   41.0790   82.6990   62.0800 C   0  0  0  0  0  0  0  0  0  0  0  0
   40.9170   82.1790   63.3360 C   0  0  0  0  0  0  0  0  0  0  0  0
   40.6980   82.9850   64.3790 N   0  0  0  0  0  0  0  0  0  0  0  0
   40.6290   84.3530   64.2210 C   0  0  0  0  0  0  0  0  0  0  0  0
   40.7860   84.8930   62.9940 N   0  0  0  0  0  0  0  0  0  0  0  0
   41.1740   84.6340   60.6350 N   0  0  0  0  0  0  0  0  0  0  0  0
   42.3010   84.8800   59.9450 C   0  0  0  0  0  0  0  0  0  0  0  0
   42.2140   85.4080   58.6880 C   0  0  0  0  0  0  0  0  0  0  0  0
   40.9710   85.6920   58.1270 C   0  0  0  0  0  0  0  0  0  0  0  0
   40.8870   86.1780   56.9600 O   0  0  0  0  0  0  0  0  0  0  0  0
   39.9000   85.4390   58.8380 N   0  0  0  0  0  0  0  0  0  0  0  0
   39.9690   84.9050   60.0960 C   0  0  0  0  0  0  0  0  0  0  0  0
   38.8230   84.7100   60.6280 O   0  0  0  0  0  0  0  0  0  0  0  0
   42.3220   80.7880   61.2160 C   0  0  0  0  0  0  0  0  0  0  0  0
   43.5860   80.9630   61.7940 C   0  0  0  0  0  0  0  0  0  0  0  0
   44.4420   79.8980   62.0750 C   0  0  0  0  0  0  0  0  0  0  0  0
   44.0050   78.6430   61.7710 C   0  0  0  0  0  0  0  0  0  0  0  0
   42.7770   78.4440   61.2020 C   0  0  0  0  0  0  0  0  0  0  0  0
   41.9450   79.5090   60.9170 C   0  0  0  0  0  0  0  0  0  0  0  0
   40.4020   78.7600   58.9170 C   0  0  0  0  0  0  0  0  0  0  0  0
   41.0330   78.6620   60.1320 C   0  0  0  0  0  0  0  0  0  0  0  0
   40.6990   77.5870   60.9790 C   0  0  0  0  0  0  0  0  0  0  0  0
   39.7570   76.6250   60.6350 C   0  0  0  0  0  0  0  0  0  0  0  0
   39.1870   75.5120   61.1280 N   0  0  0  0  0  0  0  0  0  0  0  0
   38.2850   74.9820   60.2870 C   0  0  0  0  0  0  0  0  0  0  0  0
   38.2450   75.7710   59.1790 N   0  0  0  0  0  0  0  0  0  0  0  0
   39.1320   76.7560   59.3950 C   0  0  0  0  0  0  0  0  0  0  0  0
   39.4660   77.8080   58.5770 C   0  0  0  0  0  0  0  0  0  0  0  0
   41.6468   82.3921   60.0851 H   0  0  0  0  0  0  0  0  0  0  0  0
   40.3740   81.2637   60.7503 H   0  0  0  0  0  0  0  0  0  0  0  0
   40.9674   81.0907   63.4875 H   0  0  0  0  0  0  0  0  0  0  0  0
   40.4469   85.0012   65.0908 H   0  0  0  0  0  0  0  0  0  0  0  0
   43.2832   84.6585   60.3879 H   0  0  0  0  0  0  0  0  0  0  0  0
   43.1312   85.6101   58.1154 H   0  0  0  0  0  0  0  0  0  0  0  0
   38.9750   85.6491   58.4366 H   0  0  0  0  0  0  0  0  0  0  0  0
   43.9176   81.9834   62.0365 H   0  0  0  0  0  0  0  0  0  0  0  0
   45.4319   80.0645   62.5248 H   0  0  0  0  0  0  0  0  0  0  0  0
   44.6492   77.7778   61.9864 H   0  0  0  0  0  0  0  0  0  0  0  0
   42.4474   77.4210   60.9680 H   0  0  0  0  0  0  0  0  0  0  0  0
   40.6393   79.5835   58.2274 H   0  0  0  0  0  0  0  0  0  0  0  0
   41.2046   77.5058   61.9526 H   0  0  0  0  0  0  0  0  0  0  0  0
   39.4167   75.1106   62.0483 H   0  0  0  0  0  0  0  0  0  0  0  0
   37.6872   74.0753   60.4616 H   0  0  0  0  0  0  0  0  0  0  0  0
   38.9616   77.8944   57.6033 H   0  0  0  0  0  0  0  0  0  0  0  0
  1 16  1  0
  1  3  1  0
  2  3  1  0
  2  7  2  0
  3  4  2  0
  4  5  1  0
  6  5  2  0
  7  6  1  0
  8  2  1  0
  9  8  1  0
 10  9  2  0
 11 10  1  0
 11 13  1  0
 12 11  2  0
 13 14  1  0
 14 15  2  0
 14  8  1  0
 16 17  2  0
 17 18  1  0
 19 18  2  0
 20 19  1  0
 21 20  2  0
 21 16  1  0
 22 23  2  0
 23 21  1  0
 23 24  1  0
 25 24  2  0
 25 26  1  0
 27 26  1  0
 28 29  1  0
 28 27  2  0
 29 25  1  0
 30 22  1  0
 30 29  2  0
  1 31  1  0
  1 32  1  0
  4 33  1  0
  6 34  1  0
  9 35  1  0
 10 36  1  0
 13 37  1  0
 17 38  1  0
 18 39  1  0
 19 40  1  0
 20 41  1  0
 22 42  1  0
 24 43  1  0
 26 44  1  0
 27 45  1  0
 30 46  1  0
M  END
>  <Score>  (1) 
-8.43127

>  <Score_dual>  (1) 
-7.19

>  <Choices>  (1) 
[None, 7, ['3-10', 0], 7, ['37-14', 345], 22, ['1-22', 135], 32, ['34-19', 225]]

$$$$
