
     RDKit          3D

 41 43  0  0  0  0  0  0  0  0999 V2000
   41.0780   79.7610   61.3390 C   0  0  0  0  0  0  0  0  0  0  0  0
   42.4490   79.5060   61.1820 C   0  0  0  0  0  0  0  0  0  0  0  0
   42.8240   78.2380   60.6850 C   0  0  0  0  0  0  0  0  0  0  0  0
   41.8260   77.3640   60.3960 N   0  0  0  0  0  0  0  0  0  0  0  0
   40.5450   77.6580   60.5630 C   0  0  0  0  0  0  0  0  0  0  0  0
   40.1270   78.8620   61.0380 N   0  0  0  0  0  0  0  0  0  0  0  0
   40.7240   81.0660   61.8490 C   0  0  0  0  0  0  0  0  0  0  0  0
   41.4180   81.8120   62.7880 C   0  0  0  0  0  0  0  0  0  0  0  0
   40.7180   82.9700   62.9640 N   0  0  0  0  0  0  0  0  0  0  0  0
   39.6320   82.9710   62.1800 C   0  0  0  0  0  0  0  0  0  0  0  0
   39.6270   81.8170   61.5000 N   0  0  0  0  0  0  0  0  0  0  0  0
   38.6600   83.9960   62.0820 N   0  0  0  0  0  0  0  0  0  0  0  0
   41.1750   83.9940   63.8940 C   0  0  0  0  0  0  0  0  0  0  0  0
   40.3830   84.0880   65.0060 F   0  0  0  0  0  0  0  0  0  0  0  0
   41.1900   85.2450   63.2930 F   0  0  0  0  0  0  0  0  0  0  0  0
   42.4560   83.6490   64.3250 F   0  0  0  0  0  0  0  0  0  0  0  0
   39.5510   76.6520   60.2240 C   0  0  0  0  0  0  0  0  0  0  0  0
   38.9520   76.0560   61.1440 O   0  0  0  0  0  0  0  0  0  0  0  0
   39.5330   75.0100   58.3240 C   0  0  0  0  0  0  0  0  0  0  0  0
   39.0970   76.1830   58.9000 C   0  0  0  0  0  0  0  0  0  0  0  0
   38.2050   76.8960   58.1530 C   0  0  0  0  0  0  0  0  0  0  0  0
   37.7490   76.4960   56.9010 C   0  0  0  0  0  0  0  0  0  0  0  0
   38.2300   75.3050   56.3850 C   0  0  0  0  0  0  0  0  0  0  0  0
   39.1290   74.5580   57.1040 C   0  0  0  0  0  0  0  0  0  0  0  0
   37.9090   75.7330   53.9890 C   0  0  0  0  0  0  0  0  0  0  0  0
   38.2680   76.8380   53.5450 O   0  0  0  0  0  0  0  0  0  0  0  0
   37.7850   74.8650   55.1070 N   0  0  0  0  0  0  0  0  0  0  0  0
   39.6330   73.3180   56.5740 N   0  0  0  0  0  0  0  0  0  0  0  0
   41.2470   73.5530   59.6920 N   0  0  0  0  0  0  0  0  0  0  0  0
   40.4940   74.2030   59.0830 C   0  0  0  0  0  0  0  0  0  0  0  0
   43.2034   80.2651   61.4364 H   0  0  0  0  0  0  0  0  0  0  0  0
   43.8807   77.9698   60.5382 H   0  0  0  0  0  0  0  0  0  0  0  0
   42.3522   81.5261   63.2936 H   0  0  0  0  0  0  0  0  0  0  0  0
   37.8608   83.8883   61.4412 H   0  0  0  0  0  0  0  0  0  0  0  0
   38.7521   84.8493   62.6515 H   0  0  0  0  0  0  0  0  0  0  0  0
   37.8243   77.8423   58.5648 H   0  0  0  0  0  0  0  0  0  0  0  0
   37.0283   77.1075   56.3383 H   0  0  0  0  0  0  0  0  0  0  0  0
   37.5062   75.1779   53.1290 H   0  0  0  0  0  0  0  0  0  0  0  0
   37.3769   73.9261   54.9935 H   0  0  0  0  0  0  0  0  0  0  0  0
   40.3076   72.7616   57.1183 H   0  0  0  0  0  0  0  0  0  0  0  0
   39.3190   72.9872   55.6505 H   0  0  0  0  0  0  0  0  0  0  0  0
  1  7  1  0
  2  1  2  0
  3  2  1  0
  4  5  1  0
  4  3  2  0
  5  6  2  0
  6  1  1  0
  7  8  2  0
  8  9  1  0
  9 13  1  0
 10  9  1  0
 11  7  1  0
 11 10  2  0
 12 10  1  0
 13 16  1  0
 13 14  1  0
 15 13  1  0
 17  5  1  0
 17 18  2  0
 19 20  2  0
 19 30  1  0
 20 17  1  0
 21 20  1  0
 22 21  2  0
 23 22  1  0
 23 24  2  0
 24 19  1  0
 25 27  1  0
 26 25  2  0
 27 23  1  0
 28 24  1  0
 30 29  3  0
  2 31  1  0
  3 32  1  0
  8 33  1  0
 12 34  1  0
 12 35  1  0
 21 36  1  0
 22 37  1  0
 25 38  1  0
 27 39  1  0
 28 40  1  0
 28 41  1  0
M  END
>  <Score>  (1) 
-7.30593

>  <Score_dual>  (1) 
-7.63

>  <Choices>  (1) 
[None, 6, ['23-9', 180], 15, ['11-3', 300], 16, ['0-2', 0], 21, ['5-9', 345], 23, ['40-8', 135], 34, ['0-2', 0], 34, ['12-4', 315]]

$$$$
