
     RDKit          3D

 52 56  0  0  1  0  0  0  0  0999 V2000
   40.4560   77.9830   61.1610 C   0  0  0  0  0  0  0  0  0  0  0  0
   40.9610   77.6820   59.8540 C   0  0  0  0  0  0  0  0  0  0  0  0
   41.3190   78.7190   59.0760 C   0  0  0  0  0  0  0  0  0  0  0  0
   41.2000   79.9810   59.5060 N   0  0  0  0  0  0  0  0  0  0  0  0
   40.7280   80.2540   60.7230 C   0  0  0  0  0  0  0  0  0  0  0  0
   40.3670   79.2950   61.5320 N   0  0  0  0  0  0  0  0  0  0  0  0
   40.5260   81.6080   61.3180 C   0  0  1  0  0  0  0  0  0  0  0  0
   39.3160   82.1530   61.5270 N   0  0  0  0  0  0  0  0  0  0  0  0
   39.0660   83.2980   62.1280 C   0  0  0  0  0  0  0  0  0  0  0  0
   40.0530   83.9870   62.7170 N   0  0  0  0  0  0  0  0  0  0  0  0
   41.3210   83.4580   62.6860 C   0  0  0  0  0  0  0  0  0  0  0  0
   42.3160   84.1410   63.3420 C   0  0  0  0  0  0  0  0  0  0  0  0
   43.5770   83.6140   63.3940 C   0  0  0  0  0  0  0  0  0  0  0  0
   43.7870   82.4010   62.7710 C   0  0  0  0  0  0  0  0  0  0  0  0
   42.7490   81.7650   62.1260 C   0  0  0  0  0  0  0  0  0  0  0  0
   41.4920   82.2510   62.0520 C   0  0  0  0  0  0  0  0  0  0  0  0
   41.0220   76.2950   59.4620 C   0  0  0  0  0  0  0  0  0  0  0  0
   42.0380   75.4770   59.8150 C   0  0  0  0  0  0  0  0  0  0  0  0
   42.1140   74.1430   59.4990 C   0  0  0  0  0  0  0  0  0  0  0  0
   41.0870   73.5940   58.7780 C   0  0  0  0  0  0  0  0  0  0  0  0
   40.0630   74.3870   58.4170 C   0  0  0  0  0  0  0  0  0  0  0  0
   39.9780   75.7530   58.7270 C   0  0  0  0  0  0  0  0  0  0  0  0
   38.8940   73.9090   57.7710 N   0  0  0  0  0  0  0  0  0  0  0  0
   38.8840   76.4910   58.2180 C   0  0  1  0  0  0  0  0  0  0  0  0
   37.7350   76.4070   58.8400 O   0  0  0  0  0  0  0  0  0  0  0  0
   40.5610   76.2810   55.6600 Cl  0  0  0  0  0  0  0  0  0  0  0  0
   39.1760   77.3600   56.0130 C   0  0  0  0  0  0  0  0  0  0  0  0
   38.3780   77.3890   57.2030 C   0  0  0  0  0  0  0  0  0  0  0  0
   37.4160   78.3260   57.0080 C   0  0  0  0  0  0  0  0  0  0  0  0
   37.1310   79.1540   55.9720 C   0  0  0  0  0  0  0  0  0  0  0  0
   37.9660   79.0390   54.8930 C   0  0  0  0  0  0  0  0  0  0  0  0
   37.6420   80.0980   53.5340 Cl  0  0  0  0  0  0  0  0  0  0  0  0
   39.0130   78.1570   54.8480 C   0  0  0  0  0  0  0  0  0  0  0  0
   40.1485   77.1798   61.8467 H   0  0  0  0  0  0  0  0  0  0  0  0
   41.7166   78.5267   58.0686 H   0  0  0  0  0  0  0  0  0  0  0  0
   40.7528   81.7295   60.2485 H   0  0  0  0  0  0  0  0  0  0  0  0
   38.0391   83.6918   62.1466 H   0  0  0  0  0  0  0  0  0  0  0  0
   39.8665   84.8879   63.1800 H   0  0  0  0  0  0  0  0  0  0  0  0
   42.0998   85.1064   63.8228 H   0  0  0  0  0  0  0  0  0  0  0  0
   44.3933   84.1377   63.9131 H   0  0  0  0  0  0  0  0  0  0  0  0
   44.7858   81.9405   62.7894 H   0  0  0  0  0  0  0  0  0  0  0  0
   42.9578   80.8002   61.6407 H   0  0  0  0  0  0  0  0  0  0  0  0
   42.8638   75.9112   60.3976 H   0  0  0  0  0  0  0  0  0  0  0  0
   42.9735   73.5337   59.8153 H   0  0  0  0  0  0  0  0  0  0  0  0
   41.0997   72.5296   58.5009 H   0  0  0  0  0  0  0  0  0  0  0  0
   38.8287   72.9203   57.4898 H   0  0  0  0  0  0  0  0  0  0  0  0
   38.1105   74.5506   57.5832 H   0  0  0  0  0  0  0  0  0  0  0  0
   38.6031   75.6372   57.5838 H   0  0  0  0  0  0  0  0  0  0  0  0
   37.8876   76.4182   59.8181 H   0  0  0  0  0  0  0  0  0  0  0  0
   36.7299   78.4362   57.8608 H   0  0  0  0  0  0  0  0  0  0  0  0
   36.2918   79.8647   55.9969 H   0  0  0  0  0  0  0  0  0  0  0  0
   39.6776   78.0721   53.9756 H   0  0  0  0  0  0  0  0  0  0  0  0
  1  6  2  0
  2  1  1  0
  3  4  1  0
  3  2  2  0
  4  5  2  0
  5  7  1  0
  5  6  1  0
  7  8  1  0
  7 16  1  0
  8  9  2  0
  9 10  1  0
 11 10  1  0
 11 12  2  0
 12 13  1  0
 14 13  2  0
 15 14  1  0
 16 15  2  0
 16 11  1  0
 17 18  2  0
 17  2  1  0
 19 18  1  0
 20 19  2  0
 21 22  2  0
 21 20  1  0
 22 17  1  0
 23 21  1  0
 24 22  1  0
 24 25  1  0
 26 27  1  0
 27 28  2  0
 28 24  1  0
 29 28  1  0
 30 29  2  0
 31 30  1  0
 32 31  1  0
 33 31  2  0
 33 27  1  0
  1 34  1  0
  3 35  1  0
  7 36  1  6
  9 37  1  0
 10 38  1  0
 12 39  1  0
 13 40  1  0
 14 41  1  0
 15 42  1  0
 18 43  1  0
 19 44  1  0
 20 45  1  0
 23 46  1  0
 23 47  1  0
 24 48  1  6
 25 49  1  0
 29 50  1  0
 30 51  1  0
 33 52  1  0
M  END
>  <Score>  (1) 
-7.32195

>  <Score_dual>  (1) 
-7.37

>  <Choices>  (1) 
[None, 7, ['1-28', 285], 18, ['0-4', 0], 19, ['47-24', 75], 33, ['5-9', 210], 39, ['29-8', 225]]

$$$$
