
     RDKit          3D

 50 55  0  0  1  0  0  0  0  0999 V2000
   40.1450   81.8500   57.7430 C   0  0  1  0  0  0  0  0  0  0  0  0
   41.2380   81.1430   56.9380 C   0  0  0  0  0  0  0  0  0  0  0  0
   40.4450   80.4570   57.9910 C   0  0  2  0  0  0  0  0  0  0  0  0
   40.6130   77.8280   59.1750 F   0  0  0  0  0  0  0  0  0  0  0  0
   39.6260   78.0620   58.3160 C   0  0  0  0  0  0  0  0  0  0  0  0
   39.5750   79.3190   57.7680 C   0  0  0  0  0  0  0  0  0  0  0  0
   38.5420   79.5630   56.8650 C   0  0  0  0  0  0  0  0  0  0  0  0
   37.6170   78.6040   56.5370 C   0  0  0  0  0  0  0  0  0  0  0  0
   37.7400   77.3660   57.1330 C   0  0  0  0  0  0  0  0  0  0  0  0
   38.7240   77.0600   58.0220 C   0  0  0  0  0  0  0  0  0  0  0  0
   38.8930   75.7690   58.6770 C   0  0  0  0  0  0  0  0  0  0  0  0
   38.0810   75.5690   59.7830 C   0  0  0  0  0  0  0  0  0  0  0  0
   38.1430   74.3770   60.5010 C   0  0  0  0  0  0  0  0  0  0  0  0
   39.0300   73.3860   60.0950 C   0  0  0  0  0  0  0  0  0  0  0  0
   39.8380   73.5910   58.9900 C   0  0  0  0  0  0  0  0  0  0  0  0
   40.7450   72.6350   58.5380 C   0  0  0  0  0  0  0  0  0  0  0  0
   41.5340   72.8600   57.4420 C   0  0  0  0  0  0  0  0  0  0  0  0
   41.4250   74.0670   56.7710 C   0  0  0  0  0  0  0  0  0  0  0  0
   40.5420   75.0680   57.1650 C   0  0  0  0  0  0  0  0  0  0  0  0
   39.7720   74.7760   58.2820 C   0  0  0  0  0  0  0  0  0  0  0  0
   41.1410   83.8010   60.6870 C   0  0  0  0  0  0  0  0  0  0  0  0
   41.7060   84.9650   60.1100 C   0  0  0  0  0  0  0  0  0  0  0  0
   41.7440   85.0590   58.7120 C   0  0  0  0  0  0  0  0  0  0  0  0
   41.2360   84.0290   57.9910 N   0  0  0  0  0  0  0  0  0  0  0  0
   40.7120   82.9470   58.5820 C   0  0  0  0  0  0  0  0  0  0  0  0
   40.6510   82.8070   59.9270 N   0  0  0  0  0  0  0  0  0  0  0  0
   41.1070   83.7600   62.1330 C   0  0  0  0  0  0  0  0  0  0  0  0
   41.8830   84.4940   62.9970 C   0  0  0  0  0  0  0  0  0  0  0  0
   41.4470   84.0790   64.2840 C   0  0  0  0  0  0  0  0  0  0  0  0
   40.4730   83.1580   64.1470 N   0  0  0  0  0  0  0  0  0  0  0  0
   40.2770   82.9740   62.8580 N   0  0  0  0  0  0  0  0  0  0  0  0
   39.1827   82.3604   57.5896 H   0  0  0  0  0  0  0  0  0  0  0  0
   41.0808   80.9023   55.8762 H   0  0  0  0  0  0  0  0  0  0  0  0
   42.3053   81.3107   56.7313 H   0  0  0  0  0  0  0  0  0  0  0  0
   40.6867   79.8923   58.9035 H   0  0  0  0  0  0  0  0  0  0  0  0
   38.4656   80.5569   56.3999 H   0  0  0  0  0  0  0  0  0  0  0  0
   36.8062   78.8149   55.8242 H   0  0  0  0  0  0  0  0  0  0  0  0
   37.0063   76.5875   56.8770 H   0  0  0  0  0  0  0  0  0  0  0  0
   37.3819   76.3584   60.0961 H   0  0  0  0  0  0  0  0  0  0  0  0
   37.4982   74.2215   61.3785 H   0  0  0  0  0  0  0  0  0  0  0  0
   39.0895   72.4393   60.6519 H   0  0  0  0  0  0  0  0  0  0  0  0
   40.8291   71.6780   59.0737 H   0  0  0  0  0  0  0  0  0  0  0  0
   42.2443   72.0933   57.0991 H   0  0  0  0  0  0  0  0  0  0  0  0
   42.0620   74.2413   55.8913 H   0  0  0  0  0  0  0  0  0  0  0  0
   40.4601   76.0246   56.6281 H   0  0  0  0  0  0  0  0  0  0  0  0
   42.1039   85.7728   60.7417 H   0  0  0  0  0  0  0  0  0  0  0  0
   42.1729   85.9415   58.2148 H   0  0  0  0  0  0  0  0  0  0  0  0
   42.6609   85.2314   62.7499 H   0  0  0  0  0  0  0  0  0  0  0  0
   41.8421   84.4508   65.2409 H   0  0  0  0  0  0  0  0  0  0  0  0
   39.9724   82.6838   64.9121 H   0  0  0  0  0  0  0  0  0  0  0  0
  1  3  1  0
  1 25  1  0
  2  1  1  0
  2  3  1  0
  5  4  1  0
  6  3  1  0
  6  5  2  0
  7  6  1  0
  8  7  2  0
  8  9  1  0
  9 10  2  0
 10  5  1  0
 10 11  1  0
 11 12  2  0
 12 13  1  0
 14 13  2  0
 15 14  1  0
 16 15  2  0
 17 16  1  0
 18 19  1  0
 18 17  2  0
 19 20  2  0
 20 11  1  0
 20 15  1  0
 21 27  1  0
 22 21  2  0
 23 22  1  0
 24 25  1  0
 24 23  2  0
 25 26  2  0
 26 21  1  0
 27 31  2  0
 27 28  1  0
 28 29  2  0
 30 29  1  0
 31 30  1  0
  1 32  1  6
  2 33  1  0
  2 34  1  0
  3 35  1  1
  7 36  1  0
  8 37  1  0
  9 38  1  0
 12 39  1  0
 13 40  1  0
 14 41  1  0
 16 42  1  0
 17 43  1  0
 18 44  1  0
 19 45  1  0
 22 46  1  0
 23 47  1  0
 28 48  1  0
 29 49  1  0
 30 50  1  0
M  END
>  <Score>  (1) 
-7.45101

>  <Score_dual>  (1) 
-7.59

>  <Choices>  (1) 
[None, 6, ['22-8', 120], 13, ['16-22', 285], 23, ['9-15', 180], 33, ['26-22', 210]]

$$$$
