
     RDKit          3D

 46 49  0  0  0  0  0  0  0  0999 V2000
   41.0080   82.3220   60.3660 C   0  0  0  0  0  0  0  0  0  0  0  0
   40.9970   83.6010   60.8470 C   0  0  0  0  0  0  0  0  0  0  0  0
   40.8900   84.6090   59.9470 C   0  0  0  0  0  0  0  0  0  0  0  0
   40.7940   84.3560   58.5660 C   0  0  0  0  0  0  0  0  0  0  0  0
   40.8120   83.0260   58.1540 C   0  0  0  0  0  0  0  0  0  0  0  0
   40.9180   81.9930   59.0190 C   0  0  0  0  0  0  0  0  0  0  0  0
   42.3390   84.5050   64.2720 C   0  0  0  0  0  0  0  0  0  0  0  0
   42.2400   84.3100   62.8930 C   0  0  0  0  0  0  0  0  0  0  0  0
   41.0980   83.8020   62.2670 C   0  0  0  0  0  0  0  0  0  0  0  0
   40.0830   83.5090   63.1080 N   0  0  0  0  0  0  0  0  0  0  0  0
   40.1580   83.6880   64.4380 C   0  0  0  0  0  0  0  0  0  0  0  0
   41.2700   84.1810   65.0240 N   0  0  0  0  0  0  0  0  0  0  0  0
   41.1190   81.2530   61.2680 O   0  0  0  0  0  0  0  0  0  0  0  0
   40.9310   80.7020   58.5770 O   0  0  0  0  0  0  0  0  0  0  0  0
   40.6610   77.9210   59.8710 Cl  0  0  0  0  0  0  0  0  0  0  0  0
   39.7660   78.7070   58.5700 C   0  0  0  0  0  0  0  0  0  0  0  0
   39.9440   79.9520   58.0420 C   0  0  0  0  0  0  0  0  0  0  0  0
   39.1110   80.3210   57.0290 C   0  0  0  0  0  0  0  0  0  0  0  0
   38.1180   79.5520   56.5020 C   0  0  0  0  0  0  0  0  0  0  0  0
   37.9480   78.2910   57.0450 C   0  0  0  0  0  0  0  0  0  0  0  0
   38.7690   77.8620   58.0800 C   0  0  0  0  0  0  0  0  0  0  0  0
   38.4100   76.2410   58.6430 Cl  0  0  0  0  0  0  0  0  0  0  0  0
   36.8740   77.4280   56.4960 C   0  0  0  0  0  0  0  0  0  0  0  0
   35.8260   77.2510   57.1530 O   0  0  0  0  0  0  0  0  0  0  0  0
   37.0610   76.8170   55.2300 N   0  0  0  0  0  0  0  0  0  0  0  0
   37.6600   75.5140   55.0220 C   0  0  0  0  0  0  0  0  0  0  0  0
   38.3740   75.7170   53.7120 C   0  0  0  0  0  0  0  0  0  0  0  0
   37.9170   77.0180   53.1220 C   0  0  0  0  0  0  0  0  0  0  0  0
   36.6930   77.3730   53.9410 C   0  0  0  0  0  0  0  0  0  0  0  0
   40.8779   85.6492   60.3046 H   0  0  0  0  0  0  0  0  0  0  0  0
   40.7080   85.1776   57.8397 H   0  0  0  0  0  0  0  0  0  0  0  0
   40.7367   82.8068   57.0787 H   0  0  0  0  0  0  0  0  0  0  0  0
   43.2558   84.9081   64.7270 H   0  0  0  0  0  0  0  0  0  0  0  0
   43.1060   84.5697   62.2664 H   0  0  0  0  0  0  0  0  0  0  0  0
   39.2924   83.4265   65.0643 H   0  0  0  0  0  0  0  0  0  0  0  0
   41.1282   80.3215   60.9329 H   0  0  0  0  0  0  0  0  0  0  0  0
   39.2523   81.3243   56.6007 H   0  0  0  0  0  0  0  0  0  0  0  0
   37.4809   79.9166   55.6828 H   0  0  0  0  0  0  0  0  0  0  0  0
   38.3643   75.2622   55.8286 H   0  0  0  0  0  0  0  0  0  0  0  0
   36.9376   74.6845   55.0150 H   0  0  0  0  0  0  0  0  0  0  0  0
   39.4604   75.7469   53.8815 H   0  0  0  0  0  0  0  0  0  0  0  0
   38.1465   74.8889   53.0246 H   0  0  0  0  0  0  0  0  0  0  0  0
   38.6944   77.7895   53.2238 H   0  0  0  0  0  0  0  0  0  0  0  0
   37.7036   76.9464   52.0453 H   0  0  0  0  0  0  0  0  0  0  0  0
   36.5443   78.4615   53.9967 H   0  0  0  0  0  0  0  0  0  0  0  0
   35.7449   76.9922   53.5335 H   0  0  0  0  0  0  0  0  0  0  0  0
  1  2  2  0
  1 13  1  0
  2  9  1  0
  3  2  1  0
  4  3  2  0
  5  4  1  0
  5  6  2  0
  6  1  1  0
  7 12  2  0
  8  7  1  0
  9  8  2  0
  9 10  1  0
 10 11  2  0
 11 12  1  0
 14  6  1  0
 16 15  1  0
 17 16  2  0
 17 14  1  0
 18 17  1  0
 19 18  2  0
 19 20  1  0
 20 21  2  0
 21 16  1  0
 21 22  1  0
 23 20  1  0
 23 24  2  0
 25 23  1  0
 26 25  1  0
 27 26  1  0
 28 27  1  0
 28 29  1  0
 29 25  1  0
  3 30  1  0
  4 31  1  0
  5 32  1  0
  7 33  1  0
  8 34  1  0
 11 35  1  0
 13 36  1  0
 18 37  1  0
 19 38  1  0
 26 39  1  0
 26 40  1  0
 27 41  1  0
 27 42  1  0
 28 43  1  0
 28 44  1  0
 29 45  1  0
 29 46  1  0
M  END
>  <Score>  (1) 
-7.06917

>  <Score_dual>  (1) 
-7.4

>  <Choices>  (1) 
[None, 8, ['35-27', 345], 21, ['51-23', 75], 31, ['5-11', 300], 33, ['13-1', 270]]

$$$$
