
     RDKit          3D

 41 43  0  0  0  0  0  0  0  0999 V2000
   41.4900   78.7340   58.4010 C   0  0  0  0  0  0  0  0  0  0  0  0
   40.7120   80.4100   61.6440 C   0  0  0  0  0  0  0  0  0  0  0  0
   41.0000   80.1810   60.3240 C   0  0  0  0  0  0  0  0  0  0  0  0
   41.1850   78.8940   59.8150 C   0  0  0  0  0  0  0  0  0  0  0  0
   41.0610   77.9080   60.7070 N   0  0  0  0  0  0  0  0  0  0  0  0
   40.7760   78.1400   62.0080 C   0  0  0  0  0  0  0  0  0  0  0  0
   40.6030   79.3910   62.4710 N   0  0  0  0  0  0  0  0  0  0  0  0
   40.5330   81.7880   62.0860 C   0  0  0  0  0  0  0  0  0  0  0  0
   39.8960   82.8000   61.3940 C   0  0  0  0  0  0  0  0  0  0  0  0
   39.9860   83.9060   62.2200 C   0  0  0  0  0  0  0  0  0  0  0  0
   40.6280   83.5790   63.3180 N   0  0  0  0  0  0  0  0  0  0  0  0
   40.9640   82.2860   63.2390 N   0  0  0  0  0  0  0  0  0  0  0  0
   40.9230   84.4720   64.4300 C   0  0  0  0  0  0  0  0  0  0  0  0
   42.0880   84.1390   65.0570 F   0  0  0  0  0  0  0  0  0  0  0  0
   39.8630   84.4220   65.3600 F   0  0  0  0  0  0  0  0  0  0  0  0
   40.9510   85.7990   64.0110 F   0  0  0  0  0  0  0  0  0  0  0  0
   40.3390   79.2830   57.6120 C   0  0  0  0  0  0  0  0  0  0  0  0
   39.1380   78.5230   57.4640 C   0  0  0  0  0  0  0  0  0  0  0  0
   37.9530   78.8620   56.8670 C   0  0  0  0  0  0  0  0  0  0  0  0
   36.8330   78.0600   56.7780 C   0  0  0  0  0  0  0  0  0  0  0  0
   36.9460   76.8340   57.3460 N   0  0  0  0  0  0  0  0  0  0  0  0
   38.1000   76.4570   57.9490 C   0  0  0  0  0  0  0  0  0  0  0  0
   39.1290   77.2880   57.9880 N   0  0  0  0  0  0  0  0  0  0  0  0
   38.7010   75.7950   60.7080 N   0  0  0  0  0  0  0  0  0  0  0  0
   38.0610   74.9910   59.9350 C   0  0  0  0  0  0  0  0  0  0  0  0
   38.1320   75.1540   58.5240 N   0  0  0  0  0  0  0  0  0  0  0  0
   37.2750   73.9230   60.4960 N   0  0  0  0  0  0  0  0  0  0  0  0
   39.2790   76.5700   60.3640 H   0  0  0  0  0  0  0  0  0  0  0  0
   42.4090   79.2853   58.1529 H   0  0  0  0  0  0  0  0  0  0  0  0
   41.6441   77.6714   58.1619 H   0  0  0  0  0  0  0  0  0  0  0  0
   41.0884   81.0399   59.6425 H   0  0  0  0  0  0  0  0  0  0  0  0
   40.6839   77.2903   62.7005 H   0  0  0  0  0  0  0  0  0  0  0  0
   39.4214   82.7395   60.4035 H   0  0  0  0  0  0  0  0  0  0  0  0
   39.5827   84.9038   61.9926 H   0  0  0  0  0  0  0  0  0  0  0  0
   40.0549   80.2335   58.0872 H   0  0  0  0  0  0  0  0  0  0  0  0
   40.7362   79.3236   56.5870 H   0  0  0  0  0  0  0  0  0  0  0  0
   37.8878   79.8640   56.4178 H   0  0  0  0  0  0  0  0  0  0  0  0
   35.9107   78.3932   56.2797 H   0  0  0  0  0  0  0  0  0  0  0  0
   38.2069   74.3265   57.9153 H   0  0  0  0  0  0  0  0  0  0  0  0
   36.7629   73.2797   59.8756 H   0  0  0  0  0  0  0  0  0  0  0  0
   37.2249   73.8023   61.5177 H   0  0  0  0  0  0  0  0  0  0  0  0
  1  4  1  0
  2  8  1  0
  2  7  1  0
  3  2  2  0
  4  3  1  0
  4  5  2  0
  5  6  1  0
  6  7  2  0
  8 12  2  0
  9  8  1  0
  9 10  2  0
 10 11  1  0
 11 13  1  0
 12 11  1  0
 13 14  1  0
 13 15  1  0
 16 13  1  0
 17  1  1  0
 18 17  1  0
 18 23  1  0
 19 18  2  0
 20 19  1  0
 20 21  2  0
 21 22  1  0
 22 23  2  0
 22 26  1  0
 25 27  1  0
 25 24  2  0
 26 25  1  0
 28 24  1  0
  1 29  1  0
  1 30  1  0
  3 31  1  0
  6 32  1  0
  9 33  1  0
 10 34  1  0
 17 35  1  0
 17 36  1  0
 19 37  1  0
 20 38  1  0
 26 39  1  0
 27 40  1  0
 27 41  1  0
M  END
>  <Score>  (1) 
-7.25605

>  <Score_dual>  (1) 
-7.33

>  <Choices>  (1) 
[None, 6, ['22-8', 120], 16, ['11-3', 255], 18, ['4-11', 330], 25, ['19-12', 285], 33, ['48-9', 75]]

$$$$
