
     RDKit          3D

 45 48  0  0  0  0  0  0  0  0999 V2000
   44.6840   79.1000   62.2450 C   0  0  0  0  0  0  0  0  0  0  0  0
   45.3590   78.3060   62.9390 O   0  0  0  0  0  0  0  0  0  0  0  0
   42.3650   77.5550   62.3790 F   0  0  0  0  0  0  0  0  0  0  0  0
   42.8480   77.7760   61.1460 C   0  0  0  0  0  0  0  0  0  0  0  0
   43.9970   78.5410   61.0590 C   0  0  0  0  0  0  0  0  0  0  0  0
   44.5750   78.8270   59.8340 C   0  0  0  0  0  0  0  0  0  0  0  0
   44.0200   78.3550   58.6410 C   0  0  0  0  0  0  0  0  0  0  0  0
   42.8790   77.6010   58.7780 C   0  0  0  0  0  0  0  0  0  0  0  0
   42.2880   77.3030   59.9750 C   0  0  0  0  0  0  0  0  0  0  0  0
   42.9840   74.5400   60.6730 Cl  0  0  0  0  0  0  0  0  0  0  0  0
   41.3490   75.1740   60.4630 C   0  0  0  0  0  0  0  0  0  0  0  0
   41.0770   76.5030   60.1290 C   0  0  0  0  0  0  0  0  0  0  0  0
   39.7620   76.9000   59.9870 C   0  0  0  0  0  0  0  0  0  0  0  0
   38.7480   75.9810   60.1770 C   0  0  0  0  0  0  0  0  0  0  0  0
   39.0050   74.6710   60.5050 C   0  0  0  0  0  0  0  0  0  0  0  0
   40.3380   74.2750   60.6480 C   0  0  0  0  0  0  0  0  0  0  0  0
   40.6400   72.5940   61.0700 Cl  0  0  0  0  0  0  0  0  0  0  0  0
   43.2910   82.4320   62.5580 C   0  0  0  0  0  0  0  0  0  0  0  0
   44.3000   83.1900   63.1270 C   0  0  0  0  0  0  0  0  0  0  0  0
   45.4920   82.5160   63.4060 C   0  0  0  0  0  0  0  0  0  0  0  0
   45.5830   81.2070   63.1120 N   0  0  0  0  0  0  0  0  0  0  0  0
   44.5510   80.5240   62.5520 C   0  0  0  0  0  0  0  0  0  0  0  0
   43.3850   81.1360   62.2690 N   0  0  0  0  0  0  0  0  0  0  0  0
   42.0000   83.0220   62.2210 N   0  0  0  0  0  0  0  0  0  0  0  0
   41.9250   83.3640   60.8710 C   0  0  0  0  0  0  0  0  0  0  0  0
   40.8010   83.9340   60.3370 C   0  0  0  0  0  0  0  0  0  0  0  0
   39.7260   84.1640   61.1820 C   0  0  0  0  0  0  0  0  0  0  0  0
   38.6720   84.6840   60.7400 O   0  0  0  0  0  0  0  0  0  0  0  0
   39.8490   83.8230   62.4460 N   0  0  0  0  0  0  0  0  0  0  0  0
   40.9390   83.2670   62.9770 C   0  0  0  0  0  0  0  0  0  0  0  0
   41.1270   82.9230   64.1380 O   0  0  0  0  0  0  0  0  0  0  0  0
   40.7080   84.3040   58.9000 C   0  0  0  0  0  0  0  0  0  0  0  0
   40.2810   85.6360   58.7720 F   0  0  0  0  0  0  0  0  0  0  0  0
   41.9130   84.2270   58.2580 F   0  0  0  0  0  0  0  0  0  0  0  0
   39.8350   83.4820   58.2230 F   0  0  0  0  0  0  0  0  0  0  0  0
   45.4892   79.4378   59.7987 H   0  0  0  0  0  0  0  0  0  0  0  0
   44.4661   78.5723   57.6593 H   0  0  0  0  0  0  0  0  0  0  0  0
   42.4093   77.2108   57.8630 H   0  0  0  0  0  0  0  0  0  0  0  0
   39.5234   77.9412   59.7243 H   0  0  0  0  0  0  0  0  0  0  0  0
   37.7038   76.3073   60.0624 H   0  0  0  0  0  0  0  0  0  0  0  0
   38.1839   73.9537   60.6510 H   0  0  0  0  0  0  0  0  0  0  0  0
   44.1711   84.2601   63.3466 H   0  0  0  0  0  0  0  0  0  0  0  0
   46.3420   83.0476   63.8587 H   0  0  0  0  0  0  0  0  0  0  0  0
   42.7901   83.1710   60.2196 H   0  0  0  0  0  0  0  0  0  0  0  0
   39.0479   83.9974   63.0695 H   0  0  0  0  0  0  0  0  0  0  0  0
  1 22  1  0
  1  2  2  0
  4  3  1  0
  5  4  2  0
  5  1  1  0
  6  5  1  0
  7  8  1  0
  7  6  2  0
  8  9  2  0
  9 12  1  0
  9  4  1  0
 11 16  2  0
 11 10  1  0
 12 11  1  0
 13 12  2  0
 13 14  1  0
 14 15  2  0
 15 16  1  0
 16 17  1  0
 18 19  2  0
 19 20  1  0
 21 20  2  0
 22 21  1  0
 23 22  2  0
 23 18  1  0
 24 18  1  0
 24 30  1  0
 25 24  1  0
 26 25  2  0
 26 27  1  0
 27 29  1  0
 28 27  2  0
 29 30  1  0
 30 31  2  0
 32 26  1  0
 33 32  1  0
 34 32  1  0
 35 32  1  0
  6 36  1  0
  7 37  1  0
  8 38  1  0
 13 39  1  0
 14 40  1  0
 15 41  1  0
 19 42  1  0
 20 43  1  0
 25 44  1  0
 29 45  1  0
M  END
>  <Score>  (1) 
-7.30813

>  <Score_dual>  (1) 
-7.71

>  <Choices>  (1) 
[None, 6, ['37-16', 135], 15, ['11-10', 135], 22, ['5-7', 30], 24, ['9-4', 330], 34, ['51-24', 105]]

$$$$
