
     RDKit          3D

 41 44  0  0  0  0  0  0  0  0999 V2000
   40.8240   79.6550   61.2170 C   0  0  0  0  0  0  0  0  0  0  0  0
   40.0570   79.1590   60.1880 C   0  0  0  0  0  0  0  0  0  0  0  0
   40.1120   77.8870   59.6810 C   0  0  0  0  0  0  0  0  0  0  0  0
   41.0100   77.0640   60.2610 N   0  0  0  0  0  0  0  0  0  0  0  0
   41.7860   77.5180   61.2830 C   0  0  0  0  0  0  0  0  0  0  0  0
   41.6790   78.7840   61.7340 N   0  0  0  0  0  0  0  0  0  0  0  0
   44.1240   76.5990   61.9510 C   0  0  0  0  0  0  0  0  0  0  0  0
   44.5350   77.4460   61.1780 O   0  0  0  0  0  0  0  0  0  0  0  0
   42.7460   76.7120   61.9350 N   0  0  0  0  0  0  0  0  0  0  0  0
   44.6420   75.5860   62.8140 C   0  0  0  0  0  0  0  0  0  0  0  0
   44.2640   74.2950   62.8090 N   0  0  0  0  0  0  0  0  0  0  0  0
   44.7400   73.3530   63.6060 C   0  0  0  0  0  0  0  0  0  0  0  0
   45.6830   73.6200   64.5270 N   0  0  0  0  0  0  0  0  0  0  0  0
   46.1380   74.8760   64.6250 C   0  0  0  0  0  0  0  0  0  0  0  0
   47.0960   75.1500   65.5610 C   0  0  0  0  0  0  0  0  0  0  0  0
   47.5930   76.4190   65.7010 C   0  0  0  0  0  0  0  0  0  0  0  0
   47.1050   77.4190   64.8730 C   0  0  0  0  0  0  0  0  0  0  0  0
   46.1410   77.0840   63.9490 C   0  0  0  0  0  0  0  0  0  0  0  0
   45.6060   75.8300   63.7650 C   0  0  0  0  0  0  0  0  0  0  0  0
   39.5410   82.9640   62.1370 C   0  0  0  0  0  0  0  0  0  0  0  0
   40.7000   83.5810   62.6740 C   0  0  0  0  0  0  0  0  0  0  0  0
   41.8720   82.8320   62.6960 C   0  0  0  0  0  0  0  0  0  0  0  0
   41.8580   81.5560   62.2100 N   0  0  0  0  0  0  0  0  0  0  0  0
   40.7180   81.0140   61.7060 C   0  0  0  0  0  0  0  0  0  0  0  0
   39.5850   81.6990   61.6690 N   0  0  0  0  0  0  0  0  0  0  0  0
   43.1250   83.4480   63.2570 C   0  0  0  0  0  0  0  0  0  0  0  0
   42.7390   83.9500   64.4790 F   0  0  0  0  0  0  0  0  0  0  0  0
   44.1370   82.5410   63.4310 F   0  0  0  0  0  0  0  0  0  0  0  0
   43.5690   84.4880   62.4540 F   0  0  0  0  0  0  0  0  0  0  0  0
   40.6740   84.9160   63.1720 N   0  0  0  0  0  0  0  0  0  0  0  0
   39.3321   79.8477   59.7296 H   0  0  0  0  0  0  0  0  0  0  0  0
   39.4654   77.5581   58.8541 H   0  0  0  0  0  0  0  0  0  0  0  0
   42.3022   76.0281   62.5645 H   0  0  0  0  0  0  0  0  0  0  0  0
   44.3554   72.3266   63.5134 H   0  0  0  0  0  0  0  0  0  0  0  0
   47.4715   74.3436   66.2081 H   0  0  0  0  0  0  0  0  0  0  0  0
   48.3632   76.6402   66.4546 H   0  0  0  0  0  0  0  0  0  0  0  0
   47.4778   78.4509   64.9524 H   0  0  0  0  0  0  0  0  0  0  0  0
   45.7656   77.8897   63.3010 H   0  0  0  0  0  0  0  0  0  0  0  0
   38.5947   83.5236   62.1016 H   0  0  0  0  0  0  0  0  0  0  0  0
   41.5308   85.3390   63.5565 H   0  0  0  0  0  0  0  0  0  0  0  0
   39.7984   85.4579   63.1475 H   0  0  0  0  0  0  0  0  0  0  0  0
  1 24  1  0
  1  6  1  0
  2  1  2  0
  3  2  1  0
  3  4  2  0
  4  5  1  0
  5  6  2  0
  5  9  1  0
  7 10  1  0
  8  7  2  0
  9  7  1  0
 10 19  1  0
 11 10  2  0
 11 12  1  0
 12 13  2  0
 13 14  1  0
 14 15  2  0
 15 16  1  0
 17 16  2  0
 18 17  1  0
 19 18  2  0
 19 14  1  0
 20 21  2  0
 21 22  1  0
 21 30  1  0
 22 26  1  0
 23 22  2  0
 24 23  1  0
 25 24  2  0
 25 20  1  0
 26 28  1  0
 26 27  1  0
 29 26  1  0
  2 31  1  0
  3 32  1  0
  9 33  1  0
 12 34  1  0
 15 35  1  0
 16 36  1  0
 17 37  1  0
 18 38  1  0
 20 39  1  0
 30 40  1  0
 30 41  1  0
M  END
>  <Score>  (1) 
-7.19577

>  <Score_dual>  (1) 
-7.29

>  <Choices>  (1) 
[None, 8, ['11-12', 210], 12, ['19-18', 90], 20, ['12-5', 195], 24, ['0-2', 105], 23, ['47-11', 45]]

$$$$
