
     RDKit          3D

 43 47  0  0  0  0  0  0  0  0999 V2000
   40.0800   79.1620   59.9720 C   0  0  0  0  0  0  0  0  0  0  0  0
   40.3520   78.2300   60.9340 C   0  0  0  0  0  0  0  0  0  0  0  0
   40.1310   76.8830   60.7970 C   0  0  0  0  0  0  0  0  0  0  0  0
   39.5980   76.4270   59.6090 C   0  0  0  0  0  0  0  0  0  0  0  0
   39.3240   77.3550   58.6410 C   0  0  0  0  0  0  0  0  0  0  0  0
   39.5600   78.6590   58.8320 N   0  0  0  0  0  0  0  0  0  0  0  0
   37.4380   77.2740   57.0690 C   0  0  0  0  0  0  0  0  0  0  0  0
   38.7580   76.9800   57.3480 C   0  0  0  0  0  0  0  0  0  0  0  0
   39.4510   76.3380   56.3430 C   0  0  0  0  0  0  0  0  0  0  0  0
   38.8450   76.0160   55.1440 C   0  0  0  0  0  0  0  0  0  0  0  0
   39.3290   75.3990   54.0450 N   0  0  0  0  0  0  0  0  0  0  0  0
   38.3560   75.3080   53.1180 C   0  0  0  0  0  0  0  0  0  0  0  0
   37.1990   75.8830   53.6220 C   0  0  0  0  0  0  0  0  0  0  0  0
   37.5230   76.3220   54.8940 C   0  0  0  0  0  0  0  0  0  0  0  0
   36.7860   76.9730   55.8840 C   0  0  0  0  0  0  0  0  0  0  0  0
   40.9460   84.6140   60.3380 F   0  0  0  0  0  0  0  0  0  0  0  0
   40.7430   83.2780   60.3220 C   0  0  0  0  0  0  0  0  0  0  0  0
   40.7820   82.5250   61.4860 C   0  0  0  0  0  0  0  0  0  0  0  0
   40.5600   81.1810   61.3260 C   0  0  0  0  0  0  0  0  0  0  0  0
   40.3140   80.5980   60.1160 C   0  0  0  0  0  0  0  0  0  0  0  0
   40.2830   81.3840   58.9800 C   0  0  0  0  0  0  0  0  0  0  0  0
   40.5010   82.7360   59.0910 C   0  0  0  0  0  0  0  0  0  0  0  0
   41.0490   83.2060   62.7430 C   0  0  0  0  0  0  0  0  0  0  0  0
   42.3270   83.5770   63.1100 C   0  0  0  0  0  0  0  0  0  0  0  0
   42.6160   84.2280   64.3030 C   0  0  0  0  0  0  0  0  0  0  0  0
   41.5370   84.4810   65.0960 N   0  0  0  0  0  0  0  0  0  0  0  0
   40.2790   84.1250   64.7520 C   0  0  0  0  0  0  0  0  0  0  0  0
   40.0550   83.5010   63.5960 N   0  0  0  0  0  0  0  0  0  0  0  0
   40.7778   78.5847   61.8842 H   0  0  0  0  0  0  0  0  0  0  0  0
   40.3723   76.1853   61.6124 H   0  0  0  0  0  0  0  0  0  0  0  0
   39.4006   75.3572   59.4458 H   0  0  0  0  0  0  0  0  0  0  0  0
   36.8579   77.7880   57.8496 H   0  0  0  0  0  0  0  0  0  0  0  0
   40.5081   76.0770   56.4994 H   0  0  0  0  0  0  0  0  0  0  0  0
   40.2923   75.0519   53.9329 H   0  0  0  0  0  0  0  0  0  0  0  0
   38.4619   74.8517   52.1227 H   0  0  0  0  0  0  0  0  0  0  0  0
   36.2263   75.9717   53.1161 H   0  0  0  0  0  0  0  0  0  0  0  0
   35.7293   77.2368   55.7298 H   0  0  0  0  0  0  0  0  0  0  0  0
   40.5812   80.5392   62.2191 H   0  0  0  0  0  0  0  0  0  0  0  0
   40.0858   80.9319   57.9968 H   0  0  0  0  0  0  0  0  0  0  0  0
   40.4809   83.3765   58.1969 H   0  0  0  0  0  0  0  0  0  0  0  0
   43.1563   83.3462   62.4252 H   0  0  0  0  0  0  0  0  0  0  0  0
   43.6388   84.5174   64.5861 H   0  0  0  0  0  0  0  0  0  0  0  0
   39.4399   84.3505   65.4266 H   0  0  0  0  0  0  0  0  0  0  0  0
  1 20  1  0
  1  2  2  0
  3  2  1  0
  4  3  2  0
  5  6  2  0
  5  4  1  0
  6  1  1  0
  7  8  2  0
  8  5  1  0
  9  8  1  0
 10  9  2  0
 11 10  1  0
 12 13  2  0
 12 11  1  0
 13 14  1  0
 14 10  1  0
 14 15  2  0
 15  7  1  0
 17 16  1  0
 17 18  2  0
 18 23  1  0
 19 18  1  0
 20 19  2  0
 21 22  2  0
 21 20  1  0
 22 17  1  0
 23 24  2  0
 23 28  1  0
 24 25  1  0
 25 26  2  0
 27 26  1  0
 28 27  2  0
  2 29  1  0
  3 30  1  0
  4 31  1  0
  7 32  1  0
  9 33  1  0
 11 34  1  0
 12 35  1  0
 13 36  1  0
 15 37  1  0
 19 38  1  0
 21 39  1  0
 22 40  1  0
 24 41  1  0
 25 42  1  0
 27 43  1  0
M  END
>  <Score>  (1) 
-7.30936

>  <Score_dual>  (1) 
-7.91

>  <Choices>  (1) 
[None, 6, ['9-20', 270], 17, ['6-14', 300], 28, ['24-9', 330]]

$$$$
