
     RDKit          3D

 49 53  0  0  1  0  0  0  0  0999 V2000
   43.0480   83.7870   62.8590 C   0  0  0  0  0  0  0  0  0  0  0  0
   43.3960   84.7330   61.8630 C   0  0  0  0  0  0  0  0  0  0  0  0
   44.5980   84.5270   61.1620 C   0  0  0  0  0  0  0  0  0  0  0  0
   45.3520   83.4520   61.4680 N   0  0  0  0  0  0  0  0  0  0  0  0
   44.9900   82.5690   62.4230 C   0  0  0  0  0  0  0  0  0  0  0  0
   43.8560   82.7270   63.1110 N   0  0  0  0  0  0  0  0  0  0  0  0
   41.8180   83.9500   63.6120 C   0  0  0  0  0  0  0  0  0  0  0  0
   40.5720   83.6350   63.2060 C   0  0  0  0  0  0  0  0  0  0  0  0
   39.6960   83.9410   64.2030 N   0  0  0  0  0  0  0  0  0  0  0  0
   40.4430   84.4520   65.2300 C   0  0  0  0  0  0  0  0  0  0  0  0
   41.7360   84.4540   64.8630 N   0  0  0  0  0  0  0  0  0  0  0  0
   40.0980   83.0790   61.9890 C   0  0  0  0  0  0  0  0  0  0  0  0
   39.4740   82.0100   61.8710 O   0  0  0  0  0  0  0  0  0  0  0  0
   40.1310   83.4510   60.6120 N   0  0  0  0  0  0  0  0  0  0  0  0
   39.4910   84.7000   60.4660 C   0  0  0  0  0  0  0  0  0  0  0  0
   39.5540   85.0580   59.0110 C   0  0  0  0  0  0  0  0  0  0  0  0
   40.5680   84.1630   58.4060 C   0  0  0  0  0  0  0  0  0  0  0  0
   40.6190   82.9520   59.2950 C   0  0  2  0  0  0  0  0  0  0  0  0
   39.7890   81.9300   58.8610 O   0  0  0  0  0  0  0  0  0  0  0  0
   45.7680   81.3920   62.7980 C   0  0  0  0  0  0  0  0  0  0  0  0
   45.6710   80.0210   62.7610 C   0  0  0  0  0  0  0  0  0  0  0  0
   46.7960   79.5090   63.2960 N   0  0  0  0  0  0  0  0  0  0  0  0
   47.6040   80.5260   63.6730 C   0  0  0  0  0  0  0  0  0  0  0  0
   46.9720   81.6880   63.3660 N   0  0  0  0  0  0  0  0  0  0  0  0
   47.9040   78.5230   65.9340 Cl  0  0  0  0  0  0  0  0  0  0  0  0
   49.1960   79.5350   65.3320 C   0  0  0  0  0  0  0  0  0  0  0  0
   48.9230   80.4040   64.2970 C   0  0  0  0  0  0  0  0  0  0  0  0
   49.9530   81.1950   63.8350 C   0  0  0  0  0  0  0  0  0  0  0  0
   51.2220   81.1320   64.3780 C   0  0  0  0  0  0  0  0  0  0  0  0
   51.4240   80.2520   65.3980 C   0  0  0  0  0  0  0  0  0  0  0  0
   50.4400   79.4230   65.9190 C   0  0  0  0  0  0  0  0  0  0  0  0
   50.6860   78.2890   67.2280 Cl  0  0  0  0  0  0  0  0  0  0  0  0
   42.7500   85.5965   61.6460 H   0  0  0  0  0  0  0  0  0  0  0  0
   44.9170   85.2301   60.3785 H   0  0  0  0  0  0  0  0  0  0  0  0
   38.6741   83.8132   64.1873 H   0  0  0  0  0  0  0  0  0  0  0  0
   40.0501   84.8029   66.1957 H   0  0  0  0  0  0  0  0  0  0  0  0
   38.4429   84.6278   60.7922 H   0  0  0  0  0  0  0  0  0  0  0  0
   39.9838   85.4677   61.0807 H   0  0  0  0  0  0  0  0  0  0  0  0
   38.5742   84.8990   58.5369 H   0  0  0  0  0  0  0  0  0  0  0  0
   39.8201   86.1161   58.8708 H   0  0  0  0  0  0  0  0  0  0  0  0
   40.2697   83.8785   57.3861 H   0  0  0  0  0  0  0  0  0  0  0  0
   41.5497   84.6532   58.3286 H   0  0  0  0  0  0  0  0  0  0  0  0
   41.6330   82.5262   59.3171 H   0  0  0  0  0  0  0  0  0  0  0  0
   39.4072   81.4599   59.6441 H   0  0  0  0  0  0  0  0  0  0  0  0
   44.8231   79.4435   62.3640 H   0  0  0  0  0  0  0  0  0  0  0  0
   47.0067   78.5063   63.4009 H   0  0  0  0  0  0  0  0  0  0  0  0
   49.7591   81.8966   63.0103 H   0  0  0  0  0  0  0  0  0  0  0  0
   52.0371   81.7675   64.0014 H   0  0  0  0  0  0  0  0  0  0  0  0
   52.4311   80.1947   65.8368 H   0  0  0  0  0  0  0  0  0  0  0  0
  1  6  1  0
  1  7  1  0
  2  1  2  0
  3  4  2  0
  3  2  1  0
  4  5  1  0
  5 20  1  0
  5  6  2  0
  7 11  1  0
  8  7  2  0
  8  9  1  0
  9 10  1  0
 11 10  2  0
 12  8  1  0
 13 12  2  0
 14 12  1  0
 15 14  1  0
 16 15  1  0
 17 16  1  0
 17 18  1  0
 18 14  1  0
 19 18  1  0
 20 24  1  0
 21 20  2  0
 21 22  1  0
 22 23  1  0
 23 27  1  0
 24 23  2  0
 26 31  2  0
 26 25  1  0
 27 26  1  0
 28 27  2  0
 28 29  1  0
 29 30  2  0
 30 31  1  0
 31 32  1  0
  2 33  1  0
  3 34  1  0
  9 35  1  0
 10 36  1  0
 15 37  1  0
 15 38  1  0
 16 39  1  0
 16 40  1  0
 17 41  1  0
 17 42  1  0
 18 43  1  1
 19 44  1  0
 21 45  1  0
 22 46  1  0
 28 47  1  0
 29 48  1  0
 30 49  1  0
M  END
>  <Score>  (1) 
-7.22893

>  <Score_dual>  (1) 
-8.17

>  <Choices>  (1) 
[None, 6, ['23-9', 180], 14, ['5-8', 345], 18, ['13-1', 120], 30, ['2-1', 330], 31, ['23-6', 210], 38, ['51-25', 75]]

$$$$
