
     RDKit          3D

 46 50  0  0  1  0  0  0  0  0999 V2000
   41.3660   80.2230   59.7280 C   0  0  2  0  0  0  0  0  0  0  0  0
   42.8630   79.8930   59.6110 C   0  0  0  0  0  0  0  0  0  0  0  0
   43.1820   80.3370   58.2020 C   0  0  0  0  0  0  0  0  0  0  0  0
   42.0210   80.4180   57.4950 O   0  0  0  0  0  0  0  0  0  0  0  0
   40.9400   80.4970   58.3560 C   0  0  1  0  0  0  0  0  0  0  0  0
   43.1560   86.4580   59.4810 C   0  0  0  0  0  0  0  0  0  0  0  0
   44.2580   86.9150   60.2020 C   0  0  0  0  0  0  0  0  0  0  0  0
   44.6110   86.2090   61.3640 C   0  0  0  0  0  0  0  0  0  0  0  0
   43.8690   85.1120   61.7430 N   0  0  0  0  0  0  0  0  0  0  0  0
   42.8300   84.7150   61.0260 C   0  0  0  0  0  0  0  0  0  0  0  0
   42.4660   85.3910   59.8850 N   0  0  0  0  0  0  0  0  0  0  0  0
   42.0010   83.5990   61.3320 N   0  0  0  0  0  0  0  0  0  0  0  0
   42.0460   82.5130   60.5230 C   0  0  0  0  0  0  0  0  0  0  0  0
   41.2960   81.3560   60.6740 C   0  0  0  0  0  0  0  0  0  0  0  0
   40.4380   81.3460   61.7540 C   0  0  0  0  0  0  0  0  0  0  0  0
   39.7400   80.3040   61.9180 O   0  0  0  0  0  0  0  0  0  0  0  0
   40.3780   82.4340   62.5820 N   0  0  0  0  0  0  0  0  0  0  0  0
   41.1250   83.5340   62.3960 C   0  0  0  0  0  0  0  0  0  0  0  0
   41.0960   84.5330   63.1220 O   0  0  0  0  0  0  0  0  0  0  0  0
   39.8680   79.6830   57.8440 N   0  0  0  0  0  0  0  0  0  0  0  0
   39.1260   80.0000   56.7580 C   0  0  0  0  0  0  0  0  0  0  0  0
   38.2240   79.0300   56.5640 N   0  0  0  0  0  0  0  0  0  0  0  0
   38.3910   78.1100   57.5130 C   0  0  0  0  0  0  0  0  0  0  0  0
   37.8060   76.9110   57.8620 C   0  0  2  0  0  0  0  0  0  0  0  0
   38.1900   76.1570   58.9130 N   0  0  0  0  0  0  0  0  0  0  0  0
   39.2080   76.5730   59.6960 C   0  0  0  0  0  0  0  0  0  0  0  0
   39.7870   77.7370   59.3710 N   0  0  0  0  0  0  0  0  0  0  0  0
   39.4280   78.4960   58.3440 C   0  0  0  0  0  0  0  0  0  0  0  0
   36.7280   76.4180   57.0770 N   0  0  0  0  0  0  0  0  0  0  0  0
   40.6969   79.4439   60.1221 H   0  0  0  0  0  0  0  0  0  0  0  0
   43.4537   80.4553   60.3491 H   0  0  0  0  0  0  0  0  0  0  0  0
   43.0970   78.8355   59.8030 H   0  0  0  0  0  0  0  0  0  0  0  0
   43.6698   81.3226   58.2263 H   0  0  0  0  0  0  0  0  0  0  0  0
   43.8602   79.6134   57.7261 H   0  0  0  0  0  0  0  0  0  0  0  0
   40.5276   81.5156   58.4056 H   0  0  0  0  0  0  0  0  0  0  0  0
   42.8511   86.9855   58.5651 H   0  0  0  0  0  0  0  0  0  0  0  0
   44.8297   87.7954   59.8734 H   0  0  0  0  0  0  0  0  0  0  0  0
   45.4735   86.5297   61.9668 H   0  0  0  0  0  0  0  0  0  0  0  0
   42.7395   82.5524   59.6700 H   0  0  0  0  0  0  0  0  0  0  0  0
   39.7312   82.4078   63.3832 H   0  0  0  0  0  0  0  0  0  0  0  0
   39.2439   80.9019   56.1393 H   0  0  0  0  0  0  0  0  0  0  0  0
   37.0925   77.4465   58.5056 H   0  0  0  0  0  0  0  0  0  0  0  0
   39.5466   75.9837   60.5609 H   0  0  0  0  0  0  0  0  0  0  0  0
   40.5655   78.0654   59.9600 H   0  0  0  0  0  0  0  0  0  0  0  0
   35.9801   76.0760   57.6971 H   0  0  0  0  0  0  0  0  0  0  0  0
   36.3617   77.1752   56.4826 H   0  0  0  0  0  0  0  0  0  0  0  0
  1 14  1  0
  2  1  1  0
  3  2  1  0
  4  3  1  0
  4  5  1  0
  5  1  1  0
  6 11  2  0
  6  7  1  0
  7  8  2  0
  8  9  1  0
 10 12  1  0
 10  9  2  0
 11 10  1  0
 12 18  1  0
 13 14  2  0
 13 12  1  0
 14 15  1  0
 15 16  2  0
 15 17  1  0
 18 17  1  0
 18 19  2  0
 20 28  1  0
 20  5  1  0
 21 20  1  0
 22 21  2  0
 22 23  1  0
 23 24  1  0
 23 28  2  0
 24 29  1  0
 24 25  1  0
 25 26  2  0
 27 26  1  0
 28 27  1  0
  1 30  1  1
  2 31  1  0
  2 32  1  0
  3 33  1  0
  3 34  1  0
  5 35  1  1
  6 36  1  0
  7 37  1  0
  8 38  1  0
 13 39  1  0
 17 40  1  0
 21 41  1  0
 24 42  1  1
 26 43  1  0
 27 44  1  0
 29 45  1  0
 29 46  1  0
M  END
>  <Score>  (1) 
-7.25567

>  <Score_dual>  (1) 
-7.71

>  <Choices>  (1) 
[None, 9, ['37-15', 30], 18, ['50-26', 285], 30, ['28-8', 300]]

$$$$
