
     RDKit          3D

 51 55  0  0  0  0  0  0  0  0999 V2000
   44.1530   82.7410   61.2450 Cl  0  0  0  0  0  0  0  0  0  0  0  0
   44.2630   81.0460   61.7370 C   0  0  0  0  0  0  0  0  0  0  0  0
   43.2240   80.1750   61.4580 C   0  0  0  0  0  0  0  0  0  0  0  0
   43.3770   78.8930   61.8640 C   0  0  0  0  0  0  0  0  0  0  0  0
   44.4880   78.4180   62.5270 C   0  0  0  0  0  0  0  0  0  0  0  0
   45.4850   79.3310   62.7760 C   0  0  0  0  0  0  0  0  0  0  0  0
   45.4240   80.6450   62.4060 C   0  0  0  0  0  0  0  0  0  0  0  0
   45.6320   76.7950   63.9260 C   0  0  0  0  0  0  0  0  0  0  0  0
   44.6550   77.0420   62.9660 C   0  0  0  0  0  0  0  0  0  0  0  0
   43.9170   75.9590   62.5010 C   0  0  0  0  0  0  0  0  0  0  0  0
   44.1770   74.6920   63.0020 C   0  0  0  0  0  0  0  0  0  0  0  0
   43.6420   73.4830   62.7500 N   0  0  0  0  0  0  0  0  0  0  0  0
   44.2090   72.5430   63.4700 C   0  0  0  0  0  0  0  0  0  0  0  0
   45.1590   73.1430   64.2330 N   0  0  0  0  0  0  0  0  0  0  0  0
   45.1510   74.4410   63.9600 C   0  0  0  0  0  0  0  0  0  0  0  0
   45.8740   75.5340   64.4100 C   0  0  0  0  0  0  0  0  0  0  0  0
   42.0590   80.7010   60.7550 C   0  0  0  0  0  0  0  0  0  0  0  0
   41.6000   80.0880   59.5950 C   0  0  0  0  0  0  0  0  0  0  0  0
   40.4940   80.5530   58.8900 C   0  0  0  0  0  0  0  0  0  0  0  0
   39.8940   81.6430   59.4040 N   0  0  0  0  0  0  0  0  0  0  0  0
   40.3300   82.2480   60.5290 C   0  0  0  0  0  0  0  0  0  0  0  0
   41.3960   81.7640   61.1720 N   0  0  0  0  0  0  0  0  0  0  0  0
   39.9970   79.9580   57.7110 N   0  0  0  0  0  0  0  0  0  0  0  0
   40.1440   78.5310   57.5070 C   0  0  0  0  0  0  0  0  0  0  0  0
   38.7300   77.9800   57.4130 C   0  0  0  0  0  0  0  0  0  0  0  0
   37.8870   78.6950   56.3920 C   0  0  0  0  0  0  0  0  0  0  0  0
   37.8930   80.1990   56.5480 C   0  0  0  0  0  0  0  0  0  0  0  0
   39.3280   80.6700   56.6470 C   0  0  0  0  0  0  0  0  0  0  0  0
   39.6580   83.4540   61.0900 C   0  0  0  0  0  0  0  0  0  0  0  0
   38.7000   82.9810   61.9820 F   0  0  0  0  0  0  0  0  0  0  0  0
   39.0210   84.1290   60.0880 F   0  0  0  0  0  0  0  0  0  0  0  0
   40.5710   84.2820   61.7380 F   0  0  0  0  0  0  0  0  0  0  0  0
   42.5626   78.1849   61.6512 H   0  0  0  0  0  0  0  0  0  0  0  0
   46.3850   78.9833   63.3043 H   0  0  0  0  0  0  0  0  0  0  0  0
   46.2420   81.3479   62.6222 H   0  0  0  0  0  0  0  0  0  0  0  0
   46.2284   77.6364   64.3085 H   0  0  0  0  0  0  0  0  0  0  0  0
   43.1339   76.1058   61.7425 H   0  0  0  0  0  0  0  0  0  0  0  0
   42.8817   73.3159   62.0756 H   0  0  0  0  0  0  0  0  0  0  0  0
   43.9613   71.4713   63.4577 H   0  0  0  0  0  0  0  0  0  0  0  0
   46.6564   75.3882   65.1693 H   0  0  0  0  0  0  0  0  0  0  0  0
   42.1316   79.2011   59.2198 H   0  0  0  0  0  0  0  0  0  0  0  0
   40.6958   78.3316   56.5765 H   0  0  0  0  0  0  0  0  0  0  0  0
   40.7091   78.0604   58.3250 H   0  0  0  0  0  0  0  0  0  0  0  0
   38.7858   76.9162   57.1386 H   0  0  0  0  0  0  0  0  0  0  0  0
   38.2539   78.1266   58.3937 H   0  0  0  0  0  0  0  0  0  0  0  0
   36.8503   78.3397   56.4867 H   0  0  0  0  0  0  0  0  0  0  0  0
   38.3174   78.4714   55.4047 H   0  0  0  0  0  0  0  0  0  0  0  0
   37.4101   80.6637   55.6757 H   0  0  0  0  0  0  0  0  0  0  0  0
   37.3411   80.4842   57.4558 H   0  0  0  0  0  0  0  0  0  0  0  0
   39.8440   80.4759   55.6951 H   0  0  0  0  0  0  0  0  0  0  0  0
   39.3455   81.7489   56.8607 H   0  0  0  0  0  0  0  0  0  0  0  0
  1  2  1  0
  2  7  2  0
  3  2  1  0
  3  4  2  0
  4  5  1  0
  5  6  2  0
  5  9  1  0
  7  6  1  0
  8 16  2  0
  9  8  1  0
 10  9  2  0
 10 11  1  0
 11 15  2  0
 12 11  1  0
 12 13  1  0
 13 14  2  0
 15 14  1  0
 15 16  1  0
 17 22  1  0
 17  3  1  0
 18 17  2  0
 19 20  2  0
 19 18  1  0
 20 21  1  0
 21 29  1  0
 21 22  2  0
 23 19  1  0
 24 23  1  0
 25 24  1  0
 26 27  1  0
 26 25  1  0
 27 28  1  0
 28 23  1  0
 29 32  1  0
 29 30  1  0
 31 29  1  0
  4 33  1  0
  6 34  1  0
  7 35  1  0
  8 36  1  0
 10 37  1  0
 12 38  1  0
 13 39  1  0
 16 40  1  0
 18 41  1  0
 24 42  1  0
 24 43  1  0
 25 44  1  0
 25 45  1  0
 26 46  1  0
 26 47  1  0
 27 48  1  0
 27 49  1  0
 28 50  1  0
 28 51  1  0
M  END
>  <Score>  (1) 
-7.47732

>  <Score_dual>  (1) 
-7.57

>  <Choices>  (1) 
[None, 6, ['7-19', 90], 17, ['34-24', 330], 32, ['11-14', 60], 35, ['8-4', 210]]

$$$$
