
     RDKit          3D

 53 57  0  0  0  0  0  0  0  0999 V2000
   40.3350   76.7750   60.4090 C   0  0  0  0  0  0  0  0  0  0  0  0
   39.8690   78.4580   58.6030 C   0  0  0  0  0  0  0  0  0  0  0  0
   39.5880   77.2570   59.2660 C   0  0  0  0  0  0  0  0  0  0  0  0
   38.5310   76.5430   58.7520 C   0  0  0  0  0  0  0  0  0  0  0  0
   37.7720   76.9280   57.6720 C   0  0  0  0  0  0  0  0  0  0  0  0
   36.7220   76.3730   57.0400 N   0  0  0  0  0  0  0  0  0  0  0  0
   36.3630   77.1870   56.0290 C   0  0  0  0  0  0  0  0  0  0  0  0
   37.2040   78.2580   56.0410 N   0  0  0  0  0  0  0  0  0  0  0  0
   38.0900   78.1090   57.0620 C   0  0  0  0  0  0  0  0  0  0  0  0
   39.1510   78.9130   57.5080 C   0  0  0  0  0  0  0  0  0  0  0  0
   39.4340   80.1620   56.8090 C   0  0  0  0  0  0  0  0  0  0  0  0
   39.1390   80.0090   55.3180 C   0  0  0  0  0  0  0  0  0  0  0  0
   40.4200   79.8270   54.5270 C   0  0  0  0  0  0  0  0  0  0  0  0
   41.1360   81.0200   54.5510 O   0  0  0  0  0  0  0  0  0  0  0  0
   41.0390   81.6600   55.7620 C   0  0  0  0  0  0  0  0  0  0  0  0
   40.8230   80.6860   56.9300 C   0  0  0  0  0  0  0  0  0  0  0  0
   40.2410   77.4930   61.6990 C   0  0  0  0  0  0  0  0  0  0  0  0
   41.4090   80.9740   61.5730 C   0  0  0  0  0  0  0  0  0  0  0  0
   42.7630   80.8900   61.8090 C   0  0  0  0  0  0  0  0  0  0  0  0
   43.3130   79.6220   62.0190 C   0  0  0  0  0  0  0  0  0  0  0  0
   42.4760   78.5500   61.9770 N   0  0  0  0  0  0  0  0  0  0  0  0
   41.1660   78.6810   61.7440 C   0  0  0  0  0  0  0  0  0  0  0  0
   40.5960   79.8990   61.5350 N   0  0  0  0  0  0  0  0  0  0  0  0
   40.7300   82.2320   61.3410 N   0  0  0  0  0  0  0  0  0  0  0  0
   40.6440   82.5080   59.9920 C   0  0  0  0  0  0  0  0  0  0  0  0
   40.0260   83.6730   59.5450 C   0  0  0  0  0  0  0  0  0  0  0  0
   39.5050   84.5380   60.4980 C   0  0  0  0  0  0  0  0  0  0  0  0
   38.9470   85.5890   60.1150 O   0  0  0  0  0  0  0  0  0  0  0  0
   39.6190   84.2170   61.7760 N   0  0  0  0  0  0  0  0  0  0  0  0
   40.2160   83.0940   62.2050 C   0  0  0  0  0  0  0  0  0  0  0  0
   40.3580   82.7300   63.3700 O   0  0  0  0  0  0  0  0  0  0  0  0
   41.3964   76.7750   60.1200 H   0  0  0  0  0  0  0  0  0  0  0  0
   39.8752   75.7991   60.6238 H   0  0  0  0  0  0  0  0  0  0  0  0
   40.7037   79.0729   58.9706 H   0  0  0  0  0  0  0  0  0  0  0  0
   38.2733   75.5923   59.2417 H   0  0  0  0  0  0  0  0  0  0  0  0
   36.2710   75.4804   57.2866 H   0  0  0  0  0  0  0  0  0  0  0  0
   35.5386   77.0173   55.3208 H   0  0  0  0  0  0  0  0  0  0  0  0
   38.7776   80.8893   57.3092 H   0  0  0  0  0  0  0  0  0  0  0  0
   38.4949   79.1302   55.1670 H   0  0  0  0  0  0  0  0  0  0  0  0
   38.6353   80.9209   54.9648 H   0  0  0  0  0  0  0  0  0  0  0  0
   40.1778   79.5622   53.4872 H   0  0  0  0  0  0  0  0  0  0  0  0
   41.0222   79.0210   54.9717 H   0  0  0  0  0  0  0  0  0  0  0  0
   41.9681   82.2216   55.9390 H   0  0  0  0  0  0  0  0  0  0  0  0
   40.1644   82.3257   55.7176 H   0  0  0  0  0  0  0  0  0  0  0  0
   40.9462   81.2120   57.8882 H   0  0  0  0  0  0  0  0  0  0  0  0
   41.5559   79.8663   56.8982 H   0  0  0  0  0  0  0  0  0  0  0  0
   39.2069   77.8409   61.8388 H   0  0  0  0  0  0  0  0  0  0  0  0
   40.5351   76.7989   62.5001 H   0  0  0  0  0  0  0  0  0  0  0  0
   43.3920   81.7921   61.8316 H   0  0  0  0  0  0  0  0  0  0  0  0
   44.3884   79.4949   62.2121 H   0  0  0  0  0  0  0  0  0  0  0  0
   41.0674   81.8014   59.2630 H   0  0  0  0  0  0  0  0  0  0  0  0
   39.9529   83.9007   58.4713 H   0  0  0  0  0  0  0  0  0  0  0  0
   39.2296   84.8620   62.4783 H   0  0  0  0  0  0  0  0  0  0  0  0
  1 17  1  0
  2  3  2  0
  3  1  1  0
  4  3  1  0
  5  4  2  0
  6  5  1  0
  7  8  2  0
  7  6  1  0
  8  9  1  0
  9 10  2  0
  9  5  1  0
 10  2  1  0
 11 16  1  0
 11 10  1  0
 12 11  1  0
 13 14  1  0
 13 12  1  0
 14 15  1  0
 15 16  1  0
 17 22  1  0
 18 19  2  0
 19 20  1  0
 21 20  2  0
 22 21  1  0
 23 18  1  0
 23 22  2  0
 24 18  1  0
 24 30  1  0
 25 24  1  0
 26 25  2  0
 26 27  1  0
 27 29  1  0
 28 27  2  0
 29 30  1  0
 30 31  2  0
  1 32  1  0
  1 33  1  0
  2 34  1  0
  4 35  1  0
  6 36  1  0
  7 37  1  0
 11 38  1  0
 12 39  1  0
 12 40  1  0
 13 41  1  0
 13 42  1  0
 15 43  1  0
 15 44  1  0
 16 45  1  0
 16 46  1  0
 17 47  1  0
 17 48  1  0
 19 49  1  0
 20 50  1  0
 25 51  1  0
 26 52  1  0
 29 53  1  0
M  END
>  <Score>  (1) 
-7.57795

>  <Score_dual>  (1) 
-7.4

>  <Choices>  (1) 
[None, 6, ['37-16', 135], 19, ['4-9', 270], 25, ['34-15', 255], 38, ['56-23', 105]]

$$$$
