
     RDKit          3D

 57 61  0  0  1  0  0  0  0  0999 V2000
   42.9330   81.3460   61.9790 C   0  0  0  0  0  0  0  0  0  0  0  0
   42.7500   82.6900   62.0670 C   0  0  0  0  0  0  0  0  0  0  0  0
   43.8870   83.4210   62.5320 C   0  0  0  0  0  0  0  0  0  0  0  0
   45.0650   82.8510   62.8650 C   0  0  0  0  0  0  0  0  0  0  0  0
   46.1760   83.3740   63.2970 N   0  0  0  0  0  0  0  0  0  0  0  0
   47.0510   82.3740   63.4810 C   0  0  0  0  0  0  0  0  0  0  0  0
   46.4730   81.1650   63.1540 C   0  0  0  0  0  0  0  0  0  0  0  0
   45.1910   81.4900   62.7570 C   0  0  0  0  0  0  0  0  0  0  0  0
   44.1310   80.7360   62.3150 C   0  0  0  0  0  0  0  0  0  0  0  0
   41.0120   84.0110   60.7170 C   0  0  0  0  0  0  0  0  0  0  0  0
   41.4570   83.1950   61.7080 C   0  0  0  0  0  0  0  0  0  0  0  0
   40.4890   82.7640   62.6300 C   0  0  0  0  0  0  0  0  0  0  0  0
   39.1960   83.1920   62.4680 N   0  0  0  0  0  0  0  0  0  0  0  0
   38.8430   83.9970   61.4730 C   0  0  0  0  0  0  0  0  0  0  0  0
   39.7290   84.4070   60.6050 N   0  0  0  0  0  0  0  0  0  0  0  0
   41.9460   84.3320   59.6880 N   0  0  0  0  0  0  0  0  0  0  0  0
   43.3200   84.3590   59.7030 C   0  0  0  0  0  0  0  0  0  0  0  0
   43.8210   84.5040   58.2650 C   0  0  0  0  0  0  0  0  0  0  0  0
   43.2570   85.6040   57.5790 N   0  0  0  0  0  0  0  0  0  0  0  0
   41.8930   85.9010   57.9330 C   0  0  0  0  0  0  0  0  0  0  0  0
   41.3900   84.6200   58.4210 C   0  0  0  0  0  0  0  0  0  0  0  0
   48.3620   79.9070   64.0920 C   0  0  1  0  0  0  0  0  0  0  0  0
   47.1130   79.8600   63.2260 C   0  0  1  0  0  0  0  0  0  0  0  0
   46.4310   78.7560   63.5240 O   0  0  0  0  0  0  0  0  0  0  0  0
   47.0560   77.6180   63.0940 C   0  0  0  0  0  0  0  0  0  0  0  0
   48.4810   77.4800   63.5440 C   0  0  1  0  0  0  0  0  0  0  0  0
   49.2400   78.7530   63.6470 C   0  0  2  0  0  0  0  0  0  0  0  0
   49.0350   81.1140   63.9590 O   0  0  0  0  0  0  0  0  0  0  0  0
   48.6030   76.7980   64.7600 O   0  0  0  0  0  0  0  0  0  0  0  0
   50.3740   78.5880   64.4100 O   0  0  0  0  0  0  0  0  0  0  0  0
   44.3020   79.3160   62.2100 N   0  0  0  0  0  0  0  0  0  0  0  0
   42.0996   80.7196   61.6282 H   0  0  0  0  0  0  0  0  0  0  0  0
   43.7969   84.5134   62.6241 H   0  0  0  0  0  0  0  0  0  0  0  0
   46.3515   84.3746   63.4668 H   0  0  0  0  0  0  0  0  0  0  0  0
   48.0826   82.5002   63.8414 H   0  0  0  0  0  0  0  0  0  0  0  0
   40.7615   82.0987   63.4626 H   0  0  0  0  0  0  0  0  0  0  0  0
   37.7961   84.3213   61.3788 H   0  0  0  0  0  0  0  0  0  0  0  0
   43.6673   85.2121   60.3042 H   0  0  0  0  0  0  0  0  0  0  0  0
   43.7093   83.4298   60.1447 H   0  0  0  0  0  0  0  0  0  0  0  0
   44.9134   84.6312   58.2882 H   0  0  0  0  0  0  0  0  0  0  0  0
   43.5178   83.5956   57.7239 H   0  0  0  0  0  0  0  0  0  0  0  0
   43.2896   85.4030   56.5693 H   0  0  0  0  0  0  0  0  0  0  0  0
   41.8476   86.6685   58.7197 H   0  0  0  0  0  0  0  0  0  0  0  0
   41.3069   86.3039   57.0939 H   0  0  0  0  0  0  0  0  0  0  0  0
   40.2944   84.6679   58.5066 H   0  0  0  0  0  0  0  0  0  0  0  0
   41.6753   83.8275   57.7135 H   0  0  0  0  0  0  0  0  0  0  0  0
   48.0934   79.8209   65.1552 H   0  0  0  0  0  0  0  0  0  0  0  0
   47.3016   79.7178   62.1517 H   0  0  0  0  0  0  0  0  0  0  0  0
   46.4915   76.7528   63.4719 H   0  0  0  0  0  0  0  0  0  0  0  0
   47.0796   77.6713   61.9955 H   0  0  0  0  0  0  0  0  0  0  0  0
   48.9292   76.8915   62.7299 H   0  0  0  0  0  0  0  0  0  0  0  0
   49.5841   79.0323   62.6402 H   0  0  0  0  0  0  0  0  0  0  0  0
   49.2385   81.4790   64.8565 H   0  0  0  0  0  0  0  0  0  0  0  0
   48.4890   77.4355   65.5088 H   0  0  0  0  0  0  0  0  0  0  0  0
   50.1339   78.6229   65.3698 H   0  0  0  0  0  0  0  0  0  0  0  0
   45.2021   78.8854   62.4656 H   0  0  0  0  0  0  0  0  0  0  0  0
   43.5247   78.7268   61.8790 H   0  0  0  0  0  0  0  0  0  0  0  0
  1  2  2  0
  1  9  1  0
  2  3  1  0
  3  4  2  0
  4  5  1  0
  5  6  1  0
  7  6  2  0
  8  4  1  0
  8  7  1  0
  9  8  2  0
 10 11  1  0
 11  2  1  0
 11 12  2  0
 13 12  1  0
 14 13  2  0
 15 10  2  0
 15 14  1  0
 16 17  1  0
 16 10  1  0
 18 17  1  0
 19 20  1  0
 19 18  1  0
 20 21  1  0
 21 16  1  0
 22 28  1  0
 23  7  1  0
 23 24  1  0
 23 22  1  0
 25 24  1  0
 25 26  1  0
 26 27  1  0
 26 29  1  0
 27 22  1  0
 27 30  1  0
 31  9  1  0
  1 32  1  0
  3 33  1  0
  5 34  1  0
  6 35  1  0
 12 36  1  0
 14 37  1  0
 17 38  1  0
 17 39  1  0
 18 40  1  0
 18 41  1  0
 19 42  1  0
 20 43  1  0
 20 44  1  0
 21 45  1  0
 21 46  1  0
 22 47  1  1
 23 48  1  6
 25 49  1  0
 25 50  1  0
 26 51  1  6
 27 52  1  6
 28 53  1  0
 29 54  1  0
 30 55  1  0
 31 56  1  0
 31 57  1  0
M  END
>  <Score>  (1) 
-7.06606

>  <Score_dual>  (1) 
-7.82

>  <Choices>  (1) 
[None, 6, ['15-7', 30], 12, ['24-8', 60], 37, ['0-2', 0], 37, ['21-22', 300]]

$$$$
