
     RDKit          3D

 53 57  0  0  1  0  0  0  0  0999 V2000
   41.0810   82.7550   62.5250 C   0  0  0  0  0  0  0  0  0  0  0  0
   42.3880   82.9950   62.8200 C   0  0  0  0  0  0  0  0  0  0  0  0
   42.6240   83.8140   63.8780 C   0  0  0  0  0  0  0  0  0  0  0  0
   41.5390   84.3310   64.5610 C   0  0  0  0  0  0  0  0  0  0  0  0
   40.2180   84.0700   64.2390 C   0  0  0  0  0  0  0  0  0  0  0  0
   39.9950   83.2490   63.1770 N   0  0  0  0  0  0  0  0  0  0  0  0
   43.6400   82.5530   62.2320 C   0  0  0  0  0  0  0  0  0  0  0  0
   44.1260   83.4460   61.2620 C   0  0  0  0  0  0  0  0  0  0  0  0
   45.3060   83.1930   60.5950 C   0  0  0  0  0  0  0  0  0  0  0  0
   46.0070   82.0220   60.9090 C   0  0  0  0  0  0  0  0  0  0  0  0
   47.1640   81.7810   60.2480 N   0  0  0  0  0  0  0  0  0  0  0  0
   47.8530   80.6590   60.5370 C   0  0  0  0  0  0  0  0  0  0  0  0
   47.4100   79.7530   61.4850 C   0  0  0  0  0  0  0  0  0  0  0  0
   46.2230   79.9880   62.1690 C   0  0  0  0  0  0  0  0  0  0  0  0
   45.5290   81.1400   61.8640 C   0  0  0  0  0  0  0  0  0  0  0  0
   44.3520   81.4010   62.5240 C   0  0  0  0  0  0  0  0  0  0  0  0
   40.7810   81.8780   61.3910 C   0  0  0  0  0  0  0  0  0  0  0  0
   40.4380   82.4890   60.1700 C   0  0  0  0  0  0  0  0  0  0  0  0
   40.1480   81.6870   59.0720 C   0  0  0  0  0  0  0  0  0  0  0  0
   40.2120   80.3330   59.2420 N   0  0  0  0  0  0  0  0  0  0  0  0
   40.5430   79.7710   60.4230 C   0  0  0  0  0  0  0  0  0  0  0  0
   40.8290   80.5320   61.5010 N   0  0  0  0  0  0  0  0  0  0  0  0
   40.5840   78.3270   60.5050 C   0  0  0  0  0  0  0  0  0  0  0  0
   41.4050   77.8090   61.3120 O   0  0  0  0  0  0  0  0  0  0  0  0
   39.8670   75.9990   60.0370 C   0  0  2  0  0  0  0  0  0  0  0  0
   39.7200   77.4640   59.6960 C   0  0  2  0  0  0  0  0  0  0  0  0
   40.0820   77.6120   58.3570 O   0  0  0  0  0  0  0  0  0  0  0  0
   39.0520   77.0850   57.5830 C   0  0  0  0  0  0  0  0  0  0  0  0
   38.9830   75.5880   57.8040 C   0  0  1  0  0  0  0  0  0  0  0  0
   38.7560   75.2840   59.2680 C   0  0  2  0  0  0  0  0  0  0  0  0
   39.6210   75.7580   61.3900 O   0  0  0  0  0  0  0  0  0  0  0  0
   38.0250   75.0650   56.9700 O   0  0  0  0  0  0  0  0  0  0  0  0
   37.5070   75.7640   59.6510 O   0  0  0  0  0  0  0  0  0  0  0  0
   43.6519   84.0594   64.1833 H   0  0  0  0  0  0  0  0  0  0  0  0
   41.7383   84.9932   65.4164 H   0  0  0  0  0  0  0  0  0  0  0  0
   39.3880   84.5057   64.8145 H   0  0  0  0  0  0  0  0  0  0  0  0
   43.5575   84.3591   61.0317 H   0  0  0  0  0  0  0  0  0  0  0  0
   45.6867   83.8925   59.8362 H   0  0  0  0  0  0  0  0  0  0  0  0
   48.7941   80.4577   60.0043 H   0  0  0  0  0  0  0  0  0  0  0  0
   47.9971   78.8473   61.6970 H   0  0  0  0  0  0  0  0  0  0  0  0
   45.8510   79.2813   62.9255 H   0  0  0  0  0  0  0  0  0  0  0  0
   43.9765   80.6974   63.2817 H   0  0  0  0  0  0  0  0  0  0  0  0
   40.4000   83.5851   60.0859 H   0  0  0  0  0  0  0  0  0  0  0  0
   39.8767   82.1270   58.1010 H   0  0  0  0  0  0  0  0  0  0  0  0
   40.8857   75.6639   59.7921 H   0  0  0  0  0  0  0  0  0  0  0  0
   38.6810   77.7649   59.8958 H   0  0  0  0  0  0  0  0  0  0  0  0
   39.2466   77.2920   56.5203 H   0  0  0  0  0  0  0  0  0  0  0  0
   38.0967   77.5471   57.8726 H   0  0  0  0  0  0  0  0  0  0  0  0
   39.9373   75.1043   57.5482 H   0  0  0  0  0  0  0  0  0  0  0  0
   38.7779   74.2030   59.4704 H   0  0  0  0  0  0  0  0  0  0  0  0
   40.2090   76.3340   61.9400 H   0  0  0  0  0  0  0  0  0  0  0  0
   37.2974   74.6678   57.5113 H   0  0  0  0  0  0  0  0  0  0  0  0
   37.4506   75.7857   60.6392 H   0  0  0  0  0  0  0  0  0  0  0  0
  1  2  1  0
  1  6  2  0
  2  3  2  0
  3  4  1  0
  5  4  2  0
  6  5  1  0
  7 16  1  0
  7  2  1  0
  8  7  2  0
  9 10  2  0
  9  8  1  0
 10 15  1  0
 11 12  2  0
 11 10  1  0
 12 13  1  0
 13 14  2  0
 15 14  1  0
 15 16  2  0
 17 22  1  0
 17  1  1  0
 18 17  2  0
 19 20  2  0
 19 18  1  0
 20 21  1  0
 21 23  1  0
 21 22  2  0
 23 24  2  0
 25 31  1  0
 26 25  1  0
 26 23  1  0
 27 26  1  0
 28 29  1  0
 28 27  1  0
 29 32  1  0
 29 30  1  0
 30 33  1  0
 30 25  1  0
  3 34  1  0
  4 35  1  0
  5 36  1  0
  8 37  1  0
  9 38  1  0
 12 39  1  0
 13 40  1  0
 14 41  1  0
 16 42  1  0
 18 43  1  0
 19 44  1  0
 25 45  1  6
 26 46  1  6
 28 47  1  0
 28 48  1  0
 29 49  1  6
 30 50  1  6
 31 51  1  0
 32 52  1  0
 33 53  1  0
M  END
>  <Score>  (1) 
-7.38941

>  <Score_dual>  (1) 
-7.53

>  <Choices>  (1) 
[None, 6, ['6-18', 60], 15, ['36-27', 300], 33, ['5-8', 150], 35, ['21-10', 15]]

$$$$
