
     RDKit          3D

 46 50  0  0  0  0  0  0  0  0999 V2000
   44.2870   78.9760   61.8920 C   0  0  0  0  0  0  0  0  0  0  0  0
   45.2780   78.2410   62.0900 O   0  0  0  0  0  0  0  0  0  0  0  0
   43.1710   78.3220   61.2180 C   0  0  0  0  0  0  0  0  0  0  0  0
   42.0310   77.9260   61.8830 C   0  0  0  0  0  0  0  0  0  0  0  0
   40.9550   77.3000   61.2610 C   0  0  0  0  0  0  0  0  0  0  0  0
   41.0000   77.0470   59.9060 C   0  0  0  0  0  0  0  0  0  0  0  0
   42.1430   77.4480   59.2560 C   0  0  0  0  0  0  0  0  0  0  0  0
   43.1940   78.0570   59.8530 C   0  0  0  0  0  0  0  0  0  0  0  0
   42.2610   77.1490   57.5060 S   0  0  0  0  0  0  0  0  0  0  0  0
   40.7650   76.3520   57.0210 C   0  0  0  0  0  0  0  0  0  0  0  0
   40.6570   76.0350   55.7100 C   0  0  0  0  0  0  0  0  0  0  0  0
   39.5100   75.4040   55.2330 C   0  0  0  0  0  0  0  0  0  0  0  0
   38.5150   75.1270   56.1470 C   0  0  0  0  0  0  0  0  0  0  0  0
   38.6810   75.4770   57.4900 C   0  0  0  0  0  0  0  0  0  0  0  0
   39.8110   76.1030   57.9790 C   0  0  0  0  0  0  0  0  0  0  0  0
   39.8850   76.4130   59.3370 N   0  0  0  0  0  0  0  0  0  0  0  0
   43.0750   82.3800   62.3400 C   0  0  0  0  0  0  0  0  0  0  0  0
   44.0920   83.0080   63.0360 C   0  0  0  0  0  0  0  0  0  0  0  0
   45.2140   82.2330   63.3510 C   0  0  0  0  0  0  0  0  0  0  0  0
   45.2340   80.9330   62.9610 N   0  0  0  0  0  0  0  0  0  0  0  0
   44.2050   80.3740   62.2810 C   0  0  0  0  0  0  0  0  0  0  0  0
   43.1150   81.0920   61.9640 N   0  0  0  0  0  0  0  0  0  0  0  0
   41.8640   83.0680   61.9550 N   0  0  0  0  0  0  0  0  0  0  0  0
   41.9880   83.6680   60.7200 C   0  0  0  0  0  0  0  0  0  0  0  0
   40.9430   84.3780   60.1650 C   0  0  0  0  0  0  0  0  0  0  0  0
   39.7670   84.4780   60.8710 C   0  0  0  0  0  0  0  0  0  0  0  0
   38.7930   85.1140   60.4040 O   0  0  0  0  0  0  0  0  0  0  0  0
   39.7050   83.8780   62.0580 N   0  0  0  0  0  0  0  0  0  0  0  0
   40.7110   83.1900   62.6000 C   0  0  0  0  0  0  0  0  0  0  0  0
   40.7180   82.6120   63.6940 O   0  0  0  0  0  0  0  0  0  0  0  0
   41.0660   85.0340   58.8270 C   0  0  0  0  0  0  0  0  0  0  0  0
   40.0180   85.9540   58.6600 F   0  0  0  0  0  0  0  0  0  0  0  0
   42.2400   85.7360   58.6950 F   0  0  0  0  0  0  0  0  0  0  0  0
   41.0180   84.1150   57.8050 F   0  0  0  0  0  0  0  0  0  0  0  0
   41.9680   78.1151   62.9648 H   0  0  0  0  0  0  0  0  0  0  0  0
   40.0717   77.0080   61.8480 H   0  0  0  0  0  0  0  0  0  0  0  0
   44.0715   78.3440   59.2550 H   0  0  0  0  0  0  0  0  0  0  0  0
   41.4776   76.2763   55.0184 H   0  0  0  0  0  0  0  0  0  0  0  0
   39.4025   75.1377   54.1711 H   0  0  0  0  0  0  0  0  0  0  0  0
   37.5901   74.6302   55.8188 H   0  0  0  0  0  0  0  0  0  0  0  0
   37.8694   75.2416   58.1942 H   0  0  0  0  0  0  0  0  0  0  0  0
   39.0910   76.1672   59.9452 H   0  0  0  0  0  0  0  0  0  0  0  0
   44.0223   84.0662   63.3280 H   0  0  0  0  0  0  0  0  0  0  0  0
   46.0608   82.6677   63.9024 H   0  0  0  0  0  0  0  0  0  0  0  0
   42.9354   83.5793   60.1680 H   0  0  0  0  0  0  0  0  0  0  0  0
   38.8262   83.9495   62.5904 H   0  0  0  0  0  0  0  0  0  0  0  0
  1  2  2  0
  1 21  1  0
  3  4  2  0
  3  1  1  0
  5  4  1  0
  6  5  2  0
  7  8  2  0
  7  6  1  0
  8  3  1  0
  9  7  1  0
 10  9  1  0
 10 15  2  0
 11 10  1  0
 12 11  2  0
 12 13  1  0
 13 14  2  0
 14 15  1  0
 15 16  1  0
 16  6  1  0
 17 18  2  0
 18 19  1  0
 20 19  2  0
 21 20  1  0
 22 21  2  0
 22 17  1  0
 23 17  1  0
 23 29  1  0
 24 23  1  0
 25 24  2  0
 25 26  1  0
 26 28  1  0
 27 26  2  0
 28 29  1  0
 29 30  2  0
 31 25  1  0
 32 31  1  0
 33 31  1  0
 34 31  1  0
  4 35  1  0
  5 36  1  0
  8 37  1  0
 11 38  1  0
 12 39  1  0
 13 40  1  0
 14 41  1  0
 16 42  1  0
 18 43  1  0
 19 44  1  0
 24 45  1  0
 28 46  1  0
M  END
>  <Score>  (1) 
-7.37917

>  <Score_dual>  (1) 
-8.82

>  <Choices>  (1) 
[None, 6, ['37-16', 135], 15, ['11-10', 135], 22, ['5-7', 30], 24, ['60-20', 0]]

$$$$
