
     RDKit          3D

 48 52  0  0  0  0  0  0  0  0999 V2000
   43.7480   82.9640   62.6690 F   0  0  0  0  0  0  0  0  0  0  0  0
   44.4750   81.8120   62.6910 C   0  0  0  0  0  0  0  0  0  0  0  0
   43.8610   80.6070   62.2600 C   0  0  0  0  0  0  0  0  0  0  0  0
   44.6860   79.5280   62.3300 C   0  0  0  0  0  0  0  0  0  0  0  0
   45.9700   79.5610   62.7600 C   0  0  0  0  0  0  0  0  0  0  0  0
   46.5330   80.7370   63.1690 C   0  0  0  0  0  0  0  0  0  0  0  0
   45.7650   81.8940   63.1330 C   0  0  0  0  0  0  0  0  0  0  0  0
   47.9190   80.7590   63.6320 C   0  0  0  0  0  0  0  0  0  0  0  0
   48.3770   79.9350   64.6490 C   0  0  0  0  0  0  0  0  0  0  0  0
   49.6860   79.9540   65.0880 C   0  0  0  0  0  0  0  0  0  0  0  0
   50.5920   80.8170   64.5070 C   0  0  0  0  0  0  0  0  0  0  0  0
   51.9020   80.9090   64.8710 N   0  0  0  0  0  0  0  0  0  0  0  0
   52.7410   81.7710   64.2660 C   0  0  0  0  0  0  0  0  0  0  0  0
   52.3680   82.6240   63.2480 C   0  0  0  0  0  0  0  0  0  0  0  0
   51.0250   82.5340   62.8700 C   0  0  0  0  0  0  0  0  0  0  0  0
   50.1540   81.6460   63.4900 C   0  0  0  0  0  0  0  0  0  0  0  0
   48.8440   81.6270   63.0510 C   0  0  0  0  0  0  0  0  0  0  0  0
   40.7600   81.8610   60.7740 C   0  0  0  0  0  0  0  0  0  0  0  0
   39.9940   80.7440   60.9500 C   0  0  0  0  0  0  0  0  0  0  0  0
   40.4220   79.5540   61.5430 C   0  0  0  0  0  0  0  0  0  0  0  0
   41.7180   79.4930   61.9870 C   0  0  0  0  0  0  0  0  0  0  0  0
   42.4760   80.6210   61.8050 C   0  0  0  0  0  0  0  0  0  0  0  0
   42.0350   81.7670   61.2250 N   0  0  0  0  0  0  0  0  0  0  0  0
   40.6590   83.5080   58.8900 C   0  0  0  0  0  0  0  0  0  0  0  0
   40.2890   83.0770   60.1580 C   0  0  0  0  0  0  0  0  0  0  0  0
   39.4070   83.8770   60.8750 C   0  0  0  0  0  0  0  0  0  0  0  0
   38.9380   85.0310   60.3340 N   0  0  0  0  0  0  0  0  0  0  0  0
   39.3270   85.4110   59.0940 C   0  0  0  0  0  0  0  0  0  0  0  0
   40.1760   84.6500   58.3910 N   0  0  0  0  0  0  0  0  0  0  0  0
   38.8610   86.6060   58.4940 N   0  0  0  0  0  0  0  0  0  0  0  0
   46.3070   83.1360   63.5470 N   0  0  0  0  0  0  0  0  0  0  0  0
   44.2801   78.5558   62.0137 H   0  0  0  0  0  0  0  0  0  0  0  0
   46.5634   78.6350   62.7801 H   0  0  0  0  0  0  0  0  0  0  0  0
   47.6700   79.2392   65.1245 H   0  0  0  0  0  0  0  0  0  0  0  0
   50.0055   79.2828   65.8988 H   0  0  0  0  0  0  0  0  0  0  0  0
   53.7875   81.7966   64.6040 H   0  0  0  0  0  0  0  0  0  0  0  0
   53.0726   83.3209   62.7707 H   0  0  0  0  0  0  0  0  0  0  0  0
   50.6491   83.1808   62.0635 H   0  0  0  0  0  0  0  0  0  0  0  0
   48.5289   82.2995   62.2395 H   0  0  0  0  0  0  0  0  0  0  0  0
   38.9536   80.7850   60.5953 H   0  0  0  0  0  0  0  0  0  0  0  0
   39.7429   78.6953   61.6502 H   0  0  0  0  0  0  0  0  0  0  0  0
   42.1268   78.5894   62.4627 H   0  0  0  0  0  0  0  0  0  0  0  0
   41.3561   82.9036   58.2911 H   0  0  0  0  0  0  0  0  0  0  0  0
   39.0880   83.5746   61.8834 H   0  0  0  0  0  0  0  0  0  0  0  0
   39.1774   86.8650   57.5486 H   0  0  0  0  0  0  0  0  0  0  0  0
   38.2056   87.2162   59.0029 H   0  0  0  0  0  0  0  0  0  0  0  0
   47.2807   83.1880   63.8788 H   0  0  0  0  0  0  0  0  0  0  0  0
   45.7273   83.9868   63.5162 H   0  0  0  0  0  0  0  0  0  0  0  0
  1  2  1  0
  2  7  2  0
  3  4  2  0
  3  2  1  0
  4  5  1  0
  5  6  2  0
  6  8  1  0
  7  6  1  0
  7 31  1  0
  8  9  2  0
  9 10  1  0
 11 12  1  0
 11 10  2  0
 13 12  2  0
 14 13  1  0
 15 14  2  0
 15 16  1  0
 16 11  1  0
 17 16  2  0
 17  8  1  0
 18 19  2  0
 18 23  1  0
 19 20  1  0
 20 21  2  0
 22 21  1  0
 22  3  1  0
 23 22  2  0
 24 25  2  0
 25 18  1  0
 25 26  1  0
 27 26  2  0
 28 27  1  0
 29 24  1  0
 29 28  2  0
 30 28  1  0
  4 32  1  0
  5 33  1  0
  9 34  1  0
 10 35  1  0
 13 36  1  0
 14 37  1  0
 15 38  1  0
 17 39  1  0
 19 40  1  0
 20 41  1  0
 21 42  1  0
 24 43  1  0
 26 44  1  0
 30 45  1  0
 30 46  1  0
 31 47  1  0
 31 48  1  0
M  END
>  <Score>  (1) 
-7.36532

>  <Score_dual>  (1) 
-8.79

>  <Choices>  (1) 
[None, 7, ['6-18', 150], 18, ['9-19', 75], 28, ['0-2', 150], 30, ['0-4', 60], 30, ['36-26', 105]]

$$$$
