
     RDKit          3D

 48 52  0  0  0  0  0  0  0  0999 V2000
   42.0330   78.3410   62.5880 Cl  0  0  0  0  0  0  0  0  0  0  0  0
   43.4860   79.2690   62.2970 C   0  0  0  0  0  0  0  0  0  0  0  0
   43.3810   80.5920   61.9190 C   0  0  0  0  0  0  0  0  0  0  0  0
   44.5640   81.2360   61.7140 C   0  0  0  0  0  0  0  0  0  0  0  0
   45.7960   80.6560   61.8570 C   0  0  0  0  0  0  0  0  0  0  0  0
   45.8800   79.3270   62.2360 C   0  0  0  0  0  0  0  0  0  0  0  0
   44.7150   78.6350   62.4550 C   0  0  0  0  0  0  0  0  0  0  0  0
   39.8660   81.2550   60.9090 C   0  0  0  0  0  0  0  0  0  0  0  0
   41.0940   80.5910   60.9760 C   0  0  0  0  0  0  0  0  0  0  0  0
   42.0630   81.1890   61.7730 C   0  0  0  0  0  0  0  0  0  0  0  0
   41.7570   82.3420   62.4090 N   0  0  0  0  0  0  0  0  0  0  0  0
   40.5550   82.9510   62.3170 C   0  0  0  0  0  0  0  0  0  0  0  0
   39.5970   82.3850   61.5470 N   0  0  0  0  0  0  0  0  0  0  0  0
   40.3540   84.0910   64.4750 C   0  0  0  0  0  0  0  0  0  0  0  0
   40.3350   82.9370   65.0020 O   0  0  0  0  0  0  0  0  0  0  0  0
   40.4680   84.1360   63.0670 N   0  0  0  0  0  0  0  0  0  0  0  0
   40.2670   85.2810   65.2050 N   0  0  0  0  0  0  0  0  0  0  0  0
   44.0330   76.2300   62.4080 C   0  0  0  0  0  0  0  0  0  0  0  0
   44.8530   77.2350   62.8530 C   0  0  0  0  0  0  0  0  0  0  0  0
   45.8670   76.8840   63.7300 C   0  0  0  0  0  0  0  0  0  0  0  0
   46.0160   75.5670   64.1190 C   0  0  0  0  0  0  0  0  0  0  0  0
   46.8870   74.9590   64.9360 N   0  0  0  0  0  0  0  0  0  0  0  0
   46.5870   73.6430   64.9680 C   0  0  0  0  0  0  0  0  0  0  0  0
   45.5380   73.3730   64.1910 N   0  0  0  0  0  0  0  0  0  0  0  0
   45.1820   74.5760   63.6600 C   0  0  0  0  0  0  0  0  0  0  0  0
   44.1660   74.9140   62.7850 C   0  0  0  0  0  0  0  0  0  0  0  0
   43.2950   73.8630   62.3090 C   0  0  0  0  0  0  0  0  0  0  0  0
   43.2390   72.6020   62.8590 C   0  0  0  0  0  0  0  0  0  0  0  0
   42.4120   71.5840   62.4170 C   0  0  0  0  0  0  0  0  0  0  0  0
   41.5750   71.8310   61.3480 C   0  0  0  0  0  0  0  0  0  0  0  0
   41.6320   73.0960   60.7980 C   0  0  0  0  0  0  0  0  0  0  0  0
   42.4590   74.0450   61.2720 N   0  0  0  0  0  0  0  0  0  0  0  0
   44.5268   82.2934   61.4133 H   0  0  0  0  0  0  0  0  0  0  0  0
   46.7098   81.2400   61.6726 H   0  0  0  0  0  0  0  0  0  0  0  0
   46.8573   78.8373   62.3587 H   0  0  0  0  0  0  0  0  0  0  0  0
   39.0734   80.8121   60.2880 H   0  0  0  0  0  0  0  0  0  0  0  0
   41.2819   79.6536   60.4319 H   0  0  0  0  0  0  0  0  0  0  0  0
   40.4875   85.0465   62.5859 H   0  0  0  0  0  0  0  0  0  0  0  0
   40.2882   86.1876   64.7165 H   0  0  0  0  0  0  0  0  0  0  0  0
   40.1818   85.2507   66.2310 H   0  0  0  0  0  0  0  0  0  0  0  0
   43.2235   76.4910   61.7104 H   0  0  0  0  0  0  0  0  0  0  0  0
   46.5523   77.6531   64.1158 H   0  0  0  0  0  0  0  0  0  0  0  0
   47.6530   75.4166   65.4506 H   0  0  0  0  0  0  0  0  0  0  0  0
   47.1354   72.8931   65.5570 H   0  0  0  0  0  0  0  0  0  0  0  0
   43.8998   72.3880   63.7120 H   0  0  0  0  0  0  0  0  0  0  0  0
   42.4217   70.5993   62.9072 H   0  0  0  0  0  0  0  0  0  0  0  0
   40.8971   71.0594   60.9542 H   0  0  0  0  0  0  0  0  0  0  0  0
   40.9802   73.3355   59.9448 H   0  0  0  0  0  0  0  0  0  0  0  0
  2  7  2  0
  2  1  1  0
  3  2  1  0
  4  5  1  0
  4  3  2  0
  5  6  2  0
  6  7  1  0
  7 19  1  0
  8  9  2  0
  8 13  1  0
  9 10  1  0
 10  3  1  0
 10 11  2  0
 12 11  1  0
 12 16  1  0
 13 12  2  0
 14 15  2  0
 14 17  1  0
 16 14  1  0
 18 26  2  0
 18 19  1  0
 19 20  2  0
 20 21  1  0
 21 22  1  0
 22 23  1  0
 24 23  2  0
 25 21  2  0
 25 24  1  0
 26 25  1  0
 27 26  1  0
 27 28  2  0
 29 28  1  0
 30 29  2  0
 31 32  2  0
 31 30  1  0
 32 27  1  0
  4 33  1  0
  5 34  1  0
  6 35  1  0
  8 36  1  0
  9 37  1  0
 16 38  1  0
 17 39  1  0
 17 40  1  0
 18 41  1  0
 20 42  1  0
 22 43  1  0
 23 44  1  0
 28 45  1  0
 29 46  1  0
 30 47  1  0
 31 48  1  0
M  END
>  <Score>  (1) 
-8.09088

>  <Score_dual>  (1) 
-8.3

>  <Choices>  (1) 
[None, 9, ['12-5', 195], 12, ['0-20', 0], 12, ['7-17', 150], 25, ['34-21', 120], 38, ['6-19', 195]]

$$$$
