
     RDKit          3D

 49 54  0  0  0  0  0  0  0  0999 V2000
   41.3640   82.5430   62.3160 C   0  0  0  0  0  0  0  0  0  0  0  0
   41.8240   83.7390   61.8480 C   0  0  0  0  0  0  0  0  0  0  0  0
   41.6580   84.8370   62.6450 C   0  0  0  0  0  0  0  0  0  0  0  0
   41.0250   84.6220   63.8720 C   0  0  0  0  0  0  0  0  0  0  0  0
   40.5640   83.4050   64.3310 C   0  0  0  0  0  0  0  0  0  0  0  0
   40.7480   82.3430   63.5150 N   0  0  0  0  0  0  0  0  0  0  0  0
   42.4880   84.1260   60.6160 C   0  0  0  0  0  0  0  0  0  0  0  0
   41.6090   84.7330   59.6960 C   0  0  0  0  0  0  0  0  0  0  0  0
   42.0710   85.1700   58.4740 C   0  0  0  0  0  0  0  0  0  0  0  0
   43.4190   85.0010   58.1660 C   0  0  0  0  0  0  0  0  0  0  0  0
   43.8710   85.4330   56.9600 N   0  0  0  0  0  0  0  0  0  0  0  0
   45.1720   85.2750   56.6520 C   0  0  0  0  0  0  0  0  0  0  0  0
   46.0590   84.6860   57.5260 C   0  0  0  0  0  0  0  0  0  0  0  0
   45.6300   84.2310   58.7730 C   0  0  0  0  0  0  0  0  0  0  0  0
   44.3040   84.3960   59.0790 C   0  0  0  0  0  0  0  0  0  0  0  0
   43.8350   83.9640   60.2940 C   0  0  0  0  0  0  0  0  0  0  0  0
   41.5310   81.3620   61.4850 C   0  0  0  0  0  0  0  0  0  0  0  0
   42.5900   80.4870   61.8040 C   0  0  0  0  0  0  0  0  0  0  0  0
   42.7880   79.3470   61.0380 C   0  0  0  0  0  0  0  0  0  0  0  0
   41.9310   79.1320   60.0000 N   0  0  0  0  0  0  0  0  0  0  0  0
   40.9280   79.9720   59.7090 C   0  0  0  0  0  0  0  0  0  0  0  0
   40.7120   81.0890   60.4370 N   0  0  0  0  0  0  0  0  0  0  0  0
   40.0530   79.6810   58.5910 C   0  0  0  0  0  0  0  0  0  0  0  0
   39.7730   80.6080   57.6150 C   0  0  0  0  0  0  0  0  0  0  0  0
   38.9510   80.3900   56.5320 C   0  0  0  0  0  0  0  0  0  0  0  0
   38.3640   79.1340   56.4220 C   0  0  0  0  0  0  0  0  0  0  0  0
   37.5340   78.8200   55.3840 N   0  0  0  0  0  0  0  0  0  0  0  0
   36.9910   77.5700   55.3360 C   0  0  0  0  0  0  0  0  0  0  0  0
   37.2340   76.5990   56.2840 C   0  0  0  0  0  0  0  0  0  0  0  0
   38.0720   76.8820   57.3530 C   0  0  0  0  0  0  0  0  0  0  0  0
   38.6090   78.1470   57.3820 C   0  0  0  0  0  0  0  0  0  0  0  0
   39.4550   78.4470   58.4540 C   0  0  0  0  0  0  0  0  0  0  0  0
   42.0037   85.8349   62.3374 H   0  0  0  0  0  0  0  0  0  0  0  0
   40.8824   85.4949   64.5260 H   0  0  0  0  0  0  0  0  0  0  0  0
   40.0724   83.3043   65.3099 H   0  0  0  0  0  0  0  0  0  0  0  0
   40.5475   84.8585   59.9556 H   0  0  0  0  0  0  0  0  0  0  0  0
   41.3875   85.6440   57.7542 H   0  0  0  0  0  0  0  0  0  0  0  0
   45.5368   85.6259   55.6754 H   0  0  0  0  0  0  0  0  0  0  0  0
   47.1147   84.5735   57.2382 H   0  0  0  0  0  0  0  0  0  0  0  0
   46.3269   83.7593   59.4814 H   0  0  0  0  0  0  0  0  0  0  0  0
   44.5203   83.4908   61.0126 H   0  0  0  0  0  0  0  0  0  0  0  0
   43.2538   80.7064   62.6533 H   0  0  0  0  0  0  0  0  0  0  0  0
   43.6047   78.6442   61.2598 H   0  0  0  0  0  0  0  0  0  0  0  0
   40.2412   81.5992   57.7062 H   0  0  0  0  0  0  0  0  0  0  0  0
   38.7664   81.1763   55.7852 H   0  0  0  0  0  0  0  0  0  0  0  0
   36.3240   77.3235   54.4967 H   0  0  0  0  0  0  0  0  0  0  0  0
   36.7670   75.6072   56.1936 H   0  0  0  0  0  0  0  0  0  0  0  0
   38.2937   76.1375   58.1318 H   0  0  0  0  0  0  0  0  0  0  0  0
   39.6494   77.6737   59.2118 H   0  0  0  0  0  0  0  0  0  0  0  0
  1  6  2  0
  2  1  1  0
  2  3  2  0
  3  4  1  0
  4  5  2  0
  6  5  1  0
  7  2  1  0
  8  7  2  0
  9  8  1  0
 10  9  2  0
 10 15  1  0
 11 10  1  0
 12 11  2  0
 12 13  1  0
 13 14  2  0
 14 15  1  0
 15 16  2  0
 16  7  1  0
 17 18  2  0
 17  1  1  0
 19 18  1  0
 20 19  2  0
 21 20  1  0
 21 22  2  0
 22 17  1  0
 23 21  1  0
 24 23  2  0
 25 24  1  0
 26 25  2  0
 26 31  1  0
 27 26  1  0
 28 27  2  0
 28 29  1  0
 29 30  2  0
 30 31  1  0
 31 32  2  0
 32 23  1  0
  3 33  1  0
  4 34  1  0
  5 35  1  0
  8 36  1  0
  9 37  1  0
 12 38  1  0
 13 39  1  0
 14 40  1  0
 16 41  1  0
 18 42  1  0
 19 43  1  0
 24 44  1  0
 25 45  1  0
 28 46  1  0
 29 47  1  0
 30 48  1  0
 32 49  1  0
M  END
>  <Score>  (1) 
-7.16196

>  <Score_dual>  (1) 
-7.7

>  <Choices>  (1) 
[None, 6, ['6-18', 60], 15, ['36-27', 300], 33, ['36-27', 30]]

$$$$
