
     RDKit          3D

 52 56  0  0  0  0  0  0  0  0999 V2000
   40.1960   77.0110   60.8590 C   0  0  0  0  0  0  0  0  0  0  0  0
   39.9520   78.0110   59.9720 C   0  0  0  0  0  0  0  0  0  0  0  0
   39.5280   77.7680   58.6880 C   0  0  0  0  0  0  0  0  0  0  0  0
   39.3340   76.4790   58.2580 C   0  0  0  0  0  0  0  0  0  0  0  0
   38.9360   75.8750   57.0970 N   0  0  0  0  0  0  0  0  0  0  0  0
   38.9370   74.5420   57.2750 C   0  0  0  0  0  0  0  0  0  0  0  0
   39.3290   74.3030   58.5280 N   0  0  0  0  0  0  0  0  0  0  0  0
   39.5760   75.4740   59.1440 C   0  0  0  0  0  0  0  0  0  0  0  0
   40.0120   75.6800   60.4680 C   0  0  0  0  0  0  0  0  0  0  0  0
   38.6000   76.6390   55.9520 C   0  0  0  0  0  0  0  0  0  0  0  0
   39.5160   76.8280   54.9250 C   0  0  0  0  0  0  0  0  0  0  0  0
   39.1460   77.5820   53.8250 C   0  0  0  0  0  0  0  0  0  0  0  0
   37.9070   78.1510   53.7060 C   0  0  0  0  0  0  0  0  0  0  0  0
   37.0050   77.9580   54.7270 C   0  0  0  0  0  0  0  0  0  0  0  0
   37.3400   77.2180   55.8300 C   0  0  0  0  0  0  0  0  0  0  0  0
   36.3240   77.0500   56.8910 C   0  0  0  0  0  0  0  0  0  0  0  0
   40.3750   79.5690   61.7860 C   0  0  0  0  0  0  0  0  0  0  0  0
   40.1720   79.3500   60.4320 C   0  0  0  0  0  0  0  0  0  0  0  0
   40.2090   80.4900   59.6120 C   0  0  0  0  0  0  0  0  0  0  0  0
   40.4340   81.6980   60.1640 N   0  0  0  0  0  0  0  0  0  0  0  0
   40.6290   81.8650   61.5060 C   0  0  0  0  0  0  0  0  0  0  0  0
   40.5960   80.7580   62.3360 N   0  0  0  0  0  0  0  0  0  0  0  0
   40.8560   83.2890   61.8700 C   0  0  0  0  0  0  0  0  0  0  0  0
   42.3240   83.5430   61.8060 C   0  0  0  0  0  0  0  0  0  0  0  0
   42.9700   83.2710   63.1260 C   0  0  0  0  0  0  0  0  0  0  0  0
   42.4440   84.2780   64.1160 C   0  0  0  0  0  0  0  0  0  0  0  0
   40.9610   84.4220   64.1290 C   0  0  0  0  0  0  0  0  0  0  0  0
   40.2220   83.5240   63.2060 C   0  0  0  0  0  0  0  0  0  0  0  0
   40.5361   77.2463   61.8783 H   0  0  0  0  0  0  0  0  0  0  0  0
   39.3435   78.6085   58.0028 H   0  0  0  0  0  0  0  0  0  0  0  0
   38.6642   73.7859   56.5240 H   0  0  0  0  0  0  0  0  0  0  0  0
   40.1973   74.8416   61.1556 H   0  0  0  0  0  0  0  0  0  0  0  0
   40.5210   76.3848   54.9851 H   0  0  0  0  0  0  0  0  0  0  0  0
   39.8758   77.7296   53.0153 H   0  0  0  0  0  0  0  0  0  0  0  0
   37.6400   78.7454   52.8198 H   0  0  0  0  0  0  0  0  0  0  0  0
   36.0018   78.4037   54.6566 H   0  0  0  0  0  0  0  0  0  0  0  0
   36.8063   77.1297   57.8764 H   0  0  0  0  0  0  0  0  0  0  0  0
   35.5584   77.8337   56.7930 H   0  0  0  0  0  0  0  0  0  0  0  0
   35.8515   76.0615   56.7930 H   0  0  0  0  0  0  0  0  0  0  0  0
   40.3514   78.6948   62.4533 H   0  0  0  0  0  0  0  0  0  0  0  0
   40.0553   80.3969   58.5268 H   0  0  0  0  0  0  0  0  0  0  0  0
   40.3900   84.0081   61.1802 H   0  0  0  0  0  0  0  0  0  0  0  0
   42.7703   82.8866   61.0445 H   0  0  0  0  0  0  0  0  0  0  0  0
   42.4870   84.5993   61.5458 H   0  0  0  0  0  0  0  0  0  0  0  0
   42.7217   82.2530   63.4608 H   0  0  0  0  0  0  0  0  0  0  0  0
   44.0637   83.3527   63.0412 H   0  0  0  0  0  0  0  0  0  0  0  0
   42.7673   83.9710   65.1216 H   0  0  0  0  0  0  0  0  0  0  0  0
   42.8484   85.2544   63.8107 H   0  0  0  0  0  0  0  0  0  0  0  0
   40.6101   84.2195   65.1517 H   0  0  0  0  0  0  0  0  0  0  0  0
   40.7546   85.4456   63.7830 H   0  0  0  0  0  0  0  0  0  0  0  0
   39.2279   83.9625   63.0342 H   0  0  0  0  0  0  0  0  0  0  0  0
   40.2018   82.5419   63.7011 H   0  0  0  0  0  0  0  0  0  0  0  0
  2 18  1  0
  2  1  2  0
  3  2  1  0
  4  3  2  0
  4  8  1  0
  5  6  1  0
  5  4  1  0
  6  7  2  0
  7  8  1  0
  8  9  2  0
  9  1  1  0
 10  5  1  0
 11 10  2  0
 12 11  1  0
 13 12  2  0
 13 14  1  0
 14 15  2  0
 15 10  1  0
 15 16  1  0
 17 22  2  0
 18 17  1  0
 19 20  1  0
 19 18  2  0
 20 21  2  0
 21 23  1  0
 21 22  1  0
 23 28  1  0
 24 23  1  0
 24 25  1  0
 25 26  1  0
 26 27  1  0
 28 27  1  0
  1 29  1  0
  3 30  1  0
  6 31  1  0
  9 32  1  0
 11 33  1  0
 12 34  1  0
 13 35  1  0
 14 36  1  0
 16 37  1  0
 16 38  1  0
 16 39  1  0
 17 40  1  0
 19 41  1  0
 23 42  1  0
 24 43  1  0
 24 44  1  0
 25 45  1  0
 25 46  1  0
 26 47  1  0
 26 48  1  0
 27 49  1  0
 27 50  1  0
 28 51  1  0
 28 52  1  0
M  END
>  <Score>  (1) 
-7.4008

>  <Score_dual>  (1) 
-7.05

>  <Choices>  (1) 
[None, 7, ['34-23', 225], 17, ['1-18', 30], 32, ['3-11', 0], 35, ['18-24', 180]]

$$$$
