
     RDKit          3D

 41 45  0  0  0  0  0  0  0  0999 V2000
   40.9750   76.5640   59.5830 C   0  0  0  0  0  0  0  0  0  0  0  0
   40.8110   76.5060   58.2560 C   0  0  0  0  0  0  0  0  0  0  0  0
   41.0300   75.3130   57.5820 C   0  0  0  0  0  0  0  0  0  0  0  0
   41.4010   74.2570   58.2810 N   0  0  0  0  0  0  0  0  0  0  0  0
   41.5660   74.3190   59.6170 C   0  0  0  0  0  0  0  0  0  0  0  0
   41.3430   75.4900   60.2250 N   0  0  0  0  0  0  0  0  0  0  0  0
   41.9700   73.2670   60.5760 C   0  0  0  0  0  0  0  0  0  0  0  0
   42.7110   73.5390   61.7330 C   0  0  0  0  0  0  0  0  0  0  0  0
   43.0920   72.5780   62.6270 C   0  0  0  0  0  0  0  0  0  0  0  0
   42.7530   71.2620   62.4200 C   0  0  0  0  0  0  0  0  0  0  0  0
   42.0250   70.9410   61.2990 C   0  0  0  0  0  0  0  0  0  0  0  0
   41.7150   69.6220   61.1410 C   0  0  0  0  0  0  0  0  0  0  0  0
   40.9930   69.2110   60.0550 C   0  0  0  0  0  0  0  0  0  0  0  0
   40.6070   70.2020   59.1450 C   0  0  0  0  0  0  0  0  0  0  0  0
   40.9500   71.5190   59.3560 C   0  0  0  0  0  0  0  0  0  0  0  0
   41.6700   71.9470   60.4350 C   0  0  0  0  0  0  0  0  0  0  0  0
   40.2020   80.3520   60.8720 C   0  0  0  0  0  0  0  0  0  0  0  0
   40.4660   79.4840   61.8380 C   0  0  0  0  0  0  0  0  0  0  0  0
   40.7440   78.1820   61.5590 C   0  0  0  0  0  0  0  0  0  0  0  0
   40.7370   77.8180   60.2400 C   0  0  0  0  0  0  0  0  0  0  0  0
   40.3190   79.3740   59.3250 S   0  0  0  0  0  0  0  0  0  0  0  0
   39.7850   83.9350   59.9040 C   0  0  0  0  0  0  0  0  0  0  0  0
   40.1320   82.5660   59.7790 C   0  0  0  0  0  0  0  0  0  0  0  0
   39.8890   81.7490   60.8870 C   0  0  0  0  0  0  0  0  0  0  0  0
   39.3460   82.2720   62.0200 N   0  0  0  0  0  0  0  0  0  0  0  0
   39.0330   83.5780   62.0920 C   0  0  0  0  0  0  0  0  0  0  0  0
   39.2530   84.3930   61.0420 N   0  0  0  0  0  0  0  0  0  0  0  0
   40.5027   77.4036   57.6999 H   0  0  0  0  0  0  0  0  0  0  0  0
   40.8976   75.2491   56.4919 H   0  0  0  0  0  0  0  0  0  0  0  0
   43.0016   74.5810   61.9327 H   0  0  0  0  0  0  0  0  0  0  0  0
   43.6734   72.8593   63.5174 H   0  0  0  0  0  0  0  0  0  0  0  0
   43.0573   70.4835   63.1351 H   0  0  0  0  0  0  0  0  0  0  0  0
   42.0467   68.8871   61.8892 H   0  0  0  0  0  0  0  0  0  0  0  0
   40.7286   68.1540   59.9040 H   0  0  0  0  0  0  0  0  0  0  0  0
   40.0246   69.9265   58.2535 H   0  0  0  0  0  0  0  0  0  0  0  0
   40.6269   72.2661   58.6161 H   0  0  0  0  0  0  0  0  0  0  0  0
   40.4602   79.8226   62.8846 H   0  0  0  0  0  0  0  0  0  0  0  0
   40.9640   77.4563   62.3558 H   0  0  0  0  0  0  0  0  0  0  0  0
   39.9540   84.6225   59.0621 H   0  0  0  0  0  0  0  0  0  0  0  0
   40.5718   82.1656   58.8537 H   0  0  0  0  0  0  0  0  0  0  0  0
   38.5940   83.9839   63.0153 H   0  0  0  0  0  0  0  0  0  0  0  0
  1  6  1  0
  1 20  1  0
  2  1  2  0
  3  2  1  0
  3  4  2  0
  4  5  1  0
  5  6  2  0
  5  7  1  0
  7  8  2  0
  8  9  1  0
 10  9  2  0
 11 10  1  0
 12 11  2  0
 13 12  1  0
 14 15  1  0
 14 13  2  0
 15 16  2  0
 16  7  1  0
 16 11  1  0
 17 24  1  0
 17 18  2  0
 19 18  1  0
 20 19  2  0
 21 20  1  0
 21 17  1  0
 22 27  2  0
 23 22  1  0
 23 24  2  0
 24 25  1  0
 25 26  2  0
 27 26  1  0
  2 28  1  0
  3 29  1  0
  8 30  1  0
  9 31  1  0
 10 32  1  0
 12 33  1  0
 13 34  1  0
 14 35  1  0
 15 36  1  0
 18 37  1  0
 19 38  1  0
 22 39  1  0
 23 40  1  0
 26 41  1  0
M  END
>  <Score>  (1) 
-7.11935

>  <Score_dual>  (1) 
-7.42

>  <Choices>  (1) 
[None, 8, ['25-21', 150], 16, ['19-18', 45], 24, ['26-24', 330]]

$$$$
