
     RDKit          3D

 44 48  0  0  0  0  0  0  0  0999 V2000
   40.8320   83.8020   60.5840 C   0  0  0  0  0  0  0  0  0  0  0  0
   40.9970   82.4490   60.7030 C   0  0  0  0  0  0  0  0  0  0  0  0
   40.1540   81.6340   61.4150 C   0  0  0  0  0  0  0  0  0  0  0  0
   39.1080   82.2680   62.0180 N   0  0  0  0  0  0  0  0  0  0  0  0
   38.9070   83.5870   61.9300 C   0  0  0  0  0  0  0  0  0  0  0  0
   39.7560   84.3430   61.2220 N   0  0  0  0  0  0  0  0  0  0  0  0
   41.5750   84.7880   59.8600 C   0  0  0  0  0  0  0  0  0  0  0  0
   41.0110   85.2840   58.6660 C   0  0  0  0  0  0  0  0  0  0  0  0
   41.5690   86.2210   57.8380 C   0  0  0  0  0  0  0  0  0  0  0  0
   42.7930   86.7420   58.1780 C   0  0  0  0  0  0  0  0  0  0  0  0
   43.4110   86.3120   59.3260 C   0  0  0  0  0  0  0  0  0  0  0  0
   44.6320   86.8440   59.6700 C   0  0  0  0  0  0  0  0  0  0  0  0
   45.3060   86.4530   60.8330 C   0  0  0  0  0  0  0  0  0  0  0  0
   44.6510   85.5020   61.5980 C   0  0  0  0  0  0  0  0  0  0  0  0
   43.4360   84.9930   61.2260 C   0  0  0  0  0  0  0  0  0  0  0  0
   42.7840   85.3710   60.1010 C   0  0  0  0  0  0  0  0  0  0  0  0
   40.4160   80.2240   61.4480 C   0  0  0  0  0  0  0  0  0  0  0  0
   40.8080   79.6190   62.5070 O   0  0  0  0  0  0  0  0  0  0  0  0
   40.1900   79.5480   60.1460 C   0  0  0  0  0  0  0  0  0  0  0  0
   40.1890   80.3590   59.0050 C   0  0  0  0  0  0  0  0  0  0  0  0
   39.9930   79.9430   57.7180 C   0  0  0  0  0  0  0  0  0  0  0  0
   39.7780   78.5940   57.5330 C   0  0  0  0  0  0  0  0  0  0  0  0
   39.7710   77.7620   58.6290 C   0  0  0  0  0  0  0  0  0  0  0  0
   39.5590   76.3860   58.4950 C   0  0  0  0  0  0  0  0  0  0  0  0
   39.5610   75.5690   59.6310 C   0  0  0  0  0  0  0  0  0  0  0  0
   39.7640   76.0620   60.8890 C   0  0  0  0  0  0  0  0  0  0  0  0
   39.9760   77.4140   61.0440 C   0  0  0  0  0  0  0  0  0  0  0  0
   39.9710   78.2060   59.9170 C   0  0  0  0  0  0  0  0  0  0  0  0
   41.8576   81.9869   60.1972 H   0  0  0  0  0  0  0  0  0  0  0  0
   38.0475   84.0495   62.4373 H   0  0  0  0  0  0  0  0  0  0  0  0
   40.0308   84.8801   58.3725 H   0  0  0  0  0  0  0  0  0  0  0  0
   41.0504   86.5477   56.9246 H   0  0  0  0  0  0  0  0  0  0  0  0
   43.2734   87.4961   57.5372 H   0  0  0  0  0  0  0  0  0  0  0  0
   45.0914   87.5974   59.0132 H   0  0  0  0  0  0  0  0  0  0  0  0
   46.2831   86.8700   61.1181 H   0  0  0  0  0  0  0  0  0  0  0  0
   45.1190   85.1468   62.5279 H   0  0  0  0  0  0  0  0  0  0  0  0
   42.9654   84.2387   61.8738 H   0  0  0  0  0  0  0  0  0  0  0  0
   40.3626   81.4342   59.1590 H   0  0  0  0  0  0  0  0  0  0  0  0
   40.0061   80.6480   56.8737 H   0  0  0  0  0  0  0  0  0  0  0  0
   39.6144   78.1884   56.5237 H   0  0  0  0  0  0  0  0  0  0  0  0
   39.3913   75.9477   57.5001 H   0  0  0  0  0  0  0  0  0  0  0  0
   39.3928   74.4891   59.5065 H   0  0  0  0  0  0  0  0  0  0  0  0
   39.7582   75.3919   61.7613 H   0  0  0  0  0  0  0  0  0  0  0  0
   40.1446   77.8492   62.0401 H   0  0  0  0  0  0  0  0  0  0  0  0
  1  2  2  0
  1  6  1  0
  2  3  1  0
  3 17  1  0
  3  4  2  0
  5  4  1  0
  6  5  2  0
  7 16  1  0
  7  1  1  0
  8  7  2  0
  9 10  2  0
  9  8  1  0
 10 11  1  0
 11 12  1  0
 11 16  2  0
 12 13  2  0
 13 14  1  0
 15 14  2  0
 16 15  1  0
 17 18  2  0
 19 17  1  0
 20 19  2  0
 21 20  1  0
 22 21  2  0
 22 23  1  0
 23 28  2  0
 24 23  1  0
 24 25  2  0
 25 26  1  0
 26 27  2  0
 28 19  1  0
 28 27  1  0
  2 29  1  0
  5 30  1  0
  8 31  1  0
  9 32  1  0
 10 33  1  0
 12 34  1  0
 13 35  1  0
 14 36  1  0
 15 37  1  0
 20 38  1  0
 21 39  1  0
 22 40  1  0
 24 41  1  0
 25 42  1  0
 26 43  1  0
 27 44  1  0
M  END
>  <Score>  (1) 
-7.07211

>  <Score_dual>  (1) 
-7.59

>  <Choices>  (1) 
[None, 8, ['5-9', 180], 8, ['26-25', 345], 27, ['26-14', 60]]

$$$$
