
     RDKit          3D

 41 44  0  0  0  0  0  0  0  0999 V2000
   40.7260   83.0930   60.0110 F   0  0  0  0  0  0  0  0  0  0  0  0
   40.6430   81.7990   60.4110 C   0  0  0  0  0  0  0  0  0  0  0  0
   40.9370   81.4110   61.6950 C   0  0  0  0  0  0  0  0  0  0  0  0
   40.8170   80.0770   61.9870 C   0  0  0  0  0  0  0  0  0  0  0  0
   40.4200   79.1740   61.0360 C   0  0  0  0  0  0  0  0  0  0  0  0
   40.1270   79.5810   59.7450 C   0  0  0  0  0  0  0  0  0  0  0  0
   40.2420   80.9190   59.4340 C   0  0  0  0  0  0  0  0  0  0  0  0
   41.3550   82.4490   62.6480 C   0  0  0  0  0  0  0  0  0  0  0  0
   42.6740   82.8410   62.7540 C   0  0  0  0  0  0  0  0  0  0  0  0
   43.1060   83.8230   63.6490 C   0  0  0  0  0  0  0  0  0  0  0  0
   42.1270   84.3660   64.4090 N   0  0  0  0  0  0  0  0  0  0  0  0
   40.8570   83.9990   64.3190 C   0  0  0  0  0  0  0  0  0  0  0  0
   40.4460   83.0510   63.4550 N   0  0  0  0  0  0  0  0  0  0  0  0
   39.8160   84.5610   65.1130 N   0  0  0  0  0  0  0  0  0  0  0  0
   39.9310   81.2390   58.1300 O   0  0  0  0  0  0  0  0  0  0  0  0
   41.7190   82.8580   57.0790 O   0  0  0  0  0  0  0  0  0  0  0  0
   41.0970   81.4650   56.9140 P   0  0  1  0  0  0  0  0  0  0  0  0
   42.3570   80.3750   57.2020 O   0  0  0  0  0  0  0  0  0  0  0  0
   40.4490   81.3370   55.3840 O   0  0  0  0  0  0  0  0  0  0  0  0
   39.5890   79.1880   55.8040 N   0  0  0  0  0  0  0  0  0  0  0  0
   39.5390   80.3300   55.0920 C   0  0  0  0  0  0  0  0  0  0  0  0
   38.5240   80.1910   54.1960 N   0  0  0  0  0  0  0  0  0  0  0  0
   37.9550   78.9840   54.3480 C   0  0  0  0  0  0  0  0  0  0  0  0
   36.9320   78.2880   53.7670 C   0  0  0  0  0  0  0  0  0  0  0  0
   36.5850   77.0530   54.1510 N   0  0  0  0  0  0  0  0  0  0  0  0
   37.2480   76.4210   55.1560 C   0  0  0  0  0  0  0  0  0  0  0  0
   38.2560   77.0970   55.7340 N   0  0  0  0  0  0  0  0  0  0  0  0
   38.6360   78.3350   55.3810 C   0  0  0  0  0  0  0  0  0  0  0  0
   36.2360   78.9400   52.7180 N   0  0  0  0  0  0  0  0  0  0  0  0
   41.0437   79.7248   63.0041 H   0  0  0  0  0  0  0  0  0  0  0  0
   40.3327   78.1102   61.3018 H   0  0  0  0  0  0  0  0  0  0  0  0
   39.8095   78.8525   58.9845 H   0  0  0  0  0  0  0  0  0  0  0  0
   43.4190   82.3584   62.1043 H   0  0  0  0  0  0  0  0  0  0  0  0
   44.1591   84.1305   63.7295 H   0  0  0  0  0  0  0  0  0  0  0  0
   38.8462   84.2339   64.9972 H   0  0  0  0  0  0  0  0  0  0  0  0
   40.0332   85.2944   65.8028 H   0  0  0  0  0  0  0  0  0  0  0  0
   42.4827   80.2663   58.1780 H   0  0  0  0  0  0  0  0  0  0  0  0
   40.2589   78.9947   56.5622 H   0  0  0  0  0  0  0  0  0  0  0  0
   36.9730   75.4064   55.4801 H   0  0  0  0  0  0  0  0  0  0  0  0
   36.5108   79.8900   52.4302 H   0  0  0  0  0  0  0  0  0  0  0  0
   35.4556   78.4637   52.2437 H   0  0  0  0  0  0  0  0  0  0  0  0
  1  2  1  0
  2  3  2  0
  3  4  1  0
  3  8  1  0
  5  4  2  0
  6  5  1  0
  7  6  2  0
  7  2  1  0
  8  9  2  0
  8 13  1  0
  9 10  1  0
 10 11  2  0
 12 11  1  0
 12 14  1  0
 13 12  2  0
 15  7  1  0
 17 16  2  0
 17 18  1  1
 17 15  1  0
 19 17  1  0
 21 19  1  0
 21 20  1  0
 22 23  1  0
 22 21  2  0
 23 28  2  0
 24 25  2  0
 24 23  1  0
 25 26  1  0
 26 27  2  0
 28 27  1  0
 28 20  1  0
 29 24  1  0
  4 30  1  0
  5 31  1  0
  6 32  1  0
  9 33  1  0
 10 34  1  0
 14 35  1  0
 14 36  1  0
 18 37  1  0
 20 38  1  0
 26 39  1  0
 29 40  1  0
 29 41  1  0
M  END
>  <Score>  (1) 
-7.28538

>  <Score_dual>  (1) 
-7.93

>  <Choices>  (1) 
[None, 6, ['9-20', 270], 15, ['0-3', 105], 21, ['10-2', 150], 27, ['28-19', 150]]

$$$$
