
     RDKit          3D

 42 46  0  0  0  0  0  0  0  0999 V2000
   42.1720   83.8190   61.8180 C   0  0  0  0  0  0  0  0  0  0  0  0
   42.3330   82.5670   61.2540 C   0  0  0  0  0  0  0  0  0  0  0  0
   41.6590   81.4820   61.7840 C   0  0  0  0  0  0  0  0  0  0  0  0
   40.8540   81.7090   62.8540 N   0  0  0  0  0  0  0  0  0  0  0  0
   40.7060   82.9260   63.3910 C   0  0  0  0  0  0  0  0  0  0  0  0
   41.3540   83.9750   62.8830 N   0  0  0  0  0  0  0  0  0  0  0  0
   43.7950   85.7470   61.9310 C   0  0  0  0  0  0  0  0  0  0  0  0
   42.8710   84.9710   61.2760 C   0  0  0  0  0  0  0  0  0  0  0  0
   42.6140   85.3690   59.9700 C   0  0  0  0  0  0  0  0  0  0  0  0
   43.2220   86.4480   59.3580 C   0  0  0  0  0  0  0  0  0  0  0  0
   43.1550   87.0260   58.1500 N   0  0  0  0  0  0  0  0  0  0  0  0
   43.9810   88.0750   58.0820 C   0  0  0  0  0  0  0  0  0  0  0  0
   44.6410   88.2230   59.2940 C   0  0  0  0  0  0  0  0  0  0  0  0
   44.1390   87.1910   60.0580 C   0  0  0  0  0  0  0  0  0  0  0  0
   44.4180   86.8230   61.3610 C   0  0  0  0  0  0  0  0  0  0  0  0
   41.7460   80.1170   61.2830 C   0  0  0  0  0  0  0  0  0  0  0  0
   42.7670   79.2520   61.6120 C   0  0  0  0  0  0  0  0  0  0  0  0
   42.8270   77.9550   61.1210 C   0  0  0  0  0  0  0  0  0  0  0  0
   41.8940   77.4960   60.3060 N   0  0  0  0  0  0  0  0  0  0  0  0
   40.8860   78.3520   59.9800 C   0  0  0  0  0  0  0  0  0  0  0  0
   40.8170   79.6140   60.4520 N   0  0  0  0  0  0  0  0  0  0  0  0
   39.3900   75.9420   60.8860 Cl  0  0  0  0  0  0  0  0  0  0  0  0
   39.0620   76.8210   59.4190 C   0  0  0  0  0  0  0  0  0  0  0  0
   39.8090   77.9270   59.0830 C   0  0  0  0  0  0  0  0  0  0  0  0
   39.5100   78.5950   57.9000 C   0  0  0  0  0  0  0  0  0  0  0  0
   38.4940   78.1840   57.0670 C   0  0  0  0  0  0  0  0  0  0  0  0
   37.7650   77.0850   57.4200 C   0  0  0  0  0  0  0  0  0  0  0  0
   38.0490   76.4150   58.5830 C   0  0  0  0  0  0  0  0  0  0  0  0
   42.9955   82.4343   60.3860 H   0  0  0  0  0  0  0  0  0  0  0  0
   40.0441   83.0621   64.2589 H   0  0  0  0  0  0  0  0  0  0  0  0
   44.0479   85.4895   62.9701 H   0  0  0  0  0  0  0  0  0  0  0  0
   41.8820   84.7899   59.3880 H   0  0  0  0  0  0  0  0  0  0  0  0
   42.5502   86.7058   57.3802 H   0  0  0  0  0  0  0  0  0  0  0  0
   44.1166   88.7208   57.2019 H   0  0  0  0  0  0  0  0  0  0  0  0
   45.3857   88.9815   59.5770 H   0  0  0  0  0  0  0  0  0  0  0  0
   45.1486   87.4015   61.9454 H   0  0  0  0  0  0  0  0  0  0  0  0
   43.5620   79.6014   62.2871 H   0  0  0  0  0  0  0  0  0  0  0  0
   43.6617   77.3013   61.4141 H   0  0  0  0  0  0  0  0  0  0  0  0
   40.1034   79.4784   57.6217 H   0  0  0  0  0  0  0  0  0  0  0  0
   38.2743   78.7292   56.1372 H   0  0  0  0  0  0  0  0  0  0  0  0
   36.9485   76.7361   56.7708 H   0  0  0  0  0  0  0  0  0  0  0  0
   37.4518   75.5316   58.8531 H   0  0  0  0  0  0  0  0  0  0  0  0
  1  6  2  0
  2  3  2  0
  2  1  1  0
  3  4  1  0
  4  5  2  0
  6  5  1  0
  8  1  1  0
  8  7  2  0
  9  8  1  0
 10  9  2  0
 10 14  1  0
 11 10  1  0
 12 11  1  0
 12 13  2  0
 13 14  1  0
 14 15  2  0
 15  7  1  0
 16 17  2  0
 16  3  1  0
 18 17  1  0
 19 18  2  0
 20 19  1  0
 20 21  2  0
 21 16  1  0
 23 22  1  0
 24 23  2  0
 24 20  1  0
 25 24  1  0
 26 27  1  0
 26 25  2  0
 27 28  2  0
 28 23  1  0
  2 29  1  0
  5 30  1  0
  7 31  1  0
  9 32  1  0
 11 33  1  0
 12 34  1  0
 13 35  1  0
 15 36  1  0
 17 37  1  0
 18 38  1  0
 25 39  1  0
 26 40  1  0
 27 41  1  0
 28 42  1  0
M  END
>  <Score>  (1) 
-7.093

>  <Score_dual>  (1) 
-7.5

>  <Choices>  (1) 
[None, 8, ['19-20', 0], 12, ['24-9', 315], 31, ['7-14', 75]]

$$$$
