
     RDKit          3D

 51 55  0  0  1  0  0  0  0  0999 V2000
   40.0850   79.1720   59.8930 C   0  0  0  0  0  0  0  0  0  0  0  0
   40.4400   78.2080   60.8160 C   0  0  0  0  0  0  0  0  0  0  0  0
   40.1690   76.8540   60.6910 C   0  0  0  0  0  0  0  0  0  0  0  0
   39.4910   76.4330   59.5590 C   0  0  0  0  0  0  0  0  0  0  0  0
   39.1420   77.3840   58.6510 C   0  0  0  0  0  0  0  0  0  0  0  0
   39.4380   78.6910   58.8330 N   0  0  0  0  0  0  0  0  0  0  0  0
   41.2140   84.5630   60.2760 F   0  0  0  0  0  0  0  0  0  0  0  0
   40.9400   83.2370   60.2560 C   0  0  0  0  0  0  0  0  0  0  0  0
   40.8470   82.4990   61.4350 C   0  0  0  0  0  0  0  0  0  0  0  0
   40.5660   81.1820   61.2660 C   0  0  0  0  0  0  0  0  0  0  0  0
   40.3820   80.5760   60.0510 C   0  0  0  0  0  0  0  0  0  0  0  0
   40.4830   81.3420   58.9100 C   0  0  0  0  0  0  0  0  0  0  0  0
   40.7660   82.6880   59.0220 C   0  0  0  0  0  0  0  0  0  0  0  0
   41.0490   83.1850   62.6960 C   0  0  0  0  0  0  0  0  0  0  0  0
   42.3230   83.5790   63.1110 C   0  0  0  0  0  0  0  0  0  0  0  0
   42.5840   84.2380   64.3070 C   0  0  0  0  0  0  0  0  0  0  0  0
   41.4910   84.4760   65.0580 N   0  0  0  0  0  0  0  0  0  0  0  0
   40.2580   84.1050   64.6750 C   0  0  0  0  0  0  0  0  0  0  0  0
   40.0330   83.4700   63.5180 N   0  0  0  0  0  0  0  0  0  0  0  0
   38.4260   77.0830   57.4130 C   0  0  0  0  0  0  0  0  0  0  0  0
   37.1340   77.4870   57.1530 C   0  0  0  0  0  0  0  0  0  0  0  0
   36.4540   77.2040   55.9820 C   0  0  0  0  0  0  0  0  0  0  0  0
   37.0750   76.4770   55.0000 C   0  0  0  0  0  0  0  0  0  0  0  0
   38.3600   76.0700   55.2490 C   0  0  0  0  0  0  0  0  0  0  0  0
   38.9820   76.3680   56.4010 N   0  0  0  0  0  0  0  0  0  0  0  0
   38.8310   75.4900   52.8770 C   0  0  1  0  0  0  0  0  0  0  0  0
   39.2260   75.2770   54.3390 C   0  0  1  0  0  0  0  0  0  0  0  0
   40.5010   75.8630   54.3110 O   0  0  0  0  0  0  0  0  0  0  0  0
   40.3750   77.0780   53.6550 C   0  0  0  0  0  0  0  0  0  0  0  0
   39.1730   76.9630   52.7430 C   0  0  1  0  0  0  0  0  0  0  0  0
   39.7570   74.8080   52.0950 O   0  0  0  0  0  0  0  0  0  0  0  0
   39.4810   77.3020   51.4410 O   0  0  0  0  0  0  0  0  0  0  0  0
   40.9775   78.5388   61.7169 H   0  0  0  0  0  0  0  0  0  0  0  0
   40.4821   76.1379   61.4651 H   0  0  0  0  0  0  0  0  0  0  0  0
   39.2447   75.3727   59.4006 H   0  0  0  0  0  0  0  0  0  0  0  0
   40.4800   80.5575   62.1674 H   0  0  0  0  0  0  0  0  0  0  0  0
   40.3395   80.8851   57.9197 H   0  0  0  0  0  0  0  0  0  0  0  0
   40.8504   83.3131   58.1208 H   0  0  0  0  0  0  0  0  0  0  0  0
   43.1731   83.3538   62.4502 H   0  0  0  0  0  0  0  0  0  0  0  0
   43.5964   84.5394   64.6139 H   0  0  0  0  0  0  0  0  0  0  0  0
   39.4058   84.3302   65.3331 H   0  0  0  0  0  0  0  0  0  0  0  0
   36.6111   78.0708   57.9248 H   0  0  0  0  0  0  0  0  0  0  0  0
   35.4228   77.5597   55.8401 H   0  0  0  0  0  0  0  0  0  0  0  0
   36.5660   76.2316   54.0562 H   0  0  0  0  0  0  0  0  0  0  0  0
   37.8090   75.1871   52.6054 H   0  0  0  0  0  0  0  0  0  0  0  0
   39.1618   74.2352   54.6861 H   0  0  0  0  0  0  0  0  0  0  0  0
   40.2206   77.8872   54.3840 H   0  0  0  0  0  0  0  0  0  0  0  0
   41.2838   77.3114   53.0808 H   0  0  0  0  0  0  0  0  0  0  0  0
   38.3466   77.6396   53.0062 H   0  0  0  0  0  0  0  0  0  0  0  0
   40.3993   74.3349   52.6813 H   0  0  0  0  0  0  0  0  0  0  0  0
   40.1467   78.0347   51.4394 H   0  0  0  0  0  0  0  0  0  0  0  0
  1 11  1  0
  1  2  2  0
  3  2  1  0
  4  3  2  0
  5  6  2  0
  5  4  1  0
  6  1  1  0
  8  7  1  0
  8  9  2  0
  9 14  1  0
 10  9  1  0
 11 10  2  0
 12 13  2  0
 12 11  1  0
 13  8  1  0
 14 15  2  0
 14 19  1  0
 15 16  1  0
 16 17  2  0
 18 17  1  0
 19 18  2  0
 20  5  1  0
 21 20  2  0
 22 21  1  0
 23 24  1  0
 23 22  2  0
 24 25  2  0
 25 20  1  0
 26 31  1  0
 26 27  1  0
 27 24  1  0
 28 27  1  0
 29 28  1  0
 30 32  1  0
 30 26  1  0
 30 29  1  0
  2 33  1  0
  3 34  1  0
  4 35  1  0
 10 36  1  0
 12 37  1  0
 13 38  1  0
 15 39  1  0
 16 40  1  0
 18 41  1  0
 21 42  1  0
 22 43  1  0
 23 44  1  0
 26 45  1  1
 27 46  1  1
 29 47  1  0
 29 48  1  0
 30 49  1  1
 31 50  1  0
 32 51  1  0
M  END
>  <Score>  (1) 
-7.32097

>  <Score_dual>  (1) 
-8.87

>  <Choices>  (1) 
[None, 6, ['9-20', 270], 17, ['6-14', 300], 28, ['6-16', 75], 37, ['14-10', 15]]

$$$$
