
     RDKit          3D

 46 50  0  0  1  0  0  0  0  0999 V2000
   41.7980   83.2090   56.7230 C   0  0  0  0  0  0  0  0  0  0  0  0
   42.4570   83.7790   55.6020 C   0  0  0  0  0  0  0  0  0  0  0  0
   42.3810   83.0820   54.3790 C   0  0  0  0  0  0  0  0  0  0  0  0
   41.6850   81.9100   54.3340 N   0  0  0  0  0  0  0  0  0  0  0  0
   41.0900   81.4270   55.4170 C   0  0  0  0  0  0  0  0  0  0  0  0
   41.1230   82.0480   56.6310 N   0  0  0  0  0  0  0  0  0  0  0  0
   40.3140   80.1550   55.3230 C   0  0  1  0  0  0  0  0  0  0  0  0
   41.2200   78.9300   55.5230 C   0  0  0  0  0  0  0  0  0  0  0  0
   40.1050   79.2930   56.4490 C   0  0  2  0  0  0  0  0  0  0  0  0
   39.7890   77.3710   58.5810 F   0  0  0  0  0  0  0  0  0  0  0  0
   38.7700   77.5330   57.7300 C   0  0  0  0  0  0  0  0  0  0  0  0
   38.9530   78.4480   56.7280 C   0  0  0  0  0  0  0  0  0  0  0  0
   37.9110   78.6170   55.8470 C   0  0  0  0  0  0  0  0  0  0  0  0
   36.7380   77.9030   55.9620 C   0  0  0  0  0  0  0  0  0  0  0  0
   36.6370   77.0040   57.0010 C   0  0  0  0  0  0  0  0  0  0  0  0
   37.6380   76.7890   57.9100 C   0  0  0  0  0  0  0  0  0  0  0  0
   37.5200   75.8560   58.9750 N   0  0  0  0  0  0  0  0  0  0  0  0
   41.8890   83.9650   57.9410 C   0  0  0  0  0  0  0  0  0  0  0  0
   42.2850   85.2780   58.0960 C   0  0  0  0  0  0  0  0  0  0  0  0
   42.1760   85.5030   59.5000 C   0  0  0  0  0  0  0  0  0  0  0  0
   41.7430   84.3800   60.1040 N   0  0  0  0  0  0  0  0  0  0  0  0
   41.5740   83.4700   59.1700 N   0  0  0  0  0  0  0  0  0  0  0  0
   42.0280   83.8950   63.7270 N   0  0  0  0  0  0  0  0  0  0  0  0
   42.4760   84.0200   62.4660 C   0  0  0  0  0  0  0  0  0  0  0  0
   41.5130   84.2210   61.4990 C   0  0  0  0  0  0  0  0  0  0  0  0
   40.1640   84.2880   61.8300 C   0  0  0  0  0  0  0  0  0  0  0  0
   39.2310   84.4720   60.9860 O   0  0  0  0  0  0  0  0  0  0  0  0
   39.7830   84.1560   63.1160 N   0  0  0  0  0  0  0  0  0  0  0  0
   40.7270   83.9580   64.0640 C   0  0  0  0  0  0  0  0  0  0  0  0
   40.3610   83.8330   65.2760 O   0  0  0  0  0  0  0  0  0  0  0  0
   43.0061   84.7286   55.6847 H   0  0  0  0  0  0  0  0  0  0  0  0
   42.8738   83.4760   53.4779 H   0  0  0  0  0  0  0  0  0  0  0  0
   39.5970   80.5617   54.5947 H   0  0  0  0  0  0  0  0  0  0  0  0
   41.1347   78.0566   54.8597 H   0  0  0  0  0  0  0  0  0  0  0  0
   42.3003   78.7419   55.6097 H   0  0  0  0  0  0  0  0  0  0  0  0
   40.0155   79.4903   57.5275 H   0  0  0  0  0  0  0  0  0  0  0  0
   38.0167   79.3427   55.0271 H   0  0  0  0  0  0  0  0  0  0  0  0
   35.9120   78.0457   55.2498 H   0  0  0  0  0  0  0  0  0  0  0  0
   35.7047   76.4297   57.1056 H   0  0  0  0  0  0  0  0  0  0  0  0
   36.6547   75.3086   59.0866 H   0  0  0  0  0  0  0  0  0  0  0  0
   38.2998   75.7271   59.6355 H   0  0  0  0  0  0  0  0  0  0  0  0
   42.6089   85.9855   57.3184 H   0  0  0  0  0  0  0  0  0  0  0  0
   42.4097   86.4486   60.0111 H   0  0  0  0  0  0  0  0  0  0  0  0
   42.7183   83.7427   64.4762 H   0  0  0  0  0  0  0  0  0  0  0  0
   43.5467   83.9653   62.2198 H   0  0  0  0  0  0  0  0  0  0  0  0
   38.7868   84.2052   63.3732 H   0  0  0  0  0  0  0  0  0  0  0  0
  1 18  1  0
  2  1  2  0
  3  2  1  0
  4  3  2  0
  4  5  1  0
  5  6  2  0
  6  1  1  0
  7  5  1  0
  7  8  1  0
  7  9  1  0
  8  9  1  0
  9 12  1  0
 11 16  2  0
 11 10  1  0
 12 11  1  0
 13 14  1  0
 13 12  2  0
 14 15  2  0
 15 16  1  0
 16 17  1  0
 18 19  1  0
 18 22  2  0
 19 20  2  0
 20 21  1  0
 21 25  1  0
 22 21  1  0
 23 29  1  0
 24 23  1  0
 25 26  1  0
 25 24  2  0
 26 28  1  0
 27 26  2  0
 28 29  1  0
 29 30  2  0
  2 31  1  0
  3 32  1  0
  7 33  1  6
  8 34  1  0
  8 35  1  0
  9 36  1  1
 13 37  1  0
 14 38  1  0
 15 39  1  0
 17 40  1  0
 17 41  1  0
 19 42  1  0
 20 43  1  0
 23 44  1  0
 24 45  1  0
 28 46  1  0
M  END
>  <Score>  (1) 
-7.97476

>  <Score_dual>  (1) 
-7.52

>  <Choices>  (1) 
[None, 6, ['22-8', 120], 13, ['16-22', 285], 23, ['9-15', 180], 33, ['0-2', 0], 35, ['37-22', 15]]

$$$$
