
     RDKit          3D

 49 54  0  0  0  0  0  0  0  0999 V2000
   39.9840   80.8400   56.6960 C   0  0  0  0  0  0  0  0  0  0  0  0
   39.8060   79.6110   57.3000 C   0  0  0  0  0  0  0  0  0  0  0  0
   39.1530   78.7630   56.4800 N   0  0  0  0  0  0  0  0  0  0  0  0
   38.9120   79.4330   55.3580 C   0  0  0  0  0  0  0  0  0  0  0  0
   39.4130   80.6750   55.4970 N   0  0  0  0  0  0  0  0  0  0  0  0
   38.2550   79.0040   54.1780 N   0  0  0  0  0  0  0  0  0  0  0  0
   42.0780   83.8840   57.2380 C   0  0  0  0  0  0  0  0  0  0  0  0
   41.4750   82.8250   56.5800 C   0  0  0  0  0  0  0  0  0  0  0  0
   40.6510   81.9710   57.3160 C   0  0  0  0  0  0  0  0  0  0  0  0
   40.4730   82.2050   58.6430 N   0  0  0  0  0  0  0  0  0  0  0  0
   41.0850   83.2550   59.2460 C   0  0  0  0  0  0  0  0  0  0  0  0
   41.8850   84.0980   58.5630 N   0  0  0  0  0  0  0  0  0  0  0  0
   39.6170   83.2540   61.2260 C   0  0  0  0  0  0  0  0  0  0  0  0
   40.8680   83.4750   60.6810 C   0  0  0  0  0  0  0  0  0  0  0  0
   41.8930   83.8970   61.4770 C   0  0  0  0  0  0  0  0  0  0  0  0
   41.7180   84.1100   62.8130 C   0  0  0  0  0  0  0  0  0  0  0  0
   42.5580   84.5150   63.7760 N   0  0  0  0  0  0  0  0  0  0  0  0
   41.8330   84.5470   64.9170 C   0  0  0  0  0  0  0  0  0  0  0  0
   40.5590   84.1590   64.6360 N   0  0  0  0  0  0  0  0  0  0  0  0
   40.4570   83.8790   63.3250 C   0  0  0  0  0  0  0  0  0  0  0  0
   39.3900   83.4550   62.5690 C   0  0  0  0  0  0  0  0  0  0  0  0
   38.7690   77.4080   56.7080 C   0  0  0  0  0  0  0  0  0  0  0  0
   37.6090   76.7530   56.3890 C   0  0  0  0  0  0  0  0  0  0  0  0
   37.7130   75.4580   56.8160 N   0  0  0  0  0  0  0  0  0  0  0  0
   38.9230   75.3340   57.3860 C   0  0  0  0  0  0  0  0  0  0  0  0
   39.5590   76.5070   57.3210 N   0  0  0  0  0  0  0  0  0  0  0  0
   39.4540   74.1120   57.9780 C   0  0  0  0  0  0  0  0  0  0  0  0
   40.0290   73.1290   57.2000 C   0  0  0  0  0  0  0  0  0  0  0  0
   40.5240   71.9820   57.7860 C   0  0  0  0  0  0  0  0  0  0  0  0
   40.4360   71.8250   59.1700 C   0  0  0  0  0  0  0  0  0  0  0  0
   39.8600   72.7990   59.9960 C   0  0  0  0  0  0  0  0  0  0  0  0
   39.3920   73.9070   59.3420 C   0  0  0  0  0  0  0  0  0  0  0  0
   40.1505   79.3579   58.3135 H   0  0  0  0  0  0  0  0  0  0  0  0
   37.8863   78.0444   54.1137 H   0  0  0  0  0  0  0  0  0  0  0  0
   38.1461   79.6518   53.3846 H   0  0  0  0  0  0  0  0  0  0  0  0
   42.7286   84.5674   56.6726 H   0  0  0  0  0  0  0  0  0  0  0  0
   41.6409   82.6608   55.5051 H   0  0  0  0  0  0  0  0  0  0  0  0
   38.7942   82.9140   60.5799 H   0  0  0  0  0  0  0  0  0  0  0  0
   42.8836   84.0694   61.0308 H   0  0  0  0  0  0  0  0  0  0  0  0
   43.5542   84.7536   63.6686 H   0  0  0  0  0  0  0  0  0  0  0  0
   42.2104   84.8384   65.9083 H   0  0  0  0  0  0  0  0  0  0  0  0
   38.3999   83.2841   63.0167 H   0  0  0  0  0  0  0  0  0  0  0  0
   36.7412   77.1938   55.8764 H   0  0  0  0  0  0  0  0  0  0  0  0
   37.0009   74.7201   56.7192 H   0  0  0  0  0  0  0  0  0  0  0  0
   40.0932   73.2597   56.1097 H   0  0  0  0  0  0  0  0  0  0  0  0
   40.9843   71.1976   57.1672 H   0  0  0  0  0  0  0  0  0  0  0  0
   40.8319   70.9063   59.6273 H   0  0  0  0  0  0  0  0  0  0  0  0
   39.7891   72.6823   61.0875 H   0  0  0  0  0  0  0  0  0  0  0  0
   38.9296   74.6970   59.9520 H   0  0  0  0  0  0  0  0  0  0  0  0
  1  2  2  0
  1  9  1  0
  3 22  1  0
  3  2  1  0
  4  5  2  0
  4  3  1  0
  5  1  1  0
  6  4  1  0
  7 12  2  0
  8  7  1  0
  8  9  2  0
  9 10  1  0
 10 11  2  0
 11 14  1  0
 12 11  1  0
 13 21  2  0
 14 13  1  0
 14 15  2  0
 15 16  1  0
 16 20  2  0
 16 17  1  0
 17 18  1  0
 19 18  2  0
 20 19  1  0
 21 20  1  0
 22 26  1  0
 23 22  2  0
 23 24  1  0
 24 25  1  0
 25 27  1  0
 26 25  2  0
 27 32  2  0
 28 29  2  0
 28 27  1  0
 29 30  1  0
 30 31  2  0
 32 31  1  0
  2 33  1  0
  6 34  1  0
  6 35  1  0
  7 36  1  0
  8 37  1  0
 13 38  1  0
 15 39  1  0
 17 40  1  0
 18 41  1  0
 21 42  1  0
 23 43  1  0
 24 44  1  0
 28 45  1  0
 29 46  1  0
 30 47  1  0
 31 48  1  0
 32 49  1  0
M  END
>  <Score>  (1) 
-7.59913

>  <Score_dual>  (1) 
-8.41

>  <Choices>  (1) 
[None, 9, ['34-23', 255], 22, ['23-8', 120], 29, ['0-4', 0], 29, ['23-12', 255], 38, ['1-27', 45]]

$$$$
