
     RDKit          3D

 47 50  0  0  0  0  0  0  0  0999 V2000
   39.1400   73.6640   60.6260 Cl  0  0  0  0  0  0  0  0  0  0  0  0
   40.7720   74.3110   60.5670 C   0  0  0  0  0  0  0  0  0  0  0  0
   41.0280   75.6780   60.6070 C   0  0  0  0  0  0  0  0  0  0  0  0
   42.3430   76.0760   60.5540 C   0  0  0  0  0  0  0  0  0  0  0  0
   43.3700   75.1930   60.4650 C   0  0  0  0  0  0  0  0  0  0  0  0
   43.1150   73.8300   60.4240 C   0  0  0  0  0  0  0  0  0  0  0  0
   41.8060   73.3940   60.4750 C   0  0  0  0  0  0  0  0  0  0  0  0
   41.4320   71.0660   61.4580 C   0  0  0  0  0  0  0  0  0  0  0  0
   41.5530   71.9490   60.4310 C   0  0  0  0  0  0  0  0  0  0  0  0
   41.4270   71.4850   59.1150 C   0  0  0  0  0  0  0  0  0  0  0  0
   41.1850   70.1420   58.8820 C   0  0  0  0  0  0  0  0  0  0  0  0
   41.0630   69.2420   59.9110 C   0  0  0  0  0  0  0  0  0  0  0  0
   41.1910   69.7370   61.2040 C   0  0  0  0  0  0  0  0  0  0  0  0
   41.5750   71.6430   62.7010 O   0  0  0  0  0  0  0  0  0  0  0  0
   41.0930   68.9510   62.3550 O   0  0  0  0  0  0  0  0  0  0  0  0
   39.8220   76.5300   60.7050 C   0  0  0  0  0  0  0  0  0  0  0  0
   40.0960   79.3650   58.2400 C   0  0  0  0  0  0  0  0  0  0  0  0
   39.9490   78.0780   58.7270 C   0  0  0  0  0  0  0  0  0  0  0  0
   39.9710   77.8610   60.1020 C   0  0  0  0  0  0  0  0  0  0  0  0
   40.1340   78.9250   60.8990 N   0  0  0  0  0  0  0  0  0  0  0  0
   40.2770   80.1720   60.4370 C   0  0  0  0  0  0  0  0  0  0  0  0
   40.2580   80.4030   59.0850 N   0  0  0  0  0  0  0  0  0  0  0  0
   41.5590   81.5660   62.2100 C   0  0  0  0  0  0  0  0  0  0  0  0
   42.5250   80.7930   61.9830 O   0  0  0  0  0  0  0  0  0  0  0  0
   40.4430   81.2100   61.4040 N   0  0  0  0  0  0  0  0  0  0  0  0
   41.4460   82.6940   63.1250 C   0  0  0  0  0  0  0  0  0  0  0  0
   40.5250   83.2630   63.9420 N   0  0  0  0  0  0  0  0  0  0  0  0
   41.0940   84.3480   64.5420 C   0  0  0  0  0  0  0  0  0  0  0  0
   42.3580   84.4480   64.0990 N   0  0  0  0  0  0  0  0  0  0  0  0
   42.5710   83.4590   63.2490 N   0  0  0  0  0  0  0  0  0  0  0  0
   42.5716   77.1515   60.5849 H   0  0  0  0  0  0  0  0  0  0  0  0
   44.4066   75.5589   60.4253 H   0  0  0  0  0  0  0  0  0  0  0  0
   43.9422   73.1084   60.3520 H   0  0  0  0  0  0  0  0  0  0  0  0
   41.5199   72.1844   58.2711 H   0  0  0  0  0  0  0  0  0  0  0  0
   41.0880   69.7870   57.8454 H   0  0  0  0  0  0  0  0  0  0  0  0
   40.8723   68.1755   59.7210 H   0  0  0  0  0  0  0  0  0  0  0  0
   41.5043   71.0860   63.5164 H   0  0  0  0  0  0  0  0  0  0  0  0
   41.1941   69.3662   63.2480 H   0  0  0  0  0  0  0  0  0  0  0  0
   38.9933   76.0134   60.1987 H   0  0  0  0  0  0  0  0  0  0  0  0
   39.6355   76.6893   61.7773 H   0  0  0  0  0  0  0  0  0  0  0  0
   40.0805   79.5426   57.1545 H   0  0  0  0  0  0  0  0  0  0  0  0
   39.8160   77.2342   58.0340 H   0  0  0  0  0  0  0  0  0  0  0  0
   39.6116   81.8023   61.5410 H   0  0  0  0  0  0  0  0  0  0  0  0
   40.5330   85.2572   64.2801 H   0  0  0  0  0  0  0  0  0  0  0  0
   41.0789   84.2333   65.6359 H   0  0  0  0  0  0  0  0  0  0  0  0
   42.4917   85.3522   63.6242 H   0  0  0  0  0  0  0  0  0  0  0  0
   43.4570   83.2894   62.7519 H   0  0  0  0  0  0  0  0  0  0  0  0
  2  3  2  0
  2  1  1  0
  3 16  1  0
  4  3  1  0
  5  4  2  0
  6  5  1  0
  6  7  2  0
  7  2  1  0
  8 14  1  0
  9  7  1  0
  9  8  2  0
 10  9  1  0
 11 10  2  0
 11 12  1  0
 12 13  2  0
 13  8  1  0
 13 15  1  0
 17 18  2  0
 17 22  1  0
 18 19  1  0
 19 16  1  0
 19 20  2  0
 21 20  1  0
 21 25  1  0
 22 21  2  0
 23 26  1  0
 24 23  2  0
 25 23  1  0
 26 30  1  0
 26 27  2  0
 27 28  1  0
 29 28  1  0
 30 29  1  0
  4 31  1  0
  5 32  1  0
  6 33  1  0
 10 34  1  0
 11 35  1  0
 12 36  1  0
 14 37  1  0
 15 38  1  0
 16 39  1  0
 16 40  1  0
 17 41  1  0
 18 42  1  0
 25 43  1  0
 28 44  1  0
 28 45  1  0
 29 46  1  0
 30 47  1  0
M  END
>  <Score>  (1) 
-7.92772

>  <Score_dual>  (1) 
-8.42

>  <Choices>  (1) 
[None, 8, ['3-10', 0], 12, ['7-12', 15], 22, ['35-25', 330], 34, ['12-5', 345], 37, ['57-7', 150]]

$$$$
