
     RDKit          3D

 49 53  0  0  0  0  0  0  0  0999 V2000
   40.0250   76.5750   60.7920 C   0  0  0  0  0  0  0  0  0  0  0  0
   40.1110   77.9650   58.6960 C   0  0  0  0  0  0  0  0  0  0  0  0
   39.4870   77.0080   59.5260 C   0  0  0  0  0  0  0  0  0  0  0  0
   38.3080   76.5090   59.0340 C   0  0  0  0  0  0  0  0  0  0  0  0
   37.7280   76.8610   57.8490 C   0  0  0  0  0  0  0  0  0  0  0  0
   36.5960   76.4750   57.2280 N   0  0  0  0  0  0  0  0  0  0  0  0
   36.5110   77.1570   56.0650 C   0  0  0  0  0  0  0  0  0  0  0  0
   37.6060   77.9720   55.9690 N   0  0  0  0  0  0  0  0  0  0  0  0
   38.3760   77.8060   57.0650 C   0  0  0  0  0  0  0  0  0  0  0  0
   39.5840   78.3690   57.4900 C   0  0  0  0  0  0  0  0  0  0  0  0
   41.1990   77.2250   55.3190 Cl  0  0  0  0  0  0  0  0  0  0  0  0
   41.0460   78.9660   55.6010 C   0  0  0  0  0  0  0  0  0  0  0  0
   40.2510   79.3560   56.6600 C   0  0  0  0  0  0  0  0  0  0  0  0
   40.1540   80.7360   56.8500 C   0  0  0  0  0  0  0  0  0  0  0  0
   40.8360   81.6100   55.9980 C   0  0  0  0  0  0  0  0  0  0  0  0
   41.6160   81.1470   54.9540 C   0  0  0  0  0  0  0  0  0  0  0  0
   42.4720   82.2160   53.8820 Cl  0  0  0  0  0  0  0  0  0  0  0  0
   41.7370   79.7700   54.7310 C   0  0  0  0  0  0  0  0  0  0  0  0
   39.9190   77.4530   61.9740 C   0  0  0  0  0  0  0  0  0  0  0  0
   41.2690   80.8630   61.6510 C   0  0  0  0  0  0  0  0  0  0  0  0
   42.6240   80.7090   61.8110 C   0  0  0  0  0  0  0  0  0  0  0  0
   43.1190   79.4170   62.0370 C   0  0  0  0  0  0  0  0  0  0  0  0
   42.2190   78.3970   62.0820 N   0  0  0  0  0  0  0  0  0  0  0  0
   40.9130   78.5870   61.9240 C   0  0  0  0  0  0  0  0  0  0  0  0
   40.3970   79.8190   61.7040 N   0  0  0  0  0  0  0  0  0  0  0  0
   40.6430   82.1450   61.4130 N   0  0  0  0  0  0  0  0  0  0  0  0
   40.5140   82.3980   60.0600 C   0  0  0  0  0  0  0  0  0  0  0  0
   39.9370   83.5770   59.6120 C   0  0  0  0  0  0  0  0  0  0  0  0
   39.4960   84.4880   60.5610 C   0  0  0  0  0  0  0  0  0  0  0  0
   38.9710   85.5580   60.1770 O   0  0  0  0  0  0  0  0  0  0  0  0
   39.6430   84.1940   61.8440 N   0  0  0  0  0  0  0  0  0  0  0  0
   40.2010   83.0540   62.2800 C   0  0  0  0  0  0  0  0  0  0  0  0
   40.3760   82.7030   63.4420 O   0  0  0  0  0  0  0  0  0  0  0  0
   41.0964   76.3825   60.6335 H   0  0  0  0  0  0  0  0  0  0  0  0
   39.3927   75.7146   61.0564 H   0  0  0  0  0  0  0  0  0  0  0  0
   41.0615   78.4079   59.0282 H   0  0  0  0  0  0  0  0  0  0  0  0
   37.7844   75.7606   59.6470 H   0  0  0  0  0  0  0  0  0  0  0  0
   35.9171   75.7837   57.5775 H   0  0  0  0  0  0  0  0  0  0  0  0
   35.7023   77.0720   55.3242 H   0  0  0  0  0  0  0  0  0  0  0  0
   39.5404   81.1359   57.6708 H   0  0  0  0  0  0  0  0  0  0  0  0
   40.7499   82.6942   56.1624 H   0  0  0  0  0  0  0  0  0  0  0  0
   42.3462   79.3601   53.9119 H   0  0  0  0  0  0  0  0  0  0  0  0
   38.9029   77.8724   62.0154 H   0  0  0  0  0  0  0  0  0  0  0  0
   40.1357   76.8491   62.8675 H   0  0  0  0  0  0  0  0  0  0  0  0
   43.3015   81.5743   61.7632 H   0  0  0  0  0  0  0  0  0  0  0  0
   44.1952   79.2343   62.1730 H   0  0  0  0  0  0  0  0  0  0  0  0
   40.8728   81.6564   59.3311 H   0  0  0  0  0  0  0  0  0  0  0  0
   39.8322   83.7836   58.5367 H   0  0  0  0  0  0  0  0  0  0  0  0
   39.3123   84.8748   62.5426 H   0  0  0  0  0  0  0  0  0  0  0  0
  1 19  1  0
  2  3  2  0
  3  1  1  0
  4  3  1  0
  5  4  2  0
  6  5  1  0
  7  6  1  0
  8  7  2  0
  8  9  1  0
  9 10  2  0
  9  5  1  0
 10  2  1  0
 11 12  1  0
 12 13  2  0
 13 14  1  0
 13 10  1  0
 15 14  2  0
 16 15  1  0
 17 16  1  0
 18 16  2  0
 18 12  1  0
 20 25  1  0
 20 21  2  0
 21 22  1  0
 22 23  2  0
 24 19  1  0
 24 23  1  0
 25 24  2  0
 26 20  1  0
 26 32  1  0
 27 26  1  0
 28 27  2  0
 28 29  1  0
 29 31  1  0
 30 29  2  0
 31 32  1  0
 32 33  2  0
  1 34  1  0
  1 35  1  0
  2 36  1  0
  4 37  1  0
  6 38  1  0
  7 39  1  0
 14 40  1  0
 15 41  1  0
 18 42  1  0
 19 43  1  0
 19 44  1  0
 21 45  1  0
 22 46  1  0
 27 47  1  0
 28 48  1  0
 31 49  1  0
M  END
>  <Score>  (1) 
-7.41918

>  <Score_dual>  (1) 
-7.71

>  <Choices>  (1) 
[None, 6, ['37-16', 135], 19, ['4-9', 270], 25, ['34-15', 255], 38, ['29-17', 285]]

$$$$
