
     RDKit          3D

 51 55  0  0  0  0  0  0  0  0999 V2000
   40.8300   83.8660   60.5720 C   0  0  0  0  0  0  0  0  0  0  0  0
   41.0840   82.5030   60.7520 C   0  0  0  0  0  0  0  0  0  0  0  0
   40.2290   81.7010   61.5040 C   0  0  0  0  0  0  0  0  0  0  0  0
   39.1400   82.3140   62.0510 N   0  0  0  0  0  0  0  0  0  0  0  0
   38.8800   83.6210   61.8900 C   0  0  0  0  0  0  0  0  0  0  0  0
   39.7120   84.3840   61.1630 N   0  0  0  0  0  0  0  0  0  0  0  0
   41.5580   84.8360   59.8360 C   0  0  0  0  0  0  0  0  0  0  0  0
   40.9930   85.2610   58.6080 C   0  0  0  0  0  0  0  0  0  0  0  0
   41.5600   86.1990   57.7560 C   0  0  0  0  0  0  0  0  0  0  0  0
   42.7440   86.7690   58.1000 C   0  0  0  0  0  0  0  0  0  0  0  0
   43.3300   86.3950   59.2710 C   0  0  0  0  0  0  0  0  0  0  0  0
   44.5440   86.9730   59.6320 C   0  0  0  0  0  0  0  0  0  0  0  0
   45.2170   86.6490   60.8140 C   0  0  0  0  0  0  0  0  0  0  0  0
   44.5740   85.6950   61.6120 C   0  0  0  0  0  0  0  0  0  0  0  0
   43.3820   85.1440   61.2340 C   0  0  0  0  0  0  0  0  0  0  0  0
   42.7470   85.4690   60.0890 C   0  0  0  0  0  0  0  0  0  0  0  0
   40.5380   80.3310   61.6440 C   0  0  0  0  0  0  0  0  0  0  0  0
   41.0120   79.7840   62.6730 O   0  0  0  0  0  0  0  0  0  0  0  0
   39.9330   77.7800   62.4020 F   0  0  0  0  0  0  0  0  0  0  0  0
   40.0240   78.0980   61.0670 C   0  0  0  0  0  0  0  0  0  0  0  0
   40.3250   79.3660   60.5460 C   0  0  0  0  0  0  0  0  0  0  0  0
   40.3820   79.5490   59.1970 C   0  0  0  0  0  0  0  0  0  0  0  0
   40.1440   78.4830   58.3680 C   0  0  0  0  0  0  0  0  0  0  0  0
   39.8470   77.2330   58.8610 C   0  0  0  0  0  0  0  0  0  0  0  0
   39.7840   77.0270   60.2250 C   0  0  0  0  0  0  0  0  0  0  0  0
   39.4570   75.6760   60.7510 C   0  0  0  0  0  0  0  0  0  0  0  0
   38.3430   75.0100   59.9870 C   0  0  0  0  0  0  0  0  0  0  0  0
   39.0210   74.0690   59.0060 C   0  0  0  0  0  0  0  0  0  0  0  0
   40.4360   73.8660   59.4840 C   0  0  0  0  0  0  0  0  0  0  0  0
   40.6660   74.8060   60.6200 C   0  0  0  0  0  0  0  0  0  0  0  0
   41.9766   82.0553   60.2907 H   0  0  0  0  0  0  0  0  0  0  0  0
   37.9869   84.0662   62.3528 H   0  0  0  0  0  0  0  0  0  0  0  0
   40.0337   84.8144   58.3074 H   0  0  0  0  0  0  0  0  0  0  0  0
   41.0584   86.4763   56.8171 H   0  0  0  0  0  0  0  0  0  0  0  0
   43.2190   87.5161   57.4472 H   0  0  0  0  0  0  0  0  0  0  0  0
   44.9934   87.7171   58.9579 H   0  0  0  0  0  0  0  0  0  0  0  0
   46.1765   87.1077   61.0950 H   0  0  0  0  0  0  0  0  0  0  0  0
   45.0366   85.3835   62.5601 H   0  0  0  0  0  0  0  0  0  0  0  0
   42.9173   84.3986   61.8961 H   0  0  0  0  0  0  0  0  0  0  0  0
   40.6159   80.5390   58.7784 H   0  0  0  0  0  0  0  0  0  0  0  0
   40.1918   78.6311   57.2791 H   0  0  0  0  0  0  0  0  0  0  0  0
   39.6599   76.3986   58.1691 H   0  0  0  0  0  0  0  0  0  0  0  0
   39.1387   75.8027   61.7963 H   0  0  0  0  0  0  0  0  0  0  0  0
   37.6923   74.4462   60.6716 H   0  0  0  0  0  0  0  0  0  0  0  0
   37.7089   75.7458   59.4708 H   0  0  0  0  0  0  0  0  0  0  0  0
   39.0238   74.5127   57.9995 H   0  0  0  0  0  0  0  0  0  0  0  0
   38.4861   73.1092   58.9542 H   0  0  0  0  0  0  0  0  0  0  0  0
   40.5728   72.8282   59.8219 H   0  0  0  0  0  0  0  0  0  0  0  0
   41.1508   74.0597   58.6706 H   0  0  0  0  0  0  0  0  0  0  0  0
   40.8198   74.2380   61.5494 H   0  0  0  0  0  0  0  0  0  0  0  0
   41.5601   75.4192   60.4339 H   0  0  0  0  0  0  0  0  0  0  0  0
  1  2  2  0
  1  6  1  0
  2  3  1  0
  3 17  1  0
  3  4  2  0
  5  4  1  0
  6  5  2  0
  7 16  1  0
  7  1  1  0
  8  7  2  0
  9 10  2  0
  9  8  1  0
 10 11  1  0
 11 12  1  0
 11 16  2  0
 12 13  2  0
 13 14  1  0
 15 14  2  0
 16 15  1  0
 17 18  2  0
 20 19  1  0
 21 20  2  0
 21 17  1  0
 22 21  1  0
 23 24  1  0
 23 22  2  0
 24 25  2  0
 25 26  1  0
 25 20  1  0
 27 26  1  0
 28 29  1  0
 28 27  1  0
 29 30  1  0
 30 26  1  0
  2 31  1  0
  5 32  1  0
  8 33  1  0
  9 34  1  0
 10 35  1  0
 12 36  1  0
 13 37  1  0
 14 38  1  0
 15 39  1  0
 22 40  1  0
 23 41  1  0
 24 42  1  0
 26 43  1  0
 27 44  1  0
 27 45  1  0
 28 46  1  0
 28 47  1  0
 29 48  1  0
 29 49  1  0
 30 50  1  0
 30 51  1  0
M  END
>  <Score>  (1) 
-7.33985

>  <Score_dual>  (1) 
-8.18

>  <Choices>  (1) 
[None, 8, ['5-9', 180], 8, ['26-25', 345], 27, ['9-4', 240], 37, ['31-23', 345]]

$$$$
