
     RDKit          3D

 55 60  0  0  1  0  0  0  0  0999 V2000
   43.8200   77.5100   62.3770 N   0  0  0  0  0  0  0  0  0  0  0  0
   44.4240   78.6630   61.8190 C   0  0  0  0  0  0  0  0  0  0  0  0
   45.9240   78.5960   61.6970 C   0  0  0  0  0  0  0  0  0  0  0  0
   46.4160   78.3630   63.0750 N   0  0  0  0  0  0  0  0  0  0  0  0
   46.0150   77.0200   63.3910 C   0  0  0  0  0  0  0  0  0  0  0  0
   44.5240   76.8240   63.3870 C   0  0  2  0  0  0  0  0  0  0  0  0
   44.3300   75.3650   63.1480 C   0  0  0  0  0  0  0  0  0  0  0  0
   45.1030   74.4300   63.7890 C   0  0  0  0  0  0  0  0  0  0  0  0
   44.9140   73.0820   63.5610 C   0  0  0  0  0  0  0  0  0  0  0  0
   43.9550   72.6090   62.6900 C   0  0  0  0  0  0  0  0  0  0  0  0
   43.1730   73.5340   62.0400 C   0  0  0  0  0  0  0  0  0  0  0  0
   43.3860   74.8410   62.2880 C   0  0  0  0  0  0  0  0  0  0  0  0
   41.9180   72.9730   60.9040 S   0  0  0  0  0  0  0  0  0  0  0  0
   42.0290   71.1920   60.9210 C   0  0  0  0  0  0  0  0  0  0  0  0
   41.1460   70.5670   60.1120 C   0  0  0  0  0  0  0  0  0  0  0  0
   41.1350   69.1740   60.0370 C   0  0  0  0  0  0  0  0  0  0  0  0
   42.0430   68.4780   60.8090 C   0  0  0  0  0  0  0  0  0  0  0  0
   42.9070   69.2000   61.6060 C   0  0  0  0  0  0  0  0  0  0  0  0
   42.9610   70.5730   61.7180 C   0  0  0  0  0  0  0  0  0  0  0  0
   43.8720   71.2170   62.5520 N   0  0  0  0  0  0  0  0  0  0  0  0
   42.4900   77.8470   62.8520 C   0  0  0  0  0  0  0  0  0  0  0  0
   40.6230   80.5650   61.0430 C   0  0  0  0  0  0  0  0  0  0  0  0
   41.3140   79.9270   62.0000 C   0  0  0  0  0  0  0  0  0  0  0  0
   41.7190   78.6460   61.8530 C   0  0  0  0  0  0  0  0  0  0  0  0
   41.3960   78.0240   60.6890 C   0  0  0  0  0  0  0  0  0  0  0  0
   40.4720   79.2960   59.7350 S   0  0  0  0  0  0  0  0  0  0  0  0
   39.6540   83.9210   59.8120 C   0  0  0  0  0  0  0  0  0  0  0  0
   40.2340   82.6300   59.7950 C   0  0  0  0  0  0  0  0  0  0  0  0
   40.0880   81.8700   60.9340 C   0  0  0  0  0  0  0  0  0  0  0  0
   39.4110   82.3830   61.9980 N   0  0  0  0  0  0  0  0  0  0  0  0
   38.8740   83.6010   61.9880 C   0  0  0  0  0  0  0  0  0  0  0  0
   38.9950   84.3690   60.9000 N   0  0  0  0  0  0  0  0  0  0  0  0
   44.0056   78.8153   60.8131 H   0  0  0  0  0  0  0  0  0  0  0  0
   44.2069   79.4907   62.5102 H   0  0  0  0  0  0  0  0  0  0  0  0
   46.2206   77.7680   61.0364 H   0  0  0  0  0  0  0  0  0  0  0  0
   46.3424   79.5152   61.2611 H   0  0  0  0  0  0  0  0  0  0  0  0
   47.4413   78.4532   63.1134 H   0  0  0  0  0  0  0  0  0  0  0  0
   46.4578   76.3402   62.6481 H   0  0  0  0  0  0  0  0  0  0  0  0
   46.3671   76.8082   64.4114 H   0  0  0  0  0  0  0  0  0  0  0  0
   44.1310   77.2165   64.3365 H   0  0  0  0  0  0  0  0  0  0  0  0
   45.8822   74.7585   64.4926 H   0  0  0  0  0  0  0  0  0  0  0  0
   45.5506   72.3595   64.0927 H   0  0  0  0  0  0  0  0  0  0  0  0
   42.7464   75.5593   61.7541 H   0  0  0  0  0  0  0  0  0  0  0  0
   40.4361   71.1560   59.5128 H   0  0  0  0  0  0  0  0  0  0  0  0
   40.4248   68.6468   59.3830 H   0  0  0  0  0  0  0  0  0  0  0  0
   42.0768   67.3787   60.7893 H   0  0  0  0  0  0  0  0  0  0  0  0
   43.6226   68.6241   62.2111 H   0  0  0  0  0  0  0  0  0  0  0  0
   44.5228   70.6359   63.0994 H   0  0  0  0  0  0  0  0  0  0  0  0
   41.9419   76.9163   63.0600 H   0  0  0  0  0  0  0  0  0  0  0  0
   42.6008   78.4582   63.7598 H   0  0  0  0  0  0  0  0  0  0  0  0
   41.5576   80.4614   62.9301 H   0  0  0  0  0  0  0  0  0  0  0  0
   41.6333   76.9935   60.3861 H   0  0  0  0  0  0  0  0  0  0  0  0
   39.7419   84.5673   58.9262 H   0  0  0  0  0  0  0  0  0  0  0  0
   40.7750   82.2522   58.9149 H   0  0  0  0  0  0  0  0  0  0  0  0
   38.3334   83.9739   62.8704 H   0  0  0  0  0  0  0  0  0  0  0  0
  1 21  1  0
  1  6  1  0
  2  1  1  0
  3  2  1  0
  3  4  1  0
  4  5  1  0
  6  5  1  0
  7  6  1  0
  7  8  2  0
  9  8  1  0
 10  9  2  0
 11 12  2  0
 11 10  1  0
 12  7  1  0
 13 14  1  0
 13 11  1  0
 14 19  2  0
 15 14  1  0
 16 15  2  0
 16 17  1  0
 17 18  2  0
 18 19  1  0
 19 20  1  0
 20 10  1  0
 22 23  2  0
 24 23  1  0
 24 21  1  0
 25 24  2  0
 26 25  1  0
 26 22  1  0
 27 32  2  0
 28 27  1  0
 28 29  2  0
 29 22  1  0
 29 30  1  0
 31 30  2  0
 32 31  1  0
  2 33  1  0
  2 34  1  0
  3 35  1  0
  3 36  1  0
  4 37  1  0
  5 38  1  0
  5 39  1  0
  6 40  1  1
  8 41  1  0
  9 42  1  0
 12 43  1  0
 15 44  1  0
 16 45  1  0
 17 46  1  0
 18 47  1  0
 20 48  1  0
 21 49  1  0
 21 50  1  0
 23 51  1  0
 25 52  1  0
 27 53  1  0
 28 54  1  0
 31 55  1  0
M  END
>  <Score>  (1) 
-7.70164

>  <Score_dual>  (1) 
-8.32

>  <Choices>  (1) 
[None, 8, ['25-21', 150], 15, ['3-10', 0], 19, ['15-7', 330], 33, ['60-10', 285]]

$$$$
