
     RDKit          3D

 48 52  0  0  0  0  0  0  0  0999 V2000
   40.7850   83.8840   60.5580 C   0  0  0  0  0  0  0  0  0  0  0  0
   40.9980   82.5100   60.6840 C   0  0  0  0  0  0  0  0  0  0  0  0
   40.1370   81.7150   61.4400 C   0  0  0  0  0  0  0  0  0  0  0  0
   39.0890   82.3460   62.0430 N   0  0  0  0  0  0  0  0  0  0  0  0
   38.8720   83.6640   61.9330 C   0  0  0  0  0  0  0  0  0  0  0  0
   39.7070   84.4200   61.2020 N   0  0  0  0  0  0  0  0  0  0  0  0
   41.5260   84.8540   59.8270 C   0  0  0  0  0  0  0  0  0  0  0  0
   40.9710   85.2870   58.5990 C   0  0  0  0  0  0  0  0  0  0  0  0
   41.5510   86.2210   57.7550 C   0  0  0  0  0  0  0  0  0  0  0  0
   42.7400   86.7780   58.1090 C   0  0  0  0  0  0  0  0  0  0  0  0
   43.3190   86.3990   59.2800 C   0  0  0  0  0  0  0  0  0  0  0  0
   44.5380   86.9620   59.6520 C   0  0  0  0  0  0  0  0  0  0  0  0
   45.1920   86.6300   60.8260 C   0  0  0  0  0  0  0  0  0  0  0  0
   44.5400   85.6840   61.6140 C   0  0  0  0  0  0  0  0  0  0  0  0
   43.3440   85.1380   61.2390 C   0  0  0  0  0  0  0  0  0  0  0  0
   42.7230   85.4740   60.0920 C   0  0  0  0  0  0  0  0  0  0  0  0
   40.3990   80.3270   61.5280 C   0  0  0  0  0  0  0  0  0  0  0  0
   40.6940   79.7010   62.5780 O   0  0  0  0  0  0  0  0  0  0  0  0
   40.0760   77.6620   62.0100 F   0  0  0  0  0  0  0  0  0  0  0  0
   40.1790   78.1170   60.7330 C   0  0  0  0  0  0  0  0  0  0  0  0
   40.3480   79.4530   60.3430 C   0  0  0  0  0  0  0  0  0  0  0  0
   40.4380   79.7630   59.0190 C   0  0  0  0  0  0  0  0  0  0  0  0
   40.3620   78.7560   58.0850 C   0  0  0  0  0  0  0  0  0  0  0  0
   40.1970   77.4450   58.4440 C   0  0  0  0  0  0  0  0  0  0  0  0
   40.1020   77.1060   59.8030 C   0  0  0  0  0  0  0  0  0  0  0  0
   37.6560   75.6580   59.7720 F   0  0  0  0  0  0  0  0  0  0  0  0
   38.7660   74.9650   60.1140 C   0  0  0  0  0  0  0  0  0  0  0  0
   39.9300   75.7070   60.1150 C   0  0  0  0  0  0  0  0  0  0  0  0
   41.1450   75.1010   60.4540 C   0  0  0  0  0  0  0  0  0  0  0  0
   41.1820   73.7460   60.7890 C   0  0  0  0  0  0  0  0  0  0  0  0
   39.9900   73.0360   60.7750 C   0  0  0  0  0  0  0  0  0  0  0  0
   38.7870   73.6260   60.4430 C   0  0  0  0  0  0  0  0  0  0  0  0
   41.8586   82.0471   60.1789 H   0  0  0  0  0  0  0  0  0  0  0  0
   38.0119   84.1253   62.4403 H   0  0  0  0  0  0  0  0  0  0  0  0
   40.0091   84.8504   58.2921 H   0  0  0  0  0  0  0  0  0  0  0  0
   41.0577   86.5070   56.8143 H   0  0  0  0  0  0  0  0  0  0  0  0
   43.2250   87.5219   57.4598 H   0  0  0  0  0  0  0  0  0  0  0  0
   45.0010   87.7028   58.9835 H   0  0  0  0  0  0  0  0  0  0  0  0
   46.1537   87.0791   61.1149 H   0  0  0  0  0  0  0  0  0  0  0  0
   44.9993   85.3682   62.5623 H   0  0  0  0  0  0  0  0  0  0  0  0
   42.8709   84.3961   61.8991 H   0  0  0  0  0  0  0  0  0  0  0  0
   40.5700   80.8076   58.7005 H   0  0  0  0  0  0  0  0  0  0  0  0
   40.4360   79.0116   57.0177 H   0  0  0  0  0  0  0  0  0  0  0  0
   40.1393   76.6627   57.6728 H   0  0  0  0  0  0  0  0  0  0  0  0
   42.0721   75.6929   60.4566 H   0  0  0  0  0  0  0  0  0  0  0  0
   42.1294   73.2553   61.0565 H   0  0  0  0  0  0  0  0  0  0  0  0
   40.0041   71.9678   61.0371 H   0  0  0  0  0  0  0  0  0  0  0  0
   37.8583   73.0364   60.4409 H   0  0  0  0  0  0  0  0  0  0  0  0
  1  2  2  0
  1  6  1  0
  2  3  1  0
  3 17  1  0
  3  4  2  0
  5  4  1  0
  6  5  2  0
  7 16  1  0
  7  1  1  0
  8  7  2  0
  9 10  2  0
  9  8  1  0
 10 11  1  0
 11 12  1  0
 11 16  2  0
 12 13  2  0
 13 14  1  0
 15 14  2  0
 16 15  1  0
 17 18  2  0
 20 19  1  0
 21 20  2  0
 21 17  1  0
 22 21  1  0
 23 24  1  0
 23 22  2  0
 24 25  2  0
 25 28  1  0
 25 20  1  0
 26 27  1  0
 27 28  2  0
 27 32  1  0
 28 29  1  0
 29 30  2  0
 31 30  1  0
 32 31  2  0
  2 33  1  0
  5 34  1  0
  8 35  1  0
  9 36  1  0
 10 37  1  0
 12 38  1  0
 13 39  1  0
 14 40  1  0
 15 41  1  0
 22 42  1  0
 23 43  1  0
 24 44  1  0
 29 45  1  0
 30 46  1  0
 31 47  1  0
 32 48  1  0
M  END
>  <Score>  (1) 
-8.03401

>  <Score_dual>  (1) 
-8.07

>  <Choices>  (1) 
[None, 8, ['5-9', 180], 8, ['26-25', 345], 27, ['9-4', 240], 37, ['9-15', 75]]

$$$$
