
     RDKit          3D

 58 63  0  0  1  0  0  0  0  0999 V2000
   42.1220   78.3880   62.7270 Cl  0  0  0  0  0  0  0  0  0  0  0  0
   43.5400   79.3090   62.2920 C   0  0  0  0  0  0  0  0  0  0  0  0
   43.3870   80.6050   61.8280 C   0  0  0  0  0  0  0  0  0  0  0  0
   44.5580   81.2430   61.5150 C   0  0  0  0  0  0  0  0  0  0  0  0
   45.8120   80.6850   61.6330 C   0  0  0  0  0  0  0  0  0  0  0  0
   45.9240   79.3840   62.1010 C   0  0  0  0  0  0  0  0  0  0  0  0
   44.7820   78.6980   62.4320 C   0  0  0  0  0  0  0  0  0  0  0  0
   39.8500   81.1900   60.8910 C   0  0  0  0  0  0  0  0  0  0  0  0
   41.0950   80.5540   60.9380 C   0  0  0  0  0  0  0  0  0  0  0  0
   42.0710   81.1740   61.7100 C   0  0  0  0  0  0  0  0  0  0  0  0
   41.7560   82.3250   62.3500 N   0  0  0  0  0  0  0  0  0  0  0  0
   40.5390   82.9070   62.2780 C   0  0  0  0  0  0  0  0  0  0  0  0
   39.5700   82.3220   61.5300 N   0  0  0  0  0  0  0  0  0  0  0  0
   40.3530   84.0510   64.4330 C   0  0  0  0  0  0  0  0  0  0  0  0
   40.3760   82.9000   64.9720 O   0  0  0  0  0  0  0  0  0  0  0  0
   40.4370   84.0900   63.0160 N   0  0  0  0  0  0  0  0  0  0  0  0
   40.2480   85.2400   65.1750 N   0  0  0  0  0  0  0  0  0  0  0  0
   45.9760   76.9520   63.7550 C   0  0  0  0  0  0  0  0  0  0  0  0
   44.9600   77.3370   62.9160 C   0  0  0  0  0  0  0  0  0  0  0  0
   44.0610   76.3590   62.5180 C   0  0  0  0  0  0  0  0  0  0  0  0
   44.2060   75.0610   62.9610 C   0  0  0  0  0  0  0  0  0  0  0  0
   43.5120   73.9450   62.7390 N   0  0  0  0  0  0  0  0  0  0  0  0
   44.0940   72.9310   63.4210 C   0  0  0  0  0  0  0  0  0  0  0  0
   45.1630   73.3700   64.0900 N   0  0  0  0  0  0  0  0  0  0  0  0
   45.2420   74.6840   63.8130 C   0  0  0  0  0  0  0  0  0  0  0  0
   46.1370   75.6490   64.2130 C   0  0  0  0  0  0  0  0  0  0  0  0
   47.2890   75.4550   65.1200 C   0  0  0  0  0  0  0  0  0  0  0  0
   47.9590   76.7110   65.5780 C   0  0  2  0  0  0  0  0  0  0  0  0
   48.5180   77.4810   64.4010 C   0  0  0  0  0  0  0  0  0  0  0  0
   49.7610   78.0640   64.7640 N   0  0  0  0  0  0  0  0  0  0  0  0
   50.7960   79.0060   65.0090 C   0  0  0  0  0  0  0  0  0  0  0  0
   51.0260   80.2030   64.6690 O   0  0  0  0  0  0  0  0  0  0  0  0
   51.5310   78.0300   65.8390 C   0  0  0  0  0  0  0  0  0  0  0  0
   50.6380   77.0280   65.2020 C   0  0  1  0  0  0  0  0  0  0  0  0
   49.5210   76.1890   66.3950 S   0  0  0  0  0  0  0  0  0  0  0  0
   47.1590   77.5630   66.4970 C   0  0  0  0  0  0  0  0  0  0  0  0
   44.4923   82.2759   61.1424 H   0  0  0  0  0  0  0  0  0  0  0  0
   46.7087   81.2610   61.3609 H   0  0  0  0  0  0  0  0  0  0  0  0
   46.9112   78.9101   62.2051 H   0  0  0  0  0  0  0  0  0  0  0  0
   39.0548   80.7258   60.2892 H   0  0  0  0  0  0  0  0  0  0  0  0
   41.2906   79.6173   60.3954 H   0  0  0  0  0  0  0  0  0  0  0  0
   40.4227   84.9970   62.5281 H   0  0  0  0  0  0  0  0  0  0  0  0
   40.2334   86.1493   64.6914 H   0  0  0  0  0  0  0  0  0  0  0  0
   40.1856   85.2021   66.2024 H   0  0  0  0  0  0  0  0  0  0  0  0
   46.6998   77.7132   64.0817 H   0  0  0  0  0  0  0  0  0  0  0  0
   43.2294   76.6194   61.8467 H   0  0  0  0  0  0  0  0  0  0  0  0
   42.6727   73.8672   62.1471 H   0  0  0  0  0  0  0  0  0  0  0  0
   43.7364   71.8908   63.4238 H   0  0  0  0  0  0  0  0  0  0  0  0
   46.9338   74.9150   66.0101 H   0  0  0  0  0  0  0  0  0  0  0  0
   48.0428   74.9013   64.5410 H   0  0  0  0  0  0  0  0  0  0  0  0
   47.8117   78.2734   64.1125 H   0  0  0  0  0  0  0  0  0  0  0  0
   48.6678   76.7966   63.5529 H   0  0  0  0  0  0  0  0  0  0  0  0
   52.6001   77.9236   65.6032 H   0  0  0  0  0  0  0  0  0  0  0  0
   51.6456   78.1298   66.9285 H   0  0  0  0  0  0  0  0  0  0  0  0
   51.1379   76.2691   64.5822 H   0  0  0  0  0  0  0  0  0  0  0  0
   47.4005   77.3058   67.5389 H   0  0  0  0  0  0  0  0  0  0  0  0
   47.3971   78.6216   66.3160 H   0  0  0  0  0  0  0  0  0  0  0  0
   46.0875   77.3920   66.3160 H   0  0  0  0  0  0  0  0  0  0  0  0
  2  7  2  0
  2  1  1  0
  3  2  1  0
  4  5  1  0
  4  3  2  0
  5  6  2  0
  6  7  1  0
  7 19  1  0
  8  9  2  0
  8 13  1  0
  9 10  1  0
 10  3  1  0
 10 11  2  0
 12 11  1  0
 12 16  1  0
 13 12  2  0
 14 15  2  0
 14 17  1  0
 16 14  1  0
 18 26  2  0
 19 18  1  0
 20 19  2  0
 20 21  1  0
 21 25  2  0
 22 21  1  0
 22 23  1  0
 23 24  2  0
 25 24  1  0
 25 26  1  0
 26 27  1  0
 28 27  1  6
 28 35  1  0
 28 36  1  0
 29 30  1  0
 29 28  1  0
 30 31  1  0
 30 34  1  0
 31 33  1  0
 32 31  2  0
 34 33  1  0
 34 35  1  0
  4 37  1  0
  5 38  1  0
  6 39  1  0
  8 40  1  0
  9 41  1  0
 16 42  1  0
 17 43  1  0
 17 44  1  0
 18 45  1  0
 20 46  1  0
 22 47  1  0
 23 48  1  0
 27 49  1  0
 27 50  1  0
 29 51  1  0
 29 52  1  0
 33 53  1  0
 33 54  1  0
 34 55  1  6
 36 56  1  0
 36 57  1  0
 36 58  1  0
M  END
>  <Score>  (1) 
-7.6253

>  <Score_dual>  (1) 
-9.09

>  <Choices>  (1) 
[None, 9, ['12-5', 195], 12, ['0-20', 0], 12, ['7-17', 150], 25, ['34-21', 120], 38, ['53-16', 270]]

$$$$
