
     RDKit          3D

 44 47  0  0  0  0  0  0  0  0999 V2000
   39.4150   77.4290   59.2630 C   0  0  0  0  0  0  0  0  0  0  0  0
   40.9690   79.8820   61.6080 C   0  0  0  0  0  0  0  0  0  0  0  0
   40.1420   79.2960   60.6830 C   0  0  0  0  0  0  0  0  0  0  0  0
   40.3260   77.9890   60.2460 C   0  0  0  0  0  0  0  0  0  0  0  0
   41.3670   77.3590   60.7960 N   0  0  0  0  0  0  0  0  0  0  0  0
   42.1760   77.9460   61.7070 C   0  0  0  0  0  0  0  0  0  0  0  0
   41.9750   79.2060   62.1110 N   0  0  0  0  0  0  0  0  0  0  0  0
   40.6650   81.2730   61.9880 C   0  0  0  0  0  0  0  0  0  0  0  0
   39.8640   82.1700   61.3230 C   0  0  0  0  0  0  0  0  0  0  0  0
   39.9140   83.3250   62.0960 C   0  0  0  0  0  0  0  0  0  0  0  0
   40.6940   83.1170   63.1430 N   0  0  0  0  0  0  0  0  0  0  0  0
   41.1530   81.8680   63.0810 N   0  0  0  0  0  0  0  0  0  0  0  0
   40.9950   84.0930   64.1830 C   0  0  0  0  0  0  0  0  0  0  0  0
   42.2490   83.9180   64.7030 F   0  0  0  0  0  0  0  0  0  0  0  0
   40.0280   83.9760   65.2100 F   0  0  0  0  0  0  0  0  0  0  0  0
   40.8300   85.3970   63.7060 F   0  0  0  0  0  0  0  0  0  0  0  0
   38.9860   76.0770   59.7260 C   0  0  0  0  0  0  0  0  0  0  0  0
   39.3720   74.9000   59.0090 C   0  0  0  0  0  0  0  0  0  0  0  0
   39.2820   74.6330   57.6710 C   0  0  0  0  0  0  0  0  0  0  0  0
   39.6690   73.4660   57.0390 C   0  0  0  0  0  0  0  0  0  0  0  0
   40.1860   72.5140   57.8550 N   0  0  0  0  0  0  0  0  0  0  0  0
   40.2900   72.7390   59.1710 C   0  0  0  0  0  0  0  0  0  0  0  0
   39.9010   73.8850   59.7310 N   0  0  0  0  0  0  0  0  0  0  0  0
   41.5600   73.2590   61.6650 F   0  0  0  0  0  0  0  0  0  0  0  0
   41.4600   72.0020   61.2270 C   0  0  0  0  0  0  0  0  0  0  0  0
   40.8600   71.6760   60.0310 C   0  0  0  0  0  0  0  0  0  0  0  0
   40.7420   70.3870   59.5530 C   0  0  0  0  0  0  0  0  0  0  0  0
   41.2680   69.3680   60.3400 C   0  0  0  0  0  0  0  0  0  0  0  0
   41.8830   69.5910   61.5420 C   0  0  0  0  0  0  0  0  0  0  0  0
   41.9570   70.9200   61.9470 C   0  0  0  0  0  0  0  0  0  0  0  0
   39.9247   77.3435   58.2920 H   0  0  0  0  0  0  0  0  0  0  0  0
   38.5376   78.0826   59.1490 H   0  0  0  0  0  0  0  0  0  0  0  0
   39.3049   79.8803   60.2732 H   0  0  0  0  0  0  0  0  0  0  0  0
   43.0181   77.3751   62.1253 H   0  0  0  0  0  0  0  0  0  0  0  0
   39.3074   82.0101   60.3878 H   0  0  0  0  0  0  0  0  0  0  0  0
   39.3872   84.2642   61.8715 H   0  0  0  0  0  0  0  0  0  0  0  0
   39.3693   75.9600   60.7504 H   0  0  0  0  0  0  0  0  0  0  0  0
   37.8959   76.1042   59.5815 H   0  0  0  0  0  0  0  0  0  0  0  0
   38.8600   75.4249   57.0347 H   0  0  0  0  0  0  0  0  0  0  0  0
   39.5652   73.3202   55.9537 H   0  0  0  0  0  0  0  0  0  0  0  0
   40.2530   70.1745   58.5909 H   0  0  0  0  0  0  0  0  0  0  0  0
   41.1857   68.3323   59.9786 H   0  0  0  0  0  0  0  0  0  0  0  0
   42.2931   68.7710   62.1498 H   0  0  0  0  0  0  0  0  0  0  0  0
   42.4456   71.1315   62.9096 H   0  0  0  0  0  0  0  0  0  0  0  0
  1 17  1  0
  1  4  1  0
  2  8  1  0
  2  7  1  0
  3  2  2  0
  4  3  1  0
  4  5  2  0
  5  6  1  0
  6  7  2  0
  8 12  2  0
  9  8  1  0
  9 10  2  0
 10 11  1  0
 11 13  1  0
 12 11  1  0
 13 14  1  0
 13 15  1  0
 16 13  1  0
 18 17  1  0
 18 23  1  0
 19 18  2  0
 20 19  1  0
 20 21  2  0
 21 22  1  0
 22 23  2  0
 22 26  1  0
 25 24  1  0
 25 30  2  0
 26 25  1  0
 27 26  2  0
 27 28  1  0
 28 29  2  0
 29 30  1  0
  1 31  1  0
  1 32  1  0
  3 33  1  0
  6 34  1  0
  9 35  1  0
 10 36  1  0
 17 37  1  0
 17 38  1  0
 19 39  1  0
 20 40  1  0
 27 41  1  0
 28 42  1  0
 29 43  1  0
 30 44  1  0
M  END
>  <Score>  (1) 
-7.33586

>  <Score_dual>  (1) 
-7.72

>  <Choices>  (1) 
[None, 6, ['22-8', 120], 16, ['11-3', 255], 18, ['4-11', 330], 25, ['19-12', 285], 33, ['9-19', 315]]

$$$$
