
     RDKit          3D

 54 59  0  0  1  0  0  0  0  0999 V2000
   42.4130   77.7120   61.1620 N   0  0  0  0  0  0  0  0  0  0  0  0
   42.7200   77.9520   62.5330 C   0  0  0  0  0  0  0  0  0  0  0  0
   43.9530   77.2630   62.9850 C   0  0  0  0  0  0  0  0  0  0  0  0
   44.9700   77.2120   61.9940 N   0  0  0  0  0  0  0  0  0  0  0  0
   44.5220   76.5670   60.7670 C   0  0  0  0  0  0  0  0  0  0  0  0
   43.0010   76.4740   60.7130 C   0  0  1  0  0  0  0  0  0  0  0  0
   40.5360   80.7000   60.1810 C   0  0  0  0  0  0  0  0  0  0  0  0
   41.2610   79.8630   60.9040 C   0  0  0  0  0  0  0  0  0  0  0  0
   41.6160   78.6350   60.4130 C   0  0  0  0  0  0  0  0  0  0  0  0
   41.1910   78.3280   59.1740 C   0  0  0  0  0  0  0  0  0  0  0  0
   40.2500   79.7860   58.6190 S   0  0  0  0  0  0  0  0  0  0  0  0
   39.5190   84.2700   59.8030 C   0  0  0  0  0  0  0  0  0  0  0  0
   40.0640   83.0240   59.4350 C   0  0  0  0  0  0  0  0  0  0  0  0
   40.0240   82.0110   60.3870 C   0  0  0  0  0  0  0  0  0  0  0  0
   39.4730   82.2490   61.6120 N   0  0  0  0  0  0  0  0  0  0  0  0
   38.9620   83.4670   61.9170 C   0  0  0  0  0  0  0  0  0  0  0  0
   38.9910   84.4480   61.0230 N   0  0  0  0  0  0  0  0  0  0  0  0
   42.4870   75.3440   61.4300 N   0  0  0  0  0  0  0  0  0  0  0  0
   43.0640   74.0960   61.6200 C   0  0  0  0  0  0  0  0  0  0  0  0
   43.5710   73.6240   62.8000 C   0  0  0  0  0  0  0  0  0  0  0  0
   44.1270   72.3560   62.9400 C   0  0  0  0  0  0  0  0  0  0  0  0
   44.1980   71.4880   61.8710 C   0  0  0  0  0  0  0  0  0  0  0  0
   43.6960   71.9360   60.6730 C   0  0  0  0  0  0  0  0  0  0  0  0
   43.1590   73.1880   60.5840 C   0  0  0  0  0  0  0  0  0  0  0  0
   43.7540   70.8720   59.2550 S   0  0  0  0  0  0  0  0  0  0  0  0
   44.5210   69.3610   59.8100 C   0  0  0  0  0  0  0  0  0  0  0  0
   44.6670   68.3960   58.8740 C   0  0  0  0  0  0  0  0  0  0  0  0
   45.2480   67.1890   59.2030 C   0  0  0  0  0  0  0  0  0  0  0  0
   45.6680   67.0090   60.5030 C   0  0  0  0  0  0  0  0  0  0  0  0
   45.4840   68.0400   61.4010 C   0  0  0  0  0  0  0  0  0  0  0  0
   44.9080   69.2630   61.1140 C   0  0  0  0  0  0  0  0  0  0  0  0
   44.7720   70.2340   62.1020 N   0  0  0  0  0  0  0  0  0  0  0  0
   42.8515   79.0345   62.6775 H   0  0  0  0  0  0  0  0  0  0  0  0
   41.8858   77.5538   63.1293 H   0  0  0  0  0  0  0  0  0  0  0  0
   44.3481   77.7963   63.8622 H   0  0  0  0  0  0  0  0  0  0  0  0
   43.6761   76.2242   63.2179 H   0  0  0  0  0  0  0  0  0  0  0  0
   45.2642   78.1740   61.7730 H   0  0  0  0  0  0  0  0  0  0  0  0
   44.8760   77.1516   59.9051 H   0  0  0  0  0  0  0  0  0  0  0  0
   44.9332   75.5471   60.7410 H   0  0  0  0  0  0  0  0  0  0  0  0
   42.7144   76.3115   59.6635 H   0  0  0  0  0  0  0  0  0  0  0  0
   41.5833   80.1573   61.9137 H   0  0  0  0  0  0  0  0  0  0  0  0
   41.3725   77.3974   58.6163 H   0  0  0  0  0  0  0  0  0  0  0  0
   39.5266   85.1029   59.0845 H   0  0  0  0  0  0  0  0  0  0  0  0
   40.5016   82.8598   58.4392 H   0  0  0  0  0  0  0  0  0  0  0  0
   38.5215   83.6432   62.9094 H   0  0  0  0  0  0  0  0  0  0  0  0
   41.5623   75.4765   61.8639 H   0  0  0  0  0  0  0  0  0  0  0  0
   43.5374   74.2799   63.6824 H   0  0  0  0  0  0  0  0  0  0  0  0
   44.5162   72.0410   63.9194 H   0  0  0  0  0  0  0  0  0  0  0  0
   42.7689   73.4999   59.6039 H   0  0  0  0  0  0  0  0  0  0  0  0
   44.3208   68.5744   57.8453 H   0  0  0  0  0  0  0  0  0  0  0  0
   45.3721   66.3954   58.4515 H   0  0  0  0  0  0  0  0  0  0  0  0
   46.1387   66.0658   60.8172 H   0  0  0  0  0  0  0  0  0  0  0  0
   45.8249   67.8745   62.4337 H   0  0  0  0  0  0  0  0  0  0  0  0
   45.1110   70.0181   63.0504 H   0  0  0  0  0  0  0  0  0  0  0  0
  1  2  1  0
  2  3  1  0
  4  3  1  0
  5  4  1  0
  6  5  1  0
  6  1  1  0
  6 18  1  0
  7 14  1  0
  7  8  2  0
  9  8  1  0
  9  1  1  0
 10  9  2  0
 11 10  1  0
 11  7  1  0
 12 17  2  0
 13 12  1  0
 13 14  2  0
 14 15  1  0
 15 16  2  0
 17 16  1  0
 18 19  1  0
 19 20  2  0
 20 21  1  0
 22 32  1  0
 22 21  2  0
 23 22  1  0
 24 23  2  0
 24 19  1  0
 25 26  1  0
 25 23  1  0
 26 31  2  0
 27 28  2  0
 27 26  1  0
 28 29  1  0
 29 30  2  0
 31 30  1  0
 31 32  1  0
  2 33  1  0
  2 34  1  0
  3 35  1  0
  3 36  1  0
  4 37  1  0
  5 38  1  0
  5 39  1  0
  6 40  1  6
  8 41  1  0
 10 42  1  0
 12 43  1  0
 13 44  1  0
 16 45  1  0
 18 46  1  0
 20 47  1  0
 21 48  1  0
 24 49  1  0
 27 50  1  0
 28 51  1  0
 29 52  1  0
 30 53  1  0
 32 54  1  0
M  END
>  <Score>  (1) 
-7.00787

>  <Score_dual>  (1) 
-8.65

>  <Choices>  (1) 
[None, 8, ['25-21', 150], 15, ['15-6', 240], 30, ['0-3', 0], 32, ['60-18', 90]]

$$$$
