
     RDKit          3D

 40 42  0  0  0  0  0  0  0  0999 V2000
   40.7460   78.6330   61.3510 C   0  0  0  0  0  0  0  0  0  0  0  0
   39.6710   78.7490   57.8430 C   0  0  0  0  0  0  0  0  0  0  0  0
   38.9530   77.5520   57.6830 C   0  0  0  0  0  0  0  0  0  0  0  0
   38.8480   76.7090   58.8060 C   0  0  0  0  0  0  0  0  0  0  0  0
   39.4390   77.0940   59.9640 N   0  0  0  0  0  0  0  0  0  0  0  0
   40.1200   78.2550   60.0700 C   0  0  0  0  0  0  0  0  0  0  0  0
   40.2340   79.0750   59.0200 N   0  0  0  0  0  0  0  0  0  0  0  0
   36.5440   78.5860   56.8590 F   0  0  0  0  0  0  0  0  0  0  0  0
   37.1440   77.7010   56.0330 C   0  0  0  0  0  0  0  0  0  0  0  0
   38.3300   77.1770   56.4110 C   0  0  0  0  0  0  0  0  0  0  0  0
   38.9570   76.2650   55.5680 C   0  0  0  0  0  0  0  0  0  0  0  0
   38.3400   75.9360   54.3800 C   0  0  0  0  0  0  0  0  0  0  0  0
   37.1290   76.4810   54.0080 C   0  0  0  0  0  0  0  0  0  0  0  0
   36.5070   77.3850   54.8430 C   0  0  0  0  0  0  0  0  0  0  0  0
   42.0010   79.4710   61.1360 C   0  0  0  0  0  0  0  0  0  0  0  0
   41.8400   80.7320   61.9110 C   0  0  0  0  0  0  0  0  0  0  0  0
   42.8680   81.6500   61.9970 C   0  0  0  0  0  0  0  0  0  0  0  0
   42.4290   82.6720   62.7540 N   0  0  0  0  0  0  0  0  0  0  0  0
   41.1560   82.4230   63.1460 C   0  0  0  0  0  0  0  0  0  0  0  0
   40.7980   81.2250   62.6230 N   0  0  0  0  0  0  0  0  0  0  0  0
   42.2150   84.3300   64.9100 N   0  0  0  0  0  0  0  0  0  0  0  0
   40.9450   84.3100   64.6870 C   0  0  0  0  0  0  0  0  0  0  0  0
   40.3360   83.2550   63.9560 N   0  0  0  0  0  0  0  0  0  0  0  0
   40.1040   85.3510   65.1680 N   0  0  0  0  0  0  0  0  0  0  0  0
   42.6210   85.1080   65.4430 H   0  0  0  0  0  0  0  0  0  0  0  0
   40.0246   79.2157   61.9427 H   0  0  0  0  0  0  0  0  0  0  0  0
   41.0335   77.7117   61.8788 H   0  0  0  0  0  0  0  0  0  0  0  0
   39.7748   79.4335   56.9882 H   0  0  0  0  0  0  0  0  0  0  0  0
   38.2981   75.7582   58.7451 H   0  0  0  0  0  0  0  0  0  0  0  0
   39.9231   75.8167   55.8432 H   0  0  0  0  0  0  0  0  0  0  0  0
   38.8291   75.2160   53.7074 H   0  0  0  0  0  0  0  0  0  0  0  0
   36.6631   76.1968   53.0529 H   0  0  0  0  0  0  0  0  0  0  0  0
   35.5414   77.8385   54.5749 H   0  0  0  0  0  0  0  0  0  0  0  0
   42.8844   78.9216   61.4934 H   0  0  0  0  0  0  0  0  0  0  0  0
   42.1401   79.6902   60.0671 H   0  0  0  0  0  0  0  0  0  0  0  0
   43.8614   81.5620   61.5328 H   0  0  0  0  0  0  0  0  0  0  0  0
   42.9745   83.5112   62.9972 H   0  0  0  0  0  0  0  0  0  0  0  0
   39.3199   83.0960   64.0118 H   0  0  0  0  0  0  0  0  0  0  0  0
   39.0913   85.3221   64.9824 H   0  0  0  0  0  0  0  0  0  0  0  0
   40.5076   86.1339   65.7019 H   0  0  0  0  0  0  0  0  0  0  0  0
  2  7  2  0
  3  2  1  0
  3  4  2  0
  4  5  1  0
  5  6  2  0
  6  1  1  0
  7  6  1  0
  9 10  2  0
  9  8  1  0
 10  3  1  0
 11 10  1  0
 12 11  2  0
 13 12  1  0
 13 14  2  0
 14  9  1  0
 15  1  1  0
 15 16  1  0
 16 17  2  0
 16 20  1  0
 17 18  1  0
 18 19  1  0
 19 23  1  0
 20 19  2  0
 21 25  1  0
 22 21  2  0
 22 24  1  0
 23 22  1  0
  1 26  1  0
  1 27  1  0
  2 28  1  0
  4 29  1  0
 11 30  1  0
 12 31  1  0
 13 32  1  0
 14 33  1  0
 15 34  1  0
 15 35  1  0
 17 36  1  0
 18 37  1  0
 23 38  1  0
 24 39  1  0
 24 40  1  0
M  END
>  <Score>  (1) 
-7.17101

>  <Score_dual>  (1) 
-7.07

>  <Choices>  (1) 
[None, 7, ['9-20', 150], 15, ['4-12', 30], 25, ['23-8', 330], 32, ['48-8', 165]]

$$$$
