
     RDKit          3D

 47 51  0  0  0  0  0  0  0  0999 V2000
   44.3850   78.0490   61.9770 C   0  0  0  0  0  0  0  0  0  0  0  0
   45.2260   78.2780   61.1150 O   0  0  0  0  0  0  0  0  0  0  0  0
   46.7320   79.5940   63.4010 Cl  0  0  0  0  0  0  0  0  0  0  0  0
   46.1740   77.9980   63.7600 C   0  0  0  0  0  0  0  0  0  0  0  0
   45.1620   77.4210   63.0320 C   0  0  0  0  0  0  0  0  0  0  0  0
   44.8900   76.1020   63.4330 C   0  0  0  0  0  0  0  0  0  0  0  0
   45.5140   75.3760   64.4400 C   0  0  0  0  0  0  0  0  0  0  0  0
   46.5090   76.0740   65.0920 C   0  0  0  0  0  0  0  0  0  0  0  0
   46.8560   77.3840   64.7720 C   0  0  0  0  0  0  0  0  0  0  0  0
   49.2590   78.1280   65.2340 C   0  0  0  0  0  0  0  0  0  0  0  0
   47.9300   77.9950   65.5450 C   0  0  0  0  0  0  0  0  0  0  0  0
   47.5110   78.5130   66.7770 C   0  0  0  0  0  0  0  0  0  0  0  0
   48.3420   79.1400   67.6810 C   0  0  0  0  0  0  0  0  0  0  0  0
   48.1910   79.7000   68.8770 N   0  0  0  0  0  0  0  0  0  0  0  0
   49.3760   80.1560   69.2820 N   0  0  0  0  0  0  0  0  0  0  0  0
   50.3240   79.9000   68.3500 C   0  0  0  0  0  0  0  0  0  0  0  0
   49.6720   79.2460   67.3130 C   0  0  0  0  0  0  0  0  0  0  0  0
   50.1190   78.7500   66.1150 C   0  0  0  0  0  0  0  0  0  0  0  0
   41.2400   79.9250   61.7630 C   0  0  0  0  0  0  0  0  0  0  0  0
   40.3250   78.9850   61.4100 C   0  0  0  0  0  0  0  0  0  0  0  0
   40.7320   77.6930   61.2310 C   0  0  0  0  0  0  0  0  0  0  0  0
   42.1060   77.4580   61.4400 C   0  0  0  0  0  0  0  0  0  0  0  0
   42.9960   78.4020   61.7900 C   0  0  0  0  0  0  0  0  0  0  0  0
   42.5590   79.6500   61.9540 N   0  0  0  0  0  0  0  0  0  0  0  0
   40.8310   81.3080   61.9550 C   0  0  0  0  0  0  0  0  0  0  0  0
   40.0990   81.9120   60.9010 C   0  0  0  0  0  0  0  0  0  0  0  0
   39.6780   83.2140   61.0000 C   0  0  0  0  0  0  0  0  0  0  0  0
   39.9980   83.8640   62.1380 N   0  0  0  0  0  0  0  0  0  0  0  0
   40.7020   83.2690   63.1410 C   0  0  0  0  0  0  0  0  0  0  0  0
   41.1170   81.9940   63.0510 N   0  0  0  0  0  0  0  0  0  0  0  0
   40.9870   84.1150   64.3450 C   0  0  0  0  0  0  0  0  0  0  0  0
   40.8680   85.4240   63.9110 F   0  0  0  0  0  0  0  0  0  0  0  0
   42.2860   83.9850   64.7750 F   0  0  0  0  0  0  0  0  0  0  0  0
   40.0640   83.9160   65.3250 F   0  0  0  0  0  0  0  0  0  0  0  0
   44.0892   75.5834   62.8855 H   0  0  0  0  0  0  0  0  0  0  0  0
   45.2401   74.3413   64.6935 H   0  0  0  0  0  0  0  0  0  0  0  0
   47.0549   75.5715   65.9041 H   0  0  0  0  0  0  0  0  0  0  0  0
   49.6404   77.7374   64.2790 H   0  0  0  0  0  0  0  0  0  0  0  0
   46.4478   78.4129   67.0410 H   0  0  0  0  0  0  0  0  0  0  0  0
   47.3076   79.7697   69.4020 H   0  0  0  0  0  0  0  0  0  0  0  0
   51.3921   80.1574   68.4033 H   0  0  0  0  0  0  0  0  0  0  0  0
   51.1824   78.8500   65.8520 H   0  0  0  0  0  0  0  0  0  0  0  0
   39.2693   79.2606   61.2700 H   0  0  0  0  0  0  0  0  0  0  0  0
   40.0355   76.8916   60.9436 H   0  0  0  0  0  0  0  0  0  0  0  0
   42.4754   76.4304   61.3074 H   0  0  0  0  0  0  0  0  0  0  0  0
   39.8667   81.3313   59.9961 H   0  0  0  0  0  0  0  0  0  0  0  0
   39.1098   83.7019   60.1944 H   0  0  0  0  0  0  0  0  0  0  0  0
  1  5  1  0
  2  1  2  0
  3  4  1  0
  4  9  2  0
  5  6  2  0
  5  4  1  0
  6  7  1  0
  7  8  2  0
  9  8  1  0
  9 11  1  0
 10 11  2  0
 10 18  1  0
 11 12  1  0
 12 13  2  0
 13 14  1  0
 14 15  1  0
 16 15  2  0
 17 13  1  0
 17 16  1  0
 18 17  2  0
 19 24  1  0
 19 25  1  0
 20 19  2  0
 21 20  1  0
 21 22  2  0
 22 23  1  0
 23 24  2  0
 23  1  1  0
 25 30  2  0
 26 27  2  0
 26 25  1  0
 27 28  1  0
 28 29  2  0
 29 31  1  0
 30 29  1  0
 31 33  1  0
 31 34  1  0
 32 31  1  0
  6 35  1  0
  7 36  1  0
  8 37  1  0
 10 38  1  0
 12 39  1  0
 14 40  1  0
 16 41  1  0
 18 42  1  0
 20 43  1  0
 21 44  1  0
 22 45  1  0
 26 46  1  0
 27 47  1  0
M  END
>  <Score>  (1) 
-7.18197

>  <Score_dual>  (1) 
-8.33

>  <Choices>  (1) 
[None, 6, ['6-18', 60], 14, ['11-13', 180], 21, ['5-8', 0], 23, ['7-3', 240], 33, ['54-8', 0]]

$$$$
