
     RDKit          3D

 50 54  0  0  0  0  0  0  0  0999 V2000
   40.6690   77.1640   60.2180 C   0  0  0  0  0  0  0  0  0  0  0  0
   39.9590   78.7160   58.3810 C   0  0  0  0  0  0  0  0  0  0  0  0
   39.8000   77.5430   59.1470 C   0  0  0  0  0  0  0  0  0  0  0  0
   38.7320   76.7800   58.7830 C   0  0  0  0  0  0  0  0  0  0  0  0
   37.8480   77.0590   57.7760 C   0  0  0  0  0  0  0  0  0  0  0  0
   36.7650   76.4240   57.2990 N   0  0  0  0  0  0  0  0  0  0  0  0
   36.2690   77.1640   56.2820 C   0  0  0  0  0  0  0  0  0  0  0  0
   37.0430   78.2570   56.1300 N   0  0  0  0  0  0  0  0  0  0  0  0
   38.0480   78.2250   57.0510 C   0  0  0  0  0  0  0  0  0  0  0  0
   39.1050   79.0730   57.3400 C   0  0  0  0  0  0  0  0  0  0  0  0
   39.2960   80.2210   56.6210 O   0  0  0  0  0  0  0  0  0  0  0  0
   41.3040   82.0370   56.7920 F   0  0  0  0  0  0  0  0  0  0  0  0
   41.0690   81.3620   55.6390 C   0  0  0  0  0  0  0  0  0  0  0  0
   40.0450   80.4150   55.5000 C   0  0  0  0  0  0  0  0  0  0  0  0
   39.8810   79.7760   54.2820 C   0  0  0  0  0  0  0  0  0  0  0  0
   40.7010   80.0420   53.1850 C   0  0  0  0  0  0  0  0  0  0  0  0
   41.7160   80.9690   53.2930 C   0  0  0  0  0  0  0  0  0  0  0  0
   41.8650   81.5950   54.5110 C   0  0  0  0  0  0  0  0  0  0  0  0
   40.5340   77.7960   61.5560 C   0  0  0  0  0  0  0  0  0  0  0  0
   41.4950   81.3400   61.5100 C   0  0  0  0  0  0  0  0  0  0  0  0
   42.8170   81.3500   61.8570 C   0  0  0  0  0  0  0  0  0  0  0  0
   43.4300   80.1170   62.1210 C   0  0  0  0  0  0  0  0  0  0  0  0
   42.6740   78.9910   62.0170 N   0  0  0  0  0  0  0  0  0  0  0  0
   41.3880   79.0490   61.6750 C   0  0  0  0  0  0  0  0  0  0  0  0
   40.7610   80.2120   61.4120 N   0  0  0  0  0  0  0  0  0  0  0  0
   40.7520   82.5600   61.2130 N   0  0  0  0  0  0  0  0  0  0  0  0
   40.8240   82.8830   59.8690 C   0  0  0  0  0  0  0  0  0  0  0  0
   40.1920   83.9980   59.3690 C   0  0  0  0  0  0  0  0  0  0  0  0
   39.4770   84.7940   60.2630 C   0  0  0  0  0  0  0  0  0  0  0  0
   38.8950   85.8110   59.8340 O   0  0  0  0  0  0  0  0  0  0  0  0
   39.4430   84.4390   61.5330 N   0  0  0  0  0  0  0  0  0  0  0  0
   40.0640   83.3470   62.0040 C   0  0  0  0  0  0  0  0  0  0  0  0
   40.0700   82.9640   63.1740 O   0  0  0  0  0  0  0  0  0  0  0  0
   41.6956   77.3634   59.8770 H   0  0  0  0  0  0  0  0  0  0  0  0
   40.3871   76.1179   60.4080 H   0  0  0  0  0  0  0  0  0  0  0  0
   40.8007   79.3835   58.6176 H   0  0  0  0  0  0  0  0  0  0  0  0
   38.5643   75.8532   59.3513 H   0  0  0  0  0  0  0  0  0  0  0  0
   36.3812   75.5333   57.6457 H   0  0  0  0  0  0  0  0  0  0  0  0
   35.3826   76.9158   55.6797 H   0  0  0  0  0  0  0  0  0  0  0  0
   39.0766   79.0333   54.1760 H   0  0  0  0  0  0  0  0  0  0  0  0
   40.5379   79.5126   52.2347 H   0  0  0  0  0  0  0  0  0  0  0  0
   42.3773   81.1984   52.4444 H   0  0  0  0  0  0  0  0  0  0  0  0
   42.6726   82.3359   54.6047 H   0  0  0  0  0  0  0  0  0  0  0  0
   39.4801   78.0662   61.7179 H   0  0  0  0  0  0  0  0  0  0  0  0
   40.8766   77.0744   62.3122 H   0  0  0  0  0  0  0  0  0  0  0  0
   43.3802   82.2923   61.9267 H   0  0  0  0  0  0  0  0  0  0  0  0
   44.4915   80.0618   62.4040 H   0  0  0  0  0  0  0  0  0  0  0  0
   41.3970   82.2363   59.1882 H   0  0  0  0  0  0  0  0  0  0  0  0
   40.2488   84.2528   58.3004 H   0  0  0  0  0  0  0  0  0  0  0  0
   38.9153   85.0273   62.1935 H   0  0  0  0  0  0  0  0  0  0  0  0
  1 19  1  0
  2  3  2  0
  3  1  1  0
  4  3  1  0
  5  4  2  0
  6  5  1  0
  7  6  1  0
  8  7  2  0
  8  9  1  0
  9 10  2  0
  9  5  1  0
 10  2  1  0
 11 10  1  0
 13 12  1  0
 14 13  2  0
 14 11  1  0
 15 14  1  0
 16 17  1  0
 16 15  2  0
 17 18  2  0
 18 13  1  0
 19 24  1  0
 20 21  2  0
 21 22  1  0
 23 22  2  0
 24 23  1  0
 25 20  1  0
 25 24  2  0
 26 20  1  0
 26 32  1  0
 27 26  1  0
 28 27  2  0
 28 29  1  0
 29 31  1  0
 30 29  2  0
 31 32  1  0
 32 33  2  0
  1 34  1  0
  1 35  1  0
  2 36  1  0
  4 37  1  0
  6 38  1  0
  7 39  1  0
 15 40  1  0
 16 41  1  0
 17 42  1  0
 18 43  1  0
 19 44  1  0
 19 45  1  0
 21 46  1  0
 22 47  1  0
 27 48  1  0
 28 49  1  0
 31 50  1  0
M  END
>  <Score>  (1) 
-7.2464

>  <Score_dual>  (1) 
-7.23

>  <Choices>  (1) 
[None, 6, ['37-16', 135], 19, ['4-9', 270], 25, ['34-15', 255], 38, ['2-1', 0], 39, ['9-8', 15]]

$$$$
