
     RDKit          3D

 50 54  0  0  0  0  0  0  0  0999 V2000
   41.1170   77.2690   59.9410 C   0  0  0  0  0  0  0  0  0  0  0  0
   40.0870   78.8070   58.2560 C   0  0  0  0  0  0  0  0  0  0  0  0
   40.0710   77.6400   59.0300 C   0  0  0  0  0  0  0  0  0  0  0  0
   38.9590   76.8500   58.8570 C   0  0  0  0  0  0  0  0  0  0  0  0
   37.9130   77.1410   57.9990 C   0  0  0  0  0  0  0  0  0  0  0  0
   36.7780   76.4860   57.7220 N   0  0  0  0  0  0  0  0  0  0  0  0
   36.1100   77.2170   56.8080 C   0  0  0  0  0  0  0  0  0  0  0  0
   36.8390   78.3130   56.5330 N   0  0  0  0  0  0  0  0  0  0  0  0
   37.9880   78.3150   57.2580 C   0  0  0  0  0  0  0  0  0  0  0  0
   39.0800   79.1640   57.3790 C   0  0  0  0  0  0  0  0  0  0  0  0
   39.0960   80.3050   56.6200 O   0  0  0  0  0  0  0  0  0  0  0  0
   39.3860   79.0160   53.8740 Cl  0  0  0  0  0  0  0  0  0  0  0  0
   40.3620   80.2570   54.6750 C   0  0  0  0  0  0  0  0  0  0  0  0
   40.1780   80.8120   55.9270 C   0  0  0  0  0  0  0  0  0  0  0  0
   41.0620   81.7860   56.3400 C   0  0  0  0  0  0  0  0  0  0  0  0
   42.1080   82.2130   55.5550 C   0  0  0  0  0  0  0  0  0  0  0  0
   42.2770   81.6570   54.3250 C   0  0  0  0  0  0  0  0  0  0  0  0
   41.4030   80.6670   53.8690 C   0  0  0  0  0  0  0  0  0  0  0  0
   41.7770   80.0690   52.2660 Cl  0  0  0  0  0  0  0  0  0  0  0  0
   41.0420   77.7090   61.3640 C   0  0  0  0  0  0  0  0  0  0  0  0
   41.7760   81.2990   61.5380 C   0  0  0  0  0  0  0  0  0  0  0  0
   43.0780   81.3800   61.9380 C   0  0  0  0  0  0  0  0  0  0  0  0
   43.7600   80.1710   62.1650 C   0  0  0  0  0  0  0  0  0  0  0  0
   43.0800   79.0170   61.9730 N   0  0  0  0  0  0  0  0  0  0  0  0
   41.8100   78.9910   61.5820 C   0  0  0  0  0  0  0  0  0  0  0  0
   41.1060   80.1350   61.3480 N   0  0  0  0  0  0  0  0  0  0  0  0
   40.9610   82.4830   61.2710 N   0  0  0  0  0  0  0  0  0  0  0  0
   41.0210   82.8470   59.9420 C   0  0  0  0  0  0  0  0  0  0  0  0
   40.3220   83.9450   59.4730 C   0  0  0  0  0  0  0  0  0  0  0  0
   39.5600   84.6640   60.3870 C   0  0  0  0  0  0  0  0  0  0  0  0
   38.9240   85.6570   59.9830 O   0  0  0  0  0  0  0  0  0  0  0  0
   39.5390   84.2670   61.6570 N   0  0  0  0  0  0  0  0  0  0  0  0
   40.2210   83.2020   62.0990 C   0  0  0  0  0  0  0  0  0  0  0  0
   40.2480   82.7840   63.2430 O   0  0  0  0  0  0  0  0  0  0  0  0
   42.0555   77.6704   59.5311 H   0  0  0  0  0  0  0  0  0  0  0  0
   41.0283   76.1744   60.0041 H   0  0  0  0  0  0  0  0  0  0  0  0
   40.9523   79.4794   58.3516 H   0  0  0  0  0  0  0  0  0  0  0  0
   38.8964   75.9207   59.4422 H   0  0  0  0  0  0  0  0  0  0  0  0
   36.4729   75.5912   58.1310 H   0  0  0  0  0  0  0  0  0  0  0  0
   35.1367   76.9614   56.3637 H   0  0  0  0  0  0  0  0  0  0  0  0
   40.9260   82.2382   57.3335 H   0  0  0  0  0  0  0  0  0  0  0  0
   42.7964   82.9913   55.9160 H   0  0  0  0  0  0  0  0  0  0  0  0
   43.1076   81.9892   53.6849 H   0  0  0  0  0  0  0  0  0  0  0  0
   39.9881   77.8721   61.6338 H   0  0  0  0  0  0  0  0  0  0  0  0
   41.4877   76.9253   61.9942 H   0  0  0  0  0  0  0  0  0  0  0  0
   43.5743   82.3517   62.0773 H   0  0  0  0  0  0  0  0  0  0  0  0
   44.8115   80.1638   62.4880 H   0  0  0  0  0  0  0  0  0  0  0  0
   41.6333   82.2559   59.2451 H   0  0  0  0  0  0  0  0  0  0  0  0
   40.3675   84.2389   58.4140 H   0  0  0  0  0  0  0  0  0  0  0  0
   38.9729   84.8027   62.3304 H   0  0  0  0  0  0  0  0  0  0  0  0
  1 20  1  0
  2  3  2  0
  3  1  1  0
  4  3  1  0
  5  4  2  0
  6  5  1  0
  7  6  1  0
  8  7  2  0
  8  9  1  0
  9 10  2  0
  9  5  1  0
 10  2  1  0
 11 10  1  0
 12 13  1  0
 13 14  2  0
 14 15  1  0
 14 11  1  0
 16 15  2  0
 17 16  1  0
 18 17  2  0
 18 13  1  0
 19 18  1  0
 20 25  1  0
 21 22  2  0
 22 23  1  0
 24 23  2  0
 25 24  1  0
 26 21  1  0
 26 25  2  0
 27 21  1  0
 27 33  1  0
 28 27  1  0
 29 28  2  0
 29 30  1  0
 30 32  1  0
 31 30  2  0
 32 33  1  0
 33 34  2  0
  1 35  1  0
  1 36  1  0
  2 37  1  0
  4 38  1  0
  6 39  1  0
  7 40  1  0
 15 41  1  0
 16 42  1  0
 17 43  1  0
 20 44  1  0
 20 45  1  0
 22 46  1  0
 23 47  1  0
 28 48  1  0
 29 49  1  0
 32 50  1  0
M  END
>  <Score>  (1) 
-7.22848

>  <Score_dual>  (1) 
-7.05

>  <Choices>  (1) 
[None, 6, ['37-16', 135], 19, ['4-9', 270], 25, ['34-15', 255], 38, ['2-1', 0], 39, ['51-20', 330]]

$$$$
