
     RDKit          3D

 41 44  0  0  0  0  0  0  0  0999 V2000
   41.9690   78.6090   62.5730 Cl  0  0  0  0  0  0  0  0  0  0  0  0
   43.4570   79.4410   62.1750 C   0  0  0  0  0  0  0  0  0  0  0  0
   43.3900   80.7420   61.7120 C   0  0  0  0  0  0  0  0  0  0  0  0
   44.5960   81.3110   61.4280 C   0  0  0  0  0  0  0  0  0  0  0  0
   45.8170   80.6830   61.5740 C   0  0  0  0  0  0  0  0  0  0  0  0
   45.8450   79.3810   62.0410 C   0  0  0  0  0  0  0  0  0  0  0  0
   44.6590   78.7600   62.3420 C   0  0  0  0  0  0  0  0  0  0  0  0
   39.9460   81.5890   60.6230 C   0  0  0  0  0  0  0  0  0  0  0  0
   41.1560   80.8850   60.6890 C   0  0  0  0  0  0  0  0  0  0  0  0
   42.1070   81.3880   61.5630 C   0  0  0  0  0  0  0  0  0  0  0  0
   41.8140   82.4970   62.2800 N   0  0  0  0  0  0  0  0  0  0  0  0
   40.6310   83.1490   62.1880 C   0  0  0  0  0  0  0  0  0  0  0  0
   39.6830   82.6840   61.3440 N   0  0  0  0  0  0  0  0  0  0  0  0
   40.3610   84.1230   64.4240 C   0  0  0  0  0  0  0  0  0  0  0  0
   40.2990   82.9350   64.8540 O   0  0  0  0  0  0  0  0  0  0  0  0
   40.5370   84.2680   63.0120 N   0  0  0  0  0  0  0  0  0  0  0  0
   40.2680   85.2550   65.2370 N   0  0  0  0  0  0  0  0  0  0  0  0
   45.5890   76.9760   63.8410 C   0  0  0  0  0  0  0  0  0  0  0  0
   44.7470   77.3850   62.8320 C   0  0  0  0  0  0  0  0  0  0  0  0
   43.9420   76.4210   62.2590 C   0  0  0  0  0  0  0  0  0  0  0  0
   43.9880   75.1200   62.6830 C   0  0  0  0  0  0  0  0  0  0  0  0
   43.3400   74.0120   62.3180 N   0  0  0  0  0  0  0  0  0  0  0  0
   43.7880   72.9810   63.0900 C   0  0  0  0  0  0  0  0  0  0  0  0
   44.7080   73.3840   63.9460 N   0  0  0  0  0  0  0  0  0  0  0  0
   44.8410   74.7130   63.7030 C   0  0  0  0  0  0  0  0  0  0  0  0
   45.6550   75.6700   64.2880 C   0  0  0  0  0  0  0  0  0  0  0  0
   46.5640   75.3810   65.3320 N   0  0  0  0  0  0  0  0  0  0  0  0
   44.5963   82.3460   61.0553 H   0  0  0  0  0  0  0  0  0  0  0  0
   46.7504   81.2083   61.3236 H   0  0  0  0  0  0  0  0  0  0  0  0
   46.8014   78.8528   62.1688 H   0  0  0  0  0  0  0  0  0  0  0  0
   39.1679   81.2196   59.9388 H   0  0  0  0  0  0  0  0  0  0  0  0
   41.3402   79.9859   60.0827 H   0  0  0  0  0  0  0  0  0  0  0  0
   40.5949   85.2102   62.6000 H   0  0  0  0  0  0  0  0  0  0  0  0
   40.3266   86.1949   64.8198 H   0  0  0  0  0  0  0  0  0  0  0  0
   40.1408   85.1498   66.2537 H   0  0  0  0  0  0  0  0  0  0  0  0
   46.2409   77.7249   64.3145 H   0  0  0  0  0  0  0  0  0  0  0  0
   43.2529   76.7025   61.4492 H   0  0  0  0  0  0  0  0  0  0  0  0
   42.6244   73.9467   61.5800 H   0  0  0  0  0  0  0  0  0  0  0  0
   43.4281   71.9447   63.0094 H   0  0  0  0  0  0  0  0  0  0  0  0
   46.6439   74.4200   65.6940 H   0  0  0  0  0  0  0  0  0  0  0  0
   47.1462   76.1315   65.7304 H   0  0  0  0  0  0  0  0  0  0  0  0
  2  7  2  0
  2  1  1  0
  3  2  1  0
  4  5  1  0
  4  3  2  0
  5  6  2  0
  6  7  1  0
  7 19  1  0
  8  9  2  0
  8 13  1  0
  9 10  1  0
 10  3  1  0
 10 11  2  0
 12 11  1  0
 12 16  1  0
 13 12  2  0
 14 15  2  0
 14 17  1  0
 16 14  1  0
 18 26  2  0
 19 18  1  0
 20 21  1  0
 20 19  2  0
 21 25  2  0
 22 21  1  0
 22 23  1  0
 23 24  2  0
 25 24  1  0
 25 26  1  0
 26 27  1  0
  4 28  1  0
  5 29  1  0
  6 30  1  0
  8 31  1  0
  9 32  1  0
 16 33  1  0
 17 34  1  0
 17 35  1  0
 18 36  1  0
 20 37  1  0
 22 38  1  0
 23 39  1  0
 27 40  1  0
 27 41  1  0
M  END
>  <Score>  (1) 
-7.33212

>  <Score_dual>  (1) 
-7.67

>  <Choices>  (1) 
[None, 9, ['12-5', 195], 12, ['0-20', 0], 12, ['7-17', 150], 25, ['34-21', 120], 38, ['0-3', 0]]

$$$$
