
     RDKit          3D

 48 53  0  0  1  0  0  0  0  0999 V2000
   40.0690   77.6360   58.1060 Cl  0  0  0  0  0  0  0  0  0  0  0  0
   41.1640   76.7940   59.1570 C   0  0  0  0  0  0  0  0  0  0  0  0
   42.1240   77.5010   59.8390 C   0  0  0  0  0  0  0  0  0  0  0  0
   42.9600   76.7450   60.6750 C   0  0  0  0  0  0  0  0  0  0  0  0
   42.8320   75.3880   60.8070 C   0  0  0  0  0  0  0  0  0  0  0  0
   41.8710   74.7110   60.1180 C   0  0  0  0  0  0  0  0  0  0  0  0
   41.0260   75.4310   59.2820 C   0  0  0  0  0  0  0  0  0  0  0  0
   42.9590   80.9040   58.4970 C   0  0  0  0  0  0  0  0  0  0  0  0
   42.9160   79.5160   58.6500 C   0  0  0  0  0  0  0  0  0  0  0  0
   42.2040   78.9410   59.6700 C   0  0  0  0  0  0  0  0  0  0  0  0
   41.5240   79.7570   60.5560 N   0  0  0  0  0  0  0  0  0  0  0  0
   41.5790   81.1030   60.3930 C   0  0  0  0  0  0  0  0  0  0  0  0
   42.2840   81.6900   59.3790 N   0  0  0  0  0  0  0  0  0  0  0  0
   40.8680   81.9120   61.3240 N   0  0  0  0  0  0  0  0  0  0  0  0
   39.5370   82.1290   61.4380 C   0  0  0  0  0  0  0  0  0  0  0  0
   39.3000   82.9790   62.4770 N   0  0  0  0  0  0  0  0  0  0  0  0
   40.5010   83.2820   63.0010 C   0  0  0  0  0  0  0  0  0  0  0  0
   40.9360   84.0670   64.0390 C   0  0  1  0  0  0  0  0  0  0  0  0
   42.2410   84.2200   64.3860 N   0  0  0  0  0  0  0  0  0  0  0  0
   43.1870   83.5610   63.6720 C   0  0  0  0  0  0  0  0  0  0  0  0
   42.7780   82.7990   62.6660 N   0  0  0  0  0  0  0  0  0  0  0  0
   41.5010   82.6290   62.3000 C   0  0  0  0  0  0  0  0  0  0  0  0
   40.0150   84.7900   64.8360 N   0  0  0  0  0  0  0  0  0  0  0  0
   41.3770   72.5650   59.0030 C   0  0  0  0  0  0  0  0  0  0  0  0
   41.6390   73.2540   60.1800 C   0  0  0  0  0  0  0  0  0  0  0  0
   41.6530   72.4780   61.3080 C   0  0  0  0  0  0  0  0  0  0  0  0
   41.4270   71.1300   61.2800 C   0  0  0  0  0  0  0  0  0  0  0  0
   41.3830   70.1630   62.2080 N   0  0  0  0  0  0  0  0  0  0  0  0
   41.1210   68.9820   61.6840 N   0  0  0  0  0  0  0  0  0  0  0  0
   40.9750   69.1150   60.3530 C   0  0  0  0  0  0  0  0  0  0  0  0
   41.1700   70.4750   60.1040 C   0  0  0  0  0  0  0  0  0  0  0  0
   41.1440   71.2040   58.9400 C   0  0  0  0  0  0  0  0  0  0  0  0
   43.7466   77.2612   61.2449 H   0  0  0  0  0  0  0  0  0  0  0  0
   43.5115   74.8392   61.4757 H   0  0  0  0  0  0  0  0  0  0  0  0
   40.2413   74.9073   58.7163 H   0  0  0  0  0  0  0  0  0  0  0  0
   43.5315   81.3559   57.6736 H   0  0  0  0  0  0  0  0  0  0  0  0
   43.4616   78.8754   57.9415 H   0  0  0  0  0  0  0  0  0  0  0  0
   38.7647   81.6871   60.7913 H   0  0  0  0  0  0  0  0  0  0  0  0
   40.8550   83.2086   64.7221 H   0  0  0  0  0  0  0  0  0  0  0  0
   44.2550   83.6549   63.9181 H   0  0  0  0  0  0  0  0  0  0  0  0
   43.4981   82.2996   62.1247 H   0  0  0  0  0  0  0  0  0  0  0  0
   40.2216   84.6278   65.8320 H   0  0  0  0  0  0  0  0  0  0  0  0
   40.0961   85.7955   64.6278 H   0  0  0  0  0  0  0  0  0  0  0  0
   41.3535   73.1371   58.0638 H   0  0  0  0  0  0  0  0  0  0  0  0
   41.8544   72.9590   62.2766 H   0  0  0  0  0  0  0  0  0  0  0  0
   41.5362   70.3243   63.2137 H   0  0  0  0  0  0  0  0  0  0  0  0
   40.7510   68.3250   59.6211 H   0  0  0  0  0  0  0  0  0  0  0  0
   40.9416   70.7140   57.9762 H   0  0  0  0  0  0  0  0  0  0  0  0
  1  2  1  0
  2  7  2  0
  2  3  1  0
  3  4  2  0
  4  5  1  0
  6 25  1  0
  6  5  2  0
  7  6  1  0
  8  9  2  0
  8 13  1  0
  9 10  1  0
 10  3  1  0
 10 11  2  0
 12 11  1  0
 12 14  1  0
 13 12  2  0
 14 15  1  0
 14 22  1  0
 15 16  2  0
 16 17  1  0
 17 18  1  0
 18 19  1  0
 18 23  1  0
 20 19  2  0
 21 20  1  0
 22 21  1  0
 22 17  2  0
 24 25  2  0
 25 26  1  0
 27 26  2  0
 27 28  1  0
 29 28  1  0
 30 29  2  0
 31 30  1  0
 31 27  1  0
 32 24  1  0
 32 31  2  0
  4 33  1  0
  5 34  1  0
  7 35  1  0
  8 36  1  0
  9 37  1  0
 15 38  1  0
 18 39  1  1
 20 40  1  0
 21 41  1  0
 23 42  1  0
 23 43  1  0
 24 44  1  0
 26 45  1  0
 28 46  1  0
 30 47  1  0
 32 48  1  0
M  END
>  <Score>  (1) 
-8.07361

>  <Score_dual>  (1) 
-9.68

>  <Choices>  (1) 
[None, 8, ['7-18', 120], 18, ['54-9', 240], 32, ['28-11', 60]]

$$$$
