
     RDKit          3D

 51 55  0  0  1  0  0  0  0  0999 V2000
   40.7680   83.8740   60.5440 C   0  0  0  0  0  0  0  0  0  0  0  0
   40.9900   82.4990   60.6970 C   0  0  0  0  0  0  0  0  0  0  0  0
   40.1320   81.7080   61.4540 C   0  0  0  0  0  0  0  0  0  0  0  0
   39.0680   82.3310   62.0390 N   0  0  0  0  0  0  0  0  0  0  0  0
   38.8360   83.6520   61.9040 C   0  0  0  0  0  0  0  0  0  0  0  0
   39.6720   84.4040   61.1710 N   0  0  0  0  0  0  0  0  0  0  0  0
   41.5080   84.8320   59.8130 C   0  0  0  0  0  0  0  0  0  0  0  0
   40.9680   85.2450   58.5820 C   0  0  0  0  0  0  0  0  0  0  0  0
   41.5610   86.1760   57.7300 C   0  0  0  0  0  0  0  0  0  0  0  0
   42.7460   86.7360   58.0980 C   0  0  0  0  0  0  0  0  0  0  0  0
   43.3090   86.3720   59.2760 C   0  0  0  0  0  0  0  0  0  0  0  0
   44.5230   86.9330   59.6690 C   0  0  0  0  0  0  0  0  0  0  0  0
   45.1640   86.6190   60.8470 C   0  0  0  0  0  0  0  0  0  0  0  0
   44.4990   85.6850   61.6290 C   0  0  0  0  0  0  0  0  0  0  0  0
   43.3150   85.1280   61.2590 C   0  0  0  0  0  0  0  0  0  0  0  0
   42.7090   85.4590   60.0900 C   0  0  0  0  0  0  0  0  0  0  0  0
   40.4040   80.3270   61.5710 C   0  0  0  0  0  0  0  0  0  0  0  0
   40.7720   79.7310   62.6150 O   0  0  0  0  0  0  0  0  0  0  0  0
   40.1710   77.6710   62.1670 F   0  0  0  0  0  0  0  0  0  0  0  0
   40.1690   78.0840   60.8710 C   0  0  0  0  0  0  0  0  0  0  0  0
   40.2820   79.4000   60.4400 C   0  0  0  0  0  0  0  0  0  0  0  0
   40.2660   79.6780   59.0980 C   0  0  0  0  0  0  0  0  0  0  0  0
   40.1390   78.6520   58.1890 C   0  0  0  0  0  0  0  0  0  0  0  0
   40.0260   77.3340   58.6150 C   0  0  0  0  0  0  0  0  0  0  0  0
   40.0410   77.0440   59.9630 C   0  0  0  0  0  0  0  0  0  0  0  0
   38.6620   74.3200   58.3010 O   0  0  0  0  0  0  0  0  0  0  0  0
   38.8090   75.4010   57.6300 C   0  0  0  0  0  0  0  0  0  0  0  0
   39.8840   76.4090   57.4840 C   0  0  1  0  0  0  0  0  0  0  0  0
   39.4470   77.1300   56.2070 C   0  0  0  0  0  0  0  0  0  0  0  0
   37.9440   77.0910   56.3240 C   0  0  0  0  0  0  0  0  0  0  0  0
   37.6960   75.7530   56.8190 N   0  0  0  0  0  0  0  0  0  0  0  0
   39.9360   75.6880   60.3550 N   0  0  0  0  0  0  0  0  0  0  0  0
   41.8601   82.0358   60.2088 H   0  0  0  0  0  0  0  0  0  0  0  0
   37.9646   84.1121   62.3928 H   0  0  0  0  0  0  0  0  0  0  0  0
   40.0107   84.8026   58.2693 H   0  0  0  0  0  0  0  0  0  0  0  0
   41.0810   86.4524   56.7796 H   0  0  0  0  0  0  0  0  0  0  0  0
   43.2398   87.4737   57.4483 H   0  0  0  0  0  0  0  0  0  0  0  0
   44.9957   87.6678   59.0008 H   0  0  0  0  0  0  0  0  0  0  0  0
   46.1224   87.0705   61.1431 H   0  0  0  0  0  0  0  0  0  0  0  0
   44.9479   85.3831   62.5868 H   0  0  0  0  0  0  0  0  0  0  0  0
   42.8370   84.3921   61.9223 H   0  0  0  0  0  0  0  0  0  0  0  0
   40.3543   80.7173   58.7485 H   0  0  0  0  0  0  0  0  0  0  0  0
   40.1268   78.8781   57.1126 H   0  0  0  0  0  0  0  0  0  0  0  0
   40.8828   75.9497   57.4463 H   0  0  0  0  0  0  0  0  0  0  0  0
   39.7920   76.5968   55.3089 H   0  0  0  0  0  0  0  0  0  0  0  0
   39.8581   78.1455   56.1081 H   0  0  0  0  0  0  0  0  0  0  0  0
   37.5819   77.8495   57.0336 H   0  0  0  0  0  0  0  0  0  0  0  0
   37.4275   77.3081   55.3774 H   0  0  0  0  0  0  0  0  0  0  0  0
   36.8713   75.1685   56.6213 H   0  0  0  0  0  0  0  0  0  0  0  0
   39.9442   75.4387   61.3543 H   0  0  0  0  0  0  0  0  0  0  0  0
   39.8514   74.9505   59.6409 H   0  0  0  0  0  0  0  0  0  0  0  0
  1  2  2  0
  1  6  1  0
  2  3  1  0
  3 17  1  0
  3  4  2  0
  5  4  1  0
  6  5  2  0
  7 16  1  0
  7  1  1  0
  8  7  2  0
  9 10  2  0
  9  8  1  0
 10 11  1  0
 11 12  1  0
 11 16  2  0
 12 13  2  0
 13 14  1  0
 15 14  2  0
 16 15  1  0
 17 18  2  0
 20 19  1  0
 21 20  2  0
 21 17  1  0
 22 21  1  0
 23 24  1  0
 23 22  2  0
 24 25  2  0
 25 32  1  0
 25 20  1  0
 27 26  2  0
 28 27  1  0
 28 24  1  0
 29 30  1  0
 29 28  1  0
 30 31  1  0
 31 27  1  0
  2 33  1  0
  5 34  1  0
  8 35  1  0
  9 36  1  0
 10 37  1  0
 12 38  1  0
 13 39  1  0
 14 40  1  0
 15 41  1  0
 22 42  1  0
 23 43  1  0
 28 44  1  6
 29 45  1  0
 29 46  1  0
 30 47  1  0
 30 48  1  0
 31 49  1  0
 32 50  1  0
 32 51  1  0
M  END
>  <Score>  (1) 
-7.52933

>  <Score_dual>  (1) 
-8.6

>  <Choices>  (1) 
[None, 8, ['5-9', 180], 8, ['26-25', 345], 27, ['9-4', 240], 37, ['0-3', 0], 37, ['41-13', 0]]

$$$$
