
     RDKit          3D

 44 47  0  0  0  0  0  0  0  0999 V2000
   40.3360   81.5540   57.9860 F   0  0  0  0  0  0  0  0  0  0  0  0
   41.0900   82.5010   57.3870 C   0  0  0  0  0  0  0  0  0  0  0  0
   41.4140   83.6200   58.1240 C   0  0  0  0  0  0  0  0  0  0  0  0
   42.1780   84.5720   57.5060 C   0  0  0  0  0  0  0  0  0  0  0  0
   42.5840   84.3840   56.2050 C   0  0  0  0  0  0  0  0  0  0  0  0
   42.2440   83.2570   55.4940 C   0  0  0  0  0  0  0  0  0  0  0  0
   41.4770   82.2750   56.0810 C   0  0  0  0  0  0  0  0  0  0  0  0
   39.7680   84.4040   59.8240 C   0  0  0  0  0  0  0  0  0  0  0  0
   40.9550   83.7720   59.5130 C   0  0  0  0  0  0  0  0  0  0  0  0
   41.7830   83.2400   60.5600 C   0  0  0  0  0  0  0  0  0  0  0  0
   41.3180   83.4060   61.8210 N   0  0  0  0  0  0  0  0  0  0  0  0
   40.1540   84.0260   62.1000 C   0  0  0  0  0  0  0  0  0  0  0  0
   39.3900   84.5190   61.1140 N   0  0  0  0  0  0  0  0  0  0  0  0
   40.8830   84.5610   64.2820 C   0  0  0  0  0  0  0  0  0  0  0  0
   42.0730   84.8210   63.9080 O   0  0  0  0  0  0  0  0  0  0  0  0
   39.7700   84.1380   63.4880 N   0  0  0  0  0  0  0  0  0  0  0  0
   41.1040   81.0820   55.3610 C   0  0  0  0  0  0  0  0  0  0  0  0
   40.9170   81.1880   54.1060 O   0  0  0  0  0  0  0  0  0  0  0  0
   41.7030   77.6900   56.8150 N   0  0  0  0  0  0  0  0  0  0  0  0
   41.9360   78.8920   56.2800 C   0  0  0  0  0  0  0  0  0  0  0  0
   40.9240   79.7680   55.9430 C   0  0  0  0  0  0  0  0  0  0  0  0
   39.6240   79.3160   56.1970 C   0  0  0  0  0  0  0  0  0  0  0  0
   38.6860   80.0750   55.9070 O   0  0  0  0  0  0  0  0  0  0  0  0
   39.4490   78.1060   56.7330 N   0  0  0  0  0  0  0  0  0  0  0  0
   40.4400   77.2650   57.0570 C   0  0  0  0  0  0  0  0  0  0  0  0
   40.2760   76.1340   57.5580 O   0  0  0  0  0  0  0  0  0  0  0  0
   38.1000   77.7080   56.9660 C   0  0  0  0  0  0  0  0  0  0  0  0
   36.9370   78.0480   56.3750 N   0  0  0  0  0  0  0  0  0  0  0  0
   35.9170   77.3750   56.9830 C   0  0  0  0  0  0  0  0  0  0  0  0
   36.4740   76.6100   57.9650 N   0  0  0  0  0  0  0  0  0  0  0  0
   37.8020   76.8140   57.9530 N   0  0  0  0  0  0  0  0  0  0  0  0
   42.4667   85.4848   58.0476 H   0  0  0  0  0  0  0  0  0  0  0  0
   43.1980   85.1570   55.7198 H   0  0  0  0  0  0  0  0  0  0  0  0
   42.5851   83.1396   54.4548 H   0  0  0  0  0  0  0  0  0  0  0  0
   39.1331   84.8120   59.0237 H   0  0  0  0  0  0  0  0  0  0  0  0
   42.7348   82.7299   60.3504 H   0  0  0  0  0  0  0  0  0  0  0  0
   40.6849   84.6771   65.3578 H   0  0  0  0  0  0  0  0  0  0  0  0
   38.8278   83.9411   63.8546 H   0  0  0  0  0  0  0  0  0  0  0  0
   42.4971   77.0765   57.0472 H   0  0  0  0  0  0  0  0  0  0  0  0
   42.9778   79.1961   56.1007 H   0  0  0  0  0  0  0  0  0  0  0  0
   35.2014   78.0874   57.4192 H   0  0  0  0  0  0  0  0  0  0  0  0
   35.3726   76.7502   56.2597 H   0  0  0  0  0  0  0  0  0  0  0  0
   36.0876   76.8819   58.8803 H   0  0  0  0  0  0  0  0  0  0  0  0
   38.4830   76.3689   58.5847 H   0  0  0  0  0  0  0  0  0  0  0  0
  2  1  1  0
  2  3  2  0
  3  9  1  0
  4  3  1  0
  5  4  2  0
  6  7  2  0
  6  5  1  0
  7  2  1  0
  8 13  2  0
  9  8  1  0
  9 10  2  0
 10 11  1  0
 11 12  2  0
 12 16  1  0
 13 12  1  0
 15 14  2  0
 16 14  1  0
 17 21  1  0
 17  7  1  0
 18 17  2  0
 19 25  1  0
 20 19  1  0
 21 22  1  0
 21 20  2  0
 22 24  1  0
 23 22  2  0
 24 27  1  0
 24 25  1  0
 25 26  2  0
 27 31  1  0
 28 27  2  0
 28 29  1  0
 29 30  1  0
 31 30  1  0
  4 32  1  0
  5 33  1  0
  6 34  1  0
  8 35  1  0
 10 36  1  0
 14 37  1  0
 16 38  1  0
 19 39  1  0
 20 40  1  0
 29 41  1  0
 29 42  1  0
 30 43  1  0
 31 44  1  0
M  END
>  <Score>  (1) 
-7.69058

>  <Score_dual>  (1) 
-7.83

>  <Choices>  (1) 
[None, 7, ['9-20', 150], 15, ['12-5', 135], 23, ['5-8', 300], 25, ['37-17', 165], 35, ['57-14', 120]]

$$$$
