
     RDKit          3D

 53 58  0  0  0  0  0  0  0  0999 V2000
   44.1420   83.7850   61.2730 C   0  0  0  0  0  0  0  0  0  0  0  0
   43.2050   84.7970   61.1600 C   0  0  0  0  0  0  0  0  0  0  0  0
   43.5650   86.1230   60.9730 C   0  0  0  0  0  0  0  0  0  0  0  0
   44.8970   86.4980   60.8880 C   0  0  0  0  0  0  0  0  0  0  0  0
   45.8740   85.5170   60.9950 C   0  0  0  0  0  0  0  0  0  0  0  0
   45.4960   84.2080   61.1800 C   0  0  0  0  0  0  0  0  0  0  0  0
   40.8380   84.4550   60.1970 C   0  0  0  0  0  0  0  0  0  0  0  0
   41.7530   84.5750   61.2240 C   0  0  0  0  0  0  0  0  0  0  0  0
   41.1080   84.4530   62.4750 C   0  0  0  0  0  0  0  0  0  0  0  0
   39.8180   84.2620   62.1280 N   0  0  0  0  0  0  0  0  0  0  0  0
   39.6750   84.2660   60.8070 N   0  0  0  0  0  0  0  0  0  0  0  0
   40.9600   85.7440   58.1020 C   0  0  0  0  0  0  0  0  0  0  0  0
   41.1210   84.5280   58.8310 C   0  0  0  0  0  0  0  0  0  0  0  0
   41.5820   83.4640   58.1220 C   0  0  0  0  0  0  0  0  0  0  0  0
   41.8720   83.5540   56.8060 N   0  0  0  0  0  0  0  0  0  0  0  0
   41.7060   84.7330   56.1450 C   0  0  0  0  0  0  0  0  0  0  0  0
   41.2510   85.8370   56.7800 N   0  0  0  0  0  0  0  0  0  0  0  0
   43.6560   82.2080   61.5650 S   0  0  0  0  0  0  0  0  0  0  0  0
   43.7790   82.0270   63.0710 O   0  0  0  0  0  0  0  0  0  0  0  0
   44.6980   81.2960   60.8890 O   0  0  0  0  0  0  0  0  0  0  0  0
   42.2560   81.3480   61.3590 C   0  0  0  0  0  0  0  0  0  0  0  0
   41.2250   81.0550   62.2840 C   0  0  0  0  0  0  0  0  0  0  0  0
   40.2950   80.3520   61.6510 N   0  0  0  0  0  0  0  0  0  0  0  0
   40.6070   80.1540   60.3970 C   0  0  0  0  0  0  0  0  0  0  0  0
   41.7850   80.7610   60.2610 N   0  0  0  0  0  0  0  0  0  0  0  0
   40.0370   79.5770   59.1950 C   0  0  0  0  0  0  0  0  0  0  0  0
   39.8260   80.3500   58.0470 C   0  0  0  0  0  0  0  0  0  0  0  0
   39.2790   79.8890   56.8800 C   0  0  0  0  0  0  0  0  0  0  0  0
   38.8910   78.5780   56.7770 C   0  0  0  0  0  0  0  0  0  0  0  0
   39.0660   77.7630   57.8650 C   0  0  0  0  0  0  0  0  0  0  0  0
   38.6400   76.4650   57.7420 C   0  0  0  0  0  0  0  0  0  0  0  0
   38.7470   75.5850   58.7980 C   0  0  0  0  0  0  0  0  0  0  0  0
   39.3040   76.0870   59.9790 C   0  0  0  0  0  0  0  0  0  0  0  0
   39.7110   77.3990   60.0330 C   0  0  0  0  0  0  0  0  0  0  0  0
   39.6210   78.2920   59.0020 C   0  0  0  0  0  0  0  0  0  0  0  0
   42.7808   86.8900   60.8907 H   0  0  0  0  0  0  0  0  0  0  0  0
   45.1745   87.5519   60.7387 H   0  0  0  0  0  0  0  0  0  0  0  0
   46.9392   85.7843   60.9324 H   0  0  0  0  0  0  0  0  0  0  0  0
   46.2851   83.4458   61.2605 H   0  0  0  0  0  0  0  0  0  0  0  0
   41.5481   84.5016   63.4820 H   0  0  0  0  0  0  0  0  0  0  0  0
   39.0468   84.1306   62.7980 H   0  0  0  0  0  0  0  0  0  0  0  0
   40.5879   86.6350   58.6289 H   0  0  0  0  0  0  0  0  0  0  0  0
   41.7230   82.5013   58.6351 H   0  0  0  0  0  0  0  0  0  0  0  0
   41.9468   84.7885   55.0731 H   0  0  0  0  0  0  0  0  0  0  0  0
   41.1996   81.3571   63.3414 H   0  0  0  0  0  0  0  0  0  0  0  0
   39.4323   80.0045   62.0936 H   0  0  0  0  0  0  0  0  0  0  0  0
   40.1224   81.4086   58.0858 H   0  0  0  0  0  0  0  0  0  0  0  0
   39.1508   80.5698   56.0255 H   0  0  0  0  0  0  0  0  0  0  0  0
   38.4511   78.1907   55.8462 H   0  0  0  0  0  0  0  0  0  0  0  0
   38.2081   76.1223   56.7901 H   0  0  0  0  0  0  0  0  0  0  0  0
   38.4113   74.5407   58.7160 H   0  0  0  0  0  0  0  0  0  0  0  0
   39.4156   75.4361   60.8587 H   0  0  0  0  0  0  0  0  0  0  0  0
   40.1425   77.7579   60.9790 H   0  0  0  0  0  0  0  0  0  0  0  0
  1 18  1  0
  2  8  1  0
  2  1  1  0
  3  2  2  0
  4  3  1  0
  4  5  2  0
  5  6  1  0
  6  1  2  0
  7 11  2  0
  7  8  1  0
  8  9  2  0
 10  9  1  0
 11 10  1  0
 12 13  2  0
 13  7  1  0
 14 13  1  0
 15 14  2  0
 16 17  2  0
 16 15  1  0
 17 12  1  0
 18 19  2  0
 20 18  2  0
 21 18  1  0
 21 22  2  0
 23 22  1  0
 24 23  1  0
 25 24  2  0
 25 21  1  0
 26 24  1  0
 27 26  2  0
 28 27  1  0
 29 28  2  0
 29 30  1  0
 30 35  2  0
 31 30  1  0
 31 32  2  0
 32 33  1  0
 33 34  2  0
 35 26  1  0
 35 34  1  0
  3 36  1  0
  4 37  1  0
  5 38  1  0
  6 39  1  0
  9 40  1  0
 10 41  1  0
 12 42  1  0
 14 43  1  0
 16 44  1  0
 22 45  1  0
 23 46  1  0
 27 47  1  0
 28 48  1  0
 29 49  1  0
 31 50  1  0
 32 51  1  0
 33 52  1  0
 34 53  1  0
M  END
>  <Score>  (1) 
-7.39017

>  <Score_dual>  (1) 
-7.82

>  <Choices>  (1) 
[None, 7, ['22-7', 135], 14, ['27-17', 165], 29, ['23-9', 75], 36, ['26-23', 285]]

$$$$
