
     RDKit          3D

 43 47  0  0  0  0  0  0  0  0999 V2000
   39.6660   79.6080   58.4090 C   0  0  0  0  0  0  0  0  0  0  0  0
   40.1590   80.1670   59.5510 C   0  0  0  0  0  0  0  0  0  0  0  0
   40.3430   79.2680   60.5860 C   0  0  0  0  0  0  0  0  0  0  0  0
   40.0680   77.9250   60.5180 C   0  0  0  0  0  0  0  0  0  0  0  0
   40.1870   76.9360   61.4160 N   0  0  0  0  0  0  0  0  0  0  0  0
   39.7720   75.7830   60.8310 C   0  0  0  0  0  0  0  0  0  0  0  0
   39.3940   76.0870   59.5500 N   0  0  0  0  0  0  0  0  0  0  0  0
   39.5700   77.3900   59.3470 C   0  0  0  0  0  0  0  0  0  0  0  0
   39.3730   78.2540   58.2930 C   0  0  0  0  0  0  0  0  0  0  0  0
   41.5020   83.5940   59.0660 C   0  0  0  0  0  0  0  0  0  0  0  0
   41.2590   82.2340   58.8120 C   0  0  0  0  0  0  0  0  0  0  0  0
   40.4700   81.5530   59.7200 C   0  0  0  0  0  0  0  0  0  0  0  0
   39.9770   82.2300   60.7980 N   0  0  0  0  0  0  0  0  0  0  0  0
   40.2240   83.5240   61.0150 C   0  0  0  0  0  0  0  0  0  0  0  0
   40.9830   84.1980   60.1520 N   0  0  0  0  0  0  0  0  0  0  0  0
   42.3140   84.4030   58.1780 N   0  0  0  0  0  0  0  0  0  0  0  0
   40.0910   83.5640   63.3880 C   0  0  0  0  0  0  0  0  0  0  0  0
   40.8770   82.5620   63.4620 O   0  0  0  0  0  0  0  0  0  0  0  0
   39.6710   84.1650   62.1710 N   0  0  0  0  0  0  0  0  0  0  0  0
   37.5040   77.9660   56.8400 C   0  0  0  0  0  0  0  0  0  0  0  0
   38.8460   77.6540   57.0720 C   0  0  0  0  0  0  0  0  0  0  0  0
   39.5300   76.8500   56.1840 C   0  0  0  0  0  0  0  0  0  0  0  0
   38.8870   76.3510   55.0600 C   0  0  0  0  0  0  0  0  0  0  0  0
   39.3500   75.5570   54.0670 N   0  0  0  0  0  0  0  0  0  0  0  0
   38.3470   75.3370   53.1840 C   0  0  0  0  0  0  0  0  0  0  0  0
   37.2150   76.0090   53.6280 C   0  0  0  0  0  0  0  0  0  0  0  0
   37.5590   76.6540   54.8190 C   0  0  0  0  0  0  0  0  0  0  0  0
   36.8530   77.4660   55.7070 C   0  0  0  0  0  0  0  0  0  0  0  0
   39.4921   80.2586   57.5393 H   0  0  0  0  0  0  0  0  0  0  0  0
   40.7395   79.6587   61.5348 H   0  0  0  0  0  0  0  0  0  0  0  0
   40.5329   77.0340   62.3812 H   0  0  0  0  0  0  0  0  0  0  0  0
   39.7444   74.7881   61.2995 H   0  0  0  0  0  0  0  0  0  0  0  0
   41.6789   81.7321   57.9278 H   0  0  0  0  0  0  0  0  0  0  0  0
   42.7310   83.9825   57.3353 H   0  0  0  0  0  0  0  0  0  0  0  0
   42.4738   85.3982   58.3899 H   0  0  0  0  0  0  0  0  0  0  0  0
   39.7134   83.9910   64.3288 H   0  0  0  0  0  0  0  0  0  0  0  0
   39.0366   84.9751   62.1247 H   0  0  0  0  0  0  0  0  0  0  0  0
   36.9584   78.6058   57.5493 H   0  0  0  0  0  0  0  0  0  0  0  0
   40.5864   76.6041   56.3670 H   0  0  0  0  0  0  0  0  0  0  0  0
   40.3066   75.1821   53.9947 H   0  0  0  0  0  0  0  0  0  0  0  0
   38.4168   74.7291   52.2699 H   0  0  0  0  0  0  0  0  0  0  0  0
   36.2321   76.0295   53.1345 H   0  0  0  0  0  0  0  0  0  0  0  0
   35.7971   77.7102   55.5186 H   0  0  0  0  0  0  0  0  0  0  0  0
  1  2  2  0
  2 12  1  0
  2  3  1  0
  4  3  2  0
  4  5  1  0
  6  5  1  0
  7  6  2  0
  8  7  1  0
  8  4  1  0
  9  1  1  0
  9  8  2  0
 10 15  2  0
 11 10  1  0
 11 12  2  0
 12 13  1  0
 13 14  2  0
 14 19  1  0
 15 14  1  0
 16 10  1  0
 17 18  2  0
 19 17  1  0
 20 21  2  0
 21  9  1  0
 22 21  1  0
 23 22  2  0
 24 23  1  0
 25 26  2  0
 25 24  1  0
 26 27  1  0
 27 23  1  0
 27 28  2  0
 28 20  1  0
  1 29  1  0
  3 30  1  0
  5 31  1  0
  6 32  1  0
 11 33  1  0
 16 34  1  0
 16 35  1  0
 17 36  1  0
 19 37  1  0
 20 38  1  0
 22 39  1  0
 24 40  1  0
 25 41  1  0
 26 42  1  0
 28 43  1  0
M  END
>  <Score>  (1) 
-7.42507

>  <Score_dual>  (1) 
-7.91

>  <Choices>  (1) 
[None, 6, ['0-3', 0], 9, ['12-5', 150], 11, ['34-20', 15], 28, ['24-8', 30]]

$$$$
