
     RDKit          3D

 46 50  0  0  0  0  0  0  0  0999 V2000
   41.8480   78.5530   62.3370 Cl  0  0  0  0  0  0  0  0  0  0  0  0
   43.3690   79.3930   62.1210 C   0  0  0  0  0  0  0  0  0  0  0  0
   43.3440   80.7370   61.7860 C   0  0  0  0  0  0  0  0  0  0  0  0
   44.5650   81.3140   61.6370 C   0  0  0  0  0  0  0  0  0  0  0  0
   45.7690   80.6530   61.7970 C   0  0  0  0  0  0  0  0  0  0  0  0
   45.7570   79.3100   62.1310 C   0  0  0  0  0  0  0  0  0  0  0  0
   44.5380   78.6890   62.2920 C   0  0  0  0  0  0  0  0  0  0  0  0
   39.9420   81.6750   60.6460 C   0  0  0  0  0  0  0  0  0  0  0  0
   41.1260   80.9390   60.7230 C   0  0  0  0  0  0  0  0  0  0  0  0
   42.0740   81.4190   61.6210 C   0  0  0  0  0  0  0  0  0  0  0  0
   41.8040   82.5280   62.3420 N   0  0  0  0  0  0  0  0  0  0  0  0
   40.6380   83.2130   62.2370 C   0  0  0  0  0  0  0  0  0  0  0  0
   39.6870   82.7760   61.3690 N   0  0  0  0  0  0  0  0  0  0  0  0
   40.3620   84.1850   64.4630 C   0  0  0  0  0  0  0  0  0  0  0  0
   40.2580   82.9950   64.8960 O   0  0  0  0  0  0  0  0  0  0  0  0
   40.5620   84.3320   63.0720 N   0  0  0  0  0  0  0  0  0  0  0  0
   40.2870   85.3170   65.2950 N   0  0  0  0  0  0  0  0  0  0  0  0
   45.4960   76.7150   63.5170 C   0  0  0  0  0  0  0  0  0  0  0  0
   44.5800   77.2700   62.6460 C   0  0  0  0  0  0  0  0  0  0  0  0
   43.6570   76.4080   62.0910 C   0  0  0  0  0  0  0  0  0  0  0  0
   43.6670   75.0600   62.4020 C   0  0  0  0  0  0  0  0  0  0  0  0
   42.9040   74.0350   62.0140 N   0  0  0  0  0  0  0  0  0  0  0  0
   43.3490   72.9160   62.6290 C   0  0  0  0  0  0  0  0  0  0  0  0
   44.3950   73.1940   63.4180 N   0  0  0  0  0  0  0  0  0  0  0  0
   44.5920   74.5320   63.2750 C   0  0  0  0  0  0  0  0  0  0  0  0
   45.5210   75.3790   63.8390 C   0  0  0  0  0  0  0  0  0  0  0  0
   46.5330   74.9140   64.7680 C   0  0  0  0  0  0  0  0  0  0  0  0
   47.4690   75.6200   65.4950 C   0  0  0  0  0  0  0  0  0  0  0  0
   48.2010   74.7450   66.2280 N   0  0  0  0  0  0  0  0  0  0  0  0
   47.7300   73.5040   65.9650 C   0  0  0  0  0  0  0  0  0  0  0  0
   46.7340   73.6260   65.0890 N   0  0  0  0  0  0  0  0  0  0  0  0
   44.5981   82.3808   61.3707 H   0  0  0  0  0  0  0  0  0  0  0  0
   46.7214   81.1863   61.6609 H   0  0  0  0  0  0  0  0  0  0  0  0
   46.6962   78.7531   62.2644 H   0  0  0  0  0  0  0  0  0  0  0  0
   39.1669   81.3292   59.9462 H   0  0  0  0  0  0  0  0  0  0  0  0
   41.2979   80.0392   60.1140 H   0  0  0  0  0  0  0  0  0  0  0  0
   40.6529   85.2751   62.6681 H   0  0  0  0  0  0  0  0  0  0  0  0
   40.3779   86.2601   64.8909 H   0  0  0  0  0  0  0  0  0  0  0  0
   40.1412   85.2027   66.3082 H   0  0  0  0  0  0  0  0  0  0  0  0
   46.2448   77.3764   63.9773 H   0  0  0  0  0  0  0  0  0  0  0  0
   42.9027   76.7978   61.3916 H   0  0  0  0  0  0  0  0  0  0  0  0
   42.1116   74.0878   61.3581 H   0  0  0  0  0  0  0  0  0  0  0  0
   42.9120   71.9149   62.4992 H   0  0  0  0  0  0  0  0  0  0  0  0
   47.5999   76.7121   65.4822 H   0  0  0  0  0  0  0  0  0  0  0  0
   48.9733   74.9814   66.8672 H   0  0  0  0  0  0  0  0  0  0  0  0
   48.1026   72.5635   66.3970 H   0  0  0  0  0  0  0  0  0  0  0  0
  2  7  2  0
  2  1  1  0
  3  2  1  0
  4  3  2  0
  4  5  1  0
  5  6  2  0
  6  7  1  0
  7 19  1  0
  8  9  2  0
  8 13  1  0
  9 10  1  0
 10  3  1  0
 10 11  2  0
 12 11  1  0
 12 16  1  0
 13 12  2  0
 14 15  2  0
 14 17  1  0
 16 14  1  0
 18 26  2  0
 19 18  1  0
 20 21  1  0
 20 19  2  0
 21 25  2  0
 22 21  1  0
 22 23  1  0
 23 24  2  0
 25 24  1  0
 25 26  1  0
 26 27  1  0
 27 31  1  0
 27 28  2  0
 28 29  1  0
 30 29  1  0
 31 30  2  0
  4 32  1  0
  5 33  1  0
  6 34  1  0
  8 35  1  0
  9 36  1  0
 16 37  1  0
 17 38  1  0
 17 39  1  0
 18 40  1  0
 20 41  1  0
 22 42  1  0
 23 43  1  0
 28 44  1  0
 29 45  1  0
 30 46  1  0
M  END
>  <Score>  (1) 
-8.01317

>  <Score_dual>  (1) 
-8.18

>  <Choices>  (1) 
[None, 9, ['12-5', 195], 12, ['0-20', 0], 12, ['7-17', 150], 25, ['34-21', 120], 38, ['23-7', 150]]

$$$$
