
     RDKit          3D

 55 60  0  0  1  0  0  0  0  0999 V2000
   41.6970   80.2080   61.0610 C   0  0  0  0  0  0  0  0  0  0  0  0
   40.7610   80.7210   60.1670 C   0  0  0  0  0  0  0  0  0  0  0  0
   40.4770   79.9630   59.0500 C   0  0  0  0  0  0  0  0  0  0  0  0
   41.1030   78.7490   58.8390 C   0  0  0  0  0  0  0  0  0  0  0  0
   42.0160   78.2840   59.7440 C   0  0  0  0  0  0  0  0  0  0  0  0
   42.3250   78.9980   60.8580 C   0  0  0  0  0  0  0  0  0  0  0  0
   39.4930   84.2630   59.8820 C   0  0  0  0  0  0  0  0  0  0  0  0
   40.1220   83.0430   59.5450 C   0  0  0  0  0  0  0  0  0  0  0  0
   40.1410   81.9920   60.4390 C   0  0  0  0  0  0  0  0  0  0  0  0
   39.5270   82.2280   61.6180 N   0  0  0  0  0  0  0  0  0  0  0  0
   38.9340   83.3930   61.9230 C   0  0  0  0  0  0  0  0  0  0  0  0
   38.9130   84.4060   61.0670 N   0  0  0  0  0  0  0  0  0  0  0  0
   40.7530   77.9800   57.6180 C   0  0  0  0  0  0  0  0  0  0  0  0
   39.3230   77.7030   57.5830 N   0  0  0  0  0  0  0  0  0  0  0  0
   38.6030   78.4970   56.7390 C   0  0  0  0  0  0  0  0  0  0  0  0
   37.2440   78.3180   56.6330 C   0  0  0  0  0  0  0  0  0  0  0  0
   36.6080   77.3550   57.3610 C   0  0  0  0  0  0  0  0  0  0  0  0
   35.3620   77.2290   57.2290 O   0  0  0  0  0  0  0  0  0  0  0  0
   37.3680   76.5820   58.1940 N   0  0  0  0  0  0  0  0  0  0  0  0
   38.6880   76.7570   58.2970 C   0  0  0  0  0  0  0  0  0  0  0  0
   39.3950   76.0530   59.0580 O   0  0  0  0  0  0  0  0  0  0  0  0
   41.9900   80.9670   62.1920 O   0  0  0  0  0  0  0  0  0  0  0  0
   43.2420   78.5820   61.8110 O   0  0  0  0  0  0  0  0  0  0  0  0
   43.0890   77.3970   62.5660 C   0  0  0  0  0  0  0  0  0  0  0  0
   44.4000   76.7740   62.7370 C   0  0  0  0  0  0  0  0  0  0  0  0
   44.5690   75.4780   62.5570 C   0  0  0  0  0  0  0  0  0  0  0  0
   45.8810   74.9690   62.7480 N   0  0  0  0  0  0  0  0  0  0  0  0
   46.7790   73.9480   63.1270 C   0  0  2  0  0  0  0  0  0  0  0  0
   46.7140   72.7140   63.3630 O   0  0  0  0  0  0  0  0  0  0  0  0
   47.9570   74.8130   63.1810 C   0  0  0  0  0  0  0  0  0  0  0  0
   47.0530   75.7750   62.4590 C   0  0  1  0  0  0  0  0  0  0  0  0
   46.9740   77.3220   63.4020 S   0  0  0  0  0  0  0  0  0  0  0  0
   45.2970   77.8580   63.1060 C   0  0  0  0  0  0  0  0  0  0  0  0
   43.5340   74.5240   62.1840 C   0  0  0  0  0  0  0  0  0  0  0  0
   42.7680   74.3050   61.2150 O   0  0  0  0  0  0  0  0  0  0  0  0
   43.1450   73.4900   63.0040 O   0  0  0  0  0  0  0  0  0  0  0  0
   39.7427   80.3296   58.3176 H   0  0  0  0  0  0  0  0  0  0  0  0
   42.5084   77.3163   59.5675 H   0  0  0  0  0  0  0  0  0  0  0  0
   39.4842   85.0943   59.1617 H   0  0  0  0  0  0  0  0  0  0  0  0
   40.6008   82.9303   58.5611 H   0  0  0  0  0  0  0  0  0  0  0  0
   38.4542   83.5103   62.9059 H   0  0  0  0  0  0  0  0  0  0  0  0
   41.0303   78.5657   56.7292 H   0  0  0  0  0  0  0  0  0  0  0  0
   41.3005   77.0260   57.6288 H   0  0  0  0  0  0  0  0  0  0  0  0
   39.1066   79.2755   56.1471 H   0  0  0  0  0  0  0  0  0  0  0  0
   36.6627   78.9585   55.9535 H   0  0  0  0  0  0  0  0  0  0  0  0
   36.9123   75.8481   58.7548 H   0  0  0  0  0  0  0  0  0  0  0  0
   42.6501   80.6372   62.8521 H   0  0  0  0  0  0  0  0  0  0  0  0
   42.6634   77.6388   63.5511 H   0  0  0  0  0  0  0  0  0  0  0  0
   42.4124   76.7055   62.0426 H   0  0  0  0  0  0  0  0  0  0  0  0
   46.7062   72.5652   64.3417 H   0  0  0  0  0  0  0  0  0  0  0  0
   48.2746   75.1225   64.1877 H   0  0  0  0  0  0  0  0  0  0  0  0
   48.9554   74.5189   62.8251 H   0  0  0  0  0  0  0  0  0  0  0  0
   45.3058   78.5961   62.2904 H   0  0  0  0  0  0  0  0  0  0  0  0
   44.9213   78.2835   64.0482 H   0  0  0  0  0  0  0  0  0  0  0  0
   42.4365   72.8644   62.7095 H   0  0  0  0  0  0  0  0  0  0  0  0
  1 22  1  0
  2  9  1  0
  2  1  2  0
  3  2  1  0
  4  3  2  0
  4  5  1  0
  5  6  2  0
  6  1  1  0
  6 23  1  0
  7 12  2  0
  8  7  1  0
  8  9  2  0
  9 10  1  0
 10 11  2  0
 12 11  1  0
 13  4  1  0
 14 13  1  0
 14 20  1  0
 15 14  1  0
 16 15  2  0
 16 17  1  0
 17 19  1  0
 18 17  2  0
 19 20  1  0
 20 21  2  0
 23 24  1  0
 24 25  1  0
 25 33  1  0
 26 25  2  0
 26 27  1  0
 27 28  1  0
 28 30  1  0
 28 29  1  6
 31 27  1  0
 31 28  1  0
 31 30  1  0
 31 32  1  6
 33 32  1  0
 34 26  1  0
 34 36  1  0
 35 34  2  0
  3 37  1  0
  5 38  1  0
  7 39  1  0
  8 40  1  0
 11 41  1  0
 13 42  1  0
 13 43  1  0
 15 44  1  0
 16 45  1  0
 19 46  1  0
 22 47  1  0
 24 48  1  0
 24 49  1  0
 29 50  1  0
 30 51  1  0
 30 52  1  0
 33 53  1  0
 33 54  1  0
 36 55  1  0
M  END
>  <Score>  (1) 
-7.15315

>  <Score_dual>  (1) 
-7.68

>  <Choices>  (1) 
[None, 8, ['35-27', 345], 15, ['3-9', 0], 24, ['37-11', 225], 34, ['55-6', 270]]

$$$$
