
     RDKit          3D

 49 54  0  0  1  0  0  0  0  0999 V2000
   39.1580   80.0950   57.7900 C   0  0  0  0  0  0  0  0  0  0  0  0
   40.1220   81.0650   58.1090 C   0  0  0  0  0  0  0  0  0  0  0  0
   40.8300   81.6490   57.0620 C   0  0  0  0  0  0  0  0  0  0  0  0
   40.5760   81.2700   55.7830 N   0  0  0  0  0  0  0  0  0  0  0  0
   39.6490   80.3370   55.4970 C   0  0  0  0  0  0  0  0  0  0  0  0
   38.9590   79.7680   56.4980 N   0  0  0  0  0  0  0  0  0  0  0  0
   41.7900   82.6360   57.3930 N   0  0  0  0  0  0  0  0  0  0  0  0
   40.9420   80.4200   60.2970 C   0  0  0  0  0  0  0  0  0  0  0  0
   40.3200   81.3880   59.5230 C   0  0  0  0  0  0  0  0  0  0  0  0
   39.8990   82.5790   59.9860 C   0  0  0  0  0  0  0  0  0  0  0  0
   40.1120   82.8420   61.3460 C   0  0  0  0  0  0  0  0  0  0  0  0
   39.8150   83.9330   62.1410 N   0  0  0  0  0  0  0  0  0  0  0  0
   40.2550   83.6240   63.3900 C   0  0  0  0  0  0  0  0  0  0  0  0
   40.8030   82.3940   63.3670 N   0  0  0  0  0  0  0  0  0  0  0  0
   40.7300   81.8840   62.1200 C   0  0  0  0  0  0  0  0  0  0  0  0
   41.1580   80.6730   61.6490 C   0  0  0  0  0  0  0  0  0  0  0  0
   39.3810   79.8940   54.1250 C   0  0  2  0  0  0  0  0  0  0  0  0
   37.9220   79.5330   53.7590 C   0  0  0  0  0  0  0  0  0  0  0  0
   39.0230   78.4960   53.7870 C   0  0  2  0  0  0  0  0  0  0  0  0
   38.7690   77.4450   54.8010 C   0  0  0  0  0  0  0  0  0  0  0  0
   37.4180   77.2040   55.0920 C   0  0  0  0  0  0  0  0  0  0  0  0
   37.3420   76.1990   56.0730 C   0  0  0  0  0  0  0  0  0  0  0  0
   38.6260   75.8690   56.3400 N   0  0  0  0  0  0  0  0  0  0  0  0
   39.4030   76.5940   55.6010 N   0  0  0  0  0  0  0  0  0  0  0  0
   38.6240   76.9550   59.0540 Cl  0  0  0  0  0  0  0  0  0  0  0  0
   39.1800   75.3700   58.5590 C   0  0  0  0  0  0  0  0  0  0  0  0
   39.1570   74.9070   57.2530 C   0  0  0  0  0  0  0  0  0  0  0  0
   39.6170   73.6400   56.9590 C   0  0  0  0  0  0  0  0  0  0  0  0
   40.0910   72.8670   57.9880 C   0  0  0  0  0  0  0  0  0  0  0  0
   40.1250   73.3030   59.2950 C   0  0  0  0  0  0  0  0  0  0  0  0
   40.7510   72.2440   60.5650 Cl  0  0  0  0  0  0  0  0  0  0  0  0
   39.6610   74.5860   59.6040 C   0  0  0  0  0  0  0  0  0  0  0  0
   38.5730   79.6085   58.5844 H   0  0  0  0  0  0  0  0  0  0  0  0
   42.3360   83.0934   56.6489 H   0  0  0  0  0  0  0  0  0  0  0  0
   41.9423   82.8965   58.3778 H   0  0  0  0  0  0  0  0  0  0  0  0
   41.2599   79.4667   59.8496 H   0  0  0  0  0  0  0  0  0  0  0  0
   39.4103   83.3123   59.3277 H   0  0  0  0  0  0  0  0  0  0  0  0
   39.3530   84.8052   61.8464 H   0  0  0  0  0  0  0  0  0  0  0  0
   40.1762   84.2728   64.2748 H   0  0  0  0  0  0  0  0  0  0  0  0
   41.6473   79.9374   62.3043 H   0  0  0  0  0  0  0  0  0  0  0  0
   40.1622   80.5758   53.7578 H   0  0  0  0  0  0  0  0  0  0  0  0
   37.4920   79.8611   52.8012 H   0  0  0  0  0  0  0  0  0  0  0  0
   36.9365   79.6515   54.2330 H   0  0  0  0  0  0  0  0  0  0  0  0
   39.5250   77.7940   53.1049 H   0  0  0  0  0  0  0  0  0  0  0  0
   36.5609   77.7158   54.6299 H   0  0  0  0  0  0  0  0  0  0  0  0
   36.4342   75.7733   56.5254 H   0  0  0  0  0  0  0  0  0  0  0  0
   39.6040   73.2599   55.9268 H   0  0  0  0  0  0  0  0  0  0  0  0
   40.4597   71.8559   57.7604 H   0  0  0  0  0  0  0  0  0  0  0  0
   39.6757   74.9626   60.6374 H   0  0  0  0  0  0  0  0  0  0  0  0
  1  2  2  0
  2  9  1  0
  3  7  1  0
  3  2  1  0
  4  3  2  0
  5  4  1  0
  5  6  2  0
  6  1  1  0
  8 16  2  0
  9 10  2  0
  9  8  1  0
 10 11  1  0
 11 15  2  0
 11 12  1  0
 12 13  1  0
 14 13  2  0
 15 14  1  0
 16 15  1  0
 17  5  1  0
 18 19  1  0
 18 17  1  0
 19 17  1  0
 19 20  1  0
 20 21  1  0
 20 24  2  0
 21 22  2  0
 22 23  1  0
 23 27  1  0
 24 23  1  0
 26 25  1  0
 26 32  2  0
 27 26  1  0
 28 27  2  0
 28 29  1  0
 29 30  2  0
 30 32  1  0
 30 31  1  0
  1 33  1  0
  7 34  1  0
  7 35  1  0
  8 36  1  0
 10 37  1  0
 12 38  1  0
 13 39  1  0
 16 40  1  0
 17 41  1  6
 18 42  1  0
 18 43  1  0
 19 44  1  6
 21 45  1  0
 22 46  1  0
 28 47  1  0
 29 48  1  0
 32 49  1  0
M  END
>  <Score>  (1) 
-7.22089

>  <Score_dual>  (1) 
-7.36

>  <Choices>  (1) 
[None, 7, ['34-23', 225], 21, ['0-2', 0], 22, ['16-24', 330], 31, ['22-6', 150], 38, ['29-12', 345]]

$$$$
