
     RDKit          3D

 44 47  0  0  0  0  0  0  0  0999 V2000
   40.2950   79.7300   59.6270 C   0  0  0  0  0  0  0  0  0  0  0  0
   40.0250   78.4060   60.0330 C   0  0  0  0  0  0  0  0  0  0  0  0
   39.8410   77.4230   59.0900 C   0  0  0  0  0  0  0  0  0  0  0  0
   39.9300   77.7900   57.7890 N   0  0  0  0  0  0  0  0  0  0  0  0
   40.1860   79.0510   57.4340 C   0  0  0  0  0  0  0  0  0  0  0  0
   40.3760   80.0590   58.3200 N   0  0  0  0  0  0  0  0  0  0  0  0
   40.2430   79.2430   56.0210 N   0  0  0  0  0  0  0  0  0  0  0  0
   41.6500   75.3600   58.5380 F   0  0  0  0  0  0  0  0  0  0  0  0
   40.4750   75.0700   59.1530 C   0  0  0  0  0  0  0  0  0  0  0  0
   39.5610   76.0480   59.4430 C   0  0  0  0  0  0  0  0  0  0  0  0
   38.4120   75.6190   60.0680 C   0  0  0  0  0  0  0  0  0  0  0  0
   38.1430   74.3090   60.4050 C   0  0  0  0  0  0  0  0  0  0  0  0
   39.1090   73.3460   60.0880 C   0  0  0  0  0  0  0  0  0  0  0  0
   40.2810   73.7260   59.4590 C   0  0  0  0  0  0  0  0  0  0  0  0
   42.1910   73.3070   61.6480 Cl  0  0  0  0  0  0  0  0  0  0  0  0
   42.2270   72.4480   60.1080 C   0  0  0  0  0  0  0  0  0  0  0  0
   41.2690   72.7260   59.1370 C   0  0  0  0  0  0  0  0  0  0  0  0
   41.2530   72.0840   57.9180 C   0  0  0  0  0  0  0  0  0  0  0  0
   42.2010   71.1330   57.6260 C   0  0  0  0  0  0  0  0  0  0  0  0
   43.1620   70.8410   58.5740 C   0  0  0  0  0  0  0  0  0  0  0  0
   43.1750   71.4930   59.8070 C   0  0  0  0  0  0  0  0  0  0  0  0
   44.3900   71.1460   61.0480 Cl  0  0  0  0  0  0  0  0  0  0  0  0
   40.4850   80.7470   60.6690 C   0  0  0  0  0  0  0  0  0  0  0  0
   41.3580   80.4390   61.7090 C   0  0  0  0  0  0  0  0  0  0  0  0
   41.4990   81.4390   62.6680 C   0  0  0  0  0  0  0  0  0  0  0  0
   40.7860   82.6060   62.5090 C   0  0  0  0  0  0  0  0  0  0  0  0
   39.9560   82.8490   61.4830 C   0  0  0  0  0  0  0  0  0  0  0  0
   39.8150   81.8880   60.5540 N   0  0  0  0  0  0  0  0  0  0  0  0
   41.0350   83.5810   63.6070 C   0  0  0  0  0  0  0  0  0  0  0  0
   40.3540   83.2510   64.7630 F   0  0  0  0  0  0  0  0  0  0  0  0
   40.6690   84.8670   63.2010 F   0  0  0  0  0  0  0  0  0  0  0  0
   42.3650   83.5780   63.8680 F   0  0  0  0  0  0  0  0  0  0  0  0
   39.9618   78.1606   61.1034 H   0  0  0  0  0  0  0  0  0  0  0  0
   40.4346   80.1788   55.6357 H   0  0  0  0  0  0  0  0  0  0  0  0
   40.0925   78.4457   55.3865 H   0  0  0  0  0  0  0  0  0  0  0  0
   37.6535   76.3758   60.3167 H   0  0  0  0  0  0  0  0  0  0  0  0
   37.2035   74.0306   60.9048 H   0  0  0  0  0  0  0  0  0  0  0  0
   38.9361   72.2890   60.3388 H   0  0  0  0  0  0  0  0  0  0  0  0
   40.4795   72.3333   57.1767 H   0  0  0  0  0  0  0  0  0  0  0  0
   42.1946   70.6143   56.6560 H   0  0  0  0  0  0  0  0  0  0  0  0
   43.9283   70.0832   58.3535 H   0  0  0  0  0  0  0  0  0  0  0  0
   41.8945   79.4806   61.7685 H   0  0  0  0  0  0  0  0  0  0  0  0
   42.1647   81.2997   63.5326 H   0  0  0  0  0  0  0  0  0  0  0  0
   39.4104   83.8009   61.4050 H   0  0  0  0  0  0  0  0  0  0  0  0
  1  2  2  0
  1 23  1  0
  3 10  1  0
  3  2  1  0
  4  3  2  0
  5  4  1  0
  5  6  2  0
  6  1  1  0
  7  5  1  0
  8  9  1  0
  9 10  2  0
  9 14  1  0
 10 11  1  0
 11 12  2  0
 13 12  1  0
 14 13  2  0
 16 15  1  0
 17 14  1  0
 17 16  2  0
 18 17  1  0
 19 18  2  0
 19 20  1  0
 20 21  2  0
 21 16  1  0
 21 22  1  0
 23 24  2  0
 24 25  1  0
 26 25  2  0
 26 29  1  0
 27 26  1  0
 28 23  1  0
 28 27  2  0
 29 32  1  0
 29 30  1  0
 31 29  1  0
  2 33  1  0
  7 34  1  0
  7 35  1  0
 11 36  1  0
 12 37  1  0
 13 38  1  0
 18 39  1  0
 19 40  1  0
 20 41  1  0
 24 42  1  0
 25 43  1  0
 27 44  1  0
M  END
>  <Score>  (1) 
-7.15724

>  <Score_dual>  (1) 
-7.88

>  <Choices>  (1) 
[None, 6, ['6-18', 60], 17, ['11-13', 75], 21, ['0-2', 0], 21, ['9-15', 210], 33, ['51-25', 285]]

$$$$
