
     RDKit          3D

 41 44  0  0  0  0  0  0  0  0999 V2000
   39.9380   79.9130   58.9560 C   0  0  0  0  0  0  0  0  0  0  0  0
   40.1550   78.8200   59.7460 C   0  0  0  0  0  0  0  0  0  0  0  0
   39.8630   77.5180   59.3960 C   0  0  0  0  0  0  0  0  0  0  0  0
   39.3080   77.3010   58.1500 C   0  0  0  0  0  0  0  0  0  0  0  0
   39.0850   78.3980   57.3470 C   0  0  0  0  0  0  0  0  0  0  0  0
   39.3970   79.6350   57.7600 N   0  0  0  0  0  0  0  0  0  0  0  0
   41.1270   85.1680   60.2240 F   0  0  0  0  0  0  0  0  0  0  0  0
   40.8390   83.8600   59.9840 C   0  0  0  0  0  0  0  0  0  0  0  0
   40.7630   82.9290   61.0230 C   0  0  0  0  0  0  0  0  0  0  0  0
   40.4680   81.6640   60.6340 C   0  0  0  0  0  0  0  0  0  0  0  0
   40.2520   81.2730   59.3410 C   0  0  0  0  0  0  0  0  0  0  0  0
   40.3380   82.2310   58.3460 C   0  0  0  0  0  0  0  0  0  0  0  0
   40.6350   83.5370   58.6710 C   0  0  0  0  0  0  0  0  0  0  0  0
   41.0000   83.3880   62.3790 C   0  0  0  0  0  0  0  0  0  0  0  0
   42.2620   83.7470   62.8120 C   0  0  0  0  0  0  0  0  0  0  0  0
   42.5510   84.1910   64.0920 C   0  0  0  0  0  0  0  0  0  0  0  0
   41.4740   84.2510   64.9130 N   0  0  0  0  0  0  0  0  0  0  0  0
   40.2410   83.9080   64.5160 C   0  0  0  0  0  0  0  0  0  0  0  0
   40.0080   83.4830   63.2660 N   0  0  0  0  0  0  0  0  0  0  0  0
   38.5070   78.2850   56.0200 C   0  0  0  0  0  0  0  0  0  0  0  0
   37.7070   79.2450   55.4510 C   0  0  0  0  0  0  0  0  0  0  0  0
   37.1360   79.1880   54.2040 C   0  0  0  0  0  0  0  0  0  0  0  0
   37.3750   78.0730   53.4320 C   0  0  0  0  0  0  0  0  0  0  0  0
   38.1710   77.1050   53.9830 C   0  0  0  0  0  0  0  0  0  0  0  0
   38.6970   77.2240   55.2110 N   0  0  0  0  0  0  0  0  0  0  0  0
   38.4980   75.8570   53.2450 C   0  0  0  0  0  0  0  0  0  0  0  0
   39.0620   76.1630   52.0110 F   0  0  0  0  0  0  0  0  0  0  0  0
   39.4700   75.1300   53.9350 F   0  0  0  0  0  0  0  0  0  0  0  0
   37.4050   75.0620   53.0950 F   0  0  0  0  0  0  0  0  0  0  0  0
   40.5970   78.9914   60.7386 H   0  0  0  0  0  0  0  0  0  0  0  0
   40.0647   76.6835   60.0838 H   0  0  0  0  0  0  0  0  0  0  0  0
   39.0526   76.2864   57.8103 H   0  0  0  0  0  0  0  0  0  0  0  0
   40.3970   80.8945   61.4168 H   0  0  0  0  0  0  0  0  0  0  0  0
   40.1693   81.9502   57.2959 H   0  0  0  0  0  0  0  0  0  0  0  0
   40.7067   84.3061   57.8879 H   0  0  0  0  0  0  0  0  0  0  0  0
   43.0916   83.6756   62.0932 H   0  0  0  0  0  0  0  0  0  0  0  0
   43.5651   84.4703   64.4138 H   0  0  0  0  0  0  0  0  0  0  0  0
   39.4054   83.9763   65.2281 H   0  0  0  0  0  0  0  0  0  0  0  0
   37.5046   80.1445   56.0510 H   0  0  0  0  0  0  0  0  0  0  0  0
   36.5057   80.0093   53.8321 H   0  0  0  0  0  0  0  0  0  0  0  0
   36.9481   77.9656   52.4239 H   0  0  0  0  0  0  0  0  0  0  0  0
  1 11  1  0
  1  2  2  0
  3  2  1  0
  4  3  2  0
  5  6  2  0
  5  4  1  0
  6  1  1  0
  8  7  1  0
  8  9  2  0
  9 14  1  0
 10  9  1  0
 11 10  2  0
 12 13  2  0
 12 11  1  0
 13  8  1  0
 14 15  2  0
 14 19  1  0
 15 16  1  0
 16 17  2  0
 18 17  1  0
 19 18  2  0
 20  5  1  0
 21 20  2  0
 22 21  1  0
 23 24  1  0
 23 22  2  0
 24 25  2  0
 25 20  1  0
 26 28  1  0
 26 24  1  0
 27 26  1  0
 29 26  1  0
  2 30  1  0
  3 31  1  0
  4 32  1  0
 10 33  1  0
 12 34  1  0
 13 35  1  0
 15 36  1  0
 16 37  1  0
 18 38  1  0
 21 39  1  0
 22 40  1  0
 23 41  1  0
M  END
>  <Score>  (1) 
-7.01867

>  <Score_dual>  (1) 
-7.75

>  <Choices>  (1) 
[None, 6, ['9-20', 270], 17, ['6-14', 300], 28, ['6-16', 75], 37, ['11-9', 180]]

$$$$
