
     RDKit          3D

 51 55  0  0  1  0  0  0  0  0999 V2000
   41.4550   78.4940   61.8440 Cl  0  0  0  0  0  0  0  0  0  0  0  0
   43.0330   79.2410   61.9530 C   0  0  0  0  0  0  0  0  0  0  0  0
   43.1300   80.6160   61.8660 C   0  0  0  0  0  0  0  0  0  0  0  0
   44.3960   81.1080   61.9600 C   0  0  0  0  0  0  0  0  0  0  0  0
   45.5170   80.3420   62.1300 C   0  0  0  0  0  0  0  0  0  0  0  0
   45.3960   78.9630   62.2160 C   0  0  0  0  0  0  0  0  0  0  0  0
   44.1380   78.4230   62.1240 C   0  0  0  0  0  0  0  0  0  0  0  0
   39.8580   81.8850   60.6640 C   0  0  0  0  0  0  0  0  0  0  0  0
   40.9620   81.0470   60.7490 C   0  0  0  0  0  0  0  0  0  0  0  0
   41.9360   81.4090   61.6860 C   0  0  0  0  0  0  0  0  0  0  0  0
   41.7370   82.5220   62.4230 N   0  0  0  0  0  0  0  0  0  0  0  0
   40.6420   83.3080   62.3040 C   0  0  0  0  0  0  0  0  0  0  0  0
   39.6840   82.9750   61.4010 N   0  0  0  0  0  0  0  0  0  0  0  0
   40.3770   84.2360   64.5590 C   0  0  0  0  0  0  0  0  0  0  0  0
   40.1630   83.0530   64.9480 O   0  0  0  0  0  0  0  0  0  0  0  0
   40.6350   84.4150   63.1660 N   0  0  0  0  0  0  0  0  0  0  0  0
   40.3730   85.3460   65.4110 N   0  0  0  0  0  0  0  0  0  0  0  0
   43.2990   76.1810   61.3550 C   0  0  0  0  0  0  0  0  0  0  0  0
   44.0510   76.9680   62.2190 C   0  0  0  0  0  0  0  0  0  0  0  0
   44.7500   76.3120   63.2200 C   0  0  0  0  0  0  0  0  0  0  0  0
   44.6830   74.9380   63.3300 C   0  0  0  0  0  0  0  0  0  0  0  0
   45.2480   74.0710   64.1880 N   0  0  0  0  0  0  0  0  0  0  0  0
   44.8500   72.8270   63.8490 C   0  0  0  0  0  0  0  0  0  0  0  0
   44.0340   72.8590   62.7860 N   0  0  0  0  0  0  0  0  0  0  0  0
   43.9290   74.1650   62.4620 C   0  0  0  0  0  0  0  0  0  0  0  0
   43.2250   74.8100   61.4560 C   0  0  0  0  0  0  0  0  0  0  0  0
   41.1360   73.4770   61.1130 C   0  0  2  0  0  0  0  0  0  0  0  0
   42.4160   74.0420   60.5150 C   0  0  2  0  0  0  0  0  0  0  0  0
   43.0460   72.7940   59.9760 C   0  0  0  0  0  0  0  0  0  0  0  0
   41.9320   72.2440   59.3010 O   0  0  0  0  0  0  0  0  0  0  0  0
   40.8810   72.3010   60.2080 C   0  0  0  0  0  0  0  0  0  0  0  0
   40.1730   74.4540   61.0750 O   0  0  0  0  0  0  0  0  0  0  0  0
   44.5269   82.1982   61.8947 H   0  0  0  0  0  0  0  0  0  0  0  0
   46.5071   80.8165   62.1980 H   0  0  0  0  0  0  0  0  0  0  0  0
   46.2800   78.3229   62.3535 H   0  0  0  0  0  0  0  0  0  0  0  0
   39.0742   81.6279   59.9362 H   0  0  0  0  0  0  0  0  0  0  0  0
   41.0646   80.1522   60.1175 H   0  0  0  0  0  0  0  0  0  0  0  0
   40.8162   85.3580   62.7935 H   0  0  0  0  0  0  0  0  0  0  0  0
   40.5548   86.2865   65.0324 H   0  0  0  0  0  0  0  0  0  0  0  0
   40.1883   85.2226   66.4168 H   0  0  0  0  0  0  0  0  0  0  0  0
   42.7355   76.6777   60.5514 H   0  0  0  0  0  0  0  0  0  0  0  0
   45.3608   76.8891   63.9299 H   0  0  0  0  0  0  0  0  0  0  0  0
   45.8752   74.3139   64.9680 H   0  0  0  0  0  0  0  0  0  0  0  0
   45.1543   71.9098   64.3744 H   0  0  0  0  0  0  0  0  0  0  0  0
   41.1668   73.1652   62.1674 H   0  0  0  0  0  0  0  0  0  0  0  0
   42.2642   74.8123   59.7446 H   0  0  0  0  0  0  0  0  0  0  0  0
   43.8743   73.0168   59.2873 H   0  0  0  0  0  0  0  0  0  0  0  0
   43.5074   72.1389   60.7296 H   0  0  0  0  0  0  0  0  0  0  0  0
   39.9291   72.4364   59.6736 H   0  0  0  0  0  0  0  0  0  0  0  0
   40.8157   71.3689   60.7885 H   0  0  0  0  0  0  0  0  0  0  0  0
   39.9233   74.7073   61.9989 H   0  0  0  0  0  0  0  0  0  0  0  0
  1  2  1  0
  2  7  2  0
  3  2  1  0
  3  4  2  0
  4  5  1  0
  5  6  2  0
  7  6  1  0
  7 19  1  0
  8  9  2  0
  8 13  1  0
  9 10  1  0
 10  3  1  0
 10 11  2  0
 12 11  1  0
 12 16  1  0
 13 12  2  0
 14 15  2  0
 14 17  1  0
 16 14  1  0
 18 26  2  0
 18 19  1  0
 19 20  2  0
 20 21  1  0
 21 22  1  0
 23 22  1  0
 24 23  2  0
 25 24  1  0
 25 21  2  0
 26 25  1  0
 27 32  1  0
 28 27  1  0
 28 26  1  0
 29 28  1  0
 30 29  1  0
 30 31  1  0
 31 27  1  0
  4 33  1  0
  5 34  1  0
  6 35  1  0
  8 36  1  0
  9 37  1  0
 16 38  1  0
 17 39  1  0
 17 40  1  0
 18 41  1  0
 20 42  1  0
 22 43  1  0
 23 44  1  0
 27 45  1  1
 28 46  1  6
 29 47  1  0
 29 48  1  0
 31 49  1  0
 31 50  1  0
 32 51  1  0
M  END
>  <Score>  (1) 
-7.95507

>  <Score_dual>  (1) 
-8.59

>  <Choices>  (1) 
[None, 9, ['12-5', 195], 12, ['0-20', 0], 12, ['7-17', 150], 25, ['34-21', 120], 38, ['30-15', 90]]

$$$$
