
     RDKit          3D

 49 53  0  0  1  0  0  0  0  0999 V2000
   41.3940   78.3990   57.8430 Cl  0  0  0  0  0  0  0  0  0  0  0  0
   39.8380   78.6290   57.0350 C   0  0  0  0  0  0  0  0  0  0  0  0
   39.5440   79.9220   56.7550 C   0  0  0  0  0  0  0  0  0  0  0  0
   38.3040   80.1400   56.1210 C   0  0  0  0  0  0  0  0  0  0  0  0
   37.4250   79.1000   55.8000 C   0  0  0  0  0  0  0  0  0  0  0  0
   37.8180   77.8130   56.1290 C   0  0  0  0  0  0  0  0  0  0  0  0
   39.0050   77.5830   56.7360 C   0  0  0  0  0  0  0  0  0  0  0  0
   41.0410   82.8640   58.5740 C   0  0  0  0  0  0  0  0  0  0  0  0
   40.3130   81.7070   58.2970 C   0  0  0  0  0  0  0  0  0  0  0  0
   40.3130   81.1260   57.0080 C   0  0  0  0  0  0  0  0  0  0  0  0
   41.0430   81.7130   56.0170 C   0  0  0  0  0  0  0  0  0  0  0  0
   41.7680   82.8640   56.2910 C   0  0  0  0  0  0  0  0  0  0  0  0
   41.7400   83.4000   57.5650 C   0  0  0  0  0  0  0  0  0  0  0  0
   40.9640   83.3720   59.9400 C   0  0  0  0  0  0  0  0  0  0  0  0
   42.0340   83.9220   60.5980 C   0  0  0  0  0  0  0  0  0  0  0  0
   41.9170   84.3970   61.9050 C   0  0  0  0  0  0  0  0  0  0  0  0
   40.7050   84.2880   62.4890 N   0  0  0  0  0  0  0  0  0  0  0  0
   39.6640   83.7530   61.8540 C   0  0  0  0  0  0  0  0  0  0  0  0
   39.7940   83.2970   60.5850 N   0  0  0  0  0  0  0  0  0  0  0  0
   38.3770   83.6230   62.4400 N   0  0  0  0  0  0  0  0  0  0  0  0
   39.4300   76.1950   57.0560 C   0  0  2  0  0  0  0  0  0  0  0  0
   38.5610   75.0900   56.7090 C   0  0  0  0  0  0  0  0  0  0  0  0
   38.6900   75.4490   58.1740 C   0  0  1  0  0  0  0  0  0  0  0  0
   39.6780   76.2140   61.0550 Cl  0  0  0  0  0  0  0  0  0  0  0  0
   39.9740   74.6900   60.2990 C   0  0  0  0  0  0  0  0  0  0  0  0
   39.4790   74.5420   59.0270 C   0  0  0  0  0  0  0  0  0  0  0  0
   39.7110   73.3280   58.3730 C   0  0  0  0  0  0  0  0  0  0  0  0
   40.4270   72.3020   58.9990 C   0  0  0  0  0  0  0  0  0  0  0  0
   40.9140   72.4610   60.2630 C   0  0  0  0  0  0  0  0  0  0  0  0
   40.6750   73.6650   60.8950 C   0  0  0  0  0  0  0  0  0  0  0  0
   38.0154   81.1709   55.8681 H   0  0  0  0  0  0  0  0  0  0  0  0
   36.4616   79.2961   55.3067 H   0  0  0  0  0  0  0  0  0  0  0  0
   37.1560   76.9666   55.8935 H   0  0  0  0  0  0  0  0  0  0  0  0
   39.7258   81.2361   59.0992 H   0  0  0  0  0  0  0  0  0  0  0  0
   41.0570   81.2770   55.0072 H   0  0  0  0  0  0  0  0  0  0  0  0
   42.3609   83.3466   55.5000 H   0  0  0  0  0  0  0  0  0  0  0  0
   42.3214   84.3132   57.7600 H   0  0  0  0  0  0  0  0  0  0  0  0
   43.0047   83.9902   60.0850 H   0  0  0  0  0  0  0  0  0  0  0  0
   42.7732   84.8399   62.4349 H   0  0  0  0  0  0  0  0  0  0  0  0
   37.6066   83.2008   61.9023 H   0  0  0  0  0  0  0  0  0  0  0  0
   38.2140   83.9509   63.4027 H   0  0  0  0  0  0  0  0  0  0  0  0
   40.4821   76.4376   56.8455 H   0  0  0  0  0  0  0  0  0  0  0  0
   37.6155   75.2869   56.1825 H   0  0  0  0  0  0  0  0  0  0  0  0
   38.6982   74.1616   56.1353 H   0  0  0  0  0  0  0  0  0  0  0  0
   38.0067   75.7174   58.9932 H   0  0  0  0  0  0  0  0  0  0  0  0
   39.3257   73.1779   57.3537 H   0  0  0  0  0  0  0  0  0  0  0  0
   40.5993   71.3557   58.4653 H   0  0  0  0  0  0  0  0  0  0  0  0
   41.4773   71.6583   60.7613 H   0  0  0  0  0  0  0  0  0  0  0  0
   41.0597   73.8115   61.9151 H   0  0  0  0  0  0  0  0  0  0  0  0
  2  1  1  0
  3 10  1  0
  3  2  2  0
  4  3  1  0
  5  4  2  0
  5  6  1  0
  6  7  2  0
  7  2  1  0
  7 21  1  0
  8 14  1  0
  9  8  2  0
 10  9  1  0
 11 12  1  0
 11 10  2  0
 12 13  2  0
 13  8  1  0
 14 19  1  0
 14 15  2  0
 15 16  1  0
 16 17  2  0
 18 20  1  0
 18 17  1  0
 19 18  2  0
 21 23  1  0
 22 21  1  0
 22 23  1  0
 23 26  1  0
 25 30  2  0
 25 24  1  0
 26 25  1  0
 27 28  1  0
 27 26  2  0
 28 29  2  0
 29 30  1  0
  4 31  1  0
  5 32  1  0
  6 33  1  0
  9 34  1  0
 11 35  1  0
 12 36  1  0
 13 37  1  0
 15 38  1  0
 16 39  1  0
 20 40  1  0
 20 41  1  0
 21 42  1  1
 22 43  1  0
 22 44  1  0
 23 45  1  1
 27 46  1  0
 28 47  1  0
 29 48  1  0
 30 49  1  0
M  END
>  <Score>  (1) 
-7.22668

>  <Score_dual>  (1) 
-8.28

>  <Choices>  (1) 
[None, 6, ['1-28', 270], 16, ['7-17', 105], 29, ['16-25', 300], 36, ['0-3', 0], 38, ['7-13', 165]]

$$$$
