
     RDKit          3D

 40 43  0  0  0  0  0  0  0  0999 V2000
   40.3660   80.5420   59.7740 C   0  0  0  0  0  0  0  0  0  0  0  0
   40.6200   79.6470   60.7610 C   0  0  0  0  0  0  0  0  0  0  0  0
   40.3340   78.3190   60.5770 C   0  0  0  0  0  0  0  0  0  0  0  0
   39.8000   77.8920   59.4180 N   0  0  0  0  0  0  0  0  0  0  0  0
   39.5540   78.7980   58.4430 C   0  0  0  0  0  0  0  0  0  0  0  0
   39.8310   80.1050   58.6170 N   0  0  0  0  0  0  0  0  0  0  0  0
   40.5260   84.1940   59.1430 C   0  0  0  0  0  0  0  0  0  0  0  0
   40.2140   82.8470   58.9360 C   0  0  0  0  0  0  0  0  0  0  0  0
   40.6510   81.9790   59.9110 C   0  0  0  0  0  0  0  0  0  0  0  0
   41.3360   82.4250   60.9950 N   0  0  0  0  0  0  0  0  0  0  0  0
   41.6140   83.7550   61.1470 C   0  0  0  0  0  0  0  0  0  0  0  0
   41.1980   84.6480   60.2010 N   0  0  0  0  0  0  0  0  0  0  0  0
   41.7360   84.0460   63.5660 C   0  0  0  0  0  0  0  0  0  0  0  0
   40.4840   83.7800   63.5620 O   0  0  0  0  0  0  0  0  0  0  0  0
   42.3300   84.0360   62.3240 N   0  0  0  0  0  0  0  0  0  0  0  0
   42.4790   84.3310   64.7340 N   0  0  0  0  0  0  0  0  0  0  0  0
   38.4180   79.2380   56.3090 C   0  0  0  0  0  0  0  0  0  0  0  0
   38.9730   78.3440   57.1780 C   0  0  0  0  0  0  0  0  0  0  0  0
   38.9980   77.0060   56.8830 C   0  0  0  0  0  0  0  0  0  0  0  0
   38.4560   76.5580   55.6950 C   0  0  0  0  0  0  0  0  0  0  0  0
   38.3480   75.3020   55.1590 N   0  0  0  0  0  0  0  0  0  0  0  0
   37.7250   75.5070   53.9810 C   0  0  0  0  0  0  0  0  0  0  0  0
   37.4460   76.8020   53.7600 N   0  0  0  0  0  0  0  0  0  0  0  0
   37.8930   77.4760   54.8190 C   0  0  0  0  0  0  0  0  0  0  0  0
   37.8730   78.8070   55.1220 C   0  0  0  0  0  0  0  0  0  0  0  0
   37.2650   79.7740   54.1700 C   0  0  0  0  0  0  0  0  0  0  0  0
   36.9850   80.9630   54.8390 F   0  0  0  0  0  0  0  0  0  0  0  0
   38.1980   80.1310   53.1940 F   0  0  0  0  0  0  0  0  0  0  0  0
   36.1800   79.2560   53.5320 F   0  0  0  0  0  0  0  0  0  0  0  0
   41.0566   79.9876   61.7115 H   0  0  0  0  0  0  0  0  0  0  0  0
   40.5422   77.5982   61.3815 H   0  0  0  0  0  0  0  0  0  0  0  0
   40.1973   84.9229   58.3876 H   0  0  0  0  0  0  0  0  0  0  0  0
   39.6562   82.5035   58.0524 H   0  0  0  0  0  0  0  0  0  0  0  0
   43.3368   84.2421   62.2544 H   0  0  0  0  0  0  0  0  0  0  0  0
   43.4859   84.5372   64.6664 H   0  0  0  0  0  0  0  0  0  0  0  0
   42.0136   84.3325   65.6529 H   0  0  0  0  0  0  0  0  0  0  0  0
   38.4065   80.3091   56.5592 H   0  0  0  0  0  0  0  0  0  0  0  0
   39.4477   76.2925   57.5892 H   0  0  0  0  0  0  0  0  0  0  0  0
   38.6679   74.4096   55.5617 H   0  0  0  0  0  0  0  0  0  0  0  0
   37.4725   74.7005   53.2768 H   0  0  0  0  0  0  0  0  0  0  0  0
  1  9  1  0
  1  2  2  0
  3  2  1  0
  4  3  2  0
  5  6  2  0
  5  4  1  0
  6  1  1  0
  7 12  2  0
  8  7  1  0
  8  9  2  0
  9 10  1  0
 10 11  2  0
 11 15  1  0
 12 11  1  0
 13 16  1  0
 14 13  2  0
 15 13  1  0
 17 18  2  0
 18  5  1  0
 19 18  1  0
 20 19  2  0
 21 20  1  0
 22 21  1  0
 23 22  2  0
 23 24  1  0
 24 25  2  0
 24 20  1  0
 25 17  1  0
 26 27  1  0
 26 25  1  0
 28 26  1  0
 29 26  1  0
  2 30  1  0
  3 31  1  0
  7 32  1  0
  8 33  1  0
 15 34  1  0
 16 35  1  0
 16 36  1  0
 17 37  1  0
 19 38  1  0
 21 39  1  0
 22 40  1  0
M  END
>  <Score>  (1) 
-7.26873

>  <Score_dual>  (1) 
-8.16

>  <Choices>  (1) 
[None, 9, ['12-5', 195], 12, ['0-20', 0], 12, ['19-19', 60], 23, ['34-20', 315], 36, ['11-10', 345]]

$$$$
