
     RDKit          3D

 44 47  0  0  0  0  0  0  0  0999 V2000
   43.5060   85.7130   60.4920 C   0  0  0  0  0  0  0  0  0  0  0  0
   42.6610   85.2900   59.5000 C   0  0  0  0  0  0  0  0  0  0  0  0
   42.3600   86.0480   58.3720 C   0  0  0  0  0  0  0  0  0  0  0  0
   42.9210   87.2470   58.2460 N   0  0  0  0  0  0  0  0  0  0  0  0
   43.7510   87.6490   59.2310 C   0  0  0  0  0  0  0  0  0  0  0  0
   44.0320   86.9090   60.3140 N   0  0  0  0  0  0  0  0  0  0  0  0
   44.3800   88.9910   59.0930 C   0  0  0  0  0  0  0  0  0  0  0  0
   45.6100   88.9290   58.4800 F   0  0  0  0  0  0  0  0  0  0  0  0
   43.5840   89.8400   58.3530 F   0  0  0  0  0  0  0  0  0  0  0  0
   44.5400   89.5860   60.3330 F   0  0  0  0  0  0  0  0  0  0  0  0
   43.7600   84.8230   61.6590 C   0  0  0  0  0  0  0  0  0  0  0  0
   44.9810   84.7960   61.9940 O   0  0  0  0  0  0  0  0  0  0  0  0
   41.0680   83.9160   64.0520 C   0  0  0  0  0  0  0  0  0  0  0  0
   42.0870   84.6500   63.4290 C   0  0  0  0  0  0  0  0  0  0  0  0
   42.7210   84.0940   62.3080 C   0  0  0  0  0  0  0  0  0  0  0  0
   42.2860   82.8860   61.9250 N   0  0  0  0  0  0  0  0  0  0  0  0
   41.3090   82.1900   62.5280 C   0  0  0  0  0  0  0  0  0  0  0  0
   40.7030   82.7060   63.5880 N   0  0  0  0  0  0  0  0  0  0  0  0
   40.9680   80.8720   61.9580 C   0  0  0  0  0  0  0  0  0  0  0  0
   40.7850   80.6480   60.6400 C   0  0  0  0  0  0  0  0  0  0  0  0
   40.4670   79.3900   60.1620 C   0  0  0  0  0  0  0  0  0  0  0  0
   40.3430   78.3700   61.0900 C   0  0  0  0  0  0  0  0  0  0  0  0
   40.5290   78.5980   62.4390 C   0  0  0  0  0  0  0  0  0  0  0  0
   40.8370   79.8550   62.8180 N   0  0  0  0  0  0  0  0  0  0  0  0
   41.4420   85.5030   57.3690 C   0  0  0  0  0  0  0  0  0  0  0  0
   40.5420   86.2310   56.8510 O   0  0  0  0  0  0  0  0  0  0  0  0
   41.3500   81.7560   57.2270 N   0  0  0  0  0  0  0  0  0  0  0  0
   41.1160   82.9980   57.6630 C   0  0  0  0  0  0  0  0  0  0  0  0
   41.6190   84.1010   57.0050 C   0  0  0  0  0  0  0  0  0  0  0  0
   42.3830   83.8640   55.8660 C   0  0  0  0  0  0  0  0  0  0  0  0
   42.9300   84.7230   55.1250 O   0  0  0  0  0  0  0  0  0  0  0  0
   42.6190   82.5980   55.4240 N   0  0  0  0  0  0  0  0  0  0  0  0
   42.0960   81.5530   56.1150 C   0  0  0  0  0  0  0  0  0  0  0  0
   42.2700   80.3570   55.7710 O   0  0  0  0  0  0  0  0  0  0  0  0
   42.1956   84.2984   59.6003 H   0  0  0  0  0  0  0  0  0  0  0  0
   40.5592   84.3348   64.9328 H   0  0  0  0  0  0  0  0  0  0  0  0
   42.3824   85.6386   63.8102 H   0  0  0  0  0  0  0  0  0  0  0  0
   40.8909   81.4828   59.9316 H   0  0  0  0  0  0  0  0  0  0  0  0
   40.3185   79.2070   59.0875 H   0  0  0  0  0  0  0  0  0  0  0  0
   40.0909   77.3563   60.7452 H   0  0  0  0  0  0  0  0  0  0  0  0
   40.4299   77.7867   63.1752 H   0  0  0  0  0  0  0  0  0  0  0  0
   40.9616   80.9508   57.7385 H   0  0  0  0  0  0  0  0  0  0  0  0
   40.5079   83.1437   58.5680 H   0  0  0  0  0  0  0  0  0  0  0  0
   43.1852   82.4357   54.5790 H   0  0  0  0  0  0  0  0  0  0  0  0
  1 11  1  0
  2  1  2  0
  3  2  1  0
  4  3  2  0
  4  5  1  0
  5  6  2  0
  6  1  1  0
  7  5  1  0
  7 10  1  0
  8  7  1  0
  9  7  1  0
 11 12  2  0
 11 15  1  0
 14 13  2  0
 15 14  1  0
 16 15  2  0
 16 17  1  0
 17 18  2  0
 18 13  1  0
 19 17  1  0
 19 24  1  0
 20 19  2  0
 21 20  1  0
 21 22  2  0
 22 23  1  0
 23 24  2  0
 25  3  1  0
 26 25  2  0
 27 28  1  0
 29 25  1  0
 29 28  2  0
 30 29  1  0
 31 30  2  0
 32 30  1  0
 32 33  1  0
 33 27  1  0
 34 33  2  0
  2 35  1  0
 13 36  1  0
 14 37  1  0
 20 38  1  0
 21 39  1  0
 22 40  1  0
 23 41  1  0
 27 42  1  0
 28 43  1  0
 32 44  1  0
M  END
>  <Score>  (1) 
-7.25745

>  <Score_dual>  (1) 
-7.4

>  <Choices>  (1) 
[None, 8, ['5-9', 180], 10, ['6-16', 285], 20, ['19-5', 120], 28, ['11-12', 15], 31, ['5-7', 60], 33, ['37-14', 270]]

$$$$
