
     RDKit          3D

 45 49  0  0  0  0  0  0  0  0999 V2000
   42.6620   84.2990   57.2170 C   0  0  0  0  0  0  0  0  0  0  0  0
   42.1080   83.3080   56.4080 C   0  0  0  0  0  0  0  0  0  0  0  0
   41.1990   82.4240   56.9900 C   0  0  0  0  0  0  0  0  0  0  0  0
   40.8890   82.5610   58.3140 N   0  0  0  0  0  0  0  0  0  0  0  0
   41.4610   83.5470   59.0590 C   0  0  0  0  0  0  0  0  0  0  0  0
   42.3420   84.4130   58.5190 N   0  0  0  0  0  0  0  0  0  0  0  0
   39.8470   83.3120   60.8930 C   0  0  0  0  0  0  0  0  0  0  0  0
   41.0950   83.6520   60.4760 C   0  0  0  0  0  0  0  0  0  0  0  0
   42.0260   84.0980   61.3790 C   0  0  0  0  0  0  0  0  0  0  0  0
   41.7230   84.2090   62.7120 C   0  0  0  0  0  0  0  0  0  0  0  0
   42.4580   84.6160   63.7690 N   0  0  0  0  0  0  0  0  0  0  0  0
   41.6040   84.5070   64.8400 C   0  0  0  0  0  0  0  0  0  0  0  0
   40.3730   84.0390   64.4170 N   0  0  0  0  0  0  0  0  0  0  0  0
   40.4460   83.8530   63.0890 C   0  0  0  0  0  0  0  0  0  0  0  0
   39.4800   83.4040   62.2310 C   0  0  0  0  0  0  0  0  0  0  0  0
   40.5700   81.3580   56.2210 C   0  0  0  0  0  0  0  0  0  0  0  0
   41.2040   80.6900   55.1780 C   0  0  0  0  0  0  0  0  0  0  0  0
   40.3700   79.7570   54.6560 N   0  0  0  0  0  0  0  0  0  0  0  0
   39.2270   79.8420   55.3660 C   0  0  0  0  0  0  0  0  0  0  0  0
   39.3400   80.8050   56.3110 N   0  0  0  0  0  0  0  0  0  0  0  0
   38.0150   79.1050   55.2550 N   0  0  0  0  0  0  0  0  0  0  0  0
   37.5760   78.0470   56.1680 C   0  0  0  0  0  0  0  0  0  0  0  0
   36.6130   77.1330   55.4480 C   0  0  0  0  0  0  0  0  0  0  0  0
   37.0150   76.8990   54.0120 C   0  0  0  0  0  0  0  0  0  0  0  0
   37.2050   78.1620   53.2210 C   0  0  0  0  0  0  0  0  0  0  0  0
   37.0560   79.3330   54.1880 C   0  0  0  0  0  0  0  0  0  0  0  0
   43.3806   85.0073   56.7789 H   0  0  0  0  0  0  0  0  0  0  0  0
   42.3788   83.2257   55.3450 H   0  0  0  0  0  0  0  0  0  0  0  0
   39.1115   82.9564   60.1563 H   0  0  0  0  0  0  0  0  0  0  0  0
   43.0322   84.3712   61.0284 H   0  0  0  0  0  0  0  0  0  0  0  0
   43.4371   84.9358   63.7719 H   0  0  0  0  0  0  0  0  0  0  0  0
   41.8613   84.7553   65.8803 H   0  0  0  0  0  0  0  0  0  0  0  0
   38.4726   83.1318   62.5789 H   0  0  0  0  0  0  0  0  0  0  0  0
   42.2281   80.8889   54.8293 H   0  0  0  0  0  0  0  0  0  0  0  0
   40.5691   79.1144   53.8761 H   0  0  0  0  0  0  0  0  0  0  0  0
   38.4483   77.4684   56.5063 H   0  0  0  0  0  0  0  0  0  0  0  0
   37.0760   78.4962   57.0387 H   0  0  0  0  0  0  0  0  0  0  0  0
   36.5852   76.1653   55.9703 H   0  0  0  0  0  0  0  0  0  0  0  0
   35.6248   77.6161   55.4477 H   0  0  0  0  0  0  0  0  0  0  0  0
   37.9619   76.3392   54.0039 H   0  0  0  0  0  0  0  0  0  0  0  0
   36.1931   76.3440   53.5361 H   0  0  0  0  0  0  0  0  0  0  0  0
   38.2070   78.1743   52.7673 H   0  0  0  0  0  0  0  0  0  0  0  0
   36.4623   78.2292   52.4124 H   0  0  0  0  0  0  0  0  0  0  0  0
   37.2753   80.2810   53.6749 H   0  0  0  0  0  0  0  0  0  0  0  0
   36.0303   79.4000   54.5798 H   0  0  0  0  0  0  0  0  0  0  0  0
  1  6  2  0
  2  3  2  0
  2  1  1  0
  3  4  1  0
  4  5  2  0
  5  8  1  0
  6  5  1  0
  7 15  2  0
  8  7  1  0
  8  9  2  0
  9 10  1  0
 10 14  2  0
 10 11  1  0
 11 12  1  0
 13 12  2  0
 14 13  1  0
 15 14  1  0
 16 20  1  0
 16  3  1  0
 17 16  2  0
 18 17  1  0
 18 19  1  0
 19 20  2  0
 21 19  1  0
 21 22  1  0
 23 22  1  0
 24 23  1  0
 25 24  1  0
 25 26  1  0
 26 21  1  0
  1 27  1  0
  2 28  1  0
  7 29  1  0
  9 30  1  0
 11 31  1  0
 12 32  1  0
 15 33  1  0
 17 34  1  0
 18 35  1  0
 22 36  1  0
 22 37  1  0
 23 38  1  0
 23 39  1  0
 24 40  1  0
 24 41  1  0
 25 42  1  0
 25 43  1  0
 26 44  1  0
 26 45  1  0
M  END
>  <Score>  (1) 
-7.02932

>  <Score_dual>  (1) 
-7.59

>  <Choices>  (1) 
[None, 9, ['34-23', 255], 22, ['23-8', 120], 29, ['8-5', 285]]

$$$$
