
     RDKit          3D

 49 53  0  0  0  0  0  0  0  0999 V2000
   40.4870   76.6580   60.5550 C   0  0  0  0  0  0  0  0  0  0  0  0
   40.3890   77.6970   58.2700 C   0  0  0  0  0  0  0  0  0  0  0  0
   39.8000   76.9960   59.3180 C   0  0  0  0  0  0  0  0  0  0  0  0
   38.4900   76.6140   59.1320 C   0  0  0  0  0  0  0  0  0  0  0  0
   37.7720   76.8960   57.9820 C   0  0  0  0  0  0  0  0  0  0  0  0
   36.5040   76.6180   57.6130 N   0  0  0  0  0  0  0  0  0  0  0  0
   36.3210   77.1310   56.3810 C   0  0  0  0  0  0  0  0  0  0  0  0
   37.4690   77.7210   55.9920 N   0  0  0  0  0  0  0  0  0  0  0  0
   38.3920   77.5870   56.9770 C   0  0  0  0  0  0  0  0  0  0  0  0
   39.7180   77.9970   57.1140 C   0  0  0  0  0  0  0  0  0  0  0  0
   39.4690   81.0350   56.8540 Cl  0  0  0  0  0  0  0  0  0  0  0  0
   40.2650   80.0460   55.6490 C   0  0  0  0  0  0  0  0  0  0  0  0
   40.2520   78.7090   55.9630 C   0  0  0  0  0  0  0  0  0  0  0  0
   40.8470   77.8050   55.0770 C   0  0  0  0  0  0  0  0  0  0  0  0
   41.4450   78.2290   53.8970 C   0  0  0  0  0  0  0  0  0  0  0  0
   41.4440   79.5870   53.6080 C   0  0  0  0  0  0  0  0  0  0  0  0
   40.8560   80.4800   54.4810 C   0  0  0  0  0  0  0  0  0  0  0  0
   40.2840   77.4910   61.7610 C   0  0  0  0  0  0  0  0  0  0  0  0
   41.4520   80.9770   61.5340 C   0  0  0  0  0  0  0  0  0  0  0  0
   42.8080   80.8980   61.7250 C   0  0  0  0  0  0  0  0  0  0  0  0
   43.3680   79.6350   61.9390 C   0  0  0  0  0  0  0  0  0  0  0  0
   42.5330   78.5700   61.9450 N   0  0  0  0  0  0  0  0  0  0  0  0
   41.2110   78.6860   61.7540 C   0  0  0  0  0  0  0  0  0  0  0  0
   40.6360   79.8980   61.5430 N   0  0  0  0  0  0  0  0  0  0  0  0
   40.7570   82.2250   61.3030 N   0  0  0  0  0  0  0  0  0  0  0  0
   40.6890   82.5080   59.9520 C   0  0  0  0  0  0  0  0  0  0  0  0
   40.0590   83.6680   59.5040 C   0  0  0  0  0  0  0  0  0  0  0  0
   39.5080   84.5180   60.4570 C   0  0  0  0  0  0  0  0  0  0  0  0
   38.9370   85.5660   60.0770 O   0  0  0  0  0  0  0  0  0  0  0  0
   39.6060   84.1900   61.7480 N   0  0  0  0  0  0  0  0  0  0  0  0
   40.2120   83.0750   62.1670 C   0  0  0  0  0  0  0  0  0  0  0  0
   40.3400   82.7100   63.3320 O   0  0  0  0  0  0  0  0  0  0  0  0
   41.5647   76.6735   60.3351 H   0  0  0  0  0  0  0  0  0  0  0  0
   40.0445   75.6909   60.8360 H   0  0  0  0  0  0  0  0  0  0  0  0
   41.4344   78.0230   58.3740 H   0  0  0  0  0  0  0  0  0  0  0  0
   37.9889   76.0569   59.9373 H   0  0  0  0  0  0  0  0  0  0  0  0
   35.8047   76.1074   58.1709 H   0  0  0  0  0  0  0  0  0  0  0  0
   35.3931   77.0776   55.7927 H   0  0  0  0  0  0  0  0  0  0  0  0
   40.8413   76.7323   55.3205 H   0  0  0  0  0  0  0  0  0  0  0  0
   41.9079   77.5066   53.2086 H   0  0  0  0  0  0  0  0  0  0  0  0
   41.9125   79.9518   52.6820 H   0  0  0  0  0  0  0  0  0  0  0  0
   40.8589   81.5536   54.2415 H   0  0  0  0  0  0  0  0  0  0  0  0
   39.2423   77.8435   61.7840 H   0  0  0  0  0  0  0  0  0  0  0  0
   40.5032   76.8815   62.6500 H   0  0  0  0  0  0  0  0  0  0  0  0
   43.4359   81.8011   61.7102 H   0  0  0  0  0  0  0  0  0  0  0  0
   44.4495   79.5112   62.0970 H   0  0  0  0  0  0  0  0  0  0  0  0
   41.1351   81.8131   59.2252 H   0  0  0  0  0  0  0  0  0  0  0  0
   39.9996   83.9035   58.4312 H   0  0  0  0  0  0  0  0  0  0  0  0
   39.1973   84.8231   62.4502 H   0  0  0  0  0  0  0  0  0  0  0  0
  1 18  1  0
  2  3  2  0
  3  1  1  0
  4  3  1  0
  5  4  2  0
  6  5  1  0
  7  6  1  0
  8  7  2  0
  8  9  1  0
  9 10  2  0
  9  5  1  0
 10  2  1  0
 12 13  2  0
 12 11  1  0
 13 10  1  0
 14 13  1  0
 15 14  2  0
 16 15  1  0
 16 17  2  0
 17 12  1  0
 19 24  1  0
 19 20  2  0
 20 21  1  0
 21 22  2  0
 23 18  1  0
 23 22  1  0
 24 23  2  0
 25 19  1  0
 25 31  1  0
 26 25  1  0
 27 26  2  0
 27 28  1  0
 28 30  1  0
 29 28  2  0
 30 31  1  0
 31 32  2  0
  1 33  1  0
  1 34  1  0
  2 35  1  0
  4 36  1  0
  6 37  1  0
  7 38  1  0
 14 39  1  0
 15 40  1  0
 16 41  1  0
 17 42  1  0
 18 43  1  0
 18 44  1  0
 20 45  1  0
 21 46  1  0
 26 47  1  0
 27 48  1  0
 30 49  1  0
M  END
>  <Score>  (1) 
-7.33498

>  <Score_dual>  (1) 
-7.44

>  <Choices>  (1) 
[None, 6, ['37-16', 135], 19, ['4-9', 270], 25, ['34-15', 255], 38, ['7-14', 75]]

$$$$
