
     RDKit          3D

 51 55  0  0  1  0  0  0  0  0999 V2000
   41.3590   80.9920   59.4740 O   0  0  0  0  0  0  0  0  0  0  0  0
   39.7250   79.0190   58.1010 Cl  0  0  0  0  0  0  0  0  0  0  0  0
   40.3400   79.0020   59.7300 C   0  0  0  0  0  0  0  0  0  0  0  0
   41.1280   79.9980   60.3230 C   0  0  0  0  0  0  0  0  0  0  0  0
   41.5040   79.7780   61.6220 C   0  0  0  0  0  0  0  0  0  0  0  0
   41.1580   78.6650   62.3470 C   0  0  0  0  0  0  0  0  0  0  0  0
   40.4000   77.7140   61.7640 C   0  0  0  0  0  0  0  0  0  0  0  0
   39.9810   77.8680   60.4550 C   0  0  0  0  0  0  0  0  0  0  0  0
   39.2080   76.8380   59.9540 O   0  0  0  0  0  0  0  0  0  0  0  0
   39.7060   74.9340   58.6020 N   0  0  0  0  0  0  0  0  0  0  0  0
   39.6300   75.5460   59.8070 C   0  0  0  0  0  0  0  0  0  0  0  0
   40.0350   74.6520   60.7460 N   0  0  0  0  0  0  0  0  0  0  0  0
   40.3540   73.5080   60.1160 C   0  0  0  0  0  0  0  0  0  0  0  0
   40.8150   72.2640   60.4820 C   0  0  0  0  0  0  0  0  0  0  0  0
   41.0620   71.2580   59.6190 N   0  0  0  0  0  0  0  0  0  0  0  0
   40.8550   71.4430   58.3030 C   0  0  0  0  0  0  0  0  0  0  0  0
   40.4120   72.6410   57.9600 N   0  0  0  0  0  0  0  0  0  0  0  0
   40.1520   73.6710   58.7730 C   0  0  0  0  0  0  0  0  0  0  0  0
   41.0610   71.9770   61.8440 N   0  0  0  0  0  0  0  0  0  0  0  0
   41.8830   82.2860   59.6000 C   0  0  0  0  0  0  0  0  0  0  0  0
   40.8390   83.1690   60.0780 C   0  0  1  0  0  0  0  0  0  0  0  0
   41.1610   83.6050   61.5160 C   0  0  0  0  0  0  0  0  0  0  0  0
   42.1740   84.3570   61.8990 C   0  0  0  0  0  0  0  0  0  0  0  0
   42.3870   84.6950   63.2310 C   0  0  0  0  0  0  0  0  0  0  0  0
   41.5470   84.2570   64.2170 C   0  0  0  0  0  0  0  0  0  0  0  0
   40.4960   83.4830   63.8600 C   0  0  0  0  0  0  0  0  0  0  0  0
   40.3230   83.1780   62.5660 C   0  0  0  0  0  0  0  0  0  0  0  0
   40.5230   84.2980   59.2880 C   0  0  0  0  0  0  0  0  0  0  0  0
   41.4660   84.7000   58.2760 C   0  0  0  0  0  0  0  0  0  0  0  0
   41.1860   85.8130   57.4910 C   0  0  0  0  0  0  0  0  0  0  0  0
   40.0170   86.4530   57.7420 N   0  0  0  0  0  0  0  0  0  0  0  0
   39.1580   86.0610   58.6840 C   0  0  0  0  0  0  0  0  0  0  0  0
   39.4420   84.9860   59.4330 N   0  0  0  0  0  0  0  0  0  0  0  0
   42.1226   80.5421   62.1154 H   0  0  0  0  0  0  0  0  0  0  0  0
   41.4940   78.5504   63.3881 H   0  0  0  0  0  0  0  0  0  0  0  0
   40.1147   76.8150   62.3301 H   0  0  0  0  0  0  0  0  0  0  0  0
   39.4623   75.3636   57.6981 H   0  0  0  0  0  0  0  0  0  0  0  0
   41.0415   70.6515   57.5622 H   0  0  0  0  0  0  0  0  0  0  0  0
   41.4060   71.0466   62.1201 H   0  0  0  0  0  0  0  0  0  0  0  0
   40.8952   72.6983   62.5604 H   0  0  0  0  0  0  0  0  0  0  0  0
   42.7175   82.2786   60.3166 H   0  0  0  0  0  0  0  0  0  0  0  0
   42.2506   82.6365   58.6243 H   0  0  0  0  0  0  0  0  0  0  0  0
   39.9261   82.5584   60.0174 H   0  0  0  0  0  0  0  0  0  0  0  0
   42.8753   84.7302   61.1381 H   0  0  0  0  0  0  0  0  0  0  0  0
   43.2475   85.3267   63.4964 H   0  0  0  0  0  0  0  0  0  0  0  0
   41.7205   84.5259   65.2694 H   0  0  0  0  0  0  0  0  0  0  0  0
   39.7941   83.1096   64.6202 H   0  0  0  0  0  0  0  0  0  0  0  0
   39.4615   82.5464   62.3037 H   0  0  0  0  0  0  0  0  0  0  0  0
   42.3967   84.1331   58.1260 H   0  0  0  0  0  0  0  0  0  0  0  0
   41.8769   86.1566   56.7070 H   0  0  0  0  0  0  0  0  0  0  0  0
   38.2223   86.6163   58.8453 H   0  0  0  0  0  0  0  0  0  0  0  0
  1 20  1  0
  1  4  1  0
  2  3  1  0
  3  4  2  0
  3  8  1  0
  4  5  1  0
  5  6  2  0
  7  6  1  0
  8  7  2  0
  9  8  1  0
 10 18  1  0
 10 11  1  0
 11  9  1  0
 11 12  2  0
 13 14  2  0
 13 12  1  0
 14 19  1  0
 15 14  1  0
 16 15  2  0
 17 16  1  0
 17 18  2  0
 18 13  1  0
 20 21  1  0
 21 22  1  0
 22 23  2  0
 22 27  1  0
 23 24  1  0
 24 25  2  0
 26 25  1  0
 27 26  2  0
 28 33  1  0
 28 21  1  0
 29 28  2  0
 30 31  2  0
 30 29  1  0
 31 32  1  0
 32 33  2  0
  5 34  1  0
  6 35  1  0
  7 36  1  0
 10 37  1  0
 16 38  1  0
 19 39  1  0
 19 40  1  0
 20 41  1  0
 20 42  1  0
 21 43  1  1
 23 44  1  0
 24 45  1  0
 25 46  1  0
 26 47  1  0
 27 48  1  0
 29 49  1  0
 30 50  1  0
 32 51  1  0
M  END
>  <Score>  (1) 
-7.23237

>  <Score_dual>  (1) 
-7.91

>  <Choices>  (1) 
[None, 6, ['4-12', 180], 12, ['1-22', 45], 25, ['2-1', 0], 26, ['7-11', 270], 36, ['2-1', 0], 37, ['28-21', 120]]

$$$$
