
     RDKit          3D

 56 61  0  0  1  0  0  0  0  0999 V2000
   40.3600   79.2240   60.4340 C   0  0  0  0  0  0  0  0  0  0  0  0
   40.0170   79.4600   59.1020 C   0  0  0  0  0  0  0  0  0  0  0  0
   39.9030   78.3120   58.3930 N   0  0  0  0  0  0  0  0  0  0  0  0
   40.1700   77.3220   59.2660 C   0  0  0  0  0  0  0  0  0  0  0  0
   40.4380   77.8820   60.4720 N   0  0  0  0  0  0  0  0  0  0  0  0
   40.2020   75.8730   59.0840 C   0  0  0  0  0  0  0  0  0  0  0  0
   39.7400   75.2220   57.9580 C   0  0  0  0  0  0  0  0  0  0  0  0
   39.8310   73.8460   57.9190 C   0  0  0  0  0  0  0  0  0  0  0  0
   40.3500   73.0580   58.9230 C   0  0  0  0  0  0  0  0  0  0  0  0
   40.8020   73.7290   60.0310 C   0  0  0  0  0  0  0  0  0  0  0  0
   40.7240   75.0950   60.0970 C   0  0  0  0  0  0  0  0  0  0  0  0
   41.4870   72.7870   61.3730 S   0  0  0  0  0  0  0  0  0  0  0  0
   41.4010   71.0740   60.8880 C   0  0  0  0  0  0  0  0  0  0  0  0
   41.8680   70.1420   61.7490 C   0  0  0  0  0  0  0  0  0  0  0  0
   41.8370   68.7960   61.4480 C   0  0  0  0  0  0  0  0  0  0  0  0
   41.3130   68.4490   60.2370 C   0  0  0  0  0  0  0  0  0  0  0  0
   40.8470   69.4260   59.3850 C   0  0  0  0  0  0  0  0  0  0  0  0
   40.8670   70.7770   59.6590 C   0  0  0  0  0  0  0  0  0  0  0  0
   40.3550   71.6720   58.6910 N   0  0  0  0  0  0  0  0  0  0  0  0
   40.6380   80.2400   61.4540 C   0  0  1  0  0  0  0  0  0  0  0  0
   40.3570   83.6000   60.0270 C   0  0  0  0  0  0  0  0  0  0  0  0
   40.7480   82.2750   60.2260 C   0  0  0  0  0  0  0  0  0  0  0  0
   40.2000   81.5850   61.2710 C   0  0  0  0  0  0  0  0  0  0  0  0
   39.3070   82.2170   62.0660 N   0  0  0  0  0  0  0  0  0  0  0  0
   38.9250   83.5070   61.8780 C   0  0  0  0  0  0  0  0  0  0  0  0
   39.4600   84.1870   60.8510 N   0  0  0  0  0  0  0  0  0  0  0  0
   40.9020   84.3220   58.9300 N   0  0  0  0  0  0  0  0  0  0  0  0
   40.3930   85.6540   58.6240 C   0  0  0  0  0  0  0  0  0  0  0  0
   41.4340   86.3310   57.7740 C   0  0  0  0  0  0  0  0  0  0  0  0
   41.4250   85.6230   56.5090 N   0  0  0  0  0  0  0  0  0  0  0  0
   41.9640   84.3330   56.7040 C   0  0  0  0  0  0  0  0  0  0  0  0
   41.9130   83.8010   58.1170 C   0  0  0  0  0  0  0  0  0  0  0  0
   40.6390   79.6860   62.6190 O   0  0  0  0  0  0  0  0  0  0  0  0
   39.8578   80.4622   58.6774 H   0  0  0  0  0  0  0  0  0  0  0  0
   39.6627   78.2162   57.3960 H   0  0  0  0  0  0  0  0  0  0  0  0
   39.3113   75.7845   57.1155 H   0  0  0  0  0  0  0  0  0  0  0  0
   39.4604   73.3385   57.0162 H   0  0  0  0  0  0  0  0  0  0  0  0
   41.0960   75.5966   61.0025 H   0  0  0  0  0  0  0  0  0  0  0  0
   42.2835   70.4654   62.7148 H   0  0  0  0  0  0  0  0  0  0  0  0
   42.2164   68.0392   62.1504 H   0  0  0  0  0  0  0  0  0  0  0  0
   41.2627   67.3906   59.9414 H   0  0  0  0  0  0  0  0  0  0  0  0
   40.4299   69.1059   58.4188 H   0  0  0  0  0  0  0  0  0  0  0  0
   39.9811   71.3033   57.8049 H   0  0  0  0  0  0  0  0  0  0  0  0
   41.6610   80.6100   61.2907 H   0  0  0  0  0  0  0  0  0  0  0  0
   41.4797   81.7974   59.5578 H   0  0  0  0  0  0  0  0  0  0  0  0
   38.1957   83.9827   62.5502 H   0  0  0  0  0  0  0  0  0  0  0  0
   39.4438   85.5796   58.0731 H   0  0  0  0  0  0  0  0  0  0  0  0
   40.2017   86.2251   59.5444 H   0  0  0  0  0  0  0  0  0  0  0  0
   41.1773   87.3899   57.6232 H   0  0  0  0  0  0  0  0  0  0  0  0
   42.4263   86.3050   58.2480 H   0  0  0  0  0  0  0  0  0  0  0  0
   41.9953   86.1359   55.8215 H   0  0  0  0  0  0  0  0  0  0  0  0
   41.4076   83.6350   56.0612 H   0  0  0  0  0  0  0  0  0  0  0  0
   43.0326   84.4175   56.4572 H   0  0  0  0  0  0  0  0  0  0  0  0
   41.7731   82.7113   58.0619 H   0  0  0  0  0  0  0  0  0  0  0  0
   42.8595   84.1091   58.5852 H   0  0  0  0  0  0  0  0  0  0  0  0
   40.6377   80.3872   63.3179 H   0  0  0  0  0  0  0  0  0  0  0  0
  1  5  1  0
  1 20  1  0
  2  1  2  0
  3  2  1  0
  3  4  1  0
  4  5  2  0
  6  4  1  0
  6 11  1  0
  7  6  2  0
  8  7  1  0
  8  9  2  0
  9 10  1  0
 10 11  2  0
 10 12  1  0
 13 12  1  0
 13 14  2  0
 15 14  1  0
 16 15  2  0
 17 18  2  0
 17 16  1  0
 18 13  1  0
 19  9  1  0
 19 18  1  0
 20 33  1  0
 21 22  2  0
 21 26  1  0
 22 23  1  0
 23 20  1  0
 23 24  2  0
 25 24  1  0
 26 25  2  0
 27 21  1  0
 28 27  1  0
 29 28  1  0
 30 31  1  0
 30 29  1  0
 31 32  1  0
 32 27  1  0
  2 34  1  0
  3 35  1  0
  7 36  1  0
  8 37  1  0
 11 38  1  0
 14 39  1  0
 15 40  1  0
 16 41  1  0
 17 42  1  0
 19 43  1  0
 20 44  1  6
 22 45  1  0
 25 46  1  0
 28 47  1  0
 28 48  1  0
 29 49  1  0
 29 50  1  0
 30 51  1  0
 31 52  1  0
 31 53  1  0
 32 54  1  0
 32 55  1  0
 33 56  1  0
M  END
>  <Score>  (1) 
-8.35116

>  <Score_dual>  (1) 
-8.97

>  <Choices>  (1) 
[None, 8, ['5-9', 180], 8, ['15-6', 180], 25, ['23-6', 195], 34, ['60-7', 150]]

$$$$
