
     RDKit          3D

 44 47  0  0  0  0  0  0  0  0999 V2000
   43.5370   85.6890   60.5500 C   0  0  0  0  0  0  0  0  0  0  0  0
   42.7370   85.2410   59.5360 C   0  0  0  0  0  0  0  0  0  0  0  0
   42.4420   86.0050   58.4030 C   0  0  0  0  0  0  0  0  0  0  0  0
   42.9630   87.2280   58.3010 N   0  0  0  0  0  0  0  0  0  0  0  0
   43.7510   87.6500   59.3140 C   0  0  0  0  0  0  0  0  0  0  0  0
   44.0290   86.9110   60.3990 N   0  0  0  0  0  0  0  0  0  0  0  0
   44.3360   89.0150   59.2060 C   0  0  0  0  0  0  0  0  0  0  0  0
   45.5390   89.0140   58.5380 F   0  0  0  0  0  0  0  0  0  0  0  0
   43.4800   89.8660   58.5210 F   0  0  0  0  0  0  0  0  0  0  0  0
   44.5210   89.5670   60.4630 F   0  0  0  0  0  0  0  0  0  0  0  0
   43.7950   84.7990   61.7240 C   0  0  0  0  0  0  0  0  0  0  0  0
   45.0200   84.7910   62.0710 O   0  0  0  0  0  0  0  0  0  0  0  0
   41.0660   83.8710   64.0740 C   0  0  0  0  0  0  0  0  0  0  0  0
   42.0920   84.6190   63.4590 C   0  0  0  0  0  0  0  0  0  0  0  0
   42.7610   84.0600   62.3540 C   0  0  0  0  0  0  0  0  0  0  0  0
   42.3460   82.8490   61.9910 N   0  0  0  0  0  0  0  0  0  0  0  0
   41.3770   82.1290   62.5640 C   0  0  0  0  0  0  0  0  0  0  0  0
   40.7380   82.6450   63.6080 N   0  0  0  0  0  0  0  0  0  0  0  0
   41.0700   80.8080   62.0090 C   0  0  0  0  0  0  0  0  0  0  0  0
   41.1030   80.5200   60.6930 C   0  0  0  0  0  0  0  0  0  0  0  0
   40.8050   79.2580   60.2100 C   0  0  0  0  0  0  0  0  0  0  0  0
   40.4720   78.2910   61.1290 C   0  0  0  0  0  0  0  0  0  0  0  0
   40.4380   78.5830   62.4950 C   0  0  0  0  0  0  0  0  0  0  0  0
   40.7420   79.8370   62.8650 N   0  0  0  0  0  0  0  0  0  0  0  0
   41.5720   85.4320   57.3710 C   0  0  0  0  0  0  0  0  0  0  0  0
   40.6800   86.1450   56.8180 O   0  0  0  0  0  0  0  0  0  0  0  0
   39.9400   83.4400   58.9810 Cl  0  0  0  0  0  0  0  0  0  0  0  0
   40.9450   83.0470   57.5910 C   0  0  0  0  0  0  0  0  0  0  0  0
   41.6640   84.0310   56.9090 C   0  0  0  0  0  0  0  0  0  0  0  0
   42.4390   83.6330   55.8150 C   0  0  0  0  0  0  0  0  0  0  0  0
   42.4790   82.3090   55.4380 C   0  0  0  0  0  0  0  0  0  0  0  0
   41.7570   81.3370   56.1270 C   0  0  0  0  0  0  0  0  0  0  0  0
   40.9790   81.7170   57.2210 C   0  0  0  0  0  0  0  0  0  0  0  0
   42.3053   84.2324   59.6153 H   0  0  0  0  0  0  0  0  0  0  0  0
   40.5292   84.2882   64.9387 H   0  0  0  0  0  0  0  0  0  0  0  0
   42.3630   85.6167   63.8347 H   0  0  0  0  0  0  0  0  0  0  0  0
   41.3753   81.3127   59.9806 H   0  0  0  0  0  0  0  0  0  0  0  0
   40.8334   79.0370   59.1328 H   0  0  0  0  0  0  0  0  0  0  0  0
   40.2293   77.2749   60.7846 H   0  0  0  0  0  0  0  0  0  0  0  0
   40.1727   77.8159   63.2375 H   0  0  0  0  0  0  0  0  0  0  0  0
   43.0188   84.3803   55.2535 H   0  0  0  0  0  0  0  0  0  0  0  0
   43.0937   82.0129   54.5751 H   0  0  0  0  0  0  0  0  0  0  0  0
   41.7998   80.2837   55.8126 H   0  0  0  0  0  0  0  0  0  0  0  0
   40.4006   80.9675   57.7811 H   0  0  0  0  0  0  0  0  0  0  0  0
  1 11  1  0
  2  1  2  0
  3  2  1  0
  4  3  2  0
  4  5  1  0
  5  6  2  0
  6  1  1  0
  7  5  1  0
  7 10  1  0
  8  7  1  0
  9  7  1  0
 11 12  2  0
 11 15  1  0
 14 13  2  0
 15 14  1  0
 16 15  2  0
 16 17  1  0
 17 18  2  0
 18 13  1  0
 19 17  1  0
 19 24  1  0
 20 19  2  0
 21 20  1  0
 21 22  2  0
 22 23  1  0
 23 24  2  0
 25  3  1  0
 26 25  2  0
 28 27  1  0
 29 25  1  0
 29 28  2  0
 30 29  1  0
 31 30  2  0
 31 32  1  0
 32 33  2  0
 33 28  1  0
  2 34  1  0
 13 35  1  0
 14 36  1  0
 20 37  1  0
 21 38  1  0
 22 39  1  0
 23 40  1  0
 30 41  1  0
 31 42  1  0
 32 43  1  0
 33 44  1  0
M  END
>  <Score>  (1) 
-7.1984

>  <Score_dual>  (1) 
-7.12

>  <Choices>  (1) 
[None, 8, ['5-9', 180], 10, ['6-16', 285], 20, ['19-5', 120], 28, ['11-12', 15], 31, ['5-7', 60], 33, ['7-3', 150]]

$$$$
