
     RDKit          3D

 44 49  0  0  0  0  0  0  0  0999 V2000
   39.7810   79.1690   58.4640 C   0  0  0  0  0  0  0  0  0  0  0  0
   40.3570   79.5540   59.6560 C   0  0  0  0  0  0  0  0  0  0  0  0
   40.4360   78.6530   60.6980 C   0  0  0  0  0  0  0  0  0  0  0  0
   39.9350   77.3560   60.5480 C   0  0  0  0  0  0  0  0  0  0  0  0
   39.8850   76.3040   61.3820 N   0  0  0  0  0  0  0  0  0  0  0  0
   39.2930   75.2710   60.7420 C   0  0  0  0  0  0  0  0  0  0  0  0
   38.9750   75.6880   59.5050 N   0  0  0  0  0  0  0  0  0  0  0  0
   39.3600   76.9810   59.3470 C   0  0  0  0  0  0  0  0  0  0  0  0
   39.2740   77.8710   58.2980 C   0  0  0  0  0  0  0  0  0  0  0  0
   37.3650   77.8190   56.8470 C   0  0  0  0  0  0  0  0  0  0  0  0
   38.6630   77.4040   57.0840 C   0  0  0  0  0  0  0  0  0  0  0  0
   39.3200   76.5810   56.1830 C   0  0  0  0  0  0  0  0  0  0  0  0
   38.6060   76.2240   55.0760 C   0  0  0  0  0  0  0  0  0  0  0  0
   38.9340   75.4470   54.0160 N   0  0  0  0  0  0  0  0  0  0  0  0
   37.9140   75.3530   53.1310 C   0  0  0  0  0  0  0  0  0  0  0  0
   36.9050   76.0890   53.6360 N   0  0  0  0  0  0  0  0  0  0  0  0
   37.3060   76.6120   54.7940 C   0  0  0  0  0  0  0  0  0  0  0  0
   36.6940   77.4290   55.7170 C   0  0  0  0  0  0  0  0  0  0  0  0
   41.7600   82.9510   58.8790 C   0  0  0  0  0  0  0  0  0  0  0  0
   41.3040   81.6410   58.6520 C   0  0  0  0  0  0  0  0  0  0  0  0
   40.8560   80.9170   59.7420 C   0  0  0  0  0  0  0  0  0  0  0  0
   40.8780   81.4970   60.9640 N   0  0  0  0  0  0  0  0  0  0  0  0
   41.3310   82.7780   61.1420 C   0  0  0  0  0  0  0  0  0  0  0  0
   41.7680   83.5020   60.1200 N   0  0  0  0  0  0  0  0  0  0  0  0
   41.3200   83.3270   62.4930 C   0  0  0  0  0  0  0  0  0  0  0  0
   42.4410   83.9180   63.0370 C   0  0  0  0  0  0  0  0  0  0  0  0
   42.3870   84.4310   64.3330 C   0  0  0  0  0  0  0  0  0  0  0  0
   41.2720   84.3690   65.0850 N   0  0  0  0  0  0  0  0  0  0  0  0
   40.1900   83.7790   64.5130 C   0  0  0  0  0  0  0  0  0  0  0  0
   40.2140   83.2750   63.2590 N   0  0  0  0  0  0  0  0  0  0  0  0
   39.7181   79.8875   57.6335 H   0  0  0  0  0  0  0  0  0  0  0  0
   40.8949   78.9561   61.6506 H   0  0  0  0  0  0  0  0  0  0  0  0
   40.2392   76.2873   62.3491 H   0  0  0  0  0  0  0  0  0  0  0  0
   39.1056   74.2703   61.1585 H   0  0  0  0  0  0  0  0  0  0  0  0
   36.8635   78.4720   57.5764 H   0  0  0  0  0  0  0  0  0  0  0  0
   40.3516   76.2373   56.3495 H   0  0  0  0  0  0  0  0  0  0  0  0
   39.8469   74.9848   53.8980 H   0  0  0  0  0  0  0  0  0  0  0  0
   37.9099   74.7880   52.1872 H   0  0  0  0  0  0  0  0  0  0  0  0
   35.6622   77.7705   55.5473 H   0  0  0  0  0  0  0  0  0  0  0  0
   42.1205   83.5466   58.0274 H   0  0  0  0  0  0  0  0  0  0  0  0
   41.3034   81.2063   57.6416 H   0  0  0  0  0  0  0  0  0  0  0  0
   43.3709   83.9844   62.4532 H   0  0  0  0  0  0  0  0  0  0  0  0
   43.2866   84.9026   64.7553 H   0  0  0  0  0  0  0  0  0  0  0  0
   39.2580   83.7087   65.0931 H   0  0  0  0  0  0  0  0  0  0  0  0
  1  2  2  0
  2 21  1  0
  2  3  1  0
  4  3  2  0
  4  5  1  0
  6  5  1  0
  7  6  2  0
  8  7  1  0
  8  4  1  0
  9  1  1  0
  9  8  2  0
 10 11  2  0
 11  9  1  0
 12 11  1  0
 13 12  2  0
 14 13  1  0
 15 16  2  0
 15 14  1  0
 16 17  1  0
 17 13  1  0
 17 18  2  0
 18 10  1  0
 19 24  2  0
 20 19  1  0
 20 21  2  0
 21 22  1  0
 22 23  2  0
 23 25  1  0
 24 23  1  0
 25 26  2  0
 25 30  1  0
 26 27  1  0
 27 28  2  0
 29 28  1  0
 30 29  2  0
  1 31  1  0
  3 32  1  0
  5 33  1  0
  6 34  1  0
 10 35  1  0
 12 36  1  0
 14 37  1  0
 15 38  1  0
 18 39  1  0
 19 40  1  0
 20 41  1  0
 26 42  1  0
 27 43  1  0
 29 44  1  0
M  END
>  <Score>  (1) 
-7.71069

>  <Score_dual>  (1) 
-7.91

>  <Choices>  (1) 
[None, 8, ['34-23', 60], 19, ['34-22', 180], 35, ['19-17', 90]]

$$$$
