
     RDKit          3D

 46 50  0  0  1  0  0  0  0  0999 V2000
   39.4140   76.5060   60.1140 C   0  0  2  0  0  0  0  0  0  0  0  0
   40.3970   75.4470   60.6270 C   0  0  0  0  0  0  0  0  0  0  0  0
   40.2060   74.2540   59.7380 C   0  0  0  0  0  0  0  0  0  0  0  0
   38.7180   74.2910   59.4490 C   0  0  0  0  0  0  0  0  0  0  0  0
   38.3770   75.7590   59.3530 C   0  0  2  0  0  0  0  0  0  0  0  0
   37.3840   77.3600   57.5980 C   0  0  0  0  0  0  0  0  0  0  0  0
   38.0670   76.2060   58.0050 C   0  0  0  0  0  0  0  0  0  0  0  0
   38.4590   75.4420   56.8970 C   0  0  0  0  0  0  0  0  0  0  0  0
   38.2300   75.7400   55.5690 C   0  0  0  0  0  0  0  0  0  0  0  0
   38.5740   75.0600   54.4610 N   0  0  0  0  0  0  0  0  0  0  0  0
   38.1000   75.8070   53.4480 C   0  0  0  0  0  0  0  0  0  0  0  0
   37.4880   76.9030   53.9330 N   0  0  0  0  0  0  0  0  0  0  0  0
   37.5470   76.9030   55.2760 C   0  0  0  0  0  0  0  0  0  0  0  0
   37.1250   77.7120   56.3100 C   0  0  0  0  0  0  0  0  0  0  0  0
   40.5570   79.7770   58.8930 C   0  0  0  0  0  0  0  0  0  0  0  0
   41.4720   79.4230   57.8590 C   0  0  0  0  0  0  0  0  0  0  0  0
   41.6820   78.0580   57.5980 C   0  0  0  0  0  0  0  0  0  0  0  0
   40.9790   77.1640   58.3700 N   0  0  0  0  0  0  0  0  0  0  0  0
   40.1320   77.5520   59.3280 C   0  0  0  0  0  0  0  0  0  0  0  0
   39.9260   78.8520   59.5830 N   0  0  0  0  0  0  0  0  0  0  0  0
   40.3550   81.1900   59.1530 C   0  0  0  0  0  0  0  0  0  0  0  0
   39.9950   81.7670   60.3570 C   0  0  0  0  0  0  0  0  0  0  0  0
   39.9210   83.1080   60.1400 N   0  0  0  0  0  0  0  0  0  0  0  0
   40.2220   83.3780   58.8360 C   0  0  0  0  0  0  0  0  0  0  0  0
   40.4840   82.1910   58.2530 N   0  0  0  0  0  0  0  0  0  0  0  0
   39.5600   84.0380   61.2160 C   0  0  0  0  0  0  0  0  0  0  0  0
   39.1940   85.2800   60.7170 F   0  0  0  0  0  0  0  0  0  0  0  0
   40.6650   84.2690   62.0180 F   0  0  0  0  0  0  0  0  0  0  0  0
   38.4950   83.5420   61.8750 F   0  0  0  0  0  0  0  0  0  0  0  0
   38.9260   77.0709   60.9219 H   0  0  0  0  0  0  0  0  0  0  0  0
   41.4307   75.8166   60.5566 H   0  0  0  0  0  0  0  0  0  0  0  0
   40.2145   75.2004   61.6834 H   0  0  0  0  0  0  0  0  0  0  0  0
   40.7927   74.3506   58.8125 H   0  0  0  0  0  0  0  0  0  0  0  0
   40.5394   73.3105   60.1947 H   0  0  0  0  0  0  0  0  0  0  0  0
   38.4950   73.7791   58.5012 H   0  0  0  0  0  0  0  0  0  0  0  0
   38.1323   73.7799   60.2273 H   0  0  0  0  0  0  0  0  0  0  0  0
   37.4117   75.9799   59.8320 H   0  0  0  0  0  0  0  0  0  0  0  0
   37.0272   78.0385   58.3869 H   0  0  0  0  0  0  0  0  0  0  0  0
   39.0046   74.5103   57.1074 H   0  0  0  0  0  0  0  0  0  0  0  0
   39.0854   74.1679   54.4015 H   0  0  0  0  0  0  0  0  0  0  0  0
   38.1981   75.5588   52.3809 H   0  0  0  0  0  0  0  0  0  0  0  0
   36.5789   78.6419   56.0931 H   0  0  0  0  0  0  0  0  0  0  0  0
   41.9991   80.1966   57.2814 H   0  0  0  0  0  0  0  0  0  0  0  0
   42.3757   77.7213   56.8135 H   0  0  0  0  0  0  0  0  0  0  0  0
   39.8053   81.2435   61.3057 H   0  0  0  0  0  0  0  0  0  0  0  0
   40.2460   84.3676   58.3563 H   0  0  0  0  0  0  0  0  0  0  0  0
  1  2  1  0
  3  2  1  0
  4  3  1  0
  5  4  1  0
  5  1  1  0
  6  7  2  0
  7  5  1  0
  8  7  1  0
  9  8  2  0
 10  9  1  0
 11 12  2  0
 11 10  1  0
 12 13  1  0
 13  9  1  0
 13 14  2  0
 14  6  1  0
 15 21  1  0
 15 20  1  0
 16 15  2  0
 17 16  1  0
 17 18  2  0
 18 19  1  0
 19 20  2  0
 19  1  1  0
 21 22  2  0
 23 22  1  0
 23 26  1  0
 24 23  1  0
 25 24  2  0
 25 21  1  0
 26 29  1  0
 26 28  1  0
 27 26  1  0
  1 30  1  1
  2 31  1  0
  2 32  1  0
  3 33  1  0
  3 34  1  0
  4 35  1  0
  4 36  1  0
  5 37  1  1
  6 38  1  0
  8 39  1  0
 10 40  1  0
 11 41  1  0
 14 42  1  0
 16 43  1  0
 17 44  1  0
 22 45  1  0
 24 46  1  0
M  END
>  <Score>  (1) 
-7.11856

>  <Score_dual>  (1) 
-7.02

>  <Choices>  (1) 
[None, 6, ['23-9', 180], 15, ['11-3', 300], 19, ['31-23', 270], 32, ['34-25', 180]]

$$$$
