
     RDKit          3D

 52 56  0  0  1  0  0  0  0  0999 V2000
   41.1290   82.0400   60.0620 C   0  0  0  0  0  0  0  0  0  0  0  0
   40.3380   83.1810   60.5100 C   0  0  1  0  0  0  0  0  0  0  0  0
   40.8490   83.6750   61.8550 C   0  0  0  0  0  0  0  0  0  0  0  0
   41.9740   84.3440   62.0770 C   0  0  0  0  0  0  0  0  0  0  0  0
   42.3650   84.7430   63.3470 C   0  0  0  0  0  0  0  0  0  0  0  0
   41.5920   84.4600   64.4470 C   0  0  0  0  0  0  0  0  0  0  0  0
   40.4290   83.7730   64.2580 C   0  0  0  0  0  0  0  0  0  0  0  0
   40.0930   83.4070   63.0000 C   0  0  0  0  0  0  0  0  0  0  0  0
   40.2160   84.2650   59.6010 C   0  0  0  0  0  0  0  0  0  0  0  0
   41.2380   84.4520   58.6160 C   0  0  0  0  0  0  0  0  0  0  0  0
   41.1440   85.5110   57.7210 C   0  0  0  0  0  0  0  0  0  0  0  0
   40.0540   86.3150   57.8560 N   0  0  0  0  0  0  0  0  0  0  0  0
   39.1130   86.1270   58.7780 C   0  0  0  0  0  0  0  0  0  0  0  0
   39.2250   85.1020   59.6250 N   0  0  0  0  0  0  0  0  0  0  0  0
   41.4800   81.2780   61.1790 O   0  0  0  0  0  0  0  0  0  0  0  0
   41.0840   78.4040   61.0120 Cl  0  0  0  0  0  0  0  0  0  0  0  0
   42.4940   79.3090   61.5340 C   0  0  0  0  0  0  0  0  0  0  0  0
   42.6160   80.7050   61.5870 C   0  0  0  0  0  0  0  0  0  0  0  0
   43.8180   81.1910   62.0250 C   0  0  0  0  0  0  0  0  0  0  0  0
   44.8700   80.3950   62.4010 C   0  0  0  0  0  0  0  0  0  0  0  0
   44.7390   79.0420   62.3450 C   0  0  0  0  0  0  0  0  0  0  0  0
   43.5630   78.4930   61.9160 C   0  0  0  0  0  0  0  0  0  0  0  0
   43.5240   77.0670   61.8920 N   0  0  0  0  0  0  0  0  0  0  0  0
   42.9170   76.1750   61.0720 C   0  0  0  0  0  0  0  0  0  0  0  0
   43.2060   74.9180   61.5010 N   0  0  0  0  0  0  0  0  0  0  0  0
   43.9870   75.0450   62.5800 C   0  0  0  0  0  0  0  0  0  0  0  0
   44.5320   74.0500   63.3570 C   0  0  2  0  0  0  0  0  0  0  0  0
   45.2890   74.4400   64.3980 N   0  0  0  0  0  0  0  0  0  0  0  0
   45.5200   75.7530   64.6870 C   0  0  0  0  0  0  0  0  0  0  0  0
   44.9740   76.7040   63.9090 N   0  0  0  0  0  0  0  0  0  0  0  0
   44.2070   76.3780   62.8540 C   0  0  0  0  0  0  0  0  0  0  0  0
   44.3790   72.6460   63.1760 N   0  0  0  0  0  0  0  0  0  0  0  0
   40.5362   81.4277   59.3665 H   0  0  0  0  0  0  0  0  0  0  0  0
   42.0346   82.3892   59.5443 H   0  0  0  0  0  0  0  0  0  0  0  0
   39.3147   82.7857   60.5915 H   0  0  0  0  0  0  0  0  0  0  0  0
   42.6204   84.5913   61.2220 H   0  0  0  0  0  0  0  0  0  0  0  0
   43.3082   85.2943   63.4751 H   0  0  0  0  0  0  0  0  0  0  0  0
   41.9027   84.7789   65.4529 H   0  0  0  0  0  0  0  0  0  0  0  0
   39.7791   83.5223   65.1093 H   0  0  0  0  0  0  0  0  0  0  0  0
   39.1508   82.8551   62.8674 H   0  0  0  0  0  0  0  0  0  0  0  0
   42.0928   83.7614   58.5679 H   0  0  0  0  0  0  0  0  0  0  0  0
   41.9063   85.6892   56.9483 H   0  0  0  0  0  0  0  0  0  0  0  0
   38.2523   86.8091   58.8412 H   0  0  0  0  0  0  0  0  0  0  0  0
   43.9479   82.2820   62.0786 H   0  0  0  0  0  0  0  0  0  0  0  0
   45.8120   80.8470   62.7450 H   0  0  0  0  0  0  0  0  0  0  0  0
   45.5754   78.3930   62.6435 H   0  0  0  0  0  0  0  0  0  0  0  0
   42.2928   76.4269   60.2020 H   0  0  0  0  0  0  0  0  0  0  0  0
   43.6402   74.0642   64.0007 H   0  0  0  0  0  0  0  0  0  0  0  0
   46.1464   76.0308   65.5475 H   0  0  0  0  0  0  0  0  0  0  0  0
   45.1458   77.6965   64.1243 H   0  0  0  0  0  0  0  0  0  0  0  0
   44.3287   72.1847   64.0956 H   0  0  0  0  0  0  0  0  0  0  0  0
   43.5128   72.4599   62.6507 H   0  0  0  0  0  0  0  0  0  0  0  0
  1  2  1  0
  1 15  1  0
  2  3  1  0
  3  4  2  0
  3  8  1  0
  4  5  1  0
  5  6  2  0
  7  6  1  0
  8  7  2  0
  9 14  1  0
  9  2  1  0
 10  9  2  0
 11 12  2  0
 11 10  1  0
 12 13  1  0
 13 14  2  0
 15 18  1  0
 16 17  1  0
 17 18  2  0
 17 22  1  0
 18 19  1  0
 19 20  2  0
 21 20  1  0
 22 21  2  0
 23 22  1  0
 23 31  1  0
 24 25  2  0
 24 23  1  0
 25 26  1  0
 26 31  2  0
 26 27  1  0
 27 32  1  0
 27 28  1  0
 28 29  2  0
 30 29  1  0
 31 30  1  0
  1 33  1  0
  1 34  1  0
  2 35  1  1
  4 36  1  0
  5 37  1  0
  6 38  1  0
  7 39  1  0
  8 40  1  0
 10 41  1  0
 11 42  1  0
 13 43  1  0
 19 44  1  0
 20 45  1  0
 21 46  1  0
 24 47  1  0
 27 48  1  1
 29 49  1  0
 30 50  1  0
 32 51  1  0
 32 52  1  0
M  END
>  <Score>  (1) 
-7.15544

>  <Score_dual>  (1) 
-7.54

>  <Choices>  (1) 
[None, 6, ['4-12', 180], 12, ['1-22', 45], 25, ['2-1', 0], 26, ['7-11', 270], 36, ['28-10', 105]]

$$$$
