
     RDKit          3D

 49 52  0  0  1  0  0  0  0  0999 V2000
   40.7520   82.5720   61.2260 N   0  0  0  0  0  0  0  0  0  0  0  0
   40.7050   82.8000   59.8580 C   0  0  0  0  0  0  0  0  0  0  0  0
   40.0470   83.9080   59.3370 C   0  0  0  0  0  0  0  0  0  0  0  0
   39.4430   84.7700   60.2090 C   0  0  0  0  0  0  0  0  0  0  0  0
   38.8460   85.7720   59.7540 O   0  0  0  0  0  0  0  0  0  0  0  0
   39.5150   84.5110   61.5020 N   0  0  0  0  0  0  0  0  0  0  0  0
   40.1530   83.4370   62.0180 C   0  0  0  0  0  0  0  0  0  0  0  0
   40.2580   83.1330   63.2100 O   0  0  0  0  0  0  0  0  0  0  0  0
   41.4810   81.3770   61.5350 C   0  0  0  0  0  0  0  0  0  0  0  0
   42.8230   81.4030   61.8420 C   0  0  0  0  0  0  0  0  0  0  0  0
   43.4730   80.1930   62.0760 C   0  0  0  0  0  0  0  0  0  0  0  0
   42.7350   79.0630   61.9930 N   0  0  0  0  0  0  0  0  0  0  0  0
   41.4170   79.0770   61.6900 C   0  0  0  0  0  0  0  0  0  0  0  0
   40.7710   80.2440   61.4560 N   0  0  0  0  0  0  0  0  0  0  0  0
   44.6510   82.6840   62.9930 C   0  0  2  0  0  0  0  0  0  0  0  0
   43.5430   82.6460   62.0180 C   0  0  1  0  0  0  0  0  0  0  0  0
   44.0920   83.0790   60.7640 O   0  0  0  0  0  0  0  0  0  0  0  0
   44.8750   84.1610   61.2030 C   0  0  0  0  0  0  0  0  0  0  0  0
   45.7460   83.4450   62.2430 C   0  0  2  0  0  0  0  0  0  0  0  0
   45.0030   81.3890   63.2820 O   0  0  0  0  0  0  0  0  0  0  0  0
   46.5600   82.5630   61.6000 O   0  0  0  0  0  0  0  0  0  0  0  0
   40.5870   77.8380   61.5890 C   0  0  0  0  0  0  0  0  0  0  0  0
   41.2510   76.8190   60.6940 C   0  0  0  0  0  0  0  0  0  0  0  0
   40.3080   75.6860   60.5650 C   0  0  0  0  0  0  0  0  0  0  0  0
   38.9590   75.9550   60.3410 C   0  0  0  0  0  0  0  0  0  0  0  0
   38.1100   74.8790   60.2260 C   0  0  0  0  0  0  0  0  0  0  0  0
   38.4900   73.5590   60.3160 C   0  0  0  0  0  0  0  0  0  0  0  0
   39.8290   73.3660   60.5370 C   0  0  0  0  0  0  0  0  0  0  0  0
   40.7590   74.3800   60.6660 C   0  0  0  0  0  0  0  0  0  0  0  0
   41.1967   82.0921   59.1745 H   0  0  0  0  0  0  0  0  0  0  0  0
   40.0133   84.0863   58.2521 H   0  0  0  0  0  0  0  0  0  0  0  0
   39.0590   85.1647   62.1544 H   0  0  0  0  0  0  0  0  0  0  0  0
   44.5453   80.1583   62.3189 H   0  0  0  0  0  0  0  0  0  0  0  0
   44.4242   83.1667   63.9550 H   0  0  0  0  0  0  0  0  0  0  0  0
   42.7608   83.3005   62.4300 H   0  0  0  0  0  0  0  0  0  0  0  0
   45.4779   84.5875   60.3878 H   0  0  0  0  0  0  0  0  0  0  0  0
   44.3074   85.0227   61.5841 H   0  0  0  0  0  0  0  0  0  0  0  0
   46.3914   84.0835   62.8642 H   0  0  0  0  0  0  0  0  0  0  0  0
   45.0361   81.2673   64.2639 H   0  0  0  0  0  0  0  0  0  0  0  0
   47.0562   82.0253   62.2669 H   0  0  0  0  0  0  0  0  0  0  0  0
   40.4588   77.4071   62.5929 H   0  0  0  0  0  0  0  0  0  0  0  0
   39.6101   78.1023   61.1580 H   0  0  0  0  0  0  0  0  0  0  0  0
   41.4538   77.2576   59.7058 H   0  0  0  0  0  0  0  0  0  0  0  0
   42.2111   76.4879   61.1165 H   0  0  0  0  0  0  0  0  0  0  0  0
   38.5878   76.9873   60.2594 H   0  0  0  0  0  0  0  0  0  0  0  0
   37.0450   75.0895   60.0484 H   0  0  0  0  0  0  0  0  0  0  0  0
   37.7772   72.7269   60.2185 H   0  0  0  0  0  0  0  0  0  0  0  0
   40.1890   72.3297   60.6174 H   0  0  0  0  0  0  0  0  0  0  0  0
   41.8217   74.1576   60.8429 H   0  0  0  0  0  0  0  0  0  0  0  0
  1  9  1  0
  1  7  1  0
  2  1  1  0
  3  2  2  0
  3  4  1  0
  4  6  1  0
  5  4  2  0
  6  7  1  0
  7  8  2  0
  9 10  1  0
 10 16  1  0
 10 11  2  0
 12 11  1  0
 13 12  2  0
 14  9  2  0
 14 13  1  0
 15 20  1  0
 16 15  1  0
 17 18  1  0
 17 16  1  0
 18 19  1  0
 19 15  1  0
 21 19  1  0
 22 13  1  0
 23 22  1  0
 24 29  1  0
 24 23  1  0
 25 24  2  0
 26 27  2  0
 26 25  1  0
 27 28  1  0
 28 29  2  0
  2 30  1  0
  3 31  1  0
  6 32  1  0
 11 33  1  0
 15 34  1  1
 16 35  1  1
 18 36  1  0
 18 37  1  0
 19 38  1  1
 20 39  1  0
 21 40  1  0
 22 41  1  0
 22 42  1  0
 23 43  1  0
 23 44  1  0
 25 45  1  0
 26 46  1  0
 27 47  1  0
 28 48  1  0
 29 49  1  0
M  END
>  <Score>  (1) 
-7.50508

>  <Score_dual>  (1) 
-7.19

>  <Choices>  (1) 
[None, 6, ['37-16', 135], 19, ['4-9', 270], 19, ['14-13', 195], 38, ['1-19', 345]]

$$$$
