
     RDKit          3D

 45 49  0  0  0  0  0  0  0  0999 V2000
   40.9540   83.6920   60.5080 C   0  0  0  0  0  0  0  0  0  0  0  0
   41.2170   82.3220   60.5130 C   0  0  0  0  0  0  0  0  0  0  0  0
   40.4200   81.4380   61.2490 C   0  0  0  0  0  0  0  0  0  0  0  0
   39.4000   81.9720   61.9420 N   0  0  0  0  0  0  0  0  0  0  0  0
   39.1290   83.2840   61.9510 C   0  0  0  0  0  0  0  0  0  0  0  0
   39.8950   84.1250   61.2460 N   0  0  0  0  0  0  0  0  0  0  0  0
   41.6200   84.7450   59.8240 C   0  0  0  0  0  0  0  0  0  0  0  0
   41.0200   85.2040   58.6260 C   0  0  0  0  0  0  0  0  0  0  0  0
   41.5210   86.2190   57.8240 C   0  0  0  0  0  0  0  0  0  0  0  0
   42.6740   86.8350   58.1930 C   0  0  0  0  0  0  0  0  0  0  0  0
   43.2920   86.4350   59.3330 C   0  0  0  0  0  0  0  0  0  0  0  0
   44.4780   87.0590   59.7240 C   0  0  0  0  0  0  0  0  0  0  0  0
   45.1730   86.7130   60.8690 C   0  0  0  0  0  0  0  0  0  0  0  0
   44.5960   85.6780   61.6200 C   0  0  0  0  0  0  0  0  0  0  0  0
   43.4350   85.0780   61.2260 C   0  0  0  0  0  0  0  0  0  0  0  0
   42.7750   85.4300   60.1070 C   0  0  0  0  0  0  0  0  0  0  0  0
   40.7520   80.0520   61.1980 C   0  0  0  0  0  0  0  0  0  0  0  0
   41.3890   79.4260   62.1020 O   0  0  0  0  0  0  0  0  0  0  0  0
   39.9360   77.5340   61.8180 F   0  0  0  0  0  0  0  0  0  0  0  0
   39.9830   77.9310   60.5180 C   0  0  0  0  0  0  0  0  0  0  0  0
   40.3900   79.1910   60.0800 C   0  0  0  0  0  0  0  0  0  0  0  0
   40.4050   79.4620   58.7310 C   0  0  0  0  0  0  0  0  0  0  0  0
   40.0190   78.4860   57.8510 C   0  0  0  0  0  0  0  0  0  0  0  0
   39.6160   77.2430   58.2790 C   0  0  0  0  0  0  0  0  0  0  0  0
   39.5950   76.9510   59.6530 C   0  0  0  0  0  0  0  0  0  0  0  0
   39.1550   75.6140   60.0160 C   0  0  0  0  0  0  0  0  0  0  0  0
   39.8450   74.4510   60.2780 C   0  0  0  0  0  0  0  0  0  0  0  0
   38.9940   73.4160   60.5840 C   0  0  0  0  0  0  0  0  0  0  0  0
   37.7810   73.9800   60.5000 N   0  0  0  0  0  0  0  0  0  0  0  0
   37.8680   75.2560   60.1700 N   0  0  0  0  0  0  0  0  0  0  0  0
   42.0635   81.9307   59.9297 H   0  0  0  0  0  0  0  0  0  0  0  0
   38.2802   83.6685   62.5356 H   0  0  0  0  0  0  0  0  0  0  0  0
   40.0857   84.7188   58.3072 H   0  0  0  0  0  0  0  0  0  0  0  0
   40.9943   86.5194   56.9062 H   0  0  0  0  0  0  0  0  0  0  0  0
   43.0988   87.6430   57.5792 H   0  0  0  0  0  0  0  0  0  0  0  0
   44.8791   87.8645   59.0913 H   0  0  0  0  0  0  0  0  0  0  0  0
   46.1069   87.2115   61.1678 H   0  0  0  0  0  0  0  0  0  0  0  0
   45.0890   85.3434   62.5447 H   0  0  0  0  0  0  0  0  0  0  0  0
   43.0210   84.2721   61.8498 H   0  0  0  0  0  0  0  0  0  0  0  0
   40.7227   80.4492   58.3643 H   0  0  0  0  0  0  0  0  0  0  0  0
   40.0317   78.7024   56.7726 H   0  0  0  0  0  0  0  0  0  0  0  0
   39.3110   76.4797   57.5479 H   0  0  0  0  0  0  0  0  0  0  0  0
   40.9409   74.3617   60.2463 H   0  0  0  0  0  0  0  0  0  0  0  0
   39.2473   72.3758   60.8368 H   0  0  0  0  0  0  0  0  0  0  0  0
   36.8954   73.4826   60.6707 H   0  0  0  0  0  0  0  0  0  0  0  0
  1  2  2  0
  1  6  1  0
  2  3  1  0
  3  4  2  0
  4  5  1  0
  6  5  2  0
  7 16  1  0
  7  1  1  0
  8  7  2  0
  9 10  2  0
  9  8  1  0
 10 11  1  0
 11 12  1  0
 11 16  2  0
 12 13  2  0
 13 14  1  0
 15 14  2  0
 16 15  1  0
 17  3  1  0
 17 18  2  0
 20 19  1  0
 21 20  2  0
 21 17  1  0
 22 21  1  0
 23 24  1  0
 23 22  2  0
 24 25  2  0
 25 26  1  0
 25 20  1  0
 26 30  2  0
 26 27  1  0
 27 28  2  0
 29 28  1  0
 30 29  1  0
  2 31  1  0
  5 32  1  0
  8 33  1  0
  9 34  1  0
 10 35  1  0
 12 36  1  0
 13 37  1  0
 14 38  1  0
 15 39  1  0
 22 40  1  0
 23 41  1  0
 24 42  1  0
 27 43  1  0
 28 44  1  0
 29 45  1  0
M  END
>  <Score>  (1) 
-7.46308

>  <Score_dual>  (1) 
-8.23

>  <Choices>  (1) 
[None, 8, ['5-9', 180], 8, ['26-25', 345], 27, ['9-4', 240], 37, ['22-7', 345]]

$$$$
