
     RDKit          3D

 45 48  0  0  0  0  0  0  0  0999 V2000
   43.2140   82.4710   62.3930 C   0  0  0  0  0  0  0  0  0  0  0  0
   44.0790   83.1980   63.1880 C   0  0  0  0  0  0  0  0  0  0  0  0
   45.2920   82.5840   63.5010 C   0  0  0  0  0  0  0  0  0  0  0  0
   45.5380   81.3500   63.0190 N   0  0  0  0  0  0  0  0  0  0  0  0
   44.6400   80.6880   62.2380 C   0  0  0  0  0  0  0  0  0  0  0  0
   43.4620   81.2530   61.9200 N   0  0  0  0  0  0  0  0  0  0  0  0
   41.9150   83.0060   61.9970 N   0  0  0  0  0  0  0  0  0  0  0  0
   41.9970   83.7410   60.8140 C   0  0  0  0  0  0  0  0  0  0  0  0
   40.8960   84.3320   60.2610 C   0  0  0  0  0  0  0  0  0  0  0  0
   39.6870   84.1830   60.9070 C   0  0  0  0  0  0  0  0  0  0  0  0
   38.6450   84.7100   60.4350 O   0  0  0  0  0  0  0  0  0  0  0  0
   39.6580   83.4800   62.0220 N   0  0  0  0  0  0  0  0  0  0  0  0
   40.7220   82.8970   62.5740 C   0  0  0  0  0  0  0  0  0  0  0  0
   40.7810   82.2330   63.5980 O   0  0  0  0  0  0  0  0  0  0  0  0
   40.9730   85.1190   59.0000 C   0  0  0  0  0  0  0  0  0  0  0  0
   39.8930   86.0160   58.9260 F   0  0  0  0  0  0  0  0  0  0  0  0
   42.1080   85.8890   58.9230 F   0  0  0  0  0  0  0  0  0  0  0  0
   40.9730   84.3000   57.8940 F   0  0  0  0  0  0  0  0  0  0  0  0
   44.9440   79.3600   61.7380 C   0  0  0  0  0  0  0  0  0  0  0  0
   45.0570   79.0800   60.5190 O   0  0  0  0  0  0  0  0  0  0  0  0
   47.2660   78.9500   63.2260 F   0  0  0  0  0  0  0  0  0  0  0  0
   46.2850   78.0550   63.4210 C   0  0  0  0  0  0  0  0  0  0  0  0
   45.1390   78.2480   62.6940 C   0  0  0  0  0  0  0  0  0  0  0  0
   44.0670   77.3760   62.8240 C   0  0  0  0  0  0  0  0  0  0  0  0
   44.1170   76.2780   63.6960 C   0  0  0  0  0  0  0  0  0  0  0  0
   45.2910   76.1430   64.3950 C   0  0  0  0  0  0  0  0  0  0  0  0
   46.3750   76.9930   64.2860 C   0  0  0  0  0  0  0  0  0  0  0  0
   48.5310   75.0720   63.2930 Cl  0  0  0  0  0  0  0  0  0  0  0  0
   48.6790   75.9840   64.7750 C   0  0  0  0  0  0  0  0  0  0  0  0
   47.6000   76.7980   65.0540 C   0  0  0  0  0  0  0  0  0  0  0  0
   47.5990   77.5710   66.2030 C   0  0  0  0  0  0  0  0  0  0  0  0
   48.6870   77.5290   67.0780 C   0  0  0  0  0  0  0  0  0  0  0  0
   49.7650   76.7140   66.7970 C   0  0  0  0  0  0  0  0  0  0  0  0
   49.7490   75.9460   65.6420 C   0  0  0  0  0  0  0  0  0  0  0  0
   43.8256   84.2041   63.5535 H   0  0  0  0  0  0  0  0  0  0  0  0
   46.0340   83.0979   64.1298 H   0  0  0  0  0  0  0  0  0  0  0  0
   42.9713   83.8473   60.3145 H   0  0  0  0  0  0  0  0  0  0  0  0
   38.7513   83.3741   62.4991 H   0  0  0  0  0  0  0  0  0  0  0  0
   43.1577   77.5497   62.2299 H   0  0  0  0  0  0  0  0  0  0  0  0
   43.2773   75.5768   63.8112 H   0  0  0  0  0  0  0  0  0  0  0  0
   45.3748   75.2966   65.0926 H   0  0  0  0  0  0  0  0  0  0  0  0
   46.7393   78.2196   66.4272 H   0  0  0  0  0  0  0  0  0  0  0  0
   48.6847   78.1445   67.9897 H   0  0  0  0  0  0  0  0  0  0  0  0
   50.6260   76.6740   67.4804 H   0  0  0  0  0  0  0  0  0  0  0  0
   50.6059   75.2950   65.4143 H   0  0  0  0  0  0  0  0  0  0  0  0
  1  2  2  0
  2  3  1  0
  4  3  2  0
  5  4  1  0
  6  5  2  0
  6  1  1  0
  7  1  1  0
  7 13  1  0
  8  7  1  0
  9  8  2  0
  9 10  1  0
 10 12  1  0
 11 10  2  0
 12 13  1  0
 13 14  2  0
 15  9  1  0
 16 15  1  0
 17 15  1  0
 18 15  1  0
 19  5  1  0
 19 23  1  0
 20 19  2  0
 21 22  1  0
 22 27  2  0
 23 24  2  0
 23 22  1  0
 24 25  1  0
 25 26  2  0
 27 26  1  0
 27 30  1  0
 28 29  1  0
 29 30  2  0
 29 34  1  0
 30 31  1  0
 31 32  2  0
 33 32  1  0
 34 33  2  0
  2 35  1  0
  3 36  1  0
  8 37  1  0
 12 38  1  0
 24 39  1  0
 25 40  1  0
 26 41  1  0
 31 42  1  0
 32 43  1  0
 33 44  1  0
 34 45  1  0
M  END
>  <Score>  (1) 
-7.25704

>  <Score_dual>  (1) 
-7.45

>  <Choices>  (1) 
[None, 6, ['37-16', 135], 15, ['11-10', 135], 22, ['5-7', 30], 24, ['9-4', 330], 34, ['7-16', 165]]

$$$$
