
     RDKit          3D

 49 53  0  0  0  0  0  0  0  0999 V2000
   43.7520   82.9610   62.2750 C   0  0  0  0  0  0  0  0  0  0  0  0
   44.8660   82.3480   62.8200 C   0  0  0  0  0  0  0  0  0  0  0  0
   46.0930   83.0510   62.7210 C   0  0  0  0  0  0  0  0  0  0  0  0
   46.1130   84.2650   62.1110 N   0  0  0  0  0  0  0  0  0  0  0  0
   45.0100   84.8130   61.6020 C   0  0  0  0  0  0  0  0  0  0  0  0
   43.8590   84.1550   61.6930 N   0  0  0  0  0  0  0  0  0  0  0  0
   44.8480   86.1040   60.9150 C   0  0  0  0  0  0  0  0  0  0  0  0
   44.3680   87.2560   61.5480 C   0  0  0  0  0  0  0  0  0  0  0  0
   44.2080   88.4720   60.9290 C   0  0  0  0  0  0  0  0  0  0  0  0
   44.5260   88.6110   59.6050 C   0  0  0  0  0  0  0  0  0  0  0  0
   44.9990   87.5290   58.9230 C   0  0  0  0  0  0  0  0  0  0  0  0
   45.3130   87.6890   57.5920 C   0  0  0  0  0  0  0  0  0  0  0  0
   45.7950   86.6430   56.8440 C   0  0  0  0  0  0  0  0  0  0  0  0
   45.9470   85.4250   57.4910 C   0  0  0  0  0  0  0  0  0  0  0  0
   45.6230   85.3090   58.8200 C   0  0  0  0  0  0  0  0  0  0  0  0
   45.1440   86.3270   59.5870 C   0  0  0  0  0  0  0  0  0  0  0  0
   42.4630   82.2990   62.3400 C   0  0  0  0  0  0  0  0  0  0  0  0
   41.3540   82.6610   63.0360 C   0  0  0  0  0  0  0  0  0  0  0  0
   40.3930   81.7460   62.7960 N   0  0  0  0  0  0  0  0  0  0  0  0
   40.8890   80.8050   61.9500 C   0  0  0  0  0  0  0  0  0  0  0  0
   42.1360   81.1490   61.6840 N   0  0  0  0  0  0  0  0  0  0  0  0
   40.1700   79.6170   61.4260 C   0  0  0  0  0  0  0  0  0  0  0  0
   40.4020   79.4030   59.9370 C   0  0  0  0  0  0  0  0  0  0  0  0
   40.0360   77.9580   59.7710 C   0  0  0  0  0  0  0  0  0  0  0  0
   40.3100   77.2660   61.0740 C   0  0  0  0  0  0  0  0  0  0  0  0
   40.6340   78.3500   62.0990 C   0  0  0  0  0  0  0  0  0  0  0  0
   41.2700   83.8790   63.9040 C   0  0  0  0  0  0  0  0  0  0  0  0
   42.4330   83.9950   64.6730 F   0  0  0  0  0  0  0  0  0  0  0  0
   41.0720   85.0240   63.1890 F   0  0  0  0  0  0  0  0  0  0  0  0
   40.2280   83.7690   64.7980 F   0  0  0  0  0  0  0  0  0  0  0  0
   44.8028   81.3634   63.3063 H   0  0  0  0  0  0  0  0  0  0  0  0
   47.0171   82.6192   63.1328 H   0  0  0  0  0  0  0  0  0  0  0  0
   44.1009   87.1830   62.6126 H   0  0  0  0  0  0  0  0  0  0  0  0
   43.8248   89.3328   61.4967 H   0  0  0  0  0  0  0  0  0  0  0  0
   44.4020   89.5799   59.0992 H   0  0  0  0  0  0  0  0  0  0  0  0
   45.1753   88.6726   57.1192 H   0  0  0  0  0  0  0  0  0  0  0  0
   46.0489   86.7652   55.7807 H   0  0  0  0  0  0  0  0  0  0  0  0
   46.3270   84.5526   56.9392 H   0  0  0  0  0  0  0  0  0  0  0  0
   45.7596   84.3275   59.2975 H   0  0  0  0  0  0  0  0  0  0  0  0
   39.4409   81.7582   63.1887 H   0  0  0  0  0  0  0  0  0  0  0  0
   39.1078   79.8199   61.6272 H   0  0  0  0  0  0  0  0  0  0  0  0
   39.7510   80.0524   59.3333 H   0  0  0  0  0  0  0  0  0  0  0  0
   41.4236   79.6433   59.6075 H   0  0  0  0  0  0  0  0  0  0  0  0
   38.9697   77.8684   59.5161 H   0  0  0  0  0  0  0  0  0  0  0  0
   40.6242   77.5019   58.9611 H   0  0  0  0  0  0  0  0  0  0  0  0
   39.4238   76.6979   61.3931 H   0  0  0  0  0  0  0  0  0  0  0  0
   41.1472   76.5596   60.9735 H   0  0  0  0  0  0  0  0  0  0  0  0
   41.7139   78.3866   62.3053 H   0  0  0  0  0  0  0  0  0  0  0  0
   40.1509   78.1789   63.0723 H   0  0  0  0  0  0  0  0  0  0  0  0
  1 17  1  0
  1  2  2  0
  3  2  1  0
  4  3  2  0
  5  6  2  0
  5  4  1  0
  6  1  1  0
  7  8  2  0
  7  5  1  0
  9  8  1  0
 10  9  2  0
 11 16  2  0
 11 10  1  0
 12 11  1  0
 13 14  1  0
 13 12  2  0
 14 15  2  0
 15 16  1  0
 16  7  1  0
 17 18  2  0
 18 27  1  0
 19 18  1  0
 20 19  1  0
 21 20  2  0
 21 17  1  0
 22 20  1  0
 22 26  1  0
 23 22  1  0
 24 23  1  0
 24 25  1  0
 25 26  1  0
 27 28  1  0
 27 30  1  0
 29 27  1  0
  2 31  1  0
  3 32  1  0
  8 33  1  0
  9 34  1  0
 10 35  1  0
 12 36  1  0
 13 37  1  0
 14 38  1  0
 15 39  1  0
 19 40  1  0
 22 41  1  0
 23 42  1  0
 23 43  1  0
 24 44  1  0
 24 45  1  0
 25 46  1  0
 25 47  1  0
 26 48  1  0
 26 49  1  0
M  END
>  <Score>  (1) 
-7.01541

>  <Score_dual>  (1) 
-7.4

>  <Choices>  (1) 
[None, 6, ['23-9', 180], 14, ['11-11', 315], 19, ['26-23', 75], 35, ['31-25', 15]]

$$$$
