
     RDKit          3D

 42 45  0  0  0  0  0  0  0  0999 V2000
   39.7280   81.0380   58.1590 F   0  0  0  0  0  0  0  0  0  0  0  0
   40.5600   81.8780   57.5130 C   0  0  0  0  0  0  0  0  0  0  0  0
   41.0160   82.9970   58.1840 C   0  0  0  0  0  0  0  0  0  0  0  0
   41.8610   83.8390   57.5130 C   0  0  0  0  0  0  0  0  0  0  0  0
   42.2200   83.5510   56.2210 C   0  0  0  0  0  0  0  0  0  0  0  0
   41.7570   82.4300   55.5620 C   0  0  0  0  0  0  0  0  0  0  0  0
   40.9080   81.5620   56.2030 C   0  0  0  0  0  0  0  0  0  0  0  0
   39.5960   84.1470   59.8710 C   0  0  0  0  0  0  0  0  0  0  0  0
   40.6000   83.2520   59.5640 C   0  0  0  0  0  0  0  0  0  0  0  0
   41.2640   82.5420   60.6130 C   0  0  0  0  0  0  0  0  0  0  0  0
   40.8370   82.8160   61.8800 N   0  0  0  0  0  0  0  0  0  0  0  0
   39.8630   83.6880   62.1540 C   0  0  0  0  0  0  0  0  0  0  0  0
   39.2440   84.3510   61.1550 N   0  0  0  0  0  0  0  0  0  0  0  0
   40.6880   84.0380   64.3360 C   0  0  0  0  0  0  0  0  0  0  0  0
   41.8950   84.0040   63.9760 O   0  0  0  0  0  0  0  0  0  0  0  0
   39.5000   83.8940   63.5340 N   0  0  0  0  0  0  0  0  0  0  0  0
   40.4060   80.3830   55.5420 C   0  0  0  0  0  0  0  0  0  0  0  0
   41.0070   79.9780   54.4960 O   0  0  0  0  0  0  0  0  0  0  0  0
   36.9160   79.1600   56.1560 N   0  0  0  0  0  0  0  0  0  0  0  0
   37.9350   79.9220   55.7380 C   0  0  0  0  0  0  0  0  0  0  0  0
   39.2620   79.6030   55.9660 C   0  0  0  0  0  0  0  0  0  0  0  0
   39.4710   78.4160   56.6700 C   0  0  0  0  0  0  0  0  0  0  0  0
   40.6450   78.0840   56.9010 O   0  0  0  0  0  0  0  0  0  0  0  0
   38.4290   77.6860   57.0690 N   0  0  0  0  0  0  0  0  0  0  0  0
   37.1390   78.0210   56.8320 C   0  0  0  0  0  0  0  0  0  0  0  0
   36.1480   77.3480   57.1990 O   0  0  0  0  0  0  0  0  0  0  0  0
   38.6220   76.4550   57.7990 C   0  0  0  0  0  0  0  0  0  0  0  0
   38.6070   76.4370   59.2720 C   0  0  0  0  0  0  0  0  0  0  0  0
   38.8800   74.7310   59.6670 S   0  0  0  0  0  0  0  0  0  0  0  0
   38.9790   74.2500   57.8290 C   0  0  0  0  0  0  0  0  0  0  0  0
   38.8230   75.2490   57.2990 N   0  0  0  0  0  0  0  0  0  0  0  0
   42.2500   84.7415   58.0071 H   0  0  0  0  0  0  0  0  0  0  0  0
   42.8993   84.2360   55.6925 H   0  0  0  0  0  0  0  0  0  0  0  0
   42.0676   82.2325   54.5254 H   0  0  0  0  0  0  0  0  0  0  0  0
   39.0827   84.6943   59.0667 H   0  0  0  0  0  0  0  0  0  0  0  0
   42.0689   81.8199   60.4112 H   0  0  0  0  0  0  0  0  0  0  0  0
   40.5180   84.1999   65.4107 H   0  0  0  0  0  0  0  0  0  0  0  0
   38.5353   83.9325   63.8929 H   0  0  0  0  0  0  0  0  0  0  0  0
   35.9484   79.4513   55.9564 H   0  0  0  0  0  0  0  0  0  0  0  0
   37.7060   80.8460   55.1869 H   0  0  0  0  0  0  0  0  0  0  0  0
   38.4611   77.2811   59.9621 H   0  0  0  0  0  0  0  0  0  0  0  0
   39.1452   73.2565   57.3870 H   0  0  0  0  0  0  0  0  0  0  0  0
  2  1  1  0
  2  3  2  0
  3  9  1  0
  4  3  1  0
  5  4  2  0
  6  7  2  0
  6  5  1  0
  7  2  1  0
  8 13  2  0
  9  8  1  0
  9 10  2  0
 10 11  1  0
 11 12  2  0
 12 16  1  0
 13 12  1  0
 15 14  2  0
 16 14  1  0
 17 21  1  0
 17  7  1  0
 18 17  2  0
 19 25  1  0
 20 21  2  0
 20 19  1  0
 21 22  1  0
 22 23  2  0
 22 24  1  0
 24 27  1  0
 25 24  1  0
 25 26  2  0
 27 28  2  0
 28 29  1  0
 30 29  1  0
 31 27  1  0
 31 30  2  0
  4 32  1  0
  5 33  1  0
  6 34  1  0
  8 35  1  0
 10 36  1  0
 14 37  1  0
 16 38  1  0
 19 39  1  0
 20 40  1  0
 28 41  1  0
 30 42  1  0
M  END
>  <Score>  (1) 
-7.42876

>  <Score_dual>  (1) 
-8.03

>  <Choices>  (1) 
[None, 7, ['9-20', 150], 15, ['12-5', 135], 23, ['5-8', 300], 25, ['37-17', 165], 35, ['33-12', 210]]

$$$$
