
     RDKit          3D

 45 50  0  0  0  0  0  0  0  0999 V2000
   42.4510   81.0180   60.5730 C   0  0  0  0  0  0  0  0  0  0  0  0
   42.2770   82.0680   61.4170 C   0  0  0  0  0  0  0  0  0  0  0  0
   43.2400   82.3230   62.3880 C   0  0  0  0  0  0  0  0  0  0  0  0
   44.3770   81.5040   62.4920 C   0  0  0  0  0  0  0  0  0  0  0  0
   45.4370   81.5150   63.3100 N   0  0  0  0  0  0  0  0  0  0  0  0
   46.2520   80.5030   62.9890 C   0  0  0  0  0  0  0  0  0  0  0  0
   45.6860   79.8560   61.9560 N   0  0  0  0  0  0  0  0  0  0  0  0
   44.5200   80.4390   61.6110 C   0  0  0  0  0  0  0  0  0  0  0  0
   43.5570   80.1810   60.6380 C   0  0  0  0  0  0  0  0  0  0  0  0
   39.7550   84.5980   60.2620 C   0  0  0  0  0  0  0  0  0  0  0  0
   40.9640   83.8830   60.3040 C   0  0  0  0  0  0  0  0  0  0  0  0
   41.0770   82.8860   61.2640 C   0  0  0  0  0  0  0  0  0  0  0  0
   40.0440   82.6590   62.0890 N   0  0  0  0  0  0  0  0  0  0  0  0
   38.8880   83.3580   62.0340 C   0  0  0  0  0  0  0  0  0  0  0  0
   38.7330   84.3390   61.1150 N   0  0  0  0  0  0  0  0  0  0  0  0
   41.5600   80.6740   59.5740 O   0  0  0  0  0  0  0  0  0  0  0  0
   40.1270   79.1380   58.4130 C   0  0  0  0  0  0  0  0  0  0  0  0
   40.8270   79.5250   59.5260 C   0  0  0  0  0  0  0  0  0  0  0  0
   40.7530   78.6690   60.6400 C   0  0  0  0  0  0  0  0  0  0  0  0
   40.0080   77.5080   60.5830 C   0  0  0  0  0  0  0  0  0  0  0  0
   39.7650   76.5200   61.4840 N   0  0  0  0  0  0  0  0  0  0  0  0
   38.9790   75.6120   60.9460 N   0  0  0  0  0  0  0  0  0  0  0  0
   38.6920   75.9980   59.6660 C   0  0  0  0  0  0  0  0  0  0  0  0
   39.3340   77.1870   59.4310 C   0  0  0  0  0  0  0  0  0  0  0  0
   39.3850   78.0010   58.3270 C   0  0  0  0  0  0  0  0  0  0  0  0
   38.6540   77.6190   57.1280 C   0  0  0  0  0  0  0  0  0  0  0  0
   37.2840   77.7090   57.0260 C   0  0  0  0  0  0  0  0  0  0  0  0
   36.5510   77.3580   55.9050 C   0  0  0  0  0  0  0  0  0  0  0  0
   37.2230   76.8920   54.8320 N   0  0  0  0  0  0  0  0  0  0  0  0
   38.5640   76.7910   54.9000 C   0  0  0  0  0  0  0  0  0  0  0  0
   39.2100   77.1440   56.0010 N   0  0  0  0  0  0  0  0  0  0  0  0
   43.1107   83.1700   63.0778 H   0  0  0  0  0  0  0  0  0  0  0  0
   45.5995   82.1947   64.0666 H   0  0  0  0  0  0  0  0  0  0  0  0
   47.2042   80.2491   63.4778 H   0  0  0  0  0  0  0  0  0  0  0  0
   43.6696   79.3378   59.9407 H   0  0  0  0  0  0  0  0  0  0  0  0
   39.6336   85.3940   59.5126 H   0  0  0  0  0  0  0  0  0  0  0  0
   41.7855   84.1036   59.6065 H   0  0  0  0  0  0  0  0  0  0  0  0
   38.0732   83.1291   62.7366 H   0  0  0  0  0  0  0  0  0  0  0  0
   40.1680   79.7913   57.5290 H   0  0  0  0  0  0  0  0  0  0  0  0
   41.2927   78.9266   61.5632 H   0  0  0  0  0  0  0  0  0  0  0  0
   40.1394   76.4869   62.4430 H   0  0  0  0  0  0  0  0  0  0  0  0
   38.0586   75.4518   58.9515 H   0  0  0  0  0  0  0  0  0  0  0  0
   36.7315   78.0873   57.8987 H   0  0  0  0  0  0  0  0  0  0  0  0
   35.4555   77.4560   55.8898 H   0  0  0  0  0  0  0  0  0  0  0  0
   39.1273   76.4124   54.0344 H   0  0  0  0  0  0  0  0  0  0  0  0
  1  9  2  0
  1  2  1  0
  2  3  2  0
  3  4  1  0
  4  5  1  0
  6  5  1  0
  7  6  2  0
  8  7  1  0
  8  4  2  0
  9  8  1  0
 10 11  2  0
 10 15  1  0
 11 12  1  0
 12  2  1  0
 12 13  2  0
 14 13  1  0
 15 14  2  0
 16  1  1  0
 17 18  2  0
 18 16  1  0
 18 19  1  0
 20 19  2  0
 20 21  1  0
 22 21  1  0
 23 22  2  0
 24 23  1  0
 24 20  1  0
 25 17  1  0
 25 24  2  0
 26 25  1  0
 27 26  2  0
 28 27  1  0
 29 30  1  0
 29 28  2  0
 30 31  2  0
 31 26  1  0
  3 32  1  0
  5 33  1  0
  6 34  1  0
  9 35  1  0
 10 36  1  0
 11 37  1  0
 14 38  1  0
 17 39  1  0
 19 40  1  0
 21 41  1  0
 23 42  1  0
 27 43  1  0
 28 44  1  0
 30 45  1  0
M  END
>  <Score>  (1) 
-7.55919

>  <Score_dual>  (1) 
-7.09

>  <Choices>  (1) 
[None, 8, ['34-23', 60], 15, ['2-1', 0], 23, ['54-21', 15], 36, ['19-21', 225]]

$$$$
