
     RDKit          3D

 42 46  0  0  1  0  0  0  0  0999 V2000
   40.1910   78.3760   60.3980 C   0  0  0  0  0  0  0  0  0  0  0  0
   39.9280   77.4300   59.4230 C   0  0  0  0  0  0  0  0  0  0  0  0
   39.8430   76.2330   60.1810 C   0  0  0  0  0  0  0  0  0  0  0  0
   40.0480   76.4840   61.5130 N   0  0  0  0  0  0  0  0  0  0  0  0
   40.2590   77.7930   61.6290 N   0  0  0  0  0  0  0  0  0  0  0  0
   39.7430   77.5040   58.0280 N   0  0  0  0  0  0  0  0  0  0  0  0
   40.6700   77.6390   57.0520 C   0  0  0  0  0  0  0  0  0  0  0  0
   40.0810   77.7040   55.8430 N   0  0  0  0  0  0  0  0  0  0  0  0
   38.7320   77.6120   55.9840 C   0  0  0  0  0  0  0  0  0  0  0  0
   37.6260   77.6800   55.2040 C   0  0  2  0  0  0  0  0  0  0  0  0
   36.4210   77.2820   55.7000 N   0  0  0  0  0  0  0  0  0  0  0  0
   36.2350   77.1460   57.0120 C   0  0  0  0  0  0  0  0  0  0  0  0
   37.3090   77.2600   57.7890 N   0  0  0  0  0  0  0  0  0  0  0  0
   38.5460   77.4840   57.3420 C   0  0  0  0  0  0  0  0  0  0  0  0
   37.8640   77.4380   53.8100 N   0  0  0  0  0  0  0  0  0  0  0  0
   40.2540   81.6760   58.7560 C   0  0  0  0  0  0  0  0  0  0  0  0
   40.1360   80.3190   58.9810 C   0  0  0  0  0  0  0  0  0  0  0  0
   40.3470   79.7780   60.2030 C   0  0  0  0  0  0  0  0  0  0  0  0
   40.6920   80.6370   61.2280 N   0  0  0  0  0  0  0  0  0  0  0  0
   40.8170   81.9830   61.0290 C   0  0  0  0  0  0  0  0  0  0  0  0
   40.5980   82.5010   59.7990 N   0  0  0  0  0  0  0  0  0  0  0  0
   43.5050   82.6840   61.5820 F   0  0  0  0  0  0  0  0  0  0  0  0
   42.5250   83.1080   62.3870 C   0  0  0  0  0  0  0  0  0  0  0  0
   41.1920   82.8140   62.1920 C   0  0  0  0  0  0  0  0  0  0  0  0
   40.1630   83.2380   63.0050 C   0  0  0  0  0  0  0  0  0  0  0  0
   40.4750   84.0210   64.1080 C   0  0  0  0  0  0  0  0  0  0  0  0
   41.7940   84.3460   64.3500 C   0  0  0  0  0  0  0  0  0  0  0  0
   42.7890   83.8950   63.5040 C   0  0  0  0  0  0  0  0  0  0  0  0
   39.6401   75.2385   59.7570 H   0  0  0  0  0  0  0  0  0  0  0  0
   40.0402   75.7929   62.2767 H   0  0  0  0  0  0  0  0  0  0  0  0
   41.7555   77.6888   57.2226 H   0  0  0  0  0  0  0  0  0  0  0  0
   37.4199   78.7584   55.2715 H   0  0  0  0  0  0  0  0  0  0  0  0
   35.2385   76.9484   57.4339 H   0  0  0  0  0  0  0  0  0  0  0  0
   37.1763   77.1690   58.8063 H   0  0  0  0  0  0  0  0  0  0  0  0
   38.5825   76.7074   53.7062 H   0  0  0  0  0  0  0  0  0  0  0  0
   36.9906   77.1268   53.3615 H   0  0  0  0  0  0  0  0  0  0  0  0
   40.0747   82.0916   57.7534 H   0  0  0  0  0  0  0  0  0  0  0  0
   39.8630   79.6597   58.1439 H   0  0  0  0  0  0  0  0  0  0  0  0
   39.1208   82.9629   62.7854 H   0  0  0  0  0  0  0  0  0  0  0  0
   39.6809   84.3778   64.7804 H   0  0  0  0  0  0  0  0  0  0  0  0
   42.0544   84.9667   65.2200 H   0  0  0  0  0  0  0  0  0  0  0  0
   43.8317   84.1690   63.7222 H   0  0  0  0  0  0  0  0  0  0  0  0
  1  5  2  0
  2  3  2  0
  2  1  1  0
  3  4  1  0
  4  5  1  0
  6  2  1  0
  7  6  1  0
  8  9  1  0
  8  7  2  0
  9 14  2  0
 10 11  1  0
 10  9  1  0
 11 12  2  0
 12 13  1  0
 14 13  1  0
 14  6  1  0
 15 10  1  0
 16 17  2  0
 16 21  1  0
 17 18  1  0
 18  1  1  0
 18 19  2  0
 20 19  1  0
 20 24  1  0
 21 20  2  0
 22 23  1  0
 23 28  2  0
 24 23  1  0
 24 25  2  0
 25 26  1  0
 26 27  2  0
 28 27  1  0
  3 29  1  0
  4 30  1  0
  7 31  1  0
 10 32  1  6
 12 33  1  0
 13 34  1  0
 15 35  1  0
 15 36  1  0
 16 37  1  0
 17 38  1  0
 25 39  1  0
 26 40  1  0
 27 41  1  0
 28 42  1  0
M  END
>  <Score>  (1) 
-7.24296

>  <Score_dual>  (1) 
-7.14

>  <Choices>  (1) 
[None, 8, ['22-8', 225], 14, ['28-8', 105], 31, ['9-18', 270]]

$$$$
