
     RDKit          3D

 44 47  0  0  0  0  0  0  0  0999 V2000
   41.1430   79.5570   61.5090 C   0  0  0  0  0  0  0  0  0  0  0  0
   42.4710   79.1120   61.6900 C   0  0  0  0  0  0  0  0  0  0  0  0
   42.7460   77.7540   61.3730 C   0  0  0  0  0  0  0  0  0  0  0  0
   41.7010   76.9950   60.9170 N   0  0  0  0  0  0  0  0  0  0  0  0
   40.4780   77.4710   60.7700 C   0  0  0  0  0  0  0  0  0  0  0  0
   40.1620   78.7720   61.0630 N   0  0  0  0  0  0  0  0  0  0  0  0
   40.9050   80.9410   61.8450 C   0  0  0  0  0  0  0  0  0  0  0  0
   41.7810   81.8380   62.4150 C   0  0  0  0  0  0  0  0  0  0  0  0
   41.1160   83.0230   62.5420 N   0  0  0  0  0  0  0  0  0  0  0  0
   39.8650   82.8870   62.0720 C   0  0  0  0  0  0  0  0  0  0  0  0
   39.7360   81.6260   61.6490 N   0  0  0  0  0  0  0  0  0  0  0  0
   38.8730   83.9070   62.0390 N   0  0  0  0  0  0  0  0  0  0  0  0
   41.7550   84.1910   63.1130 C   0  0  0  0  0  0  0  0  0  0  0  0
   40.9050   84.9410   63.8930 F   0  0  0  0  0  0  0  0  0  0  0  0
   42.2540   85.0310   62.1190 F   0  0  0  0  0  0  0  0  0  0  0  0
   42.7990   83.7480   63.9320 F   0  0  0  0  0  0  0  0  0  0  0  0
   39.4420   76.5790   60.2800 C   0  0  0  0  0  0  0  0  0  0  0  0
   38.7730   75.9240   61.0970 O   0  0  0  0  0  0  0  0  0  0  0  0
   39.3250   75.1280   58.2470 C   0  0  0  0  0  0  0  0  0  0  0  0
   39.0200   76.2980   58.9040 C   0  0  0  0  0  0  0  0  0  0  0  0
   38.2800   77.2090   58.1800 C   0  0  0  0  0  0  0  0  0  0  0  0
   37.8550   76.9930   56.8710 C   0  0  0  0  0  0  0  0  0  0  0  0
   38.1960   75.7850   56.2600 C   0  0  0  0  0  0  0  0  0  0  0  0
   38.9320   74.8580   56.9550 C   0  0  0  0  0  0  0  0  0  0  0  0
   39.2810   73.6250   56.3320 N   0  0  0  0  0  0  0  0  0  0  0  0
   37.7690   75.4990   54.8650 C   0  0  0  0  0  0  0  0  0  0  0  0
   38.5620   75.9930   53.7170 C   0  0  0  0  0  0  0  0  0  0  0  0
   37.2280   76.5780   53.9920 C   0  0  0  0  0  0  0  0  0  0  0  0
   40.7140   73.3210   59.5400 N   0  0  0  0  0  0  0  0  0  0  0  0
   40.1040   74.1240   58.9570 C   0  0  0  0  0  0  0  0  0  0  0  0
   43.2575   79.7863   62.0598 H   0  0  0  0  0  0  0  0  0  0  0  0
   43.7547   77.3308   61.4889 H   0  0  0  0  0  0  0  0  0  0  0  0
   42.8209   81.6371   62.7120 H   0  0  0  0  0  0  0  0  0  0  0  0
   37.9381   83.7040   61.6573 H   0  0  0  0  0  0  0  0  0  0  0  0
   39.0899   84.8482   62.3969 H   0  0  0  0  0  0  0  0  0  0  0  0
   38.0101   78.1596   58.6632 H   0  0  0  0  0  0  0  0  0  0  0  0
   37.2676   77.7525   56.3343 H   0  0  0  0  0  0  0  0  0  0  0  0
   39.8331   72.9253   56.8482 H   0  0  0  0  0  0  0  0  0  0  0  0
   38.9812   73.4334   55.3654 H   0  0  0  0  0  0  0  0  0  0  0  0
   37.4072   74.5151   55.1981 H   0  0  0  0  0  0  0  0  0  0  0  0
   38.7092   75.3522   52.8351 H   0  0  0  0  0  0  0  0  0  0  0  0
   39.5765   76.3995   53.5928 H   0  0  0  0  0  0  0  0  0  0  0  0
   37.1457   77.6062   54.3741 H   0  0  0  0  0  0  0  0  0  0  0  0
   36.3050   76.7211   53.4110 H   0  0  0  0  0  0  0  0  0  0  0  0
  1  2  2  0
  1  7  1  0
  3  2  1  0
  4  3  2  0
  5  4  1  0
  5  6  2  0
  6  1  1  0
  7  8  2  0
  8  9  1  0
  9 13  1  0
 10  9  1  0
 11  7  1  0
 11 10  2  0
 12 10  1  0
 13 14  1  0
 13 16  1  0
 15 13  1  0
 17  5  1  0
 17 18  2  0
 19 20  2  0
 19 30  1  0
 20 17  1  0
 21 20  1  0
 22 21  2  0
 23 22  1  0
 23 24  2  0
 24 19  1  0
 25 24  1  0
 26 23  1  0
 27 28  1  0
 27 26  1  0
 28 26  1  0
 30 29  3  0
  2 31  1  0
  3 32  1  0
  8 33  1  0
 12 34  1  0
 12 35  1  0
 21 36  1  0
 22 37  1  0
 25 38  1  0
 25 39  1  0
 26 40  1  0
 27 41  1  0
 27 42  1  0
 28 43  1  0
 28 44  1  0
M  END
>  <Score>  (1) 
-7.33638

>  <Score_dual>  (1) 
-7.2

>  <Choices>  (1) 
[None, 6, ['23-9', 180], 15, ['11-3', 300], 16, ['0-2', 0], 21, ['5-9', 345], 23, ['40-8', 135], 34, ['0-2', 0], 34, ['16-23', 0]]

$$$$
