
     RDKit          3D

 48 52  0  0  1  0  0  0  0  0999 V2000
   42.4680   75.8120   59.6870 Cl  0  0  0  0  0  0  0  0  0  0  0  0
   43.2100   76.0140   61.2570 C   0  0  0  0  0  0  0  0  0  0  0  0
   43.0110   77.1920   61.8900 C   0  0  0  0  0  0  0  0  0  0  0  0
   43.6280   77.2920   63.1560 C   0  0  0  0  0  0  0  0  0  0  0  0
   44.3820   76.2840   63.7330 C   0  0  0  0  0  0  0  0  0  0  0  0
   44.5330   75.0890   62.9960 C   0  0  0  0  0  0  0  0  0  0  0  0
   43.9380   74.9720   61.7560 C   0  0  0  0  0  0  0  0  0  0  0  0
   39.7360   83.9600   59.9240 C   0  0  0  0  0  0  0  0  0  0  0  0
   40.4290   82.7400   60.0070 C   0  0  0  0  0  0  0  0  0  0  0  0
   40.2730   81.9800   61.1550 C   0  0  0  0  0  0  0  0  0  0  0  0
   39.4650   82.4420   62.1370 N   0  0  0  0  0  0  0  0  0  0  0  0
   38.8090   83.6130   62.0380 C   0  0  0  0  0  0  0  0  0  0  0  0
   38.9500   84.3750   60.9160 N   0  0  0  0  0  0  0  0  0  0  0  0
   40.9470   80.7490   61.2830 N   0  0  0  0  0  0  0  0  0  0  0  0
   42.3720   80.8160   61.5210 C   0  0  0  0  0  0  0  0  0  0  0  0
   43.1060   79.5570   61.5850 C   0  0  0  0  0  0  0  0  0  0  0  0
   42.3100   78.3680   61.3990 C   0  0  2  0  0  0  0  0  0  0  0  0
   40.9160   78.4950   62.0400 C   0  0  0  0  0  0  0  0  0  0  0  0
   40.1980   79.5240   61.1730 C   0  0  0  0  0  0  0  0  0  0  0  0
   44.0840   73.7710   61.0060 N   0  0  0  0  0  0  0  0  0  0  0  0
   45.0930   73.3810   60.1770 C   0  0  0  0  0  0  0  0  0  0  0  0
   44.7870   72.1470   59.6830 N   0  0  0  0  0  0  0  0  0  0  0  0
   43.6180   71.7820   60.1960 C   0  0  0  0  0  0  0  0  0  0  0  0
   42.8000   70.6760   60.0850 C   0  0  1  0  0  0  0  0  0  0  0  0
   41.6230   70.5800   60.7490 N   0  0  0  0  0  0  0  0  0  0  0  0
   41.2010   71.5760   61.5540 C   0  0  0  0  0  0  0  0  0  0  0  0
   41.9850   72.6630   61.6750 N   0  0  0  0  0  0  0  0  0  0  0  0
   43.1490   72.7770   61.0290 C   0  0  0  0  0  0  0  0  0  0  0  0
   43.1740   69.5820   59.2550 N   0  0  0  0  0  0  0  0  0  0  0  0
   43.5019   78.2287   63.7188 H   0  0  0  0  0  0  0  0  0  0  0  0
   44.8438   76.4089   64.7235 H   0  0  0  0  0  0  0  0  0  0  0  0
   45.1216   74.2559   63.4078 H   0  0  0  0  0  0  0  0  0  0  0  0
   39.8447   84.5830   59.0240 H   0  0  0  0  0  0  0  0  0  0  0  0
   41.0758   82.3988   59.1853 H   0  0  0  0  0  0  0  0  0  0  0  0
   38.1615   83.9541   62.8592 H   0  0  0  0  0  0  0  0  0  0  0  0
   42.8837   81.7813   61.6491 H   0  0  0  0  0  0  0  0  0  0  0  0
   44.1908   79.5169   61.7627 H   0  0  0  0  0  0  0  0  0  0  0  0
   42.1529   78.2479   60.3169 H   0  0  0  0  0  0  0  0  0  0  0  0
   40.3876   77.5304   62.0191 H   0  0  0  0  0  0  0  0  0  0  0  0
   40.9641   78.7948   63.0973 H   0  0  0  0  0  0  0  0  0  0  0  0
   39.1700   79.6739   61.5346 H   0  0  0  0  0  0  0  0  0  0  0  0
   40.1375   79.1886   60.1271 H   0  0  0  0  0  0  0  0  0  0  0  0
   45.9984   73.9615   59.9460 H   0  0  0  0  0  0  0  0  0  0  0  0
   43.3176   70.2079   60.9353 H   0  0  0  0  0  0  0  0  0  0  0  0
   40.2459   71.5023   62.0948 H   0  0  0  0  0  0  0  0  0  0  0  0
   41.6774   73.4330   62.2861 H   0  0  0  0  0  0  0  0  0  0  0  0
   43.4474   68.7822   59.8436 H   0  0  0  0  0  0  0  0  0  0  0  0
   42.3769   69.3140   58.6603 H   0  0  0  0  0  0  0  0  0  0  0  0
  1  2  1  0
  2  7  2  0
  2  3  1  0
  3  4  2  0
  4  5  1  0
  6  5  2  0
  7  6  1  0
  8  9  2  0
  8 13  1  0
  9 10  1  0
 10 14  1  0
 10 11  2  0
 12 11  1  0
 13 12  2  0
 14 15  1  0
 15 16  2  0
 17 16  1  0
 17  3  1  0
 17 18  1  0
 19 14  1  0
 19 18  1  0
 20 28  1  0
 20  7  1  0
 21 20  1  0
 22 21  2  0
 22 23  1  0
 23 28  2  0
 24 29  1  0
 24 23  1  0
 24 25  1  0
 25 26  2  0
 26 27  1  0
 28 27  1  0
  4 30  1  0
  5 31  1  0
  6 32  1  0
  8 33  1  0
  9 34  1  0
 12 35  1  0
 15 36  1  0
 16 37  1  0
 17 38  1  6
 18 39  1  0
 18 40  1  0
 19 41  1  0
 19 42  1  0
 21 43  1  0
 24 44  1  1
 26 45  1  0
 27 46  1  0
 29 47  1  0
 29 48  1  0
M  END
>  <Score>  (1) 
-7.38416

>  <Score_dual>  (1) 
-7.89

>  <Choices>  (1) 
[None, 8, ['8-4', 60], 17, ['7-17', 165], 32, ['28-8', 195]]

$$$$
