
     RDKit          3D

 51 56  0  0  0  0  0  0  0  0999 V2000
   43.9650   85.6850   57.8040 C   0  0  0  0  0  0  0  0  0  0  0  0
   43.6240   84.8430   56.7200 C   0  0  0  0  0  0  0  0  0  0  0  0
   42.6480   83.8690   56.8900 C   0  0  0  0  0  0  0  0  0  0  0  0
   42.0750   83.7920   58.1150 N   0  0  0  0  0  0  0  0  0  0  0  0
   42.3990   84.5940   59.1470 C   0  0  0  0  0  0  0  0  0  0  0  0
   43.3400   85.5300   58.9800 N   0  0  0  0  0  0  0  0  0  0  0  0
   40.3760   84.2710   60.4900 C   0  0  0  0  0  0  0  0  0  0  0  0
   41.7430   84.4530   60.4320 C   0  0  0  0  0  0  0  0  0  0  0  0
   42.4760   84.5000   61.5870 C   0  0  0  0  0  0  0  0  0  0  0  0
   41.8400   84.3640   62.8030 C   0  0  0  0  0  0  0  0  0  0  0  0
   42.3510   84.3780   64.0570 N   0  0  0  0  0  0  0  0  0  0  0  0
   41.3010   84.2060   64.8710 C   0  0  0  0  0  0  0  0  0  0  0  0
   40.1750   84.0910   64.1320 N   0  0  0  0  0  0  0  0  0  0  0  0
   40.4800   84.1870   62.8030 C   0  0  0  0  0  0  0  0  0  0  0  0
   39.6870   84.1310   61.6830 C   0  0  0  0  0  0  0  0  0  0  0  0
   39.5820   84.2200   59.2820 N   0  0  0  0  0  0  0  0  0  0  0  0
   41.4710   81.8700   56.1470 C   0  0  0  0  0  0  0  0  0  0  0  0
   42.2480   82.9800   55.8380 C   0  0  0  0  0  0  0  0  0  0  0  0
   42.5670   83.1220   54.5150 C   0  0  0  0  0  0  0  0  0  0  0  0
   42.1840   82.2720   53.5080 C   0  0  0  0  0  0  0  0  0  0  0  0
   41.4200   81.1860   53.8270 C   0  0  0  0  0  0  0  0  0  0  0  0
   41.0500   80.9680   55.1680 C   0  0  0  0  0  0  0  0  0  0  0  0
   40.2440   79.7960   55.4280 C   0  0  0  0  0  0  0  0  0  0  0  0
   40.8910   78.5760   55.1950 C   0  0  0  0  0  0  0  0  0  0  0  0
   40.3080   77.3550   55.3790 C   0  0  0  0  0  0  0  0  0  0  0  0
   39.0040   77.2920   55.8230 C   0  0  0  0  0  0  0  0  0  0  0  0
   38.4090   76.0990   56.0120 N   0  0  0  0  0  0  0  0  0  0  0  0
   37.1330   76.0870   56.4460 C   0  0  0  0  0  0  0  0  0  0  0  0
   36.4090   77.2430   56.7070 C   0  0  0  0  0  0  0  0  0  0  0  0
   37.0370   78.4640   56.5060 C   0  0  0  0  0  0  0  0  0  0  0  0
   38.3350   78.4890   56.0640 C   0  0  0  0  0  0  0  0  0  0  0  0
   38.9450   79.7080   55.8700 C   0  0  0  0  0  0  0  0  0  0  0  0
   40.7020   81.3210   58.5660 N   0  0  0  0  0  0  0  0  0  0  0  0
   41.0440   81.5630   57.4830 C   0  0  0  0  0  0  0  0  0  0  0  0
   44.7361   86.4601   57.6833 H   0  0  0  0  0  0  0  0  0  0  0  0
   44.1280   84.9585   55.7491 H   0  0  0  0  0  0  0  0  0  0  0  0
   43.5656   84.6453   61.5455 H   0  0  0  0  0  0  0  0  0  0  0  0
   43.3378   84.4959   64.3276 H   0  0  0  0  0  0  0  0  0  0  0  0
   41.3478   84.1648   65.9692 H   0  0  0  0  0  0  0  0  0  0  0  0
   38.5974   83.9872   61.7297 H   0  0  0  0  0  0  0  0  0  0  0  0
   40.0361   84.3180   58.3627 H   0  0  0  0  0  0  0  0  0  0  0  0
   38.5625   84.0857   59.3411 H   0  0  0  0  0  0  0  0  0  0  0  0
   43.1819   83.9901   54.2352 H   0  0  0  0  0  0  0  0  0  0  0  0
   42.4856   82.4612   52.4672 H   0  0  0  0  0  0  0  0  0  0  0  0
   41.0960   80.4867   53.0422 H   0  0  0  0  0  0  0  0  0  0  0  0
   41.9325   78.6030   54.8422 H   0  0  0  0  0  0  0  0  0  0  0  0
   40.8718   76.4327   55.1755 H   0  0  0  0  0  0  0  0  0  0  0  0
   36.6416   75.1151   56.6009 H   0  0  0  0  0  0  0  0  0  0  0  0
   35.3692   77.1923   57.0623 H   0  0  0  0  0  0  0  0  0  0  0  0
   36.4985   79.4035   56.6995 H   0  0  0  0  0  0  0  0  0  0  0  0
   38.3814   80.6306   56.0728 H   0  0  0  0  0  0  0  0  0  0  0  0
  1  6  2  0
  2  3  2  0
  2  1  1  0
  3  4  1  0
  4  5  2  0
  5  8  1  0
  6  5  1  0
  7 15  2  0
  8  7  1  0
  8  9  2  0
  9 10  1  0
 10 14  2  0
 10 11  1  0
 11 12  1  0
 13 12  2  0
 14 13  1  0
 15 14  1  0
 16  7  1  0
 17 34  1  0
 18 17  2  0
 18  3  1  0
 19 18  1  0
 20 21  1  0
 20 19  2  0
 21 22  2  0
 22 23  1  0
 22 17  1  0
 23 32  2  0
 24 25  2  0
 24 23  1  0
 25 26  1  0
 26 27  2  0
 26 31  1  0
 27 28  1  0
 28 29  2  0
 30 29  1  0
 31 30  2  0
 32 31  1  0
 34 33  3  0
  1 35  1  0
  2 36  1  0
  9 37  1  0
 11 38  1  0
 12 39  1  0
 15 40  1  0
 16 41  1  0
 16 42  1  0
 19 43  1  0
 20 44  1  0
 21 45  1  0
 24 46  1  0
 25 47  1  0
 28 48  1  0
 29 49  1  0
 30 50  1  0
 32 51  1  0
M  END
>  <Score>  (1) 
-7.0514

>  <Score_dual>  (1) 
-8.44

>  <Choices>  (1) 
[None, 9, ['34-23', 255], 15, ['0-3', 0], 22, ['40-20', 0], 35, ['36-26', 165]]

$$$$
