
     RDKit          3D

 44 47  0  0  0  0  0  0  0  0999 V2000
   40.3530   82.8210   60.1340 F   0  0  0  0  0  0  0  0  0  0  0  0
   40.4920   81.5440   60.5440 C   0  0  0  0  0  0  0  0  0  0  0  0
   41.0080   81.2370   61.7790 C   0  0  0  0  0  0  0  0  0  0  0  0
   41.1030   79.9020   62.0920 C   0  0  0  0  0  0  0  0  0  0  0  0
   40.7000   78.9330   61.2020 C   0  0  0  0  0  0  0  0  0  0  0  0
   40.1860   79.2600   59.9670 C   0  0  0  0  0  0  0  0  0  0  0  0
   40.0830   80.6030   59.6400 C   0  0  0  0  0  0  0  0  0  0  0  0
   41.4100   82.3320   62.6590 C   0  0  0  0  0  0  0  0  0  0  0  0
   42.7230   82.7830   62.6960 C   0  0  0  0  0  0  0  0  0  0  0  0
   43.1410   83.8200   63.5200 C   0  0  0  0  0  0  0  0  0  0  0  0
   42.1680   84.3670   64.2910 N   0  0  0  0  0  0  0  0  0  0  0  0
   40.9040   83.9470   64.2680 C   0  0  0  0  0  0  0  0  0  0  0  0
   40.5080   82.9430   63.4680 N   0  0  0  0  0  0  0  0  0  0  0  0
   39.8700   84.5020   65.0640 N   0  0  0  0  0  0  0  0  0  0  0  0
   39.5570   80.8470   58.3820 O   0  0  0  0  0  0  0  0  0  0  0  0
   41.1930   82.4480   57.0610 O   0  0  0  0  0  0  0  0  0  0  0  0
   40.5170   81.0740   56.9850 P   0  0  1  0  0  0  0  0  0  0  0  0
   41.7750   79.9460   57.0540 O   0  0  0  0  0  0  0  0  0  0  0  0
   39.6060   80.9580   55.5980 O   0  0  0  0  0  0  0  0  0  0  0  0
   39.5420   79.7600   54.8940 C   0  0  0  0  0  0  0  0  0  0  0  0
   40.4010   79.4540   53.8490 C   0  0  0  0  0  0  0  0  0  0  0  0
   40.2170   78.2170   53.2390 C   0  0  0  0  0  0  0  0  0  0  0  0
   39.2300   77.3260   53.6430 C   0  0  0  0  0  0  0  0  0  0  0  0
   38.4090   77.6900   54.6870 C   0  0  0  0  0  0  0  0  0  0  0  0
   37.4490   76.7820   55.0530 C   0  0  0  0  0  0  0  0  0  0  0  0
   36.5640   77.0460   56.0980 C   0  0  0  0  0  0  0  0  0  0  0  0
   36.7310   78.2670   56.7140 C   0  0  0  0  0  0  0  0  0  0  0  0
   37.6890   79.1870   56.3570 C   0  0  0  0  0  0  0  0  0  0  0  0
   38.5580   78.9120   55.3230 C   0  0  0  0  0  0  0  0  0  0  0  0
   41.5079   79.6033   63.0702 H   0  0  0  0  0  0  0  0  0  0  0  0
   40.7904   77.8734   61.4833 H   0  0  0  0  0  0  0  0  0  0  0  0
   39.8668   78.4789   59.2613 H   0  0  0  0  0  0  0  0  0  0  0  0
   43.4644   82.2977   62.0442 H   0  0  0  0  0  0  0  0  0  0  0  0
   44.1830   84.1715   63.5455 H   0  0  0  0  0  0  0  0  0  0  0  0
   38.9122   84.1292   64.9971 H   0  0  0  0  0  0  0  0  0  0  0  0
   40.0768   85.2779   65.7091 H   0  0  0  0  0  0  0  0  0  0  0  0
   41.9921   79.7513   58.0001 H   0  0  0  0  0  0  0  0  0  0  0  0
   41.1854   80.1515   53.5202 H   0  0  0  0  0  0  0  0  0  0  0  0
   40.8773   77.9338   52.4060 H   0  0  0  0  0  0  0  0  0  0  0  0
   39.1076   76.3546   53.1416 H   0  0  0  0  0  0  0  0  0  0  0  0
   37.3755   75.8270   54.5120 H   0  0  0  0  0  0  0  0  0  0  0  0
   35.7882   76.3306   56.4082 H   0  0  0  0  0  0  0  0  0  0  0  0
   36.0554   78.5222   57.5438 H   0  0  0  0  0  0  0  0  0  0  0  0
   37.7617   80.1426   56.8969 H   0  0  0  0  0  0  0  0  0  0  0  0
  1  2  1  0
  2  3  2  0
  3  4  1  0
  3  8  1  0
  5  4  2  0
  6  5  1  0
  7  6  2  0
  7  2  1  0
  8  9  2  0
  8 13  1  0
  9 10  1  0
 10 11  2  0
 12 11  1  0
 12 14  1  0
 13 12  2  0
 15  7  1  0
 17 18  1  6
 17 16  2  0
 17 15  1  0
 19 17  1  0
 20 29  1  0
 20 19  1  0
 21 20  2  0
 22 23  2  0
 22 21  1  0
 23 24  1  0
 24 25  1  0
 24 29  2  0
 25 26  2  0
 26 27  1  0
 28 27  2  0
 29 28  1  0
  4 30  1  0
  5 31  1  0
  6 32  1  0
  9 33  1  0
 10 34  1  0
 14 35  1  0
 14 36  1  0
 18 37  1  0
 21 38  1  0
 22 39  1  0
 23 40  1  0
 25 41  1  0
 26 42  1  0
 27 43  1  0
 28 44  1  0
M  END
>  <Score>  (1) 
-7.15867

>  <Score_dual>  (1) 
-7.57

>  <Choices>  (1) 
[None, 6, ['9-20', 270], 15, ['0-3', 105], 21, ['10-2', 150], 27, ['26-18', 240]]

$$$$
