
     RDKit          3D

 49 52  0  0  0  0  0  0  0  0999 V2000
   40.1420   78.5240   58.4260 C   0  0  0  0  0  0  0  0  0  0  0  0
   40.4580   80.3750   61.6530 C   0  0  0  0  0  0  0  0  0  0  0  0
   40.3270   80.0780   60.3200 C   0  0  0  0  0  0  0  0  0  0  0  0
   40.2810   78.7680   59.8520 C   0  0  0  0  0  0  0  0  0  0  0  0
   40.3760   77.8320   60.8000 N   0  0  0  0  0  0  0  0  0  0  0  0
   40.5060   78.1330   62.1120 C   0  0  0  0  0  0  0  0  0  0  0  0
   40.5470   79.4060   62.5300 N   0  0  0  0  0  0  0  0  0  0  0  0
   40.4940   81.7940   62.0310 C   0  0  0  0  0  0  0  0  0  0  0  0
   40.1990   82.8790   61.2300 C   0  0  0  0  0  0  0  0  0  0  0  0
   40.3850   83.9780   62.0570 C   0  0  0  0  0  0  0  0  0  0  0  0
   40.7560   83.5810   63.2420 N   0  0  0  0  0  0  0  0  0  0  0  0
   40.8290   82.2410   63.2450 N   0  0  0  0  0  0  0  0  0  0  0  0
   41.0480   84.4410   64.3840 C   0  0  0  0  0  0  0  0  0  0  0  0
   42.2590   84.1470   64.9590 F   0  0  0  0  0  0  0  0  0  0  0  0
   40.0210   84.3000   65.3420 F   0  0  0  0  0  0  0  0  0  0  0  0
   40.9650   85.7840   64.0230 F   0  0  0  0  0  0  0  0  0  0  0  0
   38.8790   77.7610   58.1950 C   0  0  0  0  0  0  0  0  0  0  0  0
   38.9150   76.4200   57.7010 C   0  0  0  0  0  0  0  0  0  0  0  0
   38.4820   75.9310   56.4970 C   0  0  0  0  0  0  0  0  0  0  0  0
   38.5440   74.6120   56.0850 C   0  0  0  0  0  0  0  0  0  0  0  0
   39.0930   73.7340   56.9840 N   0  0  0  0  0  0  0  0  0  0  0  0
   39.5220   74.1910   58.1660 C   0  0  0  0  0  0  0  0  0  0  0  0
   39.4390   75.4750   58.5120 N   0  0  0  0  0  0  0  0  0  0  0  0
   40.0850   73.2410   59.0660 N   0  0  0  0  0  0  0  0  0  0  0  0
   40.7580   72.0890   58.4970 C   0  0  0  0  0  0  0  0  0  0  0  0
   40.6300   70.9450   59.4640 C   0  0  0  0  0  0  0  0  0  0  0  0
   41.2020   71.2280   60.8180 C   0  0  0  0  0  0  0  0  0  0  0  0
   41.2030   72.6780   61.1750 C   0  0  0  0  0  0  0  0  0  0  0  0
   40.0270   73.3540   60.5100 C   0  0  0  0  0  0  0  0  0  0  0  0
   40.0997   79.4826   57.8882 H   0  0  0  0  0  0  0  0  0  0  0  0
   41.0029   77.9469   58.0574 H   0  0  0  0  0  0  0  0  0  0  0  0
   40.2559   80.9034   59.5964 H   0  0  0  0  0  0  0  0  0  0  0  0
   40.5793   77.3194   62.8487 H   0  0  0  0  0  0  0  0  0  0  0  0
   39.8871   82.8737   60.1751 H   0  0  0  0  0  0  0  0  0  0  0  0
   40.2410   85.0266   61.7575 H   0  0  0  0  0  0  0  0  0  0  0  0
   38.3524   77.7260   59.1601 H   0  0  0  0  0  0  0  0  0  0  0  0
   38.4072   78.3133   57.3690 H   0  0  0  0  0  0  0  0  0  0  0  0
   38.0446   76.6540   55.7927 H   0  0  0  0  0  0  0  0  0  0  0  0
   38.1767   74.2883   55.1000 H   0  0  0  0  0  0  0  0  0  0  0  0
   40.2902   71.8204   57.5384 H   0  0  0  0  0  0  0  0  0  0  0  0
   41.8188   72.3186   58.3184 H   0  0  0  0  0  0  0  0  0  0  0  0
   39.5621   70.7089   59.5817 H   0  0  0  0  0  0  0  0  0  0  0  0
   41.2044   70.1062   59.0439 H   0  0  0  0  0  0  0  0  0  0  0  0
   40.6067   70.6857   61.5674 H   0  0  0  0  0  0  0  0  0  0  0  0
   42.2516   70.8993   60.8001 H   0  0  0  0  0  0  0  0  0  0  0  0
   41.1218   72.7882   62.2664 H   0  0  0  0  0  0  0  0  0  0  0  0
   42.1391   73.1426   60.8315 H   0  0  0  0  0  0  0  0  0  0  0  0
   40.0276   74.4194   60.7838 H   0  0  0  0  0  0  0  0  0  0  0  0
   39.1082   72.8569   60.8545 H   0  0  0  0  0  0  0  0  0  0  0  0
  1  4  1  0
  2  8  1  0
  2  7  1  0
  3  2  2  0
  4  3  1  0
  4  5  2  0
  5  6  1  0
  6  7  2  0
  8 12  2  0
  9  8  1  0
  9 10  2  0
 10 11  1  0
 11 12  1  0
 11 13  1  0
 13 14  1  0
 13 15  1  0
 16 13  1  0
 17  1  1  0
 18 17  1  0
 18 23  1  0
 19 18  2  0
 20 19  1  0
 20 21  2  0
 21 22  1  0
 22 23  2  0
 22 24  1  0
 24 29  1  0
 25 24  1  0
 25 26  1  0
 26 27  1  0
 27 28  1  0
 29 28  1  0
  1 30  1  0
  1 31  1  0
  3 32  1  0
  6 33  1  0
  9 34  1  0
 10 35  1  0
 17 36  1  0
 17 37  1  0
 19 38  1  0
 20 39  1  0
 25 40  1  0
 25 41  1  0
 26 42  1  0
 26 43  1  0
 27 44  1  0
 27 45  1  0
 28 46  1  0
 28 47  1  0
 29 48  1  0
 29 49  1  0
M  END
>  <Score>  (1) 
-7.19116

>  <Score_dual>  (1) 
-7.21

>  <Choices>  (1) 
[None, 6, ['22-8', 120], 16, ['11-3', 255], 18, ['4-11', 330], 25, ['19-12', 285], 33, ['8-4', 30]]

$$$$
