
     RDKit          3D

 39 41  0  0  0  0  0  0  0  0999 V2000
   39.4270   81.1080   58.3380 F   0  0  0  0  0  0  0  0  0  0  0  0
   40.3380   81.7960   57.6390 C   0  0  0  0  0  0  0  0  0  0  0  0
   40.9650   82.8670   58.2450 C   0  0  0  0  0  0  0  0  0  0  0  0
   41.8970   83.5620   57.5150 C   0  0  0  0  0  0  0  0  0  0  0  0
   42.1680   83.1720   56.2270 C   0  0  0  0  0  0  0  0  0  0  0  0
   41.5360   82.1000   55.6310 C   0  0  0  0  0  0  0  0  0  0  0  0
   40.5990   81.3830   56.3310 C   0  0  0  0  0  0  0  0  0  0  0  0
   39.5970   84.0910   59.9280 C   0  0  0  0  0  0  0  0  0  0  0  0
   40.6330   83.2360   59.6260 C   0  0  0  0  0  0  0  0  0  0  0  0
   41.4220   82.6770   60.6810 C   0  0  0  0  0  0  0  0  0  0  0  0
   41.0780   83.0460   61.9420 N   0  0  0  0  0  0  0  0  0  0  0  0
   40.0700   83.8770   62.2130 C   0  0  0  0  0  0  0  0  0  0  0  0
   39.3340   84.3970   61.2110 N   0  0  0  0  0  0  0  0  0  0  0  0
   41.0220   84.4920   64.2870 C   0  0  0  0  0  0  0  0  0  0  0  0
   42.1940   84.5020   63.8260 O   0  0  0  0  0  0  0  0  0  0  0  0
   39.8060   84.1910   63.5960 N   0  0  0  0  0  0  0  0  0  0  0  0
   39.9220   80.2640   55.7450 C   0  0  0  0  0  0  0  0  0  0  0  0
   39.6820   80.2980   54.4840 O   0  0  0  0  0  0  0  0  0  0  0  0
   39.8070   77.0800   57.7190 N   0  0  0  0  0  0  0  0  0  0  0  0
   40.2840   78.1630   57.0830 C   0  0  0  0  0  0  0  0  0  0  0  0
   39.4730   79.0730   56.4510 C   0  0  0  0  0  0  0  0  0  0  0  0
   38.1040   78.8060   56.5100 C   0  0  0  0  0  0  0  0  0  0  0  0
   37.3300   79.6040   55.9510 O   0  0  0  0  0  0  0  0  0  0  0  0
   37.6750   77.7250   57.1480 N   0  0  0  0  0  0  0  0  0  0  0  0
   38.4810   76.8360   57.7660 C   0  0  0  0  0  0  0  0  0  0  0  0
   38.1130   75.8080   58.3770 O   0  0  0  0  0  0  0  0  0  0  0  0
   36.2410   77.4300   57.2200 C   0  0  0  0  0  0  0  0  0  0  0  0
   42.4210   84.4221   57.9574 H   0  0  0  0  0  0  0  0  0  0  0  0
   42.9161   83.7345   55.6491 H   0  0  0  0  0  0  0  0  0  0  0  0
   41.7831   81.8207   54.5961 H   0  0  0  0  0  0  0  0  0  0  0  0
   38.9858   84.5228   59.1218 H   0  0  0  0  0  0  0  0  0  0  0  0
   42.2573   81.9894   60.4824 H   0  0  0  0  0  0  0  0  0  0  0  0
   40.9209   84.7461   65.3525 H   0  0  0  0  0  0  0  0  0  0  0  0
   38.8705   84.1976   64.0268 H   0  0  0  0  0  0  0  0  0  0  0  0
   40.4611   76.4286   58.1759 H   0  0  0  0  0  0  0  0  0  0  0  0
   41.3715   78.3278   57.0679 H   0  0  0  0  0  0  0  0  0  0  0  0
   35.9322   77.3665   58.2738 H   0  0  0  0  0  0  0  0  0  0  0  0
   35.6764   78.2308   56.7201 H   0  0  0  0  0  0  0  0  0  0  0  0
   36.0383   76.4714   56.7201 H   0  0  0  0  0  0  0  0  0  0  0  0
  2  3  2  0
  2  1  1  0
  3  9  1  0
  4  3  1  0
  5  4  2  0
  6  5  1  0
  6  7  2  0
  7  2  1  0
  8 13  2  0
  9  8  1  0
  9 10  2  0
 10 11  1  0
 11 12  2  0
 12 16  1  0
 13 12  1  0
 15 14  2  0
 16 14  1  0
 17  7  1  0
 17 21  1  0
 18 17  2  0
 19 25  1  0
 20 19  1  0
 21 22  1  0
 21 20  2  0
 22 24  1  0
 23 22  2  0
 24 27  1  0
 24 25  1  0
 25 26  2  0
  4 28  1  0
  5 29  1  0
  6 30  1  0
  8 31  1  0
 10 32  1  0
 14 33  1  0
 16 34  1  0
 19 35  1  0
 20 36  1  0
 27 37  1  0
 27 38  1  0
 27 39  1  0
M  END
>  <Score>  (1) 
-7.0113

>  <Score_dual>  (1) 
-7.48

>  <Choices>  (1) 
[None, 7, ['9-20', 150], 15, ['12-5', 135], 23, ['5-8', 300], 25, ['37-17', 165], 35, ['3-1', 0]]

$$$$
