
     RDKit          3D

 53 58  0  0  1  0  0  0  0  0999 V2000
   41.6690   77.8110   58.1810 Cl  0  0  0  0  0  0  0  0  0  0  0  0
   39.9780   77.7570   57.6630 C   0  0  0  0  0  0  0  0  0  0  0  0
   39.4690   78.9600   57.2980 C   0  0  0  0  0  0  0  0  0  0  0  0
   38.1200   78.9600   56.8900 C   0  0  0  0  0  0  0  0  0  0  0  0
   37.3410   77.7960   56.8590 C   0  0  0  0  0  0  0  0  0  0  0  0
   37.9630   76.6210   57.2540 C   0  0  0  0  0  0  0  0  0  0  0  0
   39.2580   76.5950   57.6490 C   0  0  0  0  0  0  0  0  0  0  0  0
   40.8130   82.2980   58.4160 C   0  0  0  0  0  0  0  0  0  0  0  0
   40.2050   81.0490   58.4170 C   0  0  0  0  0  0  0  0  0  0  0  0
   40.1120   80.2620   57.2640 C   0  0  0  0  0  0  0  0  0  0  0  0
   40.6430   80.7500   56.0880 C   0  0  0  0  0  0  0  0  0  0  0  0
   41.2480   81.9910   56.0820 C   0  0  0  0  0  0  0  0  0  0  0  0
   41.3150   82.7320   57.2530 C   0  0  0  0  0  0  0  0  0  0  0  0
   40.8470   83.0200   59.6790 C   0  0  0  0  0  0  0  0  0  0  0  0
   41.9450   83.7160   60.1370 C   0  0  0  0  0  0  0  0  0  0  0  0
   41.9150   84.3820   61.3480 C   0  0  0  0  0  0  0  0  0  0  0  0
   40.7640   84.3220   62.0660 N   0  0  0  0  0  0  0  0  0  0  0  0
   39.7040   83.6540   61.6320 C   0  0  0  0  0  0  0  0  0  0  0  0
   39.7350   83.0050   60.4510 N   0  0  0  0  0  0  0  0  0  0  0  0
   38.4860   83.5800   62.3720 N   0  0  0  0  0  0  0  0  0  0  0  0
   39.8910   75.3260   58.0360 C   0  0  2  0  0  0  0  0  0  0  0  0
   39.1020   74.1080   57.9770 C   0  0  0  0  0  0  0  0  0  0  0  0
   39.5010   74.6600   59.3490 C   0  0  1  0  0  0  0  0  0  0  0  0
   40.4300   73.7760   60.0540 C   0  0  0  0  0  0  0  0  0  0  0  0
   40.2380   72.4280   60.0990 N   0  0  0  0  0  0  0  0  0  0  0  0
   41.0410   71.5780   60.7180 C   0  0  0  0  0  0  0  0  0  0  0  0
   42.1270   71.9970   61.3610 N   0  0  0  0  0  0  0  0  0  0  0  0
   42.4060   73.3120   61.3750 C   0  0  0  0  0  0  0  0  0  0  0  0
   43.5400   73.7330   62.0500 C   0  0  0  0  0  0  0  0  0  0  0  0
   43.8040   75.0860   62.0500 C   0  0  0  0  0  0  0  0  0  0  0  0
   42.9750   76.0040   61.4060 C   0  0  0  0  0  0  0  0  0  0  0  0
   41.8530   75.5340   60.7470 C   0  0  0  0  0  0  0  0  0  0  0  0
   41.5580   74.1910   60.7250 C   0  0  0  0  0  0  0  0  0  0  0  0
   37.6606   79.9114   56.5838 H   0  0  0  0  0  0  0  0  0  0  0  0
   36.2891   77.8131   56.5376 H   0  0  0  0  0  0  0  0  0  0  0  0
   37.3879   75.6833   57.2462 H   0  0  0  0  0  0  0  0  0  0  0  0
   39.7819   80.6653   59.3571 H   0  0  0  0  0  0  0  0  0  0  0  0
   40.5849   80.1561   55.1639 H   0  0  0  0  0  0  0  0  0  0  0  0
   41.6759   82.3913   55.1510 H   0  0  0  0  0  0  0  0  0  0  0  0
   41.8013   83.7183   57.2248 H   0  0  0  0  0  0  0  0  0  0  0  0
   42.8609   83.7419   59.5284 H   0  0  0  0  0  0  0  0  0  0  0  0
   42.7895   84.9389   61.7157 H   0  0  0  0  0  0  0  0  0  0  0  0
   37.6868   83.0495   61.9968 H   0  0  0  0  0  0  0  0  0  0  0  0
   38.4061   84.0571   63.2813 H   0  0  0  0  0  0  0  0  0  0  0  0
   40.8490   75.6474   57.6012 H   0  0  0  0  0  0  0  0  0  0  0  0
   38.0513   74.1528   57.6546 H   0  0  0  0  0  0  0  0  0  0  0  0
   39.2206   73.1373   57.4733 H   0  0  0  0  0  0  0  0  0  0  0  0
   39.0441   75.0421   60.2738 H   0  0  0  0  0  0  0  0  0  0  0  0
   40.8057   70.5036   60.7004 H   0  0  0  0  0  0  0  0  0  0  0  0
   44.2008   73.0191   62.5634 H   0  0  0  0  0  0  0  0  0  0  0  0
   44.6979   75.4536   62.5752 H   0  0  0  0  0  0  0  0  0  0  0  0
   43.2082   77.0789   61.4216 H   0  0  0  0  0  0  0  0  0  0  0  0
   41.1879   76.2441   60.2337 H   0  0  0  0  0  0  0  0  0  0  0  0
  2  1  1  0
  3  2  2  0
  4  3  1  0
  5  4  2  0
  5  6  1  0
  6  7  2  0
  7  2  1  0
  7 21  1  0
  8  9  2  0
  8 14  1  0
 10  3  1  0
 10  9  1  0
 11 10  2  0
 12 11  1  0
 12 13  2  0
 13  8  1  0
 14 15  2  0
 14 19  1  0
 15 16  1  0
 16 17  2  0
 18 17  1  0
 18 20  1  0
 19 18  2  0
 21 23  1  0
 22 21  1  0
 22 23  1  0
 23 24  1  0
 24 25  2  0
 24 33  1  0
 25 26  1  0
 26 27  2  0
 27 28  1  0
 28 29  2  0
 29 30  1  0
 31 30  2  0
 32 31  1  0
 33 32  2  0
 33 28  1  0
  4 34  1  0
  5 35  1  0
  6 36  1  0
  9 37  1  0
 11 38  1  0
 12 39  1  0
 13 40  1  0
 15 41  1  0
 16 42  1  0
 20 43  1  0
 20 44  1  0
 21 45  1  6
 22 46  1  0
 22 47  1  0
 23 48  1  1
 26 49  1  0
 29 50  1  0
 30 51  1  0
 31 52  1  0
 32 53  1  0
M  END
>  <Score>  (1) 
-7.2818

>  <Score_dual>  (1) 
-8.52

>  <Choices>  (1) 
[None, 6, ['1-28', 270], 16, ['7-17', 105], 29, ['16-25', 300], 36, ['0-3', 0], 38, ['47-21', 240]]

$$$$
