
     RDKit          3D

 48 52  0  0  0  0  0  0  0  0999 V2000
   42.9000   80.9650   61.8720 F   0  0  0  0  0  0  0  0  0  0  0  0
   44.1350   81.1210   62.4190 C   0  0  0  0  0  0  0  0  0  0  0  0
   44.4180   82.3510   62.8470 C   0  0  0  0  0  0  0  0  0  0  0  0
   45.6740   82.5070   63.4030 C   0  0  0  0  0  0  0  0  0  0  0  0
   46.5670   81.4670   63.5030 C   0  0  0  0  0  0  0  0  0  0  0  0
   46.2530   80.2070   63.0550 C   0  0  0  0  0  0  0  0  0  0  0  0
   44.9890   80.0510   62.4970 C   0  0  0  0  0  0  0  0  0  0  0  0
   43.6180   83.5490   62.8140 C   0  0  0  0  0  0  0  0  0  0  0  0
   42.2860   83.5670   63.4440 C   0  0  0  0  0  0  0  0  0  0  0  0
   38.8770   83.7850   61.9410 C   0  0  0  0  0  0  0  0  0  0  0  0
   39.9000   83.5660   62.8870 C   0  0  0  0  0  0  0  0  0  0  0  0
   41.1790   83.7910   62.4670 C   0  0  0  0  0  0  0  0  0  0  0  0
   41.4210   84.2090   61.1850 N   0  0  0  0  0  0  0  0  0  0  0  0
   40.4530   84.4120   60.3050 C   0  0  0  0  0  0  0  0  0  0  0  0
   39.1500   84.2000   60.6760 N   0  0  0  0  0  0  0  0  0  0  0  0
   40.8090   84.8540   58.9770 C   0  0  0  0  0  0  0  0  0  0  0  0
   41.6550   84.0670   58.1720 C   0  0  0  0  0  0  0  0  0  0  0  0
   41.8300   84.7280   56.9490 C   0  0  0  0  0  0  0  0  0  0  0  0
   41.1190   85.8490   57.0360 N   0  0  0  0  0  0  0  0  0  0  0  0
   40.5040   85.9440   58.2310 N   0  0  0  0  0  0  0  0  0  0  0  0
   44.5140   78.4490   61.9200 S   0  0  0  0  0  0  0  0  0  0  0  0
   44.9340   77.1110   62.9810 C   0  0  0  0  0  0  0  0  0  0  0  0
   45.7300   77.0130   64.0580 N   0  0  0  0  0  0  0  0  0  0  0  0
   45.9320   75.8860   64.7540 C   0  0  0  0  0  0  0  0  0  0  0  0
   45.3330   74.7440   64.4100 N   0  0  0  0  0  0  0  0  0  0  0  0
   44.5050   74.7540   63.3240 C   0  0  0  0  0  0  0  0  0  0  0  0
   43.9350   73.5300   63.0480 C   0  0  0  0  0  0  0  0  0  0  0  0
   43.0870   73.4600   61.9680 C   0  0  0  0  0  0  0  0  0  0  0  0
   42.8390   74.5850   61.2140 C   0  0  0  0  0  0  0  0  0  0  0  0
   43.4450   75.7720   61.5490 C   0  0  0  0  0  0  0  0  0  0  0  0
   44.3130   75.9150   62.6280 C   0  0  0  0  0  0  0  0  0  0  0  0
   45.9690   83.4980   63.7785 H   0  0  0  0  0  0  0  0  0  0  0  0
   47.5550   81.6476   63.9517 H   0  0  0  0  0  0  0  0  0  0  0  0
   46.9613   79.3690   63.1332 H   0  0  0  0  0  0  0  0  0  0  0  0
   44.2094   84.3384   63.3008 H   0  0  0  0  0  0  0  0  0  0  0  0
   43.3917   83.6706   61.7444 H   0  0  0  0  0  0  0  0  0  0  0  0
   42.1219   82.6008   63.9436 H   0  0  0  0  0  0  0  0  0  0  0  0
   42.2707   84.4061   64.1551 H   0  0  0  0  0  0  0  0  0  0  0  0
   37.8306   83.6154   62.2349 H   0  0  0  0  0  0  0  0  0  0  0  0
   39.6783   83.2310   63.9110 H   0  0  0  0  0  0  0  0  0  0  0  0
   42.1007   83.1017   58.4541 H   0  0  0  0  0  0  0  0  0  0  0  0
   42.4318   84.3895   56.0927 H   0  0  0  0  0  0  0  0  0  0  0  0
   41.0479   86.5527   56.2873 H   0  0  0  0  0  0  0  0  0  0  0  0
   46.6038   75.9023   65.6249 H   0  0  0  0  0  0  0  0  0  0  0  0
   44.1496   72.6457   63.6661 H   0  0  0  0  0  0  0  0  0  0  0  0
   42.6069   72.5055   61.7064 H   0  0  0  0  0  0  0  0  0  0  0  0
   42.1606   74.5340   60.3496 H   0  0  0  0  0  0  0  0  0  0  0  0
   43.2328   76.6570   60.9312 H   0  0  0  0  0  0  0  0  0  0  0  0
  1  2  1  0
  2  7  2  0
  2  3  1  0
  3  4  2  0
  4  5  1  0
  6  5  2  0
  7  6  1  0
  8  3  1  0
  8  9  1  0
 10 11  2  0
 12 11  1  0
 12  9  1  0
 13 12  2  0
 14 15  2  0
 14 13  1  0
 15 10  1  0
 16 14  1  0
 17 16  1  0
 18 19  1  0
 18 17  2  0
 19 20  1  0
 20 16  2  0
 21  7  1  0
 21 22  1  0
 22 23  2  0
 23 24  1  0
 25 24  2  0
 26 25  1  0
 27 26  2  0
 28 27  1  0
 29 30  1  0
 29 28  2  0
 30 31  2  0
 31 22  1  0
 31 26  1  0
  4 32  1  0
  5 33  1  0
  6 34  1  0
  8 35  1  0
  8 36  1  0
  9 37  1  0
  9 38  1  0
 10 39  1  0
 11 40  1  0
 17 41  1  0
 18 42  1  0
 19 43  1  0
 24 44  1  0
 27 45  1  0
 28 46  1  0
 29 47  1  0
 30 48  1  0
M  END
>  <Score>  (1) 
-7.05333

>  <Score_dual>  (1) 
-8.03

>  <Choices>  (1) 
[None, 9, ['22-8', 330], 13, ['4-8', 210], 22, ['9-14', 150], 32, ['17-13', 0], 33, ['47-14', 0]]

$$$$
