
     RDKit          3D

 44 47  0  0  0  0  0  0  0  0999 V2000
   43.5330   85.4600   60.3390 C   0  0  0  0  0  0  0  0  0  0  0  0
   42.9600   84.7870   59.2800 C   0  0  0  0  0  0  0  0  0  0  0  0
   42.7070   85.3530   58.0310 C   0  0  0  0  0  0  0  0  0  0  0  0
   43.0410   86.6340   57.8470 N   0  0  0  0  0  0  0  0  0  0  0  0
   43.6050   87.2840   58.9030 C   0  0  0  0  0  0  0  0  0  0  0  0
   43.8420   86.7230   60.0950 N   0  0  0  0  0  0  0  0  0  0  0  0
   43.9800   88.7180   58.6960 C   0  0  0  0  0  0  0  0  0  0  0  0
   45.1460   88.8530   57.9880 F   0  0  0  0  0  0  0  0  0  0  0  0
   42.9730   89.4000   58.0200 F   0  0  0  0  0  0  0  0  0  0  0  0
   44.1280   89.3630   59.9120 F   0  0  0  0  0  0  0  0  0  0  0  0
   43.7550   84.7460   61.6280 C   0  0  0  0  0  0  0  0  0  0  0  0
   44.9320   84.9150   62.0610 O   0  0  0  0  0  0  0  0  0  0  0  0
   40.9840   83.7760   63.8920 C   0  0  0  0  0  0  0  0  0  0  0  0
   41.9840   84.5560   63.2800 C   0  0  0  0  0  0  0  0  0  0  0  0
   42.7410   83.9800   62.2600 C   0  0  0  0  0  0  0  0  0  0  0  0
   42.4480   82.7100   61.9400 N   0  0  0  0  0  0  0  0  0  0  0  0
   41.4950   81.9760   62.5260 C   0  0  0  0  0  0  0  0  0  0  0  0
   40.7680   82.5090   63.4970 N   0  0  0  0  0  0  0  0  0  0  0  0
   41.3130   80.5990   62.0460 C   0  0  0  0  0  0  0  0  0  0  0  0
   41.8780   80.1060   60.9170 C   0  0  0  0  0  0  0  0  0  0  0  0
   41.6730   78.8020   60.5140 C   0  0  0  0  0  0  0  0  0  0  0  0
   40.8640   78.0130   61.3080 C   0  0  0  0  0  0  0  0  0  0  0  0
   40.2840   78.5080   62.4600 C   0  0  0  0  0  0  0  0  0  0  0  0
   40.5320   79.7920   62.7870 N   0  0  0  0  0  0  0  0  0  0  0  0
   42.0980   84.5560   56.9850 C   0  0  0  0  0  0  0  0  0  0  0  0
   42.0750   84.9800   55.7870 O   0  0  0  0  0  0  0  0  0  0  0  0
   41.4580   83.2400   57.1220 C   0  0  0  0  0  0  0  0  0  0  0  0
   40.7030   82.9610   58.2400 C   0  0  0  0  0  0  0  0  0  0  0  0
   40.1100   81.6950   58.3280 C   0  0  0  0  0  0  0  0  0  0  0  0
   40.2740   80.7390   57.3180 C   0  0  0  0  0  0  0  0  0  0  0  0
   41.0460   81.0490   56.1930 C   0  0  0  0  0  0  0  0  0  0  0  0
   41.6270   82.3020   56.1170 C   0  0  0  0  0  0  0  0  0  0  0  0
   42.6841   83.7329   59.4309 H   0  0  0  0  0  0  0  0  0  0  0  0
   40.3744   84.2068   64.7000 H   0  0  0  0  0  0  0  0  0  0  0  0
   42.1636   85.5935   63.5984 H   0  0  0  0  0  0  0  0  0  0  0  0
   42.5161   80.7618   60.3064 H   0  0  0  0  0  0  0  0  0  0  0  0
   42.1353   78.4070   59.5973 H   0  0  0  0  0  0  0  0  0  0  0  0
   40.6776   76.9687   61.0171 H   0  0  0  0  0  0  0  0  0  0  0  0
   39.6411   77.8753   63.0896 H   0  0  0  0  0  0  0  0  0  0  0  0
   40.5702   83.7075   59.0370 H   0  0  0  0  0  0  0  0  0  0  0  0
   39.5019   81.4462   59.2102 H   0  0  0  0  0  0  0  0  0  0  0  0
   39.7991   79.7509   57.4085 H   0  0  0  0  0  0  0  0  0  0  0  0
   41.1876   80.3133   55.3876 H   0  0  0  0  0  0  0  0  0  0  0  0
   42.2370   82.5593   55.2386 H   0  0  0  0  0  0  0  0  0  0  0  0
  1 11  1  0
  2  1  2  0
  3  2  1  0
  4  3  2  0
  4  5  1  0
  5  6  2  0
  6  1  1  0
  7  5  1  0
  7 10  1  0
  8  7  1  0
  9  7  1  0
 11 12  2  0
 11 15  1  0
 14 13  2  0
 15 14  1  0
 16 15  2  0
 16 17  1  0
 17 18  2  0
 18 13  1  0
 19 17  1  0
 19 24  1  0
 20 19  2  0
 21 20  1  0
 21 22  2  0
 22 23  1  0
 23 24  2  0
 25 27  1  0
 25  3  1  0
 26 25  2  0
 27 28  2  0
 28 29  1  0
 30 29  2  0
 31 30  1  0
 32 31  2  0
 32 27  1  0
  2 33  1  0
 13 34  1  0
 14 35  1  0
 20 36  1  0
 21 37  1  0
 22 38  1  0
 23 39  1  0
 28 40  1  0
 29 41  1  0
 30 42  1  0
 31 43  1  0
 32 44  1  0
M  END
>  <Score>  (1) 
-7.06782

>  <Score_dual>  (1) 
-7.26

>  <Choices>  (1) 
[None, 8, ['5-9', 180], 10, ['6-16', 285], 20, ['19-5', 120], 28, ['11-12', 15], 31, ['5-7', 60], 33, ['1-13', 30]]

$$$$
