
     RDKit          3D

 60 65  0  0  1  0  0  0  0  0999 V2000
   41.1810   81.4090   62.1680 C   0  0  0  0  0  0  0  0  0  0  0  0
   41.9160   80.3070   62.2720 C   0  0  0  0  0  0  0  0  0  0  0  0
   41.6020   79.2030   61.5320 C   0  0  0  0  0  0  0  0  0  0  0  0
   40.5300   79.3020   60.7140 C   0  0  0  0  0  0  0  0  0  0  0  0
   39.9570   81.0000   61.0040 S   0  0  0  0  0  0  0  0  0  0  0  0
   41.3230   82.7240   62.8620 C   0  0  0  0  0  0  0  0  0  0  0  0
   42.1440   83.6910   62.3610 C   0  0  0  0  0  0  0  0  0  0  0  0
   42.2220   84.8820   63.0630 C   0  0  0  0  0  0  0  0  0  0  0  0
   41.4890   85.0060   64.1870 N   0  0  0  0  0  0  0  0  0  0  0  0
   40.6840   84.0290   64.6560 C   0  0  0  0  0  0  0  0  0  0  0  0
   40.6070   82.8850   63.9850 N   0  0  0  0  0  0  0  0  0  0  0  0
   42.9710   83.6400   61.1560 C   0  0  0  0  0  0  0  0  0  0  0  0
   44.0170   82.8550   60.7930 C   0  0  0  0  0  0  0  0  0  0  0  0
   44.6350   83.0010   59.5980 C   0  0  0  0  0  0  0  0  0  0  0  0
   44.1810   83.9630   58.7560 C   0  0  0  0  0  0  0  0  0  0  0  0
   43.1180   84.7690   59.1090 C   0  0  0  0  0  0  0  0  0  0  0  0
   42.4960   84.6130   60.3250 N   0  0  0  0  0  0  0  0  0  0  0  0
   42.6790   85.8040   58.1270 C   0  0  0  0  0  0  0  0  0  0  0  0
   41.4120   85.3460   57.4870 C   0  0  0  0  0  0  0  0  0  0  0  0
   39.9300   78.3280   59.7990 C   0  0  0  0  0  0  0  0  0  0  0  0
   39.6510   77.0660   60.1280 N   0  0  0  0  0  0  0  0  0  0  0  0
   39.0340   76.4750   59.0670 C   0  0  0  0  0  0  0  0  0  0  0  0
   39.0600   77.3530   58.0740 N   0  0  0  0  0  0  0  0  0  0  0  0
   39.5580   78.5010   58.5030 N   0  0  0  0  0  0  0  0  0  0  0  0
   38.0650   77.4810   57.0770 C   0  0  0  0  0  0  0  0  0  0  0  0
   38.5250   77.5330   55.6800 C   0  0  0  0  0  0  0  0  0  0  0  0
   38.3190   78.6390   54.9790 C   0  0  0  0  0  0  0  0  0  0  0  0
   38.7330   78.7250   53.6260 N   0  0  0  0  0  0  0  0  0  0  0  0
   39.4130   79.4540   52.6100 C   0  0  0  0  0  0  0  0  0  0  0  0
   39.6970   80.6880   52.4350 O   0  0  0  0  0  0  0  0  0  0  0  0
   39.6620   78.1900   51.8290 C   0  0  0  0  0  0  0  0  0  0  0  0
   38.4560   77.7230   52.5890 C   0  0  1  0  0  0  0  0  0  0  0  0
   38.5650   76.1010   53.3690 S   0  0  0  0  0  0  0  0  0  0  0  0
   39.2110   76.3990   55.0490 C   0  0  0  0  0  0  0  0  0  0  0  0
   37.6430   79.8030   55.5900 C   0  0  0  0  0  0  0  0  0  0  0  0
   37.3700   80.8730   54.9350 O   0  0  0  0  0  0  0  0  0  0  0  0
   37.0200   80.7200   56.3760 O   0  0  0  0  0  0  0  0  0  0  0  0
   42.7782   80.2839   62.9547 H   0  0  0  0  0  0  0  0  0  0  0  0
   42.1929   78.2776   61.5983 H   0  0  0  0  0  0  0  0  0  0  0  0
   42.8641   85.7037   62.7131 H   0  0  0  0  0  0  0  0  0  0  0  0
   40.1021   84.1776   65.5776 H   0  0  0  0  0  0  0  0  0  0  0  0
   44.3716   82.0799   61.4883 H   0  0  0  0  0  0  0  0  0  0  0  0
   45.4819   82.3576   59.3172 H   0  0  0  0  0  0  0  0  0  0  0  0
   44.6667   84.1024   57.7789 H   0  0  0  0  0  0  0  0  0  0  0  0
   42.5079   86.7585   58.6463 H   0  0  0  0  0  0  0  0  0  0  0  0
   43.4555   85.9489   57.3615 H   0  0  0  0  0  0  0  0  0  0  0  0
   40.6820   85.0821   58.2664 H   0  0  0  0  0  0  0  0  0  0  0  0
   41.0045   86.1537   56.8613 H   0  0  0  0  0  0  0  0  0  0  0  0
   41.6151   84.4644   56.8613 H   0  0  0  0  0  0  0  0  0  0  0  0
   39.5710   75.5596   58.7778 H   0  0  0  0  0  0  0  0  0  0  0  0
   38.0012   76.1913   59.3175 H   0  0  0  0  0  0  0  0  0  0  0  0
   39.6476   79.3683   57.9547 H   0  0  0  0  0  0  0  0  0  0  0  0
   37.3869   76.6200   57.1718 H   0  0  0  0  0  0  0  0  0  0  0  0
   37.5982   78.4597   57.2618 H   0  0  0  0  0  0  0  0  0  0  0  0
   39.5391   78.2694   50.7388 H   0  0  0  0  0  0  0  0  0  0  0  0
   40.6235   77.6565   51.7988 H   0  0  0  0  0  0  0  0  0  0  0  0
   37.5156   77.6389   52.0245 H   0  0  0  0  0  0  0  0  0  0  0  0
   39.0545   75.4979   55.6602 H   0  0  0  0  0  0  0  0  0  0  0  0
   40.2835   76.6327   54.9770 H   0  0  0  0  0  0  0  0  0  0  0  0
   36.7585   81.5979   56.0004 H   0  0  0  0  0  0  0  0  0  0  0  0
  1  2  2  0
  1  6  1  0
  3  2  1  0
  4  5  1  0
  4  3  2  0
  5  1  1  0
  6 11  2  0
  7  6  1  0
  7  8  2  0
  8  9  1  0
  9 10  2  0
 11 10  1  0
 12  7  1  0
 13 12  2  0
 14 13  1  0
 15 16  1  0
 15 14  2  0
 16 17  2  0
 17 12  1  0
 18 16  1  0
 19 18  1  0
 20 21  2  0
 20  4  1  0
 22 21  1  0
 23 24  1  0
 23 22  1  0
 24 20  1  0
 25 23  1  0
 26 25  1  0
 27 35  1  0
 27 26  2  0
 28 27  1  0
 29 28  1  0
 30 29  2  0
 31 29  1  0
 32 31  1  0
 32 33  1  0
 32 28  1  0
 33 34  1  0
 34 26  1  0
 35 37  1  0
 36 35  2  0
  2 38  1  0
  3 39  1  0
  8 40  1  0
 10 41  1  0
 13 42  1  0
 14 43  1  0
 15 44  1  0
 18 45  1  0
 18 46  1  0
 19 47  1  0
 19 48  1  0
 19 49  1  0
 22 50  1  0
 22 51  1  0
 24 52  1  0
 25 53  1  0
 25 54  1  0
 31 55  1  0
 31 56  1  0
 32 57  1  6
 34 58  1  0
 34 59  1  0
 37 60  1  0
M  END
>  <Score>  (1) 
-7.41644

>  <Score_dual>  (1) 
-8.23

>  <Choices>  (1) 
[None, 6, ['25-21', 60], 11, ['6-15', 120], 25, ['4-11', 15], 31, ['57-14', 105], 38, ['55-7', 300]]

$$$$
