
     RDKit          3D

 47 51  0  0  1  0  0  0  0  0999 V2000
   44.2800   79.4480   62.2090 S   0  0  0  0  0  0  0  0  0  0  0  0
   42.5410   79.0950   59.9450 N   0  0  0  0  0  0  0  0  0  0  0  0
   42.9350   78.8590   61.2150 C   0  0  0  0  0  0  0  0  0  0  0  0
   42.0920   77.9860   61.7930 N   0  0  0  0  0  0  0  0  0  0  0  0
   41.1350   77.6320   60.9250 C   0  0  0  0  0  0  0  0  0  0  0  0
   40.0180   76.8150   60.8730 C   0  0  0  0  0  0  0  0  0  0  0  0
   39.2690   76.7260   59.7340 N   0  0  0  0  0  0  0  0  0  0  0  0
   39.6060   77.4340   58.6470 C   0  0  0  0  0  0  0  0  0  0  0  0
   40.7040   78.2520   58.6650 N   0  0  0  0  0  0  0  0  0  0  0  0
   41.4420   78.3350   59.7950 C   0  0  0  0  0  0  0  0  0  0  0  0
   38.6910   77.1900   57.5780 N   0  0  0  0  0  0  0  0  0  0  0  0
   38.3440   78.3720   56.9920 C   0  0  0  0  0  0  0  0  0  0  0  0
   37.4560   78.3970   55.9170 C   0  0  0  0  0  0  0  0  0  0  0  0
   36.9440   77.1930   55.4720 C   0  0  0  0  0  0  0  0  0  0  0  0
   36.1350   77.1610   54.5020 O   0  0  0  0  0  0  0  0  0  0  0  0
   37.3240   76.0610   56.0940 N   0  0  0  0  0  0  0  0  0  0  0  0
   38.1830   76.0440   57.1310 C   0  0  0  0  0  0  0  0  0  0  0  0
   38.5810   75.0480   57.7530 O   0  0  0  0  0  0  0  0  0  0  0  0
   44.2490   81.2200   62.2690 C   0  0  0  0  0  0  0  0  0  0  0  0
   45.4350   81.9300   62.2690 C   0  0  0  0  0  0  0  0  0  0  0  0
   45.3680   83.3390   62.3240 C   0  0  0  0  0  0  0  0  0  0  0  0
   44.1440   83.9170   62.3720 N   0  0  0  0  0  0  0  0  0  0  0  0
   43.0170   83.1930   62.3690 C   0  0  0  0  0  0  0  0  0  0  0  0
   43.0800   81.8540   62.3180 N   0  0  0  0  0  0  0  0  0  0  0  0
   41.1360   84.2500   61.0910 C   0  0  2  0  0  0  0  0  0  0  0  0
   41.6770   83.8440   62.4350 C   0  0  1  0  0  0  0  0  0  0  0  0
   40.7220   83.0260   63.0090 O   0  0  0  0  0  0  0  0  0  0  0  0
   39.4900   83.4690   62.6010 C   0  0  0  0  0  0  0  0  0  0  0  0
   39.7010   83.8220   61.1460 C   0  0  1  0  0  0  0  0  0  0  0  0
   41.8450   83.6980   60.0130 O   0  0  0  0  0  0  0  0  0  0  0  0
   38.8390   84.8710   60.7470 O   0  0  0  0  0  0  0  0  0  0  0  0
   42.9814   79.7151   59.2505 H   0  0  0  0  0  0  0  0  0  0  0  0
   40.3637   75.7961   61.1016 H   0  0  0  0  0  0  0  0  0  0  0  0
   39.3289   77.2983   61.5812 H   0  0  0  0  0  0  0  0  0  0  0  0
   40.9640   78.7961   57.8300 H   0  0  0  0  0  0  0  0  0  0  0  0
   38.7683   79.3136   57.3707 H   0  0  0  0  0  0  0  0  0  0  0  0
   37.1719   79.3457   55.4381 H   0  0  0  0  0  0  0  0  0  0  0  0
   36.9394   75.1654   55.7609 H   0  0  0  0  0  0  0  0  0  0  0  0
   46.4042   81.4114   62.2273 H   0  0  0  0  0  0  0  0  0  0  0  0
   46.2830   83.9496   62.3278 H   0  0  0  0  0  0  0  0  0  0  0  0
   41.2416   85.3293   60.9069 H   0  0  0  0  0  0  0  0  0  0  0  0
   41.8560   84.7379   63.0505 H   0  0  0  0  0  0  0  0  0  0  0  0
   38.7335   82.6775   62.7071 H   0  0  0  0  0  0  0  0  0  0  0  0
   39.1228   84.3175   63.1970 H   0  0  0  0  0  0  0  0  0  0  0  0
   39.4806   82.9851   60.4671 H   0  0  0  0  0  0  0  0  0  0  0  0
   42.5774   83.1277   60.3571 H   0  0  0  0  0  0  0  0  0  0  0  0
   38.4709   85.3189   61.5495 H   0  0  0  0  0  0  0  0  0  0  0  0
  1 19  1  0
  2  3  1  0
  3  4  2  0
  3  1  1  0
  5  4  1  0
  6  5  1  0
  7  6  1  0
  8  9  1  0
  8  7  2  0
  9 10  1  0
 10  2  1  0
 10  5  2  0
 11  8  1  0
 12 11  1  0
 13 12  2  0
 14 13  1  0
 14 16  1  0
 15 14  2  0
 16 17  1  0
 17 11  1  0
 17 18  2  0
 19 24  1  0
 20 19  2  0
 20 21  1  0
 21 22  2  0
 23 22  1  0
 23 26  1  0
 24 23  2  0
 25 29  1  0
 25 26  1  0
 26 27  1  0
 28 27  1  0
 29 28  1  0
 30 25  1  0
 31 29  1  0
  2 32  1  0
  6 33  1  0
  6 34  1  0
  9 35  1  0
 12 36  1  0
 13 37  1  0
 16 38  1  0
 20 39  1  0
 21 40  1  0
 25 41  1  6
 26 42  1  1
 28 43  1  0
 28 44  1  0
 29 45  1  6
 30 46  1  0
 31 47  1  0
M  END
>  <Score>  (1) 
-7.47864

>  <Score_dual>  (1) 
-8.52

>  <Choices>  (1) 
[None, 6, ['17-17', 0], 10, ['45-17', 165], 23, ['14-12', 330], 35, ['37-15', 225]]

$$$$
