
     RDKit          3D

 51 55  0  0  1  0  0  0  0  0999 V2000
   43.1430   83.5520   62.7160 C   0  0  0  0  0  0  0  0  0  0  0  0
   43.8270   84.6100   62.0520 C   0  0  0  0  0  0  0  0  0  0  0  0
   44.9840   84.2810   61.3220 C   0  0  0  0  0  0  0  0  0  0  0  0
   45.3850   82.9960   61.2880 N   0  0  0  0  0  0  0  0  0  0  0  0
   44.7130   82.0240   61.9280 C   0  0  0  0  0  0  0  0  0  0  0  0
   43.6110   82.2840   62.6320 N   0  0  0  0  0  0  0  0  0  0  0  0
   41.9480   83.8390   63.4780 C   0  0  0  0  0  0  0  0  0  0  0  0
   40.6730   83.6550   63.0910 C   0  0  0  0  0  0  0  0  0  0  0  0
   39.8450   84.0480   64.0950 N   0  0  0  0  0  0  0  0  0  0  0  0
   40.6470   84.4820   65.1110 C   0  0  0  0  0  0  0  0  0  0  0  0
   41.9360   84.3570   64.7380 N   0  0  0  0  0  0  0  0  0  0  0  0
   40.1360   83.1460   61.8830 C   0  0  0  0  0  0  0  0  0  0  0  0
   39.4720   82.0860   61.7690 O   0  0  0  0  0  0  0  0  0  0  0  0
   40.1160   83.5450   60.5120 N   0  0  0  0  0  0  0  0  0  0  0  0
   39.4950   84.8110   60.4360 C   0  0  0  0  0  0  0  0  0  0  0  0
   39.5180   85.2140   58.9830 C   0  0  0  0  0  0  0  0  0  0  0  0
   40.4760   84.3090   58.3120 C   0  0  0  0  0  0  0  0  0  0  0  0
   40.5290   83.0650   59.1670 C   0  0  2  0  0  0  0  0  0  0  0  0
   39.6620   82.0820   58.7370 O   0  0  0  0  0  0  0  0  0  0  0  0
   45.1040   80.6080   61.9320 C   0  0  0  0  0  0  0  0  0  0  0  0
   45.0060   79.4940   61.1320 C   0  0  0  0  0  0  0  0  0  0  0  0
   45.6110   78.4750   61.7790 N   0  0  0  0  0  0  0  0  0  0  0  0
   46.0840   78.9090   62.9520 C   0  0  0  0  0  0  0  0  0  0  0  0
   45.7710   80.2240   63.0480 N   0  0  0  0  0  0  0  0  0  0  0  0
   46.3780   77.0040   64.5490 C   0  0  0  0  0  0  0  0  0  0  0  0
   46.8030   78.1800   63.9850 C   0  0  0  0  0  0  0  0  0  0  0  0
   48.0030   78.6320   64.4870 C   0  0  0  0  0  0  0  0  0  0  0  0
   48.7250   77.9800   65.4640 C   0  0  0  0  0  0  0  0  0  0  0  0
   48.2440   76.8000   65.9920 C   0  0  0  0  0  0  0  0  0  0  0  0
   47.0290   76.2990   65.5160 C   0  0  0  0  0  0  0  0  0  0  0  0
   45.1850   76.4340   64.1350 O   0  0  0  0  0  0  0  0  0  0  0  0
   46.5580   75.1100   66.0560 O   0  0  0  0  0  0  0  0  0  0  0  0
   43.4640   85.6469   62.1078 H   0  0  0  0  0  0  0  0  0  0  0  0
   45.5503   85.0590   60.7891 H   0  0  0  0  0  0  0  0  0  0  0  0
   38.8153   84.0232   64.0901 H   0  0  0  0  0  0  0  0  0  0  0  0
   40.2973   84.8712   66.0786 H   0  0  0  0  0  0  0  0  0  0  0  0
   38.4576   84.7474   60.7961 H   0  0  0  0  0  0  0  0  0  0  0  0
   40.0191   85.5488   61.0613 H   0  0  0  0  0  0  0  0  0  0  0  0
   38.5166   85.1024   58.5417 H   0  0  0  0  0  0  0  0  0  0  0  0
   39.8161   86.2664   58.8665 H   0  0  0  0  0  0  0  0  0  0  0  0
   40.1263   84.0633   57.2984 H   0  0  0  0  0  0  0  0  0  0  0  0
   41.4680   84.7727   58.2072 H   0  0  0  0  0  0  0  0  0  0  0  0
   41.5277   82.6047   59.1384 H   0  0  0  0  0  0  0  0  0  0  0  0
   39.2621   81.6286   59.5210 H   0  0  0  0  0  0  0  0  0  0  0  0
   44.5229   79.4424   60.1451 H   0  0  0  0  0  0  0  0  0  0  0  0
   45.6952   77.5119   61.4238 H   0  0  0  0  0  0  0  0  0  0  0  0
   48.4105   79.5708   64.0838 H   0  0  0  0  0  0  0  0  0  0  0  0
   49.6782   78.3980   65.8200 H   0  0  0  0  0  0  0  0  0  0  0  0
   48.8051   76.2642   66.7718 H   0  0  0  0  0  0  0  0  0  0  0  0
   44.6419   76.8758   63.4350 H   0  0  0  0  0  0  0  0  0  0  0  0
   47.0787   74.6445   66.7576 H   0  0  0  0  0  0  0  0  0  0  0  0
  1  7  1  0
  2  1  2  0
  3  2  1  0
  4  3  2  0
  4  5  1  0
  5 20  1  0
  5  6  2  0
  6  1  1  0
  7 11  1  0
  8  7  2  0
  8  9  1  0
  9 10  1  0
 11 10  2  0
 12  8  1  0
 13 12  2  0
 14 12  1  0
 15 14  1  0
 16 15  1  0
 17 16  1  0
 17 18  1  0
 18 14  1  0
 19 18  1  0
 20 24  1  0
 21 22  1  0
 21 20  2  0
 22 23  1  0
 23 24  2  0
 23 26  1  0
 25 30  2  0
 26 27  2  0
 26 25  1  0
 27 28  1  0
 28 29  2  0
 30 29  1  0
 30 32  1  0
 31 25  1  0
  2 33  1  0
  3 34  1  0
  9 35  1  0
 10 36  1  0
 15 37  1  0
 15 38  1  0
 16 39  1  0
 16 40  1  0
 17 41  1  0
 17 42  1  0
 18 43  1  1
 19 44  1  0
 21 45  1  0
 22 46  1  0
 27 47  1  0
 28 48  1  0
 29 49  1  0
 31 50  1  0
 32 51  1  0
M  END
>  <Score>  (1) 
-7.59435

>  <Score_dual>  (1) 
-8.37

>  <Choices>  (1) 
[None, 6, ['23-9', 180], 14, ['5-8', 345], 18, ['13-1', 120], 30, ['2-1', 330], 31, ['23-6', 210], 38, ['35-24', 60]]

$$$$
