
     RDKit          3D

 42 46  0  0  0  0  0  0  0  0999 V2000
   42.4590   84.6580   57.3440 C   0  0  0  0  0  0  0  0  0  0  0  0
   42.0070   83.6360   56.5310 C   0  0  0  0  0  0  0  0  0  0  0  0
   41.2170   82.6540   57.1000 C   0  0  0  0  0  0  0  0  0  0  0  0
   40.9240   82.7380   58.4240 N   0  0  0  0  0  0  0  0  0  0  0  0
   41.3840   83.7570   59.1950 C   0  0  0  0  0  0  0  0  0  0  0  0
   42.1520   84.7160   58.6570 N   0  0  0  0  0  0  0  0  0  0  0  0
   39.7990   83.3730   61.0450 C   0  0  0  0  0  0  0  0  0  0  0  0
   41.0270   83.7830   60.6230 C   0  0  0  0  0  0  0  0  0  0  0  0
   41.9600   84.2320   61.5250 C   0  0  0  0  0  0  0  0  0  0  0  0
   41.6980   84.2830   62.8630 C   0  0  0  0  0  0  0  0  0  0  0  0
   42.4110   84.6660   63.9280 N   0  0  0  0  0  0  0  0  0  0  0  0
   41.5950   84.4790   64.9910 C   0  0  0  0  0  0  0  0  0  0  0  0
   40.3860   83.9860   64.5900 N   0  0  0  0  0  0  0  0  0  0  0  0
   40.4230   83.8510   63.2500 C   0  0  0  0  0  0  0  0  0  0  0  0
   39.4550   83.3940   62.3800 C   0  0  0  0  0  0  0  0  0  0  0  0
   40.6910   81.5440   56.3340 C   0  0  0  0  0  0  0  0  0  0  0  0
   39.9160   80.5300   56.8140 C   0  0  0  0  0  0  0  0  0  0  0  0
   39.5610   79.6370   55.8950 N   0  0  0  0  0  0  0  0  0  0  0  0
   40.1360   80.0900   54.7490 C   0  0  0  0  0  0  0  0  0  0  0  0
   40.8040   81.2250   55.0320 N   0  0  0  0  0  0  0  0  0  0  0  0
   40.0910   79.5270   53.4390 N   0  0  0  0  0  0  0  0  0  0  0  0
   41.0890   77.1300   56.2930 Cl  0  0  0  0  0  0  0  0  0  0  0  0
   39.3490   77.2070   56.1950 C   0  0  0  0  0  0  0  0  0  0  0  0
   38.7700   78.4600   56.0050 C   0  0  0  0  0  0  0  0  0  0  0  0
   37.3900   78.5940   55.9180 C   0  0  0  0  0  0  0  0  0  0  0  0
   36.5640   77.5120   56.0150 C   0  0  0  0  0  0  0  0  0  0  0  0
   37.1380   76.2740   56.2020 C   0  0  0  0  0  0  0  0  0  0  0  0
   38.4950   76.1140   56.2920 C   0  0  0  0  0  0  0  0  0  0  0  0
   39.2540   74.5330   56.5320 Cl  0  0  0  0  0  0  0  0  0  0  0  0
   43.0880   85.4481   56.9079 H   0  0  0  0  0  0  0  0  0  0  0  0
   42.2679   83.6046   55.4629 H   0  0  0  0  0  0  0  0  0  0  0  0
   39.0663   83.0177   60.3055 H   0  0  0  0  0  0  0  0  0  0  0  0
   42.9445   84.5591   61.1592 H   0  0  0  0  0  0  0  0  0  0  0  0
   43.3758   85.0265   63.9370 H   0  0  0  0  0  0  0  0  0  0  0  0
   41.8678   84.6944   66.0346 H   0  0  0  0  0  0  0  0  0  0  0  0
   38.4657   83.0653   62.7311 H   0  0  0  0  0  0  0  0  0  0  0  0
   39.6113   80.4572   57.8685 H   0  0  0  0  0  0  0  0  0  0  0  0
   39.5669   78.6565   53.2703 H   0  0  0  0  0  0  0  0  0  0  0  0
   40.5826   79.9910   52.6619 H   0  0  0  0  0  0  0  0  0  0  0  0
   36.9541   79.5927   55.7678 H   0  0  0  0  0  0  0  0  0  0  0  0
   35.4720   77.6252   55.9459 H   0  0  0  0  0  0  0  0  0  0  0  0
   36.4886   75.3897   56.2812 H   0  0  0  0  0  0  0  0  0  0  0  0
  1  6  2  0
  2  3  2  0
  2  1  1  0
  3  4  1  0
  4  5  2  0
  5  8  1  0
  6  5  1  0
  7 15  2  0
  8  7  1  0
  8  9  2  0
  9 10  1  0
 10 14  2  0
 10 11  1  0
 11 12  1  0
 13 12  2  0
 14 13  1  0
 15 14  1  0
 16 17  2  0
 16  3  1  0
 18 24  1  0
 18 17  1  0
 19 20  2  0
 19 18  1  0
 20 16  1  0
 21 19  1  0
 23 28  2  0
 23 22  1  0
 24 23  1  0
 25 24  2  0
 25 26  1  0
 26 27  2  0
 27 28  1  0
 28 29  1  0
  1 30  1  0
  2 31  1  0
  7 32  1  0
  9 33  1  0
 11 34  1  0
 12 35  1  0
 15 36  1  0
 17 37  1  0
 21 38  1  0
 21 39  1  0
 25 40  1  0
 26 41  1  0
 27 42  1  0
M  END
>  <Score>  (1) 
-7.15567

>  <Score_dual>  (1) 
-7.85

>  <Choices>  (1) 
[None, 9, ['34-23', 255], 22, ['23-8', 120], 29, ['0-4', 0], 29, ['51-20', 60]]

$$$$
