
     RDKit          3D

 46 50  0  0  0  0  0  0  0  0999 V2000
   40.7560   83.8510   60.8780 C   0  0  0  0  0  0  0  0  0  0  0  0
   40.6760   82.4550   60.6940 C   0  0  0  0  0  0  0  0  0  0  0  0
   40.6950   81.6010   61.8070 C   0  0  0  0  0  0  0  0  0  0  0  0
   40.7910   82.1870   63.0210 N   0  0  0  0  0  0  0  0  0  0  0  0
   40.8660   83.5170   63.1800 C   0  0  0  0  0  0  0  0  0  0  0  0
   40.8510   84.3750   62.1190 N   0  0  0  0  0  0  0  0  0  0  0  0
   40.6150   80.1920   61.6210 N   0  0  0  0  0  0  0  0  0  0  0  0
   40.7920   79.2210   62.5530 C   0  0  0  0  0  0  0  0  0  0  0  0
   40.6430   77.9920   62.0330 N   0  0  0  0  0  0  0  0  0  0  0  0
   40.3600   78.1650   60.7180 C   0  0  0  0  0  0  0  0  0  0  0  0
   40.1030   77.3480   59.6540 C   0  0  0  0  0  0  0  0  0  0  0  0
   39.8440   77.8010   58.4190 N   0  0  0  0  0  0  0  0  0  0  0  0
   39.8330   79.1420   58.1990 C   0  0  0  0  0  0  0  0  0  0  0  0
   40.0810   79.9700   59.2210 N   0  0  0  0  0  0  0  0  0  0  0  0
   40.3430   79.5280   60.4710 C   0  0  0  0  0  0  0  0  0  0  0  0
   40.7400   84.7740   59.7480 C   0  0  0  0  0  0  0  0  0  0  0  0
   39.4980   85.1310   59.2510 C   0  0  0  0  0  0  0  0  0  0  0  0
   39.3650   86.0090   58.1710 C   0  0  0  0  0  0  0  0  0  0  0  0
   40.5000   86.5230   57.5960 C   0  0  0  0  0  0  0  0  0  0  0  0
   41.7350   86.1770   58.0780 C   0  0  0  0  0  0  0  0  0  0  0  0
   41.8460   85.2920   59.1650 C   0  0  0  0  0  0  0  0  0  0  0  0
   43.2160   82.8060   58.0900 Cl  0  0  0  0  0  0  0  0  0  0  0  0
   43.9660   83.8660   59.2550 C   0  0  0  0  0  0  0  0  0  0  0  0
   43.1860   84.9600   59.6350 C   0  0  0  0  0  0  0  0  0  0  0  0
   43.7300   85.8430   60.5620 C   0  0  0  0  0  0  0  0  0  0  0  0
   44.9820   85.6770   61.1060 C   0  0  0  0  0  0  0  0  0  0  0  0
   45.7420   84.5910   60.7210 C   0  0  0  0  0  0  0  0  0  0  0  0
   45.2280   83.6860   59.7920 C   0  0  0  0  0  0  0  0  0  0  0  0
   40.9730   84.1660   64.5130 C   0  0  0  0  0  0  0  0  0  0  0  0
   40.0780   83.6010   65.4090 F   0  0  0  0  0  0  0  0  0  0  0  0
   40.5700   85.4940   64.4170 F   0  0  0  0  0  0  0  0  0  0  0  0
   42.2810   84.1350   64.9460 F   0  0  0  0  0  0  0  0  0  0  0  0
   40.5988   82.0365   59.6797 H   0  0  0  0  0  0  0  0  0  0  0  0
   41.0293   79.4177   63.6089 H   0  0  0  0  0  0  0  0  0  0  0  0
   40.9832   76.6955   59.5565 H   0  0  0  0  0  0  0  0  0  0  0  0
   39.1270   76.9271   59.9373 H   0  0  0  0  0  0  0  0  0  0  0  0
   39.6233   79.5412   57.1957 H   0  0  0  0  0  0  0  0  0  0  0  0
   40.0718   80.9853   59.0478 H   0  0  0  0  0  0  0  0  0  0  0  0
   38.5935   84.7135   59.7174 H   0  0  0  0  0  0  0  0  0  0  0  0
   38.3701   86.2824   57.7897 H   0  0  0  0  0  0  0  0  0  0  0  0
   40.4180   87.2153   56.7451 H   0  0  0  0  0  0  0  0  0  0  0  0
   42.6415   86.5924   57.6136 H   0  0  0  0  0  0  0  0  0  0  0  0
   43.1324   86.7123   60.8736 H   0  0  0  0  0  0  0  0  0  0  0  0
   45.3724   86.3996   61.8378 H   0  0  0  0  0  0  0  0  0  0  0  0
   46.7462   84.4401   61.1438 H   0  0  0  0  0  0  0  0  0  0  0  0
   45.8325   82.8204   59.4834 H   0  0  0  0  0  0  0  0  0  0  0  0
  1  6  1  0
  2  1  2  0
  2  3  1  0
  3  4  2  0
  4  5  1  0
  5 29  1  0
  6  5  2  0
  7  3  1  0
  7  8  1  0
  9  8  2  0
 10  9  1  0
 11 10  1  0
 12 11  1  0
 13 12  2  0
 13 14  1  0
 14 15  1  0
 15 10  2  0
 15  7  1  0
 16  1  1  0
 17 16  2  0
 18 17  1  0
 19 20  1  0
 19 18  2  0
 20 21  2  0
 21 24  1  0
 21 16  1  0
 22 23  1  0
 23 24  2  0
 23 28  1  0
 24 25  1  0
 25 26  2  0
 27 26  1  0
 28 27  2  0
 29 32  1  0
 29 30  1  0
 31 29  1  0
  2 33  1  0
  8 34  1  0
 11 35  1  0
 11 36  1  0
 13 37  1  0
 14 38  1  0
 17 39  1  0
 18 40  1  0
 19 41  1  0
 20 42  1  0
 25 43  1  0
 26 44  1  0
 27 45  1  0
 28 46  1  0
M  END
>  <Score>  (1) 
-7.83666

>  <Score_dual>  (1) 
-7.19

>  <Choices>  (1) 
[None, 6, ['1-28', 270], 14, ['11-14', 45], 22, ['7-16', 0], 32, ['45-15', 255]]

$$$$
