
     RDKit          3D

 39 42  0  0  0  0  0  0  0  0999 V2000
   40.3040   80.1890   54.7760 Cl  0  0  0  0  0  0  0  0  0  0  0  0
   40.5340   81.0880   56.3000 C   0  0  0  0  0  0  0  0  0  0  0  0
   39.8100   80.6770   57.4180 C   0  0  0  0  0  0  0  0  0  0  0  0
   39.9490   81.3370   58.6220 C   0  0  0  0  0  0  0  0  0  0  0  0
   40.8260   82.4040   58.6590 C   0  0  0  0  0  0  0  0  0  0  0  0
   41.5470   82.8220   57.5670 C   0  0  0  0  0  0  0  0  0  0  0  0
   41.3860   82.1450   56.3860 C   0  0  0  0  0  0  0  0  0  0  0  0
   40.9620   83.0920   59.9450 C   0  0  0  0  0  0  0  0  0  0  0  0
   42.0230   83.9380   60.3210 C   0  0  0  0  0  0  0  0  0  0  0  0
   41.6950   84.3250   61.5870 N   0  0  0  0  0  0  0  0  0  0  0  0
   40.5330   83.7730   61.9730 C   0  0  0  0  0  0  0  0  0  0  0  0
   40.0900   83.0190   60.9600 N   0  0  0  0  0  0  0  0  0  0  0  0
   40.5640   84.1680   64.4410 C   0  0  0  0  0  0  0  0  0  0  0  0
   41.8280   84.2390   64.4300 O   0  0  0  0  0  0  0  0  0  0  0  0
   39.8620   83.9320   63.2160 N   0  0  0  0  0  0  0  0  0  0  0  0
   36.9310   78.6560   56.4160 C   0  0  0  0  0  0  0  0  0  0  0  0
   37.1720   77.4170   57.0050 C   0  0  0  0  0  0  0  0  0  0  0  0
   38.3300   77.2870   57.7450 C   0  0  0  0  0  0  0  0  0  0  0  0
   39.1600   78.3500   57.8620 N   0  0  0  0  0  0  0  0  0  0  0  0
   38.8980   79.5280   57.2820 C   0  0  0  0  0  0  0  0  0  0  0  0
   37.7640   79.6850   56.5470 N   0  0  0  0  0  0  0  0  0  0  0  0
   38.6310   76.0000   58.3860 C   0  0  0  0  0  0  0  0  0  0  0  0
   39.2350   74.9960   57.6650 C   0  0  0  0  0  0  0  0  0  0  0  0
   39.4860   73.8250   58.3220 C   0  0  0  0  0  0  0  0  0  0  0  0
   39.1410   73.7130   59.6020 N   0  0  0  0  0  0  0  0  0  0  0  0
   38.5420   74.7180   60.3030 C   0  0  0  0  0  0  0  0  0  0  0  0
   38.2880   75.8760   59.6710 N   0  0  0  0  0  0  0  0  0  0  0  0
   39.3855   81.0268   59.5143 H   0  0  0  0  0  0  0  0  0  0  0  0
   42.2352   83.6772   57.6384 H   0  0  0  0  0  0  0  0  0  0  0  0
   41.9525   82.4602   55.4973 H   0  0  0  0  0  0  0  0  0  0  0  0
   42.9082   84.2203   59.7322 H   0  0  0  0  0  0  0  0  0  0  0  0
   42.2629   84.9566   62.1696 H   0  0  0  0  0  0  0  0  0  0  0  0
   40.0099   84.2866   65.3838 H   0  0  0  0  0  0  0  0  0  0  0  0
   38.8338   83.8754   63.2360 H   0  0  0  0  0  0  0  0  0  0  0  0
   36.0164   78.7888   55.8194 H   0  0  0  0  0  0  0  0  0  0  0  0
   36.4700   76.5785   56.8856 H   0  0  0  0  0  0  0  0  0  0  0  0
   39.5038   75.1302   56.6068 H   0  0  0  0  0  0  0  0  0  0  0  0
   39.9673   72.9852   57.7994 H   0  0  0  0  0  0  0  0  0  0  0  0
   38.2731   74.5835   61.3611 H   0  0  0  0  0  0  0  0  0  0  0  0
  1  2  1  0
  2  7  2  0
  2  3  1  0
  3  4  2  0
  4  5  1  0
  5  8  1  0
  6  5  2  0
  7  6  1  0
  8  9  2  0
  8 12  1  0
  9 10  1  0
 10 11  1  0
 11 15  1  0
 12 11  2  0
 14 13  2  0
 15 13  1  0
 16 21  2  0
 16 17  1  0
 17 18  2  0
 18 19  1  0
 18 22  1  0
 20  3  1  0
 20 19  2  0
 21 20  1  0
 22 27  2  0
 23 24  2  0
 23 22  1  0
 24 25  1  0
 25 26  2  0
 27 26  1  0
  4 28  1  0
  6 29  1  0
  7 30  1  0
  9 31  1  0
 10 32  1  0
 13 33  1  0
 15 34  1  0
 16 35  1  0
 17 36  1  0
 23 37  1  0
 24 38  1  0
 26 39  1  0
M  END
>  <Score>  (1) 
-7.29753

>  <Score_dual>  (1) 
-7.08

>  <Choices>  (1) 
[None, 9, ['7-18', 60], 17, ['23-8', 315], 26, ['12-5', 150], 30, ['19-18', 345]]

$$$$
