
     RDKit          3D

 49 54  0  0  1  0  0  0  0  0999 V2000
   39.9780   80.8810   58.2320 C   0  0  0  0  0  0  0  0  0  0  0  0
   40.0750   81.6380   59.4100 C   0  0  0  0  0  0  0  0  0  0  0  0
   40.2610   80.9770   60.6180 C   0  0  0  0  0  0  0  0  0  0  0  0
   40.3570   79.6040   60.7130 C   0  0  0  0  0  0  0  0  0  0  0  0
   40.5350   78.7570   61.7440 N   0  0  0  0  0  0  0  0  0  0  0  0
   40.5510   77.5120   61.2360 C   0  0  0  0  0  0  0  0  0  0  0  0
   40.3800   77.5780   59.8750 N   0  0  0  0  0  0  0  0  0  0  0  0
   40.2580   78.8660   59.5230 C   0  0  0  0  0  0  0  0  0  0  0  0
   40.0710   79.5150   58.3170 C   0  0  0  0  0  0  0  0  0  0  0  0
   39.9710   78.7610   57.1120 N   0  0  0  0  0  0  0  0  0  0  0  0
   40.8130   78.4330   56.1220 C   0  0  0  0  0  0  0  0  0  0  0  0
   40.1670   77.6840   55.2160 N   0  0  0  0  0  0  0  0  0  0  0  0
   38.8970   77.5290   55.6290 C   0  0  0  0  0  0  0  0  0  0  0  0
   37.8740   76.8380   55.0180 C   0  0  1  0  0  0  0  0  0  0  0  0
   36.6910   76.8510   55.6650 N   0  0  0  0  0  0  0  0  0  0  0  0
   36.5140   77.4920   56.8270 C   0  0  0  0  0  0  0  0  0  0  0  0
   37.5350   78.1530   57.3870 N   0  0  0  0  0  0  0  0  0  0  0  0
   38.7690   78.1990   56.8120 C   0  0  0  0  0  0  0  0  0  0  0  0
   37.9560   76.1300   53.7950 N   0  0  0  0  0  0  0  0  0  0  0  0
   39.9870   83.4220   59.5270 S   0  0  0  0  0  0  0  0  0  0  0  0
   43.4100   84.6530   61.3220 C   0  0  0  0  0  0  0  0  0  0  0  0
   42.4960   84.2560   60.3170 C   0  0  0  0  0  0  0  0  0  0  0  0
   41.2120   83.9330   60.7170 C   0  0  0  0  0  0  0  0  0  0  0  0
   40.8930   84.0110   62.0390 N   0  0  0  0  0  0  0  0  0  0  0  0
   41.7820   84.3900   62.9670 C   0  0  0  0  0  0  0  0  0  0  0  0
   43.0310   84.7080   62.6040 N   0  0  0  0  0  0  0  0  0  0  0  0
   42.9800   84.2220   58.9590 C   0  0  0  0  0  0  0  0  0  0  0  0
   43.1500   85.1600   57.9730 C   0  0  0  0  0  0  0  0  0  0  0  0
   43.6640   84.5980   56.8150 C   0  0  0  0  0  0  0  0  0  0  0  0
   43.7890   83.2710   57.1740 C   0  0  0  0  0  0  0  0  0  0  0  0
   43.3920   83.1100   58.3870 O   0  0  0  0  0  0  0  0  0  0  0  0
   41.2150   84.4020   64.3410 C   0  0  0  0  0  0  0  0  0  0  0  0
   40.3410   83.3300   64.5170 F   0  0  0  0  0  0  0  0  0  0  0  0
   40.5220   85.5630   64.5810 F   0  0  0  0  0  0  0  0  0  0  0  0
   42.2310   84.3450   65.2740 F   0  0  0  0  0  0  0  0  0  0  0  0
   39.8303   81.3735   57.2596 H   0  0  0  0  0  0  0  0  0  0  0  0
   40.3349   81.5745   61.5386 H   0  0  0  0  0  0  0  0  0  0  0  0
   40.6394   79.0142   62.7359 H   0  0  0  0  0  0  0  0  0  0  0  0
   40.6805   76.5877   61.8181 H   0  0  0  0  0  0  0  0  0  0  0  0
   41.8699   78.7318   56.0619 H   0  0  0  0  0  0  0  0  0  0  0  0
   38.1625   75.9278   55.5642 H   0  0  0  0  0  0  0  0  0  0  0  0
   35.5313   77.4757   57.3209 H   0  0  0  0  0  0  0  0  0  0  0  0
   37.3825   78.6420   58.2806 H   0  0  0  0  0  0  0  0  0  0  0  0
   38.0724   75.1248   53.9873 H   0  0  0  0  0  0  0  0  0  0  0  0
   37.0922   76.2782   53.2539 H   0  0  0  0  0  0  0  0  0  0  0  0
   44.4413   84.9187   61.0467 H   0  0  0  0  0  0  0  0  0  0  0  0
   42.9082   86.2270   58.0872 H   0  0  0  0  0  0  0  0  0  0  0  0
   43.9087   85.0832   55.8586 H   0  0  0  0  0  0  0  0  0  0  0  0
   44.1705   82.4719   56.5214 H   0  0  0  0  0  0  0  0  0  0  0  0
  1  9  2  0
  1  2  1  0
  2 20  1  0
  2  3  2  0
  3  4  1  0
  4  5  1  0
  6  5  1  0
  7  6  2  0
  8  7  1  0
  8  4  2  0
  9  8  1  0
 10  9  1  0
 11 10  1  0
 12 13  1  0
 12 11  2  0
 13 18  2  0
 14 19  1  0
 14 13  1  0
 14 15  1  0
 15 16  2  0
 16 17  1  0
 18 10  1  0
 18 17  1  0
 20 23  1  0
 21 26  2  0
 22 23  2  0
 22 21  1  0
 23 24  1  0
 24 25  2  0
 25 32  1  0
 26 25  1  0
 27 22  1  0
 28 27  2  0
 29 30  2  0
 29 28  1  0
 30 31  1  0
 31 27  1  0
 32 33  1  0
 32 34  1  0
 32 35  1  0
  1 36  1  0
  3 37  1  0
  5 38  1  0
  6 39  1  0
 11 40  1  0
 14 41  1  1
 16 42  1  0
 17 43  1  0
 19 44  1  0
 19 45  1  0
 21 46  1  0
 28 47  1  0
 29 48  1  0
 30 49  1  0
M  END
>  <Score>  (1) 
-7.29377

>  <Score_dual>  (1) 
-8.1

>  <Choices>  (1) 
[None, 9, ['11-12', 60], 12, ['17-12', 0], 13, ['34-13', 345], 26, ['43-21', 15], 33, ['28-8', 135]]

$$$$
