
     RDKit          3D

 58 62  0  0  1  0  0  0  0  0999 V2000
   40.3110   79.4800   59.1610 C   0  0  0  0  0  0  0  0  0  0  0  0
   41.0610   80.1790   60.0510 C   0  0  0  0  0  0  0  0  0  0  0  0
   41.6010   81.4440   59.8940 C   0  0  0  0  0  0  0  0  0  0  0  0
   41.3340   82.0560   58.6640 C   0  0  0  0  0  0  0  0  0  0  0  0
   40.5950   81.4220   57.7280 C   0  0  0  0  0  0  0  0  0  0  0  0
   40.0690   80.1300   57.9470 C   0  0  0  0  0  0  0  0  0  0  0  0
   41.8740   82.8080   61.9950 C   0  0  0  0  0  0  0  0  0  0  0  0
   42.3760   81.9720   61.0320 C   0  0  0  0  0  0  0  0  0  0  0  0
   43.6780   81.5510   61.0650 C   0  0  0  0  0  0  0  0  0  0  0  0
   44.5160   81.9740   62.0860 C   0  0  0  0  0  0  0  0  0  0  0  0
   44.0430   82.8200   63.0740 C   0  0  0  0  0  0  0  0  0  0  0  0
   42.7200   83.2200   63.0020 C   0  0  0  0  0  0  0  0  0  0  0  0
   40.2600   83.2860   61.9490 S   0  0  0  0  0  0  0  0  0  0  0  0
   39.3110   82.1240   62.1060 O   0  0  0  0  0  0  0  0  0  0  0  0
   40.0640   84.0760   63.2870 O   0  0  0  0  0  0  0  0  0  0  0  0
   39.6430   84.4570   60.8970 C   0  0  0  0  0  0  0  0  0  0  0  0
   40.1020   77.5930   60.6080 C   0  0  0  0  0  0  0  0  0  0  0  0
   39.7640   78.1750   59.3560 C   0  0  0  0  0  0  0  0  0  0  0  0
   38.9860   77.4560   58.5150 C   0  0  0  0  0  0  0  0  0  0  0  0
   38.5470   76.2170   58.8670 N   0  0  0  0  0  0  0  0  0  0  0  0
   38.8830   75.6810   60.0720 C   0  0  0  0  0  0  0  0  0  0  0  0
   39.6620   76.3620   60.9500 N   0  0  0  0  0  0  0  0  0  0  0  0
   38.3330   74.3240   60.3650 C   0  0  0  0  0  0  0  0  0  0  0  0
   43.1260   72.3580   60.6130 C   0  0  0  0  0  0  0  0  0  0  0  0
   42.7810   73.6250   59.8190 C   0  0  0  0  0  0  0  0  0  0  0  0
   41.3580   73.4970   59.4860 N   0  0  0  0  0  0  0  0  0  0  0  0
   40.0420   73.3460   58.9300 C   0  0  0  0  0  0  0  0  0  0  0  0
   39.6730   73.3260   57.7220 O   0  0  0  0  0  0  0  0  0  0  0  0
   39.3760   73.2350   60.2600 C   0  0  1  0  0  0  0  0  0  0  0  0
   40.7050   73.6320   60.7980 C   0  0  1  0  0  0  0  0  0  0  0  0
   41.6260   72.3060   61.6750 S   0  0  0  0  0  0  0  0  0  0  0  0
   43.2030   71.1990   59.6800 C   0  0  0  0  0  0  0  0  0  0  0  0
   44.3290   72.5680   61.4750 C   0  0  0  0  0  0  0  0  0  0  0  0
   41.2636   79.6811   61.0107 H   0  0  0  0  0  0  0  0  0  0  0  0
   41.7293   83.0616   58.4579 H   0  0  0  0  0  0  0  0  0  0  0  0
   40.3977   81.9253   56.7700 H   0  0  0  0  0  0  0  0  0  0  0  0
   39.4715   79.6371   57.1660 H   0  0  0  0  0  0  0  0  0  0  0  0
   44.0592   80.8781   60.2828 H   0  0  0  0  0  0  0  0  0  0  0  0
   45.5623   81.6353   62.1107 H   0  0  0  0  0  0  0  0  0  0  0  0
   44.6968   83.1631   63.8894 H   0  0  0  0  0  0  0  0  0  0  0  0
   42.3284   83.8931   63.7789 H   0  0  0  0  0  0  0  0  0  0  0  0
   39.2084   85.2818   61.4807 H   0  0  0  0  0  0  0  0  0  0  0  0
   40.4542   84.8442   60.2629 H   0  0  0  0  0  0  0  0  0  0  0  0
   38.8650   84.0068   60.2629 H   0  0  0  0  0  0  0  0  0  0  0  0
   40.7335   78.1552   61.3116 H   0  0  0  0  0  0  0  0  0  0  0  0
   38.7057   77.8765   57.5380 H   0  0  0  0  0  0  0  0  0  0  0  0
   37.9252   74.3230   61.3866 H   0  0  0  0  0  0  0  0  0  0  0  0
   37.5560   74.1123   59.6157 H   0  0  0  0  0  0  0  0  0  0  0  0
   42.9544   74.5225   60.4309 H   0  0  0  0  0  0  0  0  0  0  0  0
   43.4053   73.7281   58.9192 H   0  0  0  0  0  0  0  0  0  0  0  0
   38.8375   72.3551   60.6417 H   0  0  0  0  0  0  0  0  0  0  0  0
   40.6623   74.5248   61.4391 H   0  0  0  0  0  0  0  0  0  0  0  0
   43.2650   70.2657   60.2589 H   0  0  0  0  0  0  0  0  0  0  0  0
   42.3043   71.1782   59.0461 H   0  0  0  0  0  0  0  0  0  0  0  0
   44.0966   71.2973   59.0461 H   0  0  0  0  0  0  0  0  0  0  0  0
   44.0349   72.5167   62.5337 H   0  0  0  0  0  0  0  0  0  0  0  0
   45.0731   71.7862   61.2628 H   0  0  0  0  0  0  0  0  0  0  0  0
   44.7642   73.5557   61.2628 H   0  0  0  0  0  0  0  0  0  0  0  0
  1 18  1  0
  1  2  2  0
  3  2  1  0
  3  8  1  0
  4  3  2  0
  5  6  2  0
  5  4  1  0
  6  1  1  0
  7 12  2  0
  8  9  2  0
  8  7  1  0
  9 10  1  0
 10 11  2  0
 12 11  1  0
 13  7  1  0
 13 14  2  0
 13 15  2  0
 16 13  1  0
 17 22  2  0
 18 17  1  0
 19 20  1  0
 19 18  2  0
 20 21  2  0
 21 23  1  0
 21 22  1  0
 24 33  1  0
 24 31  1  0
 25 24  1  0
 26 25  1  0
 26 30  1  0
 27 26  1  0
 27 29  1  0
 28 27  2  0
 29 23  1  0
 29 30  1  0
 30 31  1  0
 32 24  1  0
  2 34  1  0
  4 35  1  0
  5 36  1  0
  6 37  1  0
  9 38  1  0
 10 39  1  0
 11 40  1  0
 12 41  1  0
 16 42  1  0
 16 43  1  0
 16 44  1  0
 17 45  1  0
 19 46  1  0
 23 47  1  0
 23 48  1  0
 25 49  1  0
 25 50  1  0
 29 51  1  1
 30 52  1  1
 32 53  1  0
 32 54  1  0
 32 55  1  0
 33 56  1  0
 33 57  1  0
 33 58  1  0
M  END
>  <Score>  (1) 
-7.31167

>  <Score_dual>  (1) 
-7.38

>  <Choices>  (1) 
[None, 7, ['1-28', 285], 16, ['27-21', 165], 32, ['3-1', 0], 35, ['3-11', 0], 38, ['53-20', 150]]

$$$$
