
     RDKit          3D

 47 51  0  0  0  0  0  0  0  0999 V2000
   40.2890   81.3310   59.8000 C   0  0  0  0  0  0  0  0  0  0  0  0
   40.4860   81.9630   58.5910 C   0  0  0  0  0  0  0  0  0  0  0  0
   40.4920   81.1070   57.4790 C   0  0  0  0  0  0  0  0  0  0  0  0
   40.3130   79.7660   57.6210 C   0  0  0  0  0  0  0  0  0  0  0  0
   40.1170   79.1560   58.8390 C   0  0  0  0  0  0  0  0  0  0  0  0
   40.1110   79.9980   59.9310 N   0  0  0  0  0  0  0  0  0  0  0  0
   39.9500   77.7930   59.1120 N   0  0  0  0  0  0  0  0  0  0  0  0
   40.7990   77.0350   60.0130 C   0  0  0  0  0  0  0  0  0  0  0  0
   39.9160   76.5930   61.1340 C   0  0  0  0  0  0  0  0  0  0  0  0
   38.9730   75.6680   60.6500 N   0  0  0  0  0  0  0  0  0  0  0  0
   38.4350   75.8490   59.3350 C   0  0  0  0  0  0  0  0  0  0  0  0
   38.9460   76.9880   58.5660 C   0  0  0  0  0  0  0  0  0  0  0  0
   38.1910   77.0750   57.3790 C   0  0  0  0  0  0  0  0  0  0  0  0
   36.8810   77.4870   57.1770 C   0  0  0  0  0  0  0  0  0  0  0  0
   36.0960   77.5130   56.0710 C   0  0  0  0  0  0  0  0  0  0  0  0
   36.6830   77.0500   54.9180 C   0  0  0  0  0  0  0  0  0  0  0  0
   37.9920   76.6000   54.9530 C   0  0  0  0  0  0  0  0  0  0  0  0
   38.4600   76.1200   53.7500 C   0  0  0  0  0  0  0  0  0  0  0  0
   39.7280   75.6060   53.6930 C   0  0  0  0  0  0  0  0  0  0  0  0
   40.4930   75.5900   54.8610 C   0  0  0  0  0  0  0  0  0  0  0  0
   39.9510   76.0880   56.0160 C   0  0  0  0  0  0  0  0  0  0  0  0
   38.7070   76.6170   56.1560 C   0  0  0  0  0  0  0  0  0  0  0  0
   39.5370   83.9740   62.2990 C   0  0  0  0  0  0  0  0  0  0  0  0
   39.4940   83.2310   61.1120 C   0  0  0  0  0  0  0  0  0  0  0  0
   40.2970   82.1220   61.0090 C   0  0  0  0  0  0  0  0  0  0  0  0
   41.1040   81.8000   62.0830 N   0  0  0  0  0  0  0  0  0  0  0  0
   41.1260   82.5320   63.2120 C   0  0  0  0  0  0  0  0  0  0  0  0
   40.3490   83.6090   63.3200 N   0  0  0  0  0  0  0  0  0  0  0  0
   40.6271   83.0505   58.5048 H   0  0  0  0  0  0  0  0  0  0  0  0
   40.6442   81.5281   56.4742 H   0  0  0  0  0  0  0  0  0  0  0  0
   40.3255   79.1383   56.7178 H   0  0  0  0  0  0  0  0  0  0  0  0
   41.2246   76.1631   59.4947 H   0  0  0  0  0  0  0  0  0  0  0  0
   41.6421   77.6401   60.3778 H   0  0  0  0  0  0  0  0  0  0  0  0
   40.5264   76.1191   61.9168 H   0  0  0  0  0  0  0  0  0  0  0  0
   39.3930   77.4644   61.5549 H   0  0  0  0  0  0  0  0  0  0  0  0
   38.6741   74.8728   61.2324 H   0  0  0  0  0  0  0  0  0  0  0  0
   37.6764   75.1675   58.9226 H   0  0  0  0  0  0  0  0  0  0  0  0
   36.3863   77.8632   58.0846 H   0  0  0  0  0  0  0  0  0  0  0  0
   35.0593   77.8800   56.0955 H   0  0  0  0  0  0  0  0  0  0  0  0
   36.1174   77.0370   53.9746 H   0  0  0  0  0  0  0  0  0  0  0  0
   37.8267   76.1490   52.8511 H   0  0  0  0  0  0  0  0  0  0  0  0
   40.1346   75.2147   52.7488 H   0  0  0  0  0  0  0  0  0  0  0  0
   41.5152   75.1837   54.8536 H   0  0  0  0  0  0  0  0  0  0  0  0
   40.5827   76.0568   56.9160 H   0  0  0  0  0  0  0  0  0  0  0  0
   38.9024   84.8664   62.4034 H   0  0  0  0  0  0  0  0  0  0  0  0
   38.8339   83.5284   60.2839 H   0  0  0  0  0  0  0  0  0  0  0  0
   41.7842   82.2417   64.0442 H   0  0  0  0  0  0  0  0  0  0  0  0
  1  6  1  0
  1 25  1  0
  2  1  2  0
  3  4  2  0
  3  2  1  0
  4  5  1  0
  5  7  1  0
  5  6  2  0
  7  8  1  0
  8  9  1  0
 10  9  1  0
 11 10  1  0
 12  7  1  0
 12 11  2  0
 13 12  1  0
 14 13  2  0
 15 14  1  0
 16 17  1  0
 16 15  2  0
 17 22  2  0
 18 17  1  0
 19 18  2  0
 19 20  1  0
 20 21  2  0
 21 22  1  0
 22 13  1  0
 23 28  2  0
 24 23  1  0
 25 24  2  0
 25 26  1  0
 26 27  2  0
 27 28  1  0
  2 29  1  0
  3 30  1  0
  4 31  1  0
  8 32  1  0
  8 33  1  0
  9 34  1  0
  9 35  1  0
 10 36  1  0
 11 37  1  0
 14 38  1  0
 15 39  1  0
 16 40  1  0
 18 41  1  0
 19 42  1  0
 20 43  1  0
 21 44  1  0
 23 45  1  0
 24 46  1  0
 27 47  1  0
M  END
>  <Score>  (1) 
-7.14019

>  <Score_dual>  (1) 
-7.69

>  <Choices>  (1) 
[None, 8, ['6-17', 165], 18, ['15-6', 345], 30, ['26-22', 195]]

$$$$
