
     RDKit          3D

 42 46  0  0  0  0  0  0  0  0999 V2000
   43.0800   77.8530   59.2140 Cl  0  0  0  0  0  0  0  0  0  0  0  0
   41.6800   76.9850   59.7620 C   0  0  0  0  0  0  0  0  0  0  0  0
   40.5290   77.6670   60.0490 C   0  0  0  0  0  0  0  0  0  0  0  0
   39.4480   76.8850   60.4790 C   0  0  0  0  0  0  0  0  0  0  0  0
   39.5280   75.5250   60.6070 C   0  0  0  0  0  0  0  0  0  0  0  0
   40.7050   74.8640   60.3090 C   0  0  0  0  0  0  0  0  0  0  0  0
   41.7900   75.6160   59.8810 C   0  0  0  0  0  0  0  0  0  0  0  0
   41.5340   72.8940   61.5270 C   0  0  0  0  0  0  0  0  0  0  0  0
   40.9040   73.4100   60.4080 C   0  0  0  0  0  0  0  0  0  0  0  0
   40.5130   72.4760   59.4700 C   0  0  0  0  0  0  0  0  0  0  0  0
   40.7440   71.1410   59.6540 C   0  0  0  0  0  0  0  0  0  0  0  0
   40.4780   70.0410   58.9210 N   0  0  0  0  0  0  0  0  0  0  0  0
   40.8970   68.9410   59.5160 N   0  0  0  0  0  0  0  0  0  0  0  0
   41.4680   69.2640   60.6850 C   0  0  0  0  0  0  0  0  0  0  0  0
   41.3700   70.6560   60.7680 C   0  0  0  0  0  0  0  0  0  0  0  0
   41.7740   71.5460   61.7260 C   0  0  0  0  0  0  0  0  0  0  0  0
   40.0710   81.0920   58.5890 C   0  0  0  0  0  0  0  0  0  0  0  0
   40.1090   79.6990   58.7110 C   0  0  0  0  0  0  0  0  0  0  0  0
   40.4970   79.1060   59.8820 C   0  0  0  0  0  0  0  0  0  0  0  0
   40.8570   79.9130   60.9480 N   0  0  0  0  0  0  0  0  0  0  0  0
   40.8170   81.2590   60.8140 C   0  0  0  0  0  0  0  0  0  0  0  0
   40.4300   81.8590   59.6540 N   0  0  0  0  0  0  0  0  0  0  0  0
   41.1970   82.1100   61.9340 C   0  0  0  0  0  0  0  0  0  0  0  0
   42.5070   82.5140   62.0800 C   0  0  0  0  0  0  0  0  0  0  0  0
   42.9340   83.3150   63.1110 C   0  0  0  0  0  0  0  0  0  0  0  0
   41.9530   83.6900   63.9950 C   0  0  0  0  0  0  0  0  0  0  0  0
   40.6310   83.2980   63.8710 C   0  0  0  0  0  0  0  0  0  0  0  0
   40.2930   82.5200   62.8450 N   0  0  0  0  0  0  0  0  0  0  0  0
   38.4986   77.3840   60.7230 H   0  0  0  0  0  0  0  0  0  0  0  0
   38.6515   74.9549   60.9487 H   0  0  0  0  0  0  0  0  0  0  0  0
   42.7400   75.1185   59.6361 H   0  0  0  0  0  0  0  0  0  0  0  0
   41.8638   73.5981   62.3051 H   0  0  0  0  0  0  0  0  0  0  0  0
   40.0045   72.8130   58.5546 H   0  0  0  0  0  0  0  0  0  0  0  0
   40.0045   70.0577   58.0064 H   0  0  0  0  0  0  0  0  0  0  0  0
   41.9171   68.5806   61.4208 H   0  0  0  0  0  0  0  0  0  0  0  0
   42.2803   71.1960   62.6377 H   0  0  0  0  0  0  0  0  0  0  0  0
   39.7553   81.5608   57.6453 H   0  0  0  0  0  0  0  0  0  0  0  0
   39.8231   79.0715   57.8540 H   0  0  0  0  0  0  0  0  0  0  0  0
   43.2449   82.1792   61.3360 H   0  0  0  0  0  0  0  0  0  0  0  0
   43.9818   83.6317   63.2199 H   0  0  0  0  0  0  0  0  0  0  0  0
   42.2308   84.3332   64.8430 H   0  0  0  0  0  0  0  0  0  0  0  0
   39.8771   83.6220   64.6036 H   0  0  0  0  0  0  0  0  0  0  0  0
  1  2  1  0
  2  7  2  0
  2  3  1  0
  3  4  2  0
  4  5  1  0
  6  9  1  0
  6  5  2  0
  7  6  1  0
  8 16  2  0
  9  8  1  0
 10 11  1  0
 10  9  2  0
 11 15  2  0
 12 13  1  0
 12 11  1  0
 13 14  2  0
 14 15  1  0
 15 16  1  0
 17 18  2  0
 17 22  1  0
 18 19  1  0
 19  3  1  0
 19 20  2  0
 21 20  1  0
 21 23  1  0
 22 21  2  0
 23 24  2  0
 23 28  1  0
 24 25  1  0
 25 26  2  0
 27 26  1  0
 28 27  2  0
  4 29  1  0
  5 30  1  0
  7 31  1  0
  8 32  1  0
 10 33  1  0
 12 34  1  0
 14 35  1  0
 16 36  1  0
 17 37  1  0
 18 38  1  0
 24 39  1  0
 25 40  1  0
 26 41  1  0
 27 42  1  0
M  END
>  <Score>  (1) 
-7.37779

>  <Score_dual>  (1) 
-8.75

>  <Choices>  (1) 
[None, 8, ['7-18', 120], 18, ['54-9', 240], 32, ['6-18', 90]]

$$$$
