
     RDKit          3D

 40 44  0  0  0  0  0  0  0  0999 V2000
   38.3440   77.0620   58.5060 Cl  0  0  0  0  0  0  0  0  0  0  0  0
   39.7550   76.5160   59.3410 C   0  0  0  0  0  0  0  0  0  0  0  0
   40.6620   77.4280   59.7870 C   0  0  0  0  0  0  0  0  0  0  0  0
   41.7740   76.9010   60.4590 C   0  0  0  0  0  0  0  0  0  0  0  0
   41.9480   75.5580   60.6580 C   0  0  0  0  0  0  0  0  0  0  0  0
   41.0050   74.6580   60.1910 C   0  0  0  0  0  0  0  0  0  0  0  0
   39.9070   75.1530   59.5290 C   0  0  0  0  0  0  0  0  0  0  0  0
   41.5840   72.6790   61.5350 C   0  0  0  0  0  0  0  0  0  0  0  0
   41.0880   73.1980   60.3510 C   0  0  0  0  0  0  0  0  0  0  0  0
   40.7090   72.2630   59.4120 C   0  0  0  0  0  0  0  0  0  0  0  0
   40.8190   70.9230   59.6440 C   0  0  0  0  0  0  0  0  0  0  0  0
   40.5350   69.8250   58.9260 N   0  0  0  0  0  0  0  0  0  0  0  0
   40.8230   68.7130   59.5930 N   0  0  0  0  0  0  0  0  0  0  0  0
   41.3210   69.0370   60.8060 C   0  0  0  0  0  0  0  0  0  0  0  0
   41.3170   70.4260   60.8330 C   0  0  0  0  0  0  0  0  0  0  0  0
   41.7040   71.3250   61.7910 C   0  0  0  0  0  0  0  0  0  0  0  0
   39.9750   80.7140   58.1140 C   0  0  0  0  0  0  0  0  0  0  0  0
   40.2110   79.3500   58.3030 C   0  0  0  0  0  0  0  0  0  0  0  0
   40.4400   78.8480   59.5750 C   0  0  0  0  0  0  0  0  0  0  0  0
   40.4370   79.7090   60.6600 N   0  0  0  0  0  0  0  0  0  0  0  0
   40.2060   81.0210   60.4330 C   0  0  0  0  0  0  0  0  0  0  0  0
   39.9770   81.5390   59.1970 N   0  0  0  0  0  0  0  0  0  0  0  0
   40.2050   81.9200   61.5830 C   0  0  0  0  0  0  0  0  0  0  0  0
   41.1910   82.0100   62.5470 C   0  0  0  0  0  0  0  0  0  0  0  0
   40.7670   82.9790   63.4220 C   0  0  0  0  0  0  0  0  0  0  0  0
   39.5800   83.4700   63.0260 N   0  0  0  0  0  0  0  0  0  0  0  0
   39.2660   82.8160   61.9180 N   0  0  0  0  0  0  0  0  0  0  0  0
   42.5372   77.5947   60.8416 H   0  0  0  0  0  0  0  0  0  0  0  0
   42.8389   75.1929   61.1900 H   0  0  0  0  0  0  0  0  0  0  0  0
   39.1430   74.4607   59.1456 H   0  0  0  0  0  0  0  0  0  0  0  0
   41.9010   73.3843   62.3173 H   0  0  0  0  0  0  0  0  0  0  0  0
   40.3063   72.6070   58.4479 H   0  0  0  0  0  0  0  0  0  0  0  0
   40.1418   69.8426   57.9742 H   0  0  0  0  0  0  0  0  0  0  0  0
   41.6561   68.3516   61.5984 H   0  0  0  0  0  0  0  0  0  0  0  0
   42.1057   70.9743   62.7531 H   0  0  0  0  0  0  0  0  0  0  0  0
   39.7905   81.1149   57.1064 H   0  0  0  0  0  0  0  0  0  0  0  0
   40.2152   78.6706   57.4379 H   0  0  0  0  0  0  0  0  0  0  0  0
   42.1219   81.4266   62.6018 H   0  0  0  0  0  0  0  0  0  0  0  0
   41.3179   83.3058   64.3163 H   0  0  0  0  0  0  0  0  0  0  0  0
   39.0273   84.2051   63.4898 H   0  0  0  0  0  0  0  0  0  0  0  0
  1  2  1  0
  2  7  2  0
  2  3  1  0
  3  4  2  0
  4  5  1  0
  6  9  1  0
  6  5  2  0
  7  6  1  0
  8 16  2  0
  9  8  1  0
 10 11  1  0
 10  9  2  0
 11 15  2  0
 12 13  1  0
 12 11  1  0
 13 14  2  0
 14 15  1  0
 15 16  1  0
 17 18  2  0
 17 22  1  0
 18 19  1  0
 19  3  1  0
 19 20  2  0
 21 20  1  0
 21 23  1  0
 22 21  2  0
 23 27  2  0
 23 24  1  0
 24 25  2  0
 26 25  1  0
 27 26  1  0
  4 28  1  0
  5 29  1  0
  7 30  1  0
  8 31  1  0
 10 32  1  0
 12 33  1  0
 14 34  1  0
 16 35  1  0
 17 36  1  0
 18 37  1  0
 24 38  1  0
 25 39  1  0
 26 40  1  0
M  END
>  <Score>  (1) 
-7.48222

>  <Score_dual>  (1) 
-8.47

>  <Choices>  (1) 
[None, 8, ['7-18', 120], 18, ['54-9', 240], 32, ['22-8', 210]]

$$$$
