
     RDKit          3D

 42 45  0  0  0  0  0  0  0  0999 V2000
   40.3810   77.6170   61.7370 C   0  0  0  0  0  0  0  0  0  0  0  0
   41.4710   81.1160   61.5320 C   0  0  0  0  0  0  0  0  0  0  0  0
   42.8230   81.0730   61.7640 C   0  0  0  0  0  0  0  0  0  0  0  0
   43.4100   79.8240   62.0010 C   0  0  0  0  0  0  0  0  0  0  0  0
   42.5870   78.7390   61.9830 N   0  0  0  0  0  0  0  0  0  0  0  0
   41.2820   78.8250   61.7550 C   0  0  0  0  0  0  0  0  0  0  0  0
   40.6770   80.0180   61.5210 N   0  0  0  0  0  0  0  0  0  0  0  0
   40.7600   82.3560   61.2760 N   0  0  0  0  0  0  0  0  0  0  0  0
   40.7350   82.6560   59.9250 C   0  0  0  0  0  0  0  0  0  0  0  0
   40.1100   83.7910   59.4580 C   0  0  0  0  0  0  0  0  0  0  0  0
   39.5050   84.6240   60.3900 C   0  0  0  0  0  0  0  0  0  0  0  0
   38.9310   85.6620   59.9900 O   0  0  0  0  0  0  0  0  0  0  0  0
   39.5560   84.2930   61.6750 N   0  0  0  0  0  0  0  0  0  0  0  0
   40.1660   83.1870   62.1210 C   0  0  0  0  0  0  0  0  0  0  0  0
   40.2570   82.8110   63.2870 O   0  0  0  0  0  0  0  0  0  0  0  0
   40.5420   76.8400   60.4760 C   0  0  0  0  0  0  0  0  0  0  0  0
   40.2640   78.1150   58.3360 C   0  0  0  0  0  0  0  0  0  0  0  0
   39.8010   77.2120   59.3000 C   0  0  0  0  0  0  0  0  0  0  0  0
   38.5540   76.6800   59.0570 C   0  0  0  0  0  0  0  0  0  0  0  0
   37.7850   76.9870   57.9540 C   0  0  0  0  0  0  0  0  0  0  0  0
   36.5680   76.5750   57.5550 N   0  0  0  0  0  0  0  0  0  0  0  0
   36.2820   77.1930   56.3910 C   0  0  0  0  0  0  0  0  0  0  0  0
   37.3330   77.9930   56.0710 N   0  0  0  0  0  0  0  0  0  0  0  0
   38.2820   77.8790   57.0340 C   0  0  0  0  0  0  0  0  0  0  0  0
   39.5370   78.4590   57.2130 C   0  0  0  0  0  0  0  0  0  0  0  0
   40.0690   79.4190   56.2200 C   0  0  0  0  0  0  0  0  0  0  0  0
   40.6317   76.9703   62.5908 H   0  0  0  0  0  0  0  0  0  0  0  0
   39.3381   77.9608   61.8021 H   0  0  0  0  0  0  0  0  0  0  0  0
   43.4273   81.9921   61.7638 H   0  0  0  0  0  0  0  0  0  0  0  0
   44.4884   79.7236   62.1933 H   0  0  0  0  0  0  0  0  0  0  0  0
   41.2230   81.9757   59.2115 H   0  0  0  0  0  0  0  0  0  0  0  0
   40.0907   84.0293   58.3843 H   0  0  0  0  0  0  0  0  0  0  0  0
   39.1055   84.9157   62.3607 H   0  0  0  0  0  0  0  0  0  0  0  0
   41.6077   76.8881   60.2077 H   0  0  0  0  0  0  0  0  0  0  0  0
   40.1280   75.8538   60.7331 H   0  0  0  0  0  0  0  0  0  0  0  0
   41.2540   78.5725   58.4795 H   0  0  0  0  0  0  0  0  0  0  0  0
   38.1462   75.9661   59.7878 H   0  0  0  0  0  0  0  0  0  0  0  0
   35.9619   75.9059   58.0509 H   0  0  0  0  0  0  0  0  0  0  0  0
   35.3600   77.0710   55.8037 H   0  0  0  0  0  0  0  0  0  0  0  0
   40.5381   80.2654   56.7431 H   0  0  0  0  0  0  0  0  0  0  0  0
   40.8177   78.9172   55.5895 H   0  0  0  0  0  0  0  0  0  0  0  0
   39.2466   79.7879   55.5895 H   0  0  0  0  0  0  0  0  0  0  0  0
  1  6  1  0
  2  3  2  0
  3  4  1  0
  5  4  2  0
  6  5  1  0
  7  2  1  0
  7  6  2  0
  8  2  1  0
  8 14  1  0
  9  8  1  0
 10  9  2  0
 10 11  1  0
 11 13  1  0
 12 11  2  0
 13 14  1  0
 14 15  2  0
 16  1  1  0
 17 18  2  0
 18 16  1  0
 19 18  1  0
 20 19  2  0
 21 20  1  0
 22 21  1  0
 23 22  2  0
 23 24  1  0
 24 25  2  0
 24 20  1  0
 25 17  1  0
 26 25  1  0
  1 27  1  0
  1 28  1  0
  3 29  1  0
  4 30  1  0
  9 31  1  0
 10 32  1  0
 13 33  1  0
 16 34  1  0
 16 35  1  0
 17 36  1  0
 19 37  1  0
 21 38  1  0
 22 39  1  0
 26 40  1  0
 26 41  1  0
 26 42  1  0
M  END
>  <Score>  (1) 
-7.03225

>  <Score_dual>  (1) 
-7.07

>  <Choices>  (1) 
[None, 6, ['37-16', 135], 19, ['4-9', 270], 25, ['34-15', 255], 38, ['3-7', 0]]

$$$$
