
     RDKit          3D

 51 56  0  0  0  0  0  0  0  0999 V2000
   41.8600   80.9650   59.6650 O   0  0  0  0  0  0  0  0  0  0  0  0
   42.6890   81.3640   60.7040 C   0  0  0  0  0  0  0  0  0  0  0  0
   42.3890   82.3740   61.5500 C   0  0  0  0  0  0  0  0  0  0  0  0
   43.2880   82.6950   62.5590 C   0  0  0  0  0  0  0  0  0  0  0  0
   44.4830   81.9830   62.6940 C   0  0  0  0  0  0  0  0  0  0  0  0
   45.5150   82.0720   63.5560 N   0  0  0  0  0  0  0  0  0  0  0  0
   46.4260   81.1350   63.2410 C   0  0  0  0  0  0  0  0  0  0  0  0
   45.9590   80.4620   62.1810 N   0  0  0  0  0  0  0  0  0  0  0  0
   44.7550   80.9520   61.8050 C   0  0  0  0  0  0  0  0  0  0  0  0
   43.8650   80.6180   60.7900 C   0  0  0  0  0  0  0  0  0  0  0  0
   39.6840   84.6840   60.3500 C   0  0  0  0  0  0  0  0  0  0  0  0
   40.9460   84.0790   60.4280 C   0  0  0  0  0  0  0  0  0  0  0  0
   41.1280   83.0850   61.3640 C   0  0  0  0  0  0  0  0  0  0  0  0
   40.0870   82.7500   62.1490 N   0  0  0  0  0  0  0  0  0  0  0  0
   38.8790   83.3380   62.0660 C   0  0  0  0  0  0  0  0  0  0  0  0
   38.6670   84.3210   61.1530 N   0  0  0  0  0  0  0  0  0  0  0  0
   40.2830   79.4990   58.6060 C   0  0  0  0  0  0  0  0  0  0  0  0
   41.1240   79.8200   59.6540 C   0  0  0  0  0  0  0  0  0  0  0  0
   41.1690   78.8940   60.6990 C   0  0  0  0  0  0  0  0  0  0  0  0
   40.4160   77.7340   60.6780 C   0  0  0  0  0  0  0  0  0  0  0  0
   40.2730   76.6920   61.5360 N   0  0  0  0  0  0  0  0  0  0  0  0
   39.4160   75.8230   61.0380 N   0  0  0  0  0  0  0  0  0  0  0  0
   38.9810   76.2910   59.8310 C   0  0  0  0  0  0  0  0  0  0  0  0
   39.6100   77.4900   59.6070 C   0  0  0  0  0  0  0  0  0  0  0  0
   39.5200   78.3620   58.5440 C   0  0  0  0  0  0  0  0  0  0  0  0
   38.6980   78.1570   57.4020 N   0  0  0  0  0  0  0  0  0  0  0  0
   38.1390   76.8980   57.0170 C   0  0  0  0  0  0  0  0  0  0  0  0
   36.8590   77.0410   56.2310 C   0  0  0  0  0  0  0  0  0  0  0  0
   37.1060   77.9830   55.1560 N   0  0  0  0  0  0  0  0  0  0  0  0
   37.3030   79.2750   55.7480 C   0  0  0  0  0  0  0  0  0  0  0  0
   38.4830   79.3750   56.6630 C   0  0  0  0  0  0  0  0  0  0  0  0
   43.0580   83.5144   63.2559 H   0  0  0  0  0  0  0  0  0  0  0  0
   45.5930   82.7475   64.3297 H   0  0  0  0  0  0  0  0  0  0  0  0
   47.3797   80.9541   63.7585 H   0  0  0  0  0  0  0  0  0  0  0  0
   44.0789   79.8009   60.0853 H   0  0  0  0  0  0  0  0  0  0  0  0
   39.5198   85.4804   59.6092 H   0  0  0  0  0  0  0  0  0  0  0  0
   41.7654   84.3884   59.7625 H   0  0  0  0  0  0  0  0  0  0  0  0
   38.0654   83.0231   62.7360 H   0  0  0  0  0  0  0  0  0  0  0  0
   40.2215   80.2040   57.7639 H   0  0  0  0  0  0  0  0  0  0  0  0
   41.8212   79.0928   61.5622 H   0  0  0  0  0  0  0  0  0  0  0  0
   40.7598   76.5951   62.4385 H   0  0  0  0  0  0  0  0  0  0  0  0
   38.2600   75.7982   59.1622 H   0  0  0  0  0  0  0  0  0  0  0  0
   38.8735   76.3623   56.3977 H   0  0  0  0  0  0  0  0  0  0  0  0
   37.9013   76.3462   57.9384 H   0  0  0  0  0  0  0  0  0  0  0  0
   36.5637   76.0665   55.8150 H   0  0  0  0  0  0  0  0  0  0  0  0
   36.0462   77.4000   56.8794 H   0  0  0  0  0  0  0  0  0  0  0  0
   36.2974   78.0084   54.5185 H   0  0  0  0  0  0  0  0  0  0  0  0
   37.4366   80.0059   54.9368 H   0  0  0  0  0  0  0  0  0  0  0  0
   36.4149   79.4696   56.3672 H   0  0  0  0  0  0  0  0  0  0  0  0
   39.3800   79.5897   56.0635 H   0  0  0  0  0  0  0  0  0  0  0  0
   38.2851   80.1803   57.3857 H   0  0  0  0  0  0  0  0  0  0  0  0
  1  2  1  0
  2 10  2  0
  2  3  1  0
  3  4  2  0
  4  5  1  0
  5  6  1  0
  7  6  1  0
  8  7  2  0
  9  8  1  0
  9  5  2  0
 10  9  1  0
 11 12  2  0
 11 16  1  0
 12 13  1  0
 13  3  1  0
 13 14  2  0
 15 14  1  0
 16 15  2  0
 17 18  2  0
 18  1  1  0
 18 19  1  0
 20 19  2  0
 20 21  1  0
 22 21  1  0
 23 22  2  0
 24 23  1  0
 24 20  1  0
 25 17  1  0
 25 24  2  0
 26 25  1  0
 27 26  1  0
 28 27  1  0
 29 30  1  0
 29 28  1  0
 30 31  1  0
 31 26  1  0
  4 32  1  0
  6 33  1  0
  7 34  1  0
 10 35  1  0
 11 36  1  0
 12 37  1  0
 15 38  1  0
 17 39  1  0
 19 40  1  0
 21 41  1  0
 23 42  1  0
 27 43  1  0
 27 44  1  0
 28 45  1  0
 28 46  1  0
 29 47  1  0
 30 48  1  0
 30 49  1  0
 31 50  1  0
 31 51  1  0
M  END
>  <Score>  (1) 
-7.44525

>  <Score_dual>  (1) 
-7.01

>  <Choices>  (1) 
[None, 8, ['34-23', 60], 15, ['2-1', 0], 23, ['54-21', 15], 36, ['15-6', 60]]

$$$$
