
     RDKit          3D

 44 47  0  0  1  0  0  0  0  0999 V2000
   40.7170   82.0280   58.1380 N   0  0  0  0  0  0  0  0  0  0  0  0
   41.1800   82.6550   56.9430 C   0  0  0  0  0  0  0  0  0  0  0  0
   41.7510   81.7750   55.9280 C   0  0  0  0  0  0  0  0  0  0  0  0
   42.3540   80.5600   56.3000 N   0  0  0  0  0  0  0  0  0  0  0  0
   42.0480   80.1400   57.6280 C   0  0  0  0  0  0  0  0  0  0  0  0
   40.6870   80.5700   58.0160 C   0  0  2  0  0  0  0  0  0  0  0  0
   40.3580   82.7620   59.2900 C   0  0  0  0  0  0  0  0  0  0  0  0
   40.5710   82.2730   60.5820 C   0  0  0  0  0  0  0  0  0  0  0  0
   40.2190   83.0350   61.6810 C   0  0  0  0  0  0  0  0  0  0  0  0
   39.6720   84.2460   61.4360 N   0  0  0  0  0  0  0  0  0  0  0  0
   39.4750   84.7000   60.1860 C   0  0  0  0  0  0  0  0  0  0  0  0
   39.8170   83.9580   59.1230 N   0  0  0  0  0  0  0  0  0  0  0  0
   40.6610   83.3640   64.1320 C   0  0  0  0  0  0  0  0  0  0  0  0
   40.6480   84.6420   63.9090 O   0  0  0  0  0  0  0  0  0  0  0  0
   40.4520   82.5090   62.9700 N   0  0  0  0  0  0  0  0  0  0  0  0
   39.5410   80.0090   57.3500 C   0  0  0  0  0  0  0  0  0  0  0  0
   38.7790   80.5310   56.3220 C   0  0  0  0  0  0  0  0  0  0  0  0
   37.6770   79.9460   55.7340 C   0  0  0  0  0  0  0  0  0  0  0  0
   37.2690   78.7110   56.1970 C   0  0  0  0  0  0  0  0  0  0  0  0
   37.9720   78.1320   57.2130 C   0  0  0  0  0  0  0  0  0  0  0  0
   37.5020   76.9010   57.6210 C   0  0  0  0  0  0  0  0  0  0  0  0
   38.1400   76.2310   58.6410 C   0  0  0  0  0  0  0  0  0  0  0  0
   39.2270   76.8140   59.2190 C   0  0  0  0  0  0  0  0  0  0  0  0
   39.6630   78.0380   58.7850 C   0  0  0  0  0  0  0  0  0  0  0  0
   39.0830   78.7570   57.7810 C   0  0  0  0  0  0  0  0  0  0  0  0
   40.3272   83.1807   56.4888 H   0  0  0  0  0  0  0  0  0  0  0  0
   42.0044   83.3116   57.2579 H   0  0  0  0  0  0  0  0  0  0  0  0
   42.5178   82.3593   55.3983 H   0  0  0  0  0  0  0  0  0  0  0  0
   40.8700   81.4510   55.3545 H   0  0  0  0  0  0  0  0  0  0  0  0
   42.0363   79.8285   55.6482 H   0  0  0  0  0  0  0  0  0  0  0  0
   42.1084   79.0430   57.6819 H   0  0  0  0  0  0  0  0  0  0  0  0
   42.7719   80.5985   58.3177 H   0  0  0  0  0  0  0  0  0  0  0  0
   40.4693   80.0939   58.9834 H   0  0  0  0  0  0  0  0  0  0  0  0
   41.0200   81.2790   60.7250 H   0  0  0  0  0  0  0  0  0  0  0  0
   39.0274   85.6932   60.0334 H   0  0  0  0  0  0  0  0  0  0  0  0
   40.8203   82.9500   65.1386 H   0  0  0  0  0  0  0  0  0  0  0  0
   40.4751   81.4867   63.0937 H   0  0  0  0  0  0  0  0  0  0  0  0
   39.0825   81.5140   55.9327 H   0  0  0  0  0  0  0  0  0  0  0  0
   37.1378   80.4498   54.9182 H   0  0  0  0  0  0  0  0  0  0  0  0
   36.3970   78.2053   55.7568 H   0  0  0  0  0  0  0  0  0  0  0  0
   36.6216   76.4566   57.1338 H   0  0  0  0  0  0  0  0  0  0  0  0
   37.7805   75.2485   58.9809 H   0  0  0  0  0  0  0  0  0  0  0  0
   39.7557   76.3009   60.0358 H   0  0  0  0  0  0  0  0  0  0  0  0
   40.5435   78.4721   59.2814 H   0  0  0  0  0  0  0  0  0  0  0  0
  1  7  1  0
  2  1  1  0
  3  4  1  0
  3  2  1  0
  4  5  1  0
  5  6  1  0
  6  1  1  0
  7  8  2  0
  8  9  1  0
  9 15  1  0
 10  9  2  0
 11 10  1  0
 12  7  1  0
 12 11  2  0
 14 13  2  0
 15 13  1  0
 16 25  1  0
 16  6  1  0
 17 16  2  0
 18 19  2  0
 18 17  1  0
 19 20  1  0
 20 21  1  0
 20 25  2  0
 21 22  2  0
 22 23  1  0
 24 23  2  0
 25 24  1  0
  2 26  1  0
  2 27  1  0
  3 28  1  0
  3 29  1  0
  4 30  1  0
  5 31  1  0
  5 32  1  0
  6 33  1  1
  8 34  1  0
 11 35  1  0
 13 36  1  0
 15 37  1  0
 17 38  1  0
 18 39  1  0
 19 40  1  0
 21 41  1  0
 22 42  1  0
 23 43  1  0
 24 44  1  0
M  END
>  <Score>  (1) 
-7.20737

>  <Score_dual>  (1) 
-7.28

>  <Choices>  (1) 
[None, 8, ['12-5', 75], 9, ['15-5', 315], 27, ['26-24', 105]]

$$$$
