
     RDKit          3D

 50 55  0  0  1  0  0  0  0  0999 V2000
   42.1770   80.1690   61.7450 C   0  0  0  0  0  0  0  0  0  0  0  0
   40.8580   80.2760   61.2610 C   0  0  0  0  0  0  0  0  0  0  0  0
   40.1140   79.1700   60.9700 C   0  0  0  0  0  0  0  0  0  0  0  0
   40.6640   77.9140   61.1510 C   0  0  0  0  0  0  0  0  0  0  0  0
   41.9730   77.8210   61.6330 C   0  0  0  0  0  0  0  0  0  0  0  0
   42.7600   78.9310   61.9420 C   0  0  0  0  0  0  0  0  0  0  0  0
   40.3350   83.6150   59.8710 C   0  0  0  0  0  0  0  0  0  0  0  0
   39.4730   84.2280   60.7550 C   0  0  0  0  0  0  0  0  0  0  0  0
   39.0390   83.4850   61.8800 C   0  0  0  0  0  0  0  0  0  0  0  0
   39.5050   82.2020   62.0200 N   0  0  0  0  0  0  0  0  0  0  0  0
   40.3570   81.6490   61.1130 C   0  0  0  0  0  0  0  0  0  0  0  0
   40.7610   82.3440   60.0610 N   0  0  0  0  0  0  0  0  0  0  0  0
   40.7890   84.3560   58.7210 C   0  0  0  0  0  0  0  0  0  0  0  0
   40.5760   85.7080   58.4650 C   0  0  0  0  0  0  0  0  0  0  0  0
   41.1720   86.0110   57.2760 N   0  0  0  0  0  0  0  0  0  0  0  0
   41.7460   84.8640   56.8030 C   0  0  0  0  0  0  0  0  0  0  0  0
   41.5040   83.8770   57.6880 N   0  0  0  0  0  0  0  0  0  0  0  0
   42.4710   84.6860   55.6150 O   0  0  0  0  0  0  0  0  0  0  0  0
   43.0260   81.2320   62.0720 O   0  0  0  0  0  0  0  0  0  0  0  0
   44.0260   78.7510   62.4150 O   0  0  0  0  0  0  0  0  0  0  0  0
   44.8420   77.6250   62.3590 C   0  0  1  0  0  0  0  0  0  0  0  0
   45.9920   77.5410   63.3100 C   0  0  0  0  0  0  0  0  0  0  0  0
   44.7620   76.8100   63.6440 C   0  0  2  0  0  0  0  0  0  0  0  0
   45.5400   74.4470   64.0130 C   0  0  0  0  0  0  0  0  0  0  0  0
   44.6600   75.3460   63.4370 C   0  0  0  0  0  0  0  0  0  0  0  0
   43.6670   74.8200   62.6500 C   0  0  0  0  0  0  0  0  0  0  0  0
   43.5680   73.4580   62.4550 C   0  0  0  0  0  0  0  0  0  0  0  0
   44.4580   72.5500   63.0370 C   0  0  0  0  0  0  0  0  0  0  0  0
   45.4680   73.0780   63.8380 C   0  0  0  0  0  0  0  0  0  0  0  0
   44.0720   71.2780   62.6350 O   0  0  0  0  0  0  0  0  0  0  0  0
   43.2070   71.3850   61.5260 C   0  0  0  0  0  0  0  0  0  0  0  0
   42.6660   72.6930   61.7130 O   0  0  0  0  0  0  0  0  0  0  0  0
   39.0855   79.2763   60.5946 H   0  0  0  0  0  0  0  0  0  0  0  0
   40.0842   77.0080   60.9207 H   0  0  0  0  0  0  0  0  0  0  0  0
   42.4054   76.8198   61.7762 H   0  0  0  0  0  0  0  0  0  0  0  0
   39.1330   85.2613   60.5919 H   0  0  0  0  0  0  0  0  0  0  0  0
   38.3504   83.9225   62.6179 H   0  0  0  0  0  0  0  0  0  0  0  0
   40.0240   86.4088   59.1086 H   0  0  0  0  0  0  0  0  0  0  0  0
   41.1868   86.9339   56.8189 H   0  0  0  0  0  0  0  0  0  0  0  0
   42.8372   83.7948   55.3874 H   0  0  0  0  0  0  0  0  0  0  0  0
   42.7124   82.1654   61.9698 H   0  0  0  0  0  0  0  0  0  0  0  0
   44.7488   77.4694   61.2741 H   0  0  0  0  0  0  0  0  0  0  0  0
   46.8961   76.9838   63.0236 H   0  0  0  0  0  0  0  0  0  0  0  0
   46.6081   78.2854   63.8356 H   0  0  0  0  0  0  0  0  0  0  0  0
   44.1449   76.7765   64.5540 H   0  0  0  0  0  0  0  0  0  0  0  0
   46.3449   74.8457   64.6480 H   0  0  0  0  0  0  0  0  0  0  0  0
   42.9413   75.4922   62.1689 H   0  0  0  0  0  0  0  0  0  0  0  0
   46.1981   72.4145   64.3245 H   0  0  0  0  0  0  0  0  0  0  0  0
   42.4202   70.6168   61.5543 H   0  0  0  0  0  0  0  0  0  0  0  0
   43.7023   71.2389   60.5548 H   0  0  0  0  0  0  0  0  0  0  0  0
  1  6  2  0
  1 19  1  0
  2  1  1  0
  3  4  1  0
  3  2  2  0
  4  5  2  0
  5  6  1  0
  6 20  1  0
  7 12  1  0
  7  8  2  0
  8  9  1  0
  9 10  2  0
 11  2  1  0
 11 10  1  0
 12 11  2  0
 13  7  1  0
 14 13  2  0
 15 14  1  0
 16 15  1  0
 16 17  2  0
 17 13  1  0
 18 16  1  0
 21 20  1  0
 21 22  1  0
 21 23  1  0
 22 23  1  0
 25 23  1  0
 25 24  2  0
 26 25  1  0
 27 26  2  0
 27 28  1  0
 28 29  2  0
 29 24  1  0
 30 28  1  0
 31 32  1  0
 31 30  1  0
 32 27  1  0
  3 33  1  0
  4 34  1  0
  5 35  1  0
  8 36  1  0
  9 37  1  0
 14 38  1  0
 15 39  1  0
 18 40  1  0
 19 41  1  0
 21 42  1  6
 22 43  1  0
 22 44  1  0
 23 45  1  1
 24 46  1  0
 26 47  1  0
 29 48  1  0
 31 49  1  0
 31 50  1  0
M  END
>  <Score>  (1) 
-7.16357

>  <Score_dual>  (1) 
-8.33

>  <Choices>  (1) 
[None, 6, ['23-9', 180], 13, ['35-25', 255], 28, ['16-16', 165], 35, ['2-1', 255], 36, ['52-11', 345]]

$$$$
