
     RDKit          3D

 49 53  0  0  1  0  0  0  0  0999 V2000
   42.1490   83.9140   61.8700 C   0  0  0  0  0  0  0  0  0  0  0  0
   42.3440   82.6310   61.3760 C   0  0  0  0  0  0  0  0  0  0  0  0
   41.6440   81.5770   61.9370 C   0  0  0  0  0  0  0  0  0  0  0  0
   40.7880   81.8700   62.9620 N   0  0  0  0  0  0  0  0  0  0  0  0
   40.6100   83.1070   63.4270 C   0  0  0  0  0  0  0  0  0  0  0  0
   41.2800   84.1270   62.8920 N   0  0  0  0  0  0  0  0  0  0  0  0
   43.8200   85.7970   61.9290 C   0  0  0  0  0  0  0  0  0  0  0  0
   42.8740   85.0350   61.2960 C   0  0  0  0  0  0  0  0  0  0  0  0
   42.6230   85.4110   59.9840 C   0  0  0  0  0  0  0  0  0  0  0  0
   43.2510   86.4540   59.3460 C   0  0  0  0  0  0  0  0  0  0  0  0
   43.1910   87.0060   58.1200 N   0  0  0  0  0  0  0  0  0  0  0  0
   44.0370   88.0270   58.0170 C   0  0  0  0  0  0  0  0  0  0  0  0
   44.7120   88.1890   59.2210 C   0  0  0  0  0  0  0  0  0  0  0  0
   44.1910   87.1910   60.0140 C   0  0  0  0  0  0  0  0  0  0  0  0
   44.4720   86.8450   61.3320 C   0  0  0  0  0  0  0  0  0  0  0  0
   41.7430   80.1840   61.5270 C   0  0  0  0  0  0  0  0  0  0  0  0
   42.8390   79.3880   61.8150 C   0  0  0  0  0  0  0  0  0  0  0  0
   42.9360   78.0610   61.4250 C   0  0  0  0  0  0  0  0  0  0  0  0
   41.9470   77.5070   60.7440 N   0  0  0  0  0  0  0  0  0  0  0  0
   40.8750   78.2860   60.4620 C   0  0  0  0  0  0  0  0  0  0  0  0
   40.7660   79.5710   60.8330 N   0  0  0  0  0  0  0  0  0  0  0  0
   39.3210   76.3620   60.1140 C   0  0  1  0  0  0  0  0  0  0  0  0
   39.6990   77.7430   59.6920 C   0  0  2  0  0  0  0  0  0  0  0  0
   39.9090   77.9090   58.3410 O   0  0  0  0  0  0  0  0  0  0  0  0
   39.7620   76.7290   57.6190 C   0  0  0  0  0  0  0  0  0  0  0  0
   40.7380   75.7270   58.1940 C   0  0  1  0  0  0  0  0  0  0  0  0
   40.1480   75.2620   59.5280 C   0  0  2  0  0  0  0  0  0  0  0  0
   39.3770   76.3360   61.5130 O   0  0  0  0  0  0  0  0  0  0  0  0
   40.9070   74.6200   57.3440 O   0  0  0  0  0  0  0  0  0  0  0  0
   39.2700   74.2070   59.2020 O   0  0  0  0  0  0  0  0  0  0  0  0
   43.0467   82.4544   60.5483 H   0  0  0  0  0  0  0  0  0  0  0  0
   39.9080   83.2859   64.2547 H   0  0  0  0  0  0  0  0  0  0  0  0
   44.0701   85.5551   62.9725 H   0  0  0  0  0  0  0  0  0  0  0  0
   41.8736   84.8378   59.4185 H   0  0  0  0  0  0  0  0  0  0  0  0
   42.5727   86.6812   57.3629 H   0  0  0  0  0  0  0  0  0  0  0  0
   44.1801   88.6464   57.1193 H   0  0  0  0  0  0  0  0  0  0  0  0
   45.4782   88.9350   59.4786 H   0  0  0  0  0  0  0  0  0  0  0  0
   45.2222   87.4160   61.8988 H   0  0  0  0  0  0  0  0  0  0  0  0
   43.6728   79.8298   62.3804 H   0  0  0  0  0  0  0  0  0  0  0  0
   43.8298   77.4729   61.6804 H   0  0  0  0  0  0  0  0  0  0  0  0
   38.3118   76.1578   59.7269 H   0  0  0  0  0  0  0  0  0  0  0  0
   38.8018   78.3295   59.9392 H   0  0  0  0  0  0  0  0  0  0  0  0
   39.9866   76.9068   56.5569 H   0  0  0  0  0  0  0  0  0  0  0  0
   38.7304   76.3539   57.6906 H   0  0  0  0  0  0  0  0  0  0  0  0
   41.7270   76.1925   58.3172 H   0  0  0  0  0  0  0  0  0  0  0  0
   40.9366   74.9712   60.2375 H   0  0  0  0  0  0  0  0  0  0  0  0
   38.5444   76.7225   61.8838 H   0  0  0  0  0  0  0  0  0  0  0  0
   41.0318   73.8023   57.8879 H   0  0  0  0  0  0  0  0  0  0  0  0
   38.9266   73.7944   60.0339 H   0  0  0  0  0  0  0  0  0  0  0  0
  1  6  1  0
  2  1  2  0
  2  3  1  0
  3  4  2  0
  4  5  1  0
  6  5  2  0
  8  1  1  0
  8  7  2  0
  9  8  1  0
 10  9  2  0
 10 14  1  0
 11 10  1  0
 12 11  1  0
 12 13  2  0
 13 14  1  0
 14 15  2  0
 15  7  1  0
 16 17  2  0
 16  3  1  0
 18 17  1  0
 19 18  2  0
 20 19  1  0
 20 21  2  0
 21 16  1  0
 22 28  1  0
 23 22  1  0
 23 20  1  0
 24 23  1  0
 25 26  1  0
 25 24  1  0
 26 29  1  0
 26 27  1  0
 27 30  1  0
 27 22  1  0
  2 31  1  0
  5 32  1  0
  7 33  1  0
  9 34  1  0
 11 35  1  0
 12 36  1  0
 13 37  1  0
 15 38  1  0
 17 39  1  0
 18 40  1  0
 22 41  1  1
 23 42  1  1
 25 43  1  0
 25 44  1  0
 26 45  1  1
 27 46  1  1
 28 47  1  0
 29 48  1  0
 30 49  1  0
M  END
>  <Score>  (1) 
-7.03694

>  <Score_dual>  (1) 
-8.77

>  <Choices>  (1) 
[None, 8, ['19-20', 0], 12, ['24-9', 315], 31, ['21-22', 15]]

$$$$
