
     RDKit          3D

 39 42  0  0  0  0  0  0  0  0999 V2000
   40.0620   78.9920   59.9230 C   0  0  0  0  0  0  0  0  0  0  0  0
   40.3700   78.0750   60.8980 C   0  0  0  0  0  0  0  0  0  0  0  0
   40.1800   76.7140   60.7980 C   0  0  0  0  0  0  0  0  0  0  0  0
   39.6350   76.2340   59.6200 C   0  0  0  0  0  0  0  0  0  0  0  0
   39.3240   77.1400   58.6420 C   0  0  0  0  0  0  0  0  0  0  0  0
   39.5410   78.4530   58.8200 N   0  0  0  0  0  0  0  0  0  0  0  0
   40.8540   84.4470   60.2050 F   0  0  0  0  0  0  0  0  0  0  0  0
   40.6700   83.1050   60.2160 C   0  0  0  0  0  0  0  0  0  0  0  0
   40.7280   82.3740   61.3900 C   0  0  0  0  0  0  0  0  0  0  0  0
   40.5240   81.0350   61.2580 C   0  0  0  0  0  0  0  0  0  0  0  0
   40.2780   80.4100   60.0690 C   0  0  0  0  0  0  0  0  0  0  0  0
   40.2280   81.1810   58.9100 C   0  0  0  0  0  0  0  0  0  0  0  0
   40.4270   82.5410   58.9940 C   0  0  0  0  0  0  0  0  0  0  0  0
   40.9920   83.0800   62.6280 C   0  0  0  0  0  0  0  0  0  0  0  0
   42.2910   83.4590   62.9860 C   0  0  0  0  0  0  0  0  0  0  0  0
   42.6020   84.1350   64.1550 C   0  0  0  0  0  0  0  0  0  0  0  0
   41.5320   84.4110   64.9520 N   0  0  0  0  0  0  0  0  0  0  0  0
   40.2890   84.0520   64.6150 C   0  0  0  0  0  0  0  0  0  0  0  0
   40.0160   83.4010   63.4810 N   0  0  0  0  0  0  0  0  0  0  0  0
   38.7480   76.7530   57.3670 C   0  0  0  0  0  0  0  0  0  0  0  0
   37.4650   77.0670   56.9790 C   0  0  0  0  0  0  0  0  0  0  0  0
   36.8930   76.7120   55.7780 C   0  0  0  0  0  0  0  0  0  0  0  0
   37.6390   75.9870   54.8720 C   0  0  0  0  0  0  0  0  0  0  0  0
   38.9190   75.6700   55.2510 C   0  0  0  0  0  0  0  0  0  0  0  0
   39.4150   76.0430   56.4310 N   0  0  0  0  0  0  0  0  0  0  0  0
   39.7930   74.9550   54.4710 O   0  0  0  0  0  0  0  0  0  0  0  0
   40.8031   78.4579   61.8338 H   0  0  0  0  0  0  0  0  0  0  0  0
   40.4506   76.0364   61.6212 H   0  0  0  0  0  0  0  0  0  0  0  0
   39.4573   75.1583   59.4741 H   0  0  0  0  0  0  0  0  0  0  0  0
   40.5595   80.4167   62.1671 H   0  0  0  0  0  0  0  0  0  0  0  0
   40.0314   80.7079   57.9366 H   0  0  0  0  0  0  0  0  0  0  0  0
   40.3910   83.1660   58.0895 H   0  0  0  0  0  0  0  0  0  0  0  0
   43.1125   83.2056   62.2997 H   0  0  0  0  0  0  0  0  0  0  0  0
   43.6298   84.4253   64.4182 H   0  0  0  0  0  0  0  0  0  0  0  0
   39.4618   84.3016   65.2957 H   0  0  0  0  0  0  0  0  0  0  0  0
   36.8493   77.6462   57.6829 H   0  0  0  0  0  0  0  0  0  0  0  0
   35.8578   77.0018   55.5447 H   0  0  0  0  0  0  0  0  0  0  0  0
   37.2298   75.6796   53.8983 H   0  0  0  0  0  0  0  0  0  0  0  0
   40.7050   74.7585   54.8022 H   0  0  0  0  0  0  0  0  0  0  0  0
  1 11  1  0
  1  2  2  0
  3  2  1  0
  4  3  2  0
  5  6  2  0
  5  4  1  0
  6  1  1  0
  7  8  1  0
  8  9  2  0
  9 14  1  0
 10  9  1  0
 11 10  2  0
 12 13  2  0
 12 11  1  0
 13  8  1  0
 14 15  2  0
 14 19  1  0
 15 16  1  0
 16 17  2  0
 18 17  1  0
 19 18  2  0
 20  5  1  0
 21 20  2  0
 22 21  1  0
 23 24  1  0
 23 22  2  0
 24 25  2  0
 25 20  1  0
 26 24  1  0
  2 27  1  0
  3 28  1  0
  4 29  1  0
 10 30  1  0
 12 31  1  0
 13 32  1  0
 15 33  1  0
 16 34  1  0
 18 35  1  0
 21 36  1  0
 22 37  1  0
 23 38  1  0
 26 39  1  0
M  END
>  <Score>  (1) 
-7.18089

>  <Score_dual>  (1) 
-7.12

>  <Choices>  (1) 
[None, 6, ['9-20', 270], 17, ['6-14', 300], 28, ['6-16', 75], 37, ['2-1', 0]]

$$$$
