
     RDKit          3D

 38 41  0  0  0  0  0  0  0  0999 V2000
   40.5360   79.9560   60.9850 C   0  0  0  0  0  0  0  0  0  0  0  0
   40.5850   78.7270   61.6420 C   0  0  0  0  0  0  0  0  0  0  0  0
   40.3070   77.5770   60.9250 C   0  0  0  0  0  0  0  0  0  0  0  0
   40.0020   77.6950   59.6250 N   0  0  0  0  0  0  0  0  0  0  0  0
   39.9550   78.8780   58.9950 C   0  0  0  0  0  0  0  0  0  0  0  0
   40.2230   79.9840   59.6840 N   0  0  0  0  0  0  0  0  0  0  0  0
   39.6320   79.1840   57.5940 C   0  0  0  0  0  0  0  0  0  0  0  0
   40.3320   80.1280   56.8330 C   0  0  0  0  0  0  0  0  0  0  0  0
   40.0490   80.4320   55.5290 C   0  0  0  0  0  0  0  0  0  0  0  0
   39.0290   79.8000   54.8880 C   0  0  0  0  0  0  0  0  0  0  0  0
   38.3030   78.8660   55.5710 C   0  0  0  0  0  0  0  0  0  0  0  0
   37.2780   78.2540   54.8850 C   0  0  0  0  0  0  0  0  0  0  0  0
   36.4960   77.3040   55.5030 C   0  0  0  0  0  0  0  0  0  0  0  0
   36.8040   77.0150   56.8270 C   0  0  0  0  0  0  0  0  0  0  0  0
   37.8370   77.6550   57.4610 C   0  0  0  0  0  0  0  0  0  0  0  0
   38.6230   78.5940   56.8780 C   0  0  0  0  0  0  0  0  0  0  0  0
   40.8390   81.1860   61.7160 C   0  0  0  0  0  0  0  0  0  0  0  0
   42.1840   81.3850   62.0530 C   0  0  0  0  0  0  0  0  0  0  0  0
   42.4470   82.5690   62.7440 C   0  0  0  0  0  0  0  0  0  0  0  0
   41.3770   83.4030   63.0160 C   0  0  0  0  0  0  0  0  0  0  0  0
   40.0940   83.1600   62.6660 C   0  0  0  0  0  0  0  0  0  0  0  0
   39.8470   82.0230   62.0040 N   0  0  0  0  0  0  0  0  0  0  0  0
   41.7870   84.6400   63.7610 C   0  0  0  0  0  0  0  0  0  0  0  0
   40.7070   85.3690   64.1990 F   0  0  0  0  0  0  0  0  0  0  0  0
   42.6260   85.4220   62.9900 F   0  0  0  0  0  0  0  0  0  0  0  0
   42.4720   84.2190   64.8760 F   0  0  0  0  0  0  0  0  0  0  0  0
   40.8400   78.6729   62.7107 H   0  0  0  0  0  0  0  0  0  0  0  0
   40.3355   76.5900   61.4098 H   0  0  0  0  0  0  0  0  0  0  0  0
   41.1648   80.6607   57.3153 H   0  0  0  0  0  0  0  0  0  0  0  0
   40.6468   81.1880   54.9988 H   0  0  0  0  0  0  0  0  0  0  0  0
   38.7934   80.0365   53.8399 H   0  0  0  0  0  0  0  0  0  0  0  0
   37.0827   78.5256   53.8371 H   0  0  0  0  0  0  0  0  0  0  0  0
   35.6715   76.8007   54.9768 H   0  0  0  0  0  0  0  0  0  0  0  0
   36.2124   76.2646   57.3720 H   0  0  0  0  0  0  0  0  0  0  0  0
   38.0415   77.3903   58.5089 H   0  0  0  0  0  0  0  0  0  0  0  0
   42.9726   80.6635   61.7930 H   0  0  0  0  0  0  0  0  0  0  0  0
   43.4677   82.8295   63.0607 H   0  0  0  0  0  0  0  0  0  0  0  0
   39.2879   83.8660   62.9144 H   0  0  0  0  0  0  0  0  0  0  0  0
  1  2  2  0
  1 17  1  0
  3  2  1  0
  4  3  2  0
  5  4  1  0
  5  6  2  0
  6  1  1  0
  7  5  1  0
  8  7  2  0
  9  8  1  0
 10  9  2  0
 10 11  1  0
 11 16  2  0
 12 13  2  0
 12 11  1  0
 13 14  1  0
 14 15  2  0
 16 15  1  0
 16  7  1  0
 17 22  1  0
 17 18  2  0
 18 19  1  0
 19 20  2  0
 20 23  1  0
 21 20  1  0
 22 21  2  0
 23 24  1  0
 23 26  1  0
 25 23  1  0
  2 27  1  0
  3 28  1  0
  8 29  1  0
  9 30  1  0
 10 31  1  0
 12 32  1  0
 13 33  1  0
 14 34  1  0
 15 35  1  0
 18 36  1  0
 19 37  1  0
 21 38  1  0
M  END
>  <Score>  (1) 
-7.2777

>  <Score_dual>  (1) 
-7.14

>  <Choices>  (1) 
[None, 6, ['6-18', 60], 17, ['11-13', 75], 21, ['26-22', 45]]

$$$$
