
     RDKit          3D

 43 46  0  0  0  0  0  0  0  0999 V2000
   40.8940   79.6880   61.7220 C   0  0  0  0  0  0  0  0  0  0  0  0
   40.4480   80.0590   62.8290 O   0  0  0  0  0  0  0  0  0  0  0  0
   40.7800   80.6500   60.6590 N   0  0  0  0  0  0  0  0  0  0  0  0
   39.5270   84.0420   59.8540 C   0  0  0  0  0  0  0  0  0  0  0  0
   40.1550   82.8080   59.7260 C   0  0  0  0  0  0  0  0  0  0  0  0
   40.1360   81.9100   60.7950 C   0  0  0  0  0  0  0  0  0  0  0  0
   39.5030   82.2890   61.9080 N   0  0  0  0  0  0  0  0  0  0  0  0
   38.8960   83.5050   62.0030 C   0  0  0  0  0  0  0  0  0  0  0  0
   38.9120   84.3800   60.9690 N   0  0  0  0  0  0  0  0  0  0  0  0
   42.9410   83.9440   59.5080 Cl  0  0  0  0  0  0  0  0  0  0  0  0
   42.1150   82.9940   58.2770 C   0  0  0  0  0  0  0  0  0  0  0  0
   40.8210   82.5010   58.4510 C   0  0  0  0  0  0  0  0  0  0  0  0
   40.2530   81.7680   57.4400 C   0  0  0  0  0  0  0  0  0  0  0  0
   40.9270   81.5130   56.2670 C   0  0  0  0  0  0  0  0  0  0  0  0
   42.1960   82.0060   56.1130 C   0  0  0  0  0  0  0  0  0  0  0  0
   42.8200   82.7530   57.1050 C   0  0  0  0  0  0  0  0  0  0  0  0
   41.5150   78.3810   61.4120 C   0  0  0  0  0  0  0  0  0  0  0  0
   40.8470   77.2190   61.0390 C   0  0  0  0  0  0  0  0  0  0  0  0
   41.8190   76.2780   60.8570 C   0  0  0  0  0  0  0  0  0  0  0  0
   43.0350   76.8810   61.1190 C   0  0  0  0  0  0  0  0  0  0  0  0
   42.7980   78.1590   61.4520 O   0  0  0  0  0  0  0  0  0  0  0  0
   38.8360   75.6770   60.6030 Cl  0  0  0  0  0  0  0  0  0  0  0  0
   40.1570   74.5620   60.3170 C   0  0  0  0  0  0  0  0  0  0  0  0
   41.4920   74.9130   60.4550 C   0  0  0  0  0  0  0  0  0  0  0  0
   42.5140   74.0040   60.2210 C   0  0  0  0  0  0  0  0  0  0  0  0
   42.1860   72.6990   59.8360 C   0  0  0  0  0  0  0  0  0  0  0  0
   40.8610   72.2790   59.6790 C   0  0  0  0  0  0  0  0  0  0  0  0
   40.4300   70.6700   59.2050 Cl  0  0  0  0  0  0  0  0  0  0  0  0
   39.9240   73.2570   59.9350 C   0  0  0  0  0  0  0  0  0  0  0  0
   44.2810   76.2120   61.0340 N   0  0  0  0  0  0  0  0  0  0  0  0
   41.1895   80.4118   59.7444 H   0  0  0  0  0  0  0  0  0  0  0  0
   39.5440   84.7477   59.0103 H   0  0  0  0  0  0  0  0  0  0  0  0
   38.3836   83.7813   62.9363 H   0  0  0  0  0  0  0  0  0  0  0  0
   39.2341   81.3744   57.5698 H   0  0  0  0  0  0  0  0  0  0  0  0
   40.4549   80.9236   55.4672 H   0  0  0  0  0  0  0  0  0  0  0  0
   42.7369   81.8046   55.1766 H   0  0  0  0  0  0  0  0  0  0  0  0
   43.8399   83.1410   56.9663 H   0  0  0  0  0  0  0  0  0  0  0  0
   39.7620   77.0862   60.9163 H   0  0  0  0  0  0  0  0  0  0  0  0
   43.5659   74.3045   60.3363 H   0  0  0  0  0  0  0  0  0  0  0  0
   42.9972   71.9796   59.6507 H   0  0  0  0  0  0  0  0  0  0  0  0
   38.8700   72.9634   59.8218 H   0  0  0  0  0  0  0  0  0  0  0  0
   45.1530   76.7190   61.2424 H   0  0  0  0  0  0  0  0  0  0  0  0
   44.3148   75.2186   60.7638 H   0  0  0  0  0  0  0  0  0  0  0  0
  1  2  2  0
  3  6  1  0
  3  1  1  0
  4  9  2  0
  5  4  1  0
  5  6  2  0
  6  7  1  0
  7  8  2  0
  9  8  1  0
 11 12  2  0
 11 10  1  0
 12  5  1  0
 13 12  1  0
 14 13  2  0
 15 14  1  0
 15 16  2  0
 16 11  1  0
 17 21  1  0
 17  1  1  0
 18 17  2  0
 19 18  1  0
 19 20  2  0
 20 21  1  0
 23 24  2  0
 23 22  1  0
 24 19  1  0
 25 24  1  0
 26 25  2  0
 27 26  1  0
 27 29  2  0
 28 27  1  0
 29 23  1  0
 30 20  1  0
  3 31  1  0
  4 32  1  0
  8 33  1  0
 13 34  1  0
 14 35  1  0
 15 36  1  0
 16 37  1  0
 18 38  1  0
 25 39  1  0
 26 40  1  0
 29 41  1  0
 30 42  1  0
 30 43  1  0
M  END
>  <Score>  (1) 
-7.17203

>  <Score_dual>  (1) 
-7.22

>  <Choices>  (1) 
[None, 8, ['12-5', 75], 10, ['7-17', 330], 22, ['43-9', 315], 30, ['0-4', 0], 30, ['29-21', 90]]

$$$$
