
     RDKit          3D

 47 50  0  0  1  0  0  0  0  0999 V2000
   39.5290   75.7670   60.3630 Cl  0  0  0  0  0  0  0  0  0  0  0  0
   41.2550   75.5400   60.6350 C   0  0  0  0  0  0  0  0  0  0  0  0
   42.0550   76.6420   60.8810 C   0  0  0  0  0  0  0  0  0  0  0  0
   43.3960   76.3550   61.0760 C   0  0  0  0  0  0  0  0  0  0  0  0
   43.9100   75.0610   61.0300 C   0  0  0  0  0  0  0  0  0  0  0  0
   43.0630   74.0020   60.7810 C   0  0  0  0  0  0  0  0  0  0  0  0
   41.7440   74.2360   60.5840 C   0  0  0  0  0  0  0  0  0  0  0  0
   39.8770   80.3660   58.7570 F   0  0  0  0  0  0  0  0  0  0  0  0
   40.4560   79.8560   59.8710 C   0  0  0  0  0  0  0  0  0  0  0  0
   40.5270   80.6320   60.9810 C   0  0  0  0  0  0  0  0  0  0  0  0
   41.1230   80.0670   62.0970 C   0  0  0  0  0  0  0  0  0  0  0  0
   41.6090   78.7800   62.0460 C   0  0  0  0  0  0  0  0  0  0  0  0
   41.5400   77.9960   60.9320 C   0  0  0  0  0  0  0  0  0  0  0  0
   40.9420   78.5570   59.8040 C   0  0  0  0  0  0  0  0  0  0  0  0
   39.6260   84.1170   59.8400 C   0  0  0  0  0  0  0  0  0  0  0  0
   40.1620   82.8150   59.8460 C   0  0  0  0  0  0  0  0  0  0  0  0
   39.9870   81.9870   60.9490 C   0  0  0  0  0  0  0  0  0  0  0  0
   39.2810   82.4960   62.0040 N   0  0  0  0  0  0  0  0  0  0  0  0
   38.7800   83.7450   61.9700 C   0  0  0  0  0  0  0  0  0  0  0  0
   38.9460   84.5510   60.9060 N   0  0  0  0  0  0  0  0  0  0  0  0
   41.0470   72.4970   58.9600 C   0  0  1  0  0  0  0  0  0  0  0  0
   40.8100   73.0770   60.3090 C   0  0  1  0  0  0  0  0  0  0  0  0
   40.7080   72.2400   61.3640 O   0  0  0  0  0  0  0  0  0  0  0  0
   41.4580   71.1230   61.4570 C   0  0  0  0  0  0  0  0  0  0  0  0
   42.2200   70.7040   60.2430 C   0  0  2  0  0  0  0  0  0  0  0  0
   41.5070   71.0620   58.9600 C   0  0  1  0  0  0  0  0  0  0  0  0
   39.8770   72.5080   58.1630 O   0  0  0  0  0  0  0  0  0  0  0  0
   42.2650   69.2920   60.2740 O   0  0  0  0  0  0  0  0  0  0  0  0
   40.4500   70.1960   58.6940 O   0  0  0  0  0  0  0  0  0  0  0  0
   44.0869   77.1872   61.2764 H   0  0  0  0  0  0  0  0  0  0  0  0
   44.9839   74.8854   61.1912 H   0  0  0  0  0  0  0  0  0  0  0  0
   43.4557   72.9752   60.7427 H   0  0  0  0  0  0  0  0  0  0  0  0
   41.2081   80.6487   63.0267 H   0  0  0  0  0  0  0  0  0  0  0  0
   42.0769   78.3626   62.9498 H   0  0  0  0  0  0  0  0  0  0  0  0
   40.8564   77.9777   58.8728 H   0  0  0  0  0  0  0  0  0  0  0  0
   39.7655   84.7708   58.9665 H   0  0  0  0  0  0  0  0  0  0  0  0
   40.7227   82.4507   58.9725 H   0  0  0  0  0  0  0  0  0  0  0  0
   38.2177   84.1178   62.8388 H   0  0  0  0  0  0  0  0  0  0  0  0
   41.8409   73.1440   58.5587 H   0  0  0  0  0  0  0  0  0  0  0  0
   39.7741   73.4377   60.2264 H   0  0  0  0  0  0  0  0  0  0  0  0
   42.1867   71.2812   62.2657 H   0  0  0  0  0  0  0  0  0  0  0  0
   40.7349   70.3121   61.6291 H   0  0  0  0  0  0  0  0  0  0  0  0
   43.2011   71.2013   60.2578 H   0  0  0  0  0  0  0  0  0  0  0  0
   42.2390   70.9468   58.1471 H   0  0  0  0  0  0  0  0  0  0  0  0
   39.0788   72.5155   58.7486 H   0  0  0  0  0  0  0  0  0  0  0  0
   42.2749   68.9827   61.2144 H   0  0  0  0  0  0  0  0  0  0  0  0
   40.0615   69.8777   59.5471 H   0  0  0  0  0  0  0  0  0  0  0  0
  1  2  1  0
  2  3  2  0
  3 13  1  0
  3  4  1  0
  5  4  2  0
  6  5  1  0
  7  2  1  0
  7  6  2  0
  8  9  1  0
  9 10  2  0
 10 11  1  0
 12 11  2  0
 13 12  1  0
 14  9  1  0
 14 13  2  0
 15 16  2  0
 15 20  1  0
 16 17  1  0
 17 10  1  0
 17 18  2  0
 19 18  1  0
 20 19  2  0
 21 27  1  0
 21 22  1  0
 22  7  1  0
 22 23  1  0
 23 24  1  0
 25 28  1  0
 25 24  1  0
 26 29  1  0
 26 21  1  0
 26 25  1  0
  4 30  1  0
  5 31  1  0
  6 32  1  0
 11 33  1  0
 12 34  1  0
 14 35  1  0
 15 36  1  0
 16 37  1  0
 19 38  1  0
 21 39  1  6
 22 40  1  6
 24 41  1  0
 24 42  1  0
 25 43  1  6
 26 44  1  6
 27 45  1  0
 28 46  1  0
 29 47  1  0
M  END
>  <Score>  (1) 
-7.50415

>  <Score_dual>  (1) 
-7.93

>  <Choices>  (1) 
[None, 8, ['9-19', 105], 18, ['7-16', 135], 29, ['21-24', 0]]

$$$$
