
     RDKit          3D

 39 42  0  0  0  0  0  0  0  0999 V2000
   40.8390   79.9040   61.2310 C   0  0  0  0  0  0  0  0  0  0  0  0
   40.8270   78.7060   61.9040 C   0  0  0  0  0  0  0  0  0  0  0  0
   40.3750   77.6060   61.1830 C   0  0  0  0  0  0  0  0  0  0  0  0
   39.9790   77.7500   59.9010 N   0  0  0  0  0  0  0  0  0  0  0  0
   40.0010   78.9190   59.2780 C   0  0  0  0  0  0  0  0  0  0  0  0
   40.4330   79.9810   59.9560 N   0  0  0  0  0  0  0  0  0  0  0  0
   41.3470   81.0970   61.9310 C   0  0  0  0  0  0  0  0  0  0  0  0
   42.7300   81.2900   61.9660 C   0  0  0  0  0  0  0  0  0  0  0  0
   43.1460   82.4680   62.5830 C   0  0  0  0  0  0  0  0  0  0  0  0
   42.1890   83.3190   63.0930 C   0  0  0  0  0  0  0  0  0  0  0  0
   40.8640   83.0870   63.0370 C   0  0  0  0  0  0  0  0  0  0  0  0
   40.4420   81.9480   62.4430 N   0  0  0  0  0  0  0  0  0  0  0  0
   40.3930   84.5850   64.7940 C   0  0  0  0  0  0  0  0  0  0  0  0
   41.5560   84.1790   65.1000 O   0  0  0  0  0  0  0  0  0  0  0  0
   39.9130   83.9660   63.5700 N   0  0  0  0  0  0  0  0  0  0  0  0
   39.6110   79.2870   57.9100 C   0  0  0  0  0  0  0  0  0  0  0  0
   40.1850   80.3470   57.1980 C   0  0  0  0  0  0  0  0  0  0  0  0
   39.8330   80.7040   55.9270 C   0  0  0  0  0  0  0  0  0  0  0  0
   38.8550   80.0030   55.2670 C   0  0  0  0  0  0  0  0  0  0  0  0
   38.2480   78.9490   55.9090 C   0  0  0  0  0  0  0  0  0  0  0  0
   37.2700   78.2770   55.2080 C   0  0  0  0  0  0  0  0  0  0  0  0
   36.6160   77.2110   55.7890 C   0  0  0  0  0  0  0  0  0  0  0  0
   36.9910   76.8690   57.0800 C   0  0  0  0  0  0  0  0  0  0  0  0
   37.9710   77.5820   57.7160 C   0  0  0  0  0  0  0  0  0  0  0  0
   38.6430   78.6380   57.1810 C   0  0  0  0  0  0  0  0  0  0  0  0
   41.1553   78.6221   62.9505 H   0  0  0  0  0  0  0  0  0  0  0  0
   40.3402   76.6151   61.6594 H   0  0  0  0  0  0  0  0  0  0  0  0
   43.4384   80.5654   61.5380 H   0  0  0  0  0  0  0  0  0  0  0  0
   44.2153   82.7137   62.6615 H   0  0  0  0  0  0  0  0  0  0  0  0
   42.5295   84.2465   63.5764 H   0  0  0  0  0  0  0  0  0  0  0  0
   39.8190   85.3156   65.3829 H   0  0  0  0  0  0  0  0  0  0  0  0
   38.9914   84.1502   63.1485 H   0  0  0  0  0  0  0  0  0  0  0  0
   40.9726   80.9320   57.6955 H   0  0  0  0  0  0  0  0  0  0  0  0
   40.3322   81.5512   55.4340 H   0  0  0  0  0  0  0  0  0  0  0  0
   38.5620   80.2791   54.2433 H   0  0  0  0  0  0  0  0  0  0  0  0
   37.0113   78.5907   54.1859 H   0  0  0  0  0  0  0  0  0  0  0  0
   35.8319   76.6566   55.2526 H   0  0  0  0  0  0  0  0  0  0  0  0
   36.5019   76.0268   57.5914 H   0  0  0  0  0  0  0  0  0  0  0  0
   38.2363   77.2780   58.7393 H   0  0  0  0  0  0  0  0  0  0  0  0
  1  2  2  0
  1  7  1  0
  3  2  1  0
  4  3  2  0
  5  4  1  0
  5  6  2  0
  6  1  1  0
  7  8  2  0
  7 12  1  0
  8  9  1  0
  9 10  2  0
 11 10  1  0
 11 15  1  0
 12 11  2  0
 13 14  2  0
 15 13  1  0
 16  5  1  0
 17 16  2  0
 18 17  1  0
 19 20  1  0
 19 18  2  0
 20 25  2  0
 21 22  2  0
 21 20  1  0
 22 23  1  0
 23 24  2  0
 25 24  1  0
 25 16  1  0
  2 26  1  0
  3 27  1  0
  8 28  1  0
  9 29  1  0
 10 30  1  0
 13 31  1  0
 15 32  1  0
 17 33  1  0
 18 34  1  0
 19 35  1  0
 21 36  1  0
 22 37  1  0
 23 38  1  0
 24 39  1  0
M  END
>  <Score>  (1) 
-7.66804

>  <Score_dual>  (1) 
-7.16

>  <Choices>  (1) 
[None, 6, ['6-18', 60], 18, ['12-4', 60], 22, ['26-24', 30]]

$$$$
