
     RDKit          3D

 54 57  0  0  1  0  0  0  0  0999 V2000
   39.3600   75.8620   59.6490 C   0  0  2  0  0  0  0  0  0  0  0  0
   40.0720   77.1030   59.1230 C   0  0  1  0  0  0  0  0  0  0  0  0
   39.3550   77.6720   58.1520 O   0  0  0  0  0  0  0  0  0  0  0  0
   38.5430   76.8490   57.3980 C   0  0  0  0  0  0  0  0  0  0  0  0
   39.0460   75.4500   57.2490 C   0  0  1  0  0  0  0  0  0  0  0  0
   39.5260   74.8170   58.5360 C   0  0  1  0  0  0  0  0  0  0  0  0
   39.3490   79.8320   59.0820 F   0  0  0  0  0  0  0  0  0  0  0  0
   40.0560   79.3900   60.1540 C   0  0  0  0  0  0  0  0  0  0  0  0
   40.3520   80.2830   61.1220 C   0  0  0  0  0  0  0  0  0  0  0  0
   41.0890   79.7880   62.1980 C   0  0  0  0  0  0  0  0  0  0  0  0
   41.4820   78.4770   62.2550 C   0  0  0  0  0  0  0  0  0  0  0  0
   41.1660   77.5750   61.2430 C   0  0  0  0  0  0  0  0  0  0  0  0
   40.4420   78.0550   60.1830 C   0  0  0  0  0  0  0  0  0  0  0  0
   39.8040   83.7540   59.7470 C   0  0  0  0  0  0  0  0  0  0  0  0
   40.2040   82.4190   59.8540 C   0  0  0  0  0  0  0  0  0  0  0  0
   39.9330   81.6620   61.0140 C   0  0  0  0  0  0  0  0  0  0  0  0
   39.2730   82.2910   62.0020 N   0  0  0  0  0  0  0  0  0  0  0  0
   38.8970   83.5830   61.8740 C   0  0  0  0  0  0  0  0  0  0  0  0
   39.1580   84.3070   60.7630 N   0  0  0  0  0  0  0  0  0  0  0  0
   38.0750   76.1890   59.8910 O   0  0  0  0  0  0  0  0  0  0  0  0
   37.9820   74.6810   56.7670 O   0  0  0  0  0  0  0  0  0  0  0  0
   40.9180   74.6390   58.3620 O   0  0  0  0  0  0  0  0  0  0  0  0
   40.6340   72.3160   58.4710 C   0  0  2  0  0  0  0  0  0  0  0  0
   41.4170   73.5100   58.9500 C   0  0  2  0  0  0  0  0  0  0  0  0
   41.3010   73.5850   60.3470 O   0  0  0  0  0  0  0  0  0  0  0  0
   40.9140   72.3950   60.9330 C   0  0  0  0  0  0  0  0  0  0  0  0
   41.6690   71.2070   60.3830 C   0  0  2  0  0  0  0  0  0  0  0  0
   41.4030   71.0690   58.9210 C   0  0  2  0  0  0  0  0  0  0  0  0
   40.5350   72.2290   57.1070 O   0  0  0  0  0  0  0  0  0  0  0  0
   41.1510   70.0650   61.0260 O   0  0  0  0  0  0  0  0  0  0  0  0
   42.5690   71.0360   58.1470 O   0  0  0  0  0  0  0  0  0  0  0  0
   39.7608   75.4632   60.5926 H   0  0  0  0  0  0  0  0  0  0  0  0
   41.0297   76.7736   58.6937 H   0  0  0  0  0  0  0  0  0  0  0  0
   37.5539   76.8092   57.8777 H   0  0  0  0  0  0  0  0  0  0  0  0
   38.5135   77.2802   56.3865 H   0  0  0  0  0  0  0  0  0  0  0  0
   39.9142   75.4857   56.5745 H   0  0  0  0  0  0  0  0  0  0  0  0
   38.9912   73.8858   58.7745 H   0  0  0  0  0  0  0  0  0  0  0  0
   41.3610   80.4664   63.0201 H   0  0  0  0  0  0  0  0  0  0  0  0
   42.0619   78.1283   63.1223 H   0  0  0  0  0  0  0  0  0  0  0  0
   41.4835   76.5230   61.2919 H   0  0  0  0  0  0  0  0  0  0  0  0
   40.0211   84.3337   58.8377 H   0  0  0  0  0  0  0  0  0  0  0  0
   40.7410   81.9487   59.0170 H   0  0  0  0  0  0  0  0  0  0  0  0
   38.3588   84.0629   62.7047 H   0  0  0  0  0  0  0  0  0  0  0  0
   37.9228   76.2277   60.8685 H   0  0  0  0  0  0  0  0  0  0  0  0
   37.4702   74.3111   57.5295 H   0  0  0  0  0  0  0  0  0  0  0  0
   39.6176   72.4063   58.8818 H   0  0  0  0  0  0  0  0  0  0  0  0
   42.4788   73.4152   58.6789 H   0  0  0  0  0  0  0  0  0  0  0  0
   41.0972   72.4589   62.0158 H   0  0  0  0  0  0  0  0  0  0  0  0
   39.8470   72.2447   60.7117 H   0  0  0  0  0  0  0  0  0  0  0  0
   42.7499   71.3277   60.5478 H   0  0  0  0  0  0  0  0  0  0  0  0
   40.8578   70.1243   58.7785 H   0  0  0  0  0  0  0  0  0  0  0  0
   39.8133   71.5948   56.8683 H   0  0  0  0  0  0  0  0  0  0  0  0
   41.2056   70.1854   62.0071 H   0  0  0  0  0  0  0  0  0  0  0  0
   43.3597   71.0136   58.7423 H   0  0  0  0  0  0  0  0  0  0  0  0
  1 20  1  0
  2  1  1  0
  2 13  1  0
  3  2  1  0
  4  3  1  0
  5  4  1  0
  5  6  1  0
  6  1  1  0
  7  8  1  0
  8 13  2  0
  8  9  1  0
  9 10  2  0
 10 11  1  0
 12 11  2  0
 13 12  1  0
 14 15  2  0
 14 19  1  0
 15 16  1  0
 16  9  1  0
 16 17  2  0
 18 17  1  0
 19 18  2  0
 21  5  1  0
 22  6  1  0
 23 29  1  0
 23 28  1  0
 23 24  1  0
 24 22  1  0
 24 25  1  0
 25 26  1  0
 27 26  1  0
 27 30  1  0
 28 31  1  0
 28 27  1  0
  1 32  1  1
  2 33  1  6
  4 34  1  0
  4 35  1  0
  5 36  1  6
  6 37  1  1
 10 38  1  0
 11 39  1  0
 12 40  1  0
 14 41  1  0
 15 42  1  0
 18 43  1  0
 20 44  1  0
 21 45  1  0
 23 46  1  1
 24 47  1  1
 26 48  1  0
 26 49  1  0
 27 50  1  6
 28 51  1  1
 29 52  1  0
 30 53  1  0
 31 54  1  0
M  END
>  <Score>  (1) 
-7.68238

>  <Score_dual>  (1) 
-7.98

>  <Choices>  (1) 
[None, 8, ['9-19', 105], 19, ['21-23', 315], 36, ['21-17', 180]]

$$$$
