
     RDKit          3D

 43 45  0  0  1  0  0  0  0  0999 V2000
   39.5870   80.2400   59.1480 F   0  0  0  0  0  0  0  0  0  0  0  0
   39.9720   79.4310   60.1800 C   0  0  0  0  0  0  0  0  0  0  0  0
   40.3380   80.0310   61.3210 C   0  0  0  0  0  0  0  0  0  0  0  0
   40.7460   79.1700   62.3470 C   0  0  0  0  0  0  0  0  0  0  0  0
   40.7600   77.8150   62.1660 C   0  0  0  0  0  0  0  0  0  0  0  0
   40.3740   77.2250   60.9640 C   0  0  0  0  0  0  0  0  0  0  0  0
   39.9800   78.0510   59.9690 C   0  0  0  0  0  0  0  0  0  0  0  0
   39.0650   75.9880   58.8440 C   0  0  2  0  0  0  0  0  0  0  0  0
   39.5270   77.4690   58.6860 C   0  0  1  0  0  0  0  0  0  0  0  0
   38.6210   78.1780   58.0780 O   0  0  0  0  0  0  0  0  0  0  0  0
   37.7460   77.5100   57.2180 C   0  0  0  0  0  0  0  0  0  0  0  0
   38.3870   76.3790   56.5000 C   0  0  1  0  0  0  0  0  0  0  0  0
   39.1570   75.4250   57.4310 C   0  0  1  0  0  0  0  0  0  0  0  0
   37.8410   76.0060   59.3480 O   0  0  0  0  0  0  0  0  0  0  0  0
   37.3740   75.6170   55.9180 O   0  0  0  0  0  0  0  0  0  0  0  0
   40.5110   75.6030   56.9750 O   0  0  0  0  0  0  0  0  0  0  0  0
   40.6420   75.1080   55.7120 C   0  0  0  0  0  0  0  0  0  0  0  0
   39.9670   83.6940   60.4650 C   0  0  0  0  0  0  0  0  0  0  0  0
   39.9750   82.3000   60.3590 C   0  0  0  0  0  0  0  0  0  0  0  0
   40.3330   81.4660   61.4590 C   0  0  0  0  0  0  0  0  0  0  0  0
   40.6640   82.0860   62.6050 N   0  0  0  0  0  0  0  0  0  0  0  0
   40.6470   83.4300   62.6740 C   0  0  0  0  0  0  0  0  0  0  0  0
   40.3070   84.2360   61.6340 N   0  0  0  0  0  0  0  0  0  0  0  0
   41.0350   84.0150   64.0030 C   0  0  0  0  0  0  0  0  0  0  0  0
   40.8250   85.3930   64.0140 F   0  0  0  0  0  0  0  0  0  0  0  0
   40.2580   83.5070   65.0290 F   0  0  0  0  0  0  0  0  0  0  0  0
   42.3680   83.8170   64.2940 F   0  0  0  0  0  0  0  0  0  0  0  0
   41.0602   79.5904   63.3137 H   0  0  0  0  0  0  0  0  0  0  0  0
   41.0862   77.1702   62.9953 H   0  0  0  0  0  0  0  0  0  0  0  0
   40.3893   76.1332   60.8304 H   0  0  0  0  0  0  0  0  0  0  0  0
   39.6620   75.3637   59.5251 H   0  0  0  0  0  0  0  0  0  0  0  0
   40.4154   77.4840   58.0375 H   0  0  0  0  0  0  0  0  0  0  0  0
   36.9050   77.1182   57.8089 H   0  0  0  0  0  0  0  0  0  0  0  0
   37.4136   78.2344   56.4598 H   0  0  0  0  0  0  0  0  0  0  0  0
   39.0942   76.8139   55.7785 H   0  0  0  0  0  0  0  0  0  0  0  0
   38.8017   74.3840   57.4256 H   0  0  0  0  0  0  0  0  0  0  0  0
   37.8912   76.0053   60.3367 H   0  0  0  0  0  0  0  0  0  0  0  0
   36.8231   75.2026   56.6286 H   0  0  0  0  0  0  0  0  0  0  0  0
   40.9231   74.0457   55.7619 H   0  0  0  0  0  0  0  0  0  0  0  0
   39.6860   75.2096   55.1774 H   0  0  0  0  0  0  0  0  0  0  0  0
   41.4226   75.6692   55.1774 H   0  0  0  0  0  0  0  0  0  0  0  0
   39.6881   84.3251   59.6083 H   0  0  0  0  0  0  0  0  0  0  0  0
   39.6978   81.8342   59.4018 H   0  0  0  0  0  0  0  0  0  0  0  0
  1  2  1  0
  2  3  2  0
  3 20  1  0
  3  4  1  0
  5  4  2  0
  6  5  1  0
  7  2  1  0
  7  6  2  0
  8 14  1  0
  9  8  1  0
  9  7  1  0
 10  9  1  0
 11 10  1  0
 12 11  1  0
 12 13  1  0
 13  8  1  0
 15 12  1  0
 16 13  1  0
 17 16  1  0
 18 23  2  0
 19 18  1  0
 19 20  2  0
 20 21  1  0
 21 22  2  0
 22 24  1  0
 23 22  1  0
 24 25  1  0
 24 27  1  0
 24 26  1  0
  4 28  1  0
  5 29  1  0
  6 30  1  0
  8 31  1  1
  9 32  1  6
 11 33  1  0
 11 34  1  0
 12 35  1  6
 13 36  1  1
 14 37  1  0
 15 38  1  0
 17 39  1  0
 17 40  1  0
 17 41  1  0
 18 42  1  0
 19 43  1  0
M  END
>  <Score>  (1) 
-7.09547

>  <Score_dual>  (1) 
-7.03

>  <Choices>  (1) 
[None, 8, ['9-19', 105], 19, ['21-23', 315], 36, ['3-3', 0], 39, ['11-13', 255]]

$$$$
