
     RDKit          3D

 47 50  0  0  1  0  0  0  0  0999 V2000
   40.8480   80.8880   61.3720 C   0  0  0  0  0  0  0  0  0  0  0  0
   40.4250   80.1740   60.2520 C   0  0  0  0  0  0  0  0  0  0  0  0
   40.1950   78.8250   60.3330 C   0  0  0  0  0  0  0  0  0  0  0  0
   40.3910   78.2070   61.5440 N   0  0  0  0  0  0  0  0  0  0  0  0
   40.7990   78.9000   62.6300 C   0  0  0  0  0  0  0  0  0  0  0  0
   41.0270   80.2320   62.5490 N   0  0  0  0  0  0  0  0  0  0  0  0
   42.3320   82.7260   62.1850 C   0  0  2  0  0  0  0  0  0  0  0  0
   41.1870   82.3000   61.3420 C   0  0  2  0  0  0  0  0  0  0  0  0
   39.9230   83.1540   61.6110 C   0  0  0  0  0  0  0  0  0  0  0  0
   39.5460   83.1300   62.9320 O   0  0  0  0  0  0  0  0  0  0  0  0
   40.6180   83.3560   63.7980 C   0  0  0  0  0  0  0  0  0  0  0  0
   41.8420   83.8730   63.0720 C   0  0  1  0  0  0  0  0  0  0  0  0
   43.4510   83.0840   61.4800 O   0  0  0  0  0  0  0  0  0  0  0  0
   42.7760   84.2160   64.0470 O   0  0  0  0  0  0  0  0  0  0  0  0
   40.1780   80.8790   59.0210 C   0  0  0  0  0  0  0  0  0  0  0  0
   39.9310   80.3790   57.8360 C   0  0  0  0  0  0  0  0  0  0  0  0
   39.6780   81.1480   56.6050 C   0  0  0  0  0  0  0  0  0  0  0  0
   39.3930   80.2500   55.4580 C   0  0  0  0  0  0  0  0  0  0  0  0
   40.0210   80.3180   54.2480 N   0  0  0  0  0  0  0  0  0  0  0  0
   39.7470   79.4820   53.2450 C   0  0  0  0  0  0  0  0  0  0  0  0
   38.8390   78.5020   53.3240 N   0  0  0  0  0  0  0  0  0  0  0  0
   38.1690   78.3650   54.4960 C   0  0  0  0  0  0  0  0  0  0  0  0
   37.2300   77.3650   54.5910 C   0  0  0  0  0  0  0  0  0  0  0  0
   36.5220   77.2060   55.7880 C   0  0  0  0  0  0  0  0  0  0  0  0
   36.7930   78.0550   56.8180 C   0  0  0  0  0  0  0  0  0  0  0  0
   37.7380   79.0490   56.6980 C   0  0  0  0  0  0  0  0  0  0  0  0
   38.4580   79.2350   55.5290 C   0  0  0  0  0  0  0  0  0  0  0  0
   39.8630   78.2538   59.4535 H   0  0  0  0  0  0  0  0  0  0  0  0
   40.9469   78.3780   63.5869 H   0  0  0  0  0  0  0  0  0  0  0  0
   42.6595   81.8637   62.7843 H   0  0  0  0  0  0  0  0  0  0  0  0
   41.5589   82.4790   60.3224 H   0  0  0  0  0  0  0  0  0  0  0  0
   40.1317   84.1947   61.3221 H   0  0  0  0  0  0  0  0  0  0  0  0
   39.0989   82.7289   61.0193 H   0  0  0  0  0  0  0  0  0  0  0  0
   40.3140   84.0973   64.5518 H   0  0  0  0  0  0  0  0  0  0  0  0
   40.8831   82.3956   64.2643 H   0  0  0  0  0  0  0  0  0  0  0  0
   41.6514   84.7563   62.4447 H   0  0  0  0  0  0  0  0  0  0  0  0
   44.1779   83.3166   62.1106 H   0  0  0  0  0  0  0  0  0  0  0  0
   42.3840   84.0721   64.9446 H   0  0  0  0  0  0  0  0  0  0  0  0
   40.1995   81.9770   59.0839 H   0  0  0  0  0  0  0  0  0  0  0  0
   39.9105   79.2824   57.7519 H   0  0  0  0  0  0  0  0  0  0  0  0
   38.8135   81.8087   56.7664 H   0  0  0  0  0  0  0  0  0  0  0  0
   40.5781   81.7355   56.3711 H   0  0  0  0  0  0  0  0  0  0  0  0
   40.2979   79.6050   52.3009 H   0  0  0  0  0  0  0  0  0  0  0  0
   37.0377   76.6985   53.7373 H   0  0  0  0  0  0  0  0  0  0  0  0
   35.7653   76.4147   55.8942 H   0  0  0  0  0  0  0  0  0  0  0  0
   36.2454   77.9442   57.7655 H   0  0  0  0  0  0  0  0  0  0  0  0
   37.9266   79.7138   57.5538 H   0  0  0  0  0  0  0  0  0  0  0  0
  1  6  2  0
  2  3  2  0
  2  1  1  0
  3  4  1  0
  4  5  2  0
  6  5  1  0
  7 12  1  0
  8  1  1  0
  8  9  1  0
  8  7  1  0
  9 10  1  0
 10 11  1  0
 12 11  1  0
 12 14  1  0
 13  7  1  0
 15  2  1  0
 16 15  2  0
 17 16  1  0
 18 27  1  0
 18 17  1  0
 19 18  2  0
 20 21  2  0
 20 19  1  0
 21 22  1  0
 22 23  1  0
 22 27  2  0
 23 24  2  0
 24 25  1  0
 26 25  2  0
 27 26  1  0
  3 28  1  0
  5 29  1  0
  7 30  1  1
  8 31  1  6
  9 32  1  0
  9 33  1  0
 11 34  1  0
 11 35  1  0
 12 36  1  6
 13 37  1  0
 14 38  1  0
 15 39  1  0
 16 40  1  0
 17 41  1  0
 17 42  1  0
 20 43  1  0
 23 44  1  0
 24 45  1  0
 25 46  1  0
 26 47  1  0
M  END
>  <Score>  (1) 
-7.14046

>  <Score_dual>  (1) 
-7.21

>  <Choices>  (1) 
[None, 7, ['42-15', 30], 9, ['59-16', 75], 32, ['47-14', 300]]

$$$$
