
     RDKit          3D

 54 58  0  0  0  0  0  0  0  0999 V2000
   40.3130   79.5400   59.1790 C   0  0  0  0  0  0  0  0  0  0  0  0
   41.0600   80.2520   60.0630 C   0  0  0  0  0  0  0  0  0  0  0  0
   41.5360   81.5450   59.9170 C   0  0  0  0  0  0  0  0  0  0  0  0
   41.1990   82.1730   58.7140 C   0  0  0  0  0  0  0  0  0  0  0  0
   40.4580   81.5240   57.7880 C   0  0  0  0  0  0  0  0  0  0  0  0
   39.9980   80.2030   57.9920 C   0  0  0  0  0  0  0  0  0  0  0  0
   41.8380   82.9230   62.0040 C   0  0  0  0  0  0  0  0  0  0  0  0
   42.3240   82.0840   61.0390 C   0  0  0  0  0  0  0  0  0  0  0  0
   43.6310   81.6660   61.0550 C   0  0  0  0  0  0  0  0  0  0  0  0
   44.4840   82.0950   62.0570 C   0  0  0  0  0  0  0  0  0  0  0  0
   44.0250   82.9490   63.0520 C   0  0  0  0  0  0  0  0  0  0  0  0
   42.6960   83.3440   62.9970 C   0  0  0  0  0  0  0  0  0  0  0  0
   40.2210   83.3960   61.9820 S   0  0  0  0  0  0  0  0  0  0  0  0
   39.2810   82.2320   62.1700 O   0  0  0  0  0  0  0  0  0  0  0  0
   40.0510   84.1950   63.3230 O   0  0  0  0  0  0  0  0  0  0  0  0
   39.5810   84.5540   60.9320 C   0  0  0  0  0  0  0  0  0  0  0  0
   40.2350   77.6160   60.5930 C   0  0  0  0  0  0  0  0  0  0  0  0
   39.8320   78.2060   59.3640 C   0  0  0  0  0  0  0  0  0  0  0  0
   39.0580   77.4710   58.5320 C   0  0  0  0  0  0  0  0  0  0  0  0
   38.6820   76.2040   58.8750 N   0  0  0  0  0  0  0  0  0  0  0  0
   39.0810   75.6640   60.0580 C   0  0  0  0  0  0  0  0  0  0  0  0
   39.8580   76.3610   60.9240 N   0  0  0  0  0  0  0  0  0  0  0  0
   38.5940   74.2820   60.3410 C   0  0  0  0  0  0  0  0  0  0  0  0
   39.6560   73.2730   60.1000 C   0  0  0  0  0  0  0  0  0  0  0  0
   39.9160   72.8600   58.8040 C   0  0  0  0  0  0  0  0  0  0  0  0
   40.9050   71.9190   58.5670 C   0  0  0  0  0  0  0  0  0  0  0  0
   41.6330   71.3960   59.6410 C   0  0  0  0  0  0  0  0  0  0  0  0
   42.5920   70.4820   59.4070 N   0  0  0  0  0  0  0  0  0  0  0  0
   43.3220   69.9490   60.4280 C   0  0  0  0  0  0  0  0  0  0  0  0
   43.0240   70.3950   61.7000 C   0  0  0  0  0  0  0  0  0  0  0  0
   42.0540   71.3280   61.9980 C   0  0  0  0  0  0  0  0  0  0  0  0
   41.3500   71.8300   60.9230 C   0  0  0  0  0  0  0  0  0  0  0  0
   40.3660   72.7660   61.1660 C   0  0  0  0  0  0  0  0  0  0  0  0
   41.3166   79.7428   61.0037 H   0  0  0  0  0  0  0  0  0  0  0  0
   41.5388   83.2011   58.5199 H   0  0  0  0  0  0  0  0  0  0  0  0
   40.2059   82.0386   56.8490 H   0  0  0  0  0  0  0  0  0  0  0  0
   39.3958   79.7010   57.2204 H   0  0  0  0  0  0  0  0  0  0  0  0
   44.0011   80.9893   60.2707 H   0  0  0  0  0  0  0  0  0  0  0  0
   45.5310   81.7579   62.0656 H   0  0  0  0  0  0  0  0  0  0  0  0
   44.6910   83.2993   63.8543 H   0  0  0  0  0  0  0  0  0  0  0  0
   42.3124   84.0192   63.7760 H   0  0  0  0  0  0  0  0  0  0  0  0
   39.1302   85.3696   61.5164 H   0  0  0  0  0  0  0  0  0  0  0  0
   40.3841   84.9577   60.2979 H   0  0  0  0  0  0  0  0  0  0  0  0
   38.8119   84.0888   60.2979 H   0  0  0  0  0  0  0  0  0  0  0  0
   40.8651   78.1913   61.2872 H   0  0  0  0  0  0  0  0  0  0  0  0
   38.7295   77.8973   57.5727 H   0  0  0  0  0  0  0  0  0  0  0  0
   38.2763   74.2229   61.3925 H   0  0  0  0  0  0  0  0  0  0  0  0
   37.7526   74.0667   59.6660 H   0  0  0  0  0  0  0  0  0  0  0  0
   39.3393   73.2776   57.9655 H   0  0  0  0  0  0  0  0  0  0  0  0
   41.1165   71.5852   57.5404 H   0  0  0  0  0  0  0  0  0  0  0  0
   44.1085   69.2015   60.2472 H   0  0  0  0  0  0  0  0  0  0  0  0
   43.6025   69.9755   62.5363 H   0  0  0  0  0  0  0  0  0  0  0  0
   41.8536   71.6524   63.0298 H   0  0  0  0  0  0  0  0  0  0  0  0
   40.1524   73.1011   62.1917 H   0  0  0  0  0  0  0  0  0  0  0  0
  1 18  1  0
  1  2  2  0
  3  2  1  0
  3  8  1  0
  4  3  2  0
  5  6  2  0
  5  4  1  0
  6  1  1  0
  7 12  2  0
  8  9  2  0
  8  7  1  0
  9 10  1  0
 10 11  2  0
 12 11  1  0
 13  7  1  0
 13 14  2  0
 13 15  2  0
 16 13  1  0
 17 22  2  0
 18 17  1  0
 19 20  1  0
 19 18  2  0
 20 21  2  0
 21 23  1  0
 21 22  1  0
 24 23  1  0
 24 33  1  0
 25 24  2  0
 26 25  1  0
 26 27  2  0
 27 32  1  0
 28 27  1  0
 28 29  2  0
 29 30  1  0
 30 31  2  0
 32 33  2  0
 32 31  1  0
  2 34  1  0
  4 35  1  0
  5 36  1  0
  6 37  1  0
  9 38  1  0
 10 39  1  0
 11 40  1  0
 12 41  1  0
 16 42  1  0
 16 43  1  0
 16 44  1  0
 17 45  1  0
 19 46  1  0
 23 47  1  0
 23 48  1  0
 25 49  1  0
 26 50  1  0
 29 51  1  0
 30 52  1  0
 31 53  1  0
 33 54  1  0
M  END
>  <Score>  (1) 
-7.59212

>  <Score_dual>  (1) 
-8.23

>  <Choices>  (1) 
[None, 7, ['1-28', 285], 16, ['27-21', 165], 32, ['3-1', 0], 35, ['3-11', 0], 38, ['36-23', 195]]

$$$$
