
     RDKit          3D

 36 39  0  0  0  0  0  0  0  0999 V2000
   41.6470   79.7740   61.5000 C   0  0  0  0  0  0  0  0  0  0  0  0
   42.2830   78.6600   62.0110 C   0  0  0  0  0  0  0  0  0  0  0  0
   42.0100   77.4470   61.3690 C   0  0  0  0  0  0  0  0  0  0  0  0
   41.1620   77.4130   60.3100 N   0  0  0  0  0  0  0  0  0  0  0  0
   40.5710   78.5120   59.8520 C   0  0  0  0  0  0  0  0  0  0  0  0
   40.8010   79.6970   60.4320 N   0  0  0  0  0  0  0  0  0  0  0  0
   41.9100   81.0740   62.1240 C   0  0  0  0  0  0  0  0  0  0  0  0
   43.2290   81.5290   62.1430 C   0  0  0  0  0  0  0  0  0  0  0  0
   43.4220   82.7970   62.7050 C   0  0  0  0  0  0  0  0  0  0  0  0
   42.3180   83.4750   63.1830 C   0  0  0  0  0  0  0  0  0  0  0  0
   41.0630   82.9920   63.1450 C   0  0  0  0  0  0  0  0  0  0  0  0
   40.8610   81.7660   62.6030 N   0  0  0  0  0  0  0  0  0  0  0  0
   40.3120   84.4450   64.8410 C   0  0  0  0  0  0  0  0  0  0  0  0
   41.5290   84.2730   65.1610 O   0  0  0  0  0  0  0  0  0  0  0  0
   39.9590   83.6970   63.6450 N   0  0  0  0  0  0  0  0  0  0  0  0
   39.5800   79.4940   57.8120 C   0  0  0  0  0  0  0  0  0  0  0  0
   39.6680   78.4300   58.7110 C   0  0  0  0  0  0  0  0  0  0  0  0
   38.8810   77.3480   58.4590 C   0  0  0  0  0  0  0  0  0  0  0  0
   38.0380   77.3100   57.3680 C   0  0  0  0  0  0  0  0  0  0  0  0
   37.1620   76.4020   56.8690 N   0  0  0  0  0  0  0  0  0  0  0  0
   36.5960   76.9120   55.7430 C   0  0  0  0  0  0  0  0  0  0  0  0
   37.0930   78.1470   55.4950 N   0  0  0  0  0  0  0  0  0  0  0  0
   37.9620   78.3790   56.4790 C   0  0  0  0  0  0  0  0  0  0  0  0
   38.7420   79.4700   56.7150 C   0  0  0  0  0  0  0  0  0  0  0  0
   42.9644   78.7224   62.8723 H   0  0  0  0  0  0  0  0  0  0  0  0
   42.4835   76.5195   61.7233 H   0  0  0  0  0  0  0  0  0  0  0  0
   44.0616   80.9315   61.7432 H   0  0  0  0  0  0  0  0  0  0  0  0
   44.4265   83.2413   62.7642 H   0  0  0  0  0  0  0  0  0  0  0  0
   42.4744   84.4714   63.6219 H   0  0  0  0  0  0  0  0  0  0  0  0
   39.6108   85.0819   65.4002 H   0  0  0  0  0  0  0  0  0  0  0  0
   39.0206   83.6865   63.2206 H   0  0  0  0  0  0  0  0  0  0  0  0
   40.2016   80.3851   57.9839 H   0  0  0  0  0  0  0  0  0  0  0  0
   38.9183   76.4853   59.1404 H   0  0  0  0  0  0  0  0  0  0  0  0
   36.9591   75.4780   57.2764 H   0  0  0  0  0  0  0  0  0  0  0  0
   35.8454   76.3976   55.1249 H   0  0  0  0  0  0  0  0  0  0  0  0
   38.7044   80.3316   56.0321 H   0  0  0  0  0  0  0  0  0  0  0  0
  1  2  2  0
  1  7  1  0
  3  2  1  0
  4  3  2  0
  5  4  1  0
  5  6  2  0
  6  1  1  0
  7  8  2  0
  7 12  1  0
  8  9  1  0
  9 10  2  0
 11 10  1  0
 11 15  1  0
 12 11  2  0
 13 14  2  0
 15 13  1  0
 16 17  2  0
 17  5  1  0
 18 17  1  0
 19 18  2  0
 20 19  1  0
 21 20  1  0
 22 21  2  0
 22 23  1  0
 23 24  2  0
 23 19  1  0
 24 16  1  0
  2 25  1  0
  3 26  1  0
  8 27  1  0
  9 28  1  0
 10 29  1  0
 13 30  1  0
 15 31  1  0
 16 32  1  0
 18 33  1  0
 20 34  1  0
 21 35  1  0
 24 36  1  0
M  END
>  <Score>  (1) 
-7.15066

>  <Score_dual>  (1) 
-7.15

>  <Choices>  (1) 
[None, 6, ['6-18', 60], 18, ['12-4', 60], 22, ['34-20', 30]]

$$$$
