
     RDKit          3D

 44 47  0  0  0  0  0  0  0  0999 V2000
   40.4580   78.9600   57.8350 C   0  0  0  0  0  0  0  0  0  0  0  0
   40.3260   80.4120   61.2730 C   0  0  0  0  0  0  0  0  0  0  0  0
   40.3620   80.2790   59.9070 C   0  0  0  0  0  0  0  0  0  0  0  0
   40.4200   79.0320   59.2890 C   0  0  0  0  0  0  0  0  0  0  0  0
   40.4390   77.9910   60.1240 N   0  0  0  0  0  0  0  0  0  0  0  0
   40.4030   78.1370   61.4680 C   0  0  0  0  0  0  0  0  0  0  0  0
   40.3470   79.3460   62.0380 N   0  0  0  0  0  0  0  0  0  0  0  0
   40.2660   81.7910   61.7950 C   0  0  0  0  0  0  0  0  0  0  0  0
   39.7320   82.9000   61.2020 C   0  0  0  0  0  0  0  0  0  0  0  0
   39.9410   83.9240   62.1210 C   0  0  0  0  0  0  0  0  0  0  0  0
   40.5570   83.4460   63.1810 N   0  0  0  0  0  0  0  0  0  0  0  0
   40.7620   82.1420   62.9950 N   0  0  0  0  0  0  0  0  0  0  0  0
   40.9450   84.2210   64.3530 C   0  0  0  0  0  0  0  0  0  0  0  0
   42.2250   83.9180   64.7620 F   0  0  0  0  0  0  0  0  0  0  0  0
   40.0560   83.9570   65.3960 F   0  0  0  0  0  0  0  0  0  0  0  0
   40.8060   85.5880   64.1190 F   0  0  0  0  0  0  0  0  0  0  0  0
   39.0770   78.6830   57.3390 C   0  0  0  0  0  0  0  0  0  0  0  0
   38.7220   77.3810   56.8620 C   0  0  0  0  0  0  0  0  0  0  0  0
   37.9540   77.0340   55.7840 C   0  0  0  0  0  0  0  0  0  0  0  0
   37.6420   75.7520   55.3780 C   0  0  0  0  0  0  0  0  0  0  0  0
   38.1640   74.7570   56.1450 N   0  0  0  0  0  0  0  0  0  0  0  0
   38.9230   75.0590   57.2090 C   0  0  0  0  0  0  0  0  0  0  0  0
   39.1940   76.3220   57.5590 N   0  0  0  0  0  0  0  0  0  0  0  0
   38.2530   75.1640   60.1080 Cl  0  0  0  0  0  0  0  0  0  0  0  0
   39.2220   73.9020   59.3750 C   0  0  0  0  0  0  0  0  0  0  0  0
   39.4720   73.9510   58.0190 C   0  0  0  0  0  0  0  0  0  0  0  0
   40.2170   73.0180   57.3470 C   0  0  0  0  0  0  0  0  0  0  0  0
   40.7620   71.9480   58.0580 C   0  0  0  0  0  0  0  0  0  0  0  0
   40.5220   71.8780   59.4320 C   0  0  0  0  0  0  0  0  0  0  0  0
   39.7660   72.8390   60.0730 C   0  0  0  0  0  0  0  0  0  0  0  0
   40.8148   79.9164   57.4252 H   0  0  0  0  0  0  0  0  0  0  0  0
   41.1415   78.1599   57.5146 H   0  0  0  0  0  0  0  0  0  0  0  0
   40.3445   81.1840   59.2820 H   0  0  0  0  0  0  0  0  0  0  0  0
   40.4201   77.2416   62.1068 H   0  0  0  0  0  0  0  0  0  0  0  0
   39.2455   82.9683   60.2178 H   0  0  0  0  0  0  0  0  0  0  0  0
   39.6377   84.9723   61.9825 H   0  0  0  0  0  0  0  0  0  0  0  0
   38.3926   78.9114   58.1693 H   0  0  0  0  0  0  0  0  0  0  0  0
   39.0113   79.3037   56.4332 H   0  0  0  0  0  0  0  0  0  0  0  0
   37.5447   77.8581   55.1813 H   0  0  0  0  0  0  0  0  0  0  0  0
   37.0157   75.5493   54.4967 H   0  0  0  0  0  0  0  0  0  0  0  0
   40.3830   73.1109   56.2636 H   0  0  0  0  0  0  0  0  0  0  0  0
   41.3643   71.1805   57.5500 H   0  0  0  0  0  0  0  0  0  0  0  0
   40.9421   71.0437   60.0129 H   0  0  0  0  0  0  0  0  0  0  0  0
   39.5935   72.7580   61.1564 H   0  0  0  0  0  0  0  0  0  0  0  0
  1  4  1  0
  2  8  1  0
  2  7  1  0
  3  2  2  0
  4  3  1  0
  4  5  2  0
  5  6  1  0
  6  7  2  0
  8 12  2  0
  9  8  1  0
  9 10  2  0
 10 11  1  0
 11 13  1  0
 12 11  1  0
 13 14  1  0
 13 15  1  0
 16 13  1  0
 17  1  1  0
 18 17  1  0
 18 23  1  0
 19 18  2  0
 20 19  1  0
 20 21  2  0
 21 22  1  0
 22 23  2  0
 22 26  1  0
 25 30  2  0
 25 24  1  0
 26 25  1  0
 27 26  2  0
 27 28  1  0
 28 29  2  0
 29 30  1  0
  1 31  1  0
  1 32  1  0
  3 33  1  0
  6 34  1  0
  9 35  1  0
 10 36  1  0
 17 37  1  0
 17 38  1  0
 19 39  1  0
 20 40  1  0
 27 41  1  0
 28 42  1  0
 29 43  1  0
 30 44  1  0
M  END
>  <Score>  (1) 
-7.18864

>  <Score_dual>  (1) 
-7.09

>  <Choices>  (1) 
[None, 6, ['22-8', 120], 16, ['11-3', 255], 18, ['4-11', 330], 25, ['19-12', 285], 33, ['7-18', 45]]

$$$$
