27-21_285_repair
     RDKit          3D

 28 31  0  0  0  0  0  0  0  0999 V2000
   39.6620   84.0370   59.8660 C   0  0  0  0  0  0  0  0  0  0  0  0
   40.3500   82.8150   59.9550 C   0  0  0  0  0  0  0  0  0  0  0  0
   40.2290   82.0810   61.1220 C   0  0  0  0  0  0  0  0  0  0  0  0
   39.4630   82.5740   62.1070 N   0  0  0  0  0  0  0  0  0  0  0  0
   38.8140   83.7440   62.0020 C   0  0  0  0  0  0  0  0  0  0  0  0
   38.9160   84.4800   60.8710 N   0  0  0  0  0  0  0  0  0  0  0  0
   40.9040   80.8480   61.2580 N   0  0  0  0  0  0  0  0  0  0  0  0
   42.3430   80.9220   61.4370 C   0  0  0  0  0  0  0  0  0  0  0  0
   43.0730   79.6660   61.4980 C   0  0  0  0  0  0  0  0  0  0  0  0
   42.2690   78.4720   61.3730 C   0  0  0  0  0  0  0  0  0  0  0  0
   40.9040   78.6170   62.0740 C   0  0  0  0  0  0  0  0  0  0  0  0
   40.1470   79.6220   61.2110 C   0  0  0  0  0  0  0  0  0  0  0  0
   41.7730   75.6860   60.1500 Cl  0  0  0  0  0  0  0  0  0  0  0  0
   42.9320   76.0340   61.4080 C   0  0  0  0  0  0  0  0  0  0  0  0
   42.9890   77.3080   61.8570 C   0  0  0  0  0  0  0  0  0  0  0  0
   43.9370   77.5240   62.8840 C   0  0  0  0  0  0  0  0  0  0  0  0
   44.7550   76.5390   63.4090 C   0  0  0  0  0  0  0  0  0  0  0  0
   44.6190   75.2410   62.8720 C   0  0  0  0  0  0  0  0  0  0  0  0
   43.7000   75.0020   61.8700 C   0  0  0  0  0  0  0  0  0  0  0  0
   44.2850   72.6760   62.0110 C   0  0  0  0  0  0  0  0  0  0  0  0
   43.5670   73.6570   61.3230 C   0  0  0  0  0  0  0  0  0  0  0  0
   42.8060   73.3260   60.2170 C   0  0  0  0  0  0  0  0  0  0  0  0
   42.7620   72.0060   59.7960 C   0  0  0  0  0  0  0  0  0  0  0  0
   43.4790   71.0470   60.4900 C   0  0  0  0  0  0  0  0  0  0  0  0
   44.2450   71.3450   61.5920 C   0  0  0  0  0  0  0  0  0  0  0  0
   45.2670   73.0420   63.4200 S   0  0  0  0  0  0  0  0  0  0  0  0
   46.6910   72.6120   63.2270 O   0  0  0  0  0  0  0  0  0  0  0  0
   44.7240   72.3340   64.6270 O   0  0  0  0  0  0  0  0  0  0  0  0
  1  2  2  0
  1  6  1  0
  2  3  1  0
  3  4  2  0
  3  7  1  0
  4  5  1  0
  5  6  2  0
  7  8  1  0
  7 12  1  0
  8  9  1  0
  9 10  1  0
 10 11  1  0
 10 15  1  0
 11 12  1  0
 13 14  1  0
 14 15  2  0
 14 19  1  0
 15 16  1  0
 16 17  2  0
 17 18  1  0
 18 19  2  0
 19 21  1  0
 20 21  2  0
 20 25  1  0
 20 26  1  0
 21 22  1  0
 22 23  2  0
 23 24  1  0
 24 25  2  0
 26 27  2  0
 26 28  2  0
M  END
>  <Score>  (1) 
-7.00716

>  <Score_dual>  (1) 
-7.01

>  <Choices>  (1) 
[None, 8, ['8-4', 60], 17, ['7-17', 165], 32, ['27-21', 285]]

$$$$
