
     RDKit          3D

 55 60  0  0  1  0  0  0  0  0999 V2000
   41.5890   78.4220   57.0140 Cl  0  0  0  0  0  0  0  0  0  0  0  0
   39.8830   78.6930   56.6280 C   0  0  0  0  0  0  0  0  0  0  0  0
   39.4960   79.9910   56.7020 C   0  0  0  0  0  0  0  0  0  0  0  0
   38.1400   80.2400   56.4100 C   0  0  0  0  0  0  0  0  0  0  0  0
   37.2410   79.2260   56.0650 C   0  0  0  0  0  0  0  0  0  0  0  0
   37.7440   77.9340   56.0190 C   0  0  0  0  0  0  0  0  0  0  0  0
   39.0420   77.6670   56.2950 C   0  0  0  0  0  0  0  0  0  0  0  0
   40.9720   82.8300   58.6850 C   0  0  0  0  0  0  0  0  0  0  0  0
   40.2420   81.7070   58.3330 C   0  0  0  0  0  0  0  0  0  0  0  0
   40.2700   81.1640   57.0370 C   0  0  0  0  0  0  0  0  0  0  0  0
   41.0580   81.7830   56.0910 C   0  0  0  0  0  0  0  0  0  0  0  0
   41.7890   82.9020   56.4310 C   0  0  0  0  0  0  0  0  0  0  0  0
   41.7270   83.3940   57.7140 C   0  0  0  0  0  0  0  0  0  0  0  0
   40.8600   83.2950   60.0550 C   0  0  0  0  0  0  0  0  0  0  0  0
   41.9270   83.7900   60.7820 C   0  0  0  0  0  0  0  0  0  0  0  0
   41.7580   84.2220   62.0930 C   0  0  0  0  0  0  0  0  0  0  0  0
   40.5030   84.1330   62.6180 N   0  0  0  0  0  0  0  0  0  0  0  0
   39.4710   83.6530   61.9110 C   0  0  0  0  0  0  0  0  0  0  0  0
   39.6440   83.2390   60.6460 N   0  0  0  0  0  0  0  0  0  0  0  0
   38.1710   83.5600   62.4500 N   0  0  0  0  0  0  0  0  0  0  0  0
   39.5610   76.2750   56.2210 C   0  0  2  0  0  0  0  0  0  0  0  0
   38.6580   75.1790   56.5260 C   0  0  0  0  0  0  0  0  0  0  0  0
   39.7700   75.5130   57.5310 C   0  0  1  0  0  0  0  0  0  0  0  0
   40.8220   74.4680   57.5960 C   0  0  0  0  0  0  0  0  0  0  0  0
   41.7590   74.1580   56.6310 C   0  0  0  0  0  0  0  0  0  0  0  0
   42.6800   73.1530   56.8390 C   0  0  0  0  0  0  0  0  0  0  0  0
   42.6570   72.4580   58.0270 C   0  0  0  0  0  0  0  0  0  0  0  0
   41.7250   72.7460   59.0230 C   0  0  0  0  0  0  0  0  0  0  0  0
   41.7990   71.9820   60.1700 C   0  0  0  0  0  0  0  0  0  0  0  0
   40.8800   72.2590   61.1640 C   0  0  0  0  0  0  0  0  0  0  0  0
   39.9370   73.2640   60.9910 C   0  0  0  0  0  0  0  0  0  0  0  0
   39.9370   73.9770   59.8100 C   0  0  0  0  0  0  0  0  0  0  0  0
   40.8260   73.7520   58.7790 C   0  0  0  0  0  0  0  0  0  0  0  0
   37.7732   81.2760   56.4554 H   0  0  0  0  0  0  0  0  0  0  0  0
   36.1860   79.4424   55.8409 H   0  0  0  0  0  0  0  0  0  0  0  0
   37.0713   77.1058   55.7516 H   0  0  0  0  0  0  0  0  0  0  0  0
   39.6166   81.2216   59.0967 H   0  0  0  0  0  0  0  0  0  0  0  0
   41.1039   81.3853   55.0664 H   0  0  0  0  0  0  0  0  0  0  0  0
   42.4193   83.3992   55.6790 H   0  0  0  0  0  0  0  0  0  0  0  0
   42.3187   84.2875   57.9622 H   0  0  0  0  0  0  0  0  0  0  0  0
   42.9226   83.8428   60.3172 H   0  0  0  0  0  0  0  0  0  0  0  0
   42.5996   84.6179   62.6803 H   0  0  0  0  0  0  0  0  0  0  0  0
   37.4014   83.1856   61.8769 H   0  0  0  0  0  0  0  0  0  0  0  0
   37.9912   83.8665   63.4168 H   0  0  0  0  0  0  0  0  0  0  0  0
   40.2031   76.5189   55.3618 H   0  0  0  0  0  0  0  0  0  0  0  0
   37.6094   75.3909   56.7819 H   0  0  0  0  0  0  0  0  0  0  0  0
   38.3503   74.2660   55.9952 H   0  0  0  0  0  0  0  0  0  0  0  0
   39.8789   75.8166   58.5826 H   0  0  0  0  0  0  0  0  0  0  0  0
   41.7712   74.7192   55.6850 H   0  0  0  0  0  0  0  0  0  0  0  0
   43.4234   72.9098   56.0656 H   0  0  0  0  0  0  0  0  0  0  0  0
   43.3914   71.6564   58.1944 H   0  0  0  0  0  0  0  0  0  0  0  0
   42.5536   71.1903   60.2873 H   0  0  0  0  0  0  0  0  0  0  0  0
   40.8953   71.6795   62.0989 H   0  0  0  0  0  0  0  0  0  0  0  0
   39.2043   73.4871   61.7805 H   0  0  0  0  0  0  0  0  0  0  0  0
   39.1854   74.7701   59.6830 H   0  0  0  0  0  0  0  0  0  0  0  0
  2  3  2  0
  2  1  1  0
  3 10  1  0
  4  3  1  0
  5  4  2  0
  6  5  1  0
  6  7  2  0
  7  2  1  0
  8 14  1  0
  9  8  2  0
 10  9  1  0
 11 12  1  0
 11 10  2  0
 12 13  2  0
 13  8  1  0
 14 19  1  0
 14 15  2  0
 15 16  1  0
 16 17  2  0
 18 20  1  0
 18 17  1  0
 19 18  2  0
 21  7  1  0
 21 22  1  0
 21 23  1  0
 22 23  1  0
 23 24  1  0
 24 33  2  0
 25 26  2  0
 25 24  1  0
 26 27  1  0
 27 28  2  0
 28 29  1  0
 29 30  2  0
 31 30  1  0
 32 31  2  0
 33 28  1  0
 33 32  1  0
  4 34  1  0
  5 35  1  0
  6 36  1  0
  9 37  1  0
 11 38  1  0
 12 39  1  0
 13 40  1  0
 15 41  1  0
 16 42  1  0
 20 43  1  0
 20 44  1  0
 21 45  1  6
 22 46  1  0
 22 47  1  0
 23 48  1  1
 25 49  1  0
 26 50  1  0
 27 51  1  0
 29 52  1  0
 30 53  1  0
 31 54  1  0
 32 55  1  0
M  END
>  <Score>  (1) 
-7.22713

>  <Score_dual>  (1) 
-8.72

>  <Choices>  (1) 
[None, 6, ['1-28', 270], 16, ['7-17', 105], 29, ['16-25', 300], 36, ['0-3', 0], 38, ['26-24', 90]]

$$$$
