
     RDKit          3D

 48 53  0  0  1  0  0  0  0  0999 V2000
   40.2140   81.7490   57.6390 C   0  0  1  0  0  0  0  0  0  0  0  0
   41.3430   80.9350   57.0010 C   0  0  0  0  0  0  0  0  0  0  0  0
   40.3970   80.3560   57.9850 C   0  0  2  0  0  0  0  0  0  0  0  0
   40.4730   77.6790   59.0710 F   0  0  0  0  0  0  0  0  0  0  0  0
   39.4910   77.9810   58.2210 C   0  0  0  0  0  0  0  0  0  0  0  0
   39.4850   79.2560   57.7210 C   0  0  0  0  0  0  0  0  0  0  0  0
   38.4590   79.5680   56.8230 C   0  0  0  0  0  0  0  0  0  0  0  0
   37.5100   78.6500   56.4630 C   0  0  0  0  0  0  0  0  0  0  0  0
   37.5860   77.4050   57.0040 C   0  0  0  0  0  0  0  0  0  0  0  0
   38.5680   77.0180   57.8970 C   0  0  0  0  0  0  0  0  0  0  0  0
   38.7780   75.7480   58.5840 C   0  0  0  0  0  0  0  0  0  0  0  0
   38.0380   75.6440   59.7010 N   0  0  0  0  0  0  0  0  0  0  0  0
   38.0460   74.5980   60.5410 C   0  0  0  0  0  0  0  0  0  0  0  0
   38.8680   73.5450   60.2520 N   0  0  0  0  0  0  0  0  0  0  0  0
   39.6270   73.6090   59.1400 C   0  0  0  0  0  0  0  0  0  0  0  0
   40.5060   72.5870   58.7760 C   0  0  0  0  0  0  0  0  0  0  0  0
   41.2930   72.6740   57.6270 C   0  0  0  0  0  0  0  0  0  0  0  0
   41.2010   73.7970   56.8340 C   0  0  0  0  0  0  0  0  0  0  0  0
   40.3410   74.8600   57.1440 C   0  0  0  0  0  0  0  0  0  0  0  0
   39.6050   74.6840   58.2940 C   0  0  0  0  0  0  0  0  0  0  0  0
   41.1400   83.7390   60.5820 C   0  0  0  0  0  0  0  0  0  0  0  0
   41.6850   84.9160   59.9980 C   0  0  0  0  0  0  0  0  0  0  0  0
   41.7350   85.0000   58.6000 C   0  0  0  0  0  0  0  0  0  0  0  0
   41.2580   83.9480   57.8800 N   0  0  0  0  0  0  0  0  0  0  0  0
   40.7520   82.8560   58.4790 C   0  0  0  0  0  0  0  0  0  0  0  0
   40.6770   82.7180   59.8270 N   0  0  0  0  0  0  0  0  0  0  0  0
   41.0880   83.6960   62.0280 C   0  0  0  0  0  0  0  0  0  0  0  0
   41.8460   84.4420   62.8950 C   0  0  0  0  0  0  0  0  0  0  0  0
   41.4160   84.0370   64.1720 C   0  0  0  0  0  0  0  0  0  0  0  0
   40.4490   83.0950   64.0330 N   0  0  0  0  0  0  0  0  0  0  0  0
   40.2670   82.9040   62.7470 N   0  0  0  0  0  0  0  0  0  0  0  0
   39.3085   82.3045   57.3535 H   0  0  0  0  0  0  0  0  0  0  0  0
   41.2909   80.6455   55.9411 H   0  0  0  0  0  0  0  0  0  0  0  0
   42.4353   81.0287   56.9114 H   0  0  0  0  0  0  0  0  0  0  0  0
   40.4997   79.8284   58.9447 H   0  0  0  0  0  0  0  0  0  0  0  0
   38.4136   80.5799   56.3940 H   0  0  0  0  0  0  0  0  0  0  0  0
   36.7088   78.9119   55.7563 H   0  0  0  0  0  0  0  0  0  0  0  0
   36.8247   76.6653   56.7155 H   0  0  0  0  0  0  0  0  0  0  0  0
   37.4087   74.5881   61.4375 H   0  0  0  0  0  0  0  0  0  0  0  0
   40.5799   71.6915   59.4105 H   0  0  0  0  0  0  0  0  0  0  0  0
   41.9780   71.8565   57.3578 H   0  0  0  0  0  0  0  0  0  0  0  0
   41.8223   73.8616   55.9286 H   0  0  0  0  0  0  0  0  0  0  0  0
   40.2608   75.7616   56.5190 H   0  0  0  0  0  0  0  0  0  0  0  0
   42.0572   85.7382   60.6268 H   0  0  0  0  0  0  0  0  0  0  0  0
   42.1471   85.8889   58.0999 H   0  0  0  0  0  0  0  0  0  0  0  0
   42.6157   85.1879   62.6476 H   0  0  0  0  0  0  0  0  0  0  0  0
   41.8011   84.4215   65.1279 H   0  0  0  0  0  0  0  0  0  0  0  0
   39.9494   82.6174   64.7966 H   0  0  0  0  0  0  0  0  0  0  0  0
  1  3  1  0
  1 25  1  0
  2  1  1  0
  2  3  1  0
  5  4  1  0
  6  3  1  0
  6  5  2  0
  7  6  1  0
  8  7  2  0
  8  9  1  0
  9 10  2  0
 10  5  1  0
 10 11  1  0
 11 12  2  0
 12 13  1  0
 14 13  2  0
 15 14  1  0
 16 15  2  0
 17 16  1  0
 18 19  1  0
 18 17  2  0
 19 20  2  0
 20 11  1  0
 20 15  1  0
 21 27  1  0
 22 21  2  0
 23 22  1  0
 24 25  1  0
 24 23  2  0
 25 26  2  0
 26 21  1  0
 27 31  2  0
 27 28  1  0
 28 29  2  0
 30 29  1  0
 31 30  1  0
  1 32  1  6
  2 33  1  0
  2 34  1  0
  3 35  1  1
  7 36  1  0
  8 37  1  0
  9 38  1  0
 13 39  1  0
 16 40  1  0
 17 41  1  0
 18 42  1  0
 19 43  1  0
 22 44  1  0
 23 45  1  0
 28 46  1  0
 29 47  1  0
 30 48  1  0
M  END
>  <Score>  (1) 
-7.38646

>  <Score_dual>  (1) 
-7.55

>  <Choices>  (1) 
[None, 6, ['22-8', 120], 13, ['16-22', 285], 23, ['9-15', 180], 33, ['47-19', 75]]

$$$$
