
     RDKit          3D

 53 57  0  0  1  0  0  0  0  0999 V2000
   40.3240   82.1800   57.7030 C   0  0  0  0  0  0  0  0  0  0  0  0
   39.8390   80.8690   57.9090 C   0  0  0  0  0  0  0  0  0  0  0  0
   39.8790   80.3500   59.2300 C   0  0  0  0  0  0  0  0  0  0  0  0
   40.3800   81.1350   60.2240 N   0  0  0  0  0  0  0  0  0  0  0  0
   40.8320   82.3870   59.9740 C   0  0  0  0  0  0  0  0  0  0  0  0
   40.8050   82.9050   58.7200 N   0  0  0  0  0  0  0  0  0  0  0  0
   39.3300   80.1200   56.7880 C   0  0  0  0  0  0  0  0  0  0  0  0
   39.9110   80.3750   55.5520 C   0  0  0  0  0  0  0  0  0  0  0  0
   39.5060   79.7200   54.4080 C   0  0  0  0  0  0  0  0  0  0  0  0
   38.4850   78.7850   54.5260 C   0  0  0  0  0  0  0  0  0  0  0  0
   38.0790   78.1400   53.4340 N   0  0  0  0  0  0  0  0  0  0  0  0
   37.1170   77.2300   53.4210 C   0  0  0  0  0  0  0  0  0  0  0  0
   36.5150   76.9470   54.6250 C   0  0  0  0  0  0  0  0  0  0  0  0
   36.8870   77.5820   55.8140 C   0  0  0  0  0  0  0  0  0  0  0  0
   37.8930   78.5180   55.7590 C   0  0  0  0  0  0  0  0  0  0  0  0
   38.3230   79.1890   56.8700 C   0  0  0  0  0  0  0  0  0  0  0  0
   41.3620   83.2010   61.0660 C   0  0  0  0  0  0  0  0  0  0  0  0
   40.7360   83.1630   62.2900 C   0  0  0  0  0  0  0  0  0  0  0  0
   41.1310   83.8780   63.3980 C   0  0  0  0  0  0  0  0  0  0  0  0
   42.2650   84.7030   63.2360 C   0  0  0  0  0  0  0  0  0  0  0  0
   42.8610   84.7120   61.9900 C   0  0  0  0  0  0  0  0  0  0  0  0
   42.4440   83.9980   60.9340 N   0  0  0  0  0  0  0  0  0  0  0  0
   44.0250   85.5640   61.8380 C   0  0  0  0  0  0  0  0  0  0  0  0
   44.0570   86.7940   62.0190 O   0  0  0  0  0  0  0  0  0  0  0  0
   45.6430   83.7130   61.7260 C   0  0  1  0  0  0  0  0  0  0  0  0
   45.4030   85.1660   61.4420 C   0  0  1  0  0  0  0  0  0  0  0  0
   45.5400   85.4710   60.0870 O   0  0  0  0  0  0  0  0  0  0  0  0
   46.8890   85.2960   59.7630 C   0  0  0  0  0  0  0  0  0  0  0  0
   47.2720   83.8470   59.9050 C   0  0  2  0  0  0  0  0  0  0  0  0
   46.0840   83.0660   60.4070 C   0  0  2  0  0  0  0  0  0  0  0  0
   46.7240   83.5140   62.5950 O   0  0  0  0  0  0  0  0  0  0  0  0
   48.3000   83.7410   60.8200 O   0  0  0  0  0  0  0  0  0  0  0  0
   44.9900   83.1800   59.5580 O   0  0  0  0  0  0  0  0  0  0  0  0
   40.3060   82.6114   56.6913 H   0  0  0  0  0  0  0  0  0  0  0  0
   39.5131   79.3354   59.4461 H   0  0  0  0  0  0  0  0  0  0  0  0
   40.7169   81.1205   55.4840 H   0  0  0  0  0  0  0  0  0  0  0  0
   39.9751   79.9305   53.4356 H   0  0  0  0  0  0  0  0  0  0  0  0
   36.8139   76.7247   52.4921 H   0  0  0  0  0  0  0  0  0  0  0  0
   35.7129   76.1948   54.6535 H   0  0  0  0  0  0  0  0  0  0  0  0
   36.3898   77.3401   56.7649 H   0  0  0  0  0  0  0  0  0  0  0  0
   37.8558   78.9804   57.8438 H   0  0  0  0  0  0  0  0  0  0  0  0
   39.8543   82.5131   62.3911 H   0  0  0  0  0  0  0  0  0  0  0  0
   40.5935   83.8103   64.3553 H   0  0  0  0  0  0  0  0  0  0  0  0
   42.6564   85.3113   64.0647 H   0  0  0  0  0  0  0  0  0  0  0  0
   44.7234   83.2987   62.1649 H   0  0  0  0  0  0  0  0  0  0  0  0
   46.1589   85.7123   62.0253 H   0  0  0  0  0  0  0  0  0  0  0  0
   47.5074   85.9037   60.4399 H   0  0  0  0  0  0  0  0  0  0  0  0
   47.0528   85.6111   58.7219 H   0  0  0  0  0  0  0  0  0  0  0  0
   47.5935   83.4497   58.9309 H   0  0  0  0  0  0  0  0  0  0  0  0
   46.3804   82.0103   60.4939 H   0  0  0  0  0  0  0  0  0  0  0  0
   46.4093   83.5719   63.5319 H   0  0  0  0  0  0  0  0  0  0  0  0
   47.9303   83.7791   61.7376 H   0  0  0  0  0  0  0  0  0  0  0  0
   44.1629   83.2662   60.0952 H   0  0  0  0  0  0  0  0  0  0  0  0
  1  2  2  0
  1  6  1  0
  2  3  1  0
  3  4  2  0
  5  4  1  0
  5 17  1  0
  6  5  2  0
  7 16  1  0
  7  2  1  0
  8  7  2  0
  9 10  2  0
  9  8  1  0
 10 15  1  0
 11 10  1  0
 12 11  2  0
 12 13  1  0
 13 14  2  0
 15 14  1  0
 15 16  2  0
 17 18  2  0
 18 19  1  0
 20 19  2  0
 21 20  1  0
 22 17  1  0
 22 21  2  0
 23 21  1  0
 23 24  2  0
 25 31  1  0
 26 25  1  0
 26 23  1  0
 27 26  1  0
 28 29  1  0
 28 27  1  0
 29 30  1  0
 29 32  1  0
 30 33  1  0
 30 25  1  0
  1 34  1  0
  3 35  1  0
  8 36  1  0
  9 37  1  0
 12 38  1  0
 13 39  1  0
 14 40  1  0
 16 41  1  0
 18 42  1  0
 19 43  1  0
 20 44  1  0
 25 45  1  1
 26 46  1  1
 28 47  1  0
 28 48  1  0
 29 49  1  6
 30 50  1  1
 31 51  1  0
 32 52  1  0
 33 53  1  0
M  END
>  <Score>  (1) 
-7.04307

>  <Score_dual>  (1) 
-8.85

>  <Choices>  (1) 
[None, 9, ['6-17', 240], 13, ['36-26', 0], 33, ['5-9', 330], 35, ['21-10', 300]]

$$$$
