
     RDKit          3D

 42 45  0  0  0  0  0  0  0  0999 V2000
   42.0060   78.5800   62.6080 Cl  0  0  0  0  0  0  0  0  0  0  0  0
   43.4820   79.4310   62.1860 C   0  0  0  0  0  0  0  0  0  0  0  0
   43.4050   80.7300   61.7080 C   0  0  0  0  0  0  0  0  0  0  0  0
   44.5860   81.3150   61.4060 C   0  0  0  0  0  0  0  0  0  0  0  0
   45.8120   80.7000   61.5470 C   0  0  0  0  0  0  0  0  0  0  0  0
   45.8700   79.4010   62.0270 C   0  0  0  0  0  0  0  0  0  0  0  0
   44.6940   78.7730   62.3440 C   0  0  0  0  0  0  0  0  0  0  0  0
   39.9210   81.5190   60.6580 C   0  0  0  0  0  0  0  0  0  0  0  0
   41.1420   80.8290   60.7110 C   0  0  0  0  0  0  0  0  0  0  0  0
   42.1070   81.3540   61.5680 C   0  0  0  0  0  0  0  0  0  0  0  0
   41.7960   82.4760   62.2750 N   0  0  0  0  0  0  0  0  0  0  0  0
   40.6070   83.1130   62.1960 C   0  0  0  0  0  0  0  0  0  0  0  0
   39.6570   82.6220   61.3720 N   0  0  0  0  0  0  0  0  0  0  0  0
   40.3570   84.1120   64.4090 C   0  0  0  0  0  0  0  0  0  0  0  0
   40.3120   82.9230   64.8720 O   0  0  0  0  0  0  0  0  0  0  0  0
   40.5110   84.2420   63.0100 N   0  0  0  0  0  0  0  0  0  0  0  0
   40.2600   85.2510   65.2280 N   0  0  0  0  0  0  0  0  0  0  0  0
   45.6810   77.0130   63.8390 C   0  0  0  0  0  0  0  0  0  0  0  0
   44.8050   77.4090   62.8440 C   0  0  0  0  0  0  0  0  0  0  0  0
   43.9990   76.4320   62.3090 C   0  0  0  0  0  0  0  0  0  0  0  0
   44.0660   75.1190   62.7470 C   0  0  0  0  0  0  0  0  0  0  0  0
   43.4150   74.0070   62.4070 N   0  0  0  0  0  0  0  0  0  0  0  0
   43.8850   72.9970   63.1680 C   0  0  0  0  0  0  0  0  0  0  0  0
   44.8380   73.4180   64.0090 N   0  0  0  0  0  0  0  0  0  0  0  0
   44.9580   74.7520   63.7520 C   0  0  0  0  0  0  0  0  0  0  0  0
   45.7750   75.7170   64.3010 C   0  0  0  0  0  0  0  0  0  0  0  0
   46.7370   75.3450   65.3770 C   0  0  0  0  0  0  0  0  0  0  0  0
   44.5676   82.3463   61.0238 H   0  0  0  0  0  0  0  0  0  0  0  0
   46.7354   81.2353   61.2810 H   0  0  0  0  0  0  0  0  0  0  0  0
   46.8350   78.8875   62.1503 H   0  0  0  0  0  0  0  0  0  0  0  0
   39.1355   81.1322   59.9921 H   0  0  0  0  0  0  0  0  0  0  0  0
   41.3265   79.9259   60.1106 H   0  0  0  0  0  0  0  0  0  0  0  0
   40.5528   85.1802   62.5870 H   0  0  0  0  0  0  0  0  0  0  0  0
   40.3014   86.1913   64.8095 H   0  0  0  0  0  0  0  0  0  0  0  0
   40.1476   85.1450   66.2463 H   0  0  0  0  0  0  0  0  0  0  0  0
   46.3383   77.7734   64.2860 H   0  0  0  0  0  0  0  0  0  0  0  0
   43.2851   76.6985   61.5157 H   0  0  0  0  0  0  0  0  0  0  0  0
   42.6809   73.9317   61.6884 H   0  0  0  0  0  0  0  0  0  0  0  0
   43.5298   71.9578   63.1054 H   0  0  0  0  0  0  0  0  0  0  0  0
   46.2754   75.5235   66.3594 H   0  0  0  0  0  0  0  0  0  0  0  0
   46.9989   74.2808   65.2829 H   0  0  0  0  0  0  0  0  0  0  0  0
   47.6467   75.9562   65.2829 H   0  0  0  0  0  0  0  0  0  0  0  0
  2  7  2  0
  2  1  1  0
  3  2  1  0
  4  5  1  0
  4  3  2  0
  5  6  2  0
  6  7  1  0
  7 19  1  0
  8  9  2  0
  8 13  1  0
  9 10  1  0
 10  3  1  0
 10 11  2  0
 12 11  1  0
 12 16  1  0
 13 12  2  0
 14 15  2  0
 14 17  1  0
 16 14  1  0
 18 26  2  0
 19 18  1  0
 20 21  1  0
 20 19  2  0
 21 25  2  0
 22 21  1  0
 22 23  1  0
 23 24  2  0
 25 24  1  0
 25 26  1  0
 26 27  1  0
  4 28  1  0
  5 29  1  0
  6 30  1  0
  8 31  1  0
  9 32  1  0
 16 33  1  0
 17 34  1  0
 17 35  1  0
 18 36  1  0
 20 37  1  0
 22 38  1  0
 23 39  1  0
 27 40  1  0
 27 41  1  0
 27 42  1  0
M  END
>  <Score>  (1) 
-7.43685

>  <Score_dual>  (1) 
-7.44

>  <Choices>  (1) 
[None, 9, ['12-5', 195], 12, ['0-20', 0], 12, ['7-17', 150], 25, ['34-21', 120], 38, ['3-12', 0]]

$$$$
