
     RDKit          3D

 45 47  0  0  0  0  0  0  0  0999 V2000
   43.8320   79.0490   61.5160 Cl  0  0  0  0  0  0  0  0  0  0  0  0
   43.9440   80.6640   62.2270 C   0  0  0  0  0  0  0  0  0  0  0  0
   42.7720   81.3640   62.1930 C   0  0  0  0  0  0  0  0  0  0  0  0
   42.8850   82.6350   62.7600 C   0  0  0  0  0  0  0  0  0  0  0  0
   44.0460   83.1310   63.2940 C   0  0  0  0  0  0  0  0  0  0  0  0
   45.1900   82.3690   63.2930 C   0  0  0  0  0  0  0  0  0  0  0  0
   45.0930   81.1200   62.7400 C   0  0  0  0  0  0  0  0  0  0  0  0
   41.4150   81.0430   61.6760 C   0  0  0  0  0  0  0  0  0  0  0  0
   39.7470   84.0520   60.1600 C   0  0  0  0  0  0  0  0  0  0  0  0
   40.6270   82.9970   60.3040 C   0  0  0  0  0  0  0  0  0  0  0  0
   40.5540   82.1790   61.4080 C   0  0  0  0  0  0  0  0  0  0  0  0
   39.6100   82.4460   62.3230 N   0  0  0  0  0  0  0  0  0  0  0  0
   38.7350   83.5020   62.1720 C   0  0  0  0  0  0  0  0  0  0  0  0
   38.8310   84.2830   61.0810 N   0  0  0  0  0  0  0  0  0  0  0  0
   39.9020   84.8710   58.9500 C   0  0  0  0  0  0  0  0  0  0  0  0
   39.2310   85.9390   58.7820 O   0  0  0  0  0  0  0  0  0  0  0  0
   41.2360   86.6970   57.4220 N   0  0  0  0  0  0  0  0  0  0  0  0
   41.5470   85.4530   57.1180 C   0  0  0  0  0  0  0  0  0  0  0  0
   40.8180   84.4940   57.9090 N   0  0  0  0  0  0  0  0  0  0  0  0
   42.4630   84.9740   56.1580 N   0  0  0  0  0  0  0  0  0  0  0  0
   41.6430   87.4220   56.8130 H   0  0  0  0  0  0  0  0  0  0  0  0
   46.2920   80.2210   62.6910 C   0  0  0  0  0  0  0  0  0  0  0  0
   48.2340   80.1400   64.9050 Cl  0  0  0  0  0  0  0  0  0  0  0  0
   48.4450   81.0600   63.4250 C   0  0  0  0  0  0  0  0  0  0  0  0
   47.5010   81.0620   62.4140 C   0  0  0  0  0  0  0  0  0  0  0  0
   47.7290   81.8020   61.2880 C   0  0  0  0  0  0  0  0  0  0  0  0
   48.9060   82.5310   61.1920 C   0  0  0  0  0  0  0  0  0  0  0  0
   49.8490   82.5240   62.2120 C   0  0  0  0  0  0  0  0  0  0  0  0
   49.6240   81.7790   63.3510 C   0  0  0  0  0  0  0  0  0  0  0  0
   41.9907   83.2752   62.7793 H   0  0  0  0  0  0  0  0  0  0  0  0
   44.0622   84.1429   63.7250 H   0  0  0  0  0  0  0  0  0  0  0  0
   46.1346   82.7432   63.7146 H   0  0  0  0  0  0  0  0  0  0  0  0
   41.5359   80.4828   60.7371 H   0  0  0  0  0  0  0  0  0  0  0  0
   40.9181   80.4753   62.4765 H   0  0  0  0  0  0  0  0  0  0  0  0
   41.3891   82.8101   59.5331 H   0  0  0  0  0  0  0  0  0  0  0  0
   37.9681   83.7028   62.9346 H   0  0  0  0  0  0  0  0  0  0  0  0
   40.9602   83.4916   57.7193 H   0  0  0  0  0  0  0  0  0  0  0  0
   42.5979   83.9602   56.0358 H   0  0  0  0  0  0  0  0  0  0  0  0
   42.9969   85.6381   55.5793 H   0  0  0  0  0  0  0  0  0  0  0  0
   46.4104   79.7062   63.6559 H   0  0  0  0  0  0  0  0  0  0  0  0
   46.1670   79.4660   61.9009 H   0  0  0  0  0  0  0  0  0  0  0  0
   46.9921   81.8195   60.4715 H   0  0  0  0  0  0  0  0  0  0  0  0
   49.0965   83.1278   60.2878 H   0  0  0  0  0  0  0  0  0  0  0  0
   50.7735   83.1115   62.1116 H   0  0  0  0  0  0  0  0  0  0  0  0
   50.3565   81.7576   64.1714 H   0  0  0  0  0  0  0  0  0  0  0  0
  1  2  1  0
  2  7  2  0
  3  2  1  0
  3  4  2  0
  4  5  1  0
  6  5  2  0
  7  6  1  0
  8  3  1  0
  9 10  2  0
  9 14  1  0
 10 11  1  0
 11  8  1  0
 11 12  2  0
 13 12  1  0
 14 13  2  0
 15  9  1  0
 16 15  2  0
 18 17  2  0
 18 19  1  0
 19 15  1  0
 20 18  1  0
 21 17  1  0
 22  7  1  0
 24 23  1  0
 25 22  1  0
 25 24  2  0
 26 25  1  0
 27 26  2  0
 27 28  1  0
 28 29  2  0
 29 24  1  0
  4 30  1  0
  5 31  1  0
  6 32  1  0
  8 33  1  0
  8 34  1  0
 10 35  1  0
 13 36  1  0
 19 37  1  0
 20 38  1  0
 20 39  1  0
 22 40  1  0
 22 41  1  0
 26 42  1  0
 27 43  1  0
 28 44  1  0
 29 45  1  0
M  END
>  <Score>  (1) 
-7.066

>  <Score_dual>  (1) 
-7.21

>  <Choices>  (1) 
[None, 8, ['3-10', 0], 7, ['5-10', 165], 14, ['48-21', 30], 21, ['7-12', 210], 31, ['3-13', 0], 34, ['7-13', 60]]

$$$$
