
     RDKit          3D

 50 54  0  0  1  0  0  0  0  0999 V2000
   39.6140   84.9530   59.6140 C   0  0  0  0  0  0  0  0  0  0  0  0
   39.3920   85.6280   58.4230 C   0  0  0  0  0  0  0  0  0  0  0  0
   40.4950   86.1970   57.7930 C   0  0  0  0  0  0  0  0  0  0  0  0
   41.6920   86.0410   58.4040 N   0  0  0  0  0  0  0  0  0  0  0  0
   41.9000   85.3940   59.5460 C   0  0  0  0  0  0  0  0  0  0  0  0
   40.8440   84.8550   60.1370 N   0  0  0  0  0  0  0  0  0  0  0  0
   43.2030   85.3180   60.0510 N   0  0  0  0  0  0  0  0  0  0  0  0
   44.0170   86.5150   60.0580 C   0  0  1  0  0  0  0  0  0  0  0  0
   45.1440   86.4710   61.0500 C   0  0  0  0  0  0  0  0  0  0  0  0
   45.0820   85.3520   61.9410 N   0  0  0  0  0  0  0  0  0  0  0  0
   45.0550   84.1520   61.1400 C   0  0  0  0  0  0  0  0  0  0  0  0
   43.6600   84.0370   60.5410 C   0  0  1  0  0  0  0  0  0  0  0  0
   42.7990   81.3980   59.8860 F   0  0  0  0  0  0  0  0  0  0  0  0
   42.3440   82.0240   61.0250 C   0  0  0  0  0  0  0  0  0  0  0  0
   42.7290   83.3210   61.3930 C   0  0  0  0  0  0  0  0  0  0  0  0
   42.1990   83.8490   62.5510 C   0  0  0  0  0  0  0  0  0  0  0  0
   41.3220   83.1940   63.3630 C   0  0  0  0  0  0  0  0  0  0  0  0
   40.9600   81.9050   62.9660 C   0  0  0  0  0  0  0  0  0  0  0  0
   41.4590   81.3290   61.8230 C   0  0  0  0  0  0  0  0  0  0  0  0
   41.0290   80.0030   61.5030 N   0  0  0  0  0  0  0  0  0  0  0  0
   41.0610   78.8980   62.2730 C   0  0  0  0  0  0  0  0  0  0  0  0
   40.5570   77.8400   61.5920 N   0  0  0  0  0  0  0  0  0  0  0  0
   40.1890   78.2690   60.3550 C   0  0  0  0  0  0  0  0  0  0  0  0
   39.6250   77.5970   59.2820 C   0  0  0  0  0  0  0  0  0  0  0  0
   39.3680   78.3150   58.1590 N   0  0  0  0  0  0  0  0  0  0  0  0
   39.6560   79.6250   58.1100 C   0  0  0  0  0  0  0  0  0  0  0  0
   40.1940   80.2180   59.1650 N   0  0  0  0  0  0  0  0  0  0  0  0
   40.4940   79.6160   60.3300 C   0  0  0  0  0  0  0  0  0  0  0  0
   44.5830   86.8780   58.6920 C   0  0  0  0  0  0  0  0  0  0  0  0
   45.8480   87.4180   58.7610 F   0  0  0  0  0  0  0  0  0  0  0  0
   44.4370   85.8980   57.7360 F   0  0  0  0  0  0  0  0  0  0  0  0
   43.7480   87.8940   58.2050 F   0  0  0  0  0  0  0  0  0  0  0  0
   38.7654   84.4898   60.1387 H   0  0  0  0  0  0  0  0  0  0  0  0
   38.3830   85.7105   57.9928 H   0  0  0  0  0  0  0  0  0  0  0  0
   40.3983   86.7465   56.8450 H   0  0  0  0  0  0  0  0  0  0  0  0
   43.3076   87.2979   60.3642 H   0  0  0  0  0  0  0  0  0  0  0  0
   46.0929   86.4217   60.4958 H   0  0  0  0  0  0  0  0  0  0  0  0
   45.0654   87.3783   61.6669 H   0  0  0  0  0  0  0  0  0  0  0  0
   45.9098   85.3457   62.5539 H   0  0  0  0  0  0  0  0  0  0  0  0
   45.8046   84.2183   60.3377 H   0  0  0  0  0  0  0  0  0  0  0  0
   45.2886   83.2695   61.7537 H   0  0  0  0  0  0  0  0  0  0  0  0
   43.7174   83.3895   59.6536 H   0  0  0  0  0  0  0  0  0  0  0  0
   42.5041   84.8660   62.8385 H   0  0  0  0  0  0  0  0  0  0  0  0
   40.9222   83.6543   64.2786 H   0  0  0  0  0  0  0  0  0  0  0  0
   40.2542   81.3338   63.5870 H   0  0  0  0  0  0  0  0  0  0  0  0
   41.4410   78.8599   63.3046 H   0  0  0  0  0  0  0  0  0  0  0  0
   40.3123   76.7845   59.0037 H   0  0  0  0  0  0  0  0  0  0  0  0
   38.6366   77.2742   59.6411 H   0  0  0  0  0  0  0  0  0  0  0  0
   39.4462   80.2033   57.1981 H   0  0  0  0  0  0  0  0  0  0  0  0
   40.3999   81.2242   59.0869 H   0  0  0  0  0  0  0  0  0  0  0  0
  1  6  2  0
  2  1  1  0
  3  4  1  0
  3  2  2  0
  4  5  2  0
  5  7  1  0
  5  6  1  0
  7  8  1  0
  7 12  1  0
  8  9  1  0
  9 10  1  0
 11 10  1  0
 12 11  1  0
 12 15  1  0
 13 14  1  0
 14 15  2  0
 14 19  1  0
 15 16  1  0
 16 17  2  0
 18 17  1  0
 19 18  2  0
 20 19  1  0
 20 21  1  0
 22 21  2  0
 23 22  1  0
 24 23  1  0
 25 24  1  0
 26 25  2  0
 26 27  1  0
 27 28  1  0
 28 23  2  0
 28 20  1  0
 29 30  1  0
 29  8  1  0
 31 29  1  0
 32 29  1  0
  1 33  1  0
  2 34  1  0
  3 35  1  0
  8 36  1  1
  9 37  1  0
  9 38  1  0
 10 39  1  0
 11 40  1  0
 11 41  1  0
 12 42  1  6
 16 43  1  0
 17 44  1  0
 18 45  1  0
 21 46  1  0
 24 47  1  0
 24 48  1  0
 26 49  1  0
 27 50  1  0
M  END
>  <Score>  (1) 
-7.20189

>  <Score_dual>  (1) 
-7.05

>  <Choices>  (1) 
[None, 9, ['15-7', 45], 16, ['11-13', 300], 26, ['9-15', 30], 36, ['45-14', 105]]

$$$$
