
     RDKit          3D

 44 48  0  0  0  0  0  0  0  0999 V2000
   39.3980   85.4420   59.0490 C   0  0  0  0  0  0  0  0  0  0  0  0
   40.4810   85.8640   58.2260 C   0  0  0  0  0  0  0  0  0  0  0  0
   41.5310   84.9970   57.9980 C   0  0  0  0  0  0  0  0  0  0  0  0
   41.4990   83.7490   58.5750 N   0  0  0  0  0  0  0  0  0  0  0  0
   40.4670   83.3760   59.3470 C   0  0  0  0  0  0  0  0  0  0  0  0
   39.4110   84.2140   59.5920 N   0  0  0  0  0  0  0  0  0  0  0  0
   40.4470   82.0620   59.9490 C   0  0  0  0  0  0  0  0  0  0  0  0
   40.6580   81.6450   61.1680 C   0  0  0  0  0  0  0  0  0  0  0  0
   40.5860   80.3490   61.5150 C   0  0  0  0  0  0  0  0  0  0  0  0
   40.2660   79.5110   60.4480 C   0  0  0  0  0  0  0  0  0  0  0  0
   40.0880   80.6030   59.0250 S   0  0  0  0  0  0  0  0  0  0  0  0
   41.0000   82.5920   62.2770 C   0  0  0  0  0  0  0  0  0  0  0  0
   40.1690   83.3550   63.0820 C   0  0  0  0  0  0  0  0  0  0  0  0
   40.7510   84.1210   64.0160 C   0  0  0  0  0  0  0  0  0  0  0  0
   42.1160   84.1960   64.2250 C   0  0  0  0  0  0  0  0  0  0  0  0
   42.9250   83.4110   63.3950 C   0  0  0  0  0  0  0  0  0  0  0  0
   42.3530   82.6520   62.4680 N   0  0  0  0  0  0  0  0  0  0  0  0
   45.2890   82.4350   63.3890 C   0  0  0  0  0  0  0  0  0  0  0  0
   44.8950   81.3470   62.9320 O   0  0  0  0  0  0  0  0  0  0  0  0
   44.3280   83.4720   63.5890 N   0  0  0  0  0  0  0  0  0  0  0  0
   42.5560   85.4210   57.2060 O   0  0  0  0  0  0  0  0  0  0  0  0
   44.9050   85.7580   56.7160 N   0  0  0  0  0  0  0  0  0  0  0  0
   43.8880   85.4730   57.5130 C   0  0  0  0  0  0  0  0  0  0  0  0
   44.3870   85.2250   58.7530 N   0  0  0  0  0  0  0  0  0  0  0  0
   45.7340   85.3680   58.6830 C   0  0  0  0  0  0  0  0  0  0  0  0
   46.7700   85.2450   59.6130 C   0  0  0  0  0  0  0  0  0  0  0  0
   48.0170   85.4580   59.2070 N   0  0  0  0  0  0  0  0  0  0  0  0
   48.3560   85.7890   57.9490 C   0  0  0  0  0  0  0  0  0  0  0  0
   47.3720   85.9120   57.0400 N   0  0  0  0  0  0  0  0  0  0  0  0
   46.0810   85.7120   57.3730 C   0  0  0  0  0  0  0  0  0  0  0  0
   46.4640   84.8970   60.9520 N   0  0  0  0  0  0  0  0  0  0  0  0
   38.5531   86.1202   59.2393 H   0  0  0  0  0  0  0  0  0  0  0  0
   40.4809   86.8684   57.7775 H   0  0  0  0  0  0  0  0  0  0  0  0
   40.7619   79.9857   62.5383 H   0  0  0  0  0  0  0  0  0  0  0  0
   40.1475   78.4176   60.4697 H   0  0  0  0  0  0  0  0  0  0  0  0
   39.0760   83.3331   62.9596 H   0  0  0  0  0  0  0  0  0  0  0  0
   40.0991   84.7306   64.6590 H   0  0  0  0  0  0  0  0  0  0  0  0
   42.5452   84.8413   65.0056 H   0  0  0  0  0  0  0  0  0  0  0  0
   46.3498   82.5939   63.6326 H   0  0  0  0  0  0  0  0  0  0  0  0
   44.7000   84.3757   63.9143 H   0  0  0  0  0  0  0  0  0  0  0  0
   44.8097   85.9869   55.7163 H   0  0  0  0  0  0  0  0  0  0  0  0
   49.4073   85.9545   57.6710 H   0  0  0  0  0  0  0  0  0  0  0  0
   47.2199   84.8037   61.6455 H   0  0  0  0  0  0  0  0  0  0  0  0
   45.4857   84.7373   61.2319 H   0  0  0  0  0  0  0  0  0  0  0  0
  1  6  2  0
  2  1  1  0
  3  2  2  0
  3  4  1  0
  4  5  2  0
  5  6  1  0
  5  7  1  0
  7  8  2  0
  8  9  1  0
  8 12  1  0
 10  9  2  0
 11  7  1  0
 11 10  1  0
 12 17  1  0
 12 13  2  0
 13 14  1  0
 14 15  2  0
 16 20  1  0
 16 15  1  0
 17 16  2  0
 18 20  1  0
 19 18  2  0
 21 23  1  0
 21  3  1  0
 22 30  1  0
 22 23  1  0
 23 24  2  0
 25 24  1  0
 25 26  2  0
 26 31  1  0
 27 26  1  0
 28 27  2  0
 29 30  2  0
 29 28  1  0
 30 25  1  0
  1 32  1  0
  2 33  1  0
  9 34  1  0
 10 35  1  0
 13 36  1  0
 14 37  1  0
 15 38  1  0
 18 39  1  0
 20 40  1  0
 22 41  1  0
 28 42  1  0
 31 43  1  0
 31 44  1  0
M  END
>  <Score>  (1) 
-7.31966

>  <Score_dual>  (1) 
-7.7

>  <Choices>  (1) 
[None, 9, ['25-21', 105], 14, ['6-13', 165], 25, ['12-3', 60], 29, ['2-1', 0], 30, ['28-19', 105]]

$$$$
