
     RDKit          3D

 46 49  0  0  0  0  0  0  0  0999 V2000
   39.1130   79.8960   54.2890 C   0  0  0  0  0  0  0  0  0  0  0  0
   37.8040   79.5250   54.5920 C   0  0  0  0  0  0  0  0  0  0  0  0
   37.0660   79.6890   53.4150 C   0  0  0  0  0  0  0  0  0  0  0  0
   37.9140   80.1380   52.4680 N   0  0  0  0  0  0  0  0  0  0  0  0
   39.1360   80.2660   52.9780 N   0  0  0  0  0  0  0  0  0  0  0  0
   37.6480   80.4680   51.0620 C   0  0  0  0  0  0  0  0  0  0  0  0
   36.1320   80.3330   50.9360 C   0  0  0  0  0  0  0  0  0  0  0  0
   34.4570   80.9440   49.2720 C   0  0  0  0  0  0  0  0  0  0  0  0
   35.8160   80.8240   49.5490 C   0  0  0  0  0  0  0  0  0  0  0  0
   36.6900   81.1490   48.5450 C   0  0  0  0  0  0  0  0  0  0  0  0
   36.2090   81.5680   47.3360 C   0  0  0  0  0  0  0  0  0  0  0  0
   34.8780   81.6900   47.0510 C   0  0  0  0  0  0  0  0  0  0  0  0
   33.9770   81.3750   48.0280 C   0  0  0  0  0  0  0  0  0  0  0  0
   32.6370   80.3890   51.0790 N   0  0  0  0  0  0  0  0  0  0  0  0
   33.4530   80.6310   50.2740 C   0  0  0  0  0  0  0  0  0  0  0  0
   40.0140   79.8060   55.3300 O   0  0  0  0  0  0  0  0  0  0  0  0
   39.9810   81.2120   57.2760 C   0  0  0  0  0  0  0  0  0  0  0  0
   40.4440   82.3080   58.0150 C   0  0  0  0  0  0  0  0  0  0  0  0
   41.4520   83.0510   57.4140 C   0  0  0  0  0  0  0  0  0  0  0  0
   41.9850   82.7580   56.1710 C   0  0  0  0  0  0  0  0  0  0  0  0
   41.4990   81.6540   55.4560 C   0  0  0  0  0  0  0  0  0  0  0  0
   40.4830   80.8920   56.0460 C   0  0  0  0  0  0  0  0  0  0  0  0
   39.5150   84.0120   59.4920 C   0  0  0  0  0  0  0  0  0  0  0  0
   40.0060   82.7300   59.2780 C   0  0  0  0  0  0  0  0  0  0  0  0
   40.0420   81.8720   60.3990 C   0  0  0  0  0  0  0  0  0  0  0  0
   39.6060   82.3400   61.5930 N   0  0  0  0  0  0  0  0  0  0  0  0
   39.1390   83.5810   61.7630 C   0  0  0  0  0  0  0  0  0  0  0  0
   39.0870   84.4410   60.7030 N   0  0  0  0  0  0  0  0  0  0  0  0
   38.9790   80.4720   57.8720 O   0  0  0  0  0  0  0  0  0  0  0  0
   37.4264   79.1732   55.5634 H   0  0  0  0  0  0  0  0  0  0  0  0
   35.9921   79.4886   53.2860 H   0  0  0  0  0  0  0  0  0  0  0  0
   37.9703   81.4944   50.8328 H   0  0  0  0  0  0  0  0  0  0  0  0
   38.1924   79.8170   50.3621 H   0  0  0  0  0  0  0  0  0  0  0  0
   35.8253   79.2833   51.0547 H   0  0  0  0  0  0  0  0  0  0  0  0
   35.5986   80.9042   51.7101 H   0  0  0  0  0  0  0  0  0  0  0  0
   37.7747   81.0730   48.7113 H   0  0  0  0  0  0  0  0  0  0  0  0
   36.9339   81.8212   46.5483 H   0  0  0  0  0  0  0  0  0  0  0  0
   34.5414   82.0327   46.0614 H   0  0  0  0  0  0  0  0  0  0  0  0
   32.8960   81.4580   47.8420 H   0  0  0  0  0  0  0  0  0  0  0  0
   41.8490   83.9215   57.9568 H   0  0  0  0  0  0  0  0  0  0  0  0
   42.7830   83.3857   55.7475 H   0  0  0  0  0  0  0  0  0  0  0  0
   41.9020   81.3954   54.4657 H   0  0  0  0  0  0  0  0  0  0  0  0
   39.4721   84.7082   58.6414 H   0  0  0  0  0  0  0  0  0  0  0  0
   40.4173   80.8423   60.3043 H   0  0  0  0  0  0  0  0  0  0  0  0
   38.7969   83.9093   62.7556 H   0  0  0  0  0  0  0  0  0  0  0  0
   38.6032   79.6828   57.4072 H   0  0  0  0  0  0  0  0  0  0  0  0
  1  2  1  0
  1 16  1  0
  3  2  2  0
  4  5  1  0
  4  3  1  0
  5  1  2  0
  6  4  1  0
  7  6  1  0
  8  9  2  0
  8 15  1  0
  9  7  1  0
 10  9  1  0
 11 10  2  0
 12 11  1  0
 12 13  2  0
 13  8  1  0
 15 14  3  0
 16 22  1  0
 17 29  1  0
 17 18  2  0
 18 24  1  0
 19 18  1  0
 20 19  2  0
 21 22  2  0
 21 20  1  0
 22 17  1  0
 23 28  2  0
 24 23  1  0
 24 25  2  0
 25 26  1  0
 26 27  2  0
 28 27  1  0
  2 30  1  0
  3 31  1  0
  6 32  1  0
  6 33  1  0
  7 34  1  0
  7 35  1  0
 10 36  1  0
 11 37  1  0
 12 38  1  0
 13 39  1  0
 19 40  1  0
 20 41  1  0
 21 42  1  0
 23 43  1  0
 25 44  1  0
 27 45  1  0
 29 46  1  0
M  END
>  <Score>  (1) 
-7.60275

>  <Score_dual>  (1) 
-7.19

>  <Choices>  (1) 
[None, 7, ['35-27', 225], 21, ['22-11', 270], 28, ['4-2', 150], 34, ['40-18', 255]]

$$$$
