
     RDKit          3D

 46 49  0  0  0  0  0  0  0  0999 V2000
   43.8880   78.9960   62.0030 Cl  0  0  0  0  0  0  0  0  0  0  0  0
   44.0250   80.7070   62.4470 C   0  0  0  0  0  0  0  0  0  0  0  0
   42.8840   81.4230   62.2300 C   0  0  0  0  0  0  0  0  0  0  0  0
   43.0090   82.7690   62.5990 C   0  0  0  0  0  0  0  0  0  0  0  0
   44.1550   83.3150   63.1240 C   0  0  0  0  0  0  0  0  0  0  0  0
   45.2710   82.5240   63.3130 C   0  0  0  0  0  0  0  0  0  0  0  0
   45.1580   81.2120   62.9570 C   0  0  0  0  0  0  0  0  0  0  0  0
   47.3500   80.9310   63.8730 C   0  0  0  0  0  0  0  0  0  0  0  0
   46.3150   80.3440   63.1410 C   0  0  0  0  0  0  0  0  0  0  0  0
   46.5120   79.0530   62.6940 C   0  0  0  0  0  0  0  0  0  0  0  0
   47.6950   78.4020   62.9800 C   0  0  0  0  0  0  0  0  0  0  0  0
   48.0460   77.1500   62.6240 N   0  0  0  0  0  0  0  0  0  0  0  0
   49.2970   76.9090   63.1130 C   0  0  0  0  0  0  0  0  0  0  0  0
   49.7080   78.0480   63.7810 C   0  0  0  0  0  0  0  0  0  0  0  0
   48.7050   78.9980   63.7050 C   0  0  0  0  0  0  0  0  0  0  0  0
   48.5310   80.2890   64.1610 C   0  0  0  0  0  0  0  0  0  0  0  0
   41.5600   81.0720   61.6800 C   0  0  0  0  0  0  0  0  0  0  0  0
   39.7850   84.0150   60.1720 C   0  0  0  0  0  0  0  0  0  0  0  0
   40.7010   82.9990   60.3090 C   0  0  0  0  0  0  0  0  0  0  0  0
   40.6570   82.1780   61.4110 C   0  0  0  0  0  0  0  0  0  0  0  0
   39.7040   82.3960   62.3350 N   0  0  0  0  0  0  0  0  0  0  0  0
   38.7960   83.4180   62.1780 C   0  0  0  0  0  0  0  0  0  0  0  0
   38.8580   84.2070   61.0950 N   0  0  0  0  0  0  0  0  0  0  0  0
   39.9090   84.8400   58.9650 C   0  0  0  0  0  0  0  0  0  0  0  0
   39.2210   85.9030   58.8130 O   0  0  0  0  0  0  0  0  0  0  0  0
   41.1880   86.6750   57.4090 N   0  0  0  0  0  0  0  0  0  0  0  0
   41.4990   85.4440   57.1000 C   0  0  0  0  0  0  0  0  0  0  0  0
   40.8090   84.4870   57.9120 N   0  0  0  0  0  0  0  0  0  0  0  0
   42.3950   84.9820   56.1040 N   0  0  0  0  0  0  0  0  0  0  0  0
   41.6000   87.4250   56.8220 H   0  0  0  0  0  0  0  0  0  0  0  0
   42.1385   83.4270   62.4601 H   0  0  0  0  0  0  0  0  0  0  0  0
   44.1836   84.3811   63.3935 H   0  0  0  0  0  0  0  0  0  0  0  0
   46.2040   82.9313   63.7296 H   0  0  0  0  0  0  0  0  0  0  0  0
   47.2129   81.9597   64.2376 H   0  0  0  0  0  0  0  0  0  0  0  0
   45.7290   78.5449   62.1120 H   0  0  0  0  0  0  0  0  0  0  0  0
   47.4713   76.4915   62.0790 H   0  0  0  0  0  0  0  0  0  0  0  0
   49.8730   75.9791   62.9971 H   0  0  0  0  0  0  0  0  0  0  0  0
   50.6746   78.1776   64.2898 H   0  0  0  0  0  0  0  0  0  0  0  0
   49.3186   80.7922   64.7411 H   0  0  0  0  0  0  0  0  0  0  0  0
   41.7226   80.5353   60.7337 H   0  0  0  0  0  0  0  0  0  0  0  0
   41.0673   80.4771   62.4631 H   0  0  0  0  0  0  0  0  0  0  0  0
   41.4690   82.8430   59.5371 H   0  0  0  0  0  0  0  0  0  0  0  0
   38.0205   83.5877   62.9395 H   0  0  0  0  0  0  0  0  0  0  0  0
   40.9706   83.4868   57.7265 H   0  0  0  0  0  0  0  0  0  0  0  0
   42.5421   83.9711   55.9725 H   0  0  0  0  0  0  0  0  0  0  0  0
   42.8991   85.6571   55.5116 H   0  0  0  0  0  0  0  0  0  0  0  0
  1  2  1  0
  2  7  2  0
  3  2  1  0
  3  4  2  0
  4  5  1  0
  5  6  2  0
  7  9  1  0
  7  6  1  0
  8 16  2  0
  9  8  1  0
 10 11  1  0
 10  9  2  0
 11 15  2  0
 12 11  1  0
 12 13  1  0
 13 14  2  0
 15 14  1  0
 15 16  1  0
 17  3  1  0
 18 19  2  0
 18 23  1  0
 19 20  1  0
 20 17  1  0
 20 21  2  0
 22 21  1  0
 23 22  2  0
 24 18  1  0
 25 24  2  0
 27 26  2  0
 27 28  1  0
 28 24  1  0
 29 27  1  0
 30 26  1  0
  4 31  1  0
  5 32  1  0
  6 33  1  0
  8 34  1  0
 10 35  1  0
 12 36  1  0
 13 37  1  0
 14 38  1  0
 16 39  1  0
 17 40  1  0
 17 41  1  0
 19 42  1  0
 22 43  1  0
 28 44  1  0
 29 45  1  0
 29 46  1  0
M  END
>  <Score>  (1) 
-7.26916

>  <Score_dual>  (1) 
-8.75

>  <Choices>  (1) 
[None, 8, ['3-10', 0], 7, ['5-10', 165], 14, ['48-21', 30], 21, ['7-12', 210], 31, ['24-10', 315]]

$$$$
