
     RDKit          3D

 37 40  0  0  0  0  0  0  0  0999 V2000
   39.9900   80.2950   58.7330 F   0  0  0  0  0  0  0  0  0  0  0  0
   40.3090   79.7630   59.9200 C   0  0  0  0  0  0  0  0  0  0  0  0
   40.3110   80.4470   61.1240 C   0  0  0  0  0  0  0  0  0  0  0  0
   40.6690   79.7120   62.2080 C   0  0  0  0  0  0  0  0  0  0  0  0
   41.0110   78.3960   62.1790 C   0  0  0  0  0  0  0  0  0  0  0  0
   41.0120   77.7050   60.9880 C   0  0  0  0  0  0  0  0  0  0  0  0
   40.6580   78.4000   59.8540 C   0  0  0  0  0  0  0  0  0  0  0  0
   39.9720   84.0470   60.0720 C   0  0  0  0  0  0  0  0  0  0  0  0
   40.3640   82.6940   60.0570 C   0  0  0  0  0  0  0  0  0  0  0  0
   39.9390   81.8390   61.0910 C   0  0  0  0  0  0  0  0  0  0  0  0
   39.1610   82.3960   62.0560 N   0  0  0  0  0  0  0  0  0  0  0  0
   38.8080   83.6800   62.0400 C   0  0  0  0  0  0  0  0  0  0  0  0
   39.2130   84.5040   61.0510 N   0  0  0  0  0  0  0  0  0  0  0  0
   40.4220   84.9310   58.9850 C   0  0  0  0  0  0  0  0  0  0  0  0
   39.4670   85.8140   58.6020 F   0  0  0  0  0  0  0  0  0  0  0  0
   40.8860   84.2610   57.8790 F   0  0  0  0  0  0  0  0  0  0  0  0
   41.5320   85.6280   59.4910 F   0  0  0  0  0  0  0  0  0  0  0  0
   40.6640   77.5000   58.3050 S   0  0  0  0  0  0  0  0  0  0  0  0
   38.0060   77.8680   57.3420 C   0  0  0  0  0  0  0  0  0  0  0  0
   39.3600   78.0620   57.2250 C   0  0  0  0  0  0  0  0  0  0  0  0
   39.8600   78.7790   56.1540 C   0  0  0  0  0  0  0  0  0  0  0  0
   39.0240   79.3210   55.1730 C   0  0  0  0  0  0  0  0  0  0  0  0
   39.1770   80.0420   54.0460 N   0  0  0  0  0  0  0  0  0  0  0  0
   37.9970   80.2770   53.5050 N   0  0  0  0  0  0  0  0  0  0  0  0
   37.0170   79.7130   54.2620 C   0  0  0  0  0  0  0  0  0  0  0  0
   37.6570   79.1110   55.3140 C   0  0  0  0  0  0  0  0  0  0  0  0
   37.1750   78.3980   56.3800 C   0  0  0  0  0  0  0  0  0  0  0  0
   40.6835   80.2195   63.1838 H   0  0  0  0  0  0  0  0  0  0  0  0
   41.2880   77.8815   63.1109 H   0  0  0  0  0  0  0  0  0  0  0  0
   41.2848   76.6402   60.9446 H   0  0  0  0  0  0  0  0  0  0  0  0
   40.9970   82.3090   59.2439 H   0  0  0  0  0  0  0  0  0  0  0  0
   38.1748   84.0761   62.8476 H   0  0  0  0  0  0  0  0  0  0  0  0
   37.5925   77.2998   58.1883 H   0  0  0  0  0  0  0  0  0  0  0  0
   40.9468   78.9274   56.0712 H   0  0  0  0  0  0  0  0  0  0  0  0
   40.0787   80.3616   53.6642 H   0  0  0  0  0  0  0  0  0  0  0  0
   35.9342   79.7355   54.0694 H   0  0  0  0  0  0  0  0  0  0  0  0
   36.0896   78.2439   56.4704 H   0  0  0  0  0  0  0  0  0  0  0  0
  1  2  1  0
  2  3  2  0
  3  4  1  0
  5  4  2  0
  6  5  1  0
  7  2  1  0
  7  6  2  0
  8 13  2  0
  9  8  1  0
  9 10  2  0
 10  3  1  0
 10 11  1  0
 12 11  2  0
 13 12  1  0
 14 17  1  0
 14  8  1  0
 15 14  1  0
 16 14  1  0
 18  7  1  0
 20 19  2  0
 20 18  1  0
 21 20  1  0
 22 26  1  0
 22 21  2  0
 23 22  1  0
 24 23  1  0
 24 25  2  0
 25 26  1  0
 26 27  2  0
 27 19  1  0
  4 28  1  0
  5 29  1  0
  6 30  1  0
  9 31  1  0
 12 32  1  0
 19 33  1  0
 21 34  1  0
 23 35  1  0
 25 36  1  0
 27 37  1  0
M  END
>  <Score>  (1) 
-7.21

>  <Score_dual>  (1) 
-7.26

>  <Choices>  (1) 
[None, 6, ['11-13', 60], 11, ['9-15', 180], 22, ['17-13', 0], 23, ['54-18', 345]]

$$$$
