
     RDKit          3D

 53 56  0  0  1  0  0  0  0  0999 V2000
   39.3380   75.8610   59.6150 C   0  0  2  0  0  0  0  0  0  0  0  0
   40.0410   77.1100   59.0920 C   0  0  1  0  0  0  0  0  0  0  0  0
   39.3130   77.6900   58.1350 O   0  0  0  0  0  0  0  0  0  0  0  0
   38.4760   76.8840   57.3940 C   0  0  0  0  0  0  0  0  0  0  0  0
   38.9810   75.4850   57.2090 C   0  0  1  0  0  0  0  0  0  0  0  0
   39.4770   74.8410   58.4530 C   0  0  1  0  0  0  0  0  0  0  0  0
   39.3230   79.8370   59.0800 F   0  0  0  0  0  0  0  0  0  0  0  0
   40.0390   79.3860   60.1420 C   0  0  0  0  0  0  0  0  0  0  0  0
   40.3520   80.2720   61.1160 C   0  0  0  0  0  0  0  0  0  0  0  0
   41.0910   79.7690   62.1810 C   0  0  0  0  0  0  0  0  0  0  0  0
   41.4740   78.4520   62.2300 C   0  0  0  0  0  0  0  0  0  0  0  0
   41.1400   77.5590   61.2140 C   0  0  0  0  0  0  0  0  0  0  0  0
   40.4130   78.0470   60.1610 C   0  0  0  0  0  0  0  0  0  0  0  0
   39.8050   83.7540   59.7630 C   0  0  0  0  0  0  0  0  0  0  0  0
   40.2050   82.4180   59.8600 C   0  0  0  0  0  0  0  0  0  0  0  0
   39.9380   81.6530   61.0160 C   0  0  0  0  0  0  0  0  0  0  0  0
   39.2820   82.2790   62.0100 N   0  0  0  0  0  0  0  0  0  0  0  0
   38.9080   83.5720   61.8860 C   0  0  0  0  0  0  0  0  0  0  0  0
   39.1610   84.3010   60.7890 N   0  0  0  0  0  0  0  0  0  0  0  0
   38.0600   76.1870   59.8730 O   0  0  0  0  0  0  0  0  0  0  0  0
   37.9330   74.7200   56.7140 O   0  0  0  0  0  0  0  0  0  0  0  0
   40.8660   74.6420   58.3260 O   0  0  0  0  0  0  0  0  0  0  0  0
   41.1300   72.4590   57.5920 C   0  0  2  0  0  0  0  0  0  0  0  0
   41.2710   73.3980   58.7540 C   0  0  1  0  0  0  0  0  0  0  0  0
   42.7710   73.5050   59.0650 C   0  0  0  0  0  0  0  0  0  0  0  0
   43.3220   72.2420   59.2630 O   0  0  0  0  0  0  0  0  0  0  0  0
   43.3560   71.5650   58.0660 C   0  0  0  0  0  0  0  0  0  0  0  0
   41.9400   71.2030   57.6890 C   0  0  2  0  0  0  0  0  0  0  0  0
   41.5940   73.1470   56.4540 O   0  0  0  0  0  0  0  0  0  0  0  0
   41.9670   70.6610   56.3830 O   0  0  0  0  0  0  0  0  0  0  0  0
   39.7521   75.4433   60.5445 H   0  0  0  0  0  0  0  0  0  0  0  0
   40.9935   76.7893   58.6449 H   0  0  0  0  0  0  0  0  0  0  0  0
   37.5024   76.8355   57.9037 H   0  0  0  0  0  0  0  0  0  0  0  0
   38.4084   77.3324   56.3918 H   0  0  0  0  0  0  0  0  0  0  0  0
   39.8400   75.5426   56.5243 H   0  0  0  0  0  0  0  0  0  0  0  0
   38.9234   73.9069   58.6289 H   0  0  0  0  0  0  0  0  0  0  0  0
   41.3752   80.4422   63.0032 H   0  0  0  0  0  0  0  0  0  0  0  0
   42.0577   78.0934   63.0906 H   0  0  0  0  0  0  0  0  0  0  0  0
   41.4480   76.5038   61.2560 H   0  0  0  0  0  0  0  0  0  0  0  0
   40.0187   84.3400   58.8569 H   0  0  0  0  0  0  0  0  0  0  0  0
   40.7389   81.9532   59.0180 H   0  0  0  0  0  0  0  0  0  0  0  0
   38.3727   84.0471   62.7213 H   0  0  0  0  0  0  0  0  0  0  0  0
   37.9198   76.2228   60.8524 H   0  0  0  0  0  0  0  0  0  0  0  0
   37.4152   74.3421   57.4685 H   0  0  0  0  0  0  0  0  0  0  0  0
   40.0729   72.1568   57.5579 H   0  0  0  0  0  0  0  0  0  0  0  0
   40.6911   73.0555   59.6237 H   0  0  0  0  0  0  0  0  0  0  0  0
   43.2810   73.9937   58.2217 H   0  0  0  0  0  0  0  0  0  0  0  0
   42.9013   74.0965   59.9832 H   0  0  0  0  0  0  0  0  0  0  0  0
   43.7963   72.2060   57.2880 H   0  0  0  0  0  0  0  0  0  0  0  0
   43.9684   70.6561   58.1606 H   0  0  0  0  0  0  0  0  0  0  0  0
   41.5222   70.5055   58.4299 H   0  0  0  0  0  0  0  0  0  0  0  0
   42.1244   73.9335   56.7373 H   0  0  0  0  0  0  0  0  0  0  0  0
   42.0162   69.6737   56.4364 H   0  0  0  0  0  0  0  0  0  0  0  0
  1 20  1  0
  2  1  1  0
  2 13  1  0
  3  2  1  0
  4  3  1  0
  5  4  1  0
  5  6  1  0
  6  1  1  0
  7  8  1  0
  8 13  2  0
  8  9  1  0
  9 10  2  0
 10 11  1  0
 12 11  2  0
 13 12  1  0
 14 15  2  0
 14 19  1  0
 15 16  1  0
 16  9  1  0
 16 17  2  0
 18 17  1  0
 19 18  2  0
 21  5  1  0
 22  6  1  0
 23 29  1  0
 23 28  1  0
 23 24  1  0
 24 22  1  0
 24 25  1  0
 25 26  1  0
 27 26  1  0
 28 30  1  0
 28 27  1  0
  1 31  1  1
  2 32  1  6
  4 33  1  0
  4 34  1  0
  5 35  1  6
  6 36  1  1
 10 37  1  0
 11 38  1  0
 12 39  1  0
 14 40  1  0
 15 41  1  0
 18 42  1  0
 20 43  1  0
 21 44  1  0
 23 45  1  6
 24 46  1  1
 25 47  1  0
 25 48  1  0
 27 49  1  0
 27 50  1  0
 28 51  1  1
 29 52  1  0
 30 53  1  0
M  END
>  <Score>  (1) 
-7.30006

>  <Score_dual>  (1) 
-7.17

>  <Choices>  (1) 
[None, 8, ['9-19', 105], 19, ['21-23', 315], 36, ['59-8', 240]]

$$$$
