
     RDKit          3D

 50 54  0  0  0  0  0  0  0  0999 V2000
   40.1580   76.4130   60.5670 C   0  0  0  0  0  0  0  0  0  0  0  0
   40.5300   78.8780   59.9490 C   0  0  0  0  0  0  0  0  0  0  0  0
   40.3400   77.8490   60.8530 C   0  0  0  0  0  0  0  0  0  0  0  0
   40.3080   78.1370   62.1970 C   0  0  0  0  0  0  0  0  0  0  0  0
   40.4630   79.4250   62.6100 N   0  0  0  0  0  0  0  0  0  0  0  0
   40.6520   80.4280   61.6800 C   0  0  0  0  0  0  0  0  0  0  0  0
   40.6790   80.1330   60.3950 N   0  0  0  0  0  0  0  0  0  0  0  0
   40.8210   81.7930   62.0230 N   0  0  0  0  0  0  0  0  0  0  0  0
   39.8980   82.9080   61.9160 C   0  0  0  0  0  0  0  0  0  0  0  0
   40.1850   83.5990   63.2560 C   0  0  0  0  0  0  0  0  0  0  0  0
   41.6890   83.6610   63.1960 C   0  0  0  0  0  0  0  0  0  0  0  0
   42.0380   82.3300   62.5770 C   0  0  0  0  0  0  0  0  0  0  0  0
   39.5620   76.1250   59.2590 C   0  0  0  0  0  0  0  0  0  0  0  0
   38.4610   76.8320   58.8100 C   0  0  0  0  0  0  0  0  0  0  0  0
   37.9010   76.5540   57.5660 C   0  0  0  0  0  0  0  0  0  0  0  0
   38.4970   75.5440   56.8150 C   0  0  0  0  0  0  0  0  0  0  0  0
   39.5900   74.8530   57.2790 C   0  0  0  0  0  0  0  0  0  0  0  0
   40.1430   75.1400   58.5260 C   0  0  0  0  0  0  0  0  0  0  0  0
   41.2500   74.4180   58.9620 O   0  0  0  0  0  0  0  0  0  0  0  0
   41.0880   72.0690   58.1540 C   0  0  0  0  0  0  0  0  0  0  0  0
   41.2130   73.0580   59.1040 C   0  0  0  0  0  0  0  0  0  0  0  0
   41.3200   72.6850   60.4370 C   0  0  0  0  0  0  0  0  0  0  0  0
   41.3090   71.3470   60.8460 C   0  0  0  0  0  0  0  0  0  0  0  0
   41.3890   70.6890   62.0020 N   0  0  0  0  0  0  0  0  0  0  0  0
   41.3240   69.3670   61.8190 C   0  0  0  0  0  0  0  0  0  0  0  0
   41.1910   69.1350   60.4660 C   0  0  0  0  0  0  0  0  0  0  0  0
   41.1830   70.3810   59.8720 C   0  0  0  0  0  0  0  0  0  0  0  0
   41.0750   70.7440   58.5490 C   0  0  0  0  0  0  0  0  0  0  0  0
   41.1435   75.9263   60.6103 H   0  0  0  0  0  0  0  0  0  0  0  0
   39.4559   76.0299   61.3222 H   0  0  0  0  0  0  0  0  0  0  0  0
   40.5587   78.6676   58.8697 H   0  0  0  0  0  0  0  0  0  0  0  0
   40.1583   77.3331   62.9328 H   0  0  0  0  0  0  0  0  0  0  0  0
   40.1349   83.5569   61.0600 H   0  0  0  0  0  0  0  0  0  0  0  0
   38.8468   82.6327   61.7453 H   0  0  0  0  0  0  0  0  0  0  0  0
   39.7359   84.6020   63.3034 H   0  0  0  0  0  0  0  0  0  0  0  0
   39.7754   83.0881   64.1399 H   0  0  0  0  0  0  0  0  0  0  0  0
   42.0290   84.4957   62.5653 H   0  0  0  0  0  0  0  0  0  0  0  0
   42.1634   83.8314   64.1737 H   0  0  0  0  0  0  0  0  0  0  0  0
   42.4370   81.6495   63.3436 H   0  0  0  0  0  0  0  0  0  0  0  0
   42.8062   82.4476   61.7985 H   0  0  0  0  0  0  0  0  0  0  0  0
   38.0244   77.6202   59.4409 H   0  0  0  0  0  0  0  0  0  0  0  0
   37.0267   77.1075   57.1930 H   0  0  0  0  0  0  0  0  0  0  0  0
   38.0829   75.2936   55.8271 H   0  0  0  0  0  0  0  0  0  0  0  0
   40.0351   74.0620   56.6576 H   0  0  0  0  0  0  0  0  0  0  0  0
   40.9992   72.3310   57.0894 H   0  0  0  0  0  0  0  0  0  0  0  0
   41.4171   73.4710   61.2004 H   0  0  0  0  0  0  0  0  0  0  0  0
   41.4885   71.1426   62.9214 H   0  0  0  0  0  0  0  0  0  0  0  0
   41.3686   68.6006   62.6068 H   0  0  0  0  0  0  0  0  0  0  0  0
   41.1084   68.1595   59.9644 H   0  0  0  0  0  0  0  0  0  0  0  0
   40.9756   69.9588   57.7851 H   0  0  0  0  0  0  0  0  0  0  0  0
  1  3  1  0
  2  7  2  0
  2  3  1  0
  3  4  2  0
  4  5  1  0
  6  8  1  0
  6  5  2  0
  7  6  1  0
  8 12  1  0
  9  8  1  0
  9 10  1  0
 11 10  1  0
 12 11  1  0
 13  1  1  0
 14 13  2  0
 15 14  1  0
 16 17  1  0
 16 15  2  0
 17 18  2  0
 18 19  1  0
 18 13  1  0
 19 21  1  0
 20 28  2  0
 20 21  1  0
 21 22  2  0
 22 23  1  0
 23 24  1  0
 25 24  1  0
 26 25  2  0
 27 26  1  0
 27 23  2  0
 28 27  1  0
  1 29  1  0
  1 30  1  0
  2 31  1  0
  4 32  1  0
  9 33  1  0
  9 34  1  0
 10 35  1  0
 10 36  1  0
 11 37  1  0
 11 38  1  0
 12 39  1  0
 12 40  1  0
 14 41  1  0
 15 42  1  0
 16 43  1  0
 17 44  1  0
 20 45  1  0
 22 46  1  0
 24 47  1  0
 25 48  1  0
 26 49  1  0
 28 50  1  0
M  END
>  <Score>  (1) 
-7.1327

>  <Score_dual>  (1) 
-7.23

>  <Choices>  (1) 
[None, 7, ['3-10', 0], 12, ['1-23', 180], 22, ['2-1', 0], 23, ['13-6', 75], 35, ['24-13', 30]]

$$$$
