
     RDKit          3D

 47 51  0  0  0  0  0  0  0  0999 V2000
   42.3160   82.9340   57.0810 C   0  0  0  0  0  0  0  0  0  0  0  0
   41.4400   82.0990   56.4050 C   0  0  0  0  0  0  0  0  0  0  0  0
   40.3390   81.5950   57.1110 C   0  0  0  0  0  0  0  0  0  0  0  0
   40.1830   81.9430   58.4050 N   0  0  0  0  0  0  0  0  0  0  0  0
   41.0600   82.7620   59.0350 C   0  0  0  0  0  0  0  0  0  0  0  0
   42.1280   83.2590   58.3750 N   0  0  0  0  0  0  0  0  0  0  0  0
   39.5830   83.0370   60.9840 C   0  0  0  0  0  0  0  0  0  0  0  0
   40.8470   83.1110   60.4450 C   0  0  0  0  0  0  0  0  0  0  0  0
   41.8960   83.5040   61.2140 C   0  0  0  0  0  0  0  0  0  0  0  0
   41.7460   83.8380   62.5280 C   0  0  0  0  0  0  0  0  0  0  0  0
   42.6050   84.2470   63.4720 N   0  0  0  0  0  0  0  0  0  0  0  0
   41.8650   84.4230   64.5920 C   0  0  0  0  0  0  0  0  0  0  0  0
   40.5440   84.1180   64.3210 N   0  0  0  0  0  0  0  0  0  0  0  0
   40.4600   83.7500   63.0300 C   0  0  0  0  0  0  0  0  0  0  0  0
   39.3580   83.3580   62.3020 C   0  0  0  0  0  0  0  0  0  0  0  0
   39.3790   80.7180   56.4740 C   0  0  0  0  0  0  0  0  0  0  0  0
   39.1130   79.4270   56.8980 C   0  0  0  0  0  0  0  0  0  0  0  0
   38.1780   78.8480   56.1180 N   0  0  0  0  0  0  0  0  0  0  0  0
   37.8450   79.7590   55.1980 C   0  0  0  0  0  0  0  0  0  0  0  0
   38.5710   80.8640   55.4280 N   0  0  0  0  0  0  0  0  0  0  0  0
   36.9070   79.6590   54.1410 N   0  0  0  0  0  0  0  0  0  0  0  0
   38.0770   74.8210   56.9380 N   0  0  0  0  0  0  0  0  0  0  0  0
   37.9870   75.1440   55.5460 C   0  0  0  0  0  0  0  0  0  0  0  0
   38.2750   76.5730   55.2190 C   0  0  0  0  0  0  0  0  0  0  0  0
   37.5820   77.5360   56.1630 C   0  0  0  0  0  0  0  0  0  0  0  0
   37.6100   77.0760   57.6010 C   0  0  0  0  0  0  0  0  0  0  0  0
   38.5520   75.9250   57.7420 C   0  0  0  0  0  0  0  0  0  0  0  0
   43.1871   83.3418   56.5472 H   0  0  0  0  0  0  0  0  0  0  0  0
   41.6037   81.8402   55.3485 H   0  0  0  0  0  0  0  0  0  0  0  0
   38.7415   82.7168   60.3521 H   0  0  0  0  0  0  0  0  0  0  0  0
   42.8979   83.5544   60.7627 H   0  0  0  0  0  0  0  0  0  0  0  0
   43.6187   84.3965   63.3671 H   0  0  0  0  0  0  0  0  0  0  0  0
   42.2540   84.7565   65.5654 H   0  0  0  0  0  0  0  0  0  0  0  0
   38.3547   83.3048   62.7498 H   0  0  0  0  0  0  0  0  0  0  0  0
   39.5991   78.9393   57.7558 H   0  0  0  0  0  0  0  0  0  0  0  0
   36.3739   78.7881   54.0062 H   0  0  0  0  0  0  0  0  0  0  0  0
   36.7581   80.4572   53.5073 H   0  0  0  0  0  0  0  0  0  0  0  0
   38.7262   74.0293   57.0504 H   0  0  0  0  0  0  0  0  0  0  0  0
   38.7066   74.5156   55.0008 H   0  0  0  0  0  0  0  0  0  0  0  0
   36.9434   74.9609   55.2504 H   0  0  0  0  0  0  0  0  0  0  0  0
   39.3608   76.7373   55.2820 H   0  0  0  0  0  0  0  0  0  0  0  0
   37.8946   76.7670   54.2053 H   0  0  0  0  0  0  0  0  0  0  0  0
   36.5397   77.5709   55.8131 H   0  0  0  0  0  0  0  0  0  0  0  0
   37.9449   77.9037   58.2434 H   0  0  0  0  0  0  0  0  0  0  0  0
   36.6004   76.7602   57.9027 H   0  0  0  0  0  0  0  0  0  0  0  0
   38.6017   75.6173   58.7969 H   0  0  0  0  0  0  0  0  0  0  0  0
   39.5548   76.2244   57.4033 H   0  0  0  0  0  0  0  0  0  0  0  0
  1  6  2  0
  2  1  1  0
  2  3  2  0
  3  4  1  0
  4  5  2  0
  5  8  1  0
  6  5  1  0
  7 15  2  0
  8  7  1  0
  8  9  2  0
  9 10  1  0
 10 14  2  0
 10 11  1  0
 11 12  1  0
 13 12  2  0
 14 13  1  0
 15 14  1  0
 16 17  2  0
 16  3  1  0
 18 25  1  0
 18 17  1  0
 19 20  2  0
 19 18  1  0
 20 16  1  0
 21 19  1  0
 22 27  1  0
 23 22  1  0
 24 23  1  0
 24 25  1  0
 25 26  1  0
 26 27  1  0
  1 28  1  0
  2 29  1  0
  7 30  1  0
  9 31  1  0
 11 32  1  0
 12 33  1  0
 15 34  1  0
 17 35  1  0
 21 36  1  0
 21 37  1  0
 22 38  1  0
 23 39  1  0
 23 40  1  0
 24 41  1  0
 24 42  1  0
 25 43  1  0
 26 44  1  0
 26 45  1  0
 27 46  1  0
 27 47  1  0
M  END
>  <Score>  (1) 
-7.19009

>  <Score_dual>  (1) 
-7.76

>  <Choices>  (1) 
[None, 9, ['34-23', 255], 22, ['23-8', 120], 29, ['0-4', 0], 29, ['8-15', 180]]

$$$$
