
 OpenBabel03242509323D

 40 45  0  0  1  0  0  0  0  0999 V2000
   65.3670   57.7940   30.9830 C   0  0  0  0  0  2  0  0  0  0  0  0
   66.2840   58.8970   31.3230 C   0  0  0  0  0  0  0  0  0  0  0  0
   67.5710   58.5490   31.7110 C   0  0  0  0  0  3  0  0  0  0  0  0
   68.4660   59.5760   32.0420 C   0  0  0  0  0  3  0  0  0  0  0  0
   68.0600   60.8470   31.9740 N   0  0  0  0  0  0  0  0  0  0  0  0
   66.8090   61.1930   31.5980 C   0  0  0  0  0  0  0  0  0  0  0  0
   65.9640   60.1940   31.2850 N   0  0  0  0  0  0  0  0  0  0  0  0
   66.4110   62.5600   31.5380 N   0  0  0  0  0  0  0  0  0  0  0  0
   65.9280   63.2220   32.6220 C   0  0  0  0  0  3  0  0  0  0  0  0
   65.6150   64.5110   32.3340 N   0  0  0  0  0  0  0  0  0  0  0  0
   65.9060   64.6760   31.0270 C   0  0  0  0  0  0  0  0  0  0  0  0
   65.8190   65.7310   30.1380 C   0  0  0  0  0  0  0  0  0  0  0  0
   65.3810   66.8500   30.5200 O   0  0  0  0  0  0  0  0  0  0  0  0
   66.2170   65.5120   28.8680 N   0  0  0  0  0  0  0  0  0  0  0  0
   66.6910   64.3460   28.4010 C   0  0  0  0  0  0  0  0  0  0  0  0
   67.0640   64.2960   27.0280 N   0  0  0  0  0  0  0  0  0  0  0  0
   66.7870   63.2910   29.2560 N   0  0  0  0  0  0  0  0  0  0  0  0
   66.3940   63.4740   30.5490 C   0  0  0  0  0  0  0  0  0  0  0  0
   66.1510   66.2990   28.2060 H   0  0  0  0  0  0  0  0  0  0  0  0
   67.4330   63.4220   26.6250 H   0  0  0  0  0  0  0  0  0  0  0  0
   66.9650   65.1330   26.4360 H   0  0  0  0  0  0  0  0  0  0  0  0
   65.7000   57.1770   29.6230 C   0  0  0  0  0  2  0  0  0  0  0  0
   62.2300   56.9690   28.4070 C   0  0  0  0  0  2  0  0  0  0  0  0
   62.3350   57.0700   27.0630 C   0  0  0  0  0  0  0  0  0  0  0  0
   63.6090   57.2150   26.5760 C   0  0  0  0  0  3  0  0  0  0  0  0
   64.6520   57.2460   27.4370 N   0  0  0  0  0  0  0  0  0  0  0  0
   64.5110   57.1460   28.7380 C   0  0  0  0  0  0  0  0  0  0  0  0
   63.3090   57.0070   29.2440 N   0  0  0  0  0  0  0  0  0  0  0  0
   63.1800   56.9280   30.2630 H   0  0  0  0  0  0  0  0  0  0  0  0
   61.1060   57.0010   26.2680 C   0  0  0  0  0  0  0  0  0  0  0  0
   60.8270   55.7270   25.8800 N   0  0  0  0  0  0  0  0  0  0  0  0
   59.8270   55.4330   25.0330 C   0  0  0  0  0  3  0  0  0  0  0  0
   59.1280   56.4460   24.3860 N   0  0  0  0  0  0  0  0  0  0  0  0
   59.5140   57.7250   24.6380 C   0  0  2  0  0  3  0  0  0  0  0  0
   58.9210   58.7680   23.9950 C   0  0  0  0  0  3  0  0  0  0  0  0
   59.3720   60.0740   24.2140 C   0  0  0  0  0  3  0  0  0  0  0  0
   60.4290   60.3190   25.0890 C   0  0  0  0  0  3  0  0  0  0  0  0
   61.0190   59.2400   25.7360 C   0  0  0  0  0  3  0  0  0  0  0  0
   60.5400   57.9850   25.4890 C   0  0  0  0  0  0  0  0  0  0  0  0
   58.3520   56.2360   23.7430 H   0  0  0  0  0  0  0  0  0  0  0  0
  1  2  1  0  0  0  0
  2  3  1  0  0  0  0
  3  4  2  0  0  0  0
  5  4  1  0  0  0  0
  6  5  2  0  0  0  0
  7  2  2  0  0  0  0
  7  6  1  0  0  0  0
  8  6  1  0  0  0  0
  8  9  1  0  0  0  0
 10  9  2  0  0  0  0
 11 10  1  0  0  0  0
 12 13  2  0  0  0  0
 12 11  1  0  0  0  0
 14 12  1  0  0  0  0
 15 14  1  0  0  0  0
 15 17  2  0  0  0  0
 16 15  1  0  0  0  0
 17 18  1  0  0  0  0
 18 11  2  0  0  0  0
 18  8  1  0  0  0  0
 19 14  1  0  0  0  0
 20 16  1  0  0  0  0
 21 16  1  0  0  0  0
 22  1  1  0  0  0  0
 23 28  1  0  0  0  0
 24 23  1  0  0  0  0
 25 24  2  0  0  0  0
 25 26  1  0  0  0  0
 26 27  2  0  0  0  0
 27 28  1  0  0  0  0
 27 22  1  0  0  0  0
 28 29  1  0  0  0  0
 30 24  1  0  0  0  0
 31 30  1  0  0  0  0
 32 31  2  0  0  0  0
 33 34  1  0  0  0  0
 33 32  1  0  0  0  0
 34 35  1  6  0  0  0
 34 39  1  0  0  0  0
 35 36  2  0  0  0  0
 36 37  1  0  0  0  0
 37 38  2  0  0  0  0
 39 38  1  0  0  0  0
 39 30  2  0  0  0  0
 40 33  1  0  0  0  0
M  END
>  <minimizedAffinity>
-8.3434906

$$$$

 OpenBabel03242509323D

 40 45  0  0  1  0  0  0  0  0999 V2000
   65.1630   57.6070   30.9780 C   0  0  0  0  0  2  0  0  0  0  0  0
   66.0560   58.7170   31.3590 C   0  0  0  0  0  0  0  0  0  0  0  0
   67.3220   58.3790   31.8180 C   0  0  0  0  0  3  0  0  0  0  0  0
   68.1940   59.4120   32.1870 C   0  0  0  0  0  3  0  0  0  0  0  0
   67.7870   60.6800   32.0880 N   0  0  0  0  0  0  0  0  0  0  0  0
   66.5560   61.0170   31.6420 C   0  0  0  0  0  0  0  0  0  0  0  0
   65.7330   60.0130   31.2930 N   0  0  0  0  0  0  0  0  0  0  0  0
   66.1560   62.3820   31.5510 N   0  0  0  0  0  0  0  0  0  0  0  0
   65.6130   63.0510   32.6010 C   0  0  0  0  0  3  0  0  0  0  0  0
   65.3110   64.3360   32.2870 N   0  0  0  0  0  0  0  0  0  0  0  0
   65.6710   64.4920   30.9970 C   0  0  0  0  0  0  0  0  0  0  0  0
   65.6270   65.5390   30.0960 C   0  0  0  0  0  0  0  0  0  0  0  0
   65.1650   66.6590   30.4440 O   0  0  0  0  0  0  0  0  0  0  0  0
   66.0930   65.3130   28.8510 N   0  0  0  0  0  0  0  0  0  0  0  0
   66.5970   64.1450   28.4190 C   0  0  0  0  0  0  0  0  0  0  0  0
   67.0430   64.0860   27.0680 N   0  0  0  0  0  0  0  0  0  0  0  0
   66.6510   63.0970   29.2860 N   0  0  0  0  0  0  0  0  0  0  0  0
   66.1890   63.2880   30.5550 C   0  0  0  0  0  0  0  0  0  0  0  0
   66.0600   66.0940   28.1800 H   0  0  0  0  0  0  0  0  0  0  0  0
   67.4370   63.2110   26.6930 H   0  0  0  0  0  0  0  0  0  0  0  0
   66.9730   64.9180   26.4660 H   0  0  0  0  0  0  0  0  0  0  0  0
   65.5590   56.9950   29.6330 C   0  0  0  0  0  2  0  0  0  0  0  0
   63.7640   57.1800   26.4230 C   0  0  0  0  0  2  0  0  0  0  0  0
   62.5240   57.6080   26.7520 C   0  0  0  0  0  0  0  0  0  0  0  0
   62.3080   57.8300   28.0880 C   0  0  0  0  0  3  0  0  0  0  0  0
   63.3100   57.6160   28.9710 N   0  0  0  0  0  0  0  0  0  0  0  0
   64.5020   57.1990   28.6140 C   0  0  0  0  0  0  0  0  0  0  0  0
   64.7510   56.9730   27.3450 N   0  0  0  0  0  0  0  0  0  0  0  0
   65.6800   56.6450   27.0480 H   0  0  0  0  0  0  0  0  0  0  0  0
   61.5540   57.8070   25.6710 C   0  0  0  0  0  0  0  0  0  0  0  0
   61.4180   59.1220   25.3510 N   0  0  0  0  0  0  0  0  0  0  0  0
   60.4910   59.5610   24.4850 C   0  0  0  0  0  3  0  0  0  0  0  0
   59.5160   58.7000   23.9950 N   0  0  0  0  0  0  0  0  0  0  0  0
   59.5410   57.4160   24.4430 C   0  0  2  0  0  3  0  0  0  0  0  0
   58.5830   56.5290   24.0600 C   0  0  0  0  0  3  0  0  0  0  0  0
   58.5820   55.2300   24.5800 C   0  0  0  0  0  3  0  0  0  0  0  0
   59.5570   54.8340   25.4930 C   0  0  0  0  0  3  0  0  0  0  0  0
   60.5260   55.7560   25.8700 C   0  0  0  0  0  3  0  0  0  0  0  0
   60.4850   57.0090   25.3320 C   0  0  0  0  0  0  0  0  0  0  0  0
   58.8060   59.0200   23.3220 H   0  0  0  0  0  0  0  0  0  0  0  0
  1  2  1  0  0  0  0
  2  3  1  0  0  0  0
  3  4  2  0  0  0  0
  5  4  1  0  0  0  0
  6  5  2  0  0  0  0
  7  2  2  0  0  0  0
  7  6  1  0  0  0  0
  8  6  1  0  0  0  0
  8  9  1  0  0  0  0
 10  9  2  0  0  0  0
 11 10  1  0  0  0  0
 12 13  2  0  0  0  0
 12 11  1  0  0  0  0
 14 12  1  0  0  0  0
 15 14  1  0  0  0  0
 15 17  2  0  0  0  0
 16 15  1  0  0  0  0
 17 18  1  0  0  0  0
 18 11  2  0  0  0  0
 18  8  1  0  0  0  0
 19 14  1  0  0  0  0
 20 16  1  0  0  0  0
 21 16  1  0  0  0  0
 22  1  1  0  0  0  0
 23 24  1  0  0  0  0
 23 28  1  0  0  0  0
 24 25  2  0  0  0  0
 25 26  1  0  0  0  0
 27 26  2  0  0  0  0
 27 22  1  0  0  0  0
 28 27  1  0  0  0  0
 29 28  1  0  0  0  0
 30 24  1  0  0  0  0
 31 30  1  0  0  0  0
 32 31  2  0  0  0  0
 33 34  1  0  0  0  0
 33 32  1  0  0  0  0
 34 35  1  1  0  0  0
 34 39  1  0  0  0  0
 35 36  2  0  0  0  0
 36 37  1  0  0  0  0
 37 38  2  0  0  0  0
 39 30  2  0  0  0  0
 39 38  1  0  0  0  0
 40 33  1  0  0  0  0
M  END
>  <minimizedAffinity>
-8.15850639

$$$$

 OpenBabel03242509323D

 40 45  0  0  1  0  0  0  0  0999 V2000
   65.4760   58.7880   32.1380 C   0  0  0  0  0  2  0  0  0  0  0  0
   66.7320   59.5110   31.8650 C   0  0  0  0  0  0  0  0  0  0  0  0
   67.8890   58.7500   31.7660 C   0  0  0  0  0  3  0  0  0  0  0  0
   69.0990   59.4090   31.5080 C   0  0  0  0  0  3  0  0  0  0  0  0
   69.1050   60.7370   31.3650 N   0  0  0  0  0  0  0  0  0  0  0  0
   67.9820   61.4840   31.4590 C   0  0  0  0  0  0  0  0  0  0  0  0
   66.8310   60.8350   31.7090 N   0  0  0  0  0  0  0  0  0  0  0  0
   68.0270   62.9000   31.3020 N   0  0  0  0  0  0  0  0  0  0  0  0
   68.2930   63.7370   32.3380 C   0  0  0  0  0  3  0  0  0  0  0  0
   68.2860   65.0390   31.9580 N   0  0  0  0  0  0  0  0  0  0  0  0
   68.0050   65.0340   30.6380 C   0  0  0  0  0  0  0  0  0  0  0  0
   67.8550   66.0110   29.6720 C   0  0  0  0  0  0  0  0  0  0  0  0
   67.9860   67.2290   29.9740 O   0  0  0  0  0  0  0  0  0  0  0  0
   67.5670   65.6120   28.4180 N   0  0  0  0  0  0  0  0  0  0  0  0
   67.4150   64.3330   28.0340 C   0  0  0  0  0  0  0  0  0  0  0  0
   67.1100   64.0950   26.6630 N   0  0  0  0  0  0  0  0  0  0  0  0
   67.5580   63.3500   28.9650 N   0  0  0  0  0  0  0  0  0  0  0  0
   67.8490   63.7170   30.2460 C   0  0  0  0  0  0  0  0  0  0  0  0
   67.4540   66.3410   27.6990 H   0  0  0  0  0  0  0  0  0  0  0  0
   66.9850   63.1310   26.3230 H   0  0  0  0  0  0  0  0  0  0  0  0
   67.0160   64.8870   26.0120 H   0  0  0  0  0  0  0  0  0  0  0  0
   65.3680   57.5060   31.3090 C   0  0  0  0  0  2  0  0  0  0  0  0
   63.2310   56.8350   28.3850 C   0  0  0  0  0  2  0  0  0  0  0  0
   62.3830   57.8860   28.3370 C   0  0  0  0  0  0  0  0  0  0  0  0
   62.5470   58.8270   29.3210 C   0  0  0  0  0  3  0  0  0  0  0  0
   63.5150   58.6590   30.2510 N   0  0  0  0  0  0  0  0  0  0  0  0
   64.3210   57.6230   30.2660 C   0  0  0  0  0  0  0  0  0  0  0  0
   64.1970   56.6990   29.3430 N   0  0  0  0  0  0  0  0  0  0  0  0
   64.8200   55.8790   29.3410 H   0  0  0  0  0  0  0  0  0  0  0  0
   61.3990   57.9290   27.2520 C   0  0  0  0  0  0  0  0  0  0  0  0
   61.5510   56.8870   26.3900 N   0  0  0  0  0  0  0  0  0  0  0  0
   60.8530   56.7870   25.2480 C   0  0  0  0  0  3  0  0  0  0  0  0
   60.0520   57.8370   24.8150 N   0  0  0  0  0  0  0  0  0  0  0  0
   60.0250   58.9560   25.5870 C   0  0  2  0  0  3  0  0  0  0  0  0
   59.3150   60.0500   25.1980 C   0  0  0  0  0  3  0  0  0  0  0  0
   59.3490   61.2180   25.9680 C   0  0  0  0  0  3  0  0  0  0  0  0
   60.1080   61.2720   27.1350 C   0  0  0  0  0  3  0  0  0  0  0  0
   60.8250   60.1440   27.5140 C   0  0  0  0  0  3  0  0  0  0  0  0
   60.7560   59.0280   26.7300 C   0  0  0  0  0  0  0  0  0  0  0  0
   59.5020   57.7700   23.9470 H   0  0  0  0  0  0  0  0  0  0  0  0
  2  1  1  0  0  0  0
  3  2  1  0  0  0  0
  4  3  2  0  0  0  0
  5  6  2  0  0  0  0
  5  4  1  0  0  0  0
  6  7  1  0  0  0  0
  7  2  2  0  0  0  0
  8  6  1  0  0  0  0
  8  9  1  0  0  0  0
 10  9  2  0  0  0  0
 11 10  1  0  0  0  0
 12 13  2  0  0  0  0
 12 11  1  0  0  0  0
 14 12  1  0  0  0  0
 15 14  1  0  0  0  0
 15 17  2  0  0  0  0
 16 15  1  0  0  0  0
 17 18  1  0  0  0  0
 18 11  2  0  0  0  0
 18  8  1  0  0  0  0
 19 14  1  0  0  0  0
 20 16  1  0  0  0  0
 21 16  1  0  0  0  0
 22  1  1  0  0  0  0
 23 28  1  0  0  0  0
 24 23  1  0  0  0  0
 24 25  2  0  0  0  0
 25 26  1  0  0  0  0
 26 27  2  0  0  0  0
 27 22  1  0  0  0  0
 28 27  1  0  0  0  0
 29 28  1  0  0  0  0
 30 24  1  0  0  0  0
 31 30  1  0  0  0  0
 32 31  2  0  0  0  0
 33 32  1  0  0  0  0
 33 34  1  0  0  0  0
 34 35  1  6  0  0  0
 34 39  1  0  0  0  0
 35 36  2  0  0  0  0
 36 37  1  0  0  0  0
 37 38  2  0  0  0  0
 39 30  2  0  0  0  0
 39 38  1  0  0  0  0
 40 33  1  0  0  0  0
M  END
>  <minimizedAffinity>
-8.02921009

$$$$

 OpenBabel03242509323D

 40 45  0  0  1  0  0  0  0  0999 V2000
   65.6020   57.3540   31.4300 C   0  0  0  0  0  2  0  0  0  0  0  0
   65.9330   58.7080   31.9110 C   0  0  0  0  0  0  0  0  0  0  0  0
   66.1430   58.8580   33.2750 C   0  0  0  0  0  3  0  0  0  0  0  0
   66.4590   60.1340   33.7630 C   0  0  0  0  0  3  0  0  0  0  0  0
   66.5480   61.1580   32.9110 N   0  0  0  0  0  0  0  0  0  0  0  0
   66.3440   61.0200   31.5820 C   0  0  0  0  0  0  0  0  0  0  0  0
   66.0410   59.7890   31.1320 N   0  0  0  0  0  0  0  0  0  0  0  0
   66.4460   62.1370   30.7020 N   0  0  0  0  0  0  0  0  0  0  0  0
   65.3980   62.9650   30.4570 C   0  0  0  0  0  3  0  0  0  0  0  0
   65.7230   63.9580   29.5920 N   0  0  0  0  0  0  0  0  0  0  0  0
   67.0190   63.7570   29.2750 C   0  0  0  0  0  0  0  0  0  0  0  0
   67.9310   64.4020   28.4600 C   0  0  0  0  0  0  0  0  0  0  0  0
   67.5900   65.4270   27.8100 O   0  0  0  0  0  0  0  0  0  0  0  0
   69.1780   63.8930   28.3930 N   0  0  0  0  0  0  0  0  0  0  0  0
   69.6020   62.8060   29.0590 C   0  0  0  0  0  0  0  0  0  0  0  0
   70.9570   62.4100   28.8670 N   0  0  0  0  0  0  0  0  0  0  0  0
   68.7240   62.1530   29.8680 N   0  0  0  0  0  0  0  0  0  0  0  0
   67.4530   62.6380   29.9610 C   0  0  0  0  0  0  0  0  0  0  0  0
   69.8570   64.3730   27.7850 H   0  0  0  0  0  0  0  0  0  0  0  0
   71.3260   61.5830   29.3580 H   0  0  0  0  0  0  0  0  0  0  0  0
   71.5670   62.9510   28.2390 H   0  0  0  0  0  0  0  0  0  0  0  0
   66.0290   57.1480   29.9750 C   0  0  0  0  0  2  0  0  0  0  0  0
   62.5870   57.0060   28.6710 C   0  0  0  0  0  2  0  0  0  0  0  0
   62.7240   57.1640   27.3360 C   0  0  0  0  0  0  0  0  0  0  0  0
   64.0100   57.3240   26.8850 C   0  0  0  0  0  3  0  0  0  0  0  0
   65.0330   57.3140   27.7700 N   0  0  0  0  0  0  0  0  0  0  0  0
   64.8610   57.1590   29.0620 C   0  0  0  0  0  0  0  0  0  0  0  0
   63.6470   57.0040   29.5340 N   0  0  0  0  0  0  0  0  0  0  0  0
   63.4940   56.8810   30.5450 H   0  0  0  0  0  0  0  0  0  0  0  0
   61.5140   57.1340   26.5100 C   0  0  0  0  0  0  0  0  0  0  0  0
   61.4640   56.0220   25.7270 N   0  0  0  0  0  0  0  0  0  0  0  0
   60.5190   55.8400   24.7910 C   0  0  0  0  0  3  0  0  0  0  0  0
   59.6360   56.8640   24.4700 N   0  0  0  0  0  0  0  0  0  0  0  0
   59.7870   58.0430   25.1300 C   0  0  2  0  0  3  0  0  0  0  0  0
   59.0020   59.1140   24.8260 C   0  0  0  0  0  3  0  0  0  0  0  0
   59.2120   60.3400   25.4660 C   0  0  0  0  0  3  0  0  0  0  0  0
   60.2230   60.4780   26.4150 C   0  0  0  0  0  3  0  0  0  0  0  0
   61.0110   59.3720   26.7110 C   0  0  0  0  0  3  0  0  0  0  0  0
   60.7640   58.1970   26.0610 C   0  0  0  0  0  0  0  0  0  0  0  0
   58.8990   56.7350   23.7620 H   0  0  0  0  0  0  0  0  0  0  0  0
  1  2  1  0  0  0  0
  2  3  1  0  0  0  0
  3  4  2  0  0  0  0
  5  4  1  0  0  0  0
  6  5  2  0  0  0  0
  7  6  1  0  0  0  0
  7  2  2  0  0  0  0
  8  6  1  0  0  0  0
  9  8  1  0  0  0  0
 10  9  2  0  0  0  0
 11 10  1  0  0  0  0
 11 18  2  0  0  0  0
 12 11  1  0  0  0  0
 13 12  2  0  0  0  0
 14 12  1  0  0  0  0
 14 15  1  0  0  0  0
 15 17  2  0  0  0  0
 16 15  1  0  0  0  0
 16 20  1  0  0  0  0
 17 18  1  0  0  0  0
 18  8  1  0  0  0  0
 19 14  1  0  0  0  0
 21 16  1  0  0  0  0
 22  1  1  0  0  0  0
 23 28  1  0  0  0  0
 24 23  1  0  0  0  0
 25 24  2  0  0  0  0
 25 26  1  0  0  0  0
 26 27  2  0  0  0  0
 27 28  1  0  0  0  0
 27 22  1  0  0  0  0
 28 29  1  0  0  0  0
 30 24  1  0  0  0  0
 31 30  1  0  0  0  0
 32 31  2  0  0  0  0
 33 32  1  0  0  0  0
 33 34  1  0  0  0  0
 34 35  1  6  0  0  0
 34 39  1  0  0  0  0
 35 36  2  0  0  0  0
 36 37  1  0  0  0  0
 37 38  2  0  0  0  0
 39 30  2  0  0  0  0
 39 38  1  0  0  0  0
 40 33  1  0  0  0  0
M  END
>  <minimizedAffinity>
-7.95433807

$$$$

 OpenBabel03242509323D

 40 45  0  0  1  0  0  0  0  0999 V2000
   65.1730   57.3740   31.0380 C   0  0  0  0  0  2  0  0  0  0  0  0
   65.7200   58.6200   31.6080 C   0  0  0  0  0  0  0  0  0  0  0  0
   65.7810   58.7040   32.9930 C   0  0  0  0  0  3  0  0  0  0  0  0
   66.2960   59.8750   33.5660 C   0  0  0  0  0  3  0  0  0  0  0  0
   66.7090   60.8670   32.7720 N   0  0  0  0  0  0  0  0  0  0  0  0
   66.6520   60.7910   31.4240 C   0  0  0  0  0  0  0  0  0  0  0  0
   66.1550   59.6600   30.8920 N   0  0  0  0  0  0  0  0  0  0  0  0
   67.1020   61.8710   30.6080 N   0  0  0  0  0  0  0  0  0  0  0  0
   66.2940   62.9080   30.2690 C   0  0  0  0  0  3  0  0  0  0  0  0
   66.9310   63.8180   29.4900 N   0  0  0  0  0  0  0  0  0  0  0  0
   68.1840   63.3460   29.3260 C   0  0  0  0  0  0  0  0  0  0  0  0
   69.3090   63.7880   28.6550 C   0  0  0  0  0  0  0  0  0  0  0  0
   69.2800   64.8700   28.0090 O   0  0  0  0  0  0  0  0  0  0  0  0
   70.4170   63.0230   28.7210 N   0  0  0  0  0  0  0  0  0  0  0  0
   70.5110   61.8620   29.3910 C   0  0  0  0  0  0  0  0  0  0  0  0
   71.7640   61.1850   29.3510 N   0  0  0  0  0  0  0  0  0  0  0  0
   69.4180   61.4040   30.0610 N   0  0  0  0  0  0  0  0  0  0  0  0
   68.2780   62.1510   30.0160 C   0  0  0  0  0  0  0  0  0  0  0  0
   71.2550   63.3520   28.2200 H   0  0  0  0  0  0  0  0  0  0  0  0
   71.8830   60.2920   29.8500 H   0  0  0  0  0  0  0  0  0  0  0  0
   72.5510   61.5890   28.8240 H   0  0  0  0  0  0  0  0  0  0  0  0
   65.7020   57.1160   29.6260 C   0  0  0  0  0  2  0  0  0  0  0  0
   63.8980   57.2560   26.4180 C   0  0  0  0  0  2  0  0  0  0  0  0
   62.6360   57.6050   26.7540 C   0  0  0  0  0  0  0  0  0  0  0  0
   62.4070   57.7890   28.0940 C   0  0  0  0  0  3  0  0  0  0  0  0
   63.4210   57.6180   28.9730 N   0  0  0  0  0  0  0  0  0  0  0  0
   64.6350   57.2770   28.6090 C   0  0  0  0  0  0  0  0  0  0  0  0
   64.8960   57.0910   27.3370 N   0  0  0  0  0  0  0  0  0  0  0  0
   65.8430   56.8230   27.0340 H   0  0  0  0  0  0  0  0  0  0  0  0
   61.6560   57.7670   25.6770 C   0  0  0  0  0  0  0  0  0  0  0  0
   61.5060   59.0720   25.3230 N   0  0  0  0  0  0  0  0  0  0  0  0
   60.5680   59.4810   24.4530 C   0  0  0  0  0  3  0  0  0  0  0  0
   59.5970   58.5990   23.9950 N   0  0  0  0  0  0  0  0  0  0  0  0
   59.6350   57.3280   24.4770 C   0  0  2  0  0  3  0  0  0  0  0  0
   58.6810   56.4230   24.1260 C   0  0  0  0  0  3  0  0  0  0  0  0
   58.6940   55.1390   24.6810 C   0  0  0  0  0  3  0  0  0  0  0  0
   59.6800   54.7760   25.5960 C   0  0  0  0  0  3  0  0  0  0  0  0
   60.6450   55.7150   25.9400 C   0  0  0  0  0  3  0  0  0  0  0  0
   60.5890   56.9530   25.3680 C   0  0  0  0  0  0  0  0  0  0  0  0
   58.8780   58.8950   23.3190 H   0  0  0  0  0  0  0  0  0  0  0  0
  1  2  1  0  0  0  0
  2  3  1  0  0  0  0
  3  4  2  0  0  0  0
  5  4  1  0  0  0  0
  6  5  2  0  0  0  0
  7  6  1  0  0  0  0
  7  2  2  0  0  0  0
  8  6  1  0  0  0  0
  9  8  1  0  0  0  0
 10  9  2  0  0  0  0
 11 10  1  0  0  0  0
 11 18  2  0  0  0  0
 12 14  1  0  0  0  0
 12 11  1  0  0  0  0
 13 12  2  0  0  0  0
 14 15  1  0  0  0  0
 15 17  2  0  0  0  0
 16 15  1  0  0  0  0
 16 20  1  0  0  0  0
 18 17  1  0  0  0  0
 18  8  1  0  0  0  0
 19 14  1  0  0  0  0
 21 16  1  0  0  0  0
 22  1  1  0  0  0  0
 23 24  1  0  0  0  0
 23 28  1  0  0  0  0
 24 25  2  0  0  0  0
 25 26  1  0  0  0  0
 27 26  2  0  0  0  0
 27 22  1  0  0  0  0
 28 27  1  0  0  0  0
 29 28  1  0  0  0  0
 30 24  1  0  0  0  0
 31 30  1  0  0  0  0
 32 31  2  0  0  0  0
 33 32  1  0  0  0  0
 33 34  1  0  0  0  0
 34 35  1  1  0  0  0
 34 39  1  0  0  0  0
 35 36  2  0  0  0  0
 36 37  1  0  0  0  0
 37 38  2  0  0  0  0
 39 30  2  0  0  0  0
 39 38  1  0  0  0  0
 40 33  1  0  0  0  0
M  END
>  <minimizedAffinity>
-7.66727066

$$$$

 OpenBabel03242509323D

 40 45  0  0  1  0  0  0  0  0999 V2000
   66.6370   57.5560   31.1160 C   0  0  0  0  0  2  0  0  0  0  0  0
   67.3210   58.8210   31.4410 C   0  0  0  0  0  0  0  0  0  0  0  0
   68.6400   58.7330   31.8650 C   0  0  0  0  0  3  0  0  0  0  0  0
   69.3180   59.9190   32.1810 C   0  0  0  0  0  3  0  0  0  0  0  0
   68.6820   61.0880   32.0660 N   0  0  0  0  0  0  0  0  0  0  0  0
   67.3990   61.1810   31.6530 C   0  0  0  0  0  0  0  0  0  0  0  0
   66.7640   60.0330   31.3550 N   0  0  0  0  0  0  0  0  0  0  0  0
   66.7520   62.4470   31.5430 N   0  0  0  0  0  0  0  0  0  0  0  0
   66.1260   63.0350   32.5950 C   0  0  0  0  0  3  0  0  0  0  0  0
   65.5830   64.2340   32.2610 N   0  0  0  0  0  0  0  0  0  0  0  0
   65.8720   64.4150   30.9560 C   0  0  0  0  0  0  0  0  0  0  0  0
   65.6120   65.4100   30.0320 C   0  0  0  0  0  0  0  0  0  0  0  0
   64.9620   66.4360   30.3700 O   0  0  0  0  0  0  0  0  0  0  0  0
   66.0760   65.2370   28.7780 N   0  0  0  0  0  0  0  0  0  0  0  0
   66.7730   64.1680   28.3580 C   0  0  0  0  0  0  0  0  0  0  0  0
   67.1840   64.1520   26.9940 N   0  0  0  0  0  0  0  0  0  0  0  0
   67.0430   63.1730   29.2470 N   0  0  0  0  0  0  0  0  0  0  0  0
   66.5890   63.3140   30.5250 C   0  0  0  0  0  0  0  0  0  0  0  0
   65.8810   65.9780   28.0910 H   0  0  0  0  0  0  0  0  0  0  0  0
   67.7210   63.3540   26.6270 H   0  0  0  0  0  0  0  0  0  0  0  0
   66.9450   64.9400   26.3750 H   0  0  0  0  0  0  0  0  0  0  0  0
   65.1990   57.5380   31.6380 C   0  0  0  0  0  2  0  0  0  0  0  0
   62.5110   59.1130   29.6740 C   0  0  0  0  0  2  0  0  0  0  0  0
   62.4290   58.3650   28.5510 C   0  0  0  0  0  0  0  0  0  0  0  0
   63.3090   57.3160   28.4710 C   0  0  0  0  0  3  0  0  0  0  0  0
   64.1770   57.0940   29.4840 N   0  0  0  0  0  0  0  0  0  0  0  0
   64.2280   57.8430   30.5600 C   0  0  0  0  0  0  0  0  0  0  0  0
   63.4050   58.8580   30.6760 N   0  0  0  0  0  0  0  0  0  0  0  0
   63.4320   59.4570   31.5140 H   0  0  0  0  0  0  0  0  0  0  0  0
   61.4190   58.7280   27.5530 C   0  0  0  0  0  0  0  0  0  0  0  0
   60.6470   59.7670   27.9710 N   0  0  0  0  0  0  0  0  0  0  0  0
   59.5710   60.1890   27.2860 C   0  0  0  0  0  3  0  0  0  0  0  0
   59.1040   59.4700   26.1920 N   0  0  0  0  0  0  0  0  0  0  0  0
   59.7710   58.3300   25.8670 C   0  0  2  0  0  3  0  0  0  0  0  0
   59.3370   57.5380   24.8490 C   0  0  0  0  0  3  0  0  0  0  0  0
   59.9930   56.3350   24.5680 C   0  0  0  0  0  3  0  0  0  0  0  0
   61.0930   55.9360   25.3260 C   0  0  0  0  0  3  0  0  0  0  0  0
   61.5200   56.7600   26.3610 C   0  0  0  0  0  3  0  0  0  0  0  0
   60.8470   57.9250   26.5920 C   0  0  0  0  0  0  0  0  0  0  0  0
   58.2880   59.7870   25.6510 H   0  0  0  0  0  0  0  0  0  0  0  0
  1  2  1  0  0  0  0
  1 22  1  0  0  0  0
  2  3  1  0  0  0  0
  3  4  2  0  0  0  0
  5  4  1  0  0  0  0
  6  5  2  0  0  0  0
  7  2  2  0  0  0  0
  7  6  1  0  0  0  0
  8  6  1  0  0  0  0
  8  9  1  0  0  0  0
 10  9  2  0  0  0  0
 11 10  1  0  0  0  0
 12 13  2  0  0  0  0
 12 11  1  0  0  0  0
 14 12  1  0  0  0  0
 15 14  1  0  0  0  0
 15 17  2  0  0  0  0
 16 15  1  0  0  0  0
 17 18  1  0  0  0  0
 18 11  2  0  0  0  0
 18  8  1  0  0  0  0
 19 14  1  0  0  0  0
 20 16  1  0  0  0  0
 21 16  1  0  0  0  0
 23 28  1  0  0  0  0
 24 23  1  0  0  0  0
 25 24  2  0  0  0  0
 25 26  1  0  0  0  0
 26 27  2  0  0  0  0
 27 28  1  0  0  0  0
 27 22  1  0  0  0  0
 28 29  1  0  0  0  0
 30 31  1  0  0  0  0
 30 24  1  0  0  0  0
 32 31  2  0  0  0  0
 33 32  1  0  0  0  0
 34 35  1  1  0  0  0
 34 33  1  0  0  0  0
 34 39  1  0  0  0  0
 36 35  2  0  0  0  0
 36 37  1  0  0  0  0
 37 38  2  0  0  0  0
 38 39  1  0  0  0  0
 39 30  2  0  0  0  0
 40 33  1  0  0  0  0
M  END
>  <minimizedAffinity>
-7.47117472

$$$$

 OpenBabel03242509323D

 40 45  0  0  1  0  0  0  0  0999 V2000
   66.4330   58.3560   33.5110 C   0  0  0  0  0  2  0  0  0  0  0  0
   66.6330   59.8160   33.4730 C   0  0  0  0  0  0  0  0  0  0  0  0
   66.8780   60.4510   34.6840 C   0  0  0  0  0  3  0  0  0  0  0  0
   67.0720   61.8390   34.6800 C   0  0  0  0  0  3  0  0  0  0  0  0
   67.0180   62.5050   33.5240 N   0  0  0  0  0  0  0  0  0  0  0  0
   66.7810   61.8950   32.3420 C   0  0  0  0  0  0  0  0  0  0  0  0
   66.5960   60.5620   32.3650 N   0  0  0  0  0  0  0  0  0  0  0  0
   66.7290   62.6390   31.1270 N   0  0  0  0  0  0  0  0  0  0  0  0
   65.5890   63.2340   30.6890 C   0  0  0  0  0  3  0  0  0  0  0  0
   65.7730   63.8880   29.5140 N   0  0  0  0  0  0  0  0  0  0  0  0
   67.0700   63.7040   29.1930 C   0  0  0  0  0  0  0  0  0  0  0  0
   67.8770   64.1010   28.1420 C   0  0  0  0  0  0  0  0  0  0  0  0
   67.4030   64.8010   27.2070 O   0  0  0  0  0  0  0  0  0  0  0  0
   69.1680   63.7130   28.1640 N   0  0  0  0  0  0  0  0  0  0  0  0
   69.7310   62.9690   29.1300 C   0  0  0  0  0  0  0  0  0  0  0  0
   71.1120   62.6520   28.9880 N   0  0  0  0  0  0  0  0  0  0  0  0
   68.9590   62.5640   30.1760 N   0  0  0  0  0  0  0  0  0  0  0  0
   67.6480   62.9370   30.1880 C   0  0  0  0  0  0  0  0  0  0  0  0
   69.7680   64.0090   27.3800 H   0  0  0  0  0  0  0  0  0  0  0  0
   71.5870   62.0840   29.7050 H   0  0  0  0  0  0  0  0  0  0  0  0
   71.6370   62.9910   28.1700 H   0  0  0  0  0  0  0  0  0  0  0  0
   66.9770   57.6750   32.2540 C   0  0  0  0  0  2  0  0  0  0  0  0
   65.2970   57.2420   29.0050 C   0  0  0  0  0  2  0  0  0  0  0  0
   63.9830   57.4000   29.2800 C   0  0  0  0  0  0  0  0  0  0  0  0
   63.6770   57.6530   30.5920 C   0  0  0  0  0  3  0  0  0  0  0  0
   64.6700   57.7290   31.5070 N   0  0  0  0  0  0  0  0  0  0  0  0
   65.9370   57.5680   31.2030 C   0  0  0  0  0  0  0  0  0  0  0  0
   66.2730   57.3240   29.9580 N   0  0  0  0  0  0  0  0  0  0  0  0
   67.2620   57.1940   29.7030 H   0  0  0  0  0  0  0  0  0  0  0  0
   63.0310   57.3050   28.1700 C   0  0  0  0  0  0  0  0  0  0  0  0
   63.5240   56.5590   27.1440 N   0  0  0  0  0  0  0  0  0  0  0  0
   62.8880   56.4420   25.9670 C   0  0  0  0  0  3  0  0  0  0  0  0
   61.7670   57.2150   25.6890 N   0  0  0  0  0  0  0  0  0  0  0  0
   61.3640   58.0910   26.6470 C   0  0  2  0  0  3  0  0  0  0  0  0
   60.3130   58.9270   26.4250 C   0  0  0  0  0  3  0  0  0  0  0  0
   59.9500   59.8700   27.3940 C   0  0  0  0  0  3  0  0  0  0  0  0
   60.6590   59.9620   28.5900 C   0  0  0  0  0  3  0  0  0  0  0  0
   61.7280   59.0980   28.7960 C   0  0  0  0  0  3  0  0  0  0  0  0
   62.0400   58.1940   27.8210 C   0  0  0  0  0  0  0  0  0  0  0  0
   61.2630   57.1280   24.7950 H   0  0  0  0  0  0  0  0  0  0  0  0
  2  1  1  0  0  0  0
  2  3  1  0  0  0  0
  4  3  2  0  0  0  0
  5  4  1  0  0  0  0
  6  7  1  0  0  0  0
  6  5  2  0  0  0  0
  7  2  2  0  0  0  0
  8  6  1  0  0  0  0
  9  8  1  0  0  0  0
 10  9  2  0  0  0  0
 11 10  1  0  0  0  0
 11 18  2  0  0  0  0
 12 14  1  0  0  0  0
 12 11  1  0  0  0  0
 13 12  2  0  0  0  0
 14 15  1  0  0  0  0
 15 17  2  0  0  0  0
 16 15  1  0  0  0  0
 16 20  1  0  0  0  0
 17 18  1  0  0  0  0
 18  8  1  0  0  0  0
 19 14  1  0  0  0  0
 21 16  1  0  0  0  0
 22  1  1  0  0  0  0
 23 24  1  0  0  0  0
 23 28  1  0  0  0  0
 24 25  2  0  0  0  0
 25 26  1  0  0  0  0
 27 26  2  0  0  0  0
 27 22  1  0  0  0  0
 28 27  1  0  0  0  0
 29 28  1  0  0  0  0
 30 24  1  0  0  0  0
 31 30  1  0  0  0  0
 32 31  2  0  0  0  0
 33 32  1  0  0  0  0
 33 34  1  0  0  0  0
 34 35  1  6  0  0  0
 34 39  1  0  0  0  0
 35 36  2  0  0  0  0
 36 37  1  0  0  0  0
 37 38  2  0  0  0  0
 39 30  2  0  0  0  0
 39 38  1  0  0  0  0
 40 33  1  0  0  0  0
M  END
>  <minimizedAffinity>
-7.27019691

$$$$

 OpenBabel03242509323D

 40 45  0  0  1  0  0  0  0  0999 V2000
   67.9030   58.2970   31.8600 C   0  0  0  0  0  2  0  0  0  0  0  0
   68.1550   59.6800   32.3050 C   0  0  0  0  0  0  0  0  0  0  0  0
   69.3070   59.9020   33.0490 C   0  0  0  0  0  3  0  0  0  0  0  0
   69.5750   61.2060   33.4870 C   0  0  0  0  0  3  0  0  0  0  0  0
   68.7220   62.1880   33.1810 N   0  0  0  0  0  0  0  0  0  0  0  0
   67.6000   61.9790   32.4580 C   0  0  0  0  0  0  0  0  0  0  0  0
   67.3590   60.7210   32.0460 N   0  0  0  0  0  0  0  0  0  0  0  0
   66.7130   63.0520   32.1510 N   0  0  0  0  0  0  0  0  0  0  0  0
   65.7200   63.4360   32.9940 C   0  0  0  0  0  3  0  0  0  0  0  0
   65.0030   64.4770   32.4990 N   0  0  0  0  0  0  0  0  0  0  0  0
   65.5550   64.7640   31.3020 C   0  0  0  0  0  0  0  0  0  0  0  0
   65.3000   65.6950   30.3120 C   0  0  0  0  0  0  0  0  0  0  0  0
   64.3560   66.5210   30.4450 O   0  0  0  0  0  0  0  0  0  0  0  0
   66.0900   65.6800   29.2200 N   0  0  0  0  0  0  0  0  0  0  0  0
   67.1090   64.8270   29.0200 C   0  0  0  0  0  0  0  0  0  0  0  0
   67.8380   64.9560   27.8040 N   0  0  0  0  0  0  0  0  0  0  0  0
   67.3820   63.9010   29.9790 N   0  0  0  0  0  0  0  0  0  0  0  0
   66.6040   63.8860   31.0980 C   0  0  0  0  0  0  0  0  0  0  0  0
   65.8980   66.3740   28.4830 H   0  0  0  0  0  0  0  0  0  0  0  0
   68.6270   64.3240   27.6070 H   0  0  0  0  0  0  0  0  0  0  0  0
   67.5760   65.6810   27.1210 H   0  0  0  0  0  0  0  0  0  0  0  0
   66.5660   57.7670   32.3800 C   0  0  0  0  0  2  0  0  0  0  0  0
   64.7870   57.0810   29.2280 C   0  0  0  0  0  2  0  0  0  0  0  0
   63.6210   57.7540   29.3440 C   0  0  0  0  0  0  0  0  0  0  0  0
   63.4470   58.4440   30.5170 C   0  0  0  0  0  3  0  0  0  0  0  0
   64.4180   58.4150   31.4580 N   0  0  0  0  0  0  0  0  0  0  0  0
   65.5390   57.7480   31.3110 C   0  0  0  0  0  0  0  0  0  0  0  0
   65.7440   57.0740   30.2040 N   0  0  0  0  0  0  0  0  0  0  0  0
   66.6180   56.5450   30.0720 H   0  0  0  0  0  0  0  0  0  0  0  0
   62.6790   57.6990   28.2230 C   0  0  0  0  0  0  0  0  0  0  0  0
   63.1790   56.9860   27.1770 N   0  0  0  0  0  0  0  0  0  0  0  0
   62.5540   56.9090   25.9910 C   0  0  0  0  0  3  0  0  0  0  0  0
   61.4380   57.6950   25.7290 N   0  0  0  0  0  0  0  0  0  0  0  0
   61.0280   58.5400   26.7120 C   0  0  2  0  0  3  0  0  0  0  0  0
   59.9820   59.3870   26.5080 C   0  0  0  0  0  3  0  0  0  0  0  0
   59.6140   60.2980   27.5040 C   0  0  0  0  0  3  0  0  0  0  0  0
   60.3120   60.3480   28.7090 C   0  0  0  0  0  3  0  0  0  0  0  0
   61.3760   59.4740   28.8960 C   0  0  0  0  0  3  0  0  0  0  0  0
   61.6940   58.6030   27.8950 C   0  0  0  0  0  0  0  0  0  0  0  0
   60.9420   57.6390   24.8280 H   0  0  0  0  0  0  0  0  0  0  0  0
  1  2  1  0  0  0  0
  1 22  1  0  0  0  0
  2  3  1  0  0  0  0
  3  4  2  0  0  0  0
  5  4  1  0  0  0  0
  6  5  2  0  0  0  0
  7  2  2  0  0  0  0
  7  6  1  0  0  0  0
  8  6  1  0  0  0  0
  8  9  1  0  0  0  0
 10  9  2  0  0  0  0
 11 10  1  0  0  0  0
 12 13  2  0  0  0  0
 12 11  1  0  0  0  0
 14 12  1  0  0  0  0
 15 14  1  0  0  0  0
 15 17  2  0  0  0  0
 16 15  1  0  0  0  0
 17 18  1  0  0  0  0
 18 11  2  0  0  0  0
 18  8  1  0  0  0  0
 19 14  1  0  0  0  0
 20 16  1  0  0  0  0
 21 16  1  0  0  0  0
 23 24  1  0  0  0  0
 23 28  1  0  0  0  0
 24 25  2  0  0  0  0
 25 26  1  0  0  0  0
 27 26  2  0  0  0  0
 27 22  1  0  0  0  0
 28 27  1  0  0  0  0
 29 28  1  0  0  0  0
 30 24  1  0  0  0  0
 31 30  1  0  0  0  0
 32 31  2  0  0  0  0
 33 32  1  0  0  0  0
 33 34  1  0  0  0  0
 34 35  1  6  0  0  0
 34 39  1  0  0  0  0
 35 36  2  0  0  0  0
 36 37  1  0  0  0  0
 37 38  2  0  0  0  0
 39 30  2  0  0  0  0
 39 38  1  0  0  0  0
 40 33  1  0  0  0  0
M  END
>  <minimizedAffinity>
-7.25847626

$$$$

 OpenBabel03242509323D

 40 45  0  0  1  0  0  0  0  0999 V2000
   67.7630   59.5970   31.5440 C   0  0  0  0  0  2  0  0  0  0  0  0
   67.5490   61.0160   31.2040 C   0  0  0  0  0  0  0  0  0  0  0  0
   68.4920   61.6150   30.3790 C   0  0  0  0  0  3  0  0  0  0  0  0
   68.3170   62.9630   30.0380 C   0  0  0  0  0  3  0  0  0  0  0  0
   67.2590   63.6270   30.5110 N   0  0  0  0  0  0  0  0  0  0  0  0
   66.3370   63.0500   31.3140 C   0  0  0  0  0  0  0  0  0  0  0  0
   66.5220   61.7560   31.6310 N   0  0  0  0  0  0  0  0  0  0  0  0
   65.2200   63.7910   31.8000 N   0  0  0  0  0  0  0  0  0  0  0  0
   65.2820   64.5350   32.9350 C   0  0  0  0  0  3  0  0  0  0  0  0
   64.1050   65.1530   33.2050 N   0  0  0  0  0  0  0  0  0  0  0  0
   63.2660   64.7920   32.2130 C   0  0  0  0  0  0  0  0  0  0  0  0
   61.9470   65.0700   31.9050 C   0  0  0  0  0  0  0  0  0  0  0  0
   61.2660   65.8250   32.6520 O   0  0  0  0  0  0  0  0  0  0  0  0
   61.4320   64.5090   30.7930 N   0  0  0  0  0  0  0  0  0  0  0  0
   62.1040   63.6980   29.9600 C   0  0  0  0  0  0  0  0  0  0  0  0
   61.3990   63.1930   28.8300 N   0  0  0  0  0  0  0  0  0  0  0  0
   63.4040   63.4070   30.2390 N   0  0  0  0  0  0  0  0  0  0  0  0
   63.9600   63.9570   31.3560 C   0  0  0  0  0  0  0  0  0  0  0  0
   60.4490   64.7170   30.5660 H   0  0  0  0  0  0  0  0  0  0  0  0
   61.8730   62.5680   28.1630 H   0  0  0  0  0  0  0  0  0  0  0  0
   60.4140   63.4540   28.6790 H   0  0  0  0  0  0  0  0  0  0  0  0
   66.5090   58.9630   32.1480 C   0  0  0  0  0  2  0  0  0  0  0  0
   65.0200   57.3640   29.1830 C   0  0  0  0  0  2  0  0  0  0  0  0
   63.7510   57.8270   29.1500 C   0  0  0  0  0  0  0  0  0  0  0  0
   63.4070   58.6920   30.1580 C   0  0  0  0  0  3  0  0  0  0  0  0
   64.3250   59.0220   31.0950 N   0  0  0  0  0  0  0  0  0  0  0  0
   65.5500   58.5510   31.0950 C   0  0  0  0  0  0  0  0  0  0  0  0
   65.9190   57.7200   30.1490 N   0  0  0  0  0  0  0  0  0  0  0  0
   66.8760   57.3400   30.1350 H   0  0  0  0  0  0  0  0  0  0  0  0
   62.8840   57.3850   28.0540 C   0  0  0  0  0  0  0  0  0  0  0  0
   63.4980   56.4620   27.2650 N   0  0  0  0  0  0  0  0  0  0  0  0
   62.9520   56.0100   26.1240 C   0  0  0  0  0  3  0  0  0  0  0  0
   61.7980   56.5920   25.6150 N   0  0  0  0  0  0  0  0  0  0  0  0
   61.2670   57.6330   26.3100 C   0  0  2  0  0  3  0  0  0  0  0  0
   60.1740   58.2950   25.8420 C   0  0  0  0  0  3  0  0  0  0  0  0
   59.6790   59.4070   26.5330 C   0  0  0  0  0  3  0  0  0  0  0  0
   60.2980   59.8450   27.7020 C   0  0  0  0  0  3  0  0  0  0  0  0
   61.4120   59.1530   28.1630 C   0  0  0  0  0  3  0  0  0  0  0  0
   61.8540   58.0740   27.4530 C   0  0  0  0  0  0  0  0  0  0  0  0
   61.3620   56.2490   24.7470 H   0  0  0  0  0  0  0  0  0  0  0  0
  1 22  1  0  0  0  0
  2  1  1  0  0  0  0
  2  7  2  0  0  0  0
  3  2  1  0  0  0  0
  4  3  2  0  0  0  0
  4  5  1  0  0  0  0
  5  6  2  0  0  0  0
  6  7  1  0  0  0  0
  6  8  1  0  0  0  0
  8  9  1  0  0  0  0
  9 10  2  0  0  0  0
 11 10  1  0  0  0  0
 12 11  1  0  0  0  0
 12 13  2  0  0  0  0
 14 12  1  0  0  0  0
 15 17  2  0  0  0  0
 15 14  1  0  0  0  0
 16 15  1  0  0  0  0
 17 18  1  0  0  0  0
 18  8  1  0  0  0  0
 18 11  2  0  0  0  0
 19 14  1  0  0  0  0
 20 16  1  0  0  0  0
 21 16  1  0  0  0  0
 23 28  1  0  0  0  0
 24 23  1  0  0  0  0
 24 25  2  0  0  0  0
 25 26  1  0  0  0  0
 27 26  2  0  0  0  0
 27 22  1  0  0  0  0
 28 27  1  0  0  0  0
 29 28  1  0  0  0  0
 30 24  1  0  0  0  0
 31 30  1  0  0  0  0
 32 31  2  0  0  0  0
 33 32  1  0  0  0  0
 33 34  1  0  0  0  0
 34 35  1  6  0  0  0
 34 39  1  0  0  0  0
 35 36  2  0  0  0  0
 36 37  1  0  0  0  0
 37 38  2  0  0  0  0
 39 30  2  0  0  0  0
 39 38  1  0  0  0  0
 40 33  1  0  0  0  0
M  END
>  <minimizedAffinity>
-7.24752045

$$$$
