
 OpenBabel03242509283D

 36 41  0  0  0  0  0  0  0  0999 V2000
   62.8090   57.1010   27.6200 C   0  0  0  0  0  0  0  0  0  0  0  0
   62.5950   55.8910   27.0470 N   0  0  0  0  0  0  0  0  0  0  0  0
   61.7150   56.0100   26.0790 O   0  0  0  0  0  0  0  0  0  0  0  0
   61.3380   57.2770   25.9970 C   0  0  0  0  0  0  0  0  0  0  0  0
   62.0160   57.9580   26.9510 N   0  0  0  0  0  0  0  0  0  0  0  0
   60.4240   57.9550   25.1420 N   0  0  0  0  0  0  0  0  0  0  0  0
   59.7500   57.6560   24.0230 C   0  0  0  0  0  3  0  0  0  0  0  0
   59.0060   58.7220   23.6420 N   0  0  0  0  0  0  0  0  0  0  0  0
   59.2250   59.6970   24.5430 C   0  0  0  0  0  0  0  0  0  0  0  0
   58.6900   60.9630   24.5750 C   0  0  0  0  0  0  0  0  0  0  0  0
   57.8760   61.4210   23.7250 O   0  0  0  0  0  0  0  0  0  0  0  0
   59.0270   61.8150   25.5650 N   0  0  0  0  0  0  0  0  0  0  0  0
   59.8940   61.3510   26.4850 C   0  0  0  0  0  0  0  0  0  0  0  0
   60.3700   62.0980   27.6030 N   0  0  0  0  0  0  0  0  0  0  0  0
   60.4080   60.1260   26.4480 N   0  0  0  0  0  0  0  0  0  0  0  0
   60.1060   59.2190   25.4750 C   0  0  0  0  0  0  0  0  0  0  0  0
   58.6420   62.7680   25.6140 H   0  0  0  0  0  0  0  0  0  0  0  0
   61.0350   61.6700   28.2630 H   0  0  0  0  0  0  0  0  0  0  0  0
   60.0490   63.0660   27.7500 H   0  0  0  0  0  0  0  0  0  0  0  0
   65.7050   57.2850   29.8530 C   0  0  0  0  0  3  0  0  0  0  0  0
   65.2320   58.1720   30.8430 C   0  0  0  0  0  0  0  0  0  0  0  0
   63.9380   58.6730   30.7050 C   0  0  0  0  0  3  0  0  0  0  0  0
   63.1930   58.2910   29.6370 N   0  0  0  0  0  0  0  0  0  0  0  0
   63.7000   57.4400   28.7230 C   0  0  0  0  0  0  0  0  0  0  0  0
   64.9240   56.9560   28.8380 N   0  0  0  0  0  0  0  0  0  0  0  0
   66.1260   58.5160   31.9540 C   0  0  0  0  0  0  0  0  0  0  0  0
   66.1210   59.8220   32.4980 C   0  0  0  0  0  3  0  0  0  0  0  0
   67.3990   59.7310   33.8390 S   0  0  0  0  0  0  0  0  0  0  0  0
   67.7090   57.9220   33.4090 C   0  0  0  0  0  0  0  0  0  0  0  0
   67.0010   57.7550   32.5750 N   0  0  0  0  0  0  0  0  0  0  0  0
   68.6570   57.0510   34.0620 N   0  0  0  0  0  0  0  0  0  0  0  0
   69.4380   57.4500   35.1910 C   0  0  0  0  0  2  0  0  0  0  0  0
   70.5470   56.4220   35.3360 C   0  0  0  0  0  2  0  0  0  0  0  0
   70.0670   55.1360   35.5170 O   0  0  0  0  0  0  0  0  0  0  0  0
   68.9920   54.7950   34.7450 C   0  0  0  0  0  2  0  0  0  0  0  0
   68.8240   55.7100   33.5510 C   0  0  0  0  0  2  0  0  0  0  0  0
  1 24  1  0  0  0  0
  2  1  2  0  0  0  0
  3  2  1  0  0  0  0
  4  3  1  0  0  0  0
  4  5  2  0  0  0  0
  5  1  1  0  0  0  0
  6 16  1  0  0  0  0
  6  4  1  0  0  0  0
  7  6  1  0  0  0  0
  8  7  2  0  0  0  0
  8  9  1  0  0  0  0
  9 10  1  0  0  0  0
  9 16  2  0  0  0  0
 10 12  1  0  0  0  0
 11 10  2  0  0  0  0
 12 17  1  0  0  0  0
 12 13  1  0  0  0  0
 13 14  1  0  0  0  0
 14 19  1  0  0  0  0
 14 18  1  0  0  0  0
 15 13  2  0  0  0  0
 16 15  1  0  0  0  0
 20 21  1  0  0  0  0
 21 26  1  0  0  0  0
 22 21  2  0  0  0  0
 23 22  1  0  0  0  0
 24 25  1  0  0  0  0
 24 23  2  0  0  0  0
 25 20  2  0  0  0  0
 26 27  2  0  0  0  0
 26 30  1  0  0  0  0
 27 28  1  0  0  0  0
 29 28  1  0  0  0  0
 29 31  1  0  0  0  0
 30 29  2  0  0  0  0
 31 32  1  0  0  0  0
 32 33  1  0  0  0  0
 33 34  1  0  0  0  0
 35 34  1  0  0  0  0
 36 31  1  0  0  0  0
 36 35  1  0  0  0  0
M  END
>  <minimizedAffinity>
-7.89734745

$$$$

 OpenBabel03242509283D

 36 41  0  0  0  0  0  0  0  0999 V2000
   63.2190   57.3350   28.8400 C   0  0  0  0  0  0  0  0  0  0  0  0
   62.9580   56.1910   28.1620 N   0  0  0  0  0  0  0  0  0  0  0  0
   62.0910   56.4300   27.2050 O   0  0  0  0  0  0  0  0  0  0  0  0
   61.7690   57.7150   27.2330 C   0  0  0  0  0  0  0  0  0  0  0  0
   62.4670   58.2810   28.2460 N   0  0  0  0  0  0  0  0  0  0  0  0
   60.8900   58.5030   26.4380 N   0  0  0  0  0  0  0  0  0  0  0  0
   60.2120   58.3330   25.2950 C   0  0  0  0  0  3  0  0  0  0  0  0
   59.5170   59.4590   25.0060 N   0  0  0  0  0  0  0  0  0  0  0  0
   59.7690   60.3410   25.9900 C   0  0  0  0  0  0  0  0  0  0  0  0
   59.2880   61.6200   26.1320 C   0  0  0  0  0  0  0  0  0  0  0  0
   58.5000   62.1860   25.3220 O   0  0  0  0  0  0  0  0  0  0  0  0
   59.6530   62.3670   27.1940 N   0  0  0  0  0  0  0  0  0  0  0  0
   60.4930   61.7880   28.0730 C   0  0  0  0  0  0  0  0  0  0  0  0
   60.9920   62.4140   29.2540 N   0  0  0  0  0  0  0  0  0  0  0  0
   60.9560   60.5500   27.9300 N   0  0  0  0  0  0  0  0  0  0  0  0
   60.6230   59.7460   26.8790 C   0  0  0  0  0  0  0  0  0  0  0  0
   59.3080   63.3290   27.3250 H   0  0  0  0  0  0  0  0  0  0  0  0
   61.6330   61.9010   29.8760 H   0  0  0  0  0  0  0  0  0  0  0  0
   60.7110   63.3770   29.4840 H   0  0  0  0  0  0  0  0  0  0  0  0
   64.5880   58.3160   32.0900 C   0  0  0  0  0  3  0  0  0  0  0  0
   65.9100   57.8360   31.9880 C   0  0  0  0  0  0  0  0  0  0  0  0
   66.2800   57.1930   30.8070 C   0  0  0  0  0  3  0  0  0  0  0  0
   65.3650   57.0580   29.8150 N   0  0  0  0  0  0  0  0  0  0  0  0
   64.1150   57.5380   29.9720 C   0  0  0  0  0  0  0  0  0  0  0  0
   63.7480   58.1490   31.0830 N   0  0  0  0  0  0  0  0  0  0  0  0
   66.8150   58.0380   33.1250 C   0  0  0  0  0  0  0  0  0  0  0  0
   66.3750   58.7360   34.2740 C   0  0  0  0  0  3  0  0  0  0  0  0
   67.8620   58.7150   35.3820 S   0  0  0  0  0  0  0  0  0  0  0  0
   68.8160   57.7560   34.0700 C   0  0  0  0  0  0  0  0  0  0  0  0
   68.0640   57.6520   33.2630 N   0  0  0  0  0  0  0  0  0  0  0  0
   70.1850   57.3120   34.1780 N   0  0  0  0  0  0  0  0  0  0  0  0
   70.9730   57.4890   35.3580 C   0  0  0  0  0  2  0  0  0  0  0  0
   72.4180   57.2450   34.9550 C   0  0  0  0  0  2  0  0  0  0  0  0
   72.6230   55.9820   34.4270 O   0  0  0  0  0  0  0  0  0  0  0  0
   71.6500   55.5340   33.5780 C   0  0  0  0  0  2  0  0  0  0  0  0
   70.7880   56.6580   33.0410 C   0  0  0  0  0  2  0  0  0  0  0  0
  1 24  1  0  0  0  0
  2  1  2  0  0  0  0
  3  4  1  0  0  0  0
  3  2  1  0  0  0  0
  4  5  2  0  0  0  0
  5  1  1  0  0  0  0
  6 16  1  0  0  0  0
  6  4  1  0  0  0  0
  7  6  1  0  0  0  0
  8  7  2  0  0  0  0
  8  9  1  0  0  0  0
  9 10  1  0  0  0  0
  9 16  2  0  0  0  0
 10 12  1  0  0  0  0
 11 10  2  0  0  0  0
 12 17  1  0  0  0  0
 12 13  1  0  0  0  0
 13 14  1  0  0  0  0
 14 19  1  0  0  0  0
 14 18  1  0  0  0  0
 15 13  2  0  0  0  0
 16 15  1  0  0  0  0
 21 20  1  0  0  0  0
 21 26  1  0  0  0  0
 22 21  2  0  0  0  0
 23 24  2  0  0  0  0
 23 22  1  0  0  0  0
 24 25  1  0  0  0  0
 25 20  2  0  0  0  0
 26 30  1  0  0  0  0
 26 27  2  0  0  0  0
 27 28  1  0  0  0  0
 29 31  1  0  0  0  0
 29 28  1  0  0  0  0
 30 29  2  0  0  0  0
 31 32  1  0  0  0  0
 33 32  1  0  0  0  0
 34 33  1  0  0  0  0
 35 34  1  0  0  0  0
 36 35  1  0  0  0  0
 36 31  1  0  0  0  0
M  END
>  <minimizedAffinity>
-7.3179965

$$$$

 OpenBabel03242509283D

 36 41  0  0  0  0  0  0  0  0999 V2000
   66.2870   59.4000   32.1400 C   0  0  0  0  0  0  0  0  0  0  0  0
   66.1540   60.5890   32.7770 N   0  0  0  0  0  0  0  0  0  0  0  0
   67.1400   60.7480   33.6290 O   0  0  0  0  0  0  0  0  0  0  0  0
   67.9300   59.6850   33.5710 C   0  0  0  0  0  0  0  0  0  0  0  0
   67.4040   58.8460   32.6470 N   0  0  0  0  0  0  0  0  0  0  0  0
   69.1230   59.3350   34.2640 N   0  0  0  0  0  0  0  0  0  0  0  0
   69.9890   59.9650   35.0690 C   0  0  0  0  0  3  0  0  0  0  0  0
   70.9690   59.1080   35.4420 N   0  0  0  0  0  0  0  0  0  0  0  0
   70.7020   57.9260   34.8570 C   0  0  0  0  0  0  0  0  0  0  0  0
   71.4150   56.7530   34.9410 C   0  0  0  0  0  0  0  0  0  0  0  0
   72.4750   56.6030   35.6110 O   0  0  0  0  0  0  0  0  0  0  0  0
   70.9940   55.6560   34.2790 N   0  0  0  0  0  0  0  0  0  0  0  0
   69.8650   55.7890   33.5560 C   0  0  0  0  0  0  0  0  0  0  0  0
   69.2630   54.7480   32.7900 N   0  0  0  0  0  0  0  0  0  0  0  0
   69.1810   56.9260   33.4790 N   0  0  0  0  0  0  0  0  0  0  0  0
   69.5550   58.0680   34.1240 C   0  0  0  0  0  0  0  0  0  0  0  0
   71.5070   54.7650   34.3240 H   0  0  0  0  0  0  0  0  0  0  0  0
   68.3970   54.9320   32.2630 H   0  0  0  0  0  0  0  0  0  0  0  0
   69.6940   53.8130   32.7640 H   0  0  0  0  0  0  0  0  0  0  0  0
   64.9590   57.2420   29.4970 C   0  0  0  0  0  3  0  0  0  0  0  0
   63.7100   57.8500   29.2480 C   0  0  0  0  0  0  0  0  0  0  0  0
   63.3730   58.9760   29.9980 C   0  0  0  0  0  3  0  0  0  0  0  0
   64.2490   59.4380   30.9250 N   0  0  0  0  0  0  0  0  0  0  0  0
   65.4270   58.8140   31.1180 C   0  0  0  0  0  0  0  0  0  0  0  0
   65.7630   57.7470   30.4170 N   0  0  0  0  0  0  0  0  0  0  0  0
   62.8420   57.2630   28.2210 C   0  0  0  0  0  0  0  0  0  0  0  0
   62.6710   55.8610   28.1460 C   0  0  0  0  0  3  0  0  0  0  0  0
   61.5110   55.6490   26.7130 S   0  0  0  0  0  0  0  0  0  0  0  0
   61.4750   57.5180   26.4770 C   0  0  0  0  0  0  0  0  0  0  0  0
   62.1470   57.8690   27.2840 N   0  0  0  0  0  0  0  0  0  0  0  0
   60.7280   58.2260   25.4650 N   0  0  0  0  0  0  0  0  0  0  0  0
   59.8450   57.5760   24.5470 C   0  0  0  0  0  2  0  0  0  0  0  0
   59.5600   58.5760   23.4380 C   0  0  0  0  0  2  0  0  0  0  0  0
   58.9880   59.7470   23.9050 O   0  0  0  0  0  0  0  0  0  0  0  0
   59.5110   60.2330   25.0710 C   0  0  0  0  0  2  0  0  0  0  0  0
   60.8780   59.6590   25.3750 C   0  0  0  0  0  2  0  0  0  0  0  0
  1  5  1  0  0  0  0
  1  2  2  0  0  0  0
  2  3  1  0  0  0  0
  4  3  1  0  0  0  0
  4  6  1  0  0  0  0
  5  4  2  0  0  0  0
  6  7  1  0  0  0  0
  7  8  2  0  0  0  0
  9 10  1  0  0  0  0
  9  8  1  0  0  0  0
 10 11  2  0  0  0  0
 12 17  1  0  0  0  0
 12 10  1  0  0  0  0
 13 12  1  0  0  0  0
 14 13  1  0  0  0  0
 15 13  2  0  0  0  0
 15 16  1  0  0  0  0
 16  6  1  0  0  0  0
 16  9  2  0  0  0  0
 18 14  1  0  0  0  0
 19 14  1  0  0  0  0
 20 25  2  0  0  0  0
 21 20  1  0  0  0  0
 21 22  2  0  0  0  0
 22 23  1  0  0  0  0
 23 24  2  0  0  0  0
 24  1  1  0  0  0  0
 25 24  1  0  0  0  0
 26 21  1  0  0  0  0
 27 26  2  0  0  0  0
 28 27  1  0  0  0  0
 29 28  1  0  0  0  0
 29 30  2  0  0  0  0
 30 26  1  0  0  0  0
 31 29  1  0  0  0  0
 32 31  1  0  0  0  0
 33 34  1  0  0  0  0
 33 32  1  0  0  0  0
 34 35  1  0  0  0  0
 35 36  1  0  0  0  0
 36 31  1  0  0  0  0
M  END
>  <minimizedAffinity>
-7.1596899

$$$$

 OpenBabel03242509283D

 36 41  0  0  0  0  0  0  0  0999 V2000
   62.7300   57.1950   27.6730 C   0  0  0  0  0  0  0  0  0  0  0  0
   62.4780   55.9850   27.1180 N   0  0  0  0  0  0  0  0  0  0  0  0
   61.5920   56.1150   26.1570 O   0  0  0  0  0  0  0  0  0  0  0  0
   61.2480   57.3900   26.0620 C   0  0  0  0  0  0  0  0  0  0  0  0
   61.9530   58.0650   27.0010 N   0  0  0  0  0  0  0  0  0  0  0  0
   60.3430   58.0820   25.2070 N   0  0  0  0  0  0  0  0  0  0  0  0
   59.6510   57.7880   24.0990 C   0  0  0  0  0  3  0  0  0  0  0  0
   58.9320   58.8680   23.7120 N   0  0  0  0  0  0  0  0  0  0  0  0
   59.1850   59.8480   24.5990 C   0  0  0  0  0  0  0  0  0  0  0  0
   58.6840   61.1280   24.6200 C   0  0  0  0  0  0  0  0  0  0  0  0
   57.8740   61.5980   23.7720 O   0  0  0  0  0  0  0  0  0  0  0  0
   59.0540   61.9830   25.5960 N   0  0  0  0  0  0  0  0  0  0  0  0
   59.9180   61.5080   26.5140 C   0  0  0  0  0  0  0  0  0  0  0  0
   60.4250   62.2560   27.6170 N   0  0  0  0  0  0  0  0  0  0  0  0
   60.3980   60.2690   26.4860 N   0  0  0  0  0  0  0  0  0  0  0  0
   60.0630   59.3580   25.5280 C   0  0  0  0  0  0  0  0  0  0  0  0
   58.6950   62.9470   25.6370 H   0  0  0  0  0  0  0  0  0  0  0  0
   61.0840   61.8180   28.2760 H   0  0  0  0  0  0  0  0  0  0  0  0
   60.1310   63.2330   27.7550 H   0  0  0  0  0  0  0  0  0  0  0  0
   65.6740   57.3810   29.8400 C   0  0  0  0  0  3  0  0  0  0  0  0
   65.2090   58.2320   30.8640 C   0  0  0  0  0  0  0  0  0  0  0  0
   63.9020   58.7100   30.7700 C   0  0  0  0  0  3  0  0  0  0  0  0
   63.1390   58.3400   29.7110 N   0  0  0  0  0  0  0  0  0  0  0  0
   63.6410   57.5240   28.7630 C   0  0  0  0  0  0  0  0  0  0  0  0
   64.8760   57.0620   28.8360 N   0  0  0  0  0  0  0  0  0  0  0  0
   66.1220   58.5660   31.9630 C   0  0  0  0  0  0  0  0  0  0  0  0
   65.7920   58.2250   33.2960 C   0  0  0  0  0  3  0  0  0  0  0  0
   67.2410   58.8540   34.2680 S   0  0  0  0  0  0  0  0  0  0  0  0
   68.0330   59.4710   32.6730 C   0  0  0  0  0  0  0  0  0  0  0  0
   67.2840   59.1790   31.9120 N   0  0  0  0  0  0  0  0  0  0  0  0
   69.3040   60.1470   32.5690 N   0  0  0  0  0  0  0  0  0  0  0  0
   70.1680   60.3650   33.6880 C   0  0  0  0  0  2  0  0  0  0  0  0
   71.1840   61.4080   33.2530 C   0  0  0  0  0  2  0  0  0  0  0  0
   71.9210   61.0120   32.1500 O   0  0  0  0  0  0  0  0  0  0  0  0
   71.2150   60.3760   31.1680 C   0  0  0  0  0  2  0  0  0  0  0  0
   69.7250   60.6250   31.2730 C   0  0  0  0  0  2  0  0  0  0  0  0
  1 24  1  0  0  0  0
  2  1  2  0  0  0  0
  3  2  1  0  0  0  0
  4  3  1  0  0  0  0
  4  5  2  0  0  0  0
  5  1  1  0  0  0  0
  6 16  1  0  0  0  0
  6  4  1  0  0  0  0
  7  6  1  0  0  0  0
  8  7  2  0  0  0  0
  8  9  1  0  0  0  0
  9 10  1  0  0  0  0
  9 16  2  0  0  0  0
 10 12  1  0  0  0  0
 11 10  2  0  0  0  0
 12 17  1  0  0  0  0
 12 13  1  0  0  0  0
 13 14  1  0  0  0  0
 14 19  1  0  0  0  0
 14 18  1  0  0  0  0
 15 13  2  0  0  0  0
 16 15  1  0  0  0  0
 20 21  1  0  0  0  0
 21 26  1  0  0  0  0
 22 21  2  0  0  0  0
 23 22  1  0  0  0  0
 24 25  1  0  0  0  0
 24 23  2  0  0  0  0
 25 20  2  0  0  0  0
 26 27  2  0  0  0  0
 27 28  1  0  0  0  0
 29 28  1  0  0  0  0
 30 26  1  0  0  0  0
 30 29  2  0  0  0  0
 31 29  1  0  0  0  0
 31 32  1  0  0  0  0
 33 32  1  0  0  0  0
 34 33  1  0  0  0  0
 35 36  1  0  0  0  0
 35 34  1  0  0  0  0
 36 31  1  0  0  0  0
M  END
>  <minimizedAffinity>
-7.09077501

$$$$

 OpenBabel03242509283D

 36 41  0  0  0  0  0  0  0  0999 V2000
   60.8230   62.1420   28.2710 C   0  0  0  0  0  0  0  0  0  0  0  0
   60.1500   62.4320   27.1310 N   0  0  0  0  0  0  0  0  0  0  0  0
   60.0020   61.3420   26.4140 O   0  0  0  0  0  0  0  0  0  0  0  0
   60.5640   60.3280   27.0560 C   0  0  0  0  0  0  0  0  0  0  0  0
   61.0750   60.8210   28.2100 N   0  0  0  0  0  0  0  0  0  0  0  0
   60.6950   58.9460   26.7440 N   0  0  0  0  0  0  0  0  0  0  0  0
   60.1810   58.1130   25.8290 C   0  0  0  0  0  3  0  0  0  0  0  0
   60.6810   56.8680   26.0160 N   0  0  0  0  0  0  0  0  0  0  0  0
   61.5190   56.9340   27.0670 C   0  0  0  0  0  0  0  0  0  0  0  0
   62.2610   55.9230   27.6300 C   0  0  0  0  0  0  0  0  0  0  0  0
   62.2660   54.7250   27.2270 O   0  0  0  0  0  0  0  0  0  0  0  0
   63.0550   56.1760   28.6900 N   0  0  0  0  0  0  0  0  0  0  0  0
   63.0680   57.4450   29.1400 C   0  0  0  0  0  0  0  0  0  0  0  0
   63.8400   57.9080   30.2460 N   0  0  0  0  0  0  0  0  0  0  0  0
   62.3480   58.4180   28.5910 N   0  0  0  0  0  0  0  0  0  0  0  0
   61.5270   58.2260   27.5180 C   0  0  0  0  0  0  0  0  0  0  0  0
   63.6210   55.4380   29.1320 H   0  0  0  0  0  0  0  0  0  0  0  0
   63.7930   58.8980   30.5270 H   0  0  0  0  0  0  0  0  0  0  0  0
   64.4440   57.2530   30.7620 H   0  0  0  0  0  0  0  0  0  0  0  0
   60.7180   64.4320   31.1250 C   0  0  0  0  0  3  0  0  0  0  0  0
   62.0910   64.6850   31.3240 C   0  0  0  0  0  0  0  0  0  0  0  0
   63.0000   64.0600   30.4710 C   0  0  0  0  0  3  0  0  0  0  0  0
   62.5320   63.2420   29.4950 N   0  0  0  0  0  0  0  0  0  0  0  0
   61.2080   63.0390   29.3540 C   0  0  0  0  0  0  0  0  0  0  0  0
   60.3330   63.6230   30.1520 N   0  0  0  0  0  0  0  0  0  0  0  0
   62.4830   65.5870   32.4130 C   0  0  0  0  0  0  0  0  0  0  0  0
   63.7660   66.1830   32.4220 C   0  0  0  0  0  3  0  0  0  0  0  0
   63.7520   67.2020   33.9730 S   0  0  0  0  0  0  0  0  0  0  0  0
   61.9930   66.6250   34.3260 C   0  0  0  0  0  0  0  0  0  0  0  0
   61.7870   65.9600   33.4650 N   0  0  0  0  0  0  0  0  0  0  0  0
   61.1940   67.0080   35.4650 N   0  0  0  0  0  0  0  0  0  0  0  0
   61.6290   67.9540   36.4440 C   0  0  0  0  0  2  0  0  0  0  0  0
   60.7030   67.7990   37.6390 C   0  0  0  0  0  2  0  0  0  0  0  0
   59.3730   68.0180   37.3200 O   0  0  0  0  0  0  0  0  0  0  0  0
   58.9580   67.4870   36.1300 C   0  0  0  0  0  2  0  0  0  0  0  0
   59.8900   66.4060   35.6230 C   0  0  0  0  0  2  0  0  0  0  0  0
  1 24  1  0  0  0  0
  2  1  2  0  0  0  0
  3  4  1  0  0  0  0
  3  2  1  0  0  0  0
  4  5  2  0  0  0  0
  5  1  1  0  0  0  0
  6  4  1  0  0  0  0
  6 16  1  0  0  0  0
  7  8  2  0  0  0  0
  7  6  1  0  0  0  0
  8  9  1  0  0  0  0
  9 16  2  0  0  0  0
  9 10  1  0  0  0  0
 10 12  1  0  0  0  0
 11 10  2  0  0  0  0
 12 17  1  0  0  0  0
 12 13  1  0  0  0  0
 13 14  1  0  0  0  0
 14 18  1  0  0  0  0
 14 19  1  0  0  0  0
 15 13  2  0  0  0  0
 16 15  1  0  0  0  0
 20 21  1  0  0  0  0
 21 26  1  0  0  0  0
 22 21  2  0  0  0  0
 23 22  1  0  0  0  0
 24 23  2  0  0  0  0
 24 25  1  0  0  0  0
 25 20  2  0  0  0  0
 26 27  2  0  0  0  0
 26 30  1  0  0  0  0
 27 28  1  0  0  0  0
 28 29  1  0  0  0  0
 29 31  1  0  0  0  0
 30 29  2  0  0  0  0
 31 36  1  0  0  0  0
 31 32  1  0  0  0  0
 32 33  1  0  0  0  0
 34 33  1  0  0  0  0
 35 34  1  0  0  0  0
 36 35  1  0  0  0  0
M  END
>  <minimizedAffinity>
-6.86961651

$$$$

 OpenBabel03242509283D

 36 41  0  0  0  0  0  0  0  0999 V2000
   63.1320   57.2890   28.7180 C   0  0  0  0  0  0  0  0  0  0  0  0
   62.8210   56.1480   28.0560 N   0  0  0  0  0  0  0  0  0  0  0  0
   61.9290   56.4050   27.1270 O   0  0  0  0  0  0  0  0  0  0  0  0
   61.6390   57.6970   27.1580 C   0  0  0  0  0  0  0  0  0  0  0  0
   62.3840   58.2500   28.1450 N   0  0  0  0  0  0  0  0  0  0  0  0
   60.7530   58.5030   26.3890 N   0  0  0  0  0  0  0  0  0  0  0  0
   60.0330   58.3440   25.2700 C   0  0  0  0  0  3  0  0  0  0  0  0
   59.3560   59.4850   24.9990 N   0  0  0  0  0  0  0  0  0  0  0  0
   59.6640   60.3650   25.9690 C   0  0  0  0  0  0  0  0  0  0  0  0
   59.2180   61.6570   26.1200 C   0  0  0  0  0  0  0  0  0  0  0  0
   58.4180   62.2380   25.3340 O   0  0  0  0  0  0  0  0  0  0  0  0
   59.6370   62.3990   27.1650 N   0  0  0  0  0  0  0  0  0  0  0  0
   60.4920   61.8040   28.0190 C   0  0  0  0  0  0  0  0  0  0  0  0
   61.0460   62.4230   29.1780 N   0  0  0  0  0  0  0  0  0  0  0  0
   60.9190   60.5550   27.8670 N   0  0  0  0  0  0  0  0  0  0  0  0
   60.5320   59.7540   26.8320 C   0  0  0  0  0  0  0  0  0  0  0  0
   59.3210   63.3700   27.3020 H   0  0  0  0  0  0  0  0  0  0  0  0
   61.6940   61.8970   29.7820 H   0  0  0  0  0  0  0  0  0  0  0  0
   60.7960   63.3940   29.4130 H   0  0  0  0  0  0  0  0  0  0  0  0
   64.6200   58.2110   31.9330 C   0  0  0  0  0  3  0  0  0  0  0  0
   65.9420   57.7440   31.7680 C   0  0  0  0  0  0  0  0  0  0  0  0
   66.2700   57.1310   30.5600 C   0  0  0  0  0  3  0  0  0  0  0  0
   65.3170   57.0090   29.6020 N   0  0  0  0  0  0  0  0  0  0  0  0
   64.0710   57.4750   29.8180 C   0  0  0  0  0  0  0  0  0  0  0  0
   63.7430   58.0580   30.9560 N   0  0  0  0  0  0  0  0  0  0  0  0
   66.8890   57.9300   32.8730 C   0  0  0  0  0  0  0  0  0  0  0  0
   68.1180   57.2280   32.8870 C   0  0  0  0  0  3  0  0  0  0  0  0
   68.9200   57.8030   34.4580 S   0  0  0  0  0  0  0  0  0  0  0  0
   67.4260   58.8970   34.8100 C   0  0  0  0  0  0  0  0  0  0  0  0
   66.7760   58.6950   33.9370 N   0  0  0  0  0  0  0  0  0  0  0  0
   67.2590   59.7510   35.9620 N   0  0  0  0  0  0  0  0  0  0  0  0
   68.2700   59.9280   36.9570 C   0  0  0  0  0  2  0  0  0  0  0  0
   67.5910   60.5730   38.1540 C   0  0  0  0  0  2  0  0  0  0  0  0
   67.0030   61.7890   37.8480 O   0  0  0  0  0  0  0  0  0  0  0  0
   66.3460   61.8400   36.6500 C   0  0  0  0  0  2  0  0  0  0  0  0
   66.0120   60.4630   36.1150 C   0  0  0  0  0  2  0  0  0  0  0  0
  1 24  1  0  0  0  0
  2  1  2  0  0  0  0
  3  4  1  0  0  0  0
  3  2  1  0  0  0  0
  4  5  2  0  0  0  0
  5  1  1  0  0  0  0
  6 16  1  0  0  0  0
  6  4  1  0  0  0  0
  7  6  1  0  0  0  0
  8  7  2  0  0  0  0
  8  9  1  0  0  0  0
  9 10  1  0  0  0  0
  9 16  2  0  0  0  0
 10 12  1  0  0  0  0
 11 10  2  0  0  0  0
 12 17  1  0  0  0  0
 12 13  1  0  0  0  0
 13 14  1  0  0  0  0
 14 19  1  0  0  0  0
 14 18  1  0  0  0  0
 15 13  2  0  0  0  0
 16 15  1  0  0  0  0
 21 20  1  0  0  0  0
 21 26  1  0  0  0  0
 22 21  2  0  0  0  0
 23 24  2  0  0  0  0
 23 22  1  0  0  0  0
 24 25  1  0  0  0  0
 25 20  2  0  0  0  0
 26 27  2  0  0  0  0
 26 30  1  0  0  0  0
 27 28  1  0  0  0  0
 28 29  1  0  0  0  0
 29 31  1  0  0  0  0
 30 29  2  0  0  0  0
 31 36  1  0  0  0  0
 31 32  1  0  0  0  0
 32 33  1  0  0  0  0
 34 33  1  0  0  0  0
 35 34  1  0  0  0  0
 36 35  1  0  0  0  0
M  END
>  <minimizedAffinity>
-6.8477416

$$$$

 OpenBabel03242509283D

 36 41  0  0  0  0  0  0  0  0999 V2000
   66.3470   57.5320   31.0140 C   0  0  0  0  0  0  0  0  0  0  0  0
   66.7340   56.5810   31.8990 N   0  0  0  0  0  0  0  0  0  0  0  0
   67.6770   57.0590   32.6780 O   0  0  0  0  0  0  0  0  0  0  0  0
   67.9270   58.3120   32.3290 C   0  0  0  0  0  0  0  0  0  0  0  0
   67.1020   58.6100   31.2960 N   0  0  0  0  0  0  0  0  0  0  0  0
   68.8360   59.2870   32.8280 N   0  0  0  0  0  0  0  0  0  0  0  0
   69.6320   59.4010   33.8990 C   0  0  0  0  0  3  0  0  0  0  0  0
   70.2910   60.5830   33.8510 N   0  0  0  0  0  0  0  0  0  0  0  0
   69.8960   61.2100   32.7280 C   0  0  0  0  0  0  0  0  0  0  0  0
   70.2920   62.4370   32.2530 C   0  0  0  0  0  0  0  0  0  0  0  0
   71.1250   63.1960   32.8250 O   0  0  0  0  0  0  0  0  0  0  0  0
   69.7840   62.9110   31.0970 N   0  0  0  0  0  0  0  0  0  0  0  0
   68.8930   62.1220   30.4660 C   0  0  0  0  0  0  0  0  0  0  0  0
   68.2480   62.4470   29.2360 N   0  0  0  0  0  0  0  0  0  0  0  0
   68.5140   60.9360   30.9310 N   0  0  0  0  0  0  0  0  0  0  0  0
   68.9910   60.4030   32.0930 C   0  0  0  0  0  0  0  0  0  0  0  0
   70.0630   63.8270   30.7170 H   0  0  0  0  0  0  0  0  0  0  0  0
   67.5770   61.7870   28.8170 H   0  0  0  0  0  0  0  0  0  0  0  0
   68.4530   63.3400   28.7670 H   0  0  0  0  0  0  0  0  0  0  0  0
   64.6670   57.0570   27.7960 C   0  0  0  0  0  3  0  0  0  0  0  0
   63.3270   57.3290   28.1430 C   0  0  0  0  0  0  0  0  0  0  0  0
   63.0520   57.6640   29.4690 C   0  0  0  0  0  3  0  0  0  0  0  0
   64.0730   57.7150   30.3610 N   0  0  0  0  0  0  0  0  0  0  0  0
   65.3340   57.4450   29.9700 C   0  0  0  0  0  0  0  0  0  0  0  0
   65.6120   57.1260   28.7190 N   0  0  0  0  0  0  0  0  0  0  0  0
   62.3040   57.2420   27.0950 C   0  0  0  0  0  0  0  0  0  0  0  0
   62.0500   56.0110   26.4450 C   0  0  0  0  0  3  0  0  0  0  0  0
   60.7070   56.4360   25.2380 S   0  0  0  0  0  0  0  0  0  0  0  0
   60.7400   58.2210   25.8420 C   0  0  0  0  0  0  0  0  0  0  0  0
   61.5280   58.1900   26.6200 N   0  0  0  0  0  0  0  0  0  0  0  0
   59.9080   59.2930   25.3510 N   0  0  0  0  0  0  0  0  0  0  0  0
   58.8810   59.1010   24.3740 C   0  0  0  0  0  2  0  0  0  0  0  0
   58.5100   60.4820   23.8600 C   0  0  0  0  0  2  0  0  0  0  0  0
   58.0660   61.3280   24.8620 O   0  0  0  0  0  0  0  0  0  0  0  0
   58.7590   61.2610   26.0380 C   0  0  0  0  0  2  0  0  0  0  0  0
   60.1220   60.6230   25.8710 C   0  0  0  0  0  2  0  0  0  0  0  0
  1  5  1  0  0  0  0
  1  2  2  0  0  0  0
  2  3  1  0  0  0  0
  4  3  1  0  0  0  0
  4  6  1  0  0  0  0
  5  4  2  0  0  0  0
  6  7  1  0  0  0  0
  8  7  2  0  0  0  0
  9  8  1  0  0  0  0
 10  9  1  0  0  0  0
 10 11  2  0  0  0  0
 12 10  1  0  0  0  0
 13 15  2  0  0  0  0
 13 12  1  0  0  0  0
 14 13  1  0  0  0  0
 15 16  1  0  0  0  0
 16  9  2  0  0  0  0
 16  6  1  0  0  0  0
 17 12  1  0  0  0  0
 18 14  1  0  0  0  0
 19 14  1  0  0  0  0
 20 21  1  0  0  0  0
 20 25  2  0  0  0  0
 21 22  2  0  0  0  0
 22 23  1  0  0  0  0
 24 23  2  0  0  0  0
 24  1  1  0  0  0  0
 25 24  1  0  0  0  0
 26 21  1  0  0  0  0
 27 26  2  0  0  0  0
 28 29  1  0  0  0  0
 28 27  1  0  0  0  0
 29 30  2  0  0  0  0
 30 26  1  0  0  0  0
 31 29  1  0  0  0  0
 31 36  1  0  0  0  0
 32 31  1  0  0  0  0
 33 32  1  0  0  0  0
 33 34  1  0  0  0  0
 34 35  1  0  0  0  0
 36 35  1  0  0  0  0
M  END
>  <minimizedAffinity>
-6.6668334

$$$$

 OpenBabel03242509283D

 36 41  0  0  0  0  0  0  0  0999 V2000
   68.5830   60.1290   31.6160 C   0  0  0  0  0  0  0  0  0  0  0  0
   69.8230   60.2590   31.0840 N   0  0  0  0  0  0  0  0  0  0  0  0
   70.6000   59.2990   31.5310 O   0  0  0  0  0  0  0  0  0  0  0  0
   69.9000   58.5300   32.3510 C   0  0  0  0  0  0  0  0  0  0  0  0
   68.6470   59.0420   32.4070 N   0  0  0  0  0  0  0  0  0  0  0  0
   70.2360   57.3690   33.1020 N   0  0  0  0  0  0  0  0  0  0  0  0
   71.2700   56.5180   33.1480 C   0  0  0  0  0  3  0  0  0  0  0  0
   71.0380   55.5700   34.0860 N   0  0  0  0  0  0  0  0  0  0  0  0
   69.8370   55.8400   34.6310 C   0  0  0  0  0  0  0  0  0  0  0  0
   69.1780   55.1550   35.6240 C   0  0  0  0  0  0  0  0  0  0  0  0
   69.6210   54.1220   36.2000 O   0  0  0  0  0  0  0  0  0  0  0  0
   67.9690   55.5760   36.0480 N   0  0  0  0  0  0  0  0  0  0  0  0
   67.4740   56.6760   35.4500 C   0  0  0  0  0  0  0  0  0  0  0  0
   66.2160   57.2730   35.7590 N   0  0  0  0  0  0  0  0  0  0  0  0
   68.1160   57.3340   34.4900 N   0  0  0  0  0  0  0  0  0  0  0  0
   69.3400   56.9590   34.0180 C   0  0  0  0  0  0  0  0  0  0  0  0
   67.4530   55.0830   36.7900 H   0  0  0  0  0  0  0  0  0  0  0  0
   65.9090   58.1170   35.2540 H   0  0  0  0  0  0  0  0  0  0  0  0
   65.6150   56.8610   36.4870 H   0  0  0  0  0  0  0  0  0  0  0  0
   66.3670   63.0120   31.1940 C   0  0  0  0  0  3  0  0  0  0  0  0
   65.1240   62.3750   30.9880 C   0  0  0  0  0  0  0  0  0  0  0  0
   65.0970   60.9810   31.0010 C   0  0  0  0  0  3  0  0  0  0  0  0
   66.2520   60.3010   31.2100 N   0  0  0  0  0  0  0  0  0  0  0  0
   67.4080   60.9650   31.4010 C   0  0  0  0  0  0  0  0  0  0  0  0
   67.4530   62.2850   31.3920 N   0  0  0  0  0  0  0  0  0  0  0  0
   63.9400   63.2130   30.7710 C   0  0  0  0  0  0  0  0  0  0  0  0
   63.8540   64.4970   31.3590 C   0  0  0  0  0  3  0  0  0  0  0  0
   62.2020   65.1190   30.7890 S   0  0  0  0  0  0  0  0  0  0  0  0
   61.9290   63.5070   29.8500 C   0  0  0  0  0  0  0  0  0  0  0  0
   62.8600   62.9480   30.0690 N   0  0  0  0  0  0  0  0  0  0  0  0
   60.7620   63.1730   29.0700 N   0  0  0  0  0  0  0  0  0  0  0  0
   59.6810   64.0840   28.8500 C   0  0  0  0  0  2  0  0  0  0  0  0
   58.5190   63.2580   28.3250 C   0  0  0  0  0  2  0  0  0  0  0  0
   58.8240   62.5840   27.1540 O   0  0  0  0  0  0  0  0  0  0  0  0
   60.0680   62.0200   27.1060 C   0  0  0  0  0  2  0  0  0  0  0  0
   60.6820   61.8570   28.4800 C   0  0  0  0  0  2  0  0  0  0  0  0
  1  5  1  0  0  0  0
  2  3  1  0  0  0  0
  2  1  2  0  0  0  0
  3  4  1  0  0  0  0
  4  5  2  0  0  0  0
  4  6  1  0  0  0  0
  6  7  1  0  0  0  0
  6 16  1  0  0  0  0
  7  8  2  0  0  0  0
  8  9  1  0  0  0  0
  9 10  1  0  0  0  0
 10 12  1  0  0  0  0
 10 11  2  0  0  0  0
 12 17  1  0  0  0  0
 13 14  1  0  0  0  0
 13 12  1  0  0  0  0
 14 19  1  0  0  0  0
 15 13  2  0  0  0  0
 16 15  1  0  0  0  0
 16  9  2  0  0  0  0
 18 14  1  0  0  0  0
 20 25  2  0  0  0  0
 21 22  2  0  0  0  0
 21 20  1  0  0  0  0
 22 23  1  0  0  0  0
 23 24  2  0  0  0  0
 24  1  1  0  0  0  0
 25 24  1  0  0  0  0
 26 21  1  0  0  0  0
 26 27  2  0  0  0  0
 28 27  1  0  0  0  0
 29 30  2  0  0  0  0
 29 28  1  0  0  0  0
 30 26  1  0  0  0  0
 31 29  1  0  0  0  0
 32 31  1  0  0  0  0
 33 32  1  0  0  0  0
 34 33  1  0  0  0  0
 35 34  1  0  0  0  0
 35 36  1  0  0  0  0
 36 31  1  0  0  0  0
M  END
>  <minimizedAffinity>
-6.35722399

$$$$

 OpenBabel03242509283D

 36 41  0  0  0  0  0  0  0  0999 V2000
   66.1250   58.6250   33.1370 C   0  0  0  0  0  0  0  0  0  0  0  0
   65.7900   59.4860   34.1280 N   0  0  0  0  0  0  0  0  0  0  0  0
   66.7110   59.4630   35.0650 O   0  0  0  0  0  0  0  0  0  0  0  0
   67.6550   58.6020   34.7150 C   0  0  0  0  0  0  0  0  0  0  0  0
   67.2950   58.0790   33.5180 N   0  0  0  0  0  0  0  0  0  0  0  0
   68.8620   58.1900   35.3460 N   0  0  0  0  0  0  0  0  0  0  0  0
   69.5930   58.6040   36.3890 C   0  0  0  0  0  3  0  0  0  0  0  0
   70.6780   57.8070   36.5300 N   0  0  0  0  0  0  0  0  0  0  0  0
   70.6160   56.8810   35.5540 C   0  0  0  0  0  0  0  0  0  0  0  0
   71.4960   55.8580   35.2940 C   0  0  0  0  0  0  0  0  0  0  0  0
   72.5430   55.6220   35.9610 O   0  0  0  0  0  0  0  0  0  0  0  0
   71.2700   55.0180   34.2630 N   0  0  0  0  0  0  0  0  0  0  0  0
   70.1610   55.2470   33.5350 C   0  0  0  0  0  0  0  0  0  0  0  0
   69.7520   54.4730   32.4100 N   0  0  0  0  0  0  0  0  0  0  0  0
   69.3140   56.2390   33.7920 N   0  0  0  0  0  0  0  0  0  0  0  0
   69.4870   57.1210   34.8190 C   0  0  0  0  0  0  0  0  0  0  0  0
   71.9120   54.2430   34.0440 H   0  0  0  0  0  0  0  0  0  0  0  0
   68.8870   54.7140   31.9050 H   0  0  0  0  0  0  0  0  0  0  0  0
   70.3210   53.6710   32.1020 H   0  0  0  0  0  0  0  0  0  0  0  0
   63.5980   58.5630   30.4890 C   0  0  0  0  0  3  0  0  0  0  0  0
   64.1850   57.6690   29.5690 C   0  0  0  0  0  0  0  0  0  0  0  0
   65.4260   57.1220   29.8940 C   0  0  0  0  0  3  0  0  0  0  0  0
   66.0120   57.4680   31.0680 N   0  0  0  0  0  0  0  0  0  0  0  0
   65.4020   58.3280   31.9060 C   0  0  0  0  0  0  0  0  0  0  0  0
   64.2260   58.8550   31.6150 N   0  0  0  0  0  0  0  0  0  0  0  0
   63.4600   57.3680   28.3300 C   0  0  0  0  0  0  0  0  0  0  0  0
   63.8790   56.3040   27.4970 C   0  0  0  0  0  3  0  0  0  0  0  0
   62.6600   56.3500   26.0990 S   0  0  0  0  0  0  0  0  0  0  0  0
   61.8000   57.8190   26.9100 C   0  0  0  0  0  0  0  0  0  0  0  0
   62.4070   57.9700   27.8240 N   0  0  0  0  0  0  0  0  0  0  0  0
   60.6440   58.5100   26.3910 N   0  0  0  0  0  0  0  0  0  0  0  0
   59.9530   58.1010   25.2080 C   0  0  0  0  0  2  0  0  0  0  0  0
   59.0660   59.2650   24.8000 C   0  0  0  0  0  2  0  0  0  0  0  0
   58.1600   59.6220   25.7840 O   0  0  0  0  0  0  0  0  0  0  0  0
   58.6480   59.6210   27.0610 C   0  0  0  0  0  2  0  0  0  0  0  0
   60.1610   59.6710   27.1030 C   0  0  0  0  0  2  0  0  0  0  0  0
  1  5  1  0  0  0  0
  1  2  2  0  0  0  0
  2  3  1  0  0  0  0
  4  3  1  0  0  0  0
  4  6  1  0  0  0  0
  5  4  2  0  0  0  0
  6  7  1  0  0  0  0
  7  8  2  0  0  0  0
  9  8  1  0  0  0  0
 10  9  1  0  0  0  0
 10 11  2  0  0  0  0
 12 10  1  0  0  0  0
 13 15  2  0  0  0  0
 13 12  1  0  0  0  0
 14 13  1  0  0  0  0
 15 16  1  0  0  0  0
 16  6  1  0  0  0  0
 16  9  2  0  0  0  0
 17 12  1  0  0  0  0
 18 14  1  0  0  0  0
 19 14  1  0  0  0  0
 20 25  2  0  0  0  0
 21 22  2  0  0  0  0
 21 20  1  0  0  0  0
 22 23  1  0  0  0  0
 23 24  2  0  0  0  0
 24  1  1  0  0  0  0
 25 24  1  0  0  0  0
 26 21  1  0  0  0  0
 27 26  2  0  0  0  0
 28 29  1  0  0  0  0
 28 27  1  0  0  0  0
 29 30  2  0  0  0  0
 30 26  1  0  0  0  0
 31 29  1  0  0  0  0
 31 36  1  0  0  0  0
 32 31  1  0  0  0  0
 33 32  1  0  0  0  0
 33 34  1  0  0  0  0
 34 35  1  0  0  0  0
 35 36  1  0  0  0  0
M  END
>  <minimizedAffinity>
-6.32540464

$$$$
