
 OpenBabel03242509383D

 35 40  0  0  1  0  0  0  0  0999 V2000
   66.5340   57.7500   31.6250 N   0  0  0  0  0  0  0  0  0  0  0  0
   66.7100   56.5460   32.1310 C   0  0  0  0  0  3  0  0  0  0  0  0
   67.8410   56.3290   32.8810 C   0  0  0  0  0  3  0  0  0  0  0  0
   68.6970   57.4050   33.0360 C   0  0  0  0  0  0  0  0  0  0  0  0
   69.8810   57.2030   33.8130 N   0  0  0  0  0  0  0  0  0  0  0  0
   68.4730   58.6320   32.4950 N   0  0  0  0  0  0  0  0  0  0  0  0
   67.3600   58.8180   31.7660 C   0  0  0  0  0  0  0  0  0  0  0  0
   67.1120   59.9380   31.2440 O   0  0  0  0  0  0  0  0  0  0  0  0
   63.2300   59.0730   30.4640 C   0  0  0  0  0  3  0  0  0  0  0  0
   64.3270   58.8670   31.2870 C   0  0  0  0  0  3  0  0  0  0  0  0
   65.3670   58.0140   30.8360 C   0  0  0  0  0  0  0  0  0  0  0  0
   65.2200   57.4480   29.6080 N   0  0  0  0  0  0  0  0  0  0  0  0
   64.1330   57.6840   28.8500 C   0  0  0  0  0  0  0  0  0  0  0  0
   63.1540   58.4810   29.2640 N   0  0  0  0  0  0  0  0  0  0  0  0
   64.1800   57.0000   27.5960 N   0  0  0  0  0  0  0  0  0  0  0  0
   65.3500   57.1890   26.9620 N   0  0  0  0  0  0  0  0  0  0  0  0
   65.2830   56.5300   25.7690 C   0  0  0  0  0  3  0  0  0  0  0  0
   64.0530   55.9430   25.6930 C   0  0  0  0  0  3  0  0  0  0  0  0
   63.3650   56.2460   26.8530 C   0  0  0  0  0  0  0  0  0  0  0  0
   70.5450   57.9780   33.9520 H   0  0  0  0  0  0  0  0  0  0  0  0
   70.0690   56.2820   34.2330 H   0  0  0  0  0  0  0  0  0  0  0  0
   62.1810   55.9890   27.3580 O   0  0  0  0  0  0  0  0  0  0  0  0
   60.9900   56.4200   26.6890 C   0  0  2  0  0  3  0  0  0  0  0  0
   60.3230   55.5430   25.7110 C   0  0  0  0  0  2  0  0  0  0  0  0
   61.0410   56.8090   25.2830 C   0  0  1  0  0  3  0  0  0  0  0  0
   60.2920   57.9650   24.7540 C   0  0  0  0  0  0  0  0  0  0  0  0
   59.7030   57.9280   23.5150 C   0  0  0  0  0  3  0  0  0  0  0  0
   59.0050   59.0470   23.0570 C   0  0  0  0  0  3  0  0  0  0  0  0
   58.9050   60.1920   23.8520 C   0  0  0  0  0  3  0  0  0  0  0  0
   59.4870   60.2320   25.0830 C   0  0  0  0  0  0  0  0  0  0  0  0
   59.3890   61.3700   25.8720 C   0  0  0  0  0  3  0  0  0  0  0  0
   59.9760   61.4240   27.1250 C   0  0  0  0  0  3  0  0  0  0  0  0
   60.6660   60.3240   27.5800 C   0  0  0  0  0  3  0  0  0  0  0  0
   60.7640   59.1950   26.7940 C   0  0  0  0  0  3  0  0  0  0  0  0
   60.1890   59.1120   25.5430 C   0  0  0  0  0  0  0  0  0  0  0  0
  1  7  1  0  0  0  0
  1  2  1  0  0  0  0
  2  3  2  0  0  0  0
  3  4  1  0  0  0  0
  4  5  1  0  0  0  0
  5 20  1  0  0  0  0
  5 21  1  0  0  0  0
  6  4  2  0  0  0  0
  7  6  1  0  0  0  0
  8  7  2  0  0  0  0
  9 10  1  0  0  0  0
 11 10  2  0  0  0  0
 11  1  1  0  0  0  0
 12 11  1  0  0  0  0
 13 14  1  0  0  0  0
 13 12  2  0  0  0  0
 14  9  2  0  0  0  0
 15 13  1  0  0  0  0
 16 15  1  0  0  0  0
 17 16  2  0  0  0  0
 18 17  1  0  0  0  0
 18 19  2  0  0  0  0
 19 22  1  0  0  0  0
 19 15  1  0  0  0  0
 23 22  1  6  0  0  0
 24 23  1  0  0  0  0
 25 26  1  1  0  0  0
 25 24  1  0  0  0  0
 25 23  1  0  0  0  0
 26 35  1  0  0  0  0
 27 26  2  0  0  0  0
 28 27  1  0  0  0  0
 28 29  2  0  0  0  0
 29 30  1  0  0  0  0
 30 35  2  0  0  0  0
 30 31  1  0  0  0  0
 31 32  2  0  0  0  0
 32 33  1  0  0  0  0
 34 33  2  0  0  0  0
 35 34  1  0  0  0  0
M  END
>  <minimizedAffinity>
-8.66471481

$$$$

 OpenBabel03242509383D

 35 40  0  0  1  0  0  0  0  0999 V2000
   63.9100   64.1260   31.2470 N   0  0  0  0  0  0  0  0  0  0  0  0
   62.6450   64.1820   30.8780 C   0  0  0  0  0  3  0  0  0  0  0  0
   61.8380   65.0980   31.5080 C   0  0  0  0  0  3  0  0  0  0  0  0
   62.4330   65.8830   32.4800 C   0  0  0  0  0  0  0  0  0  0  0  0
   61.6120   66.8440   33.1490 N   0  0  0  0  0  0  0  0  0  0  0  0
   63.7450   65.7910   32.8270 N   0  0  0  0  0  0  0  0  0  0  0  0
   64.5120   64.8860   32.1950 C   0  0  0  0  0  0  0  0  0  0  0  0
   65.7330   64.7650   32.4850 O   0  0  0  0  0  0  0  0  0  0  0  0
   66.6320   62.6100   29.1720 C   0  0  0  0  0  3  0  0  0  0  0  0
   65.8290   63.5850   29.7450 C   0  0  0  0  0  3  0  0  0  0  0  0
   64.7820   63.1820   30.6130 C   0  0  0  0  0  0  0  0  0  0  0  0
   64.6330   61.8480   30.8310 N   0  0  0  0  0  0  0  0  0  0  0  0
   65.4420   60.9440   30.2480 C   0  0  0  0  0  0  0  0  0  0  0  0
   66.4260   61.3130   29.4330 N   0  0  0  0  0  0  0  0  0  0  0  0
   65.1200   59.6010   30.6150 N   0  0  0  0  0  0  0  0  0  0  0  0
   64.9970   59.4580   31.9450 N   0  0  0  0  0  0  0  0  0  0  0  0
   64.7250   58.1440   32.1950 C   0  0  0  0  0  3  0  0  0  0  0  0
   64.6890   57.4970   30.9940 C   0  0  0  0  0  3  0  0  0  0  0  0
   64.9400   58.4280   30.0020 C   0  0  0  0  0  0  0  0  0  0  0  0
   62.0160   67.4480   33.8790 H   0  0  0  0  0  0  0  0  0  0  0  0
   60.6170   66.9320   32.9010 H   0  0  0  0  0  0  0  0  0  0  0  0
   65.0390   58.4280   28.6930 O   0  0  0  0  0  0  0  0  0  0  0  0
   64.4260   57.3960   27.9120 C   0  0  2  0  0  3  0  0  0  0  0  0
   65.0330   56.9570   26.6440 C   0  0  0  0  0  2  0  0  0  0  0  0
   63.7290   57.7300   26.6750 C   0  0  1  0  0  3  0  0  0  0  0  0
   62.4570   57.0910   26.2830 C   0  0  0  0  0  0  0  0  0  0  0  0
   62.0980   55.8590   26.7690 C   0  0  0  0  0  3  0  0  0  0  0  0
   60.8850   55.2950   26.3700 C   0  0  0  0  0  3  0  0  0  0  0  0
   60.0460   55.9770   25.4860 C   0  0  0  0  0  3  0  0  0  0  0  0
   60.3980   57.2020   25.0020 C   0  0  0  0  0  0  0  0  0  0  0  0
   59.5640   57.8790   24.1240 C   0  0  0  0  0  3  0  0  0  0  0  0
   59.9110   59.1230   23.6250 C   0  0  0  0  0  3  0  0  0  0  0  0
   61.1060   59.6820   24.0150 C   0  0  0  0  0  3  0  0  0  0  0  0
   61.9330   59.0080   24.8870 C   0  0  0  0  0  3  0  0  0  0  0  0
   61.6140   57.7670   25.4010 C   0  0  0  0  0  0  0  0  0  0  0  0
  1  7  1  0  0  0  0
  2  1  1  0  0  0  0
  2  3  2  0  0  0  0
  3  4  1  0  0  0  0
  4  6  2  0  0  0  0
  4  5  1  0  0  0  0
  5 20  1  0  0  0  0
  7  8  2  0  0  0  0
  7  6  1  0  0  0  0
  9 14  2  0  0  0  0
  9 10  1  0  0  0  0
 10 11  2  0  0  0  0
 11 12  1  0  0  0  0
 11  1  1  0  0  0  0
 13 15  1  0  0  0  0
 13 12  2  0  0  0  0
 14 13  1  0  0  0  0
 15 16  1  0  0  0  0
 16 17  2  0  0  0  0
 18 17  1  0  0  0  0
 19 15  1  0  0  0  0
 19 18  2  0  0  0  0
 21  5  1  0  0  0  0
 22 19  1  0  0  0  0
 23 22  1  6  0  0  0
 24 25  1  0  0  0  0
 24 23  1  0  0  0  0
 25 26  1  1  0  0  0
 25 23  1  0  0  0  0
 26 27  1  0  0  0  0
 28 27  2  0  0  0  0
 29 28  1  0  0  0  0
 30 35  1  0  0  0  0
 30 29  2  0  0  0  0
 31 30  1  0  0  0  0
 32 33  1  0  0  0  0
 32 31  2  0  0  0  0
 33 34  2  0  0  0  0
 34 35  1  0  0  0  0
 35 26  2  0  0  0  0
M  END
>  <minimizedAffinity>
-7.91250372

$$$$

 OpenBabel03242509383D

 35 40  0  0  1  0  0  0  0  0999 V2000
   67.4540   63.5370   29.0210 N   0  0  0  0  0  0  0  0  0  0  0  0
   67.3970   63.8190   27.7350 C   0  0  0  0  0  3  0  0  0  0  0  0
   68.4680   64.4760   27.1790 C   0  0  0  0  0  3  0  0  0  0  0  0
   69.5150   64.7830   28.0290 C   0  0  0  0  0  0  0  0  0  0  0  0
   70.6410   65.4670   27.4720 N   0  0  0  0  0  0  0  0  0  0  0  0
   69.5300   64.4710   29.3520 N   0  0  0  0  0  0  0  0  0  0  0  0
   68.4700   63.8280   29.8710 C   0  0  0  0  0  0  0  0  0  0  0  0
   68.4410   63.5190   31.0930 O   0  0  0  0  0  0  0  0  0  0  0  0
   65.3510   60.9270   30.6890 C   0  0  0  0  0  3  0  0  0  0  0  0
   66.4600   61.5180   30.1030 C   0  0  0  0  0  3  0  0  0  0  0  0
   66.3550   62.8540   29.6370 C   0  0  0  0  0  0  0  0  0  0  0  0
   65.1560   63.4770   29.8000 N   0  0  0  0  0  0  0  0  0  0  0  0
   64.1120   62.8540   30.3780 C   0  0  0  0  0  0  0  0  0  0  0  0
   64.2020   61.6030   30.8170 N   0  0  0  0  0  0  0  0  0  0  0  0
   62.9530   63.6870   30.4580 N   0  0  0  0  0  0  0  0  0  0  0  0
   63.2350   64.8940   30.9760 N   0  0  0  0  0  0  0  0  0  0  0  0
   62.0670   65.5970   31.0440 C   0  0  0  0  0  3  0  0  0  0  0  0
   61.0760   64.7920   30.5600 C   0  0  0  0  0  3  0  0  0  0  0  0
   61.6480   63.5880   30.1920 C   0  0  0  0  0  0  0  0  0  0  0  0
   71.4420   65.7150   28.0710 H   0  0  0  0  0  0  0  0  0  0  0  0
   70.6520   65.7120   26.4720 H   0  0  0  0  0  0  0  0  0  0  0  0
   61.2370   62.4500   29.6830 O   0  0  0  0  0  0  0  0  0  0  0  0
   60.9940   62.3220   28.2780 C   0  0  2  0  0  3  0  0  0  0  0  0
   59.7260   62.7920   27.6920 C   0  0  0  0  0  2  0  0  0  0  0  0
   60.0590   61.3150   27.7860 C   0  0  1  0  0  3  0  0  0  0  0  0
   60.3200   60.5170   26.5710 C   0  0  0  0  0  0  0  0  0  0  0  0
   59.9030   60.9410   25.3350 C   0  0  0  0  0  3  0  0  0  0  0  0
   60.1730   60.1520   24.2160 C   0  0  0  0  0  3  0  0  0  0  0  0
   60.8620   58.9440   24.3530 C   0  0  0  0  0  3  0  0  0  0  0  0
   61.2790   58.5200   25.5790 C   0  0  0  0  0  0  0  0  0  0  0  0
   61.9630   57.3200   25.7140 C   0  0  0  0  0  3  0  0  0  0  0  0
   62.3920   56.8780   26.9550 C   0  0  0  0  0  3  0  0  0  0  0  0
   62.1260   57.6520   28.0610 C   0  0  0  0  0  3  0  0  0  0  0  0
   61.4460   58.8430   27.9240 C   0  0  0  0  0  3  0  0  0  0  0  0
   61.0070   59.3100   26.7020 C   0  0  0  0  0  0  0  0  0  0  0  0
  1 11  1  0  0  0  0
  1  7  1  0  0  0  0
  2  1  1  0  0  0  0
  3  2  2  0  0  0  0
  3  4  1  0  0  0  0
  4  6  2  0  0  0  0
  5  4  1  0  0  0  0
  5 20  1  0  0  0  0
  6  7  1  0  0  0  0
  7  8  2  0  0  0  0
  9 14  2  0  0  0  0
 10  9  1  0  0  0  0
 11 12  1  0  0  0  0
 11 10  2  0  0  0  0
 12 13  2  0  0  0  0
 13 15  1  0  0  0  0
 13 14  1  0  0  0  0
 15 16  1  0  0  0  0
 16 17  2  0  0  0  0
 18 17  1  0  0  0  0
 19 15  1  0  0  0  0
 19 18  2  0  0  0  0
 21  5  1  0  0  0  0
 22 19  1  0  0  0  0
 23 22  1  1  0  0  0
 24 25  1  0  0  0  0
 24 23  1  0  0  0  0
 25 26  1  6  0  0  0
 25 23  1  0  0  0  0
 26 35  1  0  0  0  0
 27 26  2  0  0  0  0
 28 29  2  0  0  0  0
 28 27  1  0  0  0  0
 29 30  1  0  0  0  0
 30 31  2  0  0  0  0
 30 35  1  0  0  0  0
 31 32  1  0  0  0  0
 32 33  2  0  0  0  0
 34 33  1  0  0  0  0
 35 34  2  0  0  0  0
M  END
>  <minimizedAffinity>
-7.5063982

$$$$

 OpenBabel03242509383D

 35 40  0  0  1  0  0  0  0  0999 V2000
   67.7210   57.7420   32.8360 N   0  0  0  0  0  0  0  0  0  0  0  0
   67.2360   56.7990   33.6180 C   0  0  0  0  0  3  0  0  0  0  0  0
   68.1320   55.9860   34.2680 C   0  0  0  0  0  3  0  0  0  0  0  0
   69.4740   56.2340   34.0370 C   0  0  0  0  0  0  0  0  0  0  0  0
   70.4250   55.4000   34.7030 N   0  0  0  0  0  0  0  0  0  0  0  0
   69.9290   57.2210   33.2210 N   0  0  0  0  0  0  0  0  0  0  0  0
   69.0310   58.0030   32.5970 C   0  0  0  0  0  0  0  0  0  0  0  0
   69.4080   58.9290   31.8310 O   0  0  0  0  0  0  0  0  0  0  0  0
   65.7920   60.7580   31.7420 C   0  0  0  0  0  3  0  0  0  0  0  0
   66.6890   59.9840   32.4630 C   0  0  0  0  0  3  0  0  0  0  0  0
   66.8170   58.6090   32.1400 C   0  0  0  0  0  0  0  0  0  0  0  0
   66.0420   58.1330   31.1290 N   0  0  0  0  0  0  0  0  0  0  0  0
   65.1880   58.9310   30.4610 C   0  0  0  0  0  0  0  0  0  0  0  0
   65.0620   60.2200   30.7570 N   0  0  0  0  0  0  0  0  0  0  0  0
   64.4770   58.2350   29.4340 N   0  0  0  0  0  0  0  0  0  0  0  0
   65.3000   57.5210   28.6470 N   0  0  0  0  0  0  0  0  0  0  0  0
   64.5360   56.9280   27.6840 C   0  0  0  0  0  3  0  0  0  0  0  0
   63.2400   57.2980   27.9020 C   0  0  0  0  0  3  0  0  0  0  0  0
   63.2150   58.1230   29.0110 C   0  0  0  0  0  0  0  0  0  0  0  0
   71.4340   55.5520   34.5590 H   0  0  0  0  0  0  0  0  0  0  0  0
   70.1020   54.6480   35.3280 H   0  0  0  0  0  0  0  0  0  0  0  0
   62.3060   58.7800   29.6940 O   0  0  0  0  0  0  0  0  0  0  0  0
   61.4890   59.7700   29.0620 C   0  0  2  0  0  3  0  0  0  0  0  0
   60.1560   60.0940   29.5990 C   0  0  0  0  0  2  0  0  0  0  0  0
   60.3260   59.3670   28.2780 C   0  0  1  0  0  3  0  0  0  0  0  0
   59.9660   60.0170   27.0020 C   0  0  0  0  0  0  0  0  0  0  0  0
   59.6990   61.3600   26.9350 C   0  0  0  0  0  3  0  0  0  0  0  0
   59.3630   61.9290   25.7060 C   0  0  0  0  0  3  0  0  0  0  0  0
   59.3000   61.1390   24.5550 C   0  0  0  0  0  3  0  0  0  0  0  0
   59.5650   59.8040   24.6170 C   0  0  0  0  0  0  0  0  0  0  0  0
   59.5020   59.0190   23.4740 C   0  0  0  0  0  3  0  0  0  0  0  0
   59.7690   57.6610   23.5240 C   0  0  0  0  0  3  0  0  0  0  0  0
   60.0990   57.0960   24.7350 C   0  0  0  0  0  3  0  0  0  0  0  0
   60.1610   57.8770   25.8690 C   0  0  0  0  0  3  0  0  0  0  0  0
   59.9010   59.2330   25.8500 C   0  0  0  0  0  0  0  0  0  0  0  0
  1  2  1  0  0  0  0
  2  3  2  0  0  0  0
  4  3  1  0  0  0  0
  4  5  1  0  0  0  0
  5 21  1  0  0  0  0
  6  4  2  0  0  0  0
  7  1  1  0  0  0  0
  7  6  1  0  0  0  0
  8  7  2  0  0  0  0
  9 10  1  0  0  0  0
 11 10  2  0  0  0  0
 11  1  1  0  0  0  0
 12 11  1  0  0  0  0
 13 14  1  0  0  0  0
 13 12  2  0  0  0  0
 14  9  2  0  0  0  0
 15 13  1  0  0  0  0
 16 15  1  0  0  0  0
 17 18  1  0  0  0  0
 17 16  2  0  0  0  0
 18 19  2  0  0  0  0
 19 15  1  0  0  0  0
 19 22  1  0  0  0  0
 20  5  1  0  0  0  0
 23 24  1  0  0  0  0
 23 22  1  1  0  0  0
 25 26  1  6  0  0  0
 25 23  1  0  0  0  0
 25 24  1  0  0  0  0
 27 26  1  0  0  0  0
 28 27  2  0  0  0  0
 29 30  2  0  0  0  0
 29 28  1  0  0  0  0
 30 35  1  0  0  0  0
 31 32  2  0  0  0  0
 31 30  1  0  0  0  0
 32 33  1  0  0  0  0
 33 34  2  0  0  0  0
 35 34  1  0  0  0  0
 35 26  2  0  0  0  0
M  END
>  <minimizedAffinity>
-7.31112051

$$$$

 OpenBabel03242509383D

 35 40  0  0  1  0  0  0  0  0999 V2000
   66.9180   62.2590   30.3580 N   0  0  0  0  0  0  0  0  0  0  0  0
   67.9340   61.7260   31.0060 C   0  0  0  0  0  3  0  0  0  0  0  0
   67.6640   60.7110   31.8910 C   0  0  0  0  0  3  0  0  0  0  0  0
   66.3370   60.3400   32.0220 C   0  0  0  0  0  0  0  0  0  0  0  0
   66.0320   59.2850   32.9380 N   0  0  0  0  0  0  0  0  0  0  0  0
   65.3200   60.9190   31.3310 N   0  0  0  0  0  0  0  0  0  0  0  0
   65.6120   61.9100   30.4700 C   0  0  0  0  0  0  0  0  0  0  0  0
   64.7000   62.4760   29.8090 O   0  0  0  0  0  0  0  0  0  0  0  0
   67.2510   64.2290   27.1920 C   0  0  0  0  0  3  0  0  0  0  0  0
   66.9970   63.1520   28.0280 C   0  0  0  0  0  3  0  0  0  0  0  0
   67.1600   63.3210   29.4270 C   0  0  0  0  0  0  0  0  0  0  0  0
   67.5580   64.5460   29.8630 N   0  0  0  0  0  0  0  0  0  0  0  0
   67.7890   65.5580   29.0060 C   0  0  0  0  0  0  0  0  0  0  0  0
   67.6390   65.4080   27.6940 N   0  0  0  0  0  0  0  0  0  0  0  0
   68.1900   66.7590   29.6700 N   0  0  0  0  0  0  0  0  0  0  0  0
   67.3690   67.0700   30.6870 N   0  0  0  0  0  0  0  0  0  0  0  0
   67.8110   68.2410   31.2300 C   0  0  0  0  0  3  0  0  0  0  0  0
   68.9110   68.6320   30.5230 C   0  0  0  0  0  3  0  0  0  0  0  0
   69.1420   67.6870   29.5400 C   0  0  0  0  0  0  0  0  0  0  0  0
   65.0570   58.9790   33.0660 H   0  0  0  0  0  0  0  0  0  0  0  0
   66.7870   58.8320   33.4710 H   0  0  0  0  0  0  0  0  0  0  0  0
   70.0120   67.5040   28.5740 O   0  0  0  0  0  0  0  0  0  0  0  0
   71.0950   66.5810   28.7300 C   0  0  2  0  0  3  0  0  0  0  0  0
   72.3240   66.7270   27.9320 C   0  0  0  0  0  2  0  0  0  0  0  0
   71.3590   65.5810   27.7010 C   0  0  1  0  0  3  0  0  0  0  0  0
   71.7390   64.1910   28.0240 C   0  0  0  0  0  0  0  0  0  0  0  0
   71.3700   63.6070   29.2090 C   0  0  0  0  0  3  0  0  0  0  0  0
   71.7520   62.2910   29.4690 C   0  0  0  0  0  3  0  0  0  0  0  0
   72.5030   61.5740   28.5340 C   0  0  0  0  0  3  0  0  0  0  0  0
   72.8710   62.1500   27.3550 C   0  0  0  0  0  0  0  0  0  0  0  0
   73.6170   61.4390   26.4250 C   0  0  0  0  0  3  0  0  0  0  0  0
   73.9970   62.0130   25.2240 C   0  0  0  0  0  3  0  0  0  0  0  0
   73.6220   63.3110   24.9630 C   0  0  0  0  0  3  0  0  0  0  0  0
   72.8820   64.0160   25.8880 C   0  0  0  0  0  3  0  0  0  0  0  0
   72.4880   63.4710   27.0930 C   0  0  0  0  0  0  0  0  0  0  0  0
  1  7  1  0  0  0  0
  1  2  1  0  0  0  0
  2  3  2  0  0  0  0
  3  4  1  0  0  0  0
  4  5  1  0  0  0  0
  5 20  1  0  0  0  0
  5 21  1  0  0  0  0
  6  4  2  0  0  0  0
  7  6  1  0  0  0  0
  8  7  2  0  0  0  0
  9 14  2  0  0  0  0
  9 10  1  0  0  0  0
 10 11  2  0  0  0  0
 11 12  1  0  0  0  0
 11  1  1  0  0  0  0
 13 15  1  0  0  0  0
 13 12  2  0  0  0  0
 14 13  1  0  0  0  0
 15 16  1  0  0  0  0
 16 17  2  0  0  0  0
 18 17  1  0  0  0  0
 19 15  1  0  0  0  0
 19 18  2  0  0  0  0
 22 19  1  0  0  0  0
 23 22  1  6  0  0  0
 24 23  1  0  0  0  0
 25 24  1  0  0  0  0
 25 26  1  1  0  0  0
 25 23  1  0  0  0  0
 26 27  1  0  0  0  0
 27 28  2  0  0  0  0
 29 28  1  0  0  0  0
 30 29  2  0  0  0  0
 31 30  1  0  0  0  0
 32 31  2  0  0  0  0
 33 32  1  0  0  0  0
 33 34  2  0  0  0  0
 34 35  1  0  0  0  0
 35 30  1  0  0  0  0
 35 26  2  0  0  0  0
M  END
>  <minimizedAffinity>
-7.27423429

$$$$

 OpenBabel03242509383D

 35 40  0  0  1  0  0  0  0  0999 V2000
   67.1040   57.3210   32.0510 N   0  0  0  0  0  0  0  0  0  0  0  0
   67.2100   56.0700   32.4550 C   0  0  0  0  0  3  0  0  0  0  0  0
   68.3520   55.7130   33.1290 C   0  0  0  0  0  3  0  0  0  0  0  0
   69.2930   56.7080   33.3230 C   0  0  0  0  0  0  0  0  0  0  0  0
   70.4910   56.3590   34.0230 N   0  0  0  0  0  0  0  0  0  0  0  0
   69.1410   57.9870   32.8890 N   0  0  0  0  0  0  0  0  0  0  0  0
   68.0140   58.3110   32.2310 C   0  0  0  0  0  0  0  0  0  0  0  0
   67.8300   59.4840   31.8100 O   0  0  0  0  0  0  0  0  0  0  0  0
   63.8630   58.9680   31.1570 C   0  0  0  0  0  3  0  0  0  0  0  0
   64.9760   58.6180   31.9070 C   0  0  0  0  0  3  0  0  0  0  0  0
   65.9280   57.7300   31.3420 C   0  0  0  0  0  0  0  0  0  0  0  0
   65.6840   57.2760   30.0830 N   0  0  0  0  0  0  0  0  0  0  0  0
   64.5870   57.6500   29.4000 C   0  0  0  0  0  0  0  0  0  0  0  0
   63.6900   58.4810   29.9210 N   0  0  0  0  0  0  0  0  0  0  0  0
   64.5280   57.0660   28.0960 N   0  0  0  0  0  0  0  0  0  0  0  0
   65.6800   57.2200   27.4220 N   0  0  0  0  0  0  0  0  0  0  0  0
   65.5120   56.6640   26.1870 C   0  0  0  0  0  3  0  0  0  0  0  0
   64.2390   56.1760   26.1270 C   0  0  0  0  0  3  0  0  0  0  0  0
   63.6260   56.4350   27.3390 C   0  0  0  0  0  0  0  0  0  0  0  0
   71.2170   57.0710   34.1880 H   0  0  0  0  0  0  0  0  0  0  0  0
   70.6270   55.3970   34.3630 H   0  0  0  0  0  0  0  0  0  0  0  0
   62.4490   56.2250   27.8800 O   0  0  0  0  0  0  0  0  0  0  0  0
   61.2900   56.9190   27.4040 C   0  0  2  0  0  3  0  0  0  0  0  0
   60.7440   56.6330   26.0670 C   0  0  0  0  0  2  0  0  0  0  0  0
   61.4240   57.9510   26.3820 C   0  0  1  0  0  3  0  0  0  0  0  0
   60.6560   59.2110   26.4220 C   0  0  0  0  0  0  0  0  0  0  0  0
   60.6770   60.0250   27.5260 C   0  0  0  0  0  3  0  0  0  0  0  0
   59.9340   61.2070   27.5180 C   0  0  0  0  0  3  0  0  0  0  0  0
   59.1780   61.5580   26.3970 C   0  0  0  0  0  3  0  0  0  0  0  0
   59.1550   60.7530   25.2970 C   0  0  0  0  0  0  0  0  0  0  0  0
   58.4040   61.1020   24.1840 C   0  0  0  0  0  3  0  0  0  0  0  0
   58.3730   60.2920   23.0610 C   0  0  0  0  0  3  0  0  0  0  0  0
   59.1020   59.1260   23.0660 C   0  0  0  0  0  3  0  0  0  0  0  0
   59.8470   58.7810   24.1730 C   0  0  0  0  0  3  0  0  0  0  0  0
   59.8990   59.5670   25.3060 C   0  0  0  0  0  0  0  0  0  0  0  0
  1  7  1  0  0  0  0
  1  2  1  0  0  0  0
  2  3  2  0  0  0  0
  3  4  1  0  0  0  0
  4  5  1  0  0  0  0
  5 20  1  0  0  0  0
  5 21  1  0  0  0  0
  6  4  2  0  0  0  0
  7  6  1  0  0  0  0
  8  7  2  0  0  0  0
  9 10  1  0  0  0  0
 11 10  2  0  0  0  0
 11  1  1  0  0  0  0
 12 11  1  0  0  0  0
 13 14  1  0  0  0  0
 13 12  2  0  0  0  0
 14  9  2  0  0  0  0
 15 13  1  0  0  0  0
 16 15  1  0  0  0  0
 17 16  2  0  0  0  0
 18 17  1  0  0  0  0
 18 19  2  0  0  0  0
 19 22  1  0  0  0  0
 19 15  1  0  0  0  0
 23 22  1  6  0  0  0
 24 25  1  0  0  0  0
 24 23  1  0  0  0  0
 25 26  1  1  0  0  0
 25 23  1  0  0  0  0
 26 27  1  0  0  0  0
 28 27  2  0  0  0  0
 29 28  1  0  0  0  0
 30 35  1  0  0  0  0
 30 29  2  0  0  0  0
 31 30  1  0  0  0  0
 32 33  1  0  0  0  0
 32 31  2  0  0  0  0
 33 34  2  0  0  0  0
 34 35  1  0  0  0  0
 35 26  2  0  0  0  0
M  END
>  <minimizedAffinity>
-7.24293661

$$$$

 OpenBabel03242509383D

 35 40  0  0  1  0  0  0  0  0999 V2000
   67.4090   57.7840   32.3100 N   0  0  0  0  0  0  0  0  0  0  0  0
   67.0850   56.7010   32.9860 C   0  0  0  0  0  3  0  0  0  0  0  0
   68.0880   56.0410   33.6540 C   0  0  0  0  0  3  0  0  0  0  0  0
   69.3580   56.5820   33.5530 C   0  0  0  0  0  0  0  0  0  0  0  0
   70.4180   55.9130   34.2410 N   0  0  0  0  0  0  0  0  0  0  0  0
   69.6460   57.7050   32.8440 N   0  0  0  0  0  0  0  0  0  0  0  0
   68.6460   58.3300   32.1990 C   0  0  0  0  0  0  0  0  0  0  0  0
   68.8680   59.3740   31.5280 O   0  0  0  0  0  0  0  0  0  0  0  0
   64.9590   60.4110   31.2570 C   0  0  0  0  0  3  0  0  0  0  0  0
   65.9500   59.7850   31.9990 C   0  0  0  0  0  3  0  0  0  0  0  0
   66.3900   58.4970   31.5990 C   0  0  0  0  0  0  0  0  0  0  0  0
   65.8050   57.9540   30.4970 N   0  0  0  0  0  0  0  0  0  0  0  0
   64.8480   58.6080   29.8140 C   0  0  0  0  0  0  0  0  0  0  0  0
   64.4290   59.8140   30.1810 N   0  0  0  0  0  0  0  0  0  0  0  0
   64.3740   57.8660   28.6880 N   0  0  0  0  0  0  0  0  0  0  0  0
   65.3820   57.4050   27.9280 N   0  0  0  0  0  0  0  0  0  0  0  0
   64.8300   56.7450   26.8680 C   0  0  0  0  0  3  0  0  0  0  0  0
   63.4730   56.8180   27.0010 C   0  0  0  0  0  3  0  0  0  0  0  0
   63.1960   57.5280   28.1550 C   0  0  0  0  0  0  0  0  0  0  0  0
   71.3780   56.2820   34.1920 H   0  0  0  0  0  0  0  0  0  0  0  0
   70.2220   55.0610   34.7860 H   0  0  0  0  0  0  0  0  0  0  0  0
   62.1240   57.9240   28.8010 O   0  0  0  0  0  0  0  0  0  0  0  0
   61.0360   58.5410   28.1050 C   0  0  2  0  0  3  0  0  0  0  0  0
   61.0220   58.5900   26.6320 C   0  0  0  0  0  2  0  0  0  0  0  0
   61.2200   59.8410   27.4670 C   0  0  1  0  0  3  0  0  0  0  0  0
   60.1890   60.8970   27.5090 C   0  0  0  0  0  0  0  0  0  0  0  0
   59.0060   60.7670   26.8270 C   0  0  0  0  0  3  0  0  0  0  0  0
   58.0610   61.7930   26.8970 C   0  0  0  0  0  3  0  0  0  0  0  0
   58.3170   62.9390   27.6540 C   0  0  0  0  0  3  0  0  0  0  0  0
   59.4910   63.0710   28.3340 C   0  0  0  0  0  0  0  0  0  0  0  0
   59.7450   64.2100   29.0850 C   0  0  0  0  0  3  0  0  0  0  0  0
   60.9340   64.3560   29.7810 C   0  0  0  0  0  3  0  0  0  0  0  0
   61.8680   63.3480   29.7130 C   0  0  0  0  0  3  0  0  0  0  0  0
   61.6140   62.2180   28.9660 C   0  0  0  0  0  3  0  0  0  0  0  0
   60.4390   62.0440   28.2630 C   0  0  0  0  0  0  0  0  0  0  0  0
  1  2  1  0  0  0  0
  2  3  2  0  0  0  0
  4  3  1  0  0  0  0
  4  5  1  0  0  0  0
  5 21  1  0  0  0  0
  6  4  2  0  0  0  0
  7  1  1  0  0  0  0
  7  6  1  0  0  0  0
  8  7  2  0  0  0  0
  9 10  1  0  0  0  0
 11 10  2  0  0  0  0
 11  1  1  0  0  0  0
 12 11  1  0  0  0  0
 13 14  1  0  0  0  0
 13 12  2  0  0  0  0
 14  9  2  0  0  0  0
 15 13  1  0  0  0  0
 16 15  1  0  0  0  0
 17 18  1  0  0  0  0
 17 16  2  0  0  0  0
 18 19  2  0  0  0  0
 19 15  1  0  0  0  0
 19 22  1  0  0  0  0
 20  5  1  0  0  0  0
 23 22  1  6  0  0  0
 24 25  1  0  0  0  0
 24 23  1  0  0  0  0
 25 26  1  1  0  0  0
 25 23  1  0  0  0  0
 26 35  1  0  0  0  0
 27 28  1  0  0  0  0
 27 26  2  0  0  0  0
 28 29  2  0  0  0  0
 29 30  1  0  0  0  0
 30 31  1  0  0  0  0
 31 32  2  0  0  0  0
 33 32  1  0  0  0  0
 34 33  2  0  0  0  0
 35 30  2  0  0  0  0
 35 34  1  0  0  0  0
M  END
>  <minimizedAffinity>
-7.07511091

$$$$

 OpenBabel03242509383D

 35 40  0  0  1  0  0  0  0  0999 V2000
   67.1110   61.5650   30.7540 N   0  0  0  0  0  0  0  0  0  0  0  0
   68.1910   60.8390   30.9620 C   0  0  0  0  0  3  0  0  0  0  0  0
   68.0860   59.7700   31.8180 C   0  0  0  0  0  3  0  0  0  0  0  0
   66.8440   59.5520   32.3870 C   0  0  0  0  0  0  0  0  0  0  0  0
   66.7100   58.4440   33.2820 N   0  0  0  0  0  0  0  0  0  0  0  0
   65.7550   60.3280   32.1420 N   0  0  0  0  0  0  0  0  0  0  0  0
   65.8840   61.3680   31.3000 C   0  0  0  0  0  0  0  0  0  0  0  0
   64.9020   62.1140   31.0440 O   0  0  0  0  0  0  0  0  0  0  0  0
   66.6420   63.8310   27.8120 C   0  0  0  0  0  3  0  0  0  0  0  0
   66.5260   62.7040   28.6110 C   0  0  0  0  0  3  0  0  0  0  0  0
   67.1820   62.6890   29.8690 C   0  0  0  0  0  0  0  0  0  0  0  0
   67.8910   63.7980   30.2140 N   0  0  0  0  0  0  0  0  0  0  0  0
   67.9690   64.8660   29.3980 C   0  0  0  0  0  0  0  0  0  0  0  0
   67.3580   64.8880   28.2190 N   0  0  0  0  0  0  0  0  0  0  0  0
   68.7540   65.9230   29.9530 N   0  0  0  0  0  0  0  0  0  0  0  0
   68.3890   66.2130   31.2140 N   0  0  0  0  0  0  0  0  0  0  0  0
   69.1670   67.2510   31.6390 C   0  0  0  0  0  3  0  0  0  0  0  0
   70.0050   67.5830   30.6140 C   0  0  0  0  0  3  0  0  0  0  0  0
   69.7350   66.7370   29.5540 C   0  0  0  0  0  0  0  0  0  0  0  0
   65.8030   58.2480   33.7270 H   0  0  0  0  0  0  0  0  0  0  0  0
   67.5220   57.8430   33.4810 H   0  0  0  0  0  0  0  0  0  0  0  0
   70.1830   66.5610   28.3320 O   0  0  0  0  0  0  0  0  0  0  0  0
   71.4490   65.9340   28.1000 C   0  0  2  0  0  3  0  0  0  0  0  0
   72.4770   66.6050   27.2850 C   0  0  0  0  0  2  0  0  0  0  0  0
   71.7560   65.3660   26.7910 C   0  0  1  0  0  3  0  0  0  0  0  0
   72.4700   64.0840   26.6310 C   0  0  0  0  0  0  0  0  0  0  0  0
   73.3460   63.8790   25.5960 C   0  0  0  0  0  3  0  0  0  0  0  0
   73.9980   62.6490   25.4870 C   0  0  0  0  0  3  0  0  0  0  0  0
   73.7620   61.6390   26.4220 C   0  0  0  0  0  3  0  0  0  0  0  0
   72.8930   61.8380   27.4530 C   0  0  0  0  0  0  0  0  0  0  0  0
   72.6590   60.8340   28.3810 C   0  0  0  0  0  3  0  0  0  0  0  0
   71.7780   61.0250   29.4330 C   0  0  0  0  0  3  0  0  0  0  0  0
   71.1330   62.2350   29.5440 C   0  0  0  0  0  3  0  0  0  0  0  0
   71.3670   63.2310   28.6200 C   0  0  0  0  0  3  0  0  0  0  0  0
   72.2380   63.0710   27.5630 C   0  0  0  0  0  0  0  0  0  0  0  0
  1  2  1  0  0  0  0
  1  7  1  0  0  0  0
  2  3  2  0  0  0  0
  3  4  1  0  0  0  0
  4  5  1  0  0  0  0
  5 21  1  0  0  0  0
  5 20  1  0  0  0  0
  6  4  2  0  0  0  0
  7  6  1  0  0  0  0
  8  7  2  0  0  0  0
  9 14  2  0  0  0  0
  9 10  1  0  0  0  0
 10 11  2  0  0  0  0
 11 12  1  0  0  0  0
 11  1  1  0  0  0  0
 13 15  1  0  0  0  0
 13 12  2  0  0  0  0
 14 13  1  0  0  0  0
 15 16  1  0  0  0  0
 16 17  2  0  0  0  0
 18 17  1  0  0  0  0
 19 15  1  0  0  0  0
 19 18  2  0  0  0  0
 22 19  1  0  0  0  0
 23 22  1  6  0  0  0
 24 23  1  0  0  0  0
 25 26  1  1  0  0  0
 25 24  1  0  0  0  0
 25 23  1  0  0  0  0
 26 35  1  0  0  0  0
 27 26  2  0  0  0  0
 28 27  1  0  0  0  0
 28 29  2  0  0  0  0
 29 30  1  0  0  0  0
 30 35  2  0  0  0  0
 30 31  1  0  0  0  0
 31 32  2  0  0  0  0
 32 33  1  0  0  0  0
 34 33  2  0  0  0  0
 35 34  1  0  0  0  0
M  END
>  <minimizedAffinity>
-6.99120474

$$$$

 OpenBabel03242509383D

 35 40  0  0  1  0  0  0  0  0999 V2000
   67.6790   57.0990   33.7710 N   0  0  0  0  0  0  0  0  0  0  0  0
   68.6070   56.3790   33.1720 C   0  0  0  0  0  3  0  0  0  0  0  0
   69.2260   55.3980   33.9070 C   0  0  0  0  0  3  0  0  0  0  0  0
   68.8160   55.2560   35.2210 C   0  0  0  0  0  0  0  0  0  0  0  0
   69.4470   54.2410   36.0060 N   0  0  0  0  0  0  0  0  0  0  0  0
   67.8520   56.0230   35.7980 N   0  0  0  0  0  0  0  0  0  0  0  0
   67.2620   56.9760   35.0560 C   0  0  0  0  0  0  0  0  0  0  0  0
   66.3650   57.7100   35.5490 O   0  0  0  0  0  0  0  0  0  0  0  0
   65.0700   59.0820   31.9620 C   0  0  0  0  0  3  0  0  0  0  0  0
   65.6440   58.0380   32.6720 C   0  0  0  0  0  3  0  0  0  0  0  0
   67.0120   58.1320   33.0360 C   0  0  0  0  0  0  0  0  0  0  0  0
   67.6800   59.2570   32.6620 N   0  0  0  0  0  0  0  0  0  0  0  0
   67.0720   60.2400   31.9730 C   0  0  0  0  0  0  0  0  0  0  0  0
   65.7910   60.1600   31.6280 N   0  0  0  0  0  0  0  0  0  0  0  0
   67.9480   61.3330   31.6880 N   0  0  0  0  0  0  0  0  0  0  0  0
   68.6090   61.7480   32.7820 N   0  0  0  0  0  0  0  0  0  0  0  0
   69.3870   62.8080   32.4160 C   0  0  0  0  0  3  0  0  0  0  0  0
   69.1820   63.0260   31.0840 C   0  0  0  0  0  3  0  0  0  0  0  0
   68.2720   62.0880   30.6340 C   0  0  0  0  0  0  0  0  0  0  0  0
   69.1700   54.1030   36.9890 H   0  0  0  0  0  0  0  0  0  0  0  0
   70.1780   53.6480   35.5890 H   0  0  0  0  0  0  0  0  0  0  0  0
   67.6890   61.7880   29.4960 O   0  0  0  0  0  0  0  0  0  0  0  0
   66.4740   62.4370   29.1040 C   0  0  2  0  0  3  0  0  0  0  0  0
   66.4900   63.5040   28.0880 C   0  0  0  0  0  2  0  0  0  0  0  0
   66.1950   63.7990   29.5470 C   0  0  1  0  0  3  0  0  0  0  0  0
   64.8510   64.2330   29.9770 C   0  0  0  0  0  0  0  0  0  0  0  0
   63.7560   63.4220   29.8230 C   0  0  0  0  0  3  0  0  0  0  0  0
   62.5060   63.8770   30.2460 C   0  0  0  0  0  3  0  0  0  0  0  0
   62.3710   65.1440   30.8190 C   0  0  0  0  0  3  0  0  0  0  0  0
   63.4570   65.9520   30.9750 C   0  0  0  0  0  0  0  0  0  0  0  0
   63.3230   67.2110   31.5440 C   0  0  0  0  0  3  0  0  0  0  0  0
   64.4190   68.0410   31.7080 C   0  0  0  0  0  3  0  0  0  0  0  0
   65.6530   67.5970   31.2920 C   0  0  0  0  0  3  0  0  0  0  0  0
   65.7840   66.3470   30.7260 C   0  0  0  0  0  3  0  0  0  0  0  0
   64.7110   65.4970   30.5510 C   0  0  0  0  0  0  0  0  0  0  0  0
  1  7  1  0  0  0  0
  2  1  1  0  0  0  0
  2  3  2  0  0  0  0
  3  4  1  0  0  0  0
  4  6  2  0  0  0  0
  4  5  1  0  0  0  0
  5 20  1  0  0  0  0
  7  8  2  0  0  0  0
  7  6  1  0  0  0  0
  9 10  1  0  0  0  0
 10 11  2  0  0  0  0
 11  1  1  0  0  0  0
 12 11  1  0  0  0  0
 13 12  2  0  0  0  0
 14  9  2  0  0  0  0
 14 13  1  0  0  0  0
 15 13  1  0  0  0  0
 15 16  1  0  0  0  0
 17 16  2  0  0  0  0
 18 17  1  0  0  0  0
 19 18  2  0  0  0  0
 19 15  1  0  0  0  0
 21  5  1  0  0  0  0
 22 19  1  0  0  0  0
 23 22  1  1  0  0  0
 23 25  1  0  0  0  0
 24 23  1  0  0  0  0
 24 25  1  0  0  0  0
 25 26  1  6  0  0  0
 26 35  1  0  0  0  0
 27 26  2  0  0  0  0
 27 28  1  0  0  0  0
 28 29  2  0  0  0  0
 29 30  1  0  0  0  0
 30 31  1  0  0  0  0
 31 32  2  0  0  0  0
 33 32  1  0  0  0  0
 34 33  2  0  0  0  0
 35 34  1  0  0  0  0
 35 30  2  0  0  0  0
M  END
>  <minimizedAffinity>
-6.91531134

$$$$
