
 OpenBabel03242509233D

 32 37  0  0  0  0  0  0  0  0999 V2000
   64.0930   57.0900   28.9770 C   0  0  0  0  0  3  0  0  0  0  0  0
   62.9420   57.7380   28.5560 C   0  0  0  0  0  0  0  0  0  0  0  0
   62.4590   58.7780   29.3720 C   0  0  0  0  0  3  0  0  0  0  0  0
   63.1500   59.0760   30.5120 N   0  0  0  0  0  0  0  0  0  0  0  0
   64.2510   58.4210   30.8700 C   0  0  0  0  0  0  0  0  0  0  0  0
   64.7350   57.4200   30.1040 N   0  0  0  0  0  0  0  0  0  0  0  0
   62.3040   57.3450   27.3500 C   0  0  0  0  0  0  0  0  0  0  0  0
   62.4810   56.0880   26.7350 C   0  0  0  0  0  3  0  0  0  0  0  0
   61.7190   56.0460   25.5940 N   0  0  0  0  0  0  0  0  0  0  0  0
   61.0760   57.2250   25.4770 C   0  0  0  0  0  0  0  0  0  0  0  0
   60.1820   57.7030   24.5040 C   0  0  0  0  0  3  0  0  0  0  0  0
   59.6530   58.9650   24.6110 C   0  0  0  0  0  3  0  0  0  0  0  0
   59.9960   59.7700   25.6720 C   0  0  0  0  0  3  0  0  0  0  0  0
   60.8810   59.2570   26.6050 C   0  0  0  0  0  3  0  0  0  0  0  0
   61.4400   58.0090   26.5520 C   0  0  0  0  0  0  0  0  0  0  0  0
   61.6510   55.2520   24.9420 H   0  0  0  0  0  0  0  0  0  0  0  0
   64.9300   58.8200   32.1260 C   0  0  0  0  0  2  0  0  0  0  0  0
   66.1880   59.5120   31.7620 C   0  0  0  0  0  0  0  0  0  0  0  0
   67.3630   59.2460   32.4690 C   0  0  0  0  0  3  0  0  0  0  0  0
   68.3620   60.0190   31.9230 C   0  0  0  0  0  3  0  0  0  0  0  0
   67.8080   60.7170   30.9340 N   0  0  0  0  0  0  0  0  0  0  0  0
   66.5130   60.4050   30.8490 N   0  0  0  0  0  0  0  0  0  0  0  0
   68.5670   61.6300   30.1480 C   0  0  0  0  0  0  0  0  0  0  0  0
   69.9220   61.6230   30.2920 N   0  0  0  0  0  0  0  0  0  0  0  0
   70.7410   62.4400   29.6030 C   0  0  0  0  0  3  0  0  0  0  0  0
   70.2670   63.3400   28.7010 N   0  0  0  0  0  0  0  0  0  0  0  0
   68.9200   63.3740   28.5320 C   0  0  0  0  0  0  0  0  0  0  0  0
   68.3510   64.2570   27.6390 C   0  0  0  0  0  3  0  0  0  0  0  0
   66.9720   64.3410   27.4180 C   0  0  0  0  0  3  0  0  0  0  0  0
   66.1800   63.4670   28.1640 C   0  0  0  0  0  3  0  0  0  0  0  0
   66.7050   62.5560   29.0800 C   0  0  0  0  0  3  0  0  0  0  0  0
   68.0850   62.5370   29.2400 C   0  0  0  0  0  0  0  0  0  0  0  0
  1  6  2  0  0  0  0
  2  1  1  0  0  0  0
  2  3  2  0  0  0  0
  3  4  1  0  0  0  0
  4  5  2  0  0  0  0
  5 17  1  0  0  0  0
  6  5  1  0  0  0  0
  7  2  1  0  0  0  0
  8  7  2  0  0  0  0
  9  8  1  0  0  0  0
 10  9  1  0  0  0  0
 10 15  1  0  0  0  0
 11 12  1  0  0  0  0
 11 10  2  0  0  0  0
 12 13  2  0  0  0  0
 13 14  1  0  0  0  0
 15 14  2  0  0  0  0
 15  7  1  0  0  0  0
 16  9  1  0  0  0  0
 18 17  1  0  0  0  0
 18 19  1  0  0  0  0
 20 19  2  0  0  0  0
 21 20  1  0  0  0  0
 22 21  1  0  0  0  0
 22 18  2  0  0  0  0
 23 24  1  0  0  0  0
 23 21  1  0  0  0  0
 25 24  2  0  0  0  0
 26 25  1  0  0  0  0
 27 26  2  0  0  0  0
 27 32  1  0  0  0  0
 28 27  1  0  0  0  0
 29 28  2  0  0  0  0
 29 30  1  0  0  0  0
 30 31  2  0  0  0  0
 31 32  1  0  0  0  0
 32 23  2  0  0  0  0
M  END
>  <minimizedAffinity>
-8.03859234

$$$$

 OpenBabel03242509233D

 32 37  0  0  0  0  0  0  0  0999 V2000
   62.5690   56.9850   28.4830 C   0  0  0  0  0  3  0  0  0  0  0  0
   62.8090   57.0010   27.1180 C   0  0  0  0  0  0  0  0  0  0  0  0
   64.1490   57.1240   26.7060 C   0  0  0  0  0  3  0  0  0  0  0  0
   65.1130   57.2170   27.6690 N   0  0  0  0  0  0  0  0  0  0  0  0
   64.8270   57.1970   28.9680 C   0  0  0  0  0  0  0  0  0  0  0  0
   63.5500   57.0800   29.3890 N   0  0  0  0  0  0  0  0  0  0  0  0
   61.7270   56.8960   26.2040 C   0  0  0  0  0  0  0  0  0  0  0  0
   60.9490   55.7330   26.0280 C   0  0  0  0  0  3  0  0  0  0  0  0
   59.9950   55.9830   25.0740 N   0  0  0  0  0  0  0  0  0  0  0  0
   60.1490   57.2540   24.6510 C   0  0  0  0  0  0  0  0  0  0  0  0
   59.4460   58.0060   23.6950 C   0  0  0  0  0  3  0  0  0  0  0  0
   59.8030   59.3070   23.4400 C   0  0  0  0  0  3  0  0  0  0  0  0
   60.8530   59.8800   24.1170 C   0  0  0  0  0  3  0  0  0  0  0  0
   61.5170   59.1000   25.0480 C   0  0  0  0  0  3  0  0  0  0  0  0
   61.2070   57.8010   25.3460 C   0  0  0  0  0  0  0  0  0  0  0  0
   59.2860   55.3150   24.7400 H   0  0  0  0  0  0  0  0  0  0  0  0
   65.9450   57.3050   29.9360 C   0  0  0  0  0  2  0  0  0  0  0  0
   65.7980   58.5910   30.6560 C   0  0  0  0  0  0  0  0  0  0  0  0
   65.2910   58.6100   31.9580 C   0  0  0  0  0  3  0  0  0  0  0  0
   65.2660   59.9210   32.3760 C   0  0  0  0  0  3  0  0  0  0  0  0
   65.7360   60.6530   31.3690 N   0  0  0  0  0  0  0  0  0  0  0  0
   66.0500   59.8480   30.3510 N   0  0  0  0  0  0  0  0  0  0  0  0
   65.8470   62.0700   31.4630 C   0  0  0  0  0  0  0  0  0  0  0  0
   65.6570   62.6450   32.6830 N   0  0  0  0  0  0  0  0  0  0  0  0
   65.7370   63.9720   32.8930 C   0  0  0  0  0  3  0  0  0  0  0  0
   66.0180   64.8440   31.8880 N   0  0  0  0  0  0  0  0  0  0  0  0
   66.2140   64.3040   30.6580 C   0  0  0  0  0  0  0  0  0  0  0  0
   66.5040   65.1120   29.5790 C   0  0  0  0  0  3  0  0  0  0  0  0
   66.7180   64.6190   28.2870 C   0  0  0  0  0  3  0  0  0  0  0  0
   66.6200   63.2350   28.1390 C   0  0  0  0  0  3  0  0  0  0  0  0
   66.3300   62.3740   29.1960 C   0  0  0  0  0  3  0  0  0  0  0  0
   66.1320   62.9440   30.4470 C   0  0  0  0  0  0  0  0  0  0  0  0
  1  6  2  0  0  0  0
  2  1  1  0  0  0  0
  3  2  2  0  0  0  0
  3  4  1  0  0  0  0
  4  5  2  0  0  0  0
  5  6  1  0  0  0  0
  5 17  1  0  0  0  0
  7  2  1  0  0  0  0
  8  7  2  0  0  0  0
  9  8  1  0  0  0  0
 10  9  1  0  0  0  0
 10 15  1  0  0  0  0
 11 10  2  0  0  0  0
 12 11  1  0  0  0  0
 12 13  2  0  0  0  0
 13 14  1  0  0  0  0
 14 15  2  0  0  0  0
 15  7  1  0  0  0  0
 16  9  1  0  0  0  0
 17 18  1  0  0  0  0
 18 19  1  0  0  0  0
 19 20  2  0  0  0  0
 21 23  1  0  0  0  0
 21 20  1  0  0  0  0
 22 18  2  0  0  0  0
 22 21  1  0  0  0  0
 23 24  1  0  0  0  0
 24 25  2  0  0  0  0
 26 25  1  0  0  0  0
 27 26  2  0  0  0  0
 28 27  1  0  0  0  0
 29 28  2  0  0  0  0
 30 29  1  0  0  0  0
 30 31  2  0  0  0  0
 31 32  1  0  0  0  0
 32 27  1  0  0  0  0
 32 23  2  0  0  0  0
M  END
>  <minimizedAffinity>
-8.01206779

$$$$

 OpenBabel03242509233D

 32 37  0  0  0  0  0  0  0  0999 V2000
   63.3450   56.9190   29.3290 C   0  0  0  0  0  3  0  0  0  0  0  0
   64.6170   57.3560   28.9920 C   0  0  0  0  0  0  0  0  0  0  0  0
   64.9390   57.3900   27.6220 C   0  0  0  0  0  3  0  0  0  0  0  0
   63.9870   56.9950   26.7260 N   0  0  0  0  0  0  0  0  0  0  0  0
   62.7800   56.5840   27.1040 C   0  0  0  0  0  0  0  0  0  0  0  0
   62.4450   56.5420   28.4110 N   0  0  0  0  0  0  0  0  0  0  0  0
   65.5280   57.7430   30.0090 C   0  0  0  0  0  0  0  0  0  0  0  0
   66.5200   56.8980   30.5470 C   0  0  0  0  0  3  0  0  0  0  0  0
   67.2190   57.5930   31.5020 N   0  0  0  0  0  0  0  0  0  0  0  0
   66.7000   58.8360   31.5780 C   0  0  0  0  0  0  0  0  0  0  0  0
   67.0390   59.9360   32.3840 C   0  0  0  0  0  3  0  0  0  0  0  0
   66.3470   61.1160   32.2700 C   0  0  0  0  0  3  0  0  0  0  0  0
   65.3150   61.2270   31.3680 C   0  0  0  0  0  3  0  0  0  0  0  0
   65.0180   60.1160   30.5960 C   0  0  0  0  0  3  0  0  0  0  0  0
   65.6710   58.9160   30.6640 C   0  0  0  0  0  0  0  0  0  0  0  0
   68.0020   57.2290   32.0630 H   0  0  0  0  0  0  0  0  0  0  0  0
   61.8150   56.1760   26.0550 C   0  0  0  0  0  2  0  0  0  0  0  0
   61.0260   57.3710   25.6740 C   0  0  0  0  0  0  0  0  0  0  0  0
   60.4700   57.4640   24.3960 C   0  0  0  0  0  3  0  0  0  0  0  0
   59.7990   58.6630   24.3200 C   0  0  0  0  0  3  0  0  0  0  0  0
   59.9480   59.2600   25.4990 N   0  0  0  0  0  0  0  0  0  0  0  0
   60.6810   58.4800   26.2970 N   0  0  0  0  0  0  0  0  0  0  0  0
   59.3750   60.5360   25.7690 C   0  0  0  0  0  0  0  0  0  0  0  0
   58.4930   61.0440   24.8630 N   0  0  0  0  0  0  0  0  0  0  0  0
   57.8890   62.2370   25.0110 C   0  0  0  0  0  3  0  0  0  0  0  0
   58.1190   63.0310   26.0900 N   0  0  0  0  0  0  0  0  0  0  0  0
   58.9930   62.5560   27.0140 C   0  0  0  0  0  0  0  0  0  0  0  0
   59.2870   63.2930   28.1410 C   0  0  0  0  0  3  0  0  0  0  0  0
   60.1770   62.8600   29.1310 C   0  0  0  0  0  3  0  0  0  0  0  0
   60.7690   61.6140   28.9160 C   0  0  0  0  0  3  0  0  0  0  0  0
   60.5060   60.8290   27.7940 C   0  0  0  0  0  3  0  0  0  0  0  0
   59.6100   61.3320   26.8590 C   0  0  0  0  0  0  0  0  0  0  0  0
  2  1  1  0  0  0  0
  2  7  1  0  0  0  0
  3  2  2  0  0  0  0
  4  5  2  0  0  0  0
  4  3  1  0  0  0  0
  5  6  1  0  0  0  0
  6  1  2  0  0  0  0
  7  8  2  0  0  0  0
  7 15  1  0  0  0  0
  8  9  1  0  0  0  0
  9 10  1  0  0  0  0
  9 16  1  0  0  0  0
 10 11  1  0  0  0  0
 12 11  2  0  0  0  0
 13 12  1  0  0  0  0
 14 15  1  0  0  0  0
 14 13  2  0  0  0  0
 15 10  2  0  0  0  0
 17  5  1  0  0  0  0
 18 17  1  0  0  0  0
 18 22  2  0  0  0  0
 19 18  1  0  0  0  0
 20 19  2  0  0  0  0
 20 21  1  0  0  0  0
 21 23  1  0  0  0  0
 21 22  1  0  0  0  0
 23 32  1  0  0  0  0
 24 25  1  0  0  0  0
 24 23  2  0  0  0  0
 25 26  2  0  0  0  0
 26 27  1  0  0  0  0
 27 28  1  0  0  0  0
 28 29  2  0  0  0  0
 30 29  1  0  0  0  0
 31 30  2  0  0  0  0
 32 27  2  0  0  0  0
 32 31  1  0  0  0  0
M  END
>  <minimizedAffinity>
-7.80676603

$$$$

 OpenBabel03242509233D

 32 37  0  0  0  0  0  0  0  0999 V2000
   60.4150   60.4550   28.6530 C   0  0  0  0  0  3  0  0  0  0  0  0
   60.2960   60.4560   27.2710 C   0  0  0  0  0  0  0  0  0  0  0  0
   60.1130   61.7030   26.6460 C   0  0  0  0  0  3  0  0  0  0  0  0
   60.0660   62.8180   27.4330 N   0  0  0  0  0  0  0  0  0  0  0  0
   60.1850   62.7610   28.7570 C   0  0  0  0  0  0  0  0  0  0  0  0
   60.3620   61.5770   29.3810 N   0  0  0  0  0  0  0  0  0  0  0  0
   60.3610   59.2330   26.5520 C   0  0  0  0  0  0  0  0  0  0  0  0
   59.5600   58.9310   25.4320 C   0  0  0  0  0  3  0  0  0  0  0  0
   59.8850   57.6740   24.9850 N   0  0  0  0  0  0  0  0  0  0  0  0
   60.8560   57.1850   25.7830 C   0  0  0  0  0  0  0  0  0  0  0  0
   61.5390   55.9580   25.7700 C   0  0  0  0  0  3  0  0  0  0  0  0
   62.5060   55.6940   26.7070 C   0  0  0  0  0  3  0  0  0  0  0  0
   62.8110   56.6290   27.6680 C   0  0  0  0  0  3  0  0  0  0  0  0
   62.1110   57.8240   27.6420 C   0  0  0  0  0  3  0  0  0  0  0  0
   61.1390   58.1440   26.7340 C   0  0  0  0  0  0  0  0  0  0  0  0
   59.4610   57.1890   24.1820 H   0  0  0  0  0  0  0  0  0  0  0  0
   60.1200   64.0280   29.5240 C   0  0  0  0  0  2  0  0  0  0  0  0
   61.3560   64.1320   30.3340 C   0  0  0  0  0  0  0  0  0  0  0  0
   61.2890   64.5600   31.6620 C   0  0  0  0  0  3  0  0  0  0  0  0
   62.5700   64.5610   32.1650 C   0  0  0  0  0  3  0  0  0  0  0  0
   63.3670   64.1520   31.1810 N   0  0  0  0  0  0  0  0  0  0  0  0
   62.6320   63.9000   30.0960 N   0  0  0  0  0  0  0  0  0  0  0  0
   64.7760   64.0350   31.3600 C   0  0  0  0  0  0  0  0  0  0  0  0
   65.2700   64.1530   32.6240 N   0  0  0  0  0  0  0  0  0  0  0  0
   66.5810   64.0610   32.9140 C   0  0  0  0  0  3  0  0  0  0  0  0
   67.5170   63.8400   31.9540 N   0  0  0  0  0  0  0  0  0  0  0  0
   67.0590   63.7180   30.6810 C   0  0  0  0  0  0  0  0  0  0  0  0
   67.9370   63.4930   29.6420 C   0  0  0  0  0  3  0  0  0  0  0  0
   67.5290   63.3570   28.3100 C   0  0  0  0  0  3  0  0  0  0  0  0
   66.1570   63.4640   28.0780 C   0  0  0  0  0  3  0  0  0  0  0  0
   65.2280   63.6900   29.0920 C   0  0  0  0  0  3  0  0  0  0  0  0
   65.7160   63.8130   30.3880 C   0  0  0  0  0  0  0  0  0  0  0  0
  1  6  2  0  0  0  0
  2  1  1  0  0  0  0
  3  2  2  0  0  0  0
  3  4  1  0  0  0  0
  4  5  2  0  0  0  0
  5  6  1  0  0  0  0
  5 17  1  0  0  0  0
  7 15  1  0  0  0  0
  7  2  1  0  0  0  0
  8  7  2  0  0  0  0
  9  8  1  0  0  0  0
  9 10  1  0  0  0  0
 10 15  1  0  0  0  0
 11 10  2  0  0  0  0
 11 12  1  0  0  0  0
 12 13  2  0  0  0  0
 14 13  1  0  0  0  0
 15 14  2  0  0  0  0
 16  9  1  0  0  0  0
 17 18  1  0  0  0  0
 18 19  1  0  0  0  0
 19 20  2  0  0  0  0
 21 23  1  0  0  0  0
 21 20  1  0  0  0  0
 22 18  2  0  0  0  0
 22 21  1  0  0  0  0
 23 24  1  0  0  0  0
 24 25  2  0  0  0  0
 26 25  1  0  0  0  0
 27 26  2  0  0  0  0
 28 27  1  0  0  0  0
 29 28  2  0  0  0  0
 30 29  1  0  0  0  0
 30 31  2  0  0  0  0
 31 32  1  0  0  0  0
 32 27  1  0  0  0  0
 32 23  2  0  0  0  0
M  END
>  <minimizedAffinity>
-7.60603189

$$$$

 OpenBabel03242509233D

 32 37  0  0  0  0  0  0  0  0999 V2000
   63.9060   57.3540   26.5000 C   0  0  0  0  0  3  0  0  0  0  0  0
   62.5910   57.6080   26.8550 C   0  0  0  0  0  0  0  0  0  0  0  0
   62.3060   57.7010   28.2300 C   0  0  0  0  0  3  0  0  0  0  0  0
   63.3350   57.5370   29.1140 N   0  0  0  0  0  0  0  0  0  0  0  0
   64.5810   57.2940   28.7180 C   0  0  0  0  0  0  0  0  0  0  0  0
   64.8810   57.2000   27.4050 N   0  0  0  0  0  0  0  0  0  0  0  0
   61.6000   57.7620   25.8500 C   0  0  0  0  0  0  0  0  0  0  0  0
   61.4280   58.9310   25.0810 C   0  0  0  0  0  3  0  0  0  0  0  0
   60.3870   58.7340   24.2080 N   0  0  0  0  0  0  0  0  0  0  0  0
   59.9070   57.4890   24.4050 C   0  0  0  0  0  0  0  0  0  0  0  0
   58.8560   56.7910   23.7860 C   0  0  0  0  0  3  0  0  0  0  0  0
   58.5570   55.5080   24.1710 C   0  0  0  0  0  3  0  0  0  0  0  0
   59.2840   54.8990   25.1670 C   0  0  0  0  0  3  0  0  0  0  0  0
   60.3090   55.6270   25.7480 C   0  0  0  0  0  3  0  0  0  0  0  0
   60.6530   56.9060   25.4070 C   0  0  0  0  0  0  0  0  0  0  0  0
   60.0350   59.4180   23.5230 H   0  0  0  0  0  0  0  0  0  0  0  0
   65.6290   57.1310   29.7550 C   0  0  0  0  0  2  0  0  0  0  0  0
   65.6430   58.3590   30.5830 C   0  0  0  0  0  0  0  0  0  0  0  0
   65.3010   58.2940   31.9360 C   0  0  0  0  0  3  0  0  0  0  0  0
   65.3990   59.5660   32.4530 C   0  0  0  0  0  3  0  0  0  0  0  0
   65.7820   60.3560   31.4520 N   0  0  0  0  0  0  0  0  0  0  0  0
   65.9230   59.6250   30.3450 N   0  0  0  0  0  0  0  0  0  0  0  0
   65.9810   61.7540   31.6390 C   0  0  0  0  0  0  0  0  0  0  0  0
   65.9730   62.2360   32.9130 N   0  0  0  0  0  0  0  0  0  0  0  0
   66.1510   63.5360   33.2110 C   0  0  0  0  0  3  0  0  0  0  0  0
   66.3540   64.4730   32.2480 N   0  0  0  0  0  0  0  0  0  0  0  0
   66.3680   64.0290   30.9650 C   0  0  0  0  0  0  0  0  0  0  0  0
   66.5670   64.9090   29.9230 C   0  0  0  0  0  3  0  0  0  0  0  0
   66.5940   64.5140   28.5800 C   0  0  0  0  0  3  0  0  0  0  0  0
   66.4020   63.1530   28.3410 C   0  0  0  0  0  3  0  0  0  0  0  0
   66.1970   62.2210   29.3580 C   0  0  0  0  0  3  0  0  0  0  0  0
   66.1860   62.6960   30.6640 C   0  0  0  0  0  0  0  0  0  0  0  0
  1  2  1  0  0  0  0
  1  6  2  0  0  0  0
  2  3  2  0  0  0  0
  3  4  1  0  0  0  0
  5  4  2  0  0  0  0
  5 17  1  0  0  0  0
  6  5  1  0  0  0  0
  7  2  1  0  0  0  0
  8  7  2  0  0  0  0
  9 10  1  0  0  0  0
  9  8  1  0  0  0  0
 10 15  1  0  0  0  0
 11 12  1  0  0  0  0
 11 10  2  0  0  0  0
 12 13  2  0  0  0  0
 13 14  1  0  0  0  0
 15 14  2  0  0  0  0
 15  7  1  0  0  0  0
 16  9  1  0  0  0  0
 17 18  1  0  0  0  0
 18 19  1  0  0  0  0
 19 20  2  0  0  0  0
 21 23  1  0  0  0  0
 21 20  1  0  0  0  0
 22 18  2  0  0  0  0
 22 21  1  0  0  0  0
 23 24  1  0  0  0  0
 24 25  2  0  0  0  0
 26 25  1  0  0  0  0
 27 26  2  0  0  0  0
 28 27  1  0  0  0  0
 29 28  2  0  0  0  0
 30 29  1  0  0  0  0
 30 31  2  0  0  0  0
 31 32  1  0  0  0  0
 32 27  1  0  0  0  0
 32 23  2  0  0  0  0
M  END
>  <minimizedAffinity>
-7.58728361

$$$$

 OpenBabel03242509233D

 32 37  0  0  0  0  0  0  0  0999 V2000
   63.4630   57.0960   28.3190 C   0  0  0  0  0  3  0  0  0  0  0  0
   62.3110   57.7760   27.9530 C   0  0  0  0  0  0  0  0  0  0  0  0
   61.8660   58.7920   28.8180 C   0  0  0  0  0  3  0  0  0  0  0  0
   62.5910   59.0380   29.9500 N   0  0  0  0  0  0  0  0  0  0  0  0
   63.6910   58.3550   30.2540 C   0  0  0  0  0  0  0  0  0  0  0  0
   64.1390   57.3760   29.4410 N   0  0  0  0  0  0  0  0  0  0  0  0
   61.6370   57.4350   26.7510 C   0  0  0  0  0  0  0  0  0  0  0  0
   61.4240   56.1120   26.3100 C   0  0  0  0  0  3  0  0  0  0  0  0
   60.7430   56.1500   25.1190 N   0  0  0  0  0  0  0  0  0  0  0  0
   60.5240   57.4430   24.8040 C   0  0  0  0  0  0  0  0  0  0  0  0
   59.8800   58.0350   23.7040 C   0  0  0  0  0  3  0  0  0  0  0  0
   59.7840   59.4010   23.6110 C   0  0  0  0  0  3  0  0  0  0  0  0
   60.3210   60.1990   24.5930 C   0  0  0  0  0  3  0  0  0  0  0  0
   60.9470   59.5710   25.6570 C   0  0  0  0  0  3  0  0  0  0  0  0
   61.0720   58.2170   25.8050 C   0  0  0  0  0  0  0  0  0  0  0  0
   60.4500   55.3340   24.5640 H   0  0  0  0  0  0  0  0  0  0  0  0
   64.4080   58.6980   31.5060 C   0  0  0  0  0  2  0  0  0  0  0  0
   65.2090   59.9180   31.2500 C   0  0  0  0  0  0  0  0  0  0  0  0
   66.6000   59.8350   31.1560 C   0  0  0  0  0  3  0  0  0  0  0  0
   67.0780   61.1040   30.9170 C   0  0  0  0  0  3  0  0  0  0  0  0
   66.0190   61.9080   30.8700 N   0  0  0  0  0  0  0  0  0  0  0  0
   64.9120   61.1900   31.0700 N   0  0  0  0  0  0  0  0  0  0  0  0
   66.1540   63.3070   30.6380 C   0  0  0  0  0  0  0  0  0  0  0  0
   67.3750   63.7760   30.2570 N   0  0  0  0  0  0  0  0  0  0  0  0
   67.6210   65.0760   30.0090 C   0  0  0  0  0  3  0  0  0  0  0  0
   66.6550   66.0250   30.1220 N   0  0  0  0  0  0  0  0  0  0  0  0
   65.4250   65.5930   30.5010 C   0  0  0  0  0  0  0  0  0  0  0  0
   64.3840   66.4860   30.6420 C   0  0  0  0  0  3  0  0  0  0  0  0
   63.0930   66.1050   31.0270 C   0  0  0  0  0  3  0  0  0  0  0  0
   62.9060   64.7430   31.2690 C   0  0  0  0  0  3  0  0  0  0  0  0
   63.9240   63.7990   31.1400 C   0  0  0  0  0  3  0  0  0  0  0  0
   65.1760   64.2610   30.7530 C   0  0  0  0  0  0  0  0  0  0  0  0
  1  6  2  0  0  0  0
  2  1  1  0  0  0  0
  2  3  2  0  0  0  0
  3  4  1  0  0  0  0
  4  5  2  0  0  0  0
  5 17  1  0  0  0  0
  6  5  1  0  0  0  0
  7  2  1  0  0  0  0
  8  7  2  0  0  0  0
  9  8  1  0  0  0  0
 10  9  1  0  0  0  0
 10 15  1  0  0  0  0
 11 10  2  0  0  0  0
 12 11  1  0  0  0  0
 12 13  2  0  0  0  0
 13 14  1  0  0  0  0
 14 15  2  0  0  0  0
 15  7  1  0  0  0  0
 16  9  1  0  0  0  0
 18 17  1  0  0  0  0
 19 18  1  0  0  0  0
 20 19  2  0  0  0  0
 21 20  1  0  0  0  0
 21 22  1  0  0  0  0
 22 18  2  0  0  0  0
 23 32  1  0  0  0  0
 23 21  1  0  0  0  0
 24 23  2  0  0  0  0
 25 26  2  0  0  0  0
 25 24  1  0  0  0  0
 26 27  1  0  0  0  0
 27 28  2  0  0  0  0
 27 32  1  0  0  0  0
 28 29  1  0  0  0  0
 29 30  2  0  0  0  0
 31 30  1  0  0  0  0
 32 31  2  0  0  0  0
M  END
>  <minimizedAffinity>
-7.55133152

$$$$

 OpenBabel03242509233D

 32 37  0  0  0  0  0  0  0  0999 V2000
   64.7550   57.4150   29.5690 C   0  0  0  0  0  3  0  0  0  0  0  0
   63.4690   57.7770   29.2000 C   0  0  0  0  0  0  0  0  0  0  0  0
   62.9580   58.9680   29.7480 C   0  0  0  0  0  3  0  0  0  0  0  0
   63.7550   59.6800   30.5990 N   0  0  0  0  0  0  0  0  0  0  0  0
   64.9840   59.2860   30.9200 C   0  0  0  0  0  0  0  0  0  0  0  0
   65.4980   58.1480   30.4080 N   0  0  0  0  0  0  0  0  0  0  0  0
   62.7290   56.9590   28.3060 C   0  0  0  0  0  0  0  0  0  0  0  0
   62.5730   55.5650   28.4530 C   0  0  0  0  0  3  0  0  0  0  0  0
   61.8020   55.0970   27.4180 N   0  0  0  0  0  0  0  0  0  0  0  0
   61.4730   56.1450   26.6360 C   0  0  0  0  0  0  0  0  0  0  0  0
   60.7080   56.2220   25.4590 C   0  0  0  0  0  3  0  0  0  0  0  0
   60.5140   57.4300   24.8380 C   0  0  0  0  0  3  0  0  0  0  0  0
   61.0690   58.5730   25.3620 C   0  0  0  0  0  3  0  0  0  0  0  0
   61.8160   58.4490   26.5220 C   0  0  0  0  0  3  0  0  0  0  0  0
   62.0430   57.2740   27.1860 C   0  0  0  0  0  0  0  0  0  0  0  0
   61.5240   54.1180   27.2670 H   0  0  0  0  0  0  0  0  0  0  0  0
   65.7710   60.1290   31.8530 C   0  0  0  0  0  2  0  0  0  0  0  0
   67.0880   59.4790   32.0490 C   0  0  0  0  0  0  0  0  0  0  0  0
   68.1570   59.7970   31.2090 C   0  0  0  0  0  3  0  0  0  0  0  0
   69.2430   59.0550   31.6160 C   0  0  0  0  0  3  0  0  0  0  0  0
   68.8390   58.3260   32.6540 N   0  0  0  0  0  0  0  0  0  0  0  0
   67.5540   58.5880   32.9010 N   0  0  0  0  0  0  0  0  0  0  0  0
   69.7210   57.4330   33.3270 C   0  0  0  0  0  0  0  0  0  0  0  0
   71.0470   57.4910   33.0180 N   0  0  0  0  0  0  0  0  0  0  0  0
   71.9720   56.6980   33.5890 C   0  0  0  0  0  3  0  0  0  0  0  0
   71.6450   55.7700   34.5260 N   0  0  0  0  0  0  0  0  0  0  0  0
   70.3310   55.6840   34.8580 C   0  0  0  0  0  0  0  0  0  0  0  0
   69.9080   54.7710   35.8000 C   0  0  0  0  0  3  0  0  0  0  0  0
   68.5700   54.6330   36.1870 C   0  0  0  0  0  3  0  0  0  0  0  0
   67.6620   55.4850   35.5560 C   0  0  0  0  0  3  0  0  0  0  0  0
   68.0380   56.4250   34.5990 C   0  0  0  0  0  3  0  0  0  0  0  0
   69.3860   56.4980   34.2720 C   0  0  0  0  0  0  0  0  0  0  0  0
  1  6  2  0  0  0  0
  2  1  1  0  0  0  0
  2  3  2  0  0  0  0
  3  4  1  0  0  0  0
  4  5  2  0  0  0  0
  5 17  1  0  0  0  0
  6  5  1  0  0  0  0
  7  8  2  0  0  0  0
  7  2  1  0  0  0  0
  9  8  1  0  0  0  0
 10 15  1  0  0  0  0
 10  9  1  0  0  0  0
 11 10  2  0  0  0  0
 12 13  2  0  0  0  0
 12 11  1  0  0  0  0
 13 14  1  0  0  0  0
 14 15  2  0  0  0  0
 15  7  1  0  0  0  0
 16  9  1  0  0  0  0
 17 18  1  0  0  0  0
 18 22  2  0  0  0  0
 19 20  2  0  0  0  0
 19 18  1  0  0  0  0
 20 21  1  0  0  0  0
 21 22  1  0  0  0  0
 21 23  1  0  0  0  0
 23 32  1  0  0  0  0
 24 23  2  0  0  0  0
 24 25  1  0  0  0  0
 25 26  2  0  0  0  0
 26 27  1  0  0  0  0
 27 28  1  0  0  0  0
 28 29  2  0  0  0  0
 30 29  1  0  0  0  0
 31 30  2  0  0  0  0
 32 31  1  0  0  0  0
 32 27  2  0  0  0  0
M  END
>  <minimizedAffinity>
-7.52380943

$$$$

 OpenBabel03242509233D

 32 37  0  0  0  0  0  0  0  0999 V2000
   62.3690   58.5620   29.2060 C   0  0  0  0  0  3  0  0  0  0  0  0
   62.9930   57.6320   28.3890 C   0  0  0  0  0  0  0  0  0  0  0  0
   64.3780   57.4510   28.5680 C   0  0  0  0  0  3  0  0  0  0  0  0
   65.0070   58.1980   29.5230 N   0  0  0  0  0  0  0  0  0  0  0  0
   64.3580   59.0780   30.2810 C   0  0  0  0  0  0  0  0  0  0  0  0
   63.0300   59.2690   30.1300 N   0  0  0  0  0  0  0  0  0  0  0  0
   62.2390   56.9100   27.4270 C   0  0  0  0  0  0  0  0  0  0  0  0
   62.1010   55.5070   27.4190 C   0  0  0  0  0  3  0  0  0  0  0  0
   61.3080   55.1490   26.3580 N   0  0  0  0  0  0  0  0  0  0  0  0
   60.9470   56.2740   25.7070 C   0  0  0  0  0  0  0  0  0  0  0  0
   60.1510   56.4730   24.5660 C   0  0  0  0  0  3  0  0  0  0  0  0
   59.9290   57.7410   24.0910 C   0  0  0  0  0  3  0  0  0  0  0  0
   60.4860   58.8250   24.7270 C   0  0  0  0  0  3  0  0  0  0  0  0
   61.2630   58.5800   25.8470 C   0  0  0  0  0  3  0  0  0  0  0  0
   61.5200   57.3410   26.3670 C   0  0  0  0  0  0  0  0  0  0  0  0
   61.0360   54.1890   26.1030 H   0  0  0  0  0  0  0  0  0  0  0  0
   65.1310   59.8400   31.2920 C   0  0  0  0  0  2  0  0  0  0  0  0
   65.6250   61.0780   30.6460 C   0  0  0  0  0  0  0  0  0  0  0  0
   64.7220   62.0570   30.2260 C   0  0  0  0  0  3  0  0  0  0  0  0
   65.4500   63.0840   29.6680 C   0  0  0  0  0  3  0  0  0  0  0  0
   66.7310   62.7340   29.7520 N   0  0  0  0  0  0  0  0  0  0  0  0
   66.8210   61.5370   30.3370 N   0  0  0  0  0  0  0  0  0  0  0  0
   67.7690   63.5770   29.2630 C   0  0  0  0  0  0  0  0  0  0  0  0
   67.4400   64.8460   28.8930 N   0  0  0  0  0  0  0  0  0  0  0  0
   68.3350   65.7310   28.4170 C   0  0  0  0  0  3  0  0  0  0  0  0
   69.6490   65.4170   28.2710 N   0  0  0  0  0  0  0  0  0  0  0  0
   70.0140   64.1600   28.6300 C   0  0  0  0  0  0  0  0  0  0  0  0
   71.3260   63.7530   28.5160 C   0  0  0  0  0  3  0  0  0  0  0  0
   71.7650   62.4720   28.8700 C   0  0  0  0  0  3  0  0  0  0  0  0
   70.7870   61.6040   29.3550 C   0  0  0  0  0  3  0  0  0  0  0  0
   69.4470   61.9650   29.4910 C   0  0  0  0  0  3  0  0  0  0  0  0
   69.0940   63.2560   29.1170 C   0  0  0  0  0  0  0  0  0  0  0  0
  1  6  2  0  0  0  0
  2  3  2  0  0  0  0
  2  1  1  0  0  0  0
  3  4  1  0  0  0  0
  4  5  2  0  0  0  0
  5 17  1  0  0  0  0
  6  5  1  0  0  0  0
  7  2  1  0  0  0  0
  8  7  2  0  0  0  0
  9  8  1  0  0  0  0
 10  9  1  0  0  0  0
 10 15  1  0  0  0  0
 11 10  2  0  0  0  0
 12 11  1  0  0  0  0
 12 13  2  0  0  0  0
 13 14  1  0  0  0  0
 14 15  2  0  0  0  0
 15  7  1  0  0  0  0
 16  9  1  0  0  0  0
 18 17  1  0  0  0  0
 19 18  1  0  0  0  0
 20 21  1  0  0  0  0
 20 19  2  0  0  0  0
 21 22  1  0  0  0  0
 22 18  2  0  0  0  0
 23 21  1  0  0  0  0
 24 23  2  0  0  0  0
 25 24  1  0  0  0  0
 26 25  2  0  0  0  0
 26 27  1  0  0  0  0
 27 32  1  0  0  0  0
 28 27  2  0  0  0  0
 28 29  1  0  0  0  0
 29 30  2  0  0  0  0
 30 31  1  0  0  0  0
 32 23  1  0  0  0  0
 32 31  2  0  0  0  0
M  END
>  <minimizedAffinity>
-7.50424004

$$$$

 OpenBabel03242509233D

 32 37  0  0  0  0  0  0  0  0999 V2000
   63.0610   65.2940   30.8800 C   0  0  0  0  0  3  0  0  0  0  0  0
   64.0460   64.5890   30.2060 C   0  0  0  0  0  0  0  0  0  0  0  0
   63.6410   63.4370   29.5050 C   0  0  0  0  0  3  0  0  0  0  0  0
   62.3190   63.0950   29.5370 N   0  0  0  0  0  0  0  0  0  0  0  0
   61.4150   63.8090   30.2010 C   0  0  0  0  0  0  0  0  0  0  0  0
   61.7770   64.9180   30.8800 N   0  0  0  0  0  0  0  0  0  0  0  0
   65.3930   65.0370   30.2420 C   0  0  0  0  0  0  0  0  0  0  0  0
   65.9510   65.7830   31.3000 C   0  0  0  0  0  3  0  0  0  0  0  0
   67.2670   66.0430   31.0090 N   0  0  0  0  0  0  0  0  0  0  0  0
   67.5470   65.4880   29.8120 C   0  0  0  0  0  0  0  0  0  0  0  0
   68.7320   65.4590   29.0570 C   0  0  0  0  0  3  0  0  0  0  0  0
   68.7630   64.8160   27.8450 C   0  0  0  0  0  3  0  0  0  0  0  0
   67.6340   64.1970   27.3610 C   0  0  0  0  0  3  0  0  0  0  0  0
   66.4910   64.2530   28.1400 C   0  0  0  0  0  3  0  0  0  0  0  0
   66.3990   64.8770   29.3540 C   0  0  0  0  0  0  0  0  0  0  0  0
   67.9240   66.5700   31.6000 H   0  0  0  0  0  0  0  0  0  0  0  0
   60.0030   63.3560   30.1740 C   0  0  0  0  0  2  0  0  0  0  0  0
   59.7600   62.7060   28.8650 C   0  0  0  0  0  0  0  0  0  0  0  0
   58.8550   63.2690   27.9620 C   0  0  0  0  0  3  0  0  0  0  0  0
   58.8290   62.4660   26.8430 C   0  0  0  0  0  3  0  0  0  0  0  0
   59.6800   61.4680   27.0690 N   0  0  0  0  0  0  0  0  0  0  0  0
   60.2280   61.6230   28.2770 N   0  0  0  0  0  0  0  0  0  0  0  0
   59.9000   60.4420   26.1060 C   0  0  0  0  0  0  0  0  0  0  0  0
   59.3770   60.6130   24.8600 N   0  0  0  0  0  0  0  0  0  0  0  0
   59.5200   59.7130   23.8710 C   0  0  0  0  0  3  0  0  0  0  0  0
   60.2080   58.5530   24.0470 N   0  0  0  0  0  0  0  0  0  0  0  0
   60.7440   58.3500   25.2770 C   0  0  0  0  0  0  0  0  0  0  0  0
   61.4570   57.2010   25.5470 C   0  0  0  0  0  3  0  0  0  0  0  0
   62.0350   56.9320   26.7930 C   0  0  0  0  0  3  0  0  0  0  0  0
   61.8480   57.9060   27.7750 C   0  0  0  0  0  3  0  0  0  0  0  0
   61.1360   59.0840   27.5540 C   0  0  0  0  0  3  0  0  0  0  0  0
   60.5950   59.2740   26.2890 C   0  0  0  0  0  0  0  0  0  0  0  0
  1  6  2  0  0  0  0
  2  7  1  0  0  0  0
  2  1  1  0  0  0  0
  3  4  1  0  0  0  0
  3  2  2  0  0  0  0
  4  5  2  0  0  0  0
  5  6  1  0  0  0  0
  7  8  2  0  0  0  0
  9  8  1  0  0  0  0
  9 16  1  0  0  0  0
 10  9  1  0  0  0  0
 11 10  2  0  0  0  0
 12 11  1  0  0  0  0
 13 12  2  0  0  0  0
 13 14  1  0  0  0  0
 14 15  2  0  0  0  0
 15 10  1  0  0  0  0
 15  7  1  0  0  0  0
 17  5  1  0  0  0  0
 18 17  1  0  0  0  0
 19 18  1  0  0  0  0
 20 21  1  0  0  0  0
 20 19  2  0  0  0  0
 21 22  1  0  0  0  0
 22 18  2  0  0  0  0
 23 32  1  0  0  0  0
 23 21  1  0  0  0  0
 24 23  2  0  0  0  0
 25 26  2  0  0  0  0
 25 24  1  0  0  0  0
 26 27  1  0  0  0  0
 27 28  2  0  0  0  0
 27 32  1  0  0  0  0
 28 29  1  0  0  0  0
 29 30  2  0  0  0  0
 31 30  1  0  0  0  0
 32 31  2  0  0  0  0
M  END
>  <minimizedAffinity>
-7.475986

$$$$
