
 OpenBabel03242509213D

 35 40  0  0  1  0  0  0  0  0999 V2000
   65.6360   57.4420   31.5790 C   0  0  2  0  0  3  0  0  0  0  0  0
   65.0890   58.6710   32.1300 C   0  0  0  0  0  2  0  0  0  0  0  0
   66.4760   58.3980   32.4570 C   0  0  2  0  0  3  0  0  0  0  0  0
   67.6250   59.1070   31.8580 C   0  0  0  0  0  0  0  0  0  0  0  0
   68.9560   58.7820   31.8040 N   0  0  0  0  0  0  0  0  0  0  0  0
   69.5830   59.7290   31.1860 O   0  0  0  0  0  0  0  0  0  0  0  0
   68.7450   60.6690   30.8220 C   0  0  0  0  0  0  0  0  0  0  0  0
   67.5070   60.2980   31.2370 N   0  0  0  0  0  0  0  0  0  0  0  0
   69.1300   61.8780   30.1040 C   0  0  0  0  0  0  0  0  0  0  0  0
   70.3850   62.4420   30.1980 C   0  0  0  0  0  3  0  0  0  0  0  0
   70.4480   63.5500   29.4250 N   0  0  0  0  0  0  0  0  0  0  0  0
   69.2410   63.6730   28.8540 C   0  0  0  0  0  0  0  0  0  0  0  0
   68.6980   64.5910   27.9750 C   0  0  0  0  0  3  0  0  0  0  0  0
   67.4110   64.5620   27.4800 C   0  0  0  0  0  3  0  0  0  0  0  0
   66.6410   63.5190   27.9250 C   0  0  0  0  0  3  0  0  0  0  0  0
   67.0810   62.5480   28.8010 C   0  0  0  0  0  3  0  0  0  0  0  0
   68.3830   62.6510   29.2480 C   0  0  0  0  0  0  0  0  0  0  0  0
   71.2580   64.1730   29.3000 H   0  0  0  0  0  0  0  0  0  0  0  0
   65.9970   57.2870   30.1530 C   0  0  0  0  0  2  0  0  0  0  0  0
   63.5080   57.2650   29.5880 C   0  0  0  0  0  3  0  0  0  0  0  0
   64.8690   57.2880   29.2560 C   0  0  0  0  0  0  0  0  0  0  0  0
   65.1970   57.3130   27.9260 C   0  0  0  0  0  3  0  0  0  0  0  0
   64.1810   57.3140   26.9960 N   0  0  0  0  0  0  0  0  0  0  0  0
   62.8730   57.2920   27.3440 C   0  0  0  0  0  0  0  0  0  0  0  0
   62.5550   57.2670   28.6480 N   0  0  0  0  0  0  0  0  0  0  0  0
   61.8950   57.2940   26.3110 N   0  0  0  0  0  0  0  0  0  0  0  0
   61.7220   58.3920   25.5630 C   0  0  0  0  0  3  0  0  0  0  0  0
   60.8070   58.5140   24.5370 C   0  0  0  0  0  0  0  0  0  0  0  0
   60.0170   57.4200   24.2700 C   0  0  0  0  0  0  0  0  0  0  0  0
   59.1730   57.4660   23.3570 O   0  0  0  0  0  0  0  0  0  0  0  0
   60.1980   56.3020   25.0380 N   0  0  0  0  0  0  0  0  0  0  0  0
   61.1140   56.2410   26.0350 C   0  0  0  0  0  0  0  0  0  0  0  0
   61.2420   55.1830   26.7160 O   0  0  0  0  0  0  0  0  0  0  0  0
   60.7110   59.7890   23.7740 C   0  0  0  0  0  1  0  0  0  0  0  0
   59.6150   55.4730   24.8500 H   0  0  0  0  0  0  0  0  0  0  0  0
  1 19  1  6  0  0  0
  1  2  1  0  0  0  0
  1  3  1  0  0  0  0
  2  3  1  0  0  0  0
  3  4  1  6  0  0  0
  5  4  2  0  0  0  0
  6  5  1  0  0  0  0
  7  6  1  0  0  0  0
  7  8  2  0  0  0  0
  8  4  1  0  0  0  0
  9 10  2  0  0  0  0
  9  7  1  0  0  0  0
 11 10  1  0  0  0  0
 12 17  1  0  0  0  0
 12 11  1  0  0  0  0
 13 12  2  0  0  0  0
 14 15  2  0  0  0  0
 14 13  1  0  0  0  0
 15 16  1  0  0  0  0
 16 17  2  0  0  0  0
 17  9  1  0  0  0  0
 18 11  1  0  0  0  0
 21 20  1  0  0  0  0
 21 19  1  0  0  0  0
 22 21  2  0  0  0  0
 23 24  2  0  0  0  0
 23 22  1  0  0  0  0
 24 25  1  0  0  0  0
 25 20  2  0  0  0  0
 26 24  1  0  0  0  0
 27 26  1  0  0  0  0
 28 27  2  0  0  0  0
 29 28  1  0  0  0  0
 29 31  1  0  0  0  0
 30 29  2  0  0  0  0
 31 32  1  0  0  0  0
 32 26  1  0  0  0  0
 32 33  2  0  0  0  0
 34 28  1  0  0  0  0
 35 31  1  0  0  0  0
M  END
>  <minimizedAffinity>
-8.38062668

$$$$

 OpenBabel03242509213D

 35 40  0  0  1  0  0  0  0  0999 V2000
   64.9770   57.4920   31.0520 C   0  0  2  0  0  3  0  0  0  0  0  0
   64.3480   58.6950   31.5720 C   0  0  0  0  0  2  0  0  0  0  0  0
   65.6690   58.4000   32.0950 C   0  0  2  0  0  3  0  0  0  0  0  0
   66.8950   59.1320   31.7150 C   0  0  0  0  0  0  0  0  0  0  0  0
   68.2150   58.7700   31.7750 N   0  0  0  0  0  0  0  0  0  0  0  0
   68.9300   59.7580   31.3440 O   0  0  0  0  0  0  0  0  0  0  0  0
   68.1600   60.7600   30.9970 C   0  0  0  0  0  0  0  0  0  0  0  0
   66.8740   60.3880   31.2230 N   0  0  0  0  0  0  0  0  0  0  0  0
   68.6510   62.0270   30.4700 C   0  0  0  0  0  0  0  0  0  0  0  0
   69.7830   62.6540   30.9460 C   0  0  0  0  0  3  0  0  0  0  0  0
   69.9890   63.8050   30.2690 N   0  0  0  0  0  0  0  0  0  0  0  0
   68.9920   63.8950   29.3760 C   0  0  0  0  0  0  0  0  0  0  0  0
   68.6630   64.8300   28.4140 C   0  0  0  0  0  3  0  0  0  0  0  0
   67.5780   64.7590   27.5650 C   0  0  0  0  0  3  0  0  0  0  0  0
   66.7870   63.6520   27.7260 C   0  0  0  0  0  3  0  0  0  0  0  0
   67.0220   62.6580   28.6540 C   0  0  0  0  0  3  0  0  0  0  0  0
   68.1300   62.8060   29.4630 C   0  0  0  0  0  0  0  0  0  0  0  0
   70.7560   64.4780   30.4090 H   0  0  0  0  0  0  0  0  0  0  0  0
   65.5530   57.4040   29.6920 C   0  0  0  0  0  2  0  0  0  0  0  0
   64.7930   57.2820   27.2590 C   0  0  0  0  0  3  0  0  0  0  0  0
   64.5710   57.3010   28.6420 C   0  0  0  0  0  0  0  0  0  0  0  0
   63.2760   57.2160   29.0790 C   0  0  0  0  0  3  0  0  0  0  0  0
   62.2700   57.1170   28.1430 N   0  0  0  0  0  0  0  0  0  0  0  0
   62.5110   57.1000   26.8120 C   0  0  0  0  0  0  0  0  0  0  0  0
   63.7820   57.1840   26.3860 N   0  0  0  0  0  0  0  0  0  0  0  0
   61.4060   56.9960   25.9210 N   0  0  0  0  0  0  0  0  0  0  0  0
   60.7130   55.8500   25.8550 C   0  0  0  0  0  3  0  0  0  0  0  0
   59.6270   55.6300   25.0330 C   0  0  0  0  0  0  0  0  0  0  0  0
   59.2330   56.6700   24.2230 C   0  0  0  0  0  0  0  0  0  0  0  0
   58.2600   56.5360   23.4600 O   0  0  0  0  0  0  0  0  0  0  0  0
   59.9450   57.8370   24.2960 N   0  0  0  0  0  0  0  0  0  0  0  0
   61.0060   57.9950   25.1240 C   0  0  0  0  0  0  0  0  0  0  0  0
   61.6300   59.0950   25.1540 O   0  0  0  0  0  0  0  0  0  0  0  0
   58.9370   54.3110   25.0500 C   0  0  0  0  0  1  0  0  0  0  0  0
   59.6620   58.6270   23.6970 H   0  0  0  0  0  0  0  0  0  0  0  0
  1 19  1  6  0  0  0
  1  2  1  0  0  0  0
  1  3  1  0  0  0  0
  2  3  1  0  0  0  0
  3  4  1  6  0  0  0
  4  5  2  0  0  0  0
  6  5  1  0  0  0  0
  7  8  2  0  0  0  0
  7  6  1  0  0  0  0
  8  4  1  0  0  0  0
  9 10  2  0  0  0  0
  9  7  1  0  0  0  0
 11 18  1  0  0  0  0
 11 10  1  0  0  0  0
 12 17  1  0  0  0  0
 12 11  1  0  0  0  0
 13 12  2  0  0  0  0
 14 15  2  0  0  0  0
 14 13  1  0  0  0  0
 15 16  1  0  0  0  0
 16 17  2  0  0  0  0
 17  9  1  0  0  0  0
 20 21  1  0  0  0  0
 21 22  2  0  0  0  0
 21 19  1  0  0  0  0
 23 22  1  0  0  0  0
 24 23  2  0  0  0  0
 25 24  1  0  0  0  0
 25 20  2  0  0  0  0
 26 24  1  0  0  0  0
 27 26  1  0  0  0  0
 28 34  1  0  0  0  0
 28 27  2  0  0  0  0
 29 31  1  0  0  0  0
 29 28  1  0  0  0  0
 30 29  2  0  0  0  0
 31 32  1  0  0  0  0
 32 33  2  0  0  0  0
 32 26  1  0  0  0  0
 35 31  1  0  0  0  0
M  END
>  <minimizedAffinity>
-8.33794498

$$$$

 OpenBabel03242509213D

 35 40  0  0  1  0  0  0  0  0999 V2000
   62.8660   56.6610   28.3250 C   0  0  2  0  0  3  0  0  0  0  0  0
   63.4590   56.3290   27.0400 C   0  0  0  0  0  2  0  0  0  0  0  0
   62.0480   56.6710   27.0130 C   0  0  2  0  0  3  0  0  0  0  0  0
   61.5140   57.9500   26.5040 C   0  0  0  0  0  0  0  0  0  0  0  0
   61.6480   58.5600   25.2840 N   0  0  0  0  0  0  0  0  0  0  0  0
   61.0100   59.6840   25.3170 O   0  0  0  0  0  0  0  0  0  0  0  0
   60.4550   59.8590   26.4920 C   0  0  0  0  0  0  0  0  0  0  0  0
   60.7610   58.7790   27.2550 N   0  0  0  0  0  0  0  0  0  0  0  0
   59.6630   61.0260   26.8590 C   0  0  0  0  0  0  0  0  0  0  0  0
   58.3980   61.2650   26.3640 C   0  0  0  0  0  3  0  0  0  0  0  0
   57.9140   62.4170   26.8790 N   0  0  0  0  0  0  0  0  0  0  0  0
   58.8710   62.8920   27.6910 C   0  0  0  0  0  0  0  0  0  0  0  0
   58.9650   64.0160   28.4890 C   0  0  0  0  0  3  0  0  0  0  0  0
   60.0470   64.3530   29.2750 C   0  0  0  0  0  3  0  0  0  0  0  0
   61.0940   63.4700   29.2290 C   0  0  0  0  0  3  0  0  0  0  0  0
   61.1070   62.3190   28.4680 C   0  0  0  0  0  3  0  0  0  0  0  0
   59.9830   62.0570   27.7110 C   0  0  0  0  0  0  0  0  0  0  0  0
   56.9970   62.8450   26.6880 H   0  0  0  0  0  0  0  0  0  0  0  0
   63.1100   57.9450   29.0200 C   0  0  0  0  0  2  0  0  0  0  0  0
   63.9740   58.3080   31.3940 C   0  0  0  0  0  3  0  0  0  0  0  0
   64.0950   57.8690   30.0690 C   0  0  0  0  0  0  0  0  0  0  0  0
   65.2820   57.2960   29.6960 C   0  0  0  0  0  3  0  0  0  0  0  0
   66.2840   57.1850   30.6350 N   0  0  0  0  0  0  0  0  0  0  0  0
   66.1410   57.6170   31.9090 C   0  0  0  0  0  0  0  0  0  0  0  0
   64.9770   58.1780   32.2720 N   0  0  0  0  0  0  0  0  0  0  0  0
   67.2330   57.4600   32.8070 N   0  0  0  0  0  0  0  0  0  0  0  0
   67.5830   56.2320   33.2170 C   0  0  0  0  0  3  0  0  0  0  0  0
   68.6210   55.9540   34.0840 C   0  0  0  0  0  0  0  0  0  0  0  0
   69.3430   57.0240   34.5590 C   0  0  0  0  0  0  0  0  0  0  0  0
   70.2910   56.8400   35.3430 O   0  0  0  0  0  0  0  0  0  0  0  0
   68.9800   58.2750   34.1370 N   0  0  0  0  0  0  0  0  0  0  0  0
   67.9500   58.4870   33.2830 C   0  0  0  0  0  0  0  0  0  0  0  0
   67.6550   59.6630   32.9230 O   0  0  0  0  0  0  0  0  0  0  0  0
   68.9140   54.5450   34.4640 C   0  0  0  0  0  1  0  0  0  0  0  0
   69.5120   59.0870   34.4830 H   0  0  0  0  0  0  0  0  0  0  0  0
  1 19  1  6  0  0  0
  2  1  1  0  0  0  0
  3  4  1  6  0  0  0
  3  2  1  0  0  0  0
  3  1  1  0  0  0  0
  4  8  1  0  0  0  0
  5  6  1  0  0  0  0
  5  4  2  0  0  0  0
  6  7  1  0  0  0  0
  7  9  1  0  0  0  0
  7  8  2  0  0  0  0
  9 17  1  0  0  0  0
 10  9  2  0  0  0  0
 10 11  1  0  0  0  0
 11 12  1  0  0  0  0
 12 17  2  0  0  0  0
 12 13  1  0  0  0  0
 13 14  2  0  0  0  0
 15 14  1  0  0  0  0
 16 15  2  0  0  0  0
 17 16  1  0  0  0  0
 18 11  1  0  0  0  0
 19 21  1  0  0  0  0
 20 25  2  0  0  0  0
 21 20  1  0  0  0  0
 22 21  2  0  0  0  0
 22 23  1  0  0  0  0
 23 24  2  0  0  0  0
 24 25  1  0  0  0  0
 24 26  1  0  0  0  0
 26 27  1  0  0  0  0
 26 32  1  0  0  0  0
 27 28  2  0  0  0  0
 28 34  1  0  0  0  0
 28 29  1  0  0  0  0
 29 30  2  0  0  0  0
 31 35  1  0  0  0  0
 31 29  1  0  0  0  0
 32 31  1  0  0  0  0
 33 32  2  0  0  0  0
M  END
>  <minimizedAffinity>
-8.15899277

$$$$

 OpenBabel03242509213D

 35 40  0  0  1  0  0  0  0  0999 V2000
   61.5490   56.0720   26.0460 C   0  0  2  0  0  3  0  0  0  0  0  0
   60.6430   55.9420   24.9160 C   0  0  0  0  0  2  0  0  0  0  0  0
   60.2190   56.8560   25.9610 C   0  0  2  0  0  3  0  0  0  0  0  0
   60.2550   58.3280   25.8400 C   0  0  0  0  0  0  0  0  0  0  0  0
   60.7690   59.1390   24.8620 N   0  0  0  0  0  0  0  0  0  0  0  0
   60.5760   60.3700   25.2090 O   0  0  0  0  0  0  0  0  0  0  0  0
   59.9600   60.4270   26.3640 C   0  0  0  0  0  0  0  0  0  0  0  0
   59.7490   59.1520   26.7800 N   0  0  0  0  0  0  0  0  0  0  0  0
   59.5930   61.6660   27.0380 C   0  0  0  0  0  0  0  0  0  0  0  0
   58.4270   62.3520   26.7720 C   0  0  0  0  0  3  0  0  0  0  0  0
   58.3600   63.4590   27.5450 N   0  0  0  0  0  0  0  0  0  0  0  0
   59.4760   63.4610   28.2890 C   0  0  0  0  0  0  0  0  0  0  0  0
   59.9700   64.3180   29.2520 C   0  0  0  0  0  3  0  0  0  0  0  0
   61.1620   64.1620   29.9300 C   0  0  0  0  0  3  0  0  0  0  0  0
   61.8830   63.0490   29.5840 C   0  0  0  0  0  3  0  0  0  0  0  0
   61.4840   62.1280   28.6380 C   0  0  0  0  0  3  0  0  0  0  0  0
   60.2780   62.3600   28.0070 C   0  0  0  0  0  0  0  0  0  0  0  0
   57.6040   64.1590   27.5610 H   0  0  0  0  0  0  0  0  0  0  0  0
   62.8220   56.8230   25.9790 C   0  0  0  0  0  2  0  0  0  0  0  0
   62.6990   57.3600   28.4710 C   0  0  0  0  0  3  0  0  0  0  0  0
   63.3820   57.1500   27.2670 C   0  0  0  0  0  0  0  0  0  0  0  0
   64.7470   57.2630   27.2820 C   0  0  0  0  0  3  0  0  0  0  0  0
   65.3680   57.5760   28.4710 N   0  0  0  0  0  0  0  0  0  0  0  0
   64.6840   57.7740   29.6220 C   0  0  0  0  0  0  0  0  0  0  0  0
   63.3470   57.6630   29.6030 N   0  0  0  0  0  0  0  0  0  0  0  0
   65.4150   58.0950   30.8000 N   0  0  0  0  0  0  0  0  0  0  0  0
   66.1940   57.1660   31.3710 C   0  0  0  0  0  3  0  0  0  0  0  0
   66.9460   57.3580   32.5120 C   0  0  0  0  0  0  0  0  0  0  0  0
   66.8850   58.6000   33.1010 C   0  0  0  0  0  0  0  0  0  0  0  0
   67.5410   58.8370   34.1310 O   0  0  0  0  0  0  0  0  0  0  0  0
   66.0880   59.5440   32.5120 N   0  0  0  0  0  0  0  0  0  0  0  0
   65.3700   59.2970   31.3900 C   0  0  0  0  0  0  0  0  0  0  0  0
   64.6480   60.2050   30.8850 O   0  0  0  0  0  0  0  0  0  0  0  0
   67.7760   56.2450   33.0510 C   0  0  0  0  0  1  0  0  0  0  0  0
   66.0320   60.4800   32.9400 H   0  0  0  0  0  0  0  0  0  0  0  0
  1 19  1  6  0  0  0
  2  3  1  0  0  0  0
  2  1  1  0  0  0  0
  3  4  1  6  0  0  0
  3  1  1  0  0  0  0
  4  8  1  0  0  0  0
  5  6  1  0  0  0  0
  5  4  2  0  0  0  0
  6  7  1  0  0  0  0
  7  8  2  0  0  0  0
  7  9  1  0  0  0  0
  9 17  1  0  0  0  0
 10  9  2  0  0  0  0
 10 11  1  0  0  0  0
 11 18  1  0  0  0  0
 11 12  1  0  0  0  0
 12 13  1  0  0  0  0
 13 14  2  0  0  0  0
 15 14  1  0  0  0  0
 16 15  2  0  0  0  0
 17 12  2  0  0  0  0
 17 16  1  0  0  0  0
 19 21  1  0  0  0  0
 20 25  2  0  0  0  0
 21 22  2  0  0  0  0
 21 20  1  0  0  0  0
 22 23  1  0  0  0  0
 23 24  2  0  0  0  0
 24 26  1  0  0  0  0
 25 24  1  0  0  0  0
 26 27  1  0  0  0  0
 26 32  1  0  0  0  0
 27 28  2  0  0  0  0
 28 34  1  0  0  0  0
 28 29  1  0  0  0  0
 29 30  2  0  0  0  0
 31 35  1  0  0  0  0
 31 29  1  0  0  0  0
 32 31  1  0  0  0  0
 33 32  2  0  0  0  0
M  END
>  <minimizedAffinity>
-8.00280952

$$$$

 OpenBabel03242509213D

 35 40  0  0  1  0  0  0  0  0999 V2000
   62.6370   56.4770   28.4420 C   0  0  2  0  0  3  0  0  0  0  0  0
   63.0000   55.6690   27.2890 C   0  0  0  0  0  2  0  0  0  0  0  0
   61.7240   56.3560   27.2000 C   0  0  2  0  0  3  0  0  0  0  0  0
   61.4820   57.5490   26.3630 C   0  0  0  0  0  0  0  0  0  0  0  0
   62.2260   58.1110   25.3590 N   0  0  0  0  0  0  0  0  0  0  0  0
   61.6080   59.1640   24.9330 O   0  0  0  0  0  0  0  0  0  0  0  0
   60.4910   59.3360   25.5960 C   0  0  0  0  0  0  0  0  0  0  0  0
   60.3920   58.3310   26.5020 N   0  0  0  0  0  0  0  0  0  0  0  0
   59.5590   60.4320   25.3610 C   0  0  0  0  0  0  0  0  0  0  0  0
   58.8730   60.5970   24.1760 C   0  0  0  0  0  3  0  0  0  0  0  0
   58.0870   61.6950   24.2510 N   0  0  0  0  0  0  0  0  0  0  0  0
   58.2820   62.2080   25.4740 C   0  0  0  0  0  0  0  0  0  0  0  0
   57.7680   63.3090   26.1320 C   0  0  0  0  0  3  0  0  0  0  0  0
   58.0860   63.6960   27.4180 C   0  0  0  0  0  3  0  0  0  0  0  0
   58.9920   62.8910   28.0570 C   0  0  0  0  0  3  0  0  0  0  0  0
   59.5670   61.7700   27.4960 C   0  0  0  0  0  3  0  0  0  0  0  0
   59.1930   61.4540   26.2050 C   0  0  0  0  0  0  0  0  0  0  0  0
   57.4650   62.0630   23.5170 H   0  0  0  0  0  0  0  0  0  0  0  0
   63.2620   57.7850   28.7400 C   0  0  0  0  0  2  0  0  0  0  0  0
   64.0150   58.2050   31.1420 C   0  0  0  0  0  3  0  0  0  0  0  0
   64.2050   57.7530   29.8300 C   0  0  0  0  0  0  0  0  0  0  0  0
   65.4230   57.2100   29.5150 C   0  0  0  0  0  3  0  0  0  0  0  0
   66.3870   57.1420   30.4960 N   0  0  0  0  0  0  0  0  0  0  0  0
   66.1780   57.5860   31.7570 C   0  0  0  0  0  0  0  0  0  0  0  0
   64.9840   58.1170   32.0630 N   0  0  0  0  0  0  0  0  0  0  0  0
   67.2360   57.4740   32.7020 N   0  0  0  0  0  0  0  0  0  0  0  0
   67.6050   56.2630   33.1420 C   0  0  0  0  0  3  0  0  0  0  0  0
   68.6130   56.0280   34.0560 C   0  0  0  0  0  0  0  0  0  0  0  0
   69.2830   57.1250   34.5450 C   0  0  0  0  0  0  0  0  0  0  0  0
   70.2030   56.9800   35.3710 O   0  0  0  0  0  0  0  0  0  0  0  0
   68.9010   58.3590   34.0910 N   0  0  0  0  0  0  0  0  0  0  0  0
   67.9020   58.5280   33.1910 C   0  0  0  0  0  0  0  0  0  0  0  0
   67.5870   59.6900   32.8030 O   0  0  0  0  0  0  0  0  0  0  0  0
   68.9320   54.6330   34.4680 C   0  0  0  0  0  1  0  0  0  0  0  0
   69.3940   59.1910   34.4460 H   0  0  0  0  0  0  0  0  0  0  0  0
  1 19  1  6  0  0  0
  2  1  1  0  0  0  0
  3  4  1  6  0  0  0
  3  2  1  0  0  0  0
  3  1  1  0  0  0  0
  4  8  1  0  0  0  0
  5  4  2  0  0  0  0
  6  5  1  0  0  0  0
  6  7  1  0  0  0  0
  7  8  2  0  0  0  0
  9  7  1  0  0  0  0
  9 17  1  0  0  0  0
 10 11  1  0  0  0  0
 10  9  2  0  0  0  0
 11 12  1  0  0  0  0
 12 13  2  0  0  0  0
 12 17  1  0  0  0  0
 13 14  1  0  0  0  0
 14 15  2  0  0  0  0
 16 15  1  0  0  0  0
 17 16  2  0  0  0  0
 18 11  1  0  0  0  0
 19 21  1  0  0  0  0
 20 25  2  0  0  0  0
 21 20  1  0  0  0  0
 22 21  2  0  0  0  0
 22 23  1  0  0  0  0
 23 24  2  0  0  0  0
 24 25  1  0  0  0  0
 24 26  1  0  0  0  0
 26 27  1  0  0  0  0
 26 32  1  0  0  0  0
 27 28  2  0  0  0  0
 28 34  1  0  0  0  0
 28 29  1  0  0  0  0
 29 30  2  0  0  0  0
 31 35  1  0  0  0  0
 31 29  1  0  0  0  0
 32 31  1  0  0  0  0
 33 32  2  0  0  0  0
M  END
>  <minimizedAffinity>
-7.86753654

$$$$

 OpenBabel03242509213D

 35 40  0  0  1  0  0  0  0  0999 V2000
   64.9200   57.3520   31.1090 C   0  0  2  0  0  3  0  0  0  0  0  0
   64.4560   58.4380   31.9560 C   0  0  0  0  0  2  0  0  0  0  0  0
   65.7200   57.8380   32.3400 C   0  0  2  0  0  3  0  0  0  0  0  0
   67.0370   58.4760   32.1390 C   0  0  0  0  0  0  0  0  0  0  0  0
   67.3960   59.6030   31.4450 N   0  0  0  0  0  0  0  0  0  0  0  0
   68.6760   59.7530   31.5440 O   0  0  0  0  0  0  0  0  0  0  0  0
   69.1940   58.7910   32.2680 C   0  0  0  0  0  0  0  0  0  0  0  0
   68.1790   57.9750   32.6520 N   0  0  0  0  0  0  0  0  0  0  0  0
   70.6140   58.6670   32.5720 C   0  0  0  0  0  0  0  0  0  0  0  0
   71.5160   59.6950   32.3930 C   0  0  0  0  0  3  0  0  0  0  0  0
   72.7520   59.2880   32.7570 N   0  0  0  0  0  0  0  0  0  0  0  0
   72.6210   58.0160   33.1610 C   0  0  0  0  0  0  0  0  0  0  0  0
   73.5140   57.0780   33.6420 C   0  0  0  0  0  3  0  0  0  0  0  0
   73.1980   55.7890   34.0180 C   0  0  0  0  0  3  0  0  0  0  0  0
   71.8750   55.4540   33.8860 C   0  0  0  0  0  3  0  0  0  0  0  0
   70.9010   56.3110   33.4180 C   0  0  0  0  0  3  0  0  0  0  0  0
   71.3020   57.5830   33.0640 C   0  0  0  0  0  0  0  0  0  0  0  0
   73.6200   59.8420   32.7310 H   0  0  0  0  0  0  0  0  0  0  0  0
   65.4910   57.5660   29.7610 C   0  0  0  0  0  2  0  0  0  0  0  0
   64.8030   57.3000   27.3180 C   0  0  0  0  0  3  0  0  0  0  0  0
   64.5390   57.4200   28.6880 C   0  0  0  0  0  0  0  0  0  0  0  0
   63.2290   57.3990   29.0870 C   0  0  0  0  0  3  0  0  0  0  0  0
   62.2510   57.2650   28.1280 N   0  0  0  0  0  0  0  0  0  0  0  0
   62.5320   57.1510   26.8090 C   0  0  0  0  0  0  0  0  0  0  0  0
   63.8170   57.1710   26.4210 N   0  0  0  0  0  0  0  0  0  0  0  0
   61.4520   57.0180   25.8920 N   0  0  0  0  0  0  0  0  0  0  0  0
   60.7280   55.8900   25.8790 C   0  0  0  0  0  3  0  0  0  0  0  0
   59.6620   55.6440   25.0380 C   0  0  0  0  0  0  0  0  0  0  0  0
   59.3240   56.6380   24.1490 C   0  0  0  0  0  0  0  0  0  0  0  0
   58.3720   56.4790   23.3640 O   0  0  0  0  0  0  0  0  0  0  0  0
   60.0680   57.7870   24.1660 N   0  0  0  0  0  0  0  0  0  0  0  0
   61.1070   57.9710   25.0170 C   0  0  0  0  0  0  0  0  0  0  0  0
   61.7630   59.0530   24.9940 O   0  0  0  0  0  0  0  0  0  0  0  0
   58.9330   54.3490   25.1210 C   0  0  0  0  0  1  0  0  0  0  0  0
   59.8280   58.5420   23.5070 H   0  0  0  0  0  0  0  0  0  0  0  0
  1 19  1  6  0  0  0
  1  2  1  0  0  0  0
  1  3  1  0  0  0  0
  2  3  1  0  0  0  0
  3  4  1  6  0  0  0
  4  8  1  0  0  0  0
  5  6  1  0  0  0  0
  5  4  2  0  0  0  0
  6  7  1  0  0  0  0
  7  9  1  0  0  0  0
  7  8  2  0  0  0  0
  9 17  1  0  0  0  0
 10  9  2  0  0  0  0
 10 11  1  0  0  0  0
 11 12  1  0  0  0  0
 12 13  1  0  0  0  0
 13 14  2  0  0  0  0
 15 14  1  0  0  0  0
 16 15  2  0  0  0  0
 17 12  2  0  0  0  0
 17 16  1  0  0  0  0
 18 11  1  0  0  0  0
 20 21  1  0  0  0  0
 21 22  2  0  0  0  0
 21 19  1  0  0  0  0
 23 22  1  0  0  0  0
 24 23  2  0  0  0  0
 25 24  1  0  0  0  0
 25 20  2  0  0  0  0
 26 24  1  0  0  0  0
 27 26  1  0  0  0  0
 28 34  1  0  0  0  0
 28 27  2  0  0  0  0
 29 31  1  0  0  0  0
 29 28  1  0  0  0  0
 30 29  2  0  0  0  0
 31 32  1  0  0  0  0
 32 26  1  0  0  0  0
 33 32  2  0  0  0  0
 35 31  1  0  0  0  0
M  END
>  <minimizedAffinity>
-7.64539051

$$$$

 OpenBabel03242509213D

 35 40  0  0  1  0  0  0  0  0999 V2000
   64.3620   56.5730   27.2530 C   0  0  2  0  0  3  0  0  0  0  0  0
   64.7370   57.0830   25.9440 C   0  0  0  0  0  2  0  0  0  0  0  0
   63.5680   56.2240   25.9730 C   0  0  2  0  0  3  0  0  0  0  0  0
   62.1800   56.7090   25.8300 C   0  0  0  0  0  0  0  0  0  0  0  0
   60.9800   56.0900   26.0710 N   0  0  0  0  0  0  0  0  0  0  0  0
   60.0290   56.9160   25.7800 O   0  0  0  0  0  0  0  0  0  0  0  0
   60.5250   58.0530   25.3590 C   0  0  0  0  0  0  0  0  0  0  0  0
   61.8780   57.9440   25.3820 N   0  0  0  0  0  0  0  0  0  0  0  0
   59.7210   59.1980   24.9500 C   0  0  0  0  0  0  0  0  0  0  0  0
   59.0530   59.2580   23.7450 C   0  0  0  0  0  3  0  0  0  0  0  0
   58.3950   60.4340   23.6440 N   0  0  0  0  0  0  0  0  0  0  0  0
   58.6510   61.1020   24.7790 C   0  0  0  0  0  0  0  0  0  0  0  0
   58.2670   62.3400   25.2560 C   0  0  0  0  0  3  0  0  0  0  0  0
   58.6310   62.8780   26.4730 C   0  0  0  0  0  3  0  0  0  0  0  0
   59.4440   62.0840   27.2380 C   0  0  0  0  0  3  0  0  0  0  0  0
   59.8870   60.8340   26.8590 C   0  0  0  0  0  3  0  0  0  0  0  0
   59.4750   60.3700   25.6260 C   0  0  0  0  0  0  0  0  0  0  0  0
   57.8150   60.7540   22.8550 H   0  0  0  0  0  0  0  0  0  0  0  0
   63.7120   57.4060   28.2870 C   0  0  0  0  0  2  0  0  0  0  0  0
   63.9800   57.9320   30.7710 C   0  0  0  0  0  3  0  0  0  0  0  0
   64.4430   57.4840   29.5270 C   0  0  0  0  0  0  0  0  0  0  0  0
   65.7450   57.0650   29.4480 C   0  0  0  0  0  3  0  0  0  0  0  0
   66.5210   57.1070   30.5850 N   0  0  0  0  0  0  0  0  0  0  0  0
   66.0480   57.5440   31.7760 C   0  0  0  0  0  0  0  0  0  0  0  0
   64.7720   57.9540   31.8500 N   0  0  0  0  0  0  0  0  0  0  0  0
   66.9260   57.5520   32.8950 N   0  0  0  0  0  0  0  0  0  0  0  0
   67.3270   56.3900   33.4310 C   0  0  0  0  0  3  0  0  0  0  0  0
   68.1740   56.2700   34.5140 C   0  0  0  0  0  0  0  0  0  0  0  0
   68.6360   57.4360   35.0800 C   0  0  0  0  0  0  0  0  0  0  0  0
   69.4030   57.3960   36.0590 O   0  0  0  0  0  0  0  0  0  0  0  0
   68.2230   58.6190   34.5280 N   0  0  0  0  0  0  0  0  0  0  0  0
   67.3870   58.6740   33.4620 C   0  0  0  0  0  0  0  0  0  0  0  0
   67.0350   59.7930   32.9890 O   0  0  0  0  0  0  0  0  0  0  0  0
   68.5490   54.9210   35.0190 C   0  0  0  0  0  1  0  0  0  0  0  0
   68.5600   59.5010   34.9390 H   0  0  0  0  0  0  0  0  0  0  0  0
  1 19  1  1  0  0  0
  2  3  1  0  0  0  0
  2  1  1  0  0  0  0
  3  4  1  1  0  0  0
  3  1  1  0  0  0  0
  4  5  2  0  0  0  0
  6  5  1  0  0  0  0
  7  8  2  0  0  0  0
  7  6  1  0  0  0  0
  8  4  1  0  0  0  0
  9  7  1  0  0  0  0
  9 17  1  0  0  0  0
 10  9  2  0  0  0  0
 11 10  1  0  0  0  0
 11 12  1  0  0  0  0
 12 13  2  0  0  0  0
 12 17  1  0  0  0  0
 13 14  1  0  0  0  0
 14 15  2  0  0  0  0
 16 15  1  0  0  0  0
 17 16  2  0  0  0  0
 18 11  1  0  0  0  0
 19 21  1  0  0  0  0
 20 25  2  0  0  0  0
 21 20  1  0  0  0  0
 22 21  2  0  0  0  0
 22 23  1  0  0  0  0
 23 24  2  0  0  0  0
 24 25  1  0  0  0  0
 24 26  1  0  0  0  0
 26 27  1  0  0  0  0
 26 32  1  0  0  0  0
 27 28  2  0  0  0  0
 28 34  1  0  0  0  0
 28 29  1  0  0  0  0
 29 30  2  0  0  0  0
 31 35  1  0  0  0  0
 31 29  1  0  0  0  0
 32 31  1  0  0  0  0
 33 32  2  0  0  0  0
M  END
>  <minimizedAffinity>
-7.5428524

$$$$

 OpenBabel03242509213D

 35 40  0  0  1  0  0  0  0  0999 V2000
   62.7910   56.7110   28.2260 C   0  0  2  0  0  3  0  0  0  0  0  0
   63.3560   56.3930   26.9250 C   0  0  0  0  0  2  0  0  0  0  0  0
   61.9540   56.7670   26.9270 C   0  0  2  0  0  3  0  0  0  0  0  0
   61.4430   58.0690   26.4530 C   0  0  0  0  0  0  0  0  0  0  0  0
   61.5380   58.6840   25.2320 N   0  0  0  0  0  0  0  0  0  0  0  0
   60.9440   59.8300   25.3040 O   0  0  0  0  0  0  0  0  0  0  0  0
   60.4550   60.0150   26.5060 C   0  0  0  0  0  0  0  0  0  0  0  0
   60.7590   58.9190   27.2460 N   0  0  0  0  0  0  0  0  0  0  0  0
   59.7250   61.2080   26.9200 C   0  0  0  0  0  0  0  0  0  0  0  0
   58.4750   61.5320   26.4360 C   0  0  0  0  0  3  0  0  0  0  0  0
   58.0520   62.6870   26.9970 N   0  0  0  0  0  0  0  0  0  0  0  0
   59.0320   63.0780   27.8250 C   0  0  0  0  0  0  0  0  0  0  0  0
   59.1840   64.1640   28.6660 C   0  0  0  0  0  3  0  0  0  0  0  0
   60.2820   64.4130   29.4630 C   0  0  0  0  0  3  0  0  0  0  0  0
   61.2820   63.4790   29.3810 C   0  0  0  0  0  3  0  0  0  0  0  0
   61.2340   62.3590   28.5760 C   0  0  0  0  0  3  0  0  0  0  0  0
   60.0990   62.1860   27.8110 C   0  0  0  0  0  0  0  0  0  0  0  0
   57.1590   63.1690   26.8240 H   0  0  0  0  0  0  0  0  0  0  0  0
   63.0750   57.9730   28.9430 C   0  0  0  0  0  2  0  0  0  0  0  0
   65.4050   57.1110   29.5310 C   0  0  0  0  0  3  0  0  0  0  0  0
   64.3010   57.9570   29.7020 C   0  0  0  0  0  0  0  0  0  0  0  0
   64.3650   58.8890   30.7030 C   0  0  0  0  0  3  0  0  0  0  0  0
   65.4990   58.9440   31.4810 N   0  0  0  0  0  0  0  0  0  0  0  0
   66.5530   58.1160   31.2950 C   0  0  0  0  0  0  0  0  0  0  0  0
   66.4880   57.2030   30.3130 N   0  0  0  0  0  0  0  0  0  0  0  0
   67.6820   58.2470   32.1510 N   0  0  0  0  0  0  0  0  0  0  0  0
   68.4630   59.3330   32.0560 C   0  0  0  0  0  3  0  0  0  0  0  0
   69.5810   59.5720   32.8280 C   0  0  0  0  0  0  0  0  0  0  0  0
   69.9120   58.6180   33.7630 C   0  0  0  0  0  0  0  0  0  0  0  0
   70.9090   58.7750   34.4910 O   0  0  0  0  0  0  0  0  0  0  0  0
   69.1110   57.5120   33.8550 N   0  0  0  0  0  0  0  0  0  0  0  0
   68.0230   57.3320   33.0670 C   0  0  0  0  0  0  0  0  0  0  0  0
   67.3140   56.2910   33.1920 O   0  0  0  0  0  0  0  0  0  0  0  0
   70.3690   60.8190   32.6290 C   0  0  0  0  0  1  0  0  0  0  0  0
   69.3440   56.7890   34.5500 H   0  0  0  0  0  0  0  0  0  0  0  0
  1 19  1  6  0  0  0
  2  3  1  0  0  0  0
  2  1  1  0  0  0  0
  3  4  1  6  0  0  0
  3  1  1  0  0  0  0
  4  8  1  0  0  0  0
  5  6  1  0  0  0  0
  5  4  2  0  0  0  0
  6  7  1  0  0  0  0
  7  9  1  0  0  0  0
  7  8  2  0  0  0  0
  9 17  1  0  0  0  0
 10  9  2  0  0  0  0
 10 11  1  0  0  0  0
 11 12  1  0  0  0  0
 12 13  1  0  0  0  0
 13 14  2  0  0  0  0
 15 14  1  0  0  0  0
 16 15  2  0  0  0  0
 17 12  2  0  0  0  0
 17 16  1  0  0  0  0
 18 11  1  0  0  0  0
 19 21  1  0  0  0  0
 20 21  1  0  0  0  0
 20 25  2  0  0  0  0
 21 22  2  0  0  0  0
 22 23  1  0  0  0  0
 24 23  2  0  0  0  0
 24 26  1  0  0  0  0
 25 24  1  0  0  0  0
 26 32  1  0  0  0  0
 27 26  1  0  0  0  0
 27 28  2  0  0  0  0
 28 29  1  0  0  0  0
 29 31  1  0  0  0  0
 29 30  2  0  0  0  0
 31 35  1  0  0  0  0
 32 33  2  0  0  0  0
 32 31  1  0  0  0  0
 34 28  1  0  0  0  0
M  END
>  <minimizedAffinity>
-7.54024458

$$$$

 OpenBabel03242509213D

 35 40  0  0  1  0  0  0  0  0999 V2000
   65.0210   58.8650   31.1200 C   0  0  2  0  0  3  0  0  0  0  0  0
   65.9890   57.7830   31.0390 C   0  0  0  0  0  2  0  0  0  0  0  0
   64.6540   57.4690   30.5670 C   0  0  2  0  0  3  0  0  0  0  0  0
   64.2890   57.3290   29.1420 C   0  0  0  0  0  0  0  0  0  0  0  0
   65.0520   57.4030   28.0060 N   0  0  0  0  0  0  0  0  0  0  0  0
   64.2800   57.2320   26.9830 O   0  0  0  0  0  0  0  0  0  0  0  0
   63.0420   57.0460   27.3720 C   0  0  0  0  0  0  0  0  0  0  0  0
   63.0250   57.1050   28.7280 N   0  0  0  0  0  0  0  0  0  0  0  0
   61.9220   56.8240   26.4670 C   0  0  0  0  0  0  0  0  0  0  0  0
   61.2000   55.6490   26.4350 C   0  0  0  0  0  3  0  0  0  0  0  0
   60.2280   55.7340   25.4990 N   0  0  0  0  0  0  0  0  0  0  0  0
   60.3430   56.9540   24.9530 C   0  0  0  0  0  0  0  0  0  0  0  0
   59.6470   57.6180   23.9620 C   0  0  0  0  0  3  0  0  0  0  0  0
   59.9070   58.8980   23.5180 C   0  0  0  0  0  3  0  0  0  0  0  0
   60.9550   59.5250   24.1410 C   0  0  0  0  0  3  0  0  0  0  0  0
   61.7170   58.9560   25.1410 C   0  0  0  0  0  3  0  0  0  0  0  0
   61.3880   57.6720   25.5250 C   0  0  0  0  0  0  0  0  0  0  0  0
   59.5380   55.0100   25.2550 H   0  0  0  0  0  0  0  0  0  0  0  0
   65.0190   60.0190   30.1950 C   0  0  0  0  0  2  0  0  0  0  0  0
   65.7340   61.7390   31.9400 C   0  0  0  0  0  3  0  0  0  0  0  0
   64.9680   61.3010   30.8520 C   0  0  0  0  0  0  0  0  0  0  0  0
   64.0510   62.1740   30.3280 C   0  0  0  0  0  3  0  0  0  0  0  0
   63.9320   63.4230   30.8960 N   0  0  0  0  0  0  0  0  0  0  0  0
   64.6850   63.8220   31.9470 C   0  0  0  0  0  0  0  0  0  0  0  0
   65.5820   62.9640   32.4580 N   0  0  0  0  0  0  0  0  0  0  0  0
   64.4880   65.1320   32.4660 N   0  0  0  0  0  0  0  0  0  0  0  0
   64.8610   66.1950   31.7400 C   0  0  0  0  0  3  0  0  0  0  0  0
   64.7230   67.5110   32.1360 C   0  0  0  0  0  0  0  0  0  0  0  0
   64.1600   67.7370   33.3700 C   0  0  0  0  0  0  0  0  0  0  0  0
   64.0070   68.9000   33.7850 O   0  0  0  0  0  0  0  0  0  0  0  0
   63.7820   66.6470   34.1070 N   0  0  0  0  0  0  0  0  0  0  0  0
   63.9430   65.3760   33.6650 C   0  0  0  0  0  0  0  0  0  0  0  0
   63.5760   64.4020   34.3840 O   0  0  0  0  0  0  0  0  0  0  0  0
   65.1750   68.6080   31.2380 C   0  0  0  0  0  1  0  0  0  0  0  0
   63.3570   66.7990   35.0330 H   0  0  0  0  0  0  0  0  0  0  0  0
  1 19  1  6  0  0  0
  2  1  1  0  0  0  0
  3  4  1  6  0  0  0
  3  2  1  0  0  0  0
  3  1  1  0  0  0  0
  5  4  2  0  0  0  0
  6  7  1  0  0  0  0
  6  5  1  0  0  0  0
  7  8  2  0  0  0  0
  8  4  1  0  0  0  0
  9  7  1  0  0  0  0
 10  9  2  0  0  0  0
 11 10  1  0  0  0  0
 12 11  1  0  0  0  0
 12 17  1  0  0  0  0
 13 12  2  0  0  0  0
 14 13  1  0  0  0  0
 14 15  2  0  0  0  0
 15 16  1  0  0  0  0
 16 17  2  0  0  0  0
 17  9  1  0  0  0  0
 18 11  1  0  0  0  0
 19 21  1  0  0  0  0
 20 25  2  0  0  0  0
 21 20  1  0  0  0  0
 22 21  2  0  0  0  0
 22 23  1  0  0  0  0
 23 24  2  0  0  0  0
 24 25  1  0  0  0  0
 24 26  1  0  0  0  0
 26 32  1  0  0  0  0
 27 28  2  0  0  0  0
 27 26  1  0  0  0  0
 28 29  1  0  0  0  0
 29 30  2  0  0  0  0
 29 31  1  0  0  0  0
 31 35  1  0  0  0  0
 32 31  1  0  0  0  0
 32 33  2  0  0  0  0
 34 28  1  0  0  0  0
M  END
>  <minimizedAffinity>
-7.52544785

$$$$
