
 OpenBabel03242509223D

 34 39  0  0  1  0  0  0  0  0999 V2000
   60.9770   61.9290   28.3640 C   0  0  1  0  0  3  0  0  0  0  0  0
   59.7490   62.5750   27.7670 C   0  0  0  0  0  1  0  0  0  0  0  0
   63.4970   63.7590   30.3180 C   0  0  0  0  0  0  0  0  0  0  0  0
   62.7360   64.7690   30.9710 C   0  0  0  0  0  3  0  0  0  0  0  0
   61.3410   64.8020   30.7150 C   0  0  0  0  0  3  0  0  0  0  0  0
   60.8210   63.8690   29.8640 N   0  0  0  0  0  0  0  0  0  0  0  0
   61.6170   62.9140   29.2610 C   0  0  0  0  0  0  0  0  0  0  0  0
   62.9020   62.8860   29.4990 N   0  0  0  0  0  0  0  0  0  0  0  0
   64.9150   63.7450   30.6050 C   0  0  0  0  0  0  0  0  0  0  0  0
   65.5900   63.7320   31.8110 C   0  0  0  0  0  3  0  0  0  0  0  0
   66.9100   63.7200   31.6320 N   0  0  0  0  0  0  0  0  0  0  0  0
   67.1250   63.7260   30.2770 C   0  0  0  0  0  0  0  0  0  0  0  0
   68.3240   63.7180   29.6030 C   0  0  0  0  0  3  0  0  0  0  0  0
   68.3200   63.7250   28.2000 C   0  0  0  0  0  3  0  0  0  0  0  0
   67.0900   63.7400   27.5590 C   0  0  0  0  0  3  0  0  0  0  0  0
   65.9060   63.7480   28.2650 C   0  0  0  0  0  3  0  0  0  0  0  0
   65.8980   63.7400   29.6340 C   0  0  0  0  0  0  0  0  0  0  0  0
   67.6300   63.7080   32.3690 H   0  0  0  0  0  0  0  0  0  0  0  0
   60.5220   60.6840   29.0920 C   0  0  0  0  0  2  0  0  0  0  0  0
   61.6070   59.6500   29.1520 C   0  0  0  0  0  0  0  0  0  0  0  0
   61.4130   58.5790   28.2730 C   0  0  0  0  0  3  0  0  0  0  0  0
   62.4980   57.7220   28.4550 C   0  0  0  0  0  3  0  0  0  0  0  0
   63.2660   58.2600   29.3750 N   0  0  0  0  0  0  0  0  0  0  0  0
   62.7660   59.3980   29.8020 N   0  0  0  0  0  0  0  0  0  0  0  0
   64.4910   57.7450   29.8910 C   0  0  0  0  0  0  0  0  0  0  0  0
   65.3820   57.0620   29.0680 C   0  0  0  0  0  3  0  0  0  0  0  0
   66.4640   56.6810   29.8060 N   0  0  0  0  0  0  0  0  0  0  0  0
   66.2800   57.1080   31.0760 C   0  0  0  0  0  0  0  0  0  0  0  0
   67.0220   57.0190   32.2520 C   0  0  0  0  0  3  0  0  0  0  0  0
   66.5140   57.5800   33.3840 C   0  0  0  0  0  3  0  0  0  0  0  0
   65.2920   58.2500   33.4720 C   0  0  0  0  0  3  0  0  0  0  0  0
   64.5670   58.3300   32.2980 C   0  0  0  0  0  3  0  0  0  0  0  0
   65.0670   57.7670   31.1450 C   0  0  0  0  0  0  0  0  0  0  0  0
   67.2810   56.1590   29.4570 H   0  0  0  0  0  0  0  0  0  0  0  0
  1  2  1  1  0  0  0
  1 19  1  0  0  0  0
  1  7  1  0  0  0  0
  3  9  1  0  0  0  0
  3  4  1  0  0  0  0
  5  4  2  0  0  0  0
  6  5  1  0  0  0  0
  7  8  1  0  0  0  0
  7  6  2  0  0  0  0
  8  3  2  0  0  0  0
  9 10  2  0  0  0  0
 11 10  1  0  0  0  0
 11 18  1  0  0  0  0
 12 11  1  0  0  0  0
 13 12  2  0  0  0  0
 14 13  1  0  0  0  0
 15 14  2  0  0  0  0
 15 16  1  0  0  0  0
 16 17  2  0  0  0  0
 17 12  1  0  0  0  0
 17  9  1  0  0  0  0
 19 20  1  0  0  0  0
 20 24  2  0  0  0  0
 21 22  2  0  0  0  0
 21 20  1  0  0  0  0
 22 23  1  0  0  0  0
 23 24  1  0  0  0  0
 23 25  1  0  0  0  0
 25 33  1  0  0  0  0
 26 27  1  0  0  0  0
 26 25  2  0  0  0  0
 27 28  1  0  0  0  0
 28 33  2  0  0  0  0
 28 29  1  0  0  0  0
 29 30  2  0  0  0  0
 30 31  1  0  0  0  0
 32 31  2  0  0  0  0
 33 32  1  0  0  0  0
 34 27  1  0  0  0  0
M  END
>  <minimizedAffinity>
-7.77309465

$$$$

 OpenBabel03242509223D

 34 39  0  0  1  0  0  0  0  0999 V2000
   67.7170   57.4860   32.2940 C   0  0  1  0  0  3  0  0  0  0  0  0
   67.5880   56.4230   33.3590 C   0  0  0  0  0  1  0  0  0  0  0  0
   65.0110   57.5940   29.8070 C   0  0  0  0  0  0  0  0  0  0  0  0
   63.8910   58.0460   30.5610 C   0  0  0  0  0  3  0  0  0  0  0  0
   64.0950   58.3040   31.9400 C   0  0  0  0  0  3  0  0  0  0  0  0
   65.3440   58.1050   32.4540 N   0  0  0  0  0  0  0  0  0  0  0  0
   66.3910   57.6630   31.6670 C   0  0  0  0  0  0  0  0  0  0  0  0
   66.1990   57.4260   30.3960 N   0  0  0  0  0  0  0  0  0  0  0  0
   64.7750   57.3460   28.4020 C   0  0  0  0  0  0  0  0  0  0  0  0
   65.5400   57.6550   27.2920 C   0  0  0  0  0  3  0  0  0  0  0  0
   64.9550   57.2450   26.1670 N   0  0  0  0  0  0  0  0  0  0  0  0
   63.7740   56.6490   26.5290 C   0  0  0  0  0  0  0  0  0  0  0  0
   62.8250   56.0730   25.7180 C   0  0  0  0  0  3  0  0  0  0  0  0
   61.6770   55.5130   26.2990 C   0  0  0  0  0  3  0  0  0  0  0  0
   61.5600   55.5710   27.6800 C   0  0  0  0  0  3  0  0  0  0  0  0
   62.5300   56.1570   28.4650 C   0  0  0  0  0  3  0  0  0  0  0  0
   63.6540   56.7060   27.9090 C   0  0  0  0  0  0  0  0  0  0  0  0
   65.3210   57.3540   25.2090 H   0  0  0  0  0  0  0  0  0  0  0  0
   68.2170   58.7420   32.9700 C   0  0  0  0  0  2  0  0  0  0  0  0
   68.8530   59.6830   31.9900 C   0  0  0  0  0  0  0  0  0  0  0  0
   70.1000   59.2540   31.5250 C   0  0  0  0  0  3  0  0  0  0  0  0
   70.5440   60.2310   30.6340 C   0  0  0  0  0  3  0  0  0  0  0  0
   69.6180   61.1620   30.5880 N   0  0  0  0  0  0  0  0  0  0  0  0
   68.6080   60.8630   31.3760 N   0  0  0  0  0  0  0  0  0  0  0  0
   69.6280   62.3580   29.8120 C   0  0  0  0  0  0  0  0  0  0  0  0
   70.7720   63.1460   29.7320 C   0  0  0  0  0  3  0  0  0  0  0  0
   70.5140   64.2220   28.9320 N   0  0  0  0  0  0  0  0  0  0  0  0
   69.2330   64.1310   28.5040 C   0  0  0  0  0  0  0  0  0  0  0  0
   68.4220   64.9130   27.6860 C   0  0  0  0  0  3  0  0  0  0  0  0
   67.1410   64.5070   27.4640 C   0  0  0  0  0  3  0  0  0  0  0  0
   66.5590   63.3540   27.9940 C   0  0  0  0  0  3  0  0  0  0  0  0
   67.3760   62.5880   28.8040 C   0  0  0  0  0  3  0  0  0  0  0  0
   68.6740   62.9860   29.0380 C   0  0  0  0  0  0  0  0  0  0  0  0
   71.1770   64.9730   28.6950 H   0  0  0  0  0  0  0  0  0  0  0  0
  1 19  1  0  0  0  0
  1  2  1  1  0  0  0
  3  8  2  0  0  0  0
  3  4  1  0  0  0  0
  4  5  2  0  0  0  0
  5  6  1  0  0  0  0
  7  1  1  0  0  0  0
  7  6  2  0  0  0  0
  8  7  1  0  0  0  0
  9  3  1  0  0  0  0
 10  9  2  0  0  0  0
 11 12  1  0  0  0  0
 11 10  1  0  0  0  0
 12 17  1  0  0  0  0
 13 14  1  0  0  0  0
 13 12  2  0  0  0  0
 14 15  2  0  0  0  0
 15 16  1  0  0  0  0
 17  9  1  0  0  0  0
 17 16  2  0  0  0  0
 18 11  1  0  0  0  0
 20 19  1  0  0  0  0
 21 20  1  0  0  0  0
 22 21  2  0  0  0  0
 23 22  1  0  0  0  0
 23 24  1  0  0  0  0
 24 20  2  0  0  0  0
 25 23  1  0  0  0  0
 26 25  2  0  0  0  0
 27 26  1  0  0  0  0
 28 27  1  0  0  0  0
 28 33  1  0  0  0  0
 29 28  2  0  0  0  0
 30 29  1  0  0  0  0
 30 31  2  0  0  0  0
 31 32  1  0  0  0  0
 32 33  2  0  0  0  0
 33 25  1  0  0  0  0
 34 27  1  0  0  0  0
M  END
>  <minimizedAffinity>
-7.4522891

$$$$

 OpenBabel03242509223D

 34 39  0  0  1  0  0  0  0  0999 V2000
   66.0880   59.1270   32.8610 C   0  0  1  0  0  3  0  0  0  0  0  0
   66.1390   59.2670   34.3630 C   0  0  0  0  0  1  0  0  0  0  0  0
   68.9330   60.5750   31.0340 C   0  0  0  0  0  0  0  0  0  0  0  0
   70.0140   59.7160   31.3770 C   0  0  0  0  0  3  0  0  0  0  0  0
   69.7360   58.6360   32.2530 C   0  0  0  0  0  3  0  0  0  0  0  0
   68.4570   58.4900   32.7080 N   0  0  0  0  0  0  0  0  0  0  0  0
   67.4510   59.3610   32.3370 C   0  0  0  0  0  0  0  0  0  0  0  0
   67.7100   60.3560   31.5290 N   0  0  0  0  0  0  0  0  0  0  0  0
   69.2440   61.6630   30.1330 C   0  0  0  0  0  0  0  0  0  0  0  0
   70.4540   62.2560   29.8200 C   0  0  0  0  0  3  0  0  0  0  0  0
   70.3020   63.2370   28.9320 N   0  0  0  0  0  0  0  0  0  0  0  0
   68.9620   63.3050   28.6430 C   0  0  0  0  0  0  0  0  0  0  0  0
   68.3180   64.1600   27.7810 C   0  0  0  0  0  3  0  0  0  0  0  0
   66.9250   64.0590   27.6300 C   0  0  0  0  0  3  0  0  0  0  0  0
   66.2670   63.0880   28.3690 C   0  0  0  0  0  3  0  0  0  0  0  0
   66.9430   62.2460   29.2250 C   0  0  0  0  0  3  0  0  0  0  0  0
   68.3010   62.3350   29.3800 C   0  0  0  0  0  0  0  0  0  0  0  0
   71.0470   63.8300   28.5370 H   0  0  0  0  0  0  0  0  0  0  0  0
   65.5750   57.7390   32.5540 C   0  0  0  0  0  2  0  0  0  0  0  0
   65.0350   57.6430   31.1580 C   0  0  0  0  0  0  0  0  0  0  0  0
   65.9620   57.1620   30.2280 C   0  0  0  0  0  3  0  0  0  0  0  0
   65.3050   57.1360   28.9980 C   0  0  0  0  0  3  0  0  0  0  0  0
   64.0830   57.5710   29.2030 N   0  0  0  0  0  0  0  0  0  0  0  0
   63.8950   57.8760   30.4680 N   0  0  0  0  0  0  0  0  0  0  0  0
   63.0420   57.7180   28.2400 C   0  0  0  0  0  0  0  0  0  0  0  0
   63.0000   56.9120   27.1060 C   0  0  0  0  0  3  0  0  0  0  0  0
   61.9110   57.2580   26.3580 N   0  0  0  0  0  0  0  0  0  0  0  0
   61.2650   58.2620   26.9930 C   0  0  0  0  0  0  0  0  0  0  0  0
   60.1200   59.0090   26.7220 C   0  0  0  0  0  3  0  0  0  0  0  0
   59.7490   59.9720   27.6100 C   0  0  0  0  0  3  0  0  0  0  0  0
   60.4280   60.2850   28.7890 C   0  0  0  0  0  3  0  0  0  0  0  0
   61.5620   59.5350   29.0440 C   0  0  0  0  0  3  0  0  0  0  0  0
   61.9500   58.5570   28.1560 C   0  0  0  0  0  0  0  0  0  0  0  0
   61.6300   56.8280   25.4640 H   0  0  0  0  0  0  0  0  0  0  0  0
  1  2  1  1  0  0  0
  3  4  1  0  0  0  0
  3  8  2  0  0  0  0
  4  5  2  0  0  0  0
  5  6  1  0  0  0  0
  7  6  2  0  0  0  0
  7  1  1  0  0  0  0
  8  7  1  0  0  0  0
  9  3  1  0  0  0  0
 10  9  2  0  0  0  0
 11 10  1  0  0  0  0
 12 11  1  0  0  0  0
 12 17  1  0  0  0  0
 13 12  2  0  0  0  0
 14 13  1  0  0  0  0
 14 15  2  0  0  0  0
 15 16  1  0  0  0  0
 16 17  2  0  0  0  0
 17  9  1  0  0  0  0
 18 11  1  0  0  0  0
 19  1  1  0  0  0  0
 20 19  1  0  0  0  0
 21 20  1  0  0  0  0
 22 23  1  0  0  0  0
 22 21  2  0  0  0  0
 23 24  1  0  0  0  0
 24 20  2  0  0  0  0
 25 23  1  0  0  0  0
 26 25  2  0  0  0  0
 27 28  1  0  0  0  0
 27 26  1  0  0  0  0
 28 33  1  0  0  0  0
 29 28  2  0  0  0  0
 29 30  1  0  0  0  0
 30 31  2  0  0  0  0
 31 32  1  0  0  0  0
 33 25  1  0  0  0  0
 33 32  2  0  0  0  0
 34 27  1  0  0  0  0
M  END
>  <minimizedAffinity>
-7.33661366

$$$$

 OpenBabel03242509223D

 34 39  0  0  1  0  0  0  0  0999 V2000
   68.1370   59.4210   32.6450 C   0  0  1  0  0  3  0  0  0  0  0  0
   67.8820   58.0820   31.9950 C   0  0  0  0  0  1  0  0  0  0  0  0
   70.1250   61.6090   30.4580 C   0  0  0  0  0  0  0  0  0  0  0  0
   71.4580   61.1610   30.6700 C   0  0  0  0  0  3  0  0  0  0  0  0
   71.6500   60.0940   31.5850 C   0  0  0  0  0  3  0  0  0  0  0  0
   70.5500   59.5690   32.2000 N   0  0  0  0  0  0  0  0  0  0  0  0
   69.2790   60.0520   31.9500 C   0  0  0  0  0  0  0  0  0  0  0  0
   69.1060   61.0350   31.1060 N   0  0  0  0  0  0  0  0  0  0  0  0
   69.9600   62.6920   29.5130 C   0  0  0  0  0  0  0  0  0  0  0  0
   70.8820   63.5800   28.9900 C   0  0  0  0  0  3  0  0  0  0  0  0
   70.3110   64.4320   28.1400 N   0  0  0  0  0  0  0  0  0  0  0  0
   68.9780   64.1110   28.0930 C   0  0  0  0  0  0  0  0  0  0  0  0
   67.9820   64.7070   27.3560 C   0  0  0  0  0  3  0  0  0  0  0  0
   66.6710   64.2160   27.4540 C   0  0  0  0  0  3  0  0  0  0  0  0
   66.4480   63.1400   28.3000 C   0  0  0  0  0  3  0  0  0  0  0  0
   67.4690   62.5650   29.0250 C   0  0  0  0  0  3  0  0  0  0  0  0
   68.7520   63.0360   28.9370 C   0  0  0  0  0  0  0  0  0  0  0  0
   70.7800   65.1880   27.6190 H   0  0  0  0  0  0  0  0  0  0  0  0
   66.8640   60.2280   32.5280 C   0  0  0  0  0  2  0  0  0  0  0  0
   65.8020   59.4830   31.7750 C   0  0  0  0  0  0  0  0  0  0  0  0
   65.0460   58.6190   32.5740 C   0  0  0  0  0  3  0  0  0  0  0  0
   64.1160   58.0160   31.7270 C   0  0  0  0  0  3  0  0  0  0  0  0
   64.3210   58.4970   30.5220 N   0  0  0  0  0  0  0  0  0  0  0  0
   65.3090   59.3660   30.5210 N   0  0  0  0  0  0  0  0  0  0  0  0
   63.6120   58.1750   29.3280 C   0  0  0  0  0  0  0  0  0  0  0  0
   62.2480   58.4290   29.2170 C   0  0  0  0  0  3  0  0  0  0  0  0
   61.8220   58.0310   27.9830 N   0  0  0  0  0  0  0  0  0  0  0  0
   62.8850   57.5320   27.3110 C   0  0  0  0  0  0  0  0  0  0  0  0
   63.0670   56.9860   26.0420 C   0  0  0  0  0  3  0  0  0  0  0  0
   64.3150   56.5730   25.6860 C   0  0  0  0  0  3  0  0  0  0  0  0
   65.4490   56.6490   26.4960 C   0  0  0  0  0  3  0  0  0  0  0  0
   65.2530   57.1920   27.7530 C   0  0  0  0  0  3  0  0  0  0  0  0
   63.9970   57.6150   28.1270 C   0  0  0  0  0  0  0  0  0  0  0  0
   60.8590   58.0980   27.6250 H   0  0  0  0  0  0  0  0  0  0  0  0
  1  2  1  6  0  0  0
  3  4  1  0  0  0  0
  3  8  2  0  0  0  0
  4  5  2  0  0  0  0
  5  6  1  0  0  0  0
  7  6  2  0  0  0  0
  7  1  1  0  0  0  0
  8  7  1  0  0  0  0
  9  3  1  0  0  0  0
 10  9  2  0  0  0  0
 11 10  1  0  0  0  0
 12 11  1  0  0  0  0
 12 17  1  0  0  0  0
 13 14  1  0  0  0  0
 13 12  2  0  0  0  0
 14 15  2  0  0  0  0
 15 16  1  0  0  0  0
 17 16  2  0  0  0  0
 17  9  1  0  0  0  0
 18 11  1  0  0  0  0
 19  1  1  0  0  0  0
 20 19  1  0  0  0  0
 20 21  1  0  0  0  0
 22 21  2  0  0  0  0
 23 22  1  0  0  0  0
 24 23  1  0  0  0  0
 24 20  2  0  0  0  0
 25 23  1  0  0  0  0
 26 25  2  0  0  0  0
 27 26  1  0  0  0  0
 28 27  1  0  0  0  0
 28 33  1  0  0  0  0
 29 28  2  0  0  0  0
 30 29  1  0  0  0  0
 30 31  2  0  0  0  0
 31 32  1  0  0  0  0
 32 33  2  0  0  0  0
 33 25  1  0  0  0  0
 34 27  1  0  0  0  0
M  END
>  <minimizedAffinity>
-6.80586672

$$$$

 OpenBabel03242509223D

 34 39  0  0  1  0  0  0  0  0999 V2000
   61.0200   60.4190   28.1580 C   0  0  1  0  0  3  0  0  0  0  0  0
   59.7500   60.2390   27.3620 C   0  0  0  0  0  1  0  0  0  0  0  0
   62.0980   63.5270   29.8020 C   0  0  0  0  0  0  0  0  0  0  0  0
   60.9480   64.3590   29.7160 C   0  0  0  0  0  3  0  0  0  0  0  0
   59.8010   63.8230   29.0760 C   0  0  0  0  0  3  0  0  0  0  0  0
   59.8740   62.5510   28.5870 N   0  0  0  0  0  0  0  0  0  0  0  0
   61.0250   61.7930   28.7010 C   0  0  0  0  0  0  0  0  0  0  0  0
   62.0790   62.2910   29.2920 N   0  0  0  0  0  0  0  0  0  0  0  0
   63.2500   64.0970   30.4660 C   0  0  0  0  0  0  0  0  0  0  0  0
   63.3490   64.7970   31.6550 C   0  0  0  0  0  3  0  0  0  0  0  0
   64.6080   65.1480   31.9110 N   0  0  0  0  0  0  0  0  0  0  0  0
   65.3700   64.6760   30.8720 C   0  0  0  0  0  0  0  0  0  0  0  0
   66.7270   64.7910   30.6890 C   0  0  0  0  0  3  0  0  0  0  0  0
   67.3130   64.2280   29.5440 C   0  0  0  0  0  3  0  0  0  0  0  0
   66.4790   63.5760   28.6480 C   0  0  0  0  0  3  0  0  0  0  0  0
   65.1210   63.4790   28.8620 C   0  0  0  0  0  3  0  0  0  0  0  0
   64.5390   64.0240   29.9750 C   0  0  0  0  0  0  0  0  0  0  0  0
   64.9450   65.6740   32.7310 H   0  0  0  0  0  0  0  0  0  0  0  0
   61.0260   59.3630   29.2400 C   0  0  0  0  0  2  0  0  0  0  0  0
   62.4050   58.8210   29.4780 C   0  0  0  0  0  0  0  0  0  0  0  0
   62.7730   57.8080   28.5870 C   0  0  0  0  0  3  0  0  0  0  0  0
   64.0650   57.4240   28.9440 C   0  0  0  0  0  3  0  0  0  0  0  0
   64.4200   58.1630   29.9710 N   0  0  0  0  0  0  0  0  0  0  0  0
   63.4600   58.9970   30.3060 N   0  0  0  0  0  0  0  0  0  0  0  0
   65.6570   58.1280   30.6780 C   0  0  0  0  0  0  0  0  0  0  0  0
   66.2590   56.9170   31.0040 C   0  0  0  0  0  3  0  0  0  0  0  0
   67.4220   57.1670   31.6730 N   0  0  0  0  0  0  0  0  0  0  0  0
   67.5700   58.5080   31.7760 C   0  0  0  0  0  0  0  0  0  0  0  0
   68.5330   59.3420   32.3400 C   0  0  0  0  0  3  0  0  0  0  0  0
   68.3530   60.6890   32.2570 C   0  0  0  0  0  3  0  0  0  0  0  0
   67.2690   61.3200   31.6460 C   0  0  0  0  0  3  0  0  0  0  0  0
   66.3210   60.4800   31.0910 C   0  0  0  0  0  3  0  0  0  0  0  0
   66.4890   59.1150   31.1670 C   0  0  0  0  0  0  0  0  0  0  0  0
   68.0760   56.4580   32.0360 H   0  0  0  0  0  0  0  0  0  0  0  0
  1  2  1  1  0  0  0
  1  7  1  0  0  0  0
  1 19  1  0  0  0  0
  3  9  1  0  0  0  0
  4  3  1  0  0  0  0
  5  4  2  0  0  0  0
  6  7  2  0  0  0  0
  6  5  1  0  0  0  0
  7  8  1  0  0  0  0
  8  3  2  0  0  0  0
  9 10  2  0  0  0  0
 10 11  1  0  0  0  0
 11 18  1  0  0  0  0
 12 11  1  0  0  0  0
 13 12  1  0  0  0  0
 14 13  2  0  0  0  0
 15 16  2  0  0  0  0
 15 14  1  0  0  0  0
 16 17  1  0  0  0  0
 17  9  1  0  0  0  0
 17 12  2  0  0  0  0
 19 20  1  0  0  0  0
 20 24  2  0  0  0  0
 21 22  2  0  0  0  0
 21 20  1  0  0  0  0
 22 23  1  0  0  0  0
 23 24  1  0  0  0  0
 23 25  1  0  0  0  0
 25 26  2  0  0  0  0
 25 33  1  0  0  0  0
 26 27  1  0  0  0  0
 27 28  1  0  0  0  0
 27 34  1  0  0  0  0
 28 29  1  0  0  0  0
 30 29  2  0  0  0  0
 31 30  1  0  0  0  0
 32 33  1  0  0  0  0
 32 31  2  0  0  0  0
 33 28  2  0  0  0  0
M  END
>  <minimizedAffinity>
-6.50255442

$$$$

 OpenBabel03242509223D

 34 39  0  0  1  0  0  0  0  0999 V2000
   68.4620   61.0400   34.3330 C   0  0  1  0  0  3  0  0  0  0  0  0
   68.7080   59.8330   35.2060 C   0  0  0  0  0  1  0  0  0  0  0  0
   69.7590   61.5330   30.9270 C   0  0  0  0  0  0  0  0  0  0  0  0
   70.4020   60.2970   30.6400 C   0  0  0  0  0  3  0  0  0  0  0  0
   70.3800   59.3000   31.6480 C   0  0  0  0  0  3  0  0  0  0  0  0
   69.7470   59.5870   32.8230 N   0  0  0  0  0  0  0  0  0  0  0  0
   69.1400   60.8100   33.0400 C   0  0  0  0  0  0  0  0  0  0  0  0
   69.1620   61.7270   32.1080 N   0  0  0  0  0  0  0  0  0  0  0  0
   69.7900   62.5270   29.8770 C   0  0  0  0  0  0  0  0  0  0  0  0
   70.8440   63.2580   29.3600 C   0  0  0  0  0  3  0  0  0  0  0  0
   70.4410   64.0760   28.3890 N   0  0  0  0  0  0  0  0  0  0  0  0
   69.0890   63.8910   28.2510 C   0  0  0  0  0  0  0  0  0  0  0  0
   68.2270   64.5100   27.3770 C   0  0  0  0  0  3  0  0  0  0  0  0
   66.8660   64.1690   27.4010 C   0  0  0  0  0  3  0  0  0  0  0  0
   66.4580   63.2120   28.3180 C   0  0  0  0  0  3  0  0  0  0  0  0
   67.3480   62.6100   29.1810 C   0  0  0  0  0  3  0  0  0  0  0  0
   68.6780   62.9340   29.1660 C   0  0  0  0  0  0  0  0  0  0  0  0
   71.0320   64.7230   27.8460 H   0  0  0  0  0  0  0  0  0  0  0  0
   66.9650   61.1940   34.1880 C   0  0  0  0  0  2  0  0  0  0  0  0
   66.3740   60.0990   33.3500 C   0  0  0  0  0  0  0  0  0  0  0  0
   65.8000   59.0650   34.0960 C   0  0  0  0  0  3  0  0  0  0  0  0
   65.3040   58.1450   33.1730 C   0  0  0  0  0  3  0  0  0  0  0  0
   65.5710   58.6140   31.9760 N   0  0  0  0  0  0  0  0  0  0  0  0
   66.2010   59.7670   32.0500 N   0  0  0  0  0  0  0  0  0  0  0  0
   65.2540   58.0190   30.7200 C   0  0  0  0  0  0  0  0  0  0  0  0
   66.1510   57.1610   30.0900 C   0  0  0  0  0  3  0  0  0  0  0  0
   65.6050   56.7350   28.9150 N   0  0  0  0  0  0  0  0  0  0  0  0
   64.3830   57.3020   28.7880 C   0  0  0  0  0  0  0  0  0  0  0  0
   63.3780   57.2460   27.8230 C   0  0  0  0  0  3  0  0  0  0  0  0
   62.2430   57.9700   28.0280 C   0  0  0  0  0  3  0  0  0  0  0  0
   61.9910   58.7770   29.1380 C   0  0  0  0  0  3  0  0  0  0  0  0
   62.9980   58.8220   30.0860 C   0  0  0  0  0  3  0  0  0  0  0  0
   64.1520   58.0960   29.8940 C   0  0  0  0  0  0  0  0  0  0  0  0
   66.0450   56.0920   28.2400 H   0  0  0  0  0  0  0  0  0  0  0  0
  1  2  1  1  0  0  0
  3  8  2  0  0  0  0
  4  3  1  0  0  0  0
  4  5  2  0  0  0  0
  5  6  1  0  0  0  0
  6  7  2  0  0  0  0
  7  1  1  0  0  0  0
  8  7  1  0  0  0  0
  9  3  1  0  0  0  0
 10  9  2  0  0  0  0
 11 10  1  0  0  0  0
 12 11  1  0  0  0  0
 12 17  1  0  0  0  0
 13 14  1  0  0  0  0
 13 12  2  0  0  0  0
 14 15  2  0  0  0  0
 15 16  1  0  0  0  0
 17 16  2  0  0  0  0
 17  9  1  0  0  0  0
 18 11  1  0  0  0  0
 19  1  1  0  0  0  0
 20 21  1  0  0  0  0
 20 19  1  0  0  0  0
 22 21  2  0  0  0  0
 23 24  1  0  0  0  0
 23 22  1  0  0  0  0
 24 20  2  0  0  0  0
 25 23  1  0  0  0  0
 26 25  2  0  0  0  0
 27 26  1  0  0  0  0
 28 27  1  0  0  0  0
 28 33  1  0  0  0  0
 29 30  1  0  0  0  0
 29 28  2  0  0  0  0
 30 31  2  0  0  0  0
 31 32  1  0  0  0  0
 33 32  2  0  0  0  0
 33 25  1  0  0  0  0
 34 27  1  0  0  0  0
M  END
>  <minimizedAffinity>
-6.47368622

$$$$

 OpenBabel03242509223D

 34 39  0  0  1  0  0  0  0  0999 V2000
   66.8550   57.0780   32.3820 C   0  0  1  0  0  3  0  0  0  0  0  0
   66.6440   56.8190   30.9090 C   0  0  0  0  0  1  0  0  0  0  0  0
   69.6240   59.4210   31.7770 C   0  0  0  0  0  0  0  0  0  0  0  0
   70.5010   59.1810   32.8710 C   0  0  0  0  0  3  0  0  0  0  0  0
   70.1100   58.2000   33.8180 C   0  0  0  0  0  3  0  0  0  0  0  0
   68.9250   57.5510   33.6200 N   0  0  0  0  0  0  0  0  0  0  0  0
   68.1160   57.8330   32.5340 C   0  0  0  0  0  0  0  0  0  0  0  0
   68.4800   58.7380   31.6640 N   0  0  0  0  0  0  0  0  0  0  0  0
   70.0520   60.4210   30.8240 C   0  0  0  0  0  0  0  0  0  0  0  0
   71.2850   60.6340   30.2350 C   0  0  0  0  0  3  0  0  0  0  0  0
   71.2550   61.6750   29.4030 N   0  0  0  0  0  0  0  0  0  0  0  0
   69.9750   62.1700   29.4350 C   0  0  0  0  0  0  0  0  0  0  0  0
   69.4580   63.2400   28.7440 C   0  0  0  0  0  3  0  0  0  0  0  0
   68.1080   63.5820   28.9240 C   0  0  0  0  0  3  0  0  0  0  0  0
   67.3590   62.8110   29.8000 C   0  0  0  0  0  3  0  0  0  0  0  0
   67.9100   61.7440   30.4770 C   0  0  0  0  0  3  0  0  0  0  0  0
   69.2250   61.4010   30.3100 C   0  0  0  0  0  0  0  0  0  0  0  0
   72.0400   62.0370   28.8430 H   0  0  0  0  0  0  0  0  0  0  0  0
   65.6510   57.8440   32.8810 C   0  0  0  0  0  2  0  0  0  0  0  0
   64.8200   58.3700   31.7490 C   0  0  0  0  0  0  0  0  0  0  0  0
   65.0210   59.7280   31.4860 C   0  0  0  0  0  3  0  0  0  0  0  0
   64.1830   60.0490   30.4180 C   0  0  0  0  0  3  0  0  0  0  0  0
   63.5410   58.9520   30.0870 N   0  0  0  0  0  0  0  0  0  0  0  0
   63.8980   57.9450   30.8540 N   0  0  0  0  0  0  0  0  0  0  0  0
   62.5770   58.7910   29.0490 C   0  0  0  0  0  0  0  0  0  0  0  0
   61.4630   59.6220   28.9750 C   0  0  0  0  0  3  0  0  0  0  0  0
   60.7090   59.2570   27.8970 N   0  0  0  0  0  0  0  0  0  0  0  0
   61.3210   58.2160   27.2880 C   0  0  0  0  0  0  0  0  0  0  0  0
   61.0350   57.4360   26.1690 C   0  0  0  0  0  3  0  0  0  0  0  0
   61.9000   56.4390   25.8360 C   0  0  0  0  0  3  0  0  0  0  0  0
   63.0700   56.1220   26.5280 C   0  0  0  0  0  3  0  0  0  0  0  0
   63.3410   56.9040   27.6360 C   0  0  0  0  0  3  0  0  0  0  0  0
   62.4750   57.9170   27.9870 C   0  0  0  0  0  0  0  0  0  0  0  0
   59.8270   59.6970   27.5990 H   0  0  0  0  0  0  0  0  0  0  0  0
  1  2  1  6  0  0  0
  1  7  1  0  0  0  0
  1 19  1  0  0  0  0
  3  4  1  0  0  0  0
  4  5  2  0  0  0  0
  6  5  1  0  0  0  0
  7  6  2  0  0  0  0
  8  3  2  0  0  0  0
  8  7  1  0  0  0  0
  9  3  1  0  0  0  0
 10  9  2  0  0  0  0
 11 12  1  0  0  0  0
 11 10  1  0  0  0  0
 12 17  1  0  0  0  0
 13 14  1  0  0  0  0
 13 12  2  0  0  0  0
 14 15  2  0  0  0  0
 15 16  1  0  0  0  0
 17 16  2  0  0  0  0
 17  9  1  0  0  0  0
 18 11  1  0  0  0  0
 20 19  1  0  0  0  0
 21 20  1  0  0  0  0
 22 21  2  0  0  0  0
 23 22  1  0  0  0  0
 23 24  1  0  0  0  0
 24 20  2  0  0  0  0
 25 23  1  0  0  0  0
 26 25  2  0  0  0  0
 27 26  1  0  0  0  0
 28 27  1  0  0  0  0
 28 33  1  0  0  0  0
 29 28  2  0  0  0  0
 30 29  1  0  0  0  0
 30 31  2  0  0  0  0
 31 32  1  0  0  0  0
 32 33  2  0  0  0  0
 33 25  1  0  0  0  0
 34 27  1  0  0  0  0
M  END
>  <minimizedAffinity>
-6.42157125

$$$$

 OpenBabel03242509223D

 34 39  0  0  1  0  0  0  0  0999 V2000
   66.9250   57.9260   33.4530 C   0  0  1  0  0  3  0  0  0  0  0  0
   67.4320   57.0890   32.3030 C   0  0  0  0  0  1  0  0  0  0  0  0
   68.5080   60.9940   32.1880 C   0  0  0  0  0  0  0  0  0  0  0  0
   68.9140   61.6660   33.3740 C   0  0  0  0  0  3  0  0  0  0  0  0
   68.6230   61.0380   34.6120 C   0  0  0  0  0  3  0  0  0  0  0  0
   67.9770   59.8360   34.5870 N   0  0  0  0  0  0  0  0  0  0  0  0
   67.6080   59.2350   33.3980 C   0  0  0  0  0  0  0  0  0  0  0  0
   67.8780   59.8170   32.2590 N   0  0  0  0  0  0  0  0  0  0  0  0
   68.8250   61.6550   30.9410 C   0  0  0  0  0  0  0  0  0  0  0  0
   70.0400   61.8550   30.3110 C   0  0  0  0  0  3  0  0  0  0  0  0
   69.8910   62.5170   29.1640 N   0  0  0  0  0  0  0  0  0  0  0  0
   68.5490   62.7670   29.0220 C   0  0  0  0  0  0  0  0  0  0  0  0
   67.9080   63.4210   27.9980 C   0  0  0  0  0  3  0  0  0  0  0  0
   66.5120   63.5690   28.0480 C   0  0  0  0  0  3  0  0  0  0  0  0
   65.8480   63.0370   29.1430 C   0  0  0  0  0  3  0  0  0  0  0  0
   66.5220   62.3860   30.1530 C   0  0  0  0  0  3  0  0  0  0  0  0
   67.8820   62.2370   30.1150 C   0  0  0  0  0  0  0  0  0  0  0  0
   70.6400   62.7890   28.5100 H   0  0  0  0  0  0  0  0  0  0  0  0
   65.4260   58.0420   33.2980 C   0  0  0  0  0  2  0  0  0  0  0  0
   65.0210   58.1250   31.8560 C   0  0  0  0  0  0  0  0  0  0  0  0
   64.5690   59.3900   31.4690 C   0  0  0  0  0  3  0  0  0  0  0  0
   64.2400   59.2920   30.1180 C   0  0  0  0  0  3  0  0  0  0  0  0
   64.4850   58.0550   29.7480 N   0  0  0  0  0  0  0  0  0  0  0  0
   64.9480   57.3450   30.7530 N   0  0  0  0  0  0  0  0  0  0  0  0
   64.3030   57.4850   28.4550 C   0  0  0  0  0  0  0  0  0  0  0  0
   65.3660   56.8890   27.7820 C   0  0  0  0  0  3  0  0  0  0  0  0
   64.9230   56.4270   26.5760 N   0  0  0  0  0  0  0  0  0  0  0  0
   63.6050   56.7160   26.4720 C   0  0  0  0  0  0  0  0  0  0  0  0
   62.6350   56.5000   25.4950 C   0  0  0  0  0  3  0  0  0  0  0  0
   61.3680   56.9400   25.7330 C   0  0  0  0  0  3  0  0  0  0  0  0
   60.9480   57.6000   26.8880 C   0  0  0  0  0  3  0  0  0  0  0  0
   61.9220   57.8070   27.8480 C   0  0  0  0  0  3  0  0  0  0  0  0
   63.2080   57.3680   27.6230 C   0  0  0  0  0  0  0  0  0  0  0  0
   65.4930   55.9420   25.8680 H   0  0  0  0  0  0  0  0  0  0  0  0
  1  2  1  6  0  0  0
  3  8  2  0  0  0  0
  3  4  1  0  0  0  0
  4  5  2  0  0  0  0
  6  5  1  0  0  0  0
  7  1  1  0  0  0  0
  7  6  2  0  0  0  0
  8  7  1  0  0  0  0
  9  3  1  0  0  0  0
 10  9  2  0  0  0  0
 11 10  1  0  0  0  0
 12 11  1  0  0  0  0
 12 17  1  0  0  0  0
 13 14  1  0  0  0  0
 13 12  2  0  0  0  0
 14 15  2  0  0  0  0
 15 16  1  0  0  0  0
 17 16  2  0  0  0  0
 17  9  1  0  0  0  0
 18 11  1  0  0  0  0
 19  1  1  0  0  0  0
 20 19  1  0  0  0  0
 21 20  1  0  0  0  0
 22 21  2  0  0  0  0
 23 22  1  0  0  0  0
 23 24  1  0  0  0  0
 24 20  2  0  0  0  0
 25 23  1  0  0  0  0
 26 25  2  0  0  0  0
 27 26  1  0  0  0  0
 28 27  1  0  0  0  0
 28 33  1  0  0  0  0
 29 30  1  0  0  0  0
 29 28  2  0  0  0  0
 30 31  2  0  0  0  0
 31 32  1  0  0  0  0
 33 32  2  0  0  0  0
 33 25  1  0  0  0  0
 34 27  1  0  0  0  0
M  END
>  <minimizedAffinity>
-6.42088366

$$$$

 OpenBabel03242509223D

 34 39  0  0  1  0  0  0  0  0999 V2000
   65.9470   61.4280   31.1130 C   0  0  1  0  0  3  0  0  0  0  0  0
   65.2030   62.3150   30.1440 C   0  0  0  0  0  1  0  0  0  0  0  0
   64.7340   58.2520   29.7110 C   0  0  0  0  0  0  0  0  0  0  0  0
   64.3160   57.5250   30.8600 C   0  0  0  0  0  3  0  0  0  0  0  0
   64.4670   58.1550   32.1210 C   0  0  0  0  0  3  0  0  0  0  0  0
   65.0020   59.4110   32.1530 N   0  0  0  0  0  0  0  0  0  0  0  0
   65.3900   60.0640   30.9980 C   0  0  0  0  0  0  0  0  0  0  0  0
   65.2490   59.4800   29.8370 N   0  0  0  0  0  0  0  0  0  0  0  0
   64.5600   57.5880   28.4380 C   0  0  0  0  0  0  0  0  0  0  0  0
   65.4660   56.9050   27.6470 C   0  0  0  0  0  3  0  0  0  0  0  0
   64.8920   56.4380   26.5390 N   0  0  0  0  0  0  0  0  0  0  0  0
   63.5730   56.8150   26.5880 C   0  0  0  0  0  0  0  0  0  0  0  0
   62.5800   56.5650   25.6710 C   0  0  0  0  0  3  0  0  0  0  0  0
   61.2840   57.0450   25.9170 C   0  0  0  0  0  3  0  0  0  0  0  0
   61.0730   57.7550   27.0890 C   0  0  0  0  0  3  0  0  0  0  0  0
   62.0920   57.9890   27.9880 C   0  0  0  0  0  3  0  0  0  0  0  0
   63.3590   57.5250   27.7580 C   0  0  0  0  0  0  0  0  0  0  0  0
   65.3500   55.8970   25.7910 H   0  0  0  0  0  0  0  0  0  0  0  0
   67.4130   61.4940   30.7510 C   0  0  0  0  0  2  0  0  0  0  0  0
   68.2460   60.6330   31.6540 C   0  0  0  0  0  0  0  0  0  0  0  0
   69.0020   61.3570   32.5820 C   0  0  0  0  0  3  0  0  0  0  0  0
   69.7070   60.4160   33.3320 C   0  0  0  0  0  3  0  0  0  0  0  0
   69.3820   59.2300   32.8700 N   0  0  0  0  0  0  0  0  0  0  0  0
   68.5210   59.3280   31.8800 N   0  0  0  0  0  0  0  0  0  0  0  0
   69.8510   57.9630   33.3250 C   0  0  0  0  0  0  0  0  0  0  0  0
   71.1130   57.4980   32.9660 C   0  0  0  0  0  3  0  0  0  0  0  0
   71.3100   56.2720   33.5310 N   0  0  0  0  0  0  0  0  0  0  0  0
   70.2030   55.9510   34.2400 C   0  0  0  0  0  0  0  0  0  0  0  0
   69.8250   54.8550   35.0120 C   0  0  0  0  0  3  0  0  0  0  0  0
   68.5960   54.8690   35.5990 C   0  0  0  0  0  3  0  0  0  0  0  0
   67.6640   55.9030   35.4930 C   0  0  0  0  0  3  0  0  0  0  0  0
   68.0540   56.9840   34.7220 C   0  0  0  0  0  3  0  0  0  0  0  0
   69.2940   56.9850   34.1230 C   0  0  0  0  0  0  0  0  0  0  0  0
   72.1550   55.6910   33.4360 H   0  0  0  0  0  0  0  0  0  0  0  0
  1  2  1  6  0  0  0
  3  8  2  0  0  0  0
  3  4  1  0  0  0  0
  4  5  2  0  0  0  0
  5  6  1  0  0  0  0
  7  1  1  0  0  0  0
  7  6  2  0  0  0  0
  8  7  1  0  0  0  0
  9  3  1  0  0  0  0
 10  9  2  0  0  0  0
 11 12  1  0  0  0  0
 11 10  1  0  0  0  0
 12 17  1  0  0  0  0
 13 14  1  0  0  0  0
 13 12  2  0  0  0  0
 14 15  2  0  0  0  0
 15 16  1  0  0  0  0
 17 16  2  0  0  0  0
 17  9  1  0  0  0  0
 18 11  1  0  0  0  0
 19  1  1  0  0  0  0
 19 20  1  0  0  0  0
 20 24  2  0  0  0  0
 20 21  1  0  0  0  0
 21 22  2  0  0  0  0
 23 25  1  0  0  0  0
 23 22  1  0  0  0  0
 24 23  1  0  0  0  0
 25 33  1  0  0  0  0
 26 25  2  0  0  0  0
 26 27  1  0  0  0  0
 27 28  1  0  0  0  0
 28 29  1  0  0  0  0
 29 30  2  0  0  0  0
 31 30  1  0  0  0  0
 32 31  2  0  0  0  0
 33 28  2  0  0  0  0
 33 32  1  0  0  0  0
 34 27  1  0  0  0  0
M  END
>  <minimizedAffinity>
-6.29197168

$$$$
