
 OpenBabel03242509283D

 34 39  0  0  0  0  0  0  0  0999 V2000
   64.5540   58.6960   31.4530 C   0  0  0  0  0  3  0  0  0  0  0  0
   65.8990   58.2090   31.3920 C   0  0  0  0  0  0  0  0  0  0  0  0
   66.2460   57.2880   30.4030 C   0  0  0  0  0  3  0  0  0  0  0  0
   65.2840   56.8900   29.5360 N   0  0  0  0  0  0  0  0  0  0  0  0
   64.0260   57.3740   29.6290 C   0  0  0  0  0  0  0  0  0  0  0  0
   63.6760   58.2540   30.5640 N   0  0  0  0  0  0  0  0  0  0  0  0
   63.0690   56.8730   28.6470 C   0  0  0  0  0  0  0  0  0  0  0  0
   62.5260   55.6520   28.5060 N   0  0  0  0  0  0  0  0  0  0  0  0
   61.7080   55.6410   27.4780 O   0  0  0  0  0  0  0  0  0  0  0  0
   61.7030   56.8630   26.9230 C   0  0  0  0  0  0  0  0  0  0  0  0
   62.5370   57.6150   27.6420 N   0  0  0  0  0  0  0  0  0  0  0  0
   60.9680   57.3150   25.7920 N   0  0  0  0  0  0  0  0  0  0  0  0
   60.5770   56.5290   24.7640 C   0  0  0  0  0  3  0  0  0  0  0  0
   59.9110   57.2390   23.8630 N   0  0  0  0  0  0  0  0  0  0  0  0
   59.8570   58.5200   24.2970 C   0  0  0  0  0  0  0  0  0  0  0  0
   59.2880   59.6700   23.7540 C   0  0  0  0  0  0  0  0  0  0  0  0
   59.4010   60.8260   24.4360 N   0  0  0  0  0  0  0  0  0  0  0  0
   60.0660   60.8260   25.6280 C   0  0  0  0  0  3  0  0  0  0  0  0
   60.6130   59.7050   26.1470 N   0  0  0  0  0  0  0  0  0  0  0  0
   60.5200   58.5470   25.5000 C   0  0  0  0  0  0  0  0  0  0  0  0
   58.6140   59.5490   22.4960 N   0  0  0  0  0  0  0  0  0  0  0  0
   58.1810   60.3770   22.0620 H   0  0  0  0  0  0  0  0  0  0  0  0
   58.5620   58.6340   22.0250 H   0  0  0  0  0  0  0  0  0  0  0  0
   66.8460   58.7210   32.3990 C   0  0  0  0  0  0  0  0  0  0  0  0
   66.7730   60.0500   32.8440 C   0  0  0  0  0  3  0  0  0  0  0  0
   68.1470   60.1770   34.0720 S   0  0  0  0  0  0  0  0  0  0  0  0
   68.5840   58.3570   33.7500 C   0  0  0  0  0  0  0  0  0  0  0  0
   67.8230   58.0820   32.9920 N   0  0  0  0  0  0  0  0  0  0  0  0
   69.6530   57.6420   34.3970 N   0  0  0  0  0  0  0  0  0  0  0  0
   70.3830   58.1310   35.5230 C   0  0  0  0  0  2  0  0  0  0  0  0
   71.6830   57.3290   35.5500 C   0  0  0  0  0  2  0  0  0  0  0  0
   71.4540   55.9800   35.7100 O   0  0  0  0  0  0  0  0  0  0  0  0
   70.4040   55.4740   34.9980 C   0  0  0  0  0  2  0  0  0  0  0  0
   69.9930   56.3440   33.8490 C   0  0  0  0  0  2  0  0  0  0  0  0
  2  1  1  0  0  0  0
  2 24  1  0  0  0  0
  3  2  2  0  0  0  0
  4  5  2  0  0  0  0
  4  3  1  0  0  0  0
  5  6  1  0  0  0  0
  6  1  2  0  0  0  0
  7  5  1  0  0  0  0
  8  7  2  0  0  0  0
  9  8  1  0  0  0  0
 10  9  1  0  0  0  0
 10 11  2  0  0  0  0
 11  7  1  0  0  0  0
 12 10  1  0  0  0  0
 13 12  1  0  0  0  0
 14 15  1  0  0  0  0
 14 13  2  0  0  0  0
 15 20  1  0  0  0  0
 16 15  2  0  0  0  0
 16 17  1  0  0  0  0
 17 18  2  0  0  0  0
 18 19  1  0  0  0  0
 20 12  1  0  0  0  0
 20 19  2  0  0  0  0
 21 16  1  0  0  0  0
 22 21  1  0  0  0  0
 23 21  1  0  0  0  0
 24 25  2  0  0  0  0
 24 28  1  0  0  0  0
 25 26  1  0  0  0  0
 27 26  1  0  0  0  0
 27 29  1  0  0  0  0
 28 27  2  0  0  0  0
 29 30  1  0  0  0  0
 30 31  1  0  0  0  0
 31 32  1  0  0  0  0
 33 32  1  0  0  0  0
 34 29  1  0  0  0  0
 34 33  1  0  0  0  0
M  END
>  <minimizedAffinity>
-7.66464186

$$$$

 OpenBabel03242509283D

 34 39  0  0  0  0  0  0  0  0999 V2000
   65.7420   57.2520   29.8120 C   0  0  0  0  0  3  0  0  0  0  0  0
   65.3530   58.2230   30.7890 C   0  0  0  0  0  0  0  0  0  0  0  0
   64.0650   58.7590   30.7440 C   0  0  0  0  0  3  0  0  0  0  0  0
   63.2310   58.3320   29.7660 N   0  0  0  0  0  0  0  0  0  0  0  0
   63.6380   57.4140   28.8620 C   0  0  0  0  0  0  0  0  0  0  0  0
   64.8610   56.8900   28.8900 N   0  0  0  0  0  0  0  0  0  0  0  0
   62.6600   57.0300   27.8490 C   0  0  0  0  0  0  0  0  0  0  0  0
   62.1890   55.8180   27.5090 N   0  0  0  0  0  0  0  0  0  0  0  0
   61.3160   55.9320   26.5350 O   0  0  0  0  0  0  0  0  0  0  0  0
   61.2000   57.2310   26.2150 C   0  0  0  0  0  0  0  0  0  0  0  0
   62.0250   57.9000   27.0220 N   0  0  0  0  0  0  0  0  0  0  0  0
   60.3750   57.8250   25.2210 N   0  0  0  0  0  0  0  0  0  0  0  0
   59.9770   57.2100   24.0840 C   0  0  0  0  0  3  0  0  0  0  0  0
   59.2160   58.0200   23.3600 N   0  0  0  0  0  0  0  0  0  0  0  0
   59.1050   59.1950   24.0240 C   0  0  0  0  0  0  0  0  0  0  0  0
   58.4330   60.3790   23.7280 C   0  0  0  0  0  0  0  0  0  0  0  0
   58.5110   61.3980   24.6060 N   0  0  0  0  0  0  0  0  0  0  0  0
   59.2420   61.2310   25.7470 C   0  0  0  0  0  3  0  0  0  0  0  0
   59.8880   60.0790   26.0250 N   0  0  0  0  0  0  0  0  0  0  0  0
   59.8330   59.0530   25.1800 C   0  0  0  0  0  0  0  0  0  0  0  0
   57.6970   60.4380   22.5000 N   0  0  0  0  0  0  0  0  0  0  0  0
   57.1880   61.2960   22.2460 H   0  0  0  0  0  0  0  0  0  0  0  0
   57.6780   59.6220   21.8720 H   0  0  0  0  0  0  0  0  0  0  0  0
   66.3600   58.6030   31.7980 C   0  0  0  0  0  0  0  0  0  0  0  0
   66.5360   59.9470   32.1650 C   0  0  0  0  0  3  0  0  0  0  0  0
   67.8810   59.8820   33.4300 S   0  0  0  0  0  0  0  0  0  0  0  0
   67.9630   57.9950   33.2250 C   0  0  0  0  0  0  0  0  0  0  0  0
   67.1800   57.8260   32.4580 N   0  0  0  0  0  0  0  0  0  0  0  0
   68.8590   57.1290   33.9460 N   0  0  0  0  0  0  0  0  0  0  0  0
   69.6440   57.5360   35.0670 C   0  0  0  0  0  2  0  0  0  0  0  0
   70.7630   56.5010   35.1820 C   0  0  0  0  0  2  0  0  0  0  0  0
   70.2720   55.2340   35.4090 O   0  0  0  0  0  0  0  0  0  0  0  0
   69.1610   54.8980   34.6920 C   0  0  0  0  0  2  0  0  0  0  0  0
   68.9520   55.7590   33.4830 C   0  0  0  0  0  2  0  0  0  0  0  0
  1  2  1  0  0  0  0
  2 24  1  0  0  0  0
  3  2  2  0  0  0  0
  4  3  1  0  0  0  0
  5  6  1  0  0  0  0
  5  4  2  0  0  0  0
  6  1  2  0  0  0  0
  7  5  1  0  0  0  0
  8  7  2  0  0  0  0
  9  8  1  0  0  0  0
 10  9  1  0  0  0  0
 10 11  2  0  0  0  0
 11  7  1  0  0  0  0
 12 10  1  0  0  0  0
 13 12  1  0  0  0  0
 14 15  1  0  0  0  0
 14 13  2  0  0  0  0
 15 20  1  0  0  0  0
 16 15  2  0  0  0  0
 16 17  1  0  0  0  0
 17 18  2  0  0  0  0
 18 19  1  0  0  0  0
 20 12  1  0  0  0  0
 20 19  2  0  0  0  0
 21 16  1  0  0  0  0
 22 21  1  0  0  0  0
 23 21  1  0  0  0  0
 24 25  2  0  0  0  0
 24 28  1  0  0  0  0
 25 26  1  0  0  0  0
 27 26  1  0  0  0  0
 27 29  1  0  0  0  0
 28 27  2  0  0  0  0
 29 30  1  0  0  0  0
 30 31  1  0  0  0  0
 31 32  1  0  0  0  0
 33 32  1  0  0  0  0
 34 29  1  0  0  0  0
 34 33  1  0  0  0  0
M  END
>  <minimizedAffinity>
-7.62039328

$$$$

 OpenBabel03242509283D

 34 39  0  0  0  0  0  0  0  0999 V2000
   64.6730   58.9660   31.2340 C   0  0  0  0  0  3  0  0  0  0  0  0
   65.9700   58.3600   31.2780 C   0  0  0  0  0  0  0  0  0  0  0  0
   66.2550   57.2980   30.4180 C   0  0  0  0  0  3  0  0  0  0  0  0
   65.2810   56.8830   29.5730 N   0  0  0  0  0  0  0  0  0  0  0  0
   64.0710   57.4810   29.5640 C   0  0  0  0  0  0  0  0  0  0  0  0
   63.7800   58.4970   30.3750 N   0  0  0  0  0  0  0  0  0  0  0  0
   63.0960   56.9500   28.6180 C   0  0  0  0  0  0  0  0  0  0  0  0
   62.5560   55.7220   28.5200 N   0  0  0  0  0  0  0  0  0  0  0  0
   61.7170   55.6790   27.5120 O   0  0  0  0  0  0  0  0  0  0  0  0
   61.6920   56.8870   26.9250 C   0  0  0  0  0  0  0  0  0  0  0  0
   62.5370   57.6610   27.6050 N   0  0  0  0  0  0  0  0  0  0  0  0
   60.9300   57.3040   25.7990 N   0  0  0  0  0  0  0  0  0  0  0  0
   60.5210   56.4890   24.8010 C   0  0  0  0  0  3  0  0  0  0  0  0
   59.8310   57.1710   23.8970 N   0  0  0  0  0  0  0  0  0  0  0  0
   59.7790   58.4630   24.2980 C   0  0  0  0  0  0  0  0  0  0  0  0
   59.1910   59.5950   23.7360 C   0  0  0  0  0  0  0  0  0  0  0  0
   59.3120   60.7700   24.3860 N   0  0  0  0  0  0  0  0  0  0  0  0
   60.0030   60.8040   25.5620 C   0  0  0  0  0  3  0  0  0  0  0  0
   60.5680   59.7010   26.0980 N   0  0  0  0  0  0  0  0  0  0  0  0
   60.4680   58.5250   25.4840 C   0  0  0  0  0  0  0  0  0  0  0  0
   58.4900   59.4370   22.4970 N   0  0  0  0  0  0  0  0  0  0  0  0
   58.0430   60.2500   22.0510 H   0  0  0  0  0  0  0  0  0  0  0  0
   58.4340   58.5090   22.0520 H   0  0  0  0  0  0  0  0  0  0  0  0
   66.9360   58.9070   32.2480 C   0  0  0  0  0  0  0  0  0  0  0  0
   68.2540   59.2000   31.8610 C   0  0  0  0  0  3  0  0  0  0  0  0
   69.0300   59.8440   33.4080 S   0  0  0  0  0  0  0  0  0  0  0  0
   67.3850   59.5910   34.3230 C   0  0  0  0  0  0  0  0  0  0  0  0
   66.7470   59.1850   33.5130 N   0  0  0  0  0  0  0  0  0  0  0  0
   67.1630   59.8940   35.7130 N   0  0  0  0  0  0  0  0  0  0  0  0
   68.0720   60.6310   36.5320 C   0  0  0  0  0  2  0  0  0  0  0  0
   67.6980   60.2860   37.9730 C   0  0  0  0  0  2  0  0  0  0  0  0
   66.4080   60.6640   38.2760 O   0  0  0  0  0  0  0  0  0  0  0  0
   65.4830   60.4270   37.3010 C   0  0  0  0  0  2  0  0  0  0  0  0
   65.9280   59.4070   36.2950 C   0  0  0  0  0  2  0  0  0  0  0  0
  1  2  1  0  0  0  0
  2 24  1  0  0  0  0
  3  2  2  0  0  0  0
  4  3  1  0  0  0  0
  5  4  2  0  0  0  0
  5  6  1  0  0  0  0
  6  1  2  0  0  0  0
  7  5  1  0  0  0  0
  8  7  2  0  0  0  0
  9  8  1  0  0  0  0
 10  9  1  0  0  0  0
 10 11  2  0  0  0  0
 11  7  1  0  0  0  0
 12 10  1  0  0  0  0
 13 12  1  0  0  0  0
 14 15  1  0  0  0  0
 14 13  2  0  0  0  0
 15 20  1  0  0  0  0
 16 15  2  0  0  0  0
 16 17  1  0  0  0  0
 17 18  2  0  0  0  0
 18 19  1  0  0  0  0
 20 12  1  0  0  0  0
 20 19  2  0  0  0  0
 21 16  1  0  0  0  0
 22 21  1  0  0  0  0
 23 21  1  0  0  0  0
 24 28  1  0  0  0  0
 25 24  2  0  0  0  0
 25 26  1  0  0  0  0
 26 27  1  0  0  0  0
 27 29  1  0  0  0  0
 28 27  2  0  0  0  0
 29 34  1  0  0  0  0
 29 30  1  0  0  0  0
 30 31  1  0  0  0  0
 31 32  1  0  0  0  0
 33 32  1  0  0  0  0
 34 33  1  0  0  0  0
M  END
>  <minimizedAffinity>
-7.46993494

$$$$

 OpenBabel03242509283D

 34 39  0  0  0  0  0  0  0  0999 V2000
   64.6660   57.0920   28.7000 C   0  0  0  0  0  3  0  0  0  0  0  0
   63.3550   57.6670   28.6790 C   0  0  0  0  0  0  0  0  0  0  0  0
   63.0050   58.6050   29.6510 C   0  0  0  0  0  3  0  0  0  0  0  0
   63.9330   58.9330   30.5830 N   0  0  0  0  0  0  0  0  0  0  0  0
   65.1590   58.3670   30.5680 C   0  0  0  0  0  0  0  0  0  0  0  0
   65.5120   57.4710   29.6480 N   0  0  0  0  0  0  0  0  0  0  0  0
   66.0770   58.7880   31.6210 C   0  0  0  0  0  0  0  0  0  0  0  0
   66.2530   59.9930   32.1910 N   0  0  0  0  0  0  0  0  0  0  0  0
   67.1950   59.9240   33.1040 O   0  0  0  0  0  0  0  0  0  0  0  0
   67.6570   58.6650   33.1470 C   0  0  0  0  0  0  0  0  0  0  0  0
   66.9700   57.9720   32.2380 N   0  0  0  0  0  0  0  0  0  0  0  0
   68.6760   58.1270   33.9810 N   0  0  0  0  0  0  0  0  0  0  0  0
   69.7150   58.8340   34.4790 C   0  0  0  0  0  3  0  0  0  0  0  0
   70.4940   58.0560   35.2200 N   0  0  0  0  0  0  0  0  0  0  0  0
   69.9650   56.8100   35.2160 C   0  0  0  0  0  0  0  0  0  0  0  0
   70.3670   55.6190   35.8200 C   0  0  0  0  0  0  0  0  0  0  0  0
   69.6160   54.5170   35.6270 N   0  0  0  0  0  0  0  0  0  0  0  0
   68.4970   54.6090   34.8500 C   0  0  0  0  0  3  0  0  0  0  0  0
   68.1170   55.7670   34.2700 N   0  0  0  0  0  0  0  0  0  0  0  0
   68.8340   56.8740   34.4390 C   0  0  0  0  0  0  0  0  0  0  0  0
   71.5590   55.6440   36.6130 N   0  0  0  0  0  0  0  0  0  0  0  0
   71.8880   54.7850   37.0750 H   0  0  0  0  0  0  0  0  0  0  0  0
   72.0880   56.5230   36.7210 H   0  0  0  0  0  0  0  0  0  0  0  0
   62.4410   57.2190   27.6120 C   0  0  0  0  0  0  0  0  0  0  0  0
   62.2160   55.8520   27.3870 C   0  0  0  0  0  3  0  0  0  0  0  0
   61.0210   55.8320   25.9780 S   0  0  0  0  0  0  0  0  0  0  0  0
   61.0450   57.7310   25.9490 C   0  0  0  0  0  0  0  0  0  0  0  0
   61.7500   57.9520   26.7750 N   0  0  0  0  0  0  0  0  0  0  0  0
   60.2890   58.5480   25.0360 N   0  0  0  0  0  0  0  0  0  0  0  0
   59.2540   58.0580   24.1840 C   0  0  0  0  0  2  0  0  0  0  0  0
   59.0950   59.1060   23.0840 C   0  0  0  0  0  2  0  0  0  0  0  0
   58.7210   60.3320   23.5900 O   0  0  0  0  0  0  0  0  0  0  0  0
   59.3440   60.7050   24.7460 C   0  0  0  0  0  2  0  0  0  0  0  0
   60.6200   59.9590   24.9990 C   0  0  0  0  0  2  0  0  0  0  0  0
  1  6  2  0  0  0  0
  2  1  1  0  0  0  0
  2  3  2  0  0  0  0
  3  4  1  0  0  0  0
  5  4  2  0  0  0  0
  5  7  1  0  0  0  0
  6  5  1  0  0  0  0
  7  8  2  0  0  0  0
  7 11  1  0  0  0  0
  8  9  1  0  0  0  0
  9 10  1  0  0  0  0
 10 12  1  0  0  0  0
 11 10  2  0  0  0  0
 12 20  1  0  0  0  0
 12 13  1  0  0  0  0
 13 14  2  0  0  0  0
 15 14  1  0  0  0  0
 15 16  1  0  0  0  0
 16 21  1  0  0  0  0
 17 16  2  0  0  0  0
 18 17  1  0  0  0  0
 19 20  1  0  0  0  0
 19 18  2  0  0  0  0
 20 15  2  0  0  0  0
 21 23  1  0  0  0  0
 21 22  1  0  0  0  0
 24  2  1  0  0  0  0
 25 24  2  0  0  0  0
 26 25  1  0  0  0  0
 27 26  1  0  0  0  0
 27 28  2  0  0  0  0
 28 24  1  0  0  0  0
 29 27  1  0  0  0  0
 30 29  1  0  0  0  0
 31 32  1  0  0  0  0
 31 30  1  0  0  0  0
 32 33  1  0  0  0  0
 33 34  1  0  0  0  0
 34 29  1  0  0  0  0
M  END
>  <minimizedAffinity>
-7.38318062

$$$$

 OpenBabel03242509283D

 34 39  0  0  0  0  0  0  0  0999 V2000
   64.7600   59.2170   31.0890 C   0  0  0  0  0  3  0  0  0  0  0  0
   66.0020   58.5280   31.2680 C   0  0  0  0  0  0  0  0  0  0  0  0
   66.2410   57.3540   30.5510 C   0  0  0  0  0  3  0  0  0  0  0  0
   65.2750   56.9150   29.7080 N   0  0  0  0  0  0  0  0  0  0  0  0
   64.1160   57.5950   29.5690 C   0  0  0  0  0  0  0  0  0  0  0  0
   63.8710   58.7170   30.2430 N   0  0  0  0  0  0  0  0  0  0  0  0
   63.1440   57.0290   28.6390 C   0  0  0  0  0  0  0  0  0  0  0  0
   62.6250   55.7910   28.5700 N   0  0  0  0  0  0  0  0  0  0  0  0
   61.7800   55.7140   27.5680 O   0  0  0  0  0  0  0  0  0  0  0  0
   61.7310   56.9090   26.9570 C   0  0  0  0  0  0  0  0  0  0  0  0
   62.5680   57.7110   27.6160 N   0  0  0  0  0  0  0  0  0  0  0  0
   60.9560   57.2910   25.8290 N   0  0  0  0  0  0  0  0  0  0  0  0
   60.5540   56.4500   24.8490 C   0  0  0  0  0  3  0  0  0  0  0  0
   59.8470   57.1020   23.9360 N   0  0  0  0  0  0  0  0  0  0  0  0
   59.7760   58.4010   24.3120 C   0  0  0  0  0  0  0  0  0  0  0  0
   59.1660   59.5120   23.7320 C   0  0  0  0  0  0  0  0  0  0  0  0
   59.2710   60.7010   24.3580 N   0  0  0  0  0  0  0  0  0  0  0  0
   59.9690   60.7700   25.5290 C   0  0  0  0  0  3  0  0  0  0  0  0
   60.5550   59.6870   26.0820 N   0  0  0  0  0  0  0  0  0  0  0  0
   60.4720   58.4980   25.4920 C   0  0  0  0  0  0  0  0  0  0  0  0
   58.4600   59.3170   22.5010 N   0  0  0  0  0  0  0  0  0  0  0  0
   57.9970   60.1140   22.0420 H   0  0  0  0  0  0  0  0  0  0  0  0
   58.4170   58.3800   22.0750 H   0  0  0  0  0  0  0  0  0  0  0  0
   66.9660   59.1120   32.2190 C   0  0  0  0  0  0  0  0  0  0  0  0
   66.7030   59.1120   33.5980 C   0  0  0  0  0  3  0  0  0  0  0  0
   68.1860   59.9380   34.3260 S   0  0  0  0  0  0  0  0  0  0  0  0
   68.9110   60.1410   32.5820 C   0  0  0  0  0  0  0  0  0  0  0  0
   68.1190   59.6760   31.9620 N   0  0  0  0  0  0  0  0  0  0  0  0
   70.1790   60.7570   32.2860 N   0  0  0  0  0  0  0  0  0  0  0  0
   71.1590   61.0940   33.2680 C   0  0  0  0  0  2  0  0  0  0  0  0
   72.0630   62.1330   32.6060 C   0  0  0  0  0  2  0  0  0  0  0  0
   72.6950   61.6310   31.4900 O   0  0  0  0  0  0  0  0  0  0  0  0
   71.9240   60.8460   30.6820 C   0  0  0  0  0  2  0  0  0  0  0  0
   70.4520   61.0440   30.8920 C   0  0  0  0  0  2  0  0  0  0  0  0
  1  2  1  0  0  0  0
  2 24  1  0  0  0  0
  3  2  2  0  0  0  0
  4  3  1  0  0  0  0
  5  4  2  0  0  0  0
  5  6  1  0  0  0  0
  6  1  2  0  0  0  0
  7  5  1  0  0  0  0
  8  7  2  0  0  0  0
  9  8  1  0  0  0  0
 10  9  1  0  0  0  0
 10 11  2  0  0  0  0
 11  7  1  0  0  0  0
 12 10  1  0  0  0  0
 13 12  1  0  0  0  0
 14 15  1  0  0  0  0
 14 13  2  0  0  0  0
 15 20  1  0  0  0  0
 16 15  2  0  0  0  0
 16 17  1  0  0  0  0
 17 18  2  0  0  0  0
 18 19  1  0  0  0  0
 20 12  1  0  0  0  0
 20 19  2  0  0  0  0
 21 16  1  0  0  0  0
 22 21  1  0  0  0  0
 23 21  1  0  0  0  0
 24 25  2  0  0  0  0
 25 26  1  0  0  0  0
 27 26  1  0  0  0  0
 28 24  1  0  0  0  0
 28 27  2  0  0  0  0
 29 27  1  0  0  0  0
 29 30  1  0  0  0  0
 31 30  1  0  0  0  0
 32 31  1  0  0  0  0
 33 34  1  0  0  0  0
 33 32  1  0  0  0  0
 34 29  1  0  0  0  0
M  END
>  <minimizedAffinity>
-7.11601686

$$$$

 OpenBabel03242509283D

 34 39  0  0  0  0  0  0  0  0999 V2000
   64.5530   58.5280   31.5310 C   0  0  0  0  0  3  0  0  0  0  0  0
   65.9180   58.1170   31.4010 C   0  0  0  0  0  0  0  0  0  0  0  0
   66.2800   57.2740   30.3480 C   0  0  0  0  0  3  0  0  0  0  0  0
   65.3110   56.8770   29.4880 N   0  0  0  0  0  0  0  0  0  0  0  0
   64.0340   57.2870   29.6470 C   0  0  0  0  0  0  0  0  0  0  0  0
   63.6700   58.0920   30.6430 N   0  0  0  0  0  0  0  0  0  0  0  0
   63.0720   56.7950   28.6670 C   0  0  0  0  0  0  0  0  0  0  0  0
   62.5130   55.5800   28.5300 N   0  0  0  0  0  0  0  0  0  0  0  0
   61.6970   55.5750   27.5010 O   0  0  0  0  0  0  0  0  0  0  0  0
   61.7080   56.7940   26.9400 C   0  0  0  0  0  0  0  0  0  0  0  0
   62.5510   57.5380   27.6570 N   0  0  0  0  0  0  0  0  0  0  0  0
   60.9810   57.2510   25.8060 N   0  0  0  0  0  0  0  0  0  0  0  0
   60.5820   56.4650   24.7810 C   0  0  0  0  0  3  0  0  0  0  0  0
   59.9260   57.1790   23.8760 N   0  0  0  0  0  0  0  0  0  0  0  0
   59.8880   58.4630   24.3040 C   0  0  0  0  0  0  0  0  0  0  0  0
   59.3350   59.6180   23.7530 C   0  0  0  0  0  0  0  0  0  0  0  0
   59.4620   60.7750   24.4310 N   0  0  0  0  0  0  0  0  0  0  0  0
   60.1250   60.7720   25.6240 C   0  0  0  0  0  3  0  0  0  0  0  0
   60.6570   59.6470   26.1480 N   0  0  0  0  0  0  0  0  0  0  0  0
   60.5500   58.4870   25.5070 C   0  0  0  0  0  0  0  0  0  0  0  0
   58.6610   59.4990   22.4950 N   0  0  0  0  0  0  0  0  0  0  0  0
   58.2400   60.3300   22.0560 H   0  0  0  0  0  0  0  0  0  0  0  0
   58.5990   58.5820   22.0280 H   0  0  0  0  0  0  0  0  0  0  0  0
   66.8710   58.6180   32.4080 C   0  0  0  0  0  0  0  0  0  0  0  0
   67.9400   57.8200   32.8450 C   0  0  0  0  0  3  0  0  0  0  0  0
   68.8110   58.8900   34.0740 S   0  0  0  0  0  0  0  0  0  0  0  0
   67.5340   60.2610   33.7640 C   0  0  0  0  0  0  0  0  0  0  0  0
   66.8810   59.7830   33.0060 N   0  0  0  0  0  0  0  0  0  0  0  0
   67.5340   61.5460   34.4140 N   0  0  0  0  0  0  0  0  0  0  0  0
   68.6120   62.0480   35.2040 C   0  0  0  0  0  2  0  0  0  0  0  0
   68.0070   63.1530   36.0690 C   0  0  0  0  0  2  0  0  0  0  0  0
   67.4890   64.1780   35.3080 O   0  0  0  0  0  0  0  0  0  0  0  0
   66.8050   63.7920   34.1920 C   0  0  0  0  0  2  0  0  0  0  0  0
   66.3510   62.3640   34.2380 C   0  0  0  0  0  2  0  0  0  0  0  0
  2  1  1  0  0  0  0
  2 24  1  0  0  0  0
  3  2  2  0  0  0  0
  4  5  2  0  0  0  0
  4  3  1  0  0  0  0
  5  6  1  0  0  0  0
  6  1  2  0  0  0  0
  7  5  1  0  0  0  0
  8  7  2  0  0  0  0
  9  8  1  0  0  0  0
 10  9  1  0  0  0  0
 10 11  2  0  0  0  0
 11  7  1  0  0  0  0
 12 10  1  0  0  0  0
 13 12  1  0  0  0  0
 14 15  1  0  0  0  0
 14 13  2  0  0  0  0
 15 20  1  0  0  0  0
 16 15  2  0  0  0  0
 16 17  1  0  0  0  0
 17 18  2  0  0  0  0
 18 19  1  0  0  0  0
 20 12  1  0  0  0  0
 20 19  2  0  0  0  0
 21 16  1  0  0  0  0
 22 21  1  0  0  0  0
 23 21  1  0  0  0  0
 24 25  2  0  0  0  0
 24 28  1  0  0  0  0
 25 26  1  0  0  0  0
 27 26  1  0  0  0  0
 27 29  1  0  0  0  0
 28 27  2  0  0  0  0
 29 30  1  0  0  0  0
 30 31  1  0  0  0  0
 32 31  1  0  0  0  0
 33 34  1  0  0  0  0
 33 32  1  0  0  0  0
 34 29  1  0  0  0  0
M  END
>  <minimizedAffinity>
-7.01157665

$$$$

 OpenBabel03242509283D

 34 39  0  0  0  0  0  0  0  0999 V2000
   66.4880   57.0590   31.3530 C   0  0  0  0  0  3  0  0  0  0  0  0
   66.0920   57.7590   32.5380 C   0  0  0  0  0  0  0  0  0  0  0  0
   64.8470   58.3890   32.5740 C   0  0  0  0  0  3  0  0  0  0  0  0
   64.0620   58.3110   31.4730 N   0  0  0  0  0  0  0  0  0  0  0  0
   64.4740   57.6420   30.3740 C   0  0  0  0  0  0  0  0  0  0  0  0
   65.6560   57.0330   30.3220 N   0  0  0  0  0  0  0  0  0  0  0  0
   63.5500   57.6270   29.2450 C   0  0  0  0  0  0  0  0  0  0  0  0
   63.3990   56.7280   28.2560 N   0  0  0  0  0  0  0  0  0  0  0  0
   62.4430   57.1130   27.4420 O   0  0  0  0  0  0  0  0  0  0  0  0
   61.9500   58.2810   27.8840 C   0  0  0  0  0  0  0  0  0  0  0  0
   62.6300   58.5920   28.9880 N   0  0  0  0  0  0  0  0  0  0  0  0
   60.9070   59.0670   27.3220 N   0  0  0  0  0  0  0  0  0  0  0  0
   60.5910   59.0990   26.0070 C   0  0  0  0  0  3  0  0  0  0  0  0
   59.5760   59.9250   25.7930 N   0  0  0  0  0  0  0  0  0  0  0  0
   59.2090   60.4540   26.9840 C   0  0  0  0  0  0  0  0  0  0  0  0
   58.2160   61.3650   27.3390 C   0  0  0  0  0  0  0  0  0  0  0  0
   58.0910   61.7070   28.6370 N   0  0  0  0  0  0  0  0  0  0  0  0
   58.9400   61.1490   29.5490 C   0  0  0  0  0  3  0  0  0  0  0  0
   59.8990   60.2670   29.1950 N   0  0  0  0  0  0  0  0  0  0  0  0
   60.0500   59.9080   27.9230 C   0  0  0  0  0  0  0  0  0  0  0  0
   57.3840   61.8840   26.2950 N   0  0  0  0  0  0  0  0  0  0  0  0
   56.6390   62.5590   26.5170 H   0  0  0  0  0  0  0  0  0  0  0  0
   57.5310   61.5810   25.3210 H   0  0  0  0  0  0  0  0  0  0  0  0
   67.0440   57.7690   33.6640 C   0  0  0  0  0  0  0  0  0  0  0  0
   66.6640   58.2670   34.9210 C   0  0  0  0  0  3  0  0  0  0  0  0
   68.1830   58.0570   35.9510 S   0  0  0  0  0  0  0  0  0  0  0  0
   69.0810   57.3140   34.4520 C   0  0  0  0  0  0  0  0  0  0  0  0
   68.2860   57.3550   33.6800 N   0  0  0  0  0  0  0  0  0  0  0  0
   70.4450   56.8530   34.4570 N   0  0  0  0  0  0  0  0  0  0  0  0
   71.2330   56.6820   35.6350 C   0  0  0  0  0  2  0  0  0  0  0  0
   72.6860   56.6770   35.1610 C   0  0  0  0  0  2  0  0  0  0  0  0
   72.9400   55.6390   34.2920 O   0  0  0  0  0  0  0  0  0  0  0  0
   71.9650   55.3920   33.3700 C   0  0  0  0  0  2  0  0  0  0  0  0
   71.0340   56.5490   33.1680 C   0  0  0  0  0  2  0  0  0  0  0  0
  1  2  1  0  0  0  0
  2  3  2  0  0  0  0
  2 24  1  0  0  0  0
  4  3  1  0  0  0  0
  5  4  2  0  0  0  0
  6  5  1  0  0  0  0
  6  1  2  0  0  0  0
  7  5  1  0  0  0  0
  8  7  2  0  0  0  0
  9 10  1  0  0  0  0
  9  8  1  0  0  0  0
 10 11  2  0  0  0  0
 11  7  1  0  0  0  0
 12 10  1  0  0  0  0
 12 20  1  0  0  0  0
 13 12  1  0  0  0  0
 14 13  2  0  0  0  0
 14 15  1  0  0  0  0
 15 16  2  0  0  0  0
 15 20  1  0  0  0  0
 16 17  1  0  0  0  0
 17 18  2  0  0  0  0
 19 18  1  0  0  0  0
 20 19  2  0  0  0  0
 21 22  1  0  0  0  0
 21 16  1  0  0  0  0
 23 21  1  0  0  0  0
 24 28  1  0  0  0  0
 24 25  2  0  0  0  0
 25 26  1  0  0  0  0
 27 29  1  0  0  0  0
 27 26  1  0  0  0  0
 28 27  2  0  0  0  0
 29 30  1  0  0  0  0
 31 30  1  0  0  0  0
 32 31  1  0  0  0  0
 33 32  1  0  0  0  0
 34 33  1  0  0  0  0
 34 29  1  0  0  0  0
M  END
>  <minimizedAffinity>
-6.98259258

$$$$

 OpenBabel03242509283D

 34 39  0  0  0  0  0  0  0  0999 V2000
   62.4390   57.7250   28.6250 C   0  0  0  0  0  3  0  0  0  0  0  0
   62.8220   57.3300   27.3040 C   0  0  0  0  0  0  0  0  0  0  0  0
   64.1690   57.0940   27.0250 C   0  0  0  0  0  3  0  0  0  0  0  0
   65.0640   57.2540   28.0300 N   0  0  0  0  0  0  0  0  0  0  0  0
   64.6610   57.6300   29.2630 C   0  0  0  0  0  0  0  0  0  0  0  0
   63.3810   57.8570   29.5480 N   0  0  0  0  0  0  0  0  0  0  0  0
   65.7100   57.7770   30.2670 C   0  0  0  0  0  0  0  0  0  0  0  0
   66.5790   56.8750   30.7570 N   0  0  0  0  0  0  0  0  0  0  0  0
   67.3530   57.4400   31.6540 O   0  0  0  0  0  0  0  0  0  0  0  0
   67.0030   58.7310   31.7700 C   0  0  0  0  0  0  0  0  0  0  0  0
   65.9960   58.9330   30.9190 N   0  0  0  0  0  0  0  0  0  0  0  0
   67.5640   59.7250   32.6180 N   0  0  0  0  0  0  0  0  0  0  0  0
   68.1520   59.4770   33.8100 C   0  0  0  0  0  3  0  0  0  0  0  0
   68.5770   60.6050   34.3630 N   0  0  0  0  0  0  0  0  0  0  0  0
   68.2670   61.6230   33.5260 C   0  0  0  0  0  0  0  0  0  0  0  0
   68.4770   62.9990   33.6060 C   0  0  0  0  0  0  0  0  0  0  0  0
   68.0460   63.7730   32.5910 N   0  0  0  0  0  0  0  0  0  0  0  0
   67.4220   63.1830   31.5300 C   0  0  0  0  0  3  0  0  0  0  0  0
   67.2250   61.8490   31.4620 N   0  0  0  0  0  0  0  0  0  0  0  0
   67.6370   61.0550   32.4460 C   0  0  0  0  0  0  0  0  0  0  0  0
   69.1430   63.5040   34.7690 N   0  0  0  0  0  0  0  0  0  0  0  0
   69.3160   64.5150   34.8640 H   0  0  0  0  0  0  0  0  0  0  0  0
   69.4490   62.8570   35.5100 H   0  0  0  0  0  0  0  0  0  0  0  0
   61.7470   57.1960   26.3030 C   0  0  0  0  0  0  0  0  0  0  0  0
   61.3930   55.9360   25.7940 C   0  0  0  0  0  3  0  0  0  0  0  0
   60.0280   56.3130   24.6060 S   0  0  0  0  0  0  0  0  0  0  0  0
   60.1920   58.1580   25.0260 C   0  0  0  0  0  0  0  0  0  0  0  0
   61.0120   58.1400   25.7710 N   0  0  0  0  0  0  0  0  0  0  0  0
   59.3890   59.2060   24.4500 N   0  0  0  0  0  0  0  0  0  0  0  0
   58.2190   58.9830   23.6620 C   0  0  0  0  0  2  0  0  0  0  0  0
   58.0000   60.2750   22.8770 C   0  0  0  0  0  2  0  0  0  0  0  0
   57.7870   61.3530   23.7080 O   0  0  0  0  0  0  0  0  0  0  0  0
   58.5800   61.4050   24.8170 C   0  0  0  0  0  2  0  0  0  0  0  0
   59.8180   60.5670   24.7010 C   0  0  0  0  0  2  0  0  0  0  0  0
  1  6  2  0  0  0  0
  2  1  1  0  0  0  0
  3  2  2  0  0  0  0
  3  4  1  0  0  0  0
  4  5  2  0  0  0  0
  5  6  1  0  0  0  0
  5  7  1  0  0  0  0
  7  8  2  0  0  0  0
  7 11  1  0  0  0  0
  8  9  1  0  0  0  0
  9 10  1  0  0  0  0
 10 12  1  0  0  0  0
 11 10  2  0  0  0  0
 12 13  1  0  0  0  0
 13 14  2  0  0  0  0
 15 16  1  0  0  0  0
 15 14  1  0  0  0  0
 16 21  1  0  0  0  0
 17 16  2  0  0  0  0
 18 17  1  0  0  0  0
 19 18  2  0  0  0  0
 19 20  1  0  0  0  0
 20 12  1  0  0  0  0
 20 15  2  0  0  0  0
 21 22  1  0  0  0  0
 21 23  1  0  0  0  0
 24  2  1  0  0  0  0
 25 24  2  0  0  0  0
 26 27  1  0  0  0  0
 26 25  1  0  0  0  0
 27 28  2  0  0  0  0
 28 24  1  0  0  0  0
 29 34  1  0  0  0  0
 29 27  1  0  0  0  0
 30 29  1  0  0  0  0
 31 30  1  0  0  0  0
 31 32  1  0  0  0  0
 32 33  1  0  0  0  0
 34 33  1  0  0  0  0
M  END
>  <minimizedAffinity>
-6.82900667

$$$$

 OpenBabel03242509283D

 34 39  0  0  0  0  0  0  0  0999 V2000
   64.8110   58.2090   32.1150 C   0  0  0  0  0  3  0  0  0  0  0  0
   66.1510   57.7380   31.9300 C   0  0  0  0  0  0  0  0  0  0  0  0
   66.4900   57.0980   30.7360 C   0  0  0  0  0  3  0  0  0  0  0  0
   65.5240   56.9480   29.7980 N   0  0  0  0  0  0  0  0  0  0  0  0
   64.2720   57.4060   30.0130 C   0  0  0  0  0  0  0  0  0  0  0  0
   63.9300   58.0200   31.1430 N   0  0  0  0  0  0  0  0  0  0  0  0
   63.3110   57.1850   28.9370 C   0  0  0  0  0  0  0  0  0  0  0  0
   62.8450   56.0410   28.4070 N   0  0  0  0  0  0  0  0  0  0  0  0
   61.9890   56.3070   27.4480 O   0  0  0  0  0  0  0  0  0  0  0  0
   61.8780   57.6400   27.3300 C   0  0  0  0  0  0  0  0  0  0  0  0
   62.6900   58.1740   28.2440 N   0  0  0  0  0  0  0  0  0  0  0  0
   61.0690   58.3820   26.4270 N   0  0  0  0  0  0  0  0  0  0  0  0
   60.6900   57.9510   25.2020 C   0  0  0  0  0  3  0  0  0  0  0  0
   59.9410   58.8650   24.6000 N   0  0  0  0  0  0  0  0  0  0  0  0
   59.8190   59.9230   25.4360 C   0  0  0  0  0  0  0  0  0  0  0  0
   59.1520   61.1410   25.3150 C   0  0  0  0  0  0  0  0  0  0  0  0
   59.2150   62.0120   26.3410 N   0  0  0  0  0  0  0  0  0  0  0  0
   59.9270   61.6690   27.4540 C   0  0  0  0  0  3  0  0  0  0  0  0
   60.5690   60.4860   27.5610 N   0  0  0  0  0  0  0  0  0  0  0  0
   60.5280   59.6030   26.5670 C   0  0  0  0  0  0  0  0  0  0  0  0
   58.4360   61.3900   24.0990 N   0  0  0  0  0  0  0  0  0  0  0  0
   57.9310   62.2790   23.9720 H   0  0  0  0  0  0  0  0  0  0  0  0
   58.4270   60.6810   23.3520 H   0  0  0  0  0  0  0  0  0  0  0  0
   67.1030   57.9630   33.0330 C   0  0  0  0  0  0  0  0  0  0  0  0
   68.3470   57.3140   33.0500 C   0  0  0  0  0  3  0  0  0  0  0  0
   69.1370   57.9260   34.6050 S   0  0  0  0  0  0  0  0  0  0  0  0
   67.5950   58.9760   34.9580 C   0  0  0  0  0  0  0  0  0  0  0  0
   66.9610   58.7330   34.0820 N   0  0  0  0  0  0  0  0  0  0  0  0
   67.4280   59.8280   36.1070 N   0  0  0  0  0  0  0  0  0  0  0  0
   68.4750   60.1730   37.0140 C   0  0  0  0  0  2  0  0  0  0  0  0
   67.7770   60.6410   38.2900 C   0  0  0  0  0  2  0  0  0  0  0  0
   66.9870   61.7480   38.0690 O   0  0  0  0  0  0  0  0  0  0  0  0
   66.2630   61.7310   36.9130 C   0  0  0  0  0  2  0  0  0  0  0  0
   66.0980   60.3570   36.3360 C   0  0  0  0  0  2  0  0  0  0  0  0
  2  1  1  0  0  0  0
  2 24  1  0  0  0  0
  3  2  2  0  0  0  0
  4  5  2  0  0  0  0
  4  3  1  0  0  0  0
  5  6  1  0  0  0  0
  6  1  2  0  0  0  0
  7  5  1  0  0  0  0
  8  7  2  0  0  0  0
  9  8  1  0  0  0  0
 10  9  1  0  0  0  0
 10 11  2  0  0  0  0
 11  7  1  0  0  0  0
 12 20  1  0  0  0  0
 12 10  1  0  0  0  0
 13 12  1  0  0  0  0
 14 13  2  0  0  0  0
 14 15  1  0  0  0  0
 15 20  1  0  0  0  0
 16 15  2  0  0  0  0
 16 17  1  0  0  0  0
 17 18  2  0  0  0  0
 18 19  1  0  0  0  0
 20 19  2  0  0  0  0
 21 16  1  0  0  0  0
 22 21  1  0  0  0  0
 23 21  1  0  0  0  0
 24 25  2  0  0  0  0
 24 28  1  0  0  0  0
 25 26  1  0  0  0  0
 26 27  1  0  0  0  0
 27 29  1  0  0  0  0
 28 27  2  0  0  0  0
 29 34  1  0  0  0  0
 29 30  1  0  0  0  0
 30 31  1  0  0  0  0
 32 31  1  0  0  0  0
 33 32  1  0  0  0  0
 34 33  1  0  0  0  0
M  END
>  <minimizedAffinity>
-6.81927729

$$$$
