
 OpenBabel03242509203D

 34 39  0  0  1  0  0  0  0  0999 V2000
   65.9220   57.2790   29.9610 C   0  0  0  0  0  2  0  0  0  0  0  0
   63.4220   57.2480   29.4390 C   0  0  0  0  0  3  0  0  0  0  0  0
   64.7780   57.2790   29.0850 C   0  0  0  0  0  0  0  0  0  0  0  0
   65.0920   57.3170   27.7400 C   0  0  0  0  0  3  0  0  0  0  0  0
   64.0600   57.3200   26.8330 N   0  0  0  0  0  0  0  0  0  0  0  0
   62.7560   57.2880   27.2000 C   0  0  0  0  0  0  0  0  0  0  0  0
   62.4530   57.2510   28.5160 N   0  0  0  0  0  0  0  0  0  0  0  0
   61.7580   57.2930   26.1860 N   0  0  0  0  0  0  0  0  0  0  0  0
   61.5640   58.4010   25.4530 C   0  0  0  0  0  3  0  0  0  0  0  0
   60.6310   58.5350   24.4440 C   0  0  0  0  0  0  0  0  0  0  0  0
   59.8430   57.4270   24.1790 C   0  0  0  0  0  0  0  0  0  0  0  0
   58.9830   57.4720   23.2840 O   0  0  0  0  0  0  0  0  0  0  0  0
   60.0470   56.3040   24.9290 N   0  0  0  0  0  0  0  0  0  0  0  0
   60.9810   56.2220   25.9160 C   0  0  0  0  0  0  0  0  0  0  0  0
   61.1300   55.1690   26.5760 O   0  0  0  0  0  0  0  0  0  0  0  0
   60.5070   59.8050   23.7040 C   0  0  0  0  0  1  0  0  0  0  0  0
   59.4640   55.4770   24.7380 H   0  0  0  0  0  0  0  0  0  0  0  0
   65.5950   57.0290   31.3840 C   0  0  2  0  0  3  0  0  0  0  0  0
   64.8140   57.9540   32.1890 C   0  0  0  0  0  2  0  0  0  0  0  0
   66.2390   57.9270   32.4640 C   0  0  2  0  0  3  0  0  0  0  0  0
   67.1780   58.9900   32.0520 C   0  0  0  0  0  0  0  0  0  0  0  0
   68.5180   58.9550   31.7710 N   0  0  0  0  0  0  0  0  0  0  0  0
   68.9110   60.1450   31.4670 O   0  0  0  0  0  0  0  0  0  0  0  0
   67.9020   60.9860   31.5300 C   0  0  0  0  0  0  0  0  0  0  0  0
   66.8070   60.2770   31.8950 N   0  0  0  0  0  0  0  0  0  0  0  0
   67.8720   62.3850   31.2800 N   0  0  0  0  0  0  0  0  0  0  0  0
   67.2150   63.2170   32.1120 C   0  0  0  0  0  3  0  0  0  0  0  0
   67.3230   64.4840   31.6770 N   0  0  0  0  0  0  0  0  0  0  0  0
   68.0530   64.4910   30.5560 C   0  0  0  0  0  0  0  0  0  0  0  0
   68.5280   65.4170   29.6300 C   0  0  0  0  0  3  0  0  0  0  0  0
   69.2720   65.0090   28.5770 N   0  0  0  0  0  0  0  0  0  0  0  0
   69.5860   63.7030   28.3720 C   0  0  0  0  0  3  0  0  0  0  0  0
   69.1300   62.7780   29.2660 N   0  0  0  0  0  0  0  0  0  0  0  0
   68.3880   63.1750   30.3220 C   0  0  0  0  0  0  0  0  0  0  0  0
  3  2  1  0  0  0  0
  3  1  1  0  0  0  0
  4  3  2  0  0  0  0
  5  6  2  0  0  0  0
  5  4  1  0  0  0  0
  6  7  1  0  0  0  0
  7  2  2  0  0  0  0
  8  6  1  0  0  0  0
  9  8  1  0  0  0  0
 10  9  2  0  0  0  0
 11 10  1  0  0  0  0
 11 13  1  0  0  0  0
 12 11  2  0  0  0  0
 13 14  1  0  0  0  0
 14  8  1  0  0  0  0
 14 15  2  0  0  0  0
 16 10  1  0  0  0  0
 17 13  1  0  0  0  0
 18  1  1  6  0  0  0
 18 19  1  0  0  0  0
 18 20  1  0  0  0  0
 19 20  1  0  0  0  0
 20 21  1  6  0  0  0
 22 21  2  0  0  0  0
 23 24  1  0  0  0  0
 23 22  1  0  0  0  0
 24 25  2  0  0  0  0
 25 21  1  0  0  0  0
 26 24  1  0  0  0  0
 26 27  1  0  0  0  0
 28 27  2  0  0  0  0
 29 28  1  0  0  0  0
 30 29  2  0  0  0  0
 31 30  1  0  0  0  0
 32 31  2  0  0  0  0
 32 33  1  0  0  0  0
 33 34  2  0  0  0  0
 34 29  1  0  0  0  0
 34 26  1  0  0  0  0
M  END
>  <minimizedAffinity>
-7.62757301

$$$$

 OpenBabel03242509203D

 34 39  0  0  1  0  0  0  0  0999 V2000
   65.4300   57.5440   29.7380 C   0  0  0  0  0  2  0  0  0  0  0  0
   64.7630   57.2800   27.2860 C   0  0  0  0  0  3  0  0  0  0  0  0
   64.4890   57.4070   28.6550 C   0  0  0  0  0  0  0  0  0  0  0  0
   63.1650   57.4010   29.0500 C   0  0  0  0  0  3  0  0  0  0  0  0
   62.1990   57.2730   28.0810 N   0  0  0  0  0  0  0  0  0  0  0  0
   62.4900   57.1540   26.7620 C   0  0  0  0  0  0  0  0  0  0  0  0
   63.7860   57.1590   26.3810 N   0  0  0  0  0  0  0  0  0  0  0  0
   61.4200   57.0270   25.8340 N   0  0  0  0  0  0  0  0  0  0  0  0
   60.6890   55.9010   25.8140 C   0  0  0  0  0  3  0  0  0  0  0  0
   59.6290   55.6550   24.9650 C   0  0  0  0  0  0  0  0  0  0  0  0
   59.3070   56.6620   24.0690 C   0  0  0  0  0  0  0  0  0  0  0  0
   58.3640   56.5130   23.2740 O   0  0  0  0  0  0  0  0  0  0  0  0
   60.0540   57.8040   24.0960 N   0  0  0  0  0  0  0  0  0  0  0  0
   61.0930   57.9990   24.9540 C   0  0  0  0  0  0  0  0  0  0  0  0
   61.7490   59.0640   24.9400 O   0  0  0  0  0  0  0  0  0  0  0  0
   58.8960   54.3760   25.0340 C   0  0  0  0  0  1  0  0  0  0  0  0
   59.8210   58.5570   23.4330 H   0  0  0  0  0  0  0  0  0  0  0  0
   64.8300   57.4030   31.0850 C   0  0  2  0  0  3  0  0  0  0  0  0
   64.4400   58.5430   31.8980 C   0  0  0  0  0  2  0  0  0  0  0  0
   65.6480   57.8550   32.3140 C   0  0  2  0  0  3  0  0  0  0  0  0
   67.0110   58.3900   32.1170 C   0  0  0  0  0  0  0  0  0  0  0  0
   68.2420   57.8060   32.2600 N   0  0  0  0  0  0  0  0  0  0  0  0
   69.1510   58.6790   31.9890 O   0  0  0  0  0  0  0  0  0  0  0  0
   68.5960   59.8280   31.6700 C   0  0  0  0  0  0  0  0  0  0  0  0
   67.2540   59.6630   31.7450 N   0  0  0  0  0  0  0  0  0  0  0  0
   69.2070   61.0580   31.3030 N   0  0  0  0  0  0  0  0  0  0  0  0
   68.7690   62.2230   31.8220 C   0  0  0  0  0  3  0  0  0  0  0  0
   69.4920   63.2450   31.3330 N   0  0  0  0  0  0  0  0  0  0  0  0
   70.4090   62.7570   30.4900 C   0  0  0  0  0  0  0  0  0  0  0  0
   71.4330   63.2360   29.6760 C   0  0  0  0  0  3  0  0  0  0  0  0
   72.1740   62.3790   28.9370 N   0  0  0  0  0  0  0  0  0  0  0  0
   71.9620   61.0380   28.9500 C   0  0  0  0  0  3  0  0  0  0  0  0
   70.9630   60.5460   29.7400 N   0  0  0  0  0  0  0  0  0  0  0  0
   70.2180   61.3920   30.4820 C   0  0  0  0  0  0  0  0  0  0  0  0
  2  3  1  0  0  0  0
  3  4  2  0  0  0  0
  3  1  1  0  0  0  0
  5  4  1  0  0  0  0
  6  5  2  0  0  0  0
  7  6  1  0  0  0  0
  7  2  2  0  0  0  0
  8  6  1  0  0  0  0
  9  8  1  0  0  0  0
 10 16  1  0  0  0  0
 10  9  2  0  0  0  0
 11 13  1  0  0  0  0
 11 10  1  0  0  0  0
 12 11  2  0  0  0  0
 13 14  1  0  0  0  0
 14  8  1  0  0  0  0
 15 14  2  0  0  0  0
 17 13  1  0  0  0  0
 18  1  1  6  0  0  0
 18 19  1  0  0  0  0
 18 20  1  0  0  0  0
 19 20  1  0  0  0  0
 20 21  1  6  0  0  0
 21 22  2  0  0  0  0
 23 22  1  0  0  0  0
 24 25  2  0  0  0  0
 24 23  1  0  0  0  0
 25 21  1  0  0  0  0
 26 24  1  0  0  0  0
 26 27  1  0  0  0  0
 28 27  2  0  0  0  0
 29 28  1  0  0  0  0
 30 29  2  0  0  0  0
 31 32  2  0  0  0  0
 31 30  1  0  0  0  0
 32 33  1  0  0  0  0
 33 34  2  0  0  0  0
 34 29  1  0  0  0  0
 34 26  1  0  0  0  0
M  END
>  <minimizedAffinity>
-7.5419569

$$$$

 OpenBabel03242509203D

 34 39  0  0  1  0  0  0  0  0999 V2000
   65.4360   57.5500   29.8630 C   0  0  0  0  0  2  0  0  0  0  0  0
   64.8020   57.2460   27.4070 C   0  0  0  0  0  3  0  0  0  0  0  0
   64.5090   57.4010   28.7690 C   0  0  0  0  0  0  0  0  0  0  0  0
   63.1800   57.4140   29.1450 C   0  0  0  0  0  3  0  0  0  0  0  0
   62.2270   57.2770   28.1640 N   0  0  0  0  0  0  0  0  0  0  0  0
   62.5360   57.1300   26.8520 C   0  0  0  0  0  0  0  0  0  0  0  0
   63.8380   57.1170   26.4900 N   0  0  0  0  0  0  0  0  0  0  0  0
   61.4790   56.9960   25.9110 N   0  0  0  0  0  0  0  0  0  0  0  0
   60.7380   55.8760   25.9010 C   0  0  0  0  0  3  0  0  0  0  0  0
   59.6880   55.6240   25.0400 C   0  0  0  0  0  0  0  0  0  0  0  0
   59.3880   56.6170   24.1210 C   0  0  0  0  0  0  0  0  0  0  0  0
   58.4560   56.4620   23.3160 O   0  0  0  0  0  0  0  0  0  0  0  0
   60.1460   57.7520   24.1380 N   0  0  0  0  0  0  0  0  0  0  0  0
   61.1740   57.9540   25.0080 C   0  0  0  0  0  0  0  0  0  0  0  0
   61.8400   59.0130   24.9830 O   0  0  0  0  0  0  0  0  0  0  0  0
   58.9430   54.3530   25.1220 C   0  0  0  0  0  1  0  0  0  0  0  0
   59.9300   58.4950   23.4580 H   0  0  0  0  0  0  0  0  0  0  0  0
   64.8130   57.4530   31.2030 C   0  0  2  0  0  3  0  0  0  0  0  0
   64.5970   58.6070   32.0600 C   0  0  0  0  0  2  0  0  0  0  0  0
   65.6830   57.7270   32.4500 C   0  0  2  0  0  3  0  0  0  0  0  0
   67.1130   58.0530   32.2740 C   0  0  0  0  0  0  0  0  0  0  0  0
   67.7390   58.9790   31.4810 N   0  0  0  0  0  0  0  0  0  0  0  0
   69.0120   58.8830   31.6560 O   0  0  0  0  0  0  0  0  0  0  0  0
   69.2800   57.9360   32.5300 C   0  0  0  0  0  0  0  0  0  0  0  0
   68.0990   57.4060   32.9260 N   0  0  0  0  0  0  0  0  0  0  0  0
   70.5360   57.4870   33.0220 N   0  0  0  0  0  0  0  0  0  0  0  0
   70.7970   56.1700   33.1340 C   0  0  0  0  0  3  0  0  0  0  0  0
   72.0380   55.9860   33.6190 N   0  0  0  0  0  0  0  0  0  0  0  0
   72.5980   57.1820   33.8270 C   0  0  0  0  0  0  0  0  0  0  0  0
   73.8050   57.6990   34.2930 C   0  0  0  0  0  3  0  0  0  0  0  0
   73.9960   59.0370   34.3560 N   0  0  0  0  0  0  0  0  0  0  0  0
   73.0410   59.9250   33.9770 C   0  0  0  0  0  3  0  0  0  0  0  0
   71.8500   59.4410   33.5180 N   0  0  0  0  0  0  0  0  0  0  0  0
   71.6490   58.1080   33.4500 C   0  0  0  0  0  0  0  0  0  0  0  0
  2  3  1  0  0  0  0
  3  4  2  0  0  0  0
  3  1  1  0  0  0  0
  5  4  1  0  0  0  0
  6  5  2  0  0  0  0
  7  6  1  0  0  0  0
  7  2  2  0  0  0  0
  8  6  1  0  0  0  0
  9  8  1  0  0  0  0
 10 16  1  0  0  0  0
 10  9  2  0  0  0  0
 11 13  1  0  0  0  0
 11 10  1  0  0  0  0
 12 11  2  0  0  0  0
 13 14  1  0  0  0  0
 14  8  1  0  0  0  0
 15 14  2  0  0  0  0
 17 13  1  0  0  0  0
 18  1  1  6  0  0  0
 18 19  1  0  0  0  0
 18 20  1  0  0  0  0
 19 20  1  0  0  0  0
 20 21  1  6  0  0  0
 21 25  1  0  0  0  0
 22 23  1  0  0  0  0
 22 21  2  0  0  0  0
 23 24  1  0  0  0  0
 24 25  2  0  0  0  0
 24 26  1  0  0  0  0
 26 27  1  0  0  0  0
 26 34  1  0  0  0  0
 27 28  2  0  0  0  0
 28 29  1  0  0  0  0
 29 30  1  0  0  0  0
 30 31  2  0  0  0  0
 32 31  1  0  0  0  0
 33 32  2  0  0  0  0
 34 33  1  0  0  0  0
 34 29  2  0  0  0  0
M  END
>  <minimizedAffinity>
-7.34113407

$$$$

 OpenBabel03242509203D

 34 39  0  0  1  0  0  0  0  0999 V2000
   63.2570   57.0470   26.4580 C   0  0  0  0  0  2  0  0  0  0  0  0
   63.0770   57.4500   28.9740 C   0  0  0  0  0  3  0  0  0  0  0  0
   63.7880   57.2860   27.7770 C   0  0  0  0  0  0  0  0  0  0  0  0
   65.1660   57.3520   27.8310 C   0  0  0  0  0  3  0  0  0  0  0  0
   65.7580   57.5770   29.0510 N   0  0  0  0  0  0  0  0  0  0  0  0
   65.0490   57.7340   30.1960 C   0  0  0  0  0  0  0  0  0  0  0  0
   63.7000   57.6680   30.1380 N   0  0  0  0  0  0  0  0  0  0  0  0
   65.7510   57.9630   31.4110 N   0  0  0  0  0  0  0  0  0  0  0  0
   66.4790   56.9730   31.9530 C   0  0  0  0  0  3  0  0  0  0  0  0
   67.2030   57.0670   33.1240 C   0  0  0  0  0  0  0  0  0  0  0  0
   67.1670   58.2880   33.7790 C   0  0  0  0  0  0  0  0  0  0  0  0
   67.7950   58.4480   34.8380 O   0  0  0  0  0  0  0  0  0  0  0  0
   66.4250   59.2890   33.2210 N   0  0  0  0  0  0  0  0  0  0  0  0
   65.7260   59.1470   32.0620 C   0  0  0  0  0  0  0  0  0  0  0  0
   65.0600   60.0960   31.5910 O   0  0  0  0  0  0  0  0  0  0  0  0
   67.9680   55.9090   33.6250 C   0  0  0  0  0  1  0  0  0  0  0  0
   66.3920   60.1990   33.7020 H   0  0  0  0  0  0  0  0  0  0  0  0
   62.1070   56.1140   26.4270 C   0  0  2  0  0  3  0  0  0  0  0  0
   61.3520   55.8310   25.2180 C   0  0  0  0  0  2  0  0  0  0  0  0
   60.6920   56.6850   26.1880 C   0  0  2  0  0  3  0  0  0  0  0  0
   60.5210   58.1430   26.0210 C   0  0  0  0  0  0  0  0  0  0  0  0
   60.6220   58.9460   24.9160 N   0  0  0  0  0  0  0  0  0  0  0  0
   60.4010   60.1660   25.2660 O   0  0  0  0  0  0  0  0  0  0  0  0
   60.1560   60.2310   26.5570 C   0  0  0  0  0  0  0  0  0  0  0  0
   60.2280   58.9690   27.0450 N   0  0  0  0  0  0  0  0  0  0  0  0
   59.8620   61.3610   27.3680 N   0  0  0  0  0  0  0  0  0  0  0  0
   60.4540   61.5150   28.5690 C   0  0  0  0  0  3  0  0  0  0  0  0
   60.0250   62.6480   29.1520 N   0  0  0  0  0  0  0  0  0  0  0  0
   59.1490   63.2440   28.3350 C   0  0  0  0  0  0  0  0  0  0  0  0
   58.3610   64.3930   28.3160 C   0  0  0  0  0  3  0  0  0  0  0  0
   57.5680   64.6580   27.2530 N   0  0  0  0  0  0  0  0  0  0  0  0
   57.4990   63.8350   26.1750 C   0  0  0  0  0  3  0  0  0  0  0  0
   58.2620   62.7020   26.1730 N   0  0  0  0  0  0  0  0  0  0  0  0
   59.0590   62.4290   27.2280 C   0  0  0  0  0  0  0  0  0  0  0  0
  1  3  1  0  0  0  0
  2  7  2  0  0  0  0
  3  4  2  0  0  0  0
  3  2  1  0  0  0  0
  4  5  1  0  0  0  0
  5  6  2  0  0  0  0
  6  8  1  0  0  0  0
  7  6  1  0  0  0  0
  8  9  1  0  0  0  0
  8 14  1  0  0  0  0
  9 10  2  0  0  0  0
 10 16  1  0  0  0  0
 10 11  1  0  0  0  0
 11 12  2  0  0  0  0
 13 17  1  0  0  0  0
 13 11  1  0  0  0  0
 14 13  1  0  0  0  0
 15 14  2  0  0  0  0
 18  1  1  6  0  0  0
 19 20  1  0  0  0  0
 19 18  1  0  0  0  0
 20 21  1  6  0  0  0
 20 18  1  0  0  0  0
 21 25  1  0  0  0  0
 22 23  1  0  0  0  0
 22 21  2  0  0  0  0
 23 24  1  0  0  0  0
 24 25  2  0  0  0  0
 24 26  1  0  0  0  0
 26 27  1  0  0  0  0
 27 28  2  0  0  0  0
 29 28  1  0  0  0  0
 30 29  1  0  0  0  0
 31 30  2  0  0  0  0
 32 31  1  0  0  0  0
 33 32  2  0  0  0  0
 33 34  1  0  0  0  0
 34 26  1  0  0  0  0
 34 29  2  0  0  0  0
M  END
>  <minimizedAffinity>
-7.31497526

$$$$

 OpenBabel03242509203D

 34 39  0  0  1  0  0  0  0  0999 V2000
   65.9830   57.4180   30.3430 C   0  0  0  0  0  2  0  0  0  0  0  0
   63.5070   57.3820   29.7150 C   0  0  0  0  0  3  0  0  0  0  0  0
   64.8770   57.3890   29.4190 C   0  0  0  0  0  0  0  0  0  0  0  0
   65.2490   57.3670   28.0890 C   0  0  0  0  0  3  0  0  0  0  0  0
   64.2570   57.3390   27.1380 N   0  0  0  0  0  0  0  0  0  0  0  0
   62.9380   57.3320   27.4490 C   0  0  0  0  0  0  0  0  0  0  0  0
   62.5790   57.3540   28.7520 N   0  0  0  0  0  0  0  0  0  0  0  0
   61.9850   57.3020   26.3940 N   0  0  0  0  0  0  0  0  0  0  0  0
   61.8330   58.3790   25.6080 C   0  0  0  0  0  3  0  0  0  0  0  0
   60.9460   58.4770   24.5540 C   0  0  0  0  0  0  0  0  0  0  0  0
   60.1590   57.3640   24.3020 C   0  0  0  0  0  0  0  0  0  0  0  0
   59.3390   57.3780   23.3700 O   0  0  0  0  0  0  0  0  0  0  0  0
   60.3210   56.2730   25.1060 N   0  0  0  0  0  0  0  0  0  0  0  0
   61.2110   56.2260   26.1350 C   0  0  0  0  0  0  0  0  0  0  0  0
   61.3210   55.2010   26.8450 O   0  0  0  0  0  0  0  0  0  0  0  0
   60.8650   59.7150   23.7560 C   0  0  0  0  0  1  0  0  0  0  0  0
   59.7390   55.4420   24.9260 H   0  0  0  0  0  0  0  0  0  0  0  0
   65.5900   57.2570   31.7620 C   0  0  2  0  0  3  0  0  0  0  0  0
   65.2430   58.3800   32.6180 C   0  0  0  0  0  2  0  0  0  0  0  0
   66.5420   57.7800   32.8610 C   0  0  2  0  0  3  0  0  0  0  0  0
   67.8240   58.4010   32.4690 C   0  0  0  0  0  0  0  0  0  0  0  0
   69.1090   57.9290   32.5150 N   0  0  0  0  0  0  0  0  0  0  0  0
   69.9040   58.8440   32.0760 O   0  0  0  0  0  0  0  0  0  0  0  0
   69.2190   59.9150   31.7360 C   0  0  0  0  0  0  0  0  0  0  0  0
   67.9130   59.6520   31.9760 N   0  0  0  0  0  0  0  0  0  0  0  0
   69.6780   61.1530   31.2090 N   0  0  0  0  0  0  0  0  0  0  0  0
   69.1990   62.3200   31.6840 C   0  0  0  0  0  3  0  0  0  0  0  0
   69.7730   63.3500   31.0390 N   0  0  0  0  0  0  0  0  0  0  0  0
   70.6330   62.8650   30.1370 C   0  0  0  0  0  0  0  0  0  0  0  0
   71.5180   63.3510   29.1770 C   0  0  0  0  0  3  0  0  0  0  0  0
   72.2480   62.4940   28.4260 N   0  0  0  0  0  0  0  0  0  0  0  0
   72.1560   61.1470   28.5660 C   0  0  0  0  0  3  0  0  0  0  0  0
   71.2940   60.6480   29.5000 N   0  0  0  0  0  0  0  0  0  0  0  0
   70.5620   61.4930   30.2550 C   0  0  0  0  0  0  0  0  0  0  0  0
  3  2  1  0  0  0  0
  3  1  1  0  0  0  0
  4  3  2  0  0  0  0
  5  6  2  0  0  0  0
  5  4  1  0  0  0  0
  6  7  1  0  0  0  0
  7  2  2  0  0  0  0
  8  6  1  0  0  0  0
  9  8  1  0  0  0  0
 10  9  2  0  0  0  0
 11 10  1  0  0  0  0
 11 13  1  0  0  0  0
 12 11  2  0  0  0  0
 13 14  1  0  0  0  0
 14  8  1  0  0  0  0
 14 15  2  0  0  0  0
 16 10  1  0  0  0  0
 17 13  1  0  0  0  0
 18  1  1  6  0  0  0
 18 19  1  0  0  0  0
 18 20  1  0  0  0  0
 19 20  1  0  0  0  0
 20 21  1  6  0  0  0
 21 22  2  0  0  0  0
 23 22  1  0  0  0  0
 24 25  2  0  0  0  0
 24 23  1  0  0  0  0
 25 21  1  0  0  0  0
 26 27  1  0  0  0  0
 26 24  1  0  0  0  0
 28 27  2  0  0  0  0
 29 34  1  0  0  0  0
 29 28  1  0  0  0  0
 30 29  2  0  0  0  0
 31 32  2  0  0  0  0
 31 30  1  0  0  0  0
 32 33  1  0  0  0  0
 33 34  2  0  0  0  0
 34 26  1  0  0  0  0
M  END
>  <minimizedAffinity>
-7.28368711

$$$$

 OpenBabel03242509203D

 34 39  0  0  1  0  0  0  0  0999 V2000
   64.6790   58.2150   29.3040 C   0  0  0  0  0  2  0  0  0  0  0  0
   65.3240   58.9360   31.6680 C   0  0  0  0  0  3  0  0  0  0  0  0
   65.4330   58.1260   30.5290 C   0  0  0  0  0  0  0  0  0  0  0  0
   66.3660   57.1080   30.5500 C   0  0  0  0  0  3  0  0  0  0  0  0
   67.1300   56.9510   31.6810 N   0  0  0  0  0  0  0  0  0  0  0  0
   67.0070   57.7480   32.7700 C   0  0  0  0  0  0  0  0  0  0  0  0
   66.0930   58.7430   32.7450 N   0  0  0  0  0  0  0  0  0  0  0  0
   67.8440   57.5080   33.8940 N   0  0  0  0  0  0  0  0  0  0  0  0
   67.6580   56.4030   34.6340 C   0  0  0  0  0  3  0  0  0  0  0  0
   68.4000   56.0550   35.7460 C   0  0  0  0  0  0  0  0  0  0  0  0
   69.4140   56.9260   36.1110 C   0  0  0  0  0  0  0  0  0  0  0  0
   70.1240   56.6790   37.0990 O   0  0  0  0  0  0  0  0  0  0  0  0
   69.5960   58.0470   35.3520 N   0  0  0  0  0  0  0  0  0  0  0  0
   68.8370   58.3460   34.2630 C   0  0  0  0  0  0  0  0  0  0  0  0
   69.0440   59.3870   33.6000 O   0  0  0  0  0  0  0  0  0  0  0  0
   68.1030   54.8130   36.4840 C   0  0  0  0  0  1  0  0  0  0  0  0
   70.3480   58.6990   35.6180 H   0  0  0  0  0  0  0  0  0  0  0  0
   64.9060   57.0880   28.3700 C   0  0  2  0  0  3  0  0  0  0  0  0
   65.1450   57.2770   26.9480 C   0  0  0  0  0  2  0  0  0  0  0  0
   63.8300   56.7760   27.3050 C   0  0  2  0  0  3  0  0  0  0  0  0
   62.5990   57.5910   27.2640 C   0  0  0  0  0  0  0  0  0  0  0  0
   61.8950   58.2190   28.2580 N   0  0  0  0  0  0  0  0  0  0  0  0
   60.8700   58.8010   27.7380 O   0  0  0  0  0  0  0  0  0  0  0  0
   60.8430   58.5970   26.4380 C   0  0  0  0  0  0  0  0  0  0  0  0
   61.9210   57.8400   26.1260 N   0  0  0  0  0  0  0  0  0  0  0  0
   59.9030   59.0460   25.4700 N   0  0  0  0  0  0  0  0  0  0  0  0
   59.4420   58.2070   24.5220 C   0  0  0  0  0  3  0  0  0  0  0  0
   58.5700   58.8480   23.7240 N   0  0  0  0  0  0  0  0  0  0  0  0
   58.4550   60.1130   24.1450 C   0  0  0  0  0  0  0  0  0  0  0  0
   57.7590   61.2670   23.7930 C   0  0  0  0  0  3  0  0  0  0  0  0
   57.9210   62.4060   24.5040 N   0  0  0  0  0  0  0  0  0  0  0  0
   58.7540   62.4810   25.5740 C   0  0  0  0  0  3  0  0  0  0  0  0
   59.4480   61.3620   25.9370 N   0  0  0  0  0  0  0  0  0  0  0  0
   59.2920   60.2200   25.2350 C   0  0  0  0  0  0  0  0  0  0  0  0
  1  3  1  0  0  0  0
  2  7  2  0  0  0  0
  3  4  2  0  0  0  0
  3  2  1  0  0  0  0
  4  5  1  0  0  0  0
  5  6  2  0  0  0  0
  6  8  1  0  0  0  0
  7  6  1  0  0  0  0
  8 14  1  0  0  0  0
  8  9  1  0  0  0  0
  9 10  2  0  0  0  0
 10 11  1  0  0  0  0
 10 16  1  0  0  0  0
 11 12  2  0  0  0  0
 13 17  1  0  0  0  0
 13 11  1  0  0  0  0
 14 13  1  0  0  0  0
 15 14  2  0  0  0  0
 18  1  1  1  0  0  0
 19 20  1  0  0  0  0
 19 18  1  0  0  0  0
 20 21  1  1  0  0  0
 20 18  1  0  0  0  0
 21 22  2  0  0  0  0
 23 22  1  0  0  0  0
 24 23  1  0  0  0  0
 25 24  2  0  0  0  0
 25 21  1  0  0  0  0
 26 24  1  0  0  0  0
 27 26  1  0  0  0  0
 28 29  1  0  0  0  0
 28 27  2  0  0  0  0
 29 34  1  0  0  0  0
 30 29  2  0  0  0  0
 30 31  1  0  0  0  0
 31 32  2  0  0  0  0
 32 33  1  0  0  0  0
 34 26  1  0  0  0  0
 34 33  2  0  0  0  0
M  END
>  <minimizedAffinity>
-7.14463043

$$$$

 OpenBabel03242509203D

 34 39  0  0  1  0  0  0  0  0999 V2000
   67.1870   59.3310   31.4690 C   0  0  0  0  0  2  0  0  0  0  0  0
   65.5540   61.0750   30.5640 C   0  0  0  0  0  3  0  0  0  0  0  0
   66.6540   60.6630   31.3300 C   0  0  0  0  0  0  0  0  0  0  0  0
   67.3300   61.6250   32.0540 C   0  0  0  0  0  3  0  0  0  0  0  0
   66.8880   62.9240   31.9800 N   0  0  0  0  0  0  0  0  0  0  0  0
   65.8220   63.2980   31.2300 C   0  0  0  0  0  0  0  0  0  0  0  0
   65.1630   62.3530   30.5240 N   0  0  0  0  0  0  0  0  0  0  0  0
   65.4410   64.6680   31.2170 N   0  0  0  0  0  0  0  0  0  0  0  0
   64.9070   65.2180   32.3190 C   0  0  0  0  0  3  0  0  0  0  0  0
   64.4970   66.5320   32.4340 C   0  0  0  0  0  0  0  0  0  0  0  0
   64.6580   67.3310   31.3140 C   0  0  0  0  0  0  0  0  0  0  0  0
   64.3130   68.5240   31.3430 O   0  0  0  0  0  0  0  0  0  0  0  0
   65.2020   66.7640   30.1980 N   0  0  0  0  0  0  0  0  0  0  0  0
   65.5910   65.4610   30.1330 C   0  0  0  0  0  0  0  0  0  0  0  0
   66.0840   64.9870   29.0850 O   0  0  0  0  0  0  0  0  0  0  0  0
   63.9230   67.0270   33.7000 C   0  0  0  0  0  1  0  0  0  0  0  0
   65.3240   67.3510   29.3610 H   0  0  0  0  0  0  0  0  0  0  0  0
   66.5170   58.5160   32.5090 C   0  0  2  0  0  3  0  0  0  0  0  0
   66.6230   57.0670   32.5660 C   0  0  0  0  0  2  0  0  0  0  0  0
   65.3550   57.5880   32.0910 C   0  0  2  0  0  3  0  0  0  0  0  0
   64.9280   57.5570   30.6770 C   0  0  0  0  0  0  0  0  0  0  0  0
   65.5920   57.1810   29.5390 N   0  0  0  0  0  0  0  0  0  0  0  0
   64.8090   57.3430   28.5280 O   0  0  0  0  0  0  0  0  0  0  0  0
   63.6460   57.8120   28.9250 C   0  0  0  0  0  0  0  0  0  0  0  0
   63.7050   57.9520   30.2710 N   0  0  0  0  0  0  0  0  0  0  0  0
   62.4930   58.1380   28.1610 N   0  0  0  0  0  0  0  0  0  0  0  0
   61.8160   59.2810   28.3950 C   0  0  0  0  0  3  0  0  0  0  0  0
   60.7680   59.3750   27.5570 N   0  0  0  0  0  0  0  0  0  0  0  0
   60.7530   58.2940   26.7680 C   0  0  0  0  0  0  0  0  0  0  0  0
   59.9810   57.7760   25.7300 C   0  0  0  0  0  3  0  0  0  0  0  0
   60.3080   56.5920   25.1630 N   0  0  0  0  0  0  0  0  0  0  0  0
   61.3810   55.8640   25.5690 C   0  0  0  0  0  3  0  0  0  0  0  0
   62.1500   56.3520   26.5850 N   0  0  0  0  0  0  0  0  0  0  0  0
   61.8340   57.5330   27.1570 C   0  0  0  0  0  0  0  0  0  0  0  0
  2  3  1  0  0  0  0
  3  1  1  0  0  0  0
  3  4  2  0  0  0  0
  5  4  1  0  0  0  0
  6  5  2  0  0  0  0
  7  2  2  0  0  0  0
  7  6  1  0  0  0  0
  8  6  1  0  0  0  0
  8  9  1  0  0  0  0
  9 10  2  0  0  0  0
 10 16  1  0  0  0  0
 11 12  2  0  0  0  0
 11 10  1  0  0  0  0
 13 11  1  0  0  0  0
 14 13  1  0  0  0  0
 14  8  1  0  0  0  0
 15 14  2  0  0  0  0
 17 13  1  0  0  0  0
 18  1  1  6  0  0  0
 18 19  1  0  0  0  0
 20 21  1  6  0  0  0
 20 18  1  0  0  0  0
 20 19  1  0  0  0  0
 22 21  2  0  0  0  0
 23 24  1  0  0  0  0
 23 22  1  0  0  0  0
 24 25  2  0  0  0  0
 25 21  1  0  0  0  0
 26 27  1  0  0  0  0
 26 24  1  0  0  0  0
 28 27  2  0  0  0  0
 29 34  1  0  0  0  0
 29 28  1  0  0  0  0
 30 29  2  0  0  0  0
 31 32  2  0  0  0  0
 31 30  1  0  0  0  0
 32 33  1  0  0  0  0
 33 34  2  0  0  0  0
 34 26  1  0  0  0  0
M  END
>  <minimizedAffinity>
-6.61100912

$$$$

 OpenBabel03242509203D

 34 39  0  0  1  0  0  0  0  0999 V2000
   65.3540   60.1590   31.0250 C   0  0  0  0  0  2  0  0  0  0  0  0
   67.4770   61.4230   31.6720 C   0  0  0  0  0  3  0  0  0  0  0  0
   66.4750   61.0290   30.7740 C   0  0  0  0  0  0  0  0  0  0  0  0
   66.5410   61.5130   29.4820 C   0  0  0  0  0  3  0  0  0  0  0  0
   67.5810   62.3510   29.1560 N   0  0  0  0  0  0  0  0  0  0  0  0
   68.5370   62.7190   30.0430 C   0  0  0  0  0  0  0  0  0  0  0  0
   68.4680   62.2430   31.3060 N   0  0  0  0  0  0  0  0  0  0  0  0
   69.5730   63.5920   29.6110 N   0  0  0  0  0  0  0  0  0  0  0  0
   70.4960   63.1470   28.7430 C   0  0  0  0  0  3  0  0  0  0  0  0
   71.5480   63.8910   28.2480 C   0  0  0  0  0  0  0  0  0  0  0  0
   71.6430   65.2000   28.6920 C   0  0  0  0  0  0  0  0  0  0  0  0
   72.5630   65.9310   28.2890 O   0  0  0  0  0  0  0  0  0  0  0  0
   70.7010   65.6450   29.5730 N   0  0  0  0  0  0  0  0  0  0  0  0
   69.6800   64.8710   30.0330 C   0  0  0  0  0  0  0  0  0  0  0  0
   68.8400   65.3250   30.8420 O   0  0  0  0  0  0  0  0  0  0  0  0
   72.5040   63.2940   27.2960 C   0  0  0  0  0  1  0  0  0  0  0  0
   70.7650   66.6170   29.9080 H   0  0  0  0  0  0  0  0  0  0  0  0
   65.7290   58.7550   31.3140 C   0  0  2  0  0  3  0  0  0  0  0  0
   66.2810   57.8620   30.3090 C   0  0  0  0  0  2  0  0  0  0  0  0
   64.8990   57.6180   30.6790 C   0  0  2  0  0  3  0  0  0  0  0  0
   63.7440   57.9590   29.8240 C   0  0  0  0  0  0  0  0  0  0  0  0
   62.8110   58.9570   29.9180 N   0  0  0  0  0  0  0  0  0  0  0  0
   61.9780   58.8440   28.9410 O   0  0  0  0  0  0  0  0  0  0  0  0
   62.3020   57.8150   28.1870 C   0  0  0  0  0  0  0  0  0  0  0  0
   63.4070   57.2490   28.7280 N   0  0  0  0  0  0  0  0  0  0  0  0
   61.6710   57.3180   27.0140 N   0  0  0  0  0  0  0  0  0  0  0  0
   61.4660   55.9960   26.8530 C   0  0  0  0  0  3  0  0  0  0  0  0
   60.8590   55.7640   25.6750 N   0  0  0  0  0  0  0  0  0  0  0  0
   60.6620   56.9340   25.0580 C   0  0  0  0  0  0  0  0  0  0  0  0
   60.1140   57.4010   23.8650 C   0  0  0  0  0  3  0  0  0  0  0  0
   60.1030   58.7260   23.5920 N   0  0  0  0  0  0  0  0  0  0  0  0
   60.6150   59.6480   24.4470 C   0  0  0  0  0  3  0  0  0  0  0  0
   61.1580   59.2130   25.6220 N   0  0  0  0  0  0  0  0  0  0  0  0
   61.1740   57.8930   25.9050 C   0  0  0  0  0  0  0  0  0  0  0  0
  3  1  1  0  0  0  0
  3  2  1  0  0  0  0
  4  3  2  0  0  0  0
  5  4  1  0  0  0  0
  5  6  2  0  0  0  0
  6  7  1  0  0  0  0
  7  2  2  0  0  0  0
  8 14  1  0  0  0  0
  8  6  1  0  0  0  0
  9  8  1  0  0  0  0
 10 11  1  0  0  0  0
 10  9  2  0  0  0  0
 11 13  1  0  0  0  0
 12 11  2  0  0  0  0
 13 17  1  0  0  0  0
 13 14  1  0  0  0  0
 14 15  2  0  0  0  0
 16 10  1  0  0  0  0
 18  1  1  6  0  0  0
 19 20  1  0  0  0  0
 19 18  1  0  0  0  0
 20 21  1  6  0  0  0
 20 18  1  0  0  0  0
 21 22  2  0  0  0  0
 23 22  1  0  0  0  0
 24 25  2  0  0  0  0
 24 23  1  0  0  0  0
 25 21  1  0  0  0  0
 26 24  1  0  0  0  0
 27 26  1  0  0  0  0
 28 27  2  0  0  0  0
 29 28  1  0  0  0  0
 29 34  1  0  0  0  0
 30 29  2  0  0  0  0
 31 30  1  0  0  0  0
 31 32  2  0  0  0  0
 32 33  1  0  0  0  0
 33 34  2  0  0  0  0
 34 26  1  0  0  0  0
M  END
>  <minimizedAffinity>
-6.59928226

$$$$

 OpenBabel03242509203D

 34 39  0  0  1  0  0  0  0  0999 V2000
   64.9280   61.1060   29.9550 C   0  0  0  0  0  2  0  0  0  0  0  0
   64.6250   59.0340   31.4180 C   0  0  0  0  0  3  0  0  0  0  0  0
   65.3600   60.1130   30.9060 C   0  0  0  0  0  0  0  0  0  0  0  0
   66.6600   60.2730   31.3440 C   0  0  0  0  0  3  0  0  0  0  0  0
   67.1540   59.3690   32.2540 N   0  0  0  0  0  0  0  0  0  0  0  0
   66.4230   58.3340   32.7350 C   0  0  0  0  0  0  0  0  0  0  0  0
   65.1520   58.1810   32.3030 N   0  0  0  0  0  0  0  0  0  0  0  0
   67.0220   57.4510   33.6750 N   0  0  0  0  0  0  0  0  0  0  0  0
   68.0020   56.6230   33.2760 C   0  0  0  0  0  3  0  0  0  0  0  0
   68.6620   55.7210   34.0870 C   0  0  0  0  0  0  0  0  0  0  0  0
   68.2700   55.6810   35.4150 C   0  0  0  0  0  0  0  0  0  0  0  0
   68.8200   54.8960   36.2050 O   0  0  0  0  0  0  0  0  0  0  0  0
   67.2740   56.5260   35.8130 N   0  0  0  0  0  0  0  0  0  0  0  0
   66.6530   57.3990   34.9730 C   0  0  0  0  0  0  0  0  0  0  0  0
   65.7430   58.1530   35.3860 O   0  0  0  0  0  0  0  0  0  0  0  0
   69.7260   54.8600   33.5360 C   0  0  0  0  0  1  0  0  0  0  0  0
   66.9770   56.5020   36.7990 H   0  0  0  0  0  0  0  0  0  0  0  0
   64.4380   62.3620   30.5700 C   0  0  2  0  0  3  0  0  0  0  0  0
   63.7780   63.4090   29.8070 C   0  0  0  0  0  2  0  0  0  0  0  0
   65.1430   63.6890   30.2120 C   0  0  2  0  0  3  0  0  0  0  0  0
   66.2970   63.6670   29.2900 C   0  0  0  0  0  0  0  0  0  0  0  0
   66.3750   63.8320   27.9320 N   0  0  0  0  0  0  0  0  0  0  0  0
   67.6050   63.7140   27.5680 O   0  0  0  0  0  0  0  0  0  0  0  0
   68.3670   63.4760   28.6140 C   0  0  0  0  0  0  0  0  0  0  0  0
   67.5610   63.4440   29.7020 N   0  0  0  0  0  0  0  0  0  0  0  0
   69.7730   63.2770   28.6840 N   0  0  0  0  0  0  0  0  0  0  0  0
   70.2890   62.2850   29.4360 C   0  0  0  0  0  3  0  0  0  0  0  0
   71.6310   62.2910   29.3490 N   0  0  0  0  0  0  0  0  0  0  0  0
   72.0020   63.2880   28.5390 C   0  0  0  0  0  0  0  0  0  0  0  0
   73.1810   63.8350   28.0350 C   0  0  0  0  0  3  0  0  0  0  0  0
   73.1380   64.8970   27.1990 N   0  0  0  0  0  0  0  0  0  0  0  0
   71.9690   65.4720   26.8160 C   0  0  0  0  0  3  0  0  0  0  0  0
   70.8010   64.9540   27.2980 N   0  0  0  0  0  0  0  0  0  0  0  0
   70.8330   63.8940   28.1320 C   0  0  0  0  0  0  0  0  0  0  0  0
  1  3  1  0  0  0  0
  2  7  2  0  0  0  0
  3  4  2  0  0  0  0
  3  2  1  0  0  0  0
  4  5  1  0  0  0  0
  5  6  2  0  0  0  0
  6  8  1  0  0  0  0
  7  6  1  0  0  0  0
  8 14  1  0  0  0  0
  9  8  1  0  0  0  0
  9 10  2  0  0  0  0
 10 11  1  0  0  0  0
 11 13  1  0  0  0  0
 11 12  2  0  0  0  0
 13 17  1  0  0  0  0
 14 15  2  0  0  0  0
 14 13  1  0  0  0  0
 16 10  1  0  0  0  0
 18  1  1  6  0  0  0
 19 20  1  0  0  0  0
 19 18  1  0  0  0  0
 20 21  1  6  0  0  0
 20 18  1  0  0  0  0
 21 25  1  0  0  0  0
 22 21  2  0  0  0  0
 23 22  1  0  0  0  0
 23 24  1  0  0  0  0
 24 26  1  0  0  0  0
 24 25  2  0  0  0  0
 26 27  1  0  0  0  0
 28 27  2  0  0  0  0
 29 28  1  0  0  0  0
 30 29  2  0  0  0  0
 31 30  1  0  0  0  0
 32 31  2  0  0  0  0
 32 33  1  0  0  0  0
 33 34  2  0  0  0  0
 34 29  1  0  0  0  0
 34 26  1  0  0  0  0
M  END
>  <minimizedAffinity>
-6.52857733

$$$$
