
 OpenBabel03242509193D

 36 41  0  0  1  0  0  0  0  0999 V2000
   64.3650   57.2640   28.4030 C   0  0  0  0  0  0  0  0  0  0  0  0
   65.1630   57.4200   27.3080 C   0  0  0  0  0  3  0  0  0  0  0  0
   64.4810   57.0930   26.1540 C   0  0  0  0  0  3  0  0  0  0  0  0
   63.2500   56.7370   26.5960 N   0  0  0  0  0  0  0  0  0  0  0  0
   63.2010   56.8410   27.8840 N   0  0  0  0  0  0  0  0  0  0  0  0
   63.9630   58.2830   30.6350 C   0  0  0  0  0  3  0  0  0  0  0  0
   64.7640   57.5120   29.7620 C   0  0  0  0  0  0  0  0  0  0  0  0
   65.9410   57.0220   30.2830 C   0  0  0  0  0  3  0  0  0  0  0  0
   66.2600   57.3020   31.5740 N   0  0  0  0  0  0  0  0  0  0  0  0
   65.4430   58.0560   32.3710 C   0  0  0  0  0  0  0  0  0  0  0  0
   64.3030   58.5410   31.8980 N   0  0  0  0  0  0  0  0  0  0  0  0
   65.9320   58.2520   33.7000 N   0  0  0  0  0  0  0  0  0  0  0  0
   65.4480   58.0970   34.9580 C   0  0  0  0  0  3  0  0  0  0  0  0
   66.4090   58.4550   35.8290 N   0  0  0  0  0  0  0  0  0  0  0  0
   67.4910   58.8320   35.1610 C   0  0  0  0  0  0  0  0  0  0  0  0
   68.7030   59.2740   35.6550 C   0  0  0  0  0  0  0  0  0  0  0  0
   69.6520   59.6000   34.7420 N   0  0  0  0  0  0  0  0  0  0  0  0
   69.4000   59.4900   33.4340 C   0  0  0  0  0  3  0  0  0  0  0  0
   68.2290   59.0630   32.9800 N   0  0  0  0  0  0  0  0  0  0  0  0
   67.2080   58.7100   33.8140 C   0  0  0  0  0  0  0  0  0  0  0  0
   68.9690   59.3900   37.0490 N   0  0  0  0  0  0  0  0  0  0  0  0
   69.8870   59.7250   37.3720 H   0  0  0  0  0  0  0  0  0  0  0  0
   68.2410   59.1390   37.7340 H   0  0  0  0  0  0  0  0  0  0  0  0
   62.1930   56.3110   25.7710 C   0  0  1  0  0  3  0  0  0  0  0  0
   60.8620   55.9830   26.3570 C   0  0  0  0  0  2  0  0  0  0  0  0
   60.9040   57.1660   25.5610 C   0  0  1  0  0  3  0  0  0  0  0  0
   60.8120   58.5250   26.1730 C   0  0  0  0  0  0  0  0  0  0  0  0
   60.8800   58.4630   27.5960 C   0  0  0  0  0  3  0  0  0  0  0  0
   60.7440   59.6370   28.3540 C   0  0  0  0  0  3  0  0  0  0  0  0
   60.5460   60.8530   27.7390 C   0  0  0  0  0  3  0  0  0  0  0  0
   60.4870   60.8570   26.3630 C   0  0  0  0  0  3  0  0  0  0  0  0
   60.6150   59.7340   25.6110 C   0  0  0  0  0  0  0  0  0  0  0  0
   60.5470   59.7500   24.1610 C   0  0  0  0  0  0  0  0  0  0  0  0
   59.5480   59.5410   23.4360 O   0  0  0  0  0  0  0  0  0  0  0  0
   61.6840   60.0210   23.4330 O   0  0  0  0  0  0  0  0  0  0  0  0
   61.6470   60.0340   22.4440 H   0  0  0  0  0  0  0  0  0  0  0  0
  1  7  1  0  0  0  0
  2  1  1  0  0  0  0
  3  4  1  0  0  0  0
  3  2  2  0  0  0  0
  4  5  1  0  0  0  0
  5  1  2  0  0  0  0
  6 11  2  0  0  0  0
  7  8  2  0  0  0  0
  7  6  1  0  0  0  0
  8  9  1  0  0  0  0
  9 10  2  0  0  0  0
 10 12  1  0  0  0  0
 11 10  1  0  0  0  0
 12 20  1  0  0  0  0
 12 13  1  0  0  0  0
 13 14  2  0  0  0  0
 15 16  1  0  0  0  0
 15 14  1  0  0  0  0
 16 21  1  0  0  0  0
 17 16  2  0  0  0  0
 18 17  1  0  0  0  0
 19 18  2  0  0  0  0
 19 20  1  0  0  0  0
 20 15  2  0  0  0  0
 21 22  1  0  0  0  0
 21 23  1  0  0  0  0
 24 25  1  1  0  0  0
 24  4  1  0  0  0  0
 26 24  1  0  0  0  0
 26 27  1  1  0  0  0
 26 25  1  0  0  0  0
 27 28  1  0  0  0  0
 28 29  2  0  0  0  0
 30 29  1  0  0  0  0
 31 30  2  0  0  0  0
 32 27  2  0  0  0  0
 32 31  1  0  0  0  0
 33 32  1  0  0  0  0
 34 33  2  0  0  0  0
 35 33  1  0  0  0  0
 36 35  1  0  0  0  0
M  END
>  <minimizedAffinity>
-8.14767838

$$$$

 OpenBabel03242509193D

 36 41  0  0  1  0  0  0  0  0999 V2000
   65.7380   57.7980   30.5640 C   0  0  0  0  0  0  0  0  0  0  0  0
   66.6370   56.8690   30.9970 C   0  0  0  0  0  3  0  0  0  0  0  0
   67.4190   57.3800   32.0130 C   0  0  0  0  0  3  0  0  0  0  0  0
   66.9570   58.6450   32.1720 N   0  0  0  0  0  0  0  0  0  0  0  0
   65.9960   58.8680   31.3360 N   0  0  0  0  0  0  0  0  0  0  0  0
   65.1810   57.2800   28.1970 C   0  0  0  0  0  3  0  0  0  0  0  0
   64.7770   57.5970   29.5140 C   0  0  0  0  0  0  0  0  0  0  0  0
   63.4210   57.7070   29.7280 C   0  0  0  0  0  3  0  0  0  0  0  0
   62.5690   57.5120   28.6870 N   0  0  0  0  0  0  0  0  0  0  0  0
   63.0210   57.2080   27.4340 C   0  0  0  0  0  0  0  0  0  0  0  0
   64.3210   57.0940   27.1960 N   0  0  0  0  0  0  0  0  0  0  0  0
   61.9900   57.0360   26.4590 N   0  0  0  0  0  0  0  0  0  0  0  0
   61.6480   56.0940   25.5430 C   0  0  0  0  0  3  0  0  0  0  0  0
   60.5410   56.5080   24.9010 N   0  0  0  0  0  0  0  0  0  0  0  0
   60.1670   57.6860   25.3830 C   0  0  0  0  0  0  0  0  0  0  0  0
   59.0900   58.4690   25.0150 C   0  0  0  0  0  0  0  0  0  0  0  0
   58.9340   59.6430   25.6760 N   0  0  0  0  0  0  0  0  0  0  0  0
   59.7960   60.0010   26.6330 C   0  0  0  0  0  3  0  0  0  0  0  0
   60.8250   59.2340   26.9710 N   0  0  0  0  0  0  0  0  0  0  0  0
   61.0700   58.0350   26.3690 C   0  0  0  0  0  0  0  0  0  0  0  0
   58.1730   58.0850   23.9950 N   0  0  0  0  0  0  0  0  0  0  0  0
   57.3840   58.7010   23.7530 H   0  0  0  0  0  0  0  0  0  0  0  0
   58.2990   57.1900   23.4990 H   0  0  0  0  0  0  0  0  0  0  0  0
   67.4600   59.5720   33.1030 C   0  0  1  0  0  3  0  0  0  0  0  0
   66.8220   59.7200   34.4410 C   0  0  0  0  0  2  0  0  0  0  0  0
   68.1200   59.1290   34.4460 C   0  0  1  0  0  3  0  0  0  0  0  0
   68.3180   57.6760   34.7260 C   0  0  0  0  0  0  0  0  0  0  0  0
   67.1740   57.1050   35.3580 C   0  0  0  0  0  3  0  0  0  0  0  0
   67.1960   55.7600   35.7600 C   0  0  0  0  0  3  0  0  0  0  0  0
   68.3130   54.9810   35.5520 C   0  0  0  0  0  3  0  0  0  0  0  0
   69.3910   55.5820   34.9400 C   0  0  0  0  0  3  0  0  0  0  0  0
   69.3920   56.8800   34.5440 C   0  0  0  0  0  0  0  0  0  0  0  0
   70.5350   57.5040   33.9030 C   0  0  0  0  0  0  0  0  0  0  0  0
   71.4890   58.1030   34.4480 O   0  0  0  0  0  0  0  0  0  0  0  0
   70.6440   57.4690   32.5310 O   0  0  0  0  0  0  0  0  0  0  0  0
   71.4200   57.8920   32.0850 H   0  0  0  0  0  0  0  0  0  0  0  0
  1  2  1  0  0  0  0
  1  5  2  0  0  0  0
  2  3  2  0  0  0  0
  3  4  1  0  0  0  0
  5  4  1  0  0  0  0
  6  7  1  0  0  0  0
  7  8  2  0  0  0  0
  7  1  1  0  0  0  0
  9  8  1  0  0  0  0
 10  9  2  0  0  0  0
 11 10  1  0  0  0  0
 11  6  2  0  0  0  0
 12 10  1  0  0  0  0
 13 12  1  0  0  0  0
 14 15  1  0  0  0  0
 14 13  2  0  0  0  0
 15 20  1  0  0  0  0
 16 15  2  0  0  0  0
 16 17  1  0  0  0  0
 17 18  2  0  0  0  0
 18 19  1  0  0  0  0
 20 12  1  0  0  0  0
 20 19  2  0  0  0  0
 21 16  1  0  0  0  0
 22 21  1  0  0  0  0
 23 21  1  0  0  0  0
 24  4  1  6  0  0  0
 24 25  1  0  0  0  0
 24 26  1  0  0  0  0
 25 26  1  0  0  0  0
 26 27  1  6  0  0  0
 27 28  1  0  0  0  0
 28 29  2  0  0  0  0
 30 29  1  0  0  0  0
 31 30  2  0  0  0  0
 32 27  2  0  0  0  0
 32 31  1  0  0  0  0
 33 34  2  0  0  0  0
 33 32  1  0  0  0  0
 35 33  1  0  0  0  0
 36 35  1  0  0  0  0
M  END
>  <minimizedAffinity>
-7.32570982

$$$$

 OpenBabel03242509193D

 36 41  0  0  1  0  0  0  0  0999 V2000
   65.0990   58.8630   30.8930 C   0  0  0  0  0  0  0  0  0  0  0  0
   65.0030   58.5290   32.2120 C   0  0  0  0  0  3  0  0  0  0  0  0
   65.9610   59.1900   32.9550 C   0  0  0  0  0  3  0  0  0  0  0  0
   66.6310   59.9280   32.0360 N   0  0  0  0  0  0  0  0  0  0  0  0
   66.1250   59.7300   30.8630 N   0  0  0  0  0  0  0  0  0  0  0  0
   64.7610   57.4700   28.8620 C   0  0  0  0  0  3  0  0  0  0  0  0
   64.2580   58.3510   29.8450 C   0  0  0  0  0  0  0  0  0  0  0  0
   62.9270   58.6930   29.7380 C   0  0  0  0  0  3  0  0  0  0  0  0
   62.1920   58.1790   28.7170 N   0  0  0  0  0  0  0  0  0  0  0  0
   62.7370   57.3300   27.7940 C   0  0  0  0  0  0  0  0  0  0  0  0
   64.0140   56.9820   27.8710 N   0  0  0  0  0  0  0  0  0  0  0  0
   61.8220   56.8850   26.7900 N   0  0  0  0  0  0  0  0  0  0  0  0
   61.4350   55.6920   26.2710 C   0  0  0  0  0  3  0  0  0  0  0  0
   60.5100   55.9230   25.3210 N   0  0  0  0  0  0  0  0  0  0  0  0
   60.2980   57.2280   25.2210 C   0  0  0  0  0  0  0  0  0  0  0  0
   59.4350   57.9020   24.3780 C   0  0  0  0  0  0  0  0  0  0  0  0
   59.4120   59.2540   24.4830 N   0  0  0  0  0  0  0  0  0  0  0  0
   60.1970   59.8790   25.3660 C   0  0  0  0  0  3  0  0  0  0  0  0
   61.0190   59.2130   26.1660 N   0  0  0  0  0  0  0  0  0  0  0  0
   61.1170   57.8520   26.1420 C   0  0  0  0  0  0  0  0  0  0  0  0
   58.6000   57.2340   23.4380 N   0  0  0  0  0  0  0  0  0  0  0  0
   57.9720   57.7770   22.8290 H   0  0  0  0  0  0  0  0  0  0  0  0
   58.6240   56.2060   23.3670 H   0  0  0  0  0  0  0  0  0  0  0  0
   67.7180   60.7740   32.3230 C   0  0  1  0  0  3  0  0  0  0  0  0
   68.4780   61.4270   31.2210 C   0  0  0  0  0  2  0  0  0  0  0  0
   67.6850   62.3040   32.0180 C   0  0  1  0  0  3  0  0  0  0  0  0
   66.4330   62.9250   31.4920 C   0  0  0  0  0  0  0  0  0  0  0  0
   65.5020   63.1900   32.5380 C   0  0  0  0  0  3  0  0  0  0  0  0
   64.2350   63.7150   32.2310 C   0  0  0  0  0  3  0  0  0  0  0  0
   63.8800   63.9770   30.9270 C   0  0  0  0  0  3  0  0  0  0  0  0
   64.8160   63.7000   29.9550 C   0  0  0  0  0  3  0  0  0  0  0  0
   66.0450   63.1930   30.2290 C   0  0  0  0  0  0  0  0  0  0  0  0
   67.0210   62.9020   29.1950 C   0  0  0  0  0  0  0  0  0  0  0  0
   67.9230   63.6510   28.7560 O   0  0  0  0  0  0  0  0  0  0  0  0
   67.0090   61.6690   28.5820 O   0  0  0  0  0  0  0  0  0  0  0  0
   67.6710   61.4610   27.8760 H   0  0  0  0  0  0  0  0  0  0  0  0
  1  2  1  0  0  0  0
  2  3  2  0  0  0  0
  4 24  1  0  0  0  0
  4  3  1  0  0  0  0
  5  1  2  0  0  0  0
  5  4  1  0  0  0  0
  6  7  1  0  0  0  0
  7  1  1  0  0  0  0
  8  7  2  0  0  0  0
  9  8  1  0  0  0  0
 10 11  1  0  0  0  0
 10  9  2  0  0  0  0
 11  6  2  0  0  0  0
 12 10  1  0  0  0  0
 13 12  1  0  0  0  0
 14 13  2  0  0  0  0
 15 14  1  0  0  0  0
 15 20  1  0  0  0  0
 16 17  1  0  0  0  0
 16 15  2  0  0  0  0
 17 18  2  0  0  0  0
 18 19  1  0  0  0  0
 20 19  2  0  0  0  0
 20 12  1  0  0  0  0
 21 16  1  0  0  0  0
 22 21  1  0  0  0  0
 23 21  1  0  0  0  0
 24 25  1  6  0  0  0
 25 26  1  0  0  0  0
 26 27  1  6  0  0  0
 26 24  1  0  0  0  0
 27 28  1  0  0  0  0
 29 28  2  0  0  0  0
 30 29  1  0  0  0  0
 31 32  1  0  0  0  0
 31 30  2  0  0  0  0
 32 27  2  0  0  0  0
 33 32  1  0  0  0  0
 34 33  2  0  0  0  0
 35 33  1  0  0  0  0
 36 35  1  0  0  0  0
M  END
>  <minimizedAffinity>
-7.16254044

$$$$

 OpenBabel03242509193D

 36 41  0  0  1  0  0  0  0  0999 V2000
   66.0080   58.4750   31.2280 C   0  0  0  0  0  0  0  0  0  0  0  0
   65.6290   59.0370   32.4100 C   0  0  0  0  0  3  0  0  0  0  0  0
   66.7300   59.3300   33.1900 C   0  0  0  0  0  3  0  0  0  0  0  0
   67.7790   58.9240   32.4320 N   0  0  0  0  0  0  0  0  0  0  0  0
   67.3490   58.4380   31.3140 N   0  0  0  0  0  0  0  0  0  0  0  0
   65.5960   57.4760   28.9880 C   0  0  0  0  0  3  0  0  0  0  0  0
   65.1130   58.0450   30.1880 C   0  0  0  0  0  0  0  0  0  0  0  0
   63.7450   58.1680   30.3000 C   0  0  0  0  0  3  0  0  0  0  0  0
   62.9570   57.7480   29.2750 N   0  0  0  0  0  0  0  0  0  0  0  0
   63.4860   57.2050   28.1360 C   0  0  0  0  0  0  0  0  0  0  0  0
   64.7980   57.0730   27.9990 N   0  0  0  0  0  0  0  0  0  0  0  0
   62.5150   56.8180   27.1620 N   0  0  0  0  0  0  0  0  0  0  0  0
   62.2360   55.7040   26.4390 C   0  0  0  0  0  3  0  0  0  0  0  0
   61.1650   55.9560   25.6650 N   0  0  0  0  0  0  0  0  0  0  0  0
   60.7520   57.1990   25.8760 C   0  0  0  0  0  0  0  0  0  0  0  0
   59.6920   57.8680   25.2960 C   0  0  0  0  0  0  0  0  0  0  0  0
   59.4870   59.1480   25.6950 N   0  0  0  0  0  0  0  0  0  0  0  0
   60.2880   59.7100   26.6060 C   0  0  0  0  0  3  0  0  0  0  0  0
   61.3010   59.0500   27.1500 N   0  0  0  0  0  0  0  0  0  0  0  0
   61.5930   57.7590   26.8180 C   0  0  0  0  0  0  0  0  0  0  0  0
   58.8400   57.2660   24.3270 N   0  0  0  0  0  0  0  0  0  0  0  0
   58.0610   57.8040   23.9210 H   0  0  0  0  0  0  0  0  0  0  0  0
   59.0030   56.2930   24.0310 H   0  0  0  0  0  0  0  0  0  0  0  0
   69.1290   59.0140   32.8170 C   0  0  1  0  0  3  0  0  0  0  0  0
   69.4940   59.4330   34.2000 C   0  0  0  0  0  2  0  0  0  0  0  0
   69.7540   58.0660   33.8880 C   0  0  1  0  0  3  0  0  0  0  0  0
   68.9330   56.9600   34.4640 C   0  0  0  0  0  0  0  0  0  0  0  0
   67.9430   57.4580   35.3620 C   0  0  0  0  0  3  0  0  0  0  0  0
   67.1140   56.5620   36.0560 C   0  0  0  0  0  3  0  0  0  0  0  0
   67.2450   55.2020   35.8790 C   0  0  0  0  0  3  0  0  0  0  0  0
   68.2170   54.7750   35.0030 C   0  0  0  0  0  3  0  0  0  0  0  0
   69.0290   55.6230   34.3220 C   0  0  0  0  0  0  0  0  0  0  0  0
   70.0530   55.1600   33.4040 C   0  0  0  0  0  0  0  0  0  0  0  0
   71.2910   55.3220   33.4870 O   0  0  0  0  0  0  0  0  0  0  0  0
   69.6850   54.4500   32.2830 O   0  0  0  0  0  0  0  0  0  0  0  0
   70.3760   54.1300   31.6500 H   0  0  0  0  0  0  0  0  0  0  0  0
  1  5  2  0  0  0  0
  1  2  1  0  0  0  0
  2  3  2  0  0  0  0
  4  3  1  0  0  0  0
  5  4  1  0  0  0  0
  6  7  1  0  0  0  0
  7  8  2  0  0  0  0
  7  1  1  0  0  0  0
  9  8  1  0  0  0  0
 10  9  2  0  0  0  0
 11 10  1  0  0  0  0
 11  6  2  0  0  0  0
 12 10  1  0  0  0  0
 13 12  1  0  0  0  0
 14 15  1  0  0  0  0
 14 13  2  0  0  0  0
 15 20  1  0  0  0  0
 16 17  1  0  0  0  0
 16 15  2  0  0  0  0
 17 18  2  0  0  0  0
 18 19  1  0  0  0  0
 20 19  2  0  0  0  0
 20 12  1  0  0  0  0
 21 16  1  0  0  0  0
 22 21  1  0  0  0  0
 23 21  1  0  0  0  0
 24  4  1  1  0  0  0
 24 26  1  0  0  0  0
 24 25  1  0  0  0  0
 26 25  1  0  0  0  0
 26 27  1  1  0  0  0
 27 28  1  0  0  0  0
 28 29  2  0  0  0  0
 30 29  1  0  0  0  0
 31 30  2  0  0  0  0
 32 27  2  0  0  0  0
 32 31  1  0  0  0  0
 33 34  2  0  0  0  0
 33 32  1  0  0  0  0
 35 33  1  0  0  0  0
 36 35  1  0  0  0  0
M  END
>  <minimizedAffinity>
-7.03032589

$$$$

 OpenBabel03242509193D

 36 41  0  0  1  0  0  0  0  0999 V2000
   65.2070   59.3280   30.7830 C   0  0  0  0  0  0  0  0  0  0  0  0
   66.3130   58.7820   31.3630 C   0  0  0  0  0  3  0  0  0  0  0  0
   66.9060   59.6790   32.2290 C   0  0  0  0  0  3  0  0  0  0  0  0
   66.1160   60.7780   32.1450 N   0  0  0  0  0  0  0  0  0  0  0  0
   65.1500   60.5610   31.3140 N   0  0  0  0  0  0  0  0  0  0  0  0
   64.8670   57.6830   28.9500 C   0  0  0  0  0  3  0  0  0  0  0  0
   64.3600   58.6670   29.8270 C   0  0  0  0  0  0  0  0  0  0  0  0
   63.0180   58.9590   29.7090 C   0  0  0  0  0  3  0  0  0  0  0  0
   62.2770   58.3020   28.7780 N   0  0  0  0  0  0  0  0  0  0  0  0
   62.8270   57.3580   27.9560 C   0  0  0  0  0  0  0  0  0  0  0  0
   64.1150   57.0550   28.0450 N   0  0  0  0  0  0  0  0  0  0  0  0
   61.9060   56.7670   27.0370 N   0  0  0  0  0  0  0  0  0  0  0  0
   61.5420   55.5090   26.6800 C   0  0  0  0  0  3  0  0  0  0  0  0
   60.5920   55.5940   25.7310 N   0  0  0  0  0  0  0  0  0  0  0  0
   60.3400   56.8710   25.4740 C   0  0  0  0  0  0  0  0  0  0  0  0
   59.4420   57.4120   24.5740 C   0  0  0  0  0  0  0  0  0  0  0  0
   59.3830   58.7650   24.5090 N   0  0  0  0  0  0  0  0  0  0  0  0
   60.1670   59.5160   25.2890 C   0  0  0  0  0  3  0  0  0  0  0  0
   61.0240   58.9770   26.1470 N   0  0  0  0  0  0  0  0  0  0  0  0
   61.1600   57.6260   26.2900 C   0  0  0  0  0  0  0  0  0  0  0  0
   58.6080   56.6090   23.7450 N   0  0  0  0  0  0  0  0  0  0  0  0
   57.9530   57.0550   23.0870 H   0  0  0  0  0  0  0  0  0  0  0  0
   58.6600   55.5820   23.8030 H   0  0  0  0  0  0  0  0  0  0  0  0
   66.3290   61.9760   32.8530 C   0  0  1  0  0  3  0  0  0  0  0  0
   67.6970   62.5570   32.9600 C   0  0  0  0  0  2  0  0  0  0  0  0
   66.7830   63.2910   32.1460 C   0  0  1  0  0  3  0  0  0  0  0  0
   66.9100   63.3240   30.6590 C   0  0  0  0  0  0  0  0  0  0  0  0
   68.2390   63.0190   30.2410 C   0  0  0  0  0  3  0  0  0  0  0  0
   68.5710   63.0650   28.8770 C   0  0  0  0  0  3  0  0  0  0  0  0
   67.6260   63.4020   27.9340 C   0  0  0  0  0  3  0  0  0  0  0  0
   66.3590   63.6900   28.3920 C   0  0  0  0  0  3  0  0  0  0  0  0
   66.0160   63.6520   29.7040 C   0  0  0  0  0  0  0  0  0  0  0  0
   64.6790   63.9610   30.1740 C   0  0  0  0  0  0  0  0  0  0  0  0
   64.2220   65.0750   30.5180 O   0  0  0  0  0  0  0  0  0  0  0  0
   63.7480   62.9510   30.2800 O   0  0  0  0  0  0  0  0  0  0  0  0
   62.8340   63.1530   30.6000 H   0  0  0  0  0  0  0  0  0  0  0  0
  1  5  2  0  0  0  0
  1  2  1  0  0  0  0
  2  3  2  0  0  0  0
  4  3  1  0  0  0  0
  5  4  1  0  0  0  0
  6  7  1  0  0  0  0
  7  1  1  0  0  0  0
  8  7  2  0  0  0  0
  9  8  1  0  0  0  0
 10 11  1  0  0  0  0
 10  9  2  0  0  0  0
 11  6  2  0  0  0  0
 12 10  1  0  0  0  0
 13 12  1  0  0  0  0
 14 13  2  0  0  0  0
 15 14  1  0  0  0  0
 15 20  1  0  0  0  0
 16 15  2  0  0  0  0
 17 16  1  0  0  0  0
 17 18  2  0  0  0  0
 18 19  1  0  0  0  0
 19 20  2  0  0  0  0
 20 12  1  0  0  0  0
 21 23  1  0  0  0  0
 21 16  1  0  0  0  0
 22 21  1  0  0  0  0
 24  4  1  6  0  0  0
 24 25  1  0  0  0  0
 26 27  1  6  0  0  0
 26 24  1  0  0  0  0
 26 25  1  0  0  0  0
 28 27  1  0  0  0  0
 29 28  2  0  0  0  0
 30 31  2  0  0  0  0
 30 29  1  0  0  0  0
 31 32  1  0  0  0  0
 32 33  1  0  0  0  0
 32 27  2  0  0  0  0
 33 35  1  0  0  0  0
 33 34  2  0  0  0  0
 35 36  1  0  0  0  0
M  END
>  <minimizedAffinity>
-7.0188055

$$$$

 OpenBabel03242509193D

 36 41  0  0  1  0  0  0  0  0999 V2000
   65.4000   57.8910   30.3610 C   0  0  0  0  0  0  0  0  0  0  0  0
   66.5040   57.1230   30.5860 C   0  0  0  0  0  3  0  0  0  0  0  0
   67.2070   57.5850   31.6810 C   0  0  0  0  0  3  0  0  0  0  0  0
   66.4870   58.6540   32.1000 N   0  0  0  0  0  0  0  0  0  0  0  0
   65.4570   58.8140   31.3350 N   0  0  0  0  0  0  0  0  0  0  0  0
   64.8440   57.1410   28.0570 C   0  0  0  0  0  3  0  0  0  0  0  0
   64.4530   57.6900   29.2980 C   0  0  0  0  0  0  0  0  0  0  0  0
   63.1220   58.0250   29.4270 C   0  0  0  0  0  3  0  0  0  0  0  0
   62.2830   57.8160   28.3790 N   0  0  0  0  0  0  0  0  0  0  0  0
   62.7230   57.2810   27.2000 C   0  0  0  0  0  0  0  0  0  0  0  0
   63.9970   56.9480   27.0460 N   0  0  0  0  0  0  0  0  0  0  0  0
   61.7070   57.1300   26.2060 N   0  0  0  0  0  0  0  0  0  0  0  0
   61.2550   56.1330   25.4040 C   0  0  0  0  0  3  0  0  0  0  0  0
   60.2430   56.6120   24.6580 N   0  0  0  0  0  0  0  0  0  0  0  0
   60.0370   57.8870   24.9630 C   0  0  0  0  0  0  0  0  0  0  0  0
   59.1030   58.7610   24.4420 C   0  0  0  0  0  0  0  0  0  0  0  0
   59.1070   60.0240   24.9360 N   0  0  0  0  0  0  0  0  0  0  0  0
   59.9830   60.3790   25.8800 C   0  0  0  0  0  3  0  0  0  0  0  0
   60.8730   59.5240   26.3670 N   0  0  0  0  0  0  0  0  0  0  0  0
   60.9520   58.2310   25.9390 C   0  0  0  0  0  0  0  0  0  0  0  0
   58.1710   58.3790   23.4360 N   0  0  0  0  0  0  0  0  0  0  0  0
   57.4920   59.0650   23.0760 H   0  0  0  0  0  0  0  0  0  0  0  0
   58.1750   57.4170   23.0680 H   0  0  0  0  0  0  0  0  0  0  0  0
   66.8210   59.4660   33.1990 C   0  0  1  0  0  3  0  0  0  0  0  0
   68.2480   59.7230   33.5420 C   0  0  0  0  0  2  0  0  0  0  0  0
   67.5320   60.8450   33.0290 C   0  0  1  0  0  3  0  0  0  0  0  0
   67.7880   61.3790   31.6590 C   0  0  0  0  0  0  0  0  0  0  0  0
   69.1430   61.1760   31.2630 C   0  0  0  0  0  3  0  0  0  0  0  0
   69.5930   61.6700   30.0290 C   0  0  0  0  0  3  0  0  0  0  0  0
   68.7400   62.3520   29.1910 C   0  0  0  0  0  3  0  0  0  0  0  0
   67.4430   62.5230   29.6210 C   0  0  0  0  0  3  0  0  0  0  0  0
   66.9860   62.0540   30.8100 C   0  0  0  0  0  0  0  0  0  0  0  0
   65.6180   62.2440   31.2550 C   0  0  0  0  0  0  0  0  0  0  0  0
   65.1970   63.0300   32.1330 O   0  0  0  0  0  0  0  0  0  0  0  0
   64.6110   61.5000   30.6820 O   0  0  0  0  0  0  0  0  0  0  0  0
   63.6750   61.6220   30.9790 H   0  0  0  0  0  0  0  0  0  0  0  0
  1  2  1  0  0  0  0
  1  5  2  0  0  0  0
  2  3  2  0  0  0  0
  3  4  1  0  0  0  0
  5  4  1  0  0  0  0
  6  7  1  0  0  0  0
  7  8  2  0  0  0  0
  7  1  1  0  0  0  0
  9  8  1  0  0  0  0
 10  9  2  0  0  0  0
 11 10  1  0  0  0  0
 11  6  2  0  0  0  0
 12 10  1  0  0  0  0
 13 12  1  0  0  0  0
 14 15  1  0  0  0  0
 14 13  2  0  0  0  0
 15 20  1  0  0  0  0
 16 17  1  0  0  0  0
 16 15  2  0  0  0  0
 17 18  2  0  0  0  0
 18 19  1  0  0  0  0
 20 12  1  0  0  0  0
 20 19  2  0  0  0  0
 21 16  1  0  0  0  0
 22 21  1  0  0  0  0
 23 21  1  0  0  0  0
 24  4  1  6  0  0  0
 24 25  1  0  0  0  0
 26 27  1  6  0  0  0
 26 24  1  0  0  0  0
 26 25  1  0  0  0  0
 28 27  1  0  0  0  0
 29 28  2  0  0  0  0
 30 31  2  0  0  0  0
 30 29  1  0  0  0  0
 31 32  1  0  0  0  0
 32 33  1  0  0  0  0
 32 27  2  0  0  0  0
 33 34  2  0  0  0  0
 35 36  1  0  0  0  0
 35 33  1  0  0  0  0
M  END
>  <minimizedAffinity>
-6.879251

$$$$

 OpenBabel03242509193D

 36 41  0  0  1  0  0  0  0  0999 V2000
   65.3130   58.9630   30.8620 C   0  0  0  0  0  0  0  0  0  0  0  0
   65.1190   58.8460   32.2070 C   0  0  0  0  0  3  0  0  0  0  0  0
   66.1420   59.4570   32.9040 C   0  0  0  0  0  3  0  0  0  0  0  0
   66.9530   59.9410   31.9310 N   0  0  0  0  0  0  0  0  0  0  0  0
   66.4640   59.6500   30.7700 N   0  0  0  0  0  0  0  0  0  0  0  0
   64.9160   57.5570   28.8510 C   0  0  0  0  0  3  0  0  0  0  0  0
   64.4390   58.4350   29.8490 C   0  0  0  0  0  0  0  0  0  0  0  0
   63.1010   58.7580   29.7920 C   0  0  0  0  0  3  0  0  0  0  0  0
   62.3340   58.2290   28.8030 N   0  0  0  0  0  0  0  0  0  0  0  0
   62.8550   57.3840   27.8630 C   0  0  0  0  0  0  0  0  0  0  0  0
   64.1390   57.0540   27.8910 N   0  0  0  0  0  0  0  0  0  0  0  0
   61.9090   56.9220   26.8960 N   0  0  0  0  0  0  0  0  0  0  0  0
   61.5180   55.7220   26.3970 C   0  0  0  0  0  3  0  0  0  0  0  0
   60.5550   55.9350   25.4820 N   0  0  0  0  0  0  0  0  0  0  0  0
   60.3200   57.2370   25.3860 C   0  0  0  0  0  0  0  0  0  0  0  0
   59.4160   57.8950   24.5740 C   0  0  0  0  0  0  0  0  0  0  0  0
   59.3780   59.2470   24.6740 N   0  0  0  0  0  0  0  0  0  0  0  0
   60.1870   59.8860   25.5240 C   0  0  0  0  0  3  0  0  0  0  0  0
   61.0490   59.2350   26.2950 N   0  0  0  0  0  0  0  0  0  0  0  0
   61.1660   57.8760   26.2720 C   0  0  0  0  0  0  0  0  0  0  0  0
   58.5550   57.2110   23.6700 N   0  0  0  0  0  0  0  0  0  0  0  0
   57.8970   57.7430   23.0830 H   0  0  0  0  0  0  0  0  0  0  0  0
   58.5910   56.1830   23.6020 H   0  0  0  0  0  0  0  0  0  0  0  0
   68.1490   60.6450   32.1590 C   0  0  1  0  0  3  0  0  0  0  0  0
   69.1400   60.8260   31.0610 C   0  0  0  0  0  2  0  0  0  0  0  0
   68.4560   62.0100   31.4660 C   0  0  1  0  0  3  0  0  0  0  0  0
   67.4190   62.6490   30.6030 C   0  0  0  0  0  0  0  0  0  0  0  0
   67.6830   62.4310   29.2190 C   0  0  0  0  0  3  0  0  0  0  0  0
   66.8520   63.0120   28.2480 C   0  0  0  0  0  3  0  0  0  0  0  0
   65.7810   63.7950   28.6160 C   0  0  0  0  0  3  0  0  0  0  0  0
   65.5710   63.9760   29.9660 C   0  0  0  0  0  3  0  0  0  0  0  0
   66.3620   63.4240   30.9210 C   0  0  0  0  0  0  0  0  0  0  0  0
   66.1330   63.6250   32.3400 C   0  0  0  0  0  0  0  0  0  0  0  0
   65.4500   62.9200   33.1170 O   0  0  0  0  0  0  0  0  0  0  0  0
   66.7090   64.7050   32.9710 O   0  0  0  0  0  0  0  0  0  0  0  0
   66.5590   64.8510   33.9390 H   0  0  0  0  0  0  0  0  0  0  0  0
  1  2  1  0  0  0  0
  2  3  2  0  0  0  0
  4 24  1  0  0  0  0
  4  3  1  0  0  0  0
  5  1  2  0  0  0  0
  5  4  1  0  0  0  0
  6  7  1  0  0  0  0
  7  1  1  0  0  0  0
  8  7  2  0  0  0  0
  9  8  1  0  0  0  0
 10 11  1  0  0  0  0
 10  9  2  0  0  0  0
 11  6  2  0  0  0  0
 12 10  1  0  0  0  0
 13 12  1  0  0  0  0
 14 13  2  0  0  0  0
 15 14  1  0  0  0  0
 15 20  1  0  0  0  0
 16 17  1  0  0  0  0
 16 15  2  0  0  0  0
 17 18  2  0  0  0  0
 18 19  1  0  0  0  0
 20 19  2  0  0  0  0
 20 12  1  0  0  0  0
 21 16  1  0  0  0  0
 22 21  1  0  0  0  0
 23 21  1  0  0  0  0
 24 25  1  6  0  0  0
 25 26  1  0  0  0  0
 26 27  1  6  0  0  0
 26 24  1  0  0  0  0
 27 32  1  0  0  0  0
 28 27  2  0  0  0  0
 29 30  2  0  0  0  0
 29 28  1  0  0  0  0
 30 31  1  0  0  0  0
 31 32  2  0  0  0  0
 32 33  1  0  0  0  0
 33 35  1  0  0  0  0
 33 34  2  0  0  0  0
 35 36  1  0  0  0  0
M  END
>  <minimizedAffinity>
-6.69481802

$$$$

 OpenBabel03242509193D

 36 41  0  0  1  0  0  0  0  0999 V2000
   65.2410   58.6580   31.0820 C   0  0  0  0  0  0  0  0  0  0  0  0
   64.8930   58.5440   32.3950 C   0  0  0  0  0  3  0  0  0  0  0  0
   65.8880   59.0440   33.2110 C   0  0  0  0  0  3  0  0  0  0  0  0
   66.8410   59.4590   32.3410 N   0  0  0  0  0  0  0  0  0  0  0  0
   66.4550   59.2320   31.1280 N   0  0  0  0  0  0  0  0  0  0  0  0
   64.9970   57.5240   28.8830 C   0  0  0  0  0  3  0  0  0  0  0  0
   64.4350   58.2310   29.9700 C   0  0  0  0  0  0  0  0  0  0  0  0
   63.0840   58.4880   29.9000 C   0  0  0  0  0  3  0  0  0  0  0  0
   62.3840   58.0620   28.8160 N   0  0  0  0  0  0  0  0  0  0  0  0
   62.9860   57.3830   27.7930 C   0  0  0  0  0  0  0  0  0  0  0  0
   64.2850   57.1190   27.8310 N   0  0  0  0  0  0  0  0  0  0  0  0
   62.1030   57.0100   26.7330 N   0  0  0  0  0  0  0  0  0  0  0  0
   61.8000   55.8710   26.0590 C   0  0  0  0  0  3  0  0  0  0  0  0
   60.8590   56.1580   25.1410 N   0  0  0  0  0  0  0  0  0  0  0  0
   60.5530   57.4470   25.2120 C   0  0  0  0  0  0  0  0  0  0  0  0
   59.6420   58.1630   24.4590 C   0  0  0  0  0  0  0  0  0  0  0  0
   59.5230   59.4840   24.7400 N   0  0  0  0  0  0  0  0  0  0  0  0
   60.2640   60.0410   25.7030 C   0  0  0  0  0  3  0  0  0  0  0  0
   61.1330   59.3360   26.4150 N   0  0  0  0  0  0  0  0  0  0  0  0
   61.3290   58.0010   26.2120 C   0  0  0  0  0  0  0  0  0  0  0  0
   58.8550   57.5660   23.4340 N   0  0  0  0  0  0  0  0  0  0  0  0
   58.1880   58.1390   22.8970 H   0  0  0  0  0  0  0  0  0  0  0  0
   58.9520   56.5610   23.2290 H   0  0  0  0  0  0  0  0  0  0  0  0
   68.0670   60.0420   32.7110 C   0  0  1  0  0  3  0  0  0  0  0  0
   68.2980   60.4900   34.1130 C   0  0  0  0  0  2  0  0  0  0  0  0
   69.0510   59.3490   33.7050 C   0  0  1  0  0  3  0  0  0  0  0  0
   68.7410   57.9820   34.2180 C   0  0  0  0  0  0  0  0  0  0  0  0
   68.9690   56.9860   33.2230 C   0  0  0  0  0  3  0  0  0  0  0  0
   68.6710   55.6420   33.4980 C   0  0  0  0  0  3  0  0  0  0  0  0
   68.1580   55.2710   34.7200 C   0  0  0  0  0  3  0  0  0  0  0  0
   67.9540   56.2710   35.6450 C   0  0  0  0  0  3  0  0  0  0  0  0
   68.2350   57.5760   35.4010 C   0  0  0  0  0  0  0  0  0  0  0  0
   68.0120   58.6230   36.3810 C   0  0  0  0  0  0  0  0  0  0  0  0
   66.9350   59.1940   36.6650 O   0  0  0  0  0  0  0  0  0  0  0  0
   69.0730   59.0910   37.1240 O   0  0  0  0  0  0  0  0  0  0  0  0
   68.9310   59.8050   37.7950 H   0  0  0  0  0  0  0  0  0  0  0  0
  1  5  2  0  0  0  0
  1  2  1  0  0  0  0
  2  3  2  0  0  0  0
  4  3  1  0  0  0  0
  5  4  1  0  0  0  0
  6  7  1  0  0  0  0
  7  1  1  0  0  0  0
  8  7  2  0  0  0  0
  9  8  1  0  0  0  0
 10 11  1  0  0  0  0
 10  9  2  0  0  0  0
 11  6  2  0  0  0  0
 12 10  1  0  0  0  0
 13 12  1  0  0  0  0
 14 15  1  0  0  0  0
 14 13  2  0  0  0  0
 15 20  1  0  0  0  0
 16 17  1  0  0  0  0
 16 15  2  0  0  0  0
 17 18  2  0  0  0  0
 18 19  1  0  0  0  0
 20 19  2  0  0  0  0
 20 12  1  0  0  0  0
 21 16  1  0  0  0  0
 22 21  1  0  0  0  0
 23 21  1  0  0  0  0
 24  4  1  1  0  0  0
 24 26  1  0  0  0  0
 24 25  1  0  0  0  0
 26 25  1  0  0  0  0
 26 27  1  1  0  0  0
 27 32  1  0  0  0  0
 28 29  1  0  0  0  0
 28 27  2  0  0  0  0
 29 30  2  0  0  0  0
 30 31  1  0  0  0  0
 32 31  2  0  0  0  0
 32 33  1  0  0  0  0
 33 34  2  0  0  0  0
 33 35  1  0  0  0  0
 35 36  1  0  0  0  0
M  END
>  <minimizedAffinity>
-6.67035675

$$$$

 OpenBabel03242509193D

 36 41  0  0  1  0  0  0  0  0999 V2000
   65.4520   58.2720   30.5320 C   0  0  0  0  0  0  0  0  0  0  0  0
   66.6090   57.5950   30.7800 C   0  0  0  0  0  3  0  0  0  0  0  0
   67.2840   58.1530   31.8470 C   0  0  0  0  0  3  0  0  0  0  0  0
   66.4920   59.1850   32.2260 N   0  0  0  0  0  0  0  0  0  0  0  0
   65.4490   59.2390   31.4640 N   0  0  0  0  0  0  0  0  0  0  0  0
   64.9240   57.3030   28.3040 C   0  0  0  0  0  3  0  0  0  0  0  0
   64.5150   57.9580   29.4870 C   0  0  0  0  0  0  0  0  0  0  0  0
   63.1790   58.2810   29.5780 C   0  0  0  0  0  3  0  0  0  0  0  0
   62.3500   57.9620   28.5490 N   0  0  0  0  0  0  0  0  0  0  0  0
   62.8060   57.3280   27.4270 C   0  0  0  0  0  0  0  0  0  0  0  0
   64.0860   57.0030   27.3110 N   0  0  0  0  0  0  0  0  0  0  0  0
   61.7990   57.0690   26.4460 N   0  0  0  0  0  0  0  0  0  0  0  0
   61.3690   55.9940   25.7380 C   0  0  0  0  0  3  0  0  0  0  0  0
   60.3550   56.3850   24.9450 N   0  0  0  0  0  0  0  0  0  0  0  0
   60.1260   57.6790   25.1300 C   0  0  0  0  0  0  0  0  0  0  0  0
   59.1820   58.4850   24.5250 C   0  0  0  0  0  0  0  0  0  0  0  0
   59.1620   59.7880   24.9000 N   0  0  0  0  0  0  0  0  0  0  0  0
   60.0260   60.2440   25.8110 C   0  0  0  0  0  3  0  0  0  0  0  0
   60.9260   59.4530   26.3800 N   0  0  0  0  0  0  0  0  0  0  0  0
   61.0290   58.1270   26.0750 C   0  0  0  0  0  0  0  0  0  0  0  0
   58.2620   57.9960   23.5540 N   0  0  0  0  0  0  0  0  0  0  0  0
   57.5750   58.6340   23.1280 H   0  0  0  0  0  0  0  0  0  0  0  0
   58.2850   57.0040   23.2760 H   0  0  0  0  0  0  0  0  0  0  0  0
   66.7740   60.0670   33.2860 C   0  0  1  0  0  3  0  0  0  0  0  0
   68.1660   60.2140   33.7960 C   0  0  0  0  0  2  0  0  0  0  0  0
   67.6500   61.3440   33.0950 C   0  0  1  0  0  3  0  0  0  0  0  0
   68.1350   61.7090   31.7310 C   0  0  0  0  0  0  0  0  0  0  0  0
   67.0790   62.2170   30.9190 C   0  0  0  0  0  3  0  0  0  0  0  0
   67.3270   62.5530   29.5780 C   0  0  0  0  0  3  0  0  0  0  0  0
   68.5830   62.3990   29.0350 C   0  0  0  0  0  3  0  0  0  0  0  0
   69.5670   61.9030   29.8620 C   0  0  0  0  0  3  0  0  0  0  0  0
   69.3490   61.5710   31.1600 C   0  0  0  0  0  0  0  0  0  0  0  0
   70.3930   61.0460   32.0210 C   0  0  0  0  0  0  0  0  0  0  0  0
   71.0080   61.6410   32.9340 O   0  0  0  0  0  0  0  0  0  0  0  0
   70.8040   59.7410   31.8660 O   0  0  0  0  0  0  0  0  0  0  0  0
   71.5150   59.3730   32.4490 H   0  0  0  0  0  0  0  0  0  0  0  0
  1  2  1  0  0  0  0
  1  5  2  0  0  0  0
  2  3  2  0  0  0  0
  3  4  1  0  0  0  0
  5  4  1  0  0  0  0
  6  7  1  0  0  0  0
  7  8  2  0  0  0  0
  7  1  1  0  0  0  0
  9  8  1  0  0  0  0
 10  9  2  0  0  0  0
 11 10  1  0  0  0  0
 11  6  2  0  0  0  0
 12 10  1  0  0  0  0
 13 12  1  0  0  0  0
 14 15  1  0  0  0  0
 14 13  2  0  0  0  0
 15 20  1  0  0  0  0
 16 17  1  0  0  0  0
 16 15  2  0  0  0  0
 17 18  2  0  0  0  0
 18 19  1  0  0  0  0
 20 19  2  0  0  0  0
 20 12  1  0  0  0  0
 21 16  1  0  0  0  0
 22 21  1  0  0  0  0
 23 21  1  0  0  0  0
 24  4  1  6  0  0  0
 24 25  1  0  0  0  0
 26 27  1  6  0  0  0
 26 24  1  0  0  0  0
 26 25  1  0  0  0  0
 28 27  2  0  0  0  0
 29 28  1  0  0  0  0
 30 29  2  0  0  0  0
 30 31  1  0  0  0  0
 31 32  2  0  0  0  0
 32 27  1  0  0  0  0
 32 33  1  0  0  0  0
 33 34  2  0  0  0  0
 35 33  1  0  0  0  0
 35 36  1  0  0  0  0
M  END
>  <minimizedAffinity>
-6.44411707

$$$$
