
 OpenBabel03242509313D

 32 36  0  0  0  0  0  0  0  0999 V2000
   60.6590   59.8950   28.4860 C   0  0  0  0  0  3  0  0  0  0  0  0
   60.4570   59.8270   27.1010 C   0  0  0  0  0  0  0  0  0  0  0  0
   60.1350   61.0240   26.4720 C   0  0  0  0  0  3  0  0  0  0  0  0
   60.0280   62.1760   27.1730 N   0  0  0  0  0  0  0  0  0  0  0  0
   60.2320   62.1800   28.4940 C   0  0  0  0  0  0  0  0  0  0  0  0
   60.5470   61.0540   29.1640 N   0  0  0  0  0  0  0  0  0  0  0  0
   60.6190   58.5170   26.5250 C   0  0  0  0  0  0  0  0  0  0  0  0
   61.7860   57.8640   26.9730 C   0  0  0  0  0  3  0  0  0  0  0  0
   62.1310   56.6030   26.5480 C   0  0  0  0  0  3  0  0  0  0  0  0
   61.3240   55.9270   25.6500 C   0  0  0  0  0  3  0  0  0  0  0  0
   60.1720   56.5780   25.2100 C   0  0  0  0  0  0  0  0  0  0  0  0
   59.3000   55.9960   24.3180 C   0  0  0  0  0  3  0  0  0  0  0  0
   58.1590   56.6320   23.8800 C   0  0  0  0  0  3  0  0  0  0  0  0
   57.8740   57.8970   24.3480 C   0  0  0  0  0  3  0  0  0  0  0  0
   58.7350   58.5020   25.2440 C   0  0  0  0  0  3  0  0  0  0  0  0
   59.8410   57.8250   25.6390 C   0  0  0  0  0  0  0  0  0  0  0  0
   60.1010   63.4940   29.2190 C   0  0  0  0  0  2  0  0  0  0  0  0
   61.3630   63.8100   29.9780 C   0  0  0  0  0  0  0  0  0  0  0  0
   61.3640   64.5800   31.1730 C   0  0  0  0  0  3  0  0  0  0  0  0
   63.1450   64.5910   31.5800 S   0  0  0  0  0  0  0  0  0  0  0  0
   63.5830   63.5760   30.1020 C   0  0  0  0  0  0  0  0  0  0  0  0
   62.5120   63.3630   29.5380 N   0  0  0  0  0  0  0  0  0  0  0  0
   64.9190   63.1700   29.7640 N   0  0  0  0  0  0  0  0  0  0  0  0
   65.6340   64.1180   29.1400 C   0  0  0  0  0  3  0  0  0  0  0  0
   66.9470   63.8240   28.7690 C   0  0  0  0  0  0  0  0  0  0  0  0
   67.7670   64.8510   28.0770 C   0  0  0  0  0  1  0  0  0  0  0  0
   67.4530   62.5570   29.0620 C   0  0  0  0  0  0  0  0  0  0  0  0
   68.6410   62.2570   28.7370 O   0  0  0  0  0  0  0  0  0  0  0  0
   66.6580   61.6700   29.6900 N   0  0  0  0  0  0  0  0  0  0  0  0
   65.3870   61.9520   30.0520 C   0  0  0  0  0  0  0  0  0  0  0  0
   64.6230   61.1440   30.6400 O   0  0  0  0  0  0  0  0  0  0  0  0
   67.0350   60.7360   29.9040 H   0  0  0  0  0  0  0  0  0  0  0  0
  1  6  2  0  0  0  0
  2  1  1  0  0  0  0
  3  2  2  0  0  0  0
  3  4  1  0  0  0  0
  4  5  2  0  0  0  0
  5  6  1  0  0  0  0
  5 17  1  0  0  0  0
  7  8  1  0  0  0  0
  7  2  1  0  0  0  0
  9  8  2  0  0  0  0
 10  9  1  0  0  0  0
 11 16  1  0  0  0  0
 11 10  2  0  0  0  0
 12 11  1  0  0  0  0
 13 12  2  0  0  0  0
 13 14  1  0  0  0  0
 14 15  2  0  0  0  0
 15 16  1  0  0  0  0
 16  7  2  0  0  0  0
 17 18  1  0  0  0  0
 18 19  2  0  0  0  0
 19 20  1  0  0  0  0
 21 20  1  0  0  0  0
 22 18  1  0  0  0  0
 22 21  2  0  0  0  0
 23 30  1  0  0  0  0
 23 21  1  0  0  0  0
 24 23  1  0  0  0  0
 25 27  1  0  0  0  0
 25 24  2  0  0  0  0
 26 25  1  0  0  0  0
 27 29  1  0  0  0  0
 28 27  2  0  0  0  0
 29 32  1  0  0  0  0
 29 30  1  0  0  0  0
 30 31  2  0  0  0  0
M  END
>  <minimizedAffinity>
-8.00559711

$$$$

 OpenBabel03242509313D

 32 36  0  0  0  0  0  0  0  0999 V2000
   62.4210   56.8630   28.1860 C   0  0  0  0  0  3  0  0  0  0  0  0
   62.5980   56.9670   26.8000 C   0  0  0  0  0  0  0  0  0  0  0  0
   63.9080   57.1180   26.3620 C   0  0  0  0  0  3  0  0  0  0  0  0
   64.9380   57.1600   27.2370 N   0  0  0  0  0  0  0  0  0  0  0  0
   64.7090   57.0560   28.5500 C   0  0  0  0  0  0  0  0  0  0  0  0
   63.4630   56.9080   29.0400 N   0  0  0  0  0  0  0  0  0  0  0  0
   61.3860   56.8960   26.0240 C   0  0  0  0  0  0  0  0  0  0  0  0
   60.7930   55.6170   26.0530 C   0  0  0  0  0  3  0  0  0  0  0  0
   59.6290   55.3320   25.3790 C   0  0  0  0  0  3  0  0  0  0  0  0
   58.9940   56.3140   24.6410 C   0  0  0  0  0  3  0  0  0  0  0  0
   59.5860   57.5770   24.6150 C   0  0  0  0  0  0  0  0  0  0  0  0
   59.0380   58.6260   23.9120 C   0  0  0  0  0  3  0  0  0  0  0  0
   59.6160   59.8770   23.8830 C   0  0  0  0  0  3  0  0  0  0  0  0
   60.7840   60.0920   24.5820 C   0  0  0  0  0  3  0  0  0  0  0  0
   61.3530   59.0550   25.2960 C   0  0  0  0  0  3  0  0  0  0  0  0
   60.7370   57.8460   25.2860 C   0  0  0  0  0  0  0  0  0  0  0  0
   65.8960   57.1070   29.4740 C   0  0  0  0  0  2  0  0  0  0  0  0
   65.7230   58.1970   30.5000 C   0  0  0  0  0  0  0  0  0  0  0  0
   65.6080   57.9270   31.8920 C   0  0  0  0  0  3  0  0  0  0  0  0
   65.4340   59.6160   32.5620 S   0  0  0  0  0  0  0  0  0  0  0  0
   65.5430   60.3910   30.8910 C   0  0  0  0  0  0  0  0  0  0  0  0
   65.6790   59.4480   30.1150 N   0  0  0  0  0  0  0  0  0  0  0  0
   65.4740   61.8050   30.6460 N   0  0  0  0  0  0  0  0  0  0  0  0
   64.2250   62.2940   30.6270 C   0  0  0  0  0  3  0  0  0  0  0  0
   64.0480   63.6590   30.3970 C   0  0  0  0  0  0  0  0  0  0  0  0
   62.6780   64.2320   30.3710 C   0  0  0  0  0  1  0  0  0  0  0  0
   65.1790   64.4510   30.1950 C   0  0  0  0  0  0  0  0  0  0  0  0
   65.0530   65.6940   29.9830 O   0  0  0  0  0  0  0  0  0  0  0  0
   66.3930   63.8700   30.2310 N   0  0  0  0  0  0  0  0  0  0  0  0
   66.5680   62.5490   30.4540 C   0  0  0  0  0  0  0  0  0  0  0  0
   67.6890   61.9800   30.4940 O   0  0  0  0  0  0  0  0  0  0  0  0
   67.2250   64.4570   30.0800 H   0  0  0  0  0  0  0  0  0  0  0  0
  1  6  2  0  0  0  0
  2  1  1  0  0  0  0
  3  2  2  0  0  0  0
  3  4  1  0  0  0  0
  4  5  2  0  0  0  0
  5  6  1  0  0  0  0
  5 17  1  0  0  0  0
  7  8  1  0  0  0  0
  7  2  1  0  0  0  0
  9  8  2  0  0  0  0
 10  9  1  0  0  0  0
 11 10  2  0  0  0  0
 11 16  1  0  0  0  0
 12 11  1  0  0  0  0
 13 12  2  0  0  0  0
 13 14  1  0  0  0  0
 14 15  2  0  0  0  0
 16 15  1  0  0  0  0
 16  7  2  0  0  0  0
 17 18  1  0  0  0  0
 18 19  2  0  0  0  0
 19 20  1  0  0  0  0
 21 20  1  0  0  0  0
 22 18  1  0  0  0  0
 22 21  2  0  0  0  0
 23 21  1  0  0  0  0
 24 23  1  0  0  0  0
 25 24  2  0  0  0  0
 26 25  1  0  0  0  0
 27 29  1  0  0  0  0
 27 25  1  0  0  0  0
 28 27  2  0  0  0  0
 29 30  1  0  0  0  0
 30 31  2  0  0  0  0
 30 23  1  0  0  0  0
 32 29  1  0  0  0  0
M  END
>  <minimizedAffinity>
-7.96515608

$$$$

 OpenBabel03242509313D

 32 36  0  0  0  0  0  0  0  0999 V2000
   63.4390   57.4310   26.0720 C   0  0  0  0  0  3  0  0  0  0  0  0
   62.1510   57.7370   26.5330 C   0  0  0  0  0  0  0  0  0  0  0  0
   61.9970   57.8020   27.9120 C   0  0  0  0  0  3  0  0  0  0  0  0
   63.0390   57.5800   28.7450 N   0  0  0  0  0  0  0  0  0  0  0  0
   64.2460   57.2920   28.2480 C   0  0  0  0  0  0  0  0  0  0  0  0
   64.4630   57.2130   26.9200 N   0  0  0  0  0  0  0  0  0  0  0  0
   61.1690   57.9470   25.5010 C   0  0  0  0  0  0  0  0  0  0  0  0
   61.2590   59.2260   24.9130 C   0  0  0  0  0  3  0  0  0  0  0  0
   60.4150   59.6320   23.9060 C   0  0  0  0  0  3  0  0  0  0  0  0
   59.4350   58.7790   23.4330 C   0  0  0  0  0  3  0  0  0  0  0  0
   59.3510   57.5160   24.0180 C   0  0  0  0  0  0  0  0  0  0  0  0
   58.4130   56.5890   23.6230 C   0  0  0  0  0  3  0  0  0  0  0  0
   58.3240   55.3380   24.1960 C   0  0  0  0  0  3  0  0  0  0  0  0
   59.2030   54.9970   25.2010 C   0  0  0  0  0  3  0  0  0  0  0  0
   60.1530   55.9110   25.6160 C   0  0  0  0  0  3  0  0  0  0  0  0
   60.1910   57.1250   25.0130 C   0  0  0  0  0  0  0  0  0  0  0  0
   65.3680   57.0560   29.2240 C   0  0  0  0  0  2  0  0  0  0  0  0
   65.3930   58.1360   30.2750 C   0  0  0  0  0  0  0  0  0  0  0  0
   65.3970   57.8500   31.6670 C   0  0  0  0  0  3  0  0  0  0  0  0
   65.4360   59.5350   32.3700 S   0  0  0  0  0  0  0  0  0  0  0  0
   65.4400   60.3300   30.7050 C   0  0  0  0  0  0  0  0  0  0  0  0
   65.4160   59.3940   29.9090 N   0  0  0  0  0  0  0  0  0  0  0  0
   65.4670   61.7500   30.4830 N   0  0  0  0  0  0  0  0  0  0  0  0
   64.2690   62.3410   30.5980 C   0  0  0  0  0  3  0  0  0  0  0  0
   64.1870   63.7200   30.4020 C   0  0  0  0  0  0  0  0  0  0  0  0
   62.8750   64.4060   30.5230 C   0  0  0  0  0  1  0  0  0  0  0  0
   65.3540   64.4190   30.0940 C   0  0  0  0  0  0  0  0  0  0  0  0
   65.3140   65.6720   29.9090 O   0  0  0  0  0  0  0  0  0  0  0  0
   66.5120   63.7370   29.9990 N   0  0  0  0  0  0  0  0  0  0  0  0
   66.5950   62.4030   30.1890 C   0  0  0  0  0  0  0  0  0  0  0  0
   67.6620   61.7420   30.1070 O   0  0  0  0  0  0  0  0  0  0  0  0
   67.3720   64.2570   29.7700 H   0  0  0  0  0  0  0  0  0  0  0  0
  1  2  1  0  0  0  0
  1  6  2  0  0  0  0
  2  3  2  0  0  0  0
  3  4  1  0  0  0  0
  5  4  2  0  0  0  0
  5 17  1  0  0  0  0
  6  5  1  0  0  0  0
  7  2  1  0  0  0  0
  8  7  2  0  0  0  0
  9  8  1  0  0  0  0
 10  9  2  0  0  0  0
 10 11  1  0  0  0  0
 11 16  1  0  0  0  0
 12 11  2  0  0  0  0
 12 13  1  0  0  0  0
 13 14  2  0  0  0  0
 14 15  1  0  0  0  0
 16  7  1  0  0  0  0
 16 15  2  0  0  0  0
 17 18  1  0  0  0  0
 18 19  2  0  0  0  0
 19 20  1  0  0  0  0
 21 20  1  0  0  0  0
 22 18  1  0  0  0  0
 22 21  2  0  0  0  0
 23 24  1  0  0  0  0
 23 21  1  0  0  0  0
 25 26  1  0  0  0  0
 25 24  2  0  0  0  0
 27 25  1  0  0  0  0
 28 27  2  0  0  0  0
 29 27  1  0  0  0  0
 29 30  1  0  0  0  0
 30 23  1  0  0  0  0
 31 30  2  0  0  0  0
 32 29  1  0  0  0  0
M  END
>  <minimizedAffinity>
-7.93741131

$$$$

 OpenBabel03242509313D

 32 36  0  0  0  0  0  0  0  0999 V2000
   60.1430   61.3560   26.7590 C   0  0  0  0  0  3  0  0  0  0  0  0
   60.0280   60.1250   27.4190 C   0  0  0  0  0  0  0  0  0  0  0  0
   59.9030   60.1840   28.8020 C   0  0  0  0  0  3  0  0  0  0  0  0
   59.8950   61.3690   29.4540 N   0  0  0  0  0  0  0  0  0  0  0  0
   60.0080   62.5120   28.7710 C   0  0  0  0  0  0  0  0  0  0  0  0
   60.1330   62.5250   27.4300 N   0  0  0  0  0  0  0  0  0  0  0  0
   60.0510   58.9690   26.5610 C   0  0  0  0  0  0  0  0  0  0  0  0
   58.9600   58.9300   25.6670 C   0  0  0  0  0  3  0  0  0  0  0  0
   58.7910   57.9120   24.7590 C   0  0  0  0  0  3  0  0  0  0  0  0
   59.7050   56.8760   24.6970 C   0  0  0  0  0  3  0  0  0  0  0  0
   60.7810   56.9190   25.5830 C   0  0  0  0  0  0  0  0  0  0  0  0
   61.7490   55.9410   25.6050 C   0  0  0  0  0  3  0  0  0  0  0  0
   62.8150   55.9770   26.4770 C   0  0  0  0  0  3  0  0  0  0  0  0
   62.9230   57.0280   27.3620 C   0  0  0  0  0  3  0  0  0  0  0  0
   61.9640   58.0230   27.3580 C   0  0  0  0  0  3  0  0  0  0  0  0
   60.9380   57.9320   26.4760 C   0  0  0  0  0  0  0  0  0  0  0  0
   59.9910   63.8000   29.5520 C   0  0  0  0  0  2  0  0  0  0  0  0
   61.2840   63.9830   30.3020 C   0  0  0  0  0  0  0  0  0  0  0  0
   61.3470   64.6110   31.5770 C   0  0  0  0  0  3  0  0  0  0  0  0
   63.1370   64.5150   31.9250 S   0  0  0  0  0  0  0  0  0  0  0  0
   63.4970   63.6630   30.3280 C   0  0  0  0  0  0  0  0  0  0  0  0
   62.4040   63.5520   29.7780 N   0  0  0  0  0  0  0  0  0  0  0  0
   64.8070   63.2530   29.9040 N   0  0  0  0  0  0  0  0  0  0  0  0
   65.5400   64.2410   29.3700 C   0  0  0  0  0  3  0  0  0  0  0  0
   66.8300   63.9480   28.9260 C   0  0  0  0  0  0  0  0  0  0  0  0
   67.6680   65.0200   28.3310 C   0  0  0  0  0  1  0  0  0  0  0  0
   67.2970   62.6400   29.0570 C   0  0  0  0  0  0  0  0  0  0  0  0
   68.4630   62.3390   28.6630 O   0  0  0  0  0  0  0  0  0  0  0  0
   66.4860   61.7140   29.6050 N   0  0  0  0  0  0  0  0  0  0  0  0
   65.2370   61.9950   30.0360 C   0  0  0  0  0  0  0  0  0  0  0  0
   64.4610   61.1510   30.5530 O   0  0  0  0  0  0  0  0  0  0  0  0
   66.8340   60.7490   29.6990 H   0  0  0  0  0  0  0  0  0  0  0  0
  1  2  1  0  0  0  0
  1  6  2  0  0  0  0
  2  3  2  0  0  0  0
  3  4  1  0  0  0  0
  5  4  2  0  0  0  0
  5 17  1  0  0  0  0
  6  5  1  0  0  0  0
  7  2  1  0  0  0  0
  8  7  2  0  0  0  0
  9  8  1  0  0  0  0
 10  9  2  0  0  0  0
 10 11  1  0  0  0  0
 11 12  2  0  0  0  0
 11 16  1  0  0  0  0
 12 13  1  0  0  0  0
 13 14  2  0  0  0  0
 15 14  1  0  0  0  0
 16  7  1  0  0  0  0
 16 15  2  0  0  0  0
 17 18  1  0  0  0  0
 18 19  2  0  0  0  0
 19 20  1  0  0  0  0
 21 20  1  0  0  0  0
 22 18  1  0  0  0  0
 22 21  2  0  0  0  0
 23 30  1  0  0  0  0
 23 21  1  0  0  0  0
 24 23  1  0  0  0  0
 25 27  1  0  0  0  0
 25 24  2  0  0  0  0
 26 25  1  0  0  0  0
 27 29  1  0  0  0  0
 28 27  2  0  0  0  0
 29 32  1  0  0  0  0
 29 30  1  0  0  0  0
 30 31  2  0  0  0  0
M  END
>  <minimizedAffinity>
-7.83964539

$$$$

 OpenBabel03242509313D

 32 36  0  0  0  0  0  0  0  0999 V2000
   62.4420   56.8550   28.2650 C   0  0  0  0  0  3  0  0  0  0  0  0
   62.6520   56.9600   26.8840 C   0  0  0  0  0  0  0  0  0  0  0  0
   63.9710   57.1290   26.4790 C   0  0  0  0  0  3  0  0  0  0  0  0
   64.9770   57.1870   27.3800 N   0  0  0  0  0  0  0  0  0  0  0  0
   64.7170   57.0810   28.6870 C   0  0  0  0  0  0  0  0  0  0  0  0
   63.4600   56.9160   29.1450 N   0  0  0  0  0  0  0  0  0  0  0  0
   61.4620   56.8710   26.0780 C   0  0  0  0  0  0  0  0  0  0  0  0
   60.8700   55.5910   26.1170 C   0  0  0  0  0  3  0  0  0  0  0  0
   59.7240   55.2900   25.4200 C   0  0  0  0  0  3  0  0  0  0  0  0
   59.1080   56.2550   24.6430 C   0  0  0  0  0  3  0  0  0  0  0  0
   59.6990   57.5180   24.6070 C   0  0  0  0  0  0  0  0  0  0  0  0
   59.1690   58.5510   23.8680 C   0  0  0  0  0  3  0  0  0  0  0  0
   59.7450   59.8020   23.8280 C   0  0  0  0  0  3  0  0  0  0  0  0
   60.8940   60.0340   24.5530 C   0  0  0  0  0  3  0  0  0  0  0  0
   61.4450   59.0130   25.3030 C   0  0  0  0  0  3  0  0  0  0  0  0
   60.8310   57.8040   25.3020 C   0  0  0  0  0  0  0  0  0  0  0  0
   65.8790   57.1510   29.6410 C   0  0  0  0  0  2  0  0  0  0  0  0
   65.7520   58.3480   30.5460 C   0  0  0  0  0  0  0  0  0  0  0  0
   65.1360   59.5610   30.1300 C   0  0  0  0  0  3  0  0  0  0  0  0
   65.2960   60.5710   31.6430 S   0  0  0  0  0  0  0  0  0  0  0  0
   66.1490   59.2200   32.5670 C   0  0  0  0  0  0  0  0  0  0  0  0
   66.2170   58.2880   31.7690 N   0  0  0  0  0  0  0  0  0  0  0  0
   66.6000   59.3260   33.9270 N   0  0  0  0  0  0  0  0  0  0  0  0
   67.7750   59.9580   34.0620 C   0  0  0  0  0  3  0  0  0  0  0  0
   68.3030   60.1140   35.3450 C   0  0  0  0  0  0  0  0  0  0  0  0
   69.6020   60.8090   35.5290 C   0  0  0  0  0  1  0  0  0  0  0  0
   67.5830   59.6050   36.4260 C   0  0  0  0  0  0  0  0  0  0  0  0
   68.0340   59.7300   37.6040 O   0  0  0  0  0  0  0  0  0  0  0  0
   66.4110   58.9840   36.1910 N   0  0  0  0  0  0  0  0  0  0  0  0
   65.8980   58.8320   34.9510 C   0  0  0  0  0  0  0  0  0  0  0  0
   64.8060   58.2590   34.7020 O   0  0  0  0  0  0  0  0  0  0  0  0
   65.8840   58.6090   36.9920 H   0  0  0  0  0  0  0  0  0  0  0  0
  1  6  2  0  0  0  0
  2  1  1  0  0  0  0
  3  2  2  0  0  0  0
  3  4  1  0  0  0  0
  4  5  2  0  0  0  0
  5  6  1  0  0  0  0
  5 17  1  0  0  0  0
  7  8  1  0  0  0  0
  7  2  1  0  0  0  0
  9  8  2  0  0  0  0
 10  9  1  0  0  0  0
 11 10  2  0  0  0  0
 11 16  1  0  0  0  0
 12 11  1  0  0  0  0
 13 12  2  0  0  0  0
 13 14  1  0  0  0  0
 14 15  2  0  0  0  0
 16 15  1  0  0  0  0
 16  7  2  0  0  0  0
 17 18  1  0  0  0  0
 18 22  1  0  0  0  0
 19 18  2  0  0  0  0
 19 20  1  0  0  0  0
 20 21  1  0  0  0  0
 21 23  1  0  0  0  0
 22 21  2  0  0  0  0
 23 24  1  0  0  0  0
 23 30  1  0  0  0  0
 24 25  2  0  0  0  0
 25 26  1  0  0  0  0
 25 27  1  0  0  0  0
 27 28  2  0  0  0  0
 29 27  1  0  0  0  0
 29 32  1  0  0  0  0
 30 29  1  0  0  0  0
 31 30  2  0  0  0  0
M  END
>  <minimizedAffinity>
-7.70702362

$$$$

 OpenBabel03242509313D

 32 36  0  0  0  0  0  0  0  0999 V2000
   62.1750   57.1120   28.2970 C   0  0  0  0  0  3  0  0  0  0  0  0
   62.5300   57.0950   26.9410 C   0  0  0  0  0  0  0  0  0  0  0  0
   63.8810   57.2630   26.6620 C   0  0  0  0  0  3  0  0  0  0  0  0
   64.7840   57.4330   27.6530 N   0  0  0  0  0  0  0  0  0  0  0  0
   64.3880   57.4410   28.9290 C   0  0  0  0  0  0  0  0  0  0  0  0
   63.0930   57.2830   29.2680 N   0  0  0  0  0  0  0  0  0  0  0  0
   61.4340   56.8970   26.0270 C   0  0  0  0  0  0  0  0  0  0  0  0
   60.8980   55.5940   26.0900 C   0  0  0  0  0  3  0  0  0  0  0  0
   59.8450   55.1940   25.3020 C   0  0  0  0  0  3  0  0  0  0  0  0
   59.2700   56.0790   24.4070 C   0  0  0  0  0  3  0  0  0  0  0  0
   59.8050   57.3660   24.3490 C   0  0  0  0  0  0  0  0  0  0  0  0
   59.3090   58.3250   23.4950 C   0  0  0  0  0  3  0  0  0  0  0  0
   59.8300   59.5990   23.4330 C   0  0  0  0  0  3  0  0  0  0  0  0
   60.8870   59.9320   24.2520 C   0  0  0  0  0  3  0  0  0  0  0  0
   61.4030   58.9860   25.1180 C   0  0  0  0  0  3  0  0  0  0  0  0
   60.8460   57.7500   25.1340 C   0  0  0  0  0  0  0  0  0  0  0  0
   65.4410   57.6320   29.9890 C   0  0  0  0  0  2  0  0  0  0  0  0
   65.5310   59.0800   30.3930 C   0  0  0  0  0  0  0  0  0  0  0  0
   64.6220   59.6780   31.3090 C   0  0  0  0  0  3  0  0  0  0  0  0
   65.2620   61.3870   31.3710 S   0  0  0  0  0  0  0  0  0  0  0  0
   66.6200   61.0210   30.1760 C   0  0  0  0  0  0  0  0  0  0  0  0
   66.4790   59.8330   29.8930 N   0  0  0  0  0  0  0  0  0  0  0  0
   67.5890   61.9840   29.7280 N   0  0  0  0  0  0  0  0  0  0  0  0
   67.1460   62.7870   28.7500 C   0  0  0  0  0  3  0  0  0  0  0  0
   68.0110   63.7580   28.2450 C   0  0  0  0  0  0  0  0  0  0  0  0
   67.5520   64.6650   27.1620 C   0  0  0  0  0  1  0  0  0  0  0  0
   69.2970   63.8470   28.7800 C   0  0  0  0  0  0  0  0  0  0  0  0
   70.1070   64.7180   28.3430 O   0  0  0  0  0  0  0  0  0  0  0  0
   69.6520   62.9940   29.7600 N   0  0  0  0  0  0  0  0  0  0  0  0
   68.8160   62.0540   30.2520 C   0  0  0  0  0  0  0  0  0  0  0  0
   69.1200   61.2460   31.1670 O   0  0  0  0  0  0  0  0  0  0  0  0
   70.6020   63.0620   30.1520 H   0  0  0  0  0  0  0  0  0  0  0  0
  1  6  2  0  0  0  0
  2  1  1  0  0  0  0
  3  2  2  0  0  0  0
  3  4  1  0  0  0  0
  4  5  2  0  0  0  0
  5  6  1  0  0  0  0
  5 17  1  0  0  0  0
  7  8  1  0  0  0  0
  7  2  1  0  0  0  0
  9  8  2  0  0  0  0
 10  9  1  0  0  0  0
 11 10  2  0  0  0  0
 11 16  1  0  0  0  0
 12 11  1  0  0  0  0
 13 12  2  0  0  0  0
 13 14  1  0  0  0  0
 14 15  2  0  0  0  0
 15 16  1  0  0  0  0
 16  7  2  0  0  0  0
 17 18  1  0  0  0  0
 18 19  2  0  0  0  0
 19 20  1  0  0  0  0
 21 20  1  0  0  0  0
 22 21  2  0  0  0  0
 22 18  1  0  0  0  0
 23 21  1  0  0  0  0
 23 30  1  0  0  0  0
 24 23  1  0  0  0  0
 25 24  2  0  0  0  0
 25 27  1  0  0  0  0
 26 25  1  0  0  0  0
 27 29  1  0  0  0  0
 28 27  2  0  0  0  0
 29 32  1  0  0  0  0
 29 30  1  0  0  0  0
 30 31  2  0  0  0  0
M  END
>  <minimizedAffinity>
-7.59103584

$$$$

 OpenBabel03242509313D

 32 36  0  0  0  0  0  0  0  0999 V2000
   63.7620   57.2820   26.7280 C   0  0  0  0  0  3  0  0  0  0  0  0
   62.4700   57.3020   27.2730 C   0  0  0  0  0  0  0  0  0  0  0  0
   62.3940   57.2570   28.6600 C   0  0  0  0  0  3  0  0  0  0  0  0
   63.5100   57.1980   29.4210 N   0  0  0  0  0  0  0  0  0  0  0  0
   64.7160   57.1820   28.8450 C   0  0  0  0  0  0  0  0  0  0  0  0
   64.8600   57.2220   27.5060 N   0  0  0  0  0  0  0  0  0  0  0  0
   61.4030   57.3720   26.3090 C   0  0  0  0  0  0  0  0  0  0  0  0
   61.1500   56.1340   25.6820 C   0  0  0  0  0  3  0  0  0  0  0  0
   60.1710   55.9800   24.7290 C   0  0  0  0  0  3  0  0  0  0  0  0
   59.3910   57.0590   24.3530 C   0  0  0  0  0  3  0  0  0  0  0  0
   59.6460   58.2800   24.9760 C   0  0  0  0  0  0  0  0  0  0  0  0
   58.9280   59.4160   24.6770 C   0  0  0  0  0  3  0  0  0  0  0  0
   59.1730   60.6270   25.2890 C   0  0  0  0  0  3  0  0  0  0  0  0
   60.1710   60.7090   26.2360 C   0  0  0  0  0  3  0  0  0  0  0  0
   60.9050   59.5820   26.5540 C   0  0  0  0  0  3  0  0  0  0  0  0
   60.6160   58.4200   25.9170 C   0  0  0  0  0  0  0  0  0  0  0  0
   65.9210   57.1170   29.7450 C   0  0  0  0  0  2  0  0  0  0  0  0
   65.9220   58.2700   30.7160 C   0  0  0  0  0  0  0  0  0  0  0  0
   66.0150   58.0850   32.1230 C   0  0  0  0  0  3  0  0  0  0  0  0
   65.9690   59.8150   32.7050 S   0  0  0  0  0  0  0  0  0  0  0  0
   65.8340   60.4870   30.9910 C   0  0  0  0  0  0  0  0  0  0  0  0
   65.8370   59.4960   30.2640 N   0  0  0  0  0  0  0  0  0  0  0  0
   65.7490   61.8850   30.6720 N   0  0  0  0  0  0  0  0  0  0  0  0
   64.5190   62.4010   30.8110 C   0  0  0  0  0  3  0  0  0  0  0  0
   64.3290   63.7530   30.5250 C   0  0  0  0  0  0  0  0  0  0  0  0
   62.9790   64.3560   30.6700 C   0  0  0  0  0  1  0  0  0  0  0  0
   65.4270   64.5060   30.1070 C   0  0  0  0  0  0  0  0  0  0  0  0
   65.2880   65.7360   29.8390 O   0  0  0  0  0  0  0  0  0  0  0  0
   66.6240   63.8990   29.9950 N   0  0  0  0  0  0  0  0  0  0  0  0
   66.8110   62.5900   30.2720 C   0  0  0  0  0  0  0  0  0  0  0  0
   67.9170   61.9980   30.1780 O   0  0  0  0  0  0  0  0  0  0  0  0
   67.4320   64.4570   29.6850 H   0  0  0  0  0  0  0  0  0  0  0  0
  1  2  1  0  0  0  0
  1  6  2  0  0  0  0
  2  3  2  0  0  0  0
  3  4  1  0  0  0  0
  5  4  2  0  0  0  0
  5 17  1  0  0  0  0
  6  5  1  0  0  0  0
  7  2  1  0  0  0  0
  8  7  2  0  0  0  0
  9  8  1  0  0  0  0
 10  9  2  0  0  0  0
 10 11  1  0  0  0  0
 11 16  1  0  0  0  0
 12 11  2  0  0  0  0
 12 13  1  0  0  0  0
 13 14  2  0  0  0  0
 14 15  1  0  0  0  0
 16  7  1  0  0  0  0
 16 15  2  0  0  0  0
 17 18  1  0  0  0  0
 18 19  2  0  0  0  0
 19 20  1  0  0  0  0
 21 20  1  0  0  0  0
 22 18  1  0  0  0  0
 22 21  2  0  0  0  0
 23 24  1  0  0  0  0
 23 21  1  0  0  0  0
 25 26  1  0  0  0  0
 25 24  2  0  0  0  0
 27 25  1  0  0  0  0
 28 27  2  0  0  0  0
 29 27  1  0  0  0  0
 29 30  1  0  0  0  0
 30 23  1  0  0  0  0
 31 30  2  0  0  0  0
 32 29  1  0  0  0  0
M  END
>  <minimizedAffinity>
-7.55145073

$$$$

 OpenBabel03242509313D

 32 36  0  0  0  0  0  0  0  0999 V2000
   63.6660   57.4540   26.2660 C   0  0  0  0  0  3  0  0  0  0  0  0
   62.3390   57.6640   26.6660 C   0  0  0  0  0  0  0  0  0  0  0  0
   62.1080   57.6570   28.0370 C   0  0  0  0  0  3  0  0  0  0  0  0
   63.1160   57.4580   28.9160 N   0  0  0  0  0  0  0  0  0  0  0  0
   64.3630   57.2630   28.4750 C   0  0  0  0  0  0  0  0  0  0  0  0
   64.6550   57.2570   27.1600 N   0  0  0  0  0  0  0  0  0  0  0  0
   61.4030   57.8630   25.5910 C   0  0  0  0  0  0  0  0  0  0  0  0
   61.5440   59.1220   24.9690 C   0  0  0  0  0  3  0  0  0  0  0  0
   60.7490   59.5150   23.9190 C   0  0  0  0  0  3  0  0  0  0  0  0
   59.7690   58.6690   23.4330 C   0  0  0  0  0  3  0  0  0  0  0  0
   59.6340   57.4260   24.0510 C   0  0  0  0  0  0  0  0  0  0  0  0
   58.6920   56.5080   23.6470 C   0  0  0  0  0  3  0  0  0  0  0  0
   58.5520   55.2770   24.2520 C   0  0  0  0  0  3  0  0  0  0  0  0
   59.3840   54.9480   25.3010 C   0  0  0  0  0  3  0  0  0  0  0  0
   60.3380   55.8540   25.7250 C   0  0  0  0  0  3  0  0  0  0  0  0
   60.4260   57.0480   25.0890 C   0  0  0  0  0  0  0  0  0  0  0  0
   65.4430   57.0490   29.5020 C   0  0  0  0  0  2  0  0  0  0  0  0
   65.5520   58.2420   30.4150 C   0  0  0  0  0  0  0  0  0  0  0  0
   65.0650   59.5290   30.0540 C   0  0  0  0  0  3  0  0  0  0  0  0
   65.4870   60.4920   31.5470 S   0  0  0  0  0  0  0  0  0  0  0  0
   66.2350   59.0320   32.3920 C   0  0  0  0  0  0  0  0  0  0  0  0
   66.1120   58.1080   31.5910 N   0  0  0  0  0  0  0  0  0  0  0  0
   66.8150   59.0640   33.7070 N   0  0  0  0  0  0  0  0  0  0  0  0
   68.0690   59.5370   33.7370 C   0  0  0  0  0  3  0  0  0  0  0  0
   68.7230   59.6100   34.9670 C   0  0  0  0  0  0  0  0  0  0  0  0
   70.1120   60.1300   35.0360 C   0  0  0  0  0  1  0  0  0  0  0  0
   68.0420   59.1860   36.1090 C   0  0  0  0  0  0  0  0  0  0  0  0
   68.6070   59.2380   37.2410 O   0  0  0  0  0  0  0  0  0  0  0  0
   66.7830   58.7240   35.9780 N   0  0  0  0  0  0  0  0  0  0  0  0
   66.1470   58.6530   34.7890 C   0  0  0  0  0  0  0  0  0  0  0  0
   64.9730   58.2280   34.6380 O   0  0  0  0  0  0  0  0  0  0  0  0
   66.2840   58.4110   36.8230 H   0  0  0  0  0  0  0  0  0  0  0  0
  1  2  1  0  0  0  0
  1  6  2  0  0  0  0
  2  3  2  0  0  0  0
  3  4  1  0  0  0  0
  5  4  2  0  0  0  0
  5 17  1  0  0  0  0
  6  5  1  0  0  0  0
  7  2  1  0  0  0  0
  8  7  2  0  0  0  0
  9  8  1  0  0  0  0
 10  9  2  0  0  0  0
 10 11  1  0  0  0  0
 11 16  1  0  0  0  0
 12 11  2  0  0  0  0
 12 13  1  0  0  0  0
 13 14  2  0  0  0  0
 14 15  1  0  0  0  0
 16  7  1  0  0  0  0
 16 15  2  0  0  0  0
 17 18  1  0  0  0  0
 18 22  1  0  0  0  0
 19 18  2  0  0  0  0
 19 20  1  0  0  0  0
 20 21  1  0  0  0  0
 21 23  1  0  0  0  0
 22 21  2  0  0  0  0
 23 24  1  0  0  0  0
 23 30  1  0  0  0  0
 24 25  2  0  0  0  0
 25 26  1  0  0  0  0
 25 27  1  0  0  0  0
 27 28  2  0  0  0  0
 29 27  1  0  0  0  0
 29 32  1  0  0  0  0
 30 29  1  0  0  0  0
 31 30  2  0  0  0  0
M  END
>  <minimizedAffinity>
-7.45779991

$$$$

 OpenBabel03242509313D

 32 36  0  0  0  0  0  0  0  0999 V2000
   63.8490   58.2420   30.9920 C   0  0  0  0  0  3  0  0  0  0  0  0
   63.9540   57.8940   29.6380 C   0  0  0  0  0  0  0  0  0  0  0  0
   65.1350   57.2660   29.2600 C   0  0  0  0  0  3  0  0  0  0  0  0
   66.1120   57.0140   30.1600 N   0  0  0  0  0  0  0  0  0  0  0  0
   65.9560   57.3690   31.4390 C   0  0  0  0  0  0  0  0  0  0  0  0
   64.8370   57.9820   31.8700 N   0  0  0  0  0  0  0  0  0  0  0  0
   62.8120   58.2360   28.8310 C   0  0  0  0  0  0  0  0  0  0  0  0
   62.1180   59.3650   29.3150 C   0  0  0  0  0  3  0  0  0  0  0  0
   60.9970   59.8610   28.6920 C   0  0  0  0  0  3  0  0  0  0  0  0
   60.5100   59.2530   27.5490 C   0  0  0  0  0  3  0  0  0  0  0  0
   61.2000   58.1380   27.0750 C   0  0  0  0  0  0  0  0  0  0  0  0
   60.8020   57.4590   25.9460 C   0  0  0  0  0  3  0  0  0  0  0  0
   61.4790   56.3560   25.4700 C   0  0  0  0  0  3  0  0  0  0  0  0
   62.5960   55.9130   26.1450 C   0  0  0  0  0  3  0  0  0  0  0  0
   63.0150   56.5780   27.2820 C   0  0  0  0  0  3  0  0  0  0  0  0
   62.3070   57.6570   27.6990 C   0  0  0  0  0  0  0  0  0  0  0  0
   67.0790   57.0600   32.3940 C   0  0  0  0  0  2  0  0  0  0  0  0
   67.8640   58.3060   32.7110 C   0  0  0  0  0  0  0  0  0  0  0  0
   68.4410   58.5420   33.9890 C   0  0  0  0  0  3  0  0  0  0  0  0
   69.2310   60.1670   33.7210 S   0  0  0  0  0  0  0  0  0  0  0  0
   68.6640   60.2570   31.9670 C   0  0  0  0  0  0  0  0  0  0  0  0
   68.0350   59.2170   31.7860 N   0  0  0  0  0  0  0  0  0  0  0  0
   68.9460   61.3500   31.0780 N   0  0  0  0  0  0  0  0  0  0  0  0
   68.1340   62.4060   31.2390 C   0  0  0  0  0  3  0  0  0  0  0  0
   68.3250   63.5220   30.4230 C   0  0  0  0  0  0  0  0  0  0  0  0
   67.4440   64.7080   30.5760 C   0  0  0  0  0  1  0  0  0  0  0  0
   69.3500   63.4870   29.4770 C   0  0  0  0  0  0  0  0  0  0  0  0
   69.5500   64.4840   28.7210 O   0  0  0  0  0  0  0  0  0  0  0  0
   70.1140   62.3810   29.3890 N   0  0  0  0  0  0  0  0  0  0  0  0
   69.9320   61.2990   30.1770 C   0  0  0  0  0  0  0  0  0  0  0  0
   70.6300   60.2550   30.1170 O   0  0  0  0  0  0  0  0  0  0  0  0
   70.8690   62.3580   28.6890 H   0  0  0  0  0  0  0  0  0  0  0  0
  1  6  2  0  0  0  0
  2  1  1  0  0  0  0
  3  2  2  0  0  0  0
  3  4  1  0  0  0  0
  4  5  2  0  0  0  0
  5  6  1  0  0  0  0
  5 17  1  0  0  0  0
  7  8  1  0  0  0  0
  7  2  1  0  0  0  0
  9  8  2  0  0  0  0
 10  9  1  0  0  0  0
 11 10  2  0  0  0  0
 11 16  1  0  0  0  0
 12 11  1  0  0  0  0
 13 12  2  0  0  0  0
 13 14  1  0  0  0  0
 14 15  2  0  0  0  0
 15 16  1  0  0  0  0
 16  7  2  0  0  0  0
 17 18  1  0  0  0  0
 18 19  2  0  0  0  0
 20 19  1  0  0  0  0
 21 20  1  0  0  0  0
 22 21  2  0  0  0  0
 22 18  1  0  0  0  0
 23 24  1  0  0  0  0
 23 21  1  0  0  0  0
 25 26  1  0  0  0  0
 25 24  2  0  0  0  0
 27 25  1  0  0  0  0
 28 27  2  0  0  0  0
 29 27  1  0  0  0  0
 29 30  1  0  0  0  0
 30 23  1  0  0  0  0
 31 30  2  0  0  0  0
 32 29  1  0  0  0  0
M  END
>  <minimizedAffinity>
-7.38127947

$$$$
