
 OpenBabel03242509223D

 32 36  0  0  0  0  0  0  0  0999 V2000
   66.1690   57.5930   31.9040 C   0  0  0  0  0  0  0  0  0  0  0  0
   65.1860   58.1450   32.7440 C   0  0  0  0  0  3  0  0  0  0  0  0
   63.9300   58.4330   32.1870 C   0  0  0  0  0  3  0  0  0  0  0  0
   63.7270   58.1630   30.8650 N   0  0  0  0  0  0  0  0  0  0  0  0
   64.7170   57.6240   30.0840 C   0  0  0  0  0  0  0  0  0  0  0  0
   65.8980   57.3580   30.6270 N   0  0  0  0  0  0  0  0  0  0  0  0
   67.4500   57.2890   32.4340 N   0  0  0  0  0  0  0  0  0  0  0  0
   67.6260   56.1970   33.2020 C   0  0  0  0  0  3  0  0  0  0  0  0
   68.9000   55.9220   33.7150 C   0  0  0  0  0  0  0  0  0  0  0  0
   69.8690   56.8480   33.3520 C   0  0  0  0  0  0  0  0  0  0  0  0
   71.0230   56.6150   33.8070 O   0  0  0  0  0  0  0  0  0  0  0  0
   69.7140   57.9420   32.5900 N   0  0  0  0  0  0  0  0  0  0  0  0
   68.4590   58.1450   32.1280 C   0  0  0  0  0  0  0  0  0  0  0  0
   68.2770   59.1610   31.4070 O   0  0  0  0  0  0  0  0  0  0  0  0
   69.1930   54.7530   34.5620 C   0  0  0  0  0  1  0  0  0  0  0  0
   70.4930   58.5790   32.3730 H   0  0  0  0  0  0  0  0  0  0  0  0
   64.4840   57.3460   28.6680 C   0  0  0  0  0  0  0  0  0  0  0  0
   65.5110   57.1880   27.7670 C   0  0  0  0  0  3  0  0  0  0  0  0
   65.3070   56.9170   26.4150 C   0  0  0  0  0  3  0  0  0  0  0  0
   63.9930   56.8060   25.9910 C   0  0  0  0  0  3  0  0  0  0  0  0
   62.9600   56.9690   26.9070 C   0  0  0  0  0  0  0  0  0  0  0  0
   63.2310   57.2300   28.2030 N   0  0  0  0  0  0  0  0  0  0  0  0
   61.6490   56.8230   26.2820 C   0  0  0  0  0  0  0  0  0  0  0  0
   61.0130   55.6680   26.2020 N   0  0  0  0  0  0  0  0  0  0  0  0
   59.8160   55.4810   25.6430 C   0  0  0  0  0  3  0  0  0  0  0  0
   59.1220   56.5120   25.0850 N   0  0  0  0  0  0  0  0  0  0  0  0
   59.6910   57.7350   25.1160 C   0  0  0  0  0  0  0  0  0  0  0  0
   59.0050   58.7820   24.5580 C   0  0  0  0  0  3  0  0  0  0  0  0
   59.5460   60.0500   24.5670 C   0  0  0  0  0  3  0  0  0  0  0  0
   60.8010   60.2070   25.1620 C   0  0  0  0  0  3  0  0  0  0  0  0
   61.4200   59.1190   25.6940 C   0  0  0  0  0  3  0  0  0  0  0  0
   60.9270   57.8450   25.7110 C   0  0  0  0  0  0  0  0  0  0  0  0
  1  7  1  0  0  0  0
  1  2  1  0  0  0  0
  3  2  2  0  0  0  0
  4  3  1  0  0  0  0
  5  6  1  0  0  0  0
  5  4  2  0  0  0  0
  6  1  2  0  0  0  0
  7  8  1  0  0  0  0
  8  9  2  0  0  0  0
  9 15  1  0  0  0  0
 10  9  1  0  0  0  0
 10 11  2  0  0  0  0
 12 10  1  0  0  0  0
 13  7  1  0  0  0  0
 13 12  1  0  0  0  0
 14 13  2  0  0  0  0
 16 12  1  0  0  0  0
 17  5  1  0  0  0  0
 18 17  2  0  0  0  0
 19 18  1  0  0  0  0
 20 19  2  0  0  0  0
 20 21  1  0  0  0  0
 21 22  2  0  0  0  0
 22 17  1  0  0  0  0
 23 21  1  0  0  0  0
 24 23  1  0  0  0  0
 25 24  2  0  0  0  0
 26 27  2  0  0  0  0
 26 25  1  0  0  0  0
 27 32  1  0  0  0  0
 28 29  2  0  0  0  0
 28 27  1  0  0  0  0
 29 30  1  0  0  0  0
 30 31  2  0  0  0  0
 31 32  1  0  0  0  0
 32 23  2  0  0  0  0
M  END
>  <minimizedAffinity>
-7.96704769

$$$$

 OpenBabel03242509223D

 32 36  0  0  0  0  0  0  0  0999 V2000
   66.6460   57.6620   31.3000 C   0  0  0  0  0  0  0  0  0  0  0  0
   66.8790   56.5470   32.1250 C   0  0  0  0  0  3  0  0  0  0  0  0
   68.0100   56.5690   32.9570 C   0  0  0  0  0  3  0  0  0  0  0  0
   68.8220   57.6650   32.9230 N   0  0  0  0  0  0  0  0  0  0  0  0
   68.5550   58.7290   32.1000 C   0  0  0  0  0  0  0  0  0  0  0  0
   67.4820   58.6920   31.3210 N   0  0  0  0  0  0  0  0  0  0  0  0
   65.5120   57.6740   30.4460 N   0  0  0  0  0  0  0  0  0  0  0  0
   65.6310   57.3150   29.1540 C   0  0  0  0  0  3  0  0  0  0  0  0
   64.4960   57.3390   28.3330 C   0  0  0  0  0  0  0  0  0  0  0  0
   63.3360   57.7460   28.9790 C   0  0  0  0  0  0  0  0  0  0  0  0
   62.3060   57.7740   28.2530 O   0  0  0  0  0  0  0  0  0  0  0  0
   63.1990   58.1080   30.2650 N   0  0  0  0  0  0  0  0  0  0  0  0
   64.3330   58.0610   30.9990 C   0  0  0  0  0  0  0  0  0  0  0  0
   64.2400   58.3930   32.2100 O   0  0  0  0  0  0  0  0  0  0  0  0
   64.5230   56.9630   26.9090 C   0  0  0  0  0  1  0  0  0  0  0  0
   62.2950   58.4010   30.6620 H   0  0  0  0  0  0  0  0  0  0  0  0
   69.4390   59.8920   32.0720 C   0  0  0  0  0  0  0  0  0  0  0  0
   70.3680   60.1400   33.0550 C   0  0  0  0  0  3  0  0  0  0  0  0
   71.2230   61.2410   33.0400 C   0  0  0  0  0  3  0  0  0  0  0  0
   71.1070   62.1080   31.9670 C   0  0  0  0  0  3  0  0  0  0  0  0
   70.1650   61.8530   30.9760 C   0  0  0  0  0  0  0  0  0  0  0  0
   69.3690   60.7650   31.0560 N   0  0  0  0  0  0  0  0  0  0  0  0
   70.1820   62.8710   29.9310 C   0  0  0  0  0  0  0  0  0  0  0  0
   71.2620   63.5650   29.6190 N   0  0  0  0  0  0  0  0  0  0  0  0
   71.3300   64.5050   28.6740 C   0  0  0  0  0  3  0  0  0  0  0  0
   70.2450   64.8380   27.9210 N   0  0  0  0  0  0  0  0  0  0  0  0
   69.0920   64.1830   28.1670 C   0  0  0  0  0  0  0  0  0  0  0  0
   67.9900   64.5090   27.4180 C   0  0  0  0  0  3  0  0  0  0  0  0
   66.7900   63.8650   27.6330 C   0  0  0  0  0  3  0  0  0  0  0  0
   66.7570   62.8870   28.6300 C   0  0  0  0  0  3  0  0  0  0  0  0
   67.8910   62.6200   29.3320 C   0  0  0  0  0  3  0  0  0  0  0  0
   69.1020   63.2280   29.1580 C   0  0  0  0  0  0  0  0  0  0  0  0
  1  6  2  0  0  0  0
  1  2  1  0  0  0  0
  2  3  2  0  0  0  0
  4  3  1  0  0  0  0
  5  4  2  0  0  0  0
  6  5  1  0  0  0  0
  7 13  1  0  0  0  0
  7  1  1  0  0  0  0
  8  7  1  0  0  0  0
  9 10  1  0  0  0  0
  9  8  2  0  0  0  0
 10 12  1  0  0  0  0
 11 10  2  0  0  0  0
 12 16  1  0  0  0  0
 12 13  1  0  0  0  0
 13 14  2  0  0  0  0
 15  9  1  0  0  0  0
 17  5  1  0  0  0  0
 17 18  1  0  0  0  0
 19 18  2  0  0  0  0
 20 19  1  0  0  0  0
 21 22  1  0  0  0  0
 21 20  2  0  0  0  0
 22 17  2  0  0  0  0
 23 21  1  0  0  0  0
 24 23  1  0  0  0  0
 25 24  2  0  0  0  0
 26 27  2  0  0  0  0
 26 25  1  0  0  0  0
 27 32  1  0  0  0  0
 28 29  2  0  0  0  0
 28 27  1  0  0  0  0
 29 30  1  0  0  0  0
 30 31  2  0  0  0  0
 32 31  1  0  0  0  0
 32 23  2  0  0  0  0
M  END
>  <minimizedAffinity>
-7.27153683

$$$$

 OpenBabel03242509223D

 32 36  0  0  0  0  0  0  0  0999 V2000
   65.6810   58.6740   31.9500 C   0  0  0  0  0  0  0  0  0  0  0  0
   65.3020   58.2260   33.2280 C   0  0  0  0  0  3  0  0  0  0  0  0
   66.0640   58.6500   34.3280 C   0  0  0  0  0  3  0  0  0  0  0  0
   67.1300   59.4720   34.1030 N   0  0  0  0  0  0  0  0  0  0  0  0
   67.4620   59.8830   32.8370 C   0  0  0  0  0  0  0  0  0  0  0  0
   66.7310   59.4720   31.8090 N   0  0  0  0  0  0  0  0  0  0  0  0
   64.9330   58.2640   30.8150 N   0  0  0  0  0  0  0  0  0  0  0  0
   63.7640   58.8630   30.5210 C   0  0  0  0  0  3  0  0  0  0  0  0
   63.0440   58.4380   29.3970 C   0  0  0  0  0  0  0  0  0  0  0  0
   63.6500   57.4060   28.6920 C   0  0  0  0  0  0  0  0  0  0  0  0
   63.0130   57.0110   27.6780 O   0  0  0  0  0  0  0  0  0  0  0  0
   64.8120   56.7960   28.9710 N   0  0  0  0  0  0  0  0  0  0  0  0
   65.4540   57.2570   30.0680 C   0  0  0  0  0  0  0  0  0  0  0  0
   66.5500   56.7080   30.3580 O   0  0  0  0  0  0  0  0  0  0  0  0
   61.7580   59.0320   28.9910 C   0  0  0  0  0  1  0  0  0  0  0  0
   65.1880   56.0320   28.3910 H   0  0  0  0  0  0  0  0  0  0  0  0
   68.6110   60.7590   32.6130 C   0  0  0  0  0  0  0  0  0  0  0  0
   69.6890   60.7980   33.4660 C   0  0  0  0  0  3  0  0  0  0  0  0
   70.7950   61.6220   33.2640 C   0  0  0  0  0  3  0  0  0  0  0  0
   70.7750   62.4300   32.1380 C   0  0  0  0  0  3  0  0  0  0  0  0
   69.6810   62.3870   31.2810 C   0  0  0  0  0  0  0  0  0  0  0  0
   68.6440   61.5620   31.5390 N   0  0  0  0  0  0  0  0  0  0  0  0
   69.8330   63.3040   30.1560 C   0  0  0  0  0  0  0  0  0  0  0  0
   70.9410   63.9860   29.9270 N   0  0  0  0  0  0  0  0  0  0  0  0
   71.1300   64.8350   28.9150 C   0  0  0  0  0  3  0  0  0  0  0  0
   70.1540   65.0770   27.9960 N   0  0  0  0  0  0  0  0  0  0  0  0
   68.9820   64.4270   28.1470 C   0  0  0  0  0  0  0  0  0  0  0  0
   67.9900   64.6610   27.2300 C   0  0  0  0  0  3  0  0  0  0  0  0
   66.7750   64.0180   27.3430 C   0  0  0  0  0  3  0  0  0  0  0  0
   66.6140   63.1360   28.4150 C   0  0  0  0  0  3  0  0  0  0  0  0
   67.6450   62.9570   29.2840 C   0  0  0  0  0  3  0  0  0  0  0  0
   68.8650   63.5680   29.2160 C   0  0  0  0  0  0  0  0  0  0  0  0
  1  2  1  0  0  0  0
  2  3  2  0  0  0  0
  4  3  1  0  0  0  0
  5  4  2  0  0  0  0
  6  1  2  0  0  0  0
  6  5  1  0  0  0  0
  7  1  1  0  0  0  0
  8  7  1  0  0  0  0
  9  8  2  0  0  0  0
 10 12  1  0  0  0  0
 10  9  1  0  0  0  0
 11 10  2  0  0  0  0
 12 13  1  0  0  0  0
 13 14  2  0  0  0  0
 13  7  1  0  0  0  0
 15  9  1  0  0  0  0
 16 12  1  0  0  0  0
 17  5  1  0  0  0  0
 17 18  1  0  0  0  0
 19 18  2  0  0  0  0
 20 19  1  0  0  0  0
 21 22  1  0  0  0  0
 21 20  2  0  0  0  0
 22 17  2  0  0  0  0
 23 21  1  0  0  0  0
 24 23  1  0  0  0  0
 25 24  2  0  0  0  0
 26 27  2  0  0  0  0
 26 25  1  0  0  0  0
 27 32  1  0  0  0  0
 28 29  2  0  0  0  0
 28 27  1  0  0  0  0
 29 30  1  0  0  0  0
 30 31  2  0  0  0  0
 32 31  1  0  0  0  0
 32 23  2  0  0  0  0
M  END
>  <minimizedAffinity>
-6.98986387

$$$$

 OpenBabel03242509223D

 32 36  0  0  0  0  0  0  0  0999 V2000
   66.4910   58.2530   31.6710 C   0  0  0  0  0  0  0  0  0  0  0  0
   65.3940   57.4140   31.4060 C   0  0  0  0  0  3  0  0  0  0  0  0
   64.2820   57.9710   30.7540 C   0  0  0  0  0  3  0  0  0  0  0  0
   64.3220   59.2910   30.4110 N   0  0  0  0  0  0  0  0  0  0  0  0
   65.4160   60.0700   30.6910 C   0  0  0  0  0  0  0  0  0  0  0  0
   66.4570   59.5280   31.3080 N   0  0  0  0  0  0  0  0  0  0  0  0
   67.6320   57.7230   32.3300 N   0  0  0  0  0  0  0  0  0  0  0  0
   67.5090   56.6720   33.1610 C   0  0  0  0  0  3  0  0  0  0  0  0
   68.6500   56.1700   33.8000 C   0  0  0  0  0  0  0  0  0  0  0  0
   69.8200   56.8470   33.4830 C   0  0  0  0  0  0  0  0  0  0  0  0
   70.8580   56.4080   34.0520 O   0  0  0  0  0  0  0  0  0  0  0  0
   69.9630   57.8960   32.6590 N   0  0  0  0  0  0  0  0  0  0  0  0
   68.8210   58.3270   32.0760 C   0  0  0  0  0  0  0  0  0  0  0  0
   68.9180   59.3100   31.2940 O   0  0  0  0  0  0  0  0  0  0  0  0
   68.6180   55.0240   34.7250 C   0  0  0  0  0  1  0  0  0  0  0  0
   70.8750   58.3410   32.4830 H   0  0  0  0  0  0  0  0  0  0  0  0
   65.4400   61.4850   30.3220 C   0  0  0  0  0  0  0  0  0  0  0  0
   64.3140   62.2740   30.3440 C   0  0  0  0  0  3  0  0  0  0  0  0
   64.3200   63.6260   30.0020 C   0  0  0  0  0  3  0  0  0  0  0  0
   65.5380   64.1700   29.6270 C   0  0  0  0  0  3  0  0  0  0  0  0
   66.6720   63.3660   29.6060 C   0  0  0  0  0  0  0  0  0  0  0  0
   66.5920   62.0630   29.9510 N   0  0  0  0  0  0  0  0  0  0  0  0
   67.8570   64.1060   29.1850 C   0  0  0  0  0  0  0  0  0  0  0  0
   67.8250   65.3770   28.8290 N   0  0  0  0  0  0  0  0  0  0  0  0
   68.8770   66.0970   28.4370 C   0  0  0  0  0  3  0  0  0  0  0  0
   70.1260   65.5550   28.3690 N   0  0  0  0  0  0  0  0  0  0  0  0
   70.2610   64.2580   28.7130 C   0  0  0  0  0  0  0  0  0  0  0  0
   71.5110   63.6990   28.6480 C   0  0  0  0  0  3  0  0  0  0  0  0
   71.6980   62.3760   28.9900 C   0  0  0  0  0  3  0  0  0  0  0  0
   70.5720   61.6540   29.3970 C   0  0  0  0  0  3  0  0  0  0  0  0
   69.3650   62.2790   29.4340 C   0  0  0  0  0  3  0  0  0  0  0  0
   69.1270   63.5840   29.1060 C   0  0  0  0  0  0  0  0  0  0  0  0
  1  7  1  0  0  0  0
  2  1  1  0  0  0  0
  3  2  2  0  0  0  0
  4  5  2  0  0  0  0
  4  3  1  0  0  0  0
  5  6  1  0  0  0  0
  6  1  2  0  0  0  0
  7  8  1  0  0  0  0
  8  9  2  0  0  0  0
  9 15  1  0  0  0  0
 10  9  1  0  0  0  0
 10 11  2  0  0  0  0
 12 10  1  0  0  0  0
 13  7  1  0  0  0  0
 13 12  1  0  0  0  0
 14 13  2  0  0  0  0
 16 12  1  0  0  0  0
 17 18  1  0  0  0  0
 17  5  1  0  0  0  0
 19 18  2  0  0  0  0
 20 19  1  0  0  0  0
 21 20  2  0  0  0  0
 21 22  1  0  0  0  0
 22 17  2  0  0  0  0
 23 21  1  0  0  0  0
 24 23  2  0  0  0  0
 25 24  1  0  0  0  0
 26 25  2  0  0  0  0
 26 27  1  0  0  0  0
 27 32  1  0  0  0  0
 28 27  2  0  0  0  0
 28 29  1  0  0  0  0
 29 30  2  0  0  0  0
 30 31  1  0  0  0  0
 32 23  1  0  0  0  0
 32 31  2  0  0  0  0
M  END
>  <minimizedAffinity>
-6.87695694

$$$$

 OpenBabel03242509223D

 32 36  0  0  0  0  0  0  0  0999 V2000
   64.6250   58.4540   30.1450 C   0  0  0  0  0  0  0  0  0  0  0  0
   64.6190   57.6030   31.2650 C   0  0  0  0  0  3  0  0  0  0  0  0
   65.1960   58.0760   32.4540 C   0  0  0  0  0  3  0  0  0  0  0  0
   65.7310   59.3310   32.4640 N   0  0  0  0  0  0  0  0  0  0  0  0
   65.7140   60.1250   31.3460 C   0  0  0  0  0  0  0  0  0  0  0  0
   65.1660   59.6620   30.2310 N   0  0  0  0  0  0  0  0  0  0  0  0
   64.0500   58.0080   28.9260 N   0  0  0  0  0  0  0  0  0  0  0  0
   64.8120   57.3970   28.0000 C   0  0  0  0  0  3  0  0  0  0  0  0
   64.2200   56.9700   26.8040 C   0  0  0  0  0  0  0  0  0  0  0  0
   62.8600   57.2390   26.7170 C   0  0  0  0  0  0  0  0  0  0  0  0
   62.3120   56.8620   25.6450 O   0  0  0  0  0  0  0  0  0  0  0  0
   62.0850   57.8480   27.6280 N   0  0  0  0  0  0  0  0  0  0  0  0
   62.7220   58.2320   28.7570 C   0  0  0  0  0  0  0  0  0  0  0  0
   62.0240   58.8050   29.6350 O   0  0  0  0  0  0  0  0  0  0  0  0
   64.9670   56.2910   25.7320 C   0  0  0  0  0  1  0  0  0  0  0  0
   61.0790   58.0100   27.4770 H   0  0  0  0  0  0  0  0  0  0  0  0
   66.2980   61.4650   31.3730 C   0  0  0  0  0  0  0  0  0  0  0  0
   65.9170   62.4190   32.2870 C   0  0  0  0  0  3  0  0  0  0  0  0
   66.4680   63.7000   32.3300 C   0  0  0  0  0  3  0  0  0  0  0  0
   67.4450   63.9920   31.3930 C   0  0  0  0  0  3  0  0  0  0  0  0
   67.8240   63.0220   30.4710 C   0  0  0  0  0  0  0  0  0  0  0  0
   67.2480   61.8010   30.4880 N   0  0  0  0  0  0  0  0  0  0  0  0
   68.8590   63.5080   29.5640 C   0  0  0  0  0  0  0  0  0  0  0  0
   68.7640   64.6500   28.9070 N   0  0  0  0  0  0  0  0  0  0  0  0
   69.6800   65.1370   28.0670 C   0  0  0  0  0  3  0  0  0  0  0  0
   70.8380   64.4670   27.8090 N   0  0  0  0  0  0  0  0  0  0  0  0
   71.0270   63.2870   28.4340 C   0  0  0  0  0  0  0  0  0  0  0  0
   72.1870   62.6010   28.1830 C   0  0  0  0  0  3  0  0  0  0  0  0
   72.4240   61.3900   28.7990 C   0  0  0  0  0  3  0  0  0  0  0  0
   71.4430   60.9120   29.6710 C   0  0  0  0  0  3  0  0  0  0  0  0
   70.3170   61.6500   29.8680 C   0  0  0  0  0  3  0  0  0  0  0  0
   70.0360   62.8520   29.2840 C   0  0  0  0  0  0  0  0  0  0  0  0
  1  6  2  0  0  0  0
  1  2  1  0  0  0  0
  2  3  2  0  0  0  0
  3  4  1  0  0  0  0
  5 17  1  0  0  0  0
  5  4  2  0  0  0  0
  6  5  1  0  0  0  0
  7  1  1  0  0  0  0
  8  7  1  0  0  0  0
  9  8  2  0  0  0  0
 10  9  1  0  0  0  0
 10 12  1  0  0  0  0
 11 10  2  0  0  0  0
 12 13  1  0  0  0  0
 13  7  1  0  0  0  0
 13 14  2  0  0  0  0
 15  9  1  0  0  0  0
 16 12  1  0  0  0  0
 17 18  1  0  0  0  0
 18 19  2  0  0  0  0
 20 19  1  0  0  0  0
 21 22  1  0  0  0  0
 21 20  2  0  0  0  0
 22 17  2  0  0  0  0
 23 21  1  0  0  0  0
 24 23  2  0  0  0  0
 25 24  1  0  0  0  0
 26 25  2  0  0  0  0
 26 27  1  0  0  0  0
 27 32  1  0  0  0  0
 28 27  2  0  0  0  0
 28 29  1  0  0  0  0
 29 30  2  0  0  0  0
 30 31  1  0  0  0  0
 32 23  1  0  0  0  0
 32 31  2  0  0  0  0
M  END
>  <minimizedAffinity>
-6.67131758

$$$$

 OpenBabel03242509223D

 32 36  0  0  0  0  0  0  0  0999 V2000
   66.0750   57.8270   30.8000 C   0  0  0  0  0  0  0  0  0  0  0  0
   66.4960   56.6780   31.4910 C   0  0  0  0  0  3  0  0  0  0  0  0
   67.5330   56.8160   32.4290 C   0  0  0  0  0  3  0  0  0  0  0  0
   68.0750   58.0530   32.6210 N   0  0  0  0  0  0  0  0  0  0  0  0
   67.6300   59.1460   31.9230 C   0  0  0  0  0  0  0  0  0  0  0  0
   66.6510   58.9980   31.0410 N   0  0  0  0  0  0  0  0  0  0  0  0
   65.0300   57.7240   29.8450 N   0  0  0  0  0  0  0  0  0  0  0  0
   65.2970   57.3270   28.5870 C   0  0  0  0  0  3  0  0  0  0  0  0
   64.2470   57.2370   27.6630 C   0  0  0  0  0  0  0  0  0  0  0  0
   63.0050   57.5810   28.1800 C   0  0  0  0  0  0  0  0  0  0  0  0
   62.0500   57.5050   27.3600 O   0  0  0  0  0  0  0  0  0  0  0  0
   62.7200   57.9790   29.4300 N   0  0  0  0  0  0  0  0  0  0  0  0
   63.7790   58.0430   30.2680 C   0  0  0  0  0  0  0  0  0  0  0  0
   63.5470   58.4110   31.4490 O   0  0  0  0  0  0  0  0  0  0  0  0
   64.4380   56.8120   26.2660 C   0  0  0  0  0  1  0  0  0  0  0  0
   61.7630   58.2190   29.7280 H   0  0  0  0  0  0  0  0  0  0  0  0
   68.2270   60.4640   32.1380 C   0  0  0  0  0  0  0  0  0  0  0  0
   68.8250   60.8200   33.3240 C   0  0  0  0  0  3  0  0  0  0  0  0
   69.4040   62.0690   33.5430 C   0  0  0  0  0  3  0  0  0  0  0  0
   69.3590   62.9720   32.4930 C   0  0  0  0  0  3  0  0  0  0  0  0
   68.7520   62.6050   31.2980 C   0  0  0  0  0  0  0  0  0  0  0  0
   68.2110   61.3760   31.1550 N   0  0  0  0  0  0  0  0  0  0  0  0
   68.7960   63.6800   30.3110 C   0  0  0  0  0  0  0  0  0  0  0  0
   67.8690   64.6170   30.2250 N   0  0  0  0  0  0  0  0  0  0  0  0
   67.8630   65.6190   29.3440 C   0  0  0  0  0  3  0  0  0  0  0  0
   68.8550   65.7630   28.4210 N   0  0  0  0  0  0  0  0  0  0  0  0
   69.8490   64.8520   28.4300 C   0  0  0  0  0  0  0  0  0  0  0  0
   70.8550   64.9830   27.5060 C   0  0  0  0  0  3  0  0  0  0  0  0
   71.8920   64.0750   27.4770 C   0  0  0  0  0  3  0  0  0  0  0  0
   71.8650   63.0400   28.4150 C   0  0  0  0  0  3  0  0  0  0  0  0
   70.8330   62.9760   29.2990 C   0  0  0  0  0  3  0  0  0  0  0  0
   69.7830   63.8490   29.3690 C   0  0  0  0  0  0  0  0  0  0  0  0
  1  6  2  0  0  0  0
  1  2  1  0  0  0  0
  2  3  2  0  0  0  0
  3  4  1  0  0  0  0
  5 17  1  0  0  0  0
  5  4  2  0  0  0  0
  6  5  1  0  0  0  0
  7 13  1  0  0  0  0
  7  1  1  0  0  0  0
  8  7  1  0  0  0  0
  9 10  1  0  0  0  0
  9  8  2  0  0  0  0
 10 12  1  0  0  0  0
 11 10  2  0  0  0  0
 12 16  1  0  0  0  0
 12 13  1  0  0  0  0
 13 14  2  0  0  0  0
 15  9  1  0  0  0  0
 17 18  1  0  0  0  0
 18 19  2  0  0  0  0
 20 19  1  0  0  0  0
 21 20  2  0  0  0  0
 22 21  1  0  0  0  0
 22 17  2  0  0  0  0
 23 21  1  0  0  0  0
 24 23  1  0  0  0  0
 25 24  2  0  0  0  0
 26 27  2  0  0  0  0
 26 25  1  0  0  0  0
 27 32  1  0  0  0  0
 28 27  1  0  0  0  0
 29 28  2  0  0  0  0
 29 30  1  0  0  0  0
 30 31  2  0  0  0  0
 31 32  1  0  0  0  0
 32 23  2  0  0  0  0
M  END
>  <minimizedAffinity>
-6.56635904

$$$$

 OpenBabel03242509223D

 32 36  0  0  0  0  0  0  0  0999 V2000
   65.6630   58.7470   31.8830 C   0  0  0  0  0  0  0  0  0  0  0  0
   65.3450   58.2590   33.1620 C   0  0  0  0  0  3  0  0  0  0  0  0
   66.1240   58.6960   34.2460 C   0  0  0  0  0  3  0  0  0  0  0  0
   67.1440   59.5690   34.0040 N   0  0  0  0  0  0  0  0  0  0  0  0
   67.4160   60.0180   32.7370 C   0  0  0  0  0  0  0  0  0  0  0  0
   66.6710   59.5940   31.7250 N   0  0  0  0  0  0  0  0  0  0  0  0
   64.8970   58.3260   30.7640 N   0  0  0  0  0  0  0  0  0  0  0  0
   63.7270   58.9260   30.4780 C   0  0  0  0  0  3  0  0  0  0  0  0
   62.9890   58.4890   29.3700 C   0  0  0  0  0  0  0  0  0  0  0  0
   63.5800   57.4450   28.6710 C   0  0  0  0  0  0  0  0  0  0  0  0
   62.9280   57.0390   27.6710 O   0  0  0  0  0  0  0  0  0  0  0  0
   64.7440   56.8330   28.9410 N   0  0  0  0  0  0  0  0  0  0  0  0
   65.4030   57.3070   30.0230 C   0  0  0  0  0  0  0  0  0  0  0  0
   66.5000   56.7570   30.3050 O   0  0  0  0  0  0  0  0  0  0  0  0
   61.7000   59.0830   28.9740 C   0  0  0  0  0  1  0  0  0  0  0  0
   65.1080   56.0600   28.3670 H   0  0  0  0  0  0  0  0  0  0  0  0
   68.5170   60.9490   32.4950 C   0  0  0  0  0  0  0  0  0  0  0  0
   69.7050   60.8860   33.1850 C   0  0  0  0  0  3  0  0  0  0  0  0
   70.7670   61.7610   32.9620 C   0  0  0  0  0  3  0  0  0  0  0  0
   70.5840   62.7300   31.9890 C   0  0  0  0  0  3  0  0  0  0  0  0
   69.3800   62.7900   31.2970 C   0  0  0  0  0  0  0  0  0  0  0  0
   68.3940   61.9080   31.5650 N   0  0  0  0  0  0  0  0  0  0  0  0
   69.3670   63.8720   30.3170 C   0  0  0  0  0  0  0  0  0  0  0  0
   68.4880   64.8580   30.3440 N   0  0  0  0  0  0  0  0  0  0  0  0
   68.4330   65.8690   29.4750 C   0  0  0  0  0  3  0  0  0  0  0  0
   69.3190   65.9710   28.4450 N   0  0  0  0  0  0  0  0  0  0  0  0
   70.2560   65.0080   28.3320 C   0  0  0  0  0  0  0  0  0  0  0  0
   71.1540   65.0970   27.2990 C   0  0  0  0  0  3  0  0  0  0  0  0
   72.1300   64.1360   27.1440 C   0  0  0  0  0  3  0  0  0  0  0  0
   72.1570   63.0930   28.0740 C   0  0  0  0  0  3  0  0  0  0  0  0
   71.2320   63.0730   29.0710 C   0  0  0  0  0  3  0  0  0  0  0  0
   70.2460   63.9990   29.2680 C   0  0  0  0  0  0  0  0  0  0  0  0
  1  2  1  0  0  0  0
  2  3  2  0  0  0  0
  4  3  1  0  0  0  0
  5  4  2  0  0  0  0
  6  1  2  0  0  0  0
  6  5  1  0  0  0  0
  7  1  1  0  0  0  0
  8  7  1  0  0  0  0
  9  8  2  0  0  0  0
 10 12  1  0  0  0  0
 10  9  1  0  0  0  0
 11 10  2  0  0  0  0
 12 13  1  0  0  0  0
 13 14  2  0  0  0  0
 13  7  1  0  0  0  0
 15  9  1  0  0  0  0
 16 12  1  0  0  0  0
 17  5  1  0  0  0  0
 17 18  1  0  0  0  0
 19 18  2  0  0  0  0
 20 19  1  0  0  0  0
 21 22  1  0  0  0  0
 21 20  2  0  0  0  0
 22 17  2  0  0  0  0
 23 24  1  0  0  0  0
 23 21  1  0  0  0  0
 25 24  2  0  0  0  0
 26 25  1  0  0  0  0
 27 26  2  0  0  0  0
 27 32  1  0  0  0  0
 28 27  1  0  0  0  0
 29 28  2  0  0  0  0
 29 30  1  0  0  0  0
 30 31  2  0  0  0  0
 31 32  1  0  0  0  0
 32 23  2  0  0  0  0
M  END
>  <minimizedAffinity>
-6.55832243

$$$$

 OpenBabel03242509223D

 32 36  0  0  0  0  0  0  0  0999 V2000
   65.3690   58.7000   32.0450 C   0  0  0  0  0  0  0  0  0  0  0  0
   65.3860   57.8560   33.1690 C   0  0  0  0  0  3  0  0  0  0  0  0
   65.9360   58.3580   34.3610 C   0  0  0  0  0  3  0  0  0  0  0  0
   66.4220   59.6330   34.3670 N   0  0  0  0  0  0  0  0  0  0  0  0
   66.3830   60.4190   33.2440 C   0  0  0  0  0  0  0  0  0  0  0  0
   65.8610   59.9300   32.1270 N   0  0  0  0  0  0  0  0  0  0  0  0
   64.8210   58.2260   30.8240 N   0  0  0  0  0  0  0  0  0  0  0  0
   63.6250   58.6730   30.3970 C   0  0  0  0  0  3  0  0  0  0  0  0
   63.1070   58.1870   29.1910 C   0  0  0  0  0  0  0  0  0  0  0  0
   63.9250   57.2640   28.5530 C   0  0  0  0  0  0  0  0  0  0  0  0
   63.4710   56.8150   27.4650 O   0  0  0  0  0  0  0  0  0  0  0  0
   65.1180   56.8050   28.9620 N   0  0  0  0  0  0  0  0  0  0  0  0
   65.5580   57.3180   30.1340 C   0  0  0  0  0  0  0  0  0  0  0  0
   66.6760   56.9110   30.5470 O   0  0  0  0  0  0  0  0  0  0  0  0
   61.8090   58.6150   28.6400 C   0  0  0  0  0  1  0  0  0  0  0  0
   65.6580   56.1140   28.4230 H   0  0  0  0  0  0  0  0  0  0  0  0
   66.9140   61.7810   33.2670 C   0  0  0  0  0  0  0  0  0  0  0  0
   66.8040   62.6000   34.3670 C   0  0  0  0  0  3  0  0  0  0  0  0
   67.3090   63.8980   34.4080 C   0  0  0  0  0  3  0  0  0  0  0  0
   67.9500   64.3550   33.2680 C   0  0  0  0  0  3  0  0  0  0  0  0
   68.0570   63.5230   32.1600 C   0  0  0  0  0  0  0  0  0  0  0  0
   67.5430   62.2750   32.1910 N   0  0  0  0  0  0  0  0  0  0  0  0
   68.7570   64.1720   31.0550 C   0  0  0  0  0  0  0  0  0  0  0  0
   69.9140   64.7930   31.2000 N   0  0  0  0  0  0  0  0  0  0  0  0
   70.5920   65.4010   30.2260 C   0  0  0  0  0  3  0  0  0  0  0  0
   70.1270   65.4310   28.9450 N   0  0  0  0  0  0  0  0  0  0  0  0
   68.9490   64.8230   28.6970 C   0  0  0  0  0  0  0  0  0  0  0  0
   68.4670   64.8470   27.4130 C   0  0  0  0  0  3  0  0  0  0  0  0
   67.2670   64.2380   27.1110 C   0  0  0  0  0  3  0  0  0  0  0  0
   66.5850   63.6120   28.1580 C   0  0  0  0  0  3  0  0  0  0  0  0
   67.1270   63.6320   29.4050 C   0  0  0  0  0  3  0  0  0  0  0  0
   68.3100   64.2200   29.7550 C   0  0  0  0  0  0  0  0  0  0  0  0
  1  6  2  0  0  0  0
  1  2  1  0  0  0  0
  2  3  2  0  0  0  0
  3  4  1  0  0  0  0
  5 17  1  0  0  0  0
  5  4  2  0  0  0  0
  6  5  1  0  0  0  0
  7  1  1  0  0  0  0
  8  7  1  0  0  0  0
  9  8  2  0  0  0  0
 10 12  1  0  0  0  0
 10  9  1  0  0  0  0
 11 10  2  0  0  0  0
 12 13  1  0  0  0  0
 13 14  2  0  0  0  0
 13  7  1  0  0  0  0
 15  9  1  0  0  0  0
 16 12  1  0  0  0  0
 17 18  1  0  0  0  0
 18 19  2  0  0  0  0
 20 19  1  0  0  0  0
 21 22  1  0  0  0  0
 21 20  2  0  0  0  0
 22 17  2  0  0  0  0
 23 24  1  0  0  0  0
 23 21  1  0  0  0  0
 25 24  2  0  0  0  0
 26 25  1  0  0  0  0
 27 26  2  0  0  0  0
 27 32  1  0  0  0  0
 28 27  1  0  0  0  0
 29 28  2  0  0  0  0
 29 30  1  0  0  0  0
 30 31  2  0  0  0  0
 31 32  1  0  0  0  0
 32 23  2  0  0  0  0
M  END
>  <minimizedAffinity>
-6.49098969

$$$$

 OpenBabel03242509223D

 32 36  0  0  0  0  0  0  0  0999 V2000
   64.4900   58.5440   30.4400 C   0  0  0  0  0  0  0  0  0  0  0  0
   64.2470   57.8610   31.6440 C   0  0  0  0  0  3  0  0  0  0  0  0
   64.9040   58.3120   32.8010 C   0  0  0  0  0  3  0  0  0  0  0  0
   65.7390   59.3850   32.6990 N   0  0  0  0  0  0  0  0  0  0  0  0
   65.9450   60.0200   31.5010 C   0  0  0  0  0  0  0  0  0  0  0  0
   65.3180   59.5810   30.4180 N   0  0  0  0  0  0  0  0  0  0  0  0
   63.8440   58.1150   29.2510 N   0  0  0  0  0  0  0  0  0  0  0  0
   62.6310   58.6010   28.9250 C   0  0  0  0  0  3  0  0  0  0  0  0
   62.0140   58.1590   27.7470 C   0  0  0  0  0  0  0  0  0  0  0  0
   62.7610   57.2350   27.0280 C   0  0  0  0  0  0  0  0  0  0  0  0
   62.2180   56.8260   25.9650 O   0  0  0  0  0  0  0  0  0  0  0  0
   63.9690   56.7390   27.3370 N   0  0  0  0  0  0  0  0  0  0  0  0
   64.5060   57.2100   28.4860 C   0  0  0  0  0  0  0  0  0  0  0  0
   65.6400   56.7670   28.8060 O   0  0  0  0  0  0  0  0  0  0  0  0
   60.6910   58.6310   27.3040 C   0  0  0  0  0  1  0  0  0  0  0  0
   64.4520   56.0500   26.7430 H   0  0  0  0  0  0  0  0  0  0  0  0
   66.8490   61.1650   31.4080 C   0  0  0  0  0  0  0  0  0  0  0  0
   66.6040   62.3550   32.0510 C   0  0  0  0  0  3  0  0  0  0  0  0
   67.4580   63.4550   31.9780 C   0  0  0  0  0  3  0  0  0  0  0  0
   68.6030   63.3070   31.2120 C   0  0  0  0  0  3  0  0  0  0  0  0
   68.8440   62.1010   30.5640 C   0  0  0  0  0  0  0  0  0  0  0  0
   67.9720   61.0770   30.6790 N   0  0  0  0  0  0  0  0  0  0  0  0
   70.0900   62.1300   29.8040 C   0  0  0  0  0  0  0  0  0  0  0  0
   70.9870   61.1620   29.8530 N   0  0  0  0  0  0  0  0  0  0  0  0
   72.1390   61.1410   29.1800 C   0  0  0  0  0  3  0  0  0  0  0  0
   72.4990   62.1600   28.3510 N   0  0  0  0  0  0  0  0  0  0  0  0
   71.6460   63.1980   28.2350 C   0  0  0  0  0  0  0  0  0  0  0  0
   71.9950   64.2330   27.4050 C   0  0  0  0  0  3  0  0  0  0  0  0
   71.1550   65.3150   27.2540 C   0  0  0  0  0  3  0  0  0  0  0  0
   69.9570   65.3020   27.9750 C   0  0  0  0  0  3  0  0  0  0  0  0
   69.6810   64.2400   28.7790 C   0  0  0  0  0  3  0  0  0  0  0  0
   70.4790   63.1460   28.9620 C   0  0  0  0  0  0  0  0  0  0  0  0
  1  2  1  0  0  0  0
  2  3  2  0  0  0  0
  4  3  1  0  0  0  0
  5  4  2  0  0  0  0
  6  1  2  0  0  0  0
  6  5  1  0  0  0  0
  7  1  1  0  0  0  0
  8  7  1  0  0  0  0
  9  8  2  0  0  0  0
 10 12  1  0  0  0  0
 10  9  1  0  0  0  0
 11 10  2  0  0  0  0
 12 13  1  0  0  0  0
 13 14  2  0  0  0  0
 13  7  1  0  0  0  0
 15  9  1  0  0  0  0
 16 12  1  0  0  0  0
 17  5  1  0  0  0  0
 17 18  1  0  0  0  0
 19 18  2  0  0  0  0
 20 19  1  0  0  0  0
 21 22  1  0  0  0  0
 21 20  2  0  0  0  0
 22 17  2  0  0  0  0
 23 24  1  0  0  0  0
 23 21  1  0  0  0  0
 25 24  2  0  0  0  0
 26 25  1  0  0  0  0
 27 26  2  0  0  0  0
 27 32  1  0  0  0  0
 28 27  1  0  0  0  0
 29 28  2  0  0  0  0
 29 30  1  0  0  0  0
 30 31  2  0  0  0  0
 31 32  1  0  0  0  0
 32 23  2  0  0  0  0
M  END
>  <minimizedAffinity>
-6.47761106

$$$$
