
 OpenBabel03242509233D

 32 37  0  0  0  0  0  0  0  0999 V2000
   63.6060   57.0090   27.9220 C   0  0  0  0  0  3  0  0  0  0  0  0
   62.3640   57.6170   27.7280 C   0  0  0  0  0  0  0  0  0  0  0  0
   61.9420   58.5470   28.6900 C   0  0  0  0  0  3  0  0  0  0  0  0
   62.7680   58.8020   29.7540 N   0  0  0  0  0  0  0  0  0  0  0  0
   63.9460   58.1980   29.8970 C   0  0  0  0  0  0  0  0  0  0  0  0
   64.3720   57.3020   28.9880 N   0  0  0  0  0  0  0  0  0  0  0  0
   61.5840   57.2800   26.5900 C   0  0  0  0  0  0  0  0  0  0  0  0
   61.2260   55.9650   26.2360 C   0  0  0  0  0  3  0  0  0  0  0  0
   60.4810   56.0040   25.0950 N   0  0  0  0  0  0  0  0  0  0  0  0
   60.3520   57.2920   24.7090 C   0  0  0  0  0  0  0  0  0  0  0  0
   59.6940   57.8680   23.6260 C   0  0  0  0  0  3  0  0  0  0  0  0
   59.7110   59.2490   23.4510 C   0  0  0  0  0  3  0  0  0  0  0  0
   60.3880   60.0360   24.3670 C   0  0  0  0  0  3  0  0  0  0  0  0
   61.0150   59.4150   25.4130 C   0  0  0  0  0  3  0  0  0  0  0  0
   61.0260   58.0670   25.6260 C   0  0  0  0  0  0  0  0  0  0  0  0
   60.0830   55.1880   24.6080 H   0  0  0  0  0  0  0  0  0  0  0  0
   64.7640   58.5390   31.0730 C   0  0  0  0  0  2  0  0  0  0  0  0
   65.4050   59.8640   30.8250 C   0  0  0  0  0  0  0  0  0  0  0  0
   65.4840   60.7940   31.8710 C   0  0  0  0  0  3  0  0  0  0  0  0
   66.1090   61.9130   31.3880 C   0  0  0  0  0  3  0  0  0  0  0  0
   66.3940   61.6720   30.1100 N   0  0  0  0  0  0  0  0  0  0  0  0
   65.9710   60.4420   29.7780 N   0  0  0  0  0  0  0  0  0  0  0  0
   67.0490   62.5910   29.2430 C   0  0  0  0  0  0  0  0  0  0  0  0
   66.3410   63.4330   28.4070 C   0  0  0  0  0  3  0  0  0  0  0  0
   66.8790   64.3540   27.5350 C   0  0  0  0  0  3  0  0  0  0  0  0
   68.2550   64.4350   27.5040 C   0  0  0  0  0  3  0  0  0  0  0  0
   69.0230   63.6220   28.3140 C   0  0  0  0  0  0  0  0  0  0  0  0
   70.3990   63.7150   28.2720 C   0  0  0  0  0  3  0  0  0  0  0  0
   71.2270   62.9360   29.0510 C   0  0  0  0  0  3  0  0  0  0  0  0
   70.5980   62.0270   29.9090 C   0  0  0  0  0  3  0  0  0  0  0  0
   69.2050   61.9140   29.9710 C   0  0  0  0  0  3  0  0  0  0  0  0
   68.4280   62.7200   29.1660 C   0  0  0  0  0  0  0  0  0  0  0  0
  1  6  2  0  0  0  0
  2  1  1  0  0  0  0
  2  3  2  0  0  0  0
  3  4  1  0  0  0  0
  4  5  2  0  0  0  0
  5 17  1  0  0  0  0
  6  5  1  0  0  0  0
  7  2  1  0  0  0  0
  8  7  2  0  0  0  0
  9  8  1  0  0  0  0
 10  9  1  0  0  0  0
 10 15  1  0  0  0  0
 11 10  2  0  0  0  0
 12 11  1  0  0  0  0
 12 13  2  0  0  0  0
 13 14  1  0  0  0  0
 14 15  2  0  0  0  0
 15  7  1  0  0  0  0
 16  9  1  0  0  0  0
 18 17  1  0  0  0  0
 18 19  1  0  0  0  0
 20 19  2  0  0  0  0
 21 20  1  0  0  0  0
 22 21  1  0  0  0  0
 22 18  2  0  0  0  0
 23 21  1  0  0  0  0
 24 23  2  0  0  0  0
 25 24  1  0  0  0  0
 26 25  2  0  0  0  0
 26 27  1  0  0  0  0
 27 32  1  0  0  0  0
 28 27  2  0  0  0  0
 28 29  1  0  0  0  0
 29 30  2  0  0  0  0
 30 31  1  0  0  0  0
 32 23  1  0  0  0  0
 32 31  2  0  0  0  0
M  END
>  <minimizedAffinity>
-8.1556654

$$$$

 OpenBabel03242509233D

 32 37  0  0  0  0  0  0  0  0999 V2000
   62.3870   57.0100   28.4610 C   0  0  0  0  0  3  0  0  0  0  0  0
   62.6940   57.0270   27.0990 C   0  0  0  0  0  0  0  0  0  0  0  0
   64.0450   57.1440   26.7420 C   0  0  0  0  0  3  0  0  0  0  0  0
   64.9770   57.2320   27.7440 N   0  0  0  0  0  0  0  0  0  0  0  0
   64.6380   57.2110   29.0310 C   0  0  0  0  0  0  0  0  0  0  0  0
   63.3480   57.1010   29.3980 N   0  0  0  0  0  0  0  0  0  0  0  0
   61.6500   56.9300   26.1400 C   0  0  0  0  0  0  0  0  0  0  0  0
   60.9310   55.7500   25.8680 C   0  0  0  0  0  3  0  0  0  0  0  0
   60.0090   56.0110   24.8980 N   0  0  0  0  0  0  0  0  0  0  0  0
   60.1140   57.3100   24.5430 C   0  0  0  0  0  0  0  0  0  0  0  0
   59.4120   58.0700   23.6100 C   0  0  0  0  0  3  0  0  0  0  0  0
   59.7200   59.4160   23.4320 C   0  0  0  0  0  3  0  0  0  0  0  0
   60.7270   59.9840   24.1930 C   0  0  0  0  0  3  0  0  0  0  0  0
   61.3820   59.1890   25.0950 C   0  0  0  0  0  3  0  0  0  0  0  0
   61.1160   57.8670   25.3040 C   0  0  0  0  0  0  0  0  0  0  0  0
   59.3440   55.3320   24.5020 H   0  0  0  0  0  0  0  0  0  0  0  0
   65.7100   57.3110   30.0350 C   0  0  0  0  0  2  0  0  0  0  0  0
   65.8090   58.7350   30.4700 C   0  0  0  0  0  0  0  0  0  0  0  0
   66.4530   59.0410   31.6760 C   0  0  0  0  0  3  0  0  0  0  0  0
   66.4080   60.4000   31.8420 C   0  0  0  0  0  3  0  0  0  0  0  0
   65.7650   60.8940   30.7850 N   0  0  0  0  0  0  0  0  0  0  0  0
   65.4090   59.8920   29.9660 N   0  0  0  0  0  0  0  0  0  0  0  0
   65.5050   62.2760   30.5740 C   0  0  0  0  0  0  0  0  0  0  0  0
   64.4680   62.9270   31.2130 C   0  0  0  0  0  3  0  0  0  0  0  0
   64.1350   64.2580   31.0770 C   0  0  0  0  0  3  0  0  0  0  0  0
   64.9200   64.9990   30.2190 C   0  0  0  0  0  3  0  0  0  0  0  0
   65.9740   64.4100   29.5480 C   0  0  0  0  0  0  0  0  0  0  0  0
   66.7500   65.1650   28.6940 C   0  0  0  0  0  3  0  0  0  0  0  0
   67.8160   64.6440   27.9920 C   0  0  0  0  0  3  0  0  0  0  0  0
   68.0850   63.2850   28.1890 C   0  0  0  0  0  3  0  0  0  0  0  0
   67.3130   62.4980   29.0500 C   0  0  0  0  0  3  0  0  0  0  0  0
   66.2580   63.0750   29.7250 C   0  0  0  0  0  0  0  0  0  0  0  0
  1  6  2  0  0  0  0
  2  1  1  0  0  0  0
  3  2  2  0  0  0  0
  3  4  1  0  0  0  0
  4  5  2  0  0  0  0
  5  6  1  0  0  0  0
  5 17  1  0  0  0  0
  7  2  1  0  0  0  0
  8  7  2  0  0  0  0
  9  8  1  0  0  0  0
 10  9  1  0  0  0  0
 10 15  1  0  0  0  0
 11 10  2  0  0  0  0
 12 11  1  0  0  0  0
 12 13  2  0  0  0  0
 13 14  1  0  0  0  0
 14 15  2  0  0  0  0
 15  7  1  0  0  0  0
 16  9  1  0  0  0  0
 17 18  1  0  0  0  0
 18 19  1  0  0  0  0
 19 20  2  0  0  0  0
 21 20  1  0  0  0  0
 22 18  2  0  0  0  0
 22 21  1  0  0  0  0
 23 21  1  0  0  0  0
 23 24  1  0  0  0  0
 25 24  2  0  0  0  0
 26 25  1  0  0  0  0
 27 32  1  0  0  0  0
 27 26  2  0  0  0  0
 28 27  1  0  0  0  0
 29 30  1  0  0  0  0
 29 28  2  0  0  0  0
 30 31  2  0  0  0  0
 31 32  1  0  0  0  0
 32 23  2  0  0  0  0
M  END
>  <minimizedAffinity>
-8.15203953

$$$$

 OpenBabel03242509233D

 32 37  0  0  0  0  0  0  0  0999 V2000
   61.9410   58.2360   28.5470 C   0  0  0  0  0  3  0  0  0  0  0  0
   62.3800   57.4810   27.4580 C   0  0  0  0  0  0  0  0  0  0  0  0
   63.6510   56.8930   27.5480 C   0  0  0  0  0  3  0  0  0  0  0  0
   64.3800   57.0940   28.6920 N   0  0  0  0  0  0  0  0  0  0  0  0
   63.9200   57.8220   29.7070 C   0  0  0  0  0  0  0  0  0  0  0  0
   62.7050   58.3960   29.6430 N   0  0  0  0  0  0  0  0  0  0  0  0
   61.5460   57.3370   26.3180 C   0  0  0  0  0  0  0  0  0  0  0  0
   61.1810   56.0980   25.7540 C   0  0  0  0  0  3  0  0  0  0  0  0
   60.3780   56.3250   24.6760 N   0  0  0  0  0  0  0  0  0  0  0  0
   60.2180   57.6590   24.5310 C   0  0  0  0  0  0  0  0  0  0  0  0
   59.5010   58.4050   23.6000 C   0  0  0  0  0  3  0  0  0  0  0  0
   59.4980   59.7960   23.6730 C   0  0  0  0  0  3  0  0  0  0  0  0
   60.2140   60.4210   24.6790 C   0  0  0  0  0  3  0  0  0  0  0  0
   60.8990   59.6350   25.5670 C   0  0  0  0  0  3  0  0  0  0  0  0
   60.9320   58.2710   25.5360 C   0  0  0  0  0  0  0  0  0  0  0  0
   59.9630   55.6020   24.0720 H   0  0  0  0  0  0  0  0  0  0  0  0
   64.7760   57.9790   30.8950 C   0  0  0  0  0  2  0  0  0  0  0  0
   65.5230   59.2650   30.7630 C   0  0  0  0  0  0  0  0  0  0  0  0
   66.6670   59.4770   31.5440 C   0  0  0  0  0  3  0  0  0  0  0  0
   67.1590   60.7180   31.2360 C   0  0  0  0  0  3  0  0  0  0  0  0
   66.3490   61.2330   30.3130 N   0  0  0  0  0  0  0  0  0  0  0  0
   65.3710   60.3590   30.0320 N   0  0  0  0  0  0  0  0  0  0  0  0
   66.5130   62.5180   29.7240 C   0  0  0  0  0  0  0  0  0  0  0  0
   67.3280   62.7170   28.6280 C   0  0  0  0  0  3  0  0  0  0  0  0
   67.5520   63.9170   27.9870 C   0  0  0  0  0  3  0  0  0  0  0  0
   66.8930   65.0140   28.4980 C   0  0  0  0  0  3  0  0  0  0  0  0
   66.0610   64.8850   29.5930 C   0  0  0  0  0  0  0  0  0  0  0  0
   65.4070   65.9930   30.0920 C   0  0  0  0  0  3  0  0  0  0  0  0
   64.5630   65.9380   31.1810 C   0  0  0  0  0  3  0  0  0  0  0  0
   64.3920   64.6810   31.7710 C   0  0  0  0  0  3  0  0  0  0  0  0
   65.0430   63.5430   31.2830 C   0  0  0  0  0  3  0  0  0  0  0  0
   65.8770   63.6600   30.1910 C   0  0  0  0  0  0  0  0  0  0  0  0
  1  6  2  0  0  0  0
  2  3  2  0  0  0  0
  2  1  1  0  0  0  0
  3  4  1  0  0  0  0
  4  5  2  0  0  0  0
  5 17  1  0  0  0  0
  6  5  1  0  0  0  0
  7  2  1  0  0  0  0
  8  7  2  0  0  0  0
  9  8  1  0  0  0  0
 10  9  1  0  0  0  0
 10 15  1  0  0  0  0
 11 12  1  0  0  0  0
 11 10  2  0  0  0  0
 12 13  2  0  0  0  0
 13 14  1  0  0  0  0
 15 14  2  0  0  0  0
 15  7  1  0  0  0  0
 16  9  1  0  0  0  0
 18 17  1  0  0  0  0
 18 19  1  0  0  0  0
 20 19  2  0  0  0  0
 21 20  1  0  0  0  0
 22 21  1  0  0  0  0
 22 18  2  0  0  0  0
 23 32  1  0  0  0  0
 23 21  1  0  0  0  0
 24 23  2  0  0  0  0
 25 26  2  0  0  0  0
 25 24  1  0  0  0  0
 26 27  1  0  0  0  0
 27 28  2  0  0  0  0
 27 32  1  0  0  0  0
 28 29  1  0  0  0  0
 29 30  2  0  0  0  0
 31 30  1  0  0  0  0
 32 31  2  0  0  0  0
M  END
>  <minimizedAffinity>
-7.58850718

$$$$

 OpenBabel03242509233D

 32 37  0  0  0  0  0  0  0  0999 V2000
   64.6340   61.3150   30.2600 C   0  0  0  0  0  3  0  0  0  0  0  0
   65.9610   61.5110   30.6490 C   0  0  0  0  0  0  0  0  0  0  0  0
   66.7020   60.3770   31.0130 C   0  0  0  0  0  3  0  0  0  0  0  0
   66.0850   59.1540   30.9630 N   0  0  0  0  0  0  0  0  0  0  0  0
   64.8170   59.0150   30.5840 C   0  0  0  0  0  0  0  0  0  0  0  0
   64.0850   60.0880   30.2320 N   0  0  0  0  0  0  0  0  0  0  0  0
   66.5040   62.8230   30.6670 C   0  0  0  0  0  0  0  0  0  0  0  0
   66.6940   63.5870   31.8350 C   0  0  0  0  0  3  0  0  0  0  0  0
   67.2310   64.7920   31.4910 N   0  0  0  0  0  0  0  0  0  0  0  0
   67.3900   64.8240   30.1500 C   0  0  0  0  0  0  0  0  0  0  0  0
   67.8930   65.8110   29.3050 C   0  0  0  0  0  3  0  0  0  0  0  0
   67.9520   65.5910   27.9320 C   0  0  0  0  0  3  0  0  0  0  0  0
   67.5060   64.3840   27.4220 C   0  0  0  0  0  3  0  0  0  0  0  0
   67.0230   63.4510   28.3000 C   0  0  0  0  0  3  0  0  0  0  0  0
   66.9460   63.6210   29.6520 C   0  0  0  0  0  0  0  0  0  0  0  0
   67.4750   65.5500   32.1430 H   0  0  0  0  0  0  0  0  0  0  0  0
   64.2410   57.6590   30.5620 C   0  0  0  0  0  2  0  0  0  0  0  0
   63.6920   57.4100   29.1960 C   0  0  0  0  0  0  0  0  0  0  0  0
   64.5740   57.2750   28.1160 C   0  0  0  0  0  3  0  0  0  0  0  0
   63.8260   57.0550   26.9900 C   0  0  0  0  0  3  0  0  0  0  0  0
   62.5500   57.0590   27.3710 N   0  0  0  0  0  0  0  0  0  0  0  0
   62.4750   57.2710   28.6940 N   0  0  0  0  0  0  0  0  0  0  0  0
   61.4460   56.8650   26.4940 C   0  0  0  0  0  0  0  0  0  0  0  0
   60.9720   55.6040   26.1900 C   0  0  0  0  0  3  0  0  0  0  0  0
   59.9140   55.3110   25.3570 C   0  0  0  0  0  3  0  0  0  0  0  0
   59.2760   56.3880   24.7790 C   0  0  0  0  0  3  0  0  0  0  0  0
   59.6980   57.6760   25.0410 C   0  0  0  0  0  0  0  0  0  0  0  0
   59.0490   58.7430   24.4560 C   0  0  0  0  0  3  0  0  0  0  0  0
   59.4160   60.0540   24.6720 C   0  0  0  0  0  3  0  0  0  0  0  0
   60.5000   60.2620   25.5320 C   0  0  0  0  0  3  0  0  0  0  0  0
   61.1750   59.1970   26.1380 C   0  0  0  0  0  3  0  0  0  0  0  0
   60.7620   57.9060   25.8830 C   0  0  0  0  0  0  0  0  0  0  0  0
  1  2  1  0  0  0  0
  2  7  1  0  0  0  0
  2  3  2  0  0  0  0
  4  3  1  0  0  0  0
  5  4  2  0  0  0  0
  6  1  2  0  0  0  0
  6  5  1  0  0  0  0
  7  8  2  0  0  0  0
  9  8  1  0  0  0  0
  9 16  1  0  0  0  0
 10  9  1  0  0  0  0
 11 10  2  0  0  0  0
 12 11  1  0  0  0  0
 13 12  2  0  0  0  0
 13 14  1  0  0  0  0
 14 15  2  0  0  0  0
 15 10  1  0  0  0  0
 15  7  1  0  0  0  0
 17  5  1  0  0  0  0
 18 17  1  0  0  0  0
 19 18  1  0  0  0  0
 20 21  1  0  0  0  0
 20 19  2  0  0  0  0
 21 22  1  0  0  0  0
 22 18  2  0  0  0  0
 23 21  1  0  0  0  0
 24 23  1  0  0  0  0
 25 24  2  0  0  0  0
 26 27  2  0  0  0  0
 26 25  1  0  0  0  0
 27 32  1  0  0  0  0
 28 29  2  0  0  0  0
 28 27  1  0  0  0  0
 29 30  1  0  0  0  0
 30 31  2  0  0  0  0
 32 31  1  0  0  0  0
 32 23  2  0  0  0  0
M  END
>  <minimizedAffinity>
-7.58749628

$$$$

 OpenBabel03242509233D

 32 37  0  0  0  0  0  0  0  0999 V2000
   61.6260   58.4460   28.0940 C   0  0  0  0  0  3  0  0  0  0  0  0
   61.9940   57.7730   26.9260 C   0  0  0  0  0  0  0  0  0  0  0  0
   63.2050   57.0670   26.9420 C   0  0  0  0  0  3  0  0  0  0  0  0
   63.9490   57.0770   28.0940 N   0  0  0  0  0  0  0  0  0  0  0  0
   63.5570   57.7320   29.1850 C   0  0  0  0  0  0  0  0  0  0  0  0
   62.4000   58.4180   29.1930 N   0  0  0  0  0  0  0  0  0  0  0  0
   61.1500   57.8280   25.7860 C   0  0  0  0  0  0  0  0  0  0  0  0
   61.0570   58.9360   24.9200 C   0  0  0  0  0  3  0  0  0  0  0  0
   60.1570   58.6510   23.9360 N   0  0  0  0  0  0  0  0  0  0  0  0
   59.6740   57.4060   24.1420 C   0  0  0  0  0  0  0  0  0  0  0  0
   58.7450   56.6500   23.4320 C   0  0  0  0  0  3  0  0  0  0  0  0
   58.4140   55.3680   23.8620 C   0  0  0  0  0  3  0  0  0  0  0  0
   59.0210   54.8590   24.9970 C   0  0  0  0  0  3  0  0  0  0  0  0
   59.9280   55.6470   25.6530 C   0  0  0  0  0  3  0  0  0  0  0  0
   60.2840   56.9080   25.2710 C   0  0  0  0  0  0  0  0  0  0  0  0
   59.8910   59.2800   23.1650 H   0  0  0  0  0  0  0  0  0  0  0  0
   64.4240   57.6830   30.3750 C   0  0  0  0  0  2  0  0  0  0  0  0
   64.8110   59.0820   30.7250 C   0  0  0  0  0  0  0  0  0  0  0  0
   65.5670   59.3150   31.8820 C   0  0  0  0  0  3  0  0  0  0  0  0
   65.7870   60.6630   31.9740 C   0  0  0  0  0  3  0  0  0  0  0  0
   65.1900   61.2210   30.9210 N   0  0  0  0  0  0  0  0  0  0  0  0
   64.6080   60.2690   30.1760 N   0  0  0  0  0  0  0  0  0  0  0  0
   65.1820   62.6170   30.6450 C   0  0  0  0  0  0  0  0  0  0  0  0
   64.2740   63.4700   31.2400 C   0  0  0  0  0  3  0  0  0  0  0  0
   64.1840   64.8310   31.0400 C   0  0  0  0  0  3  0  0  0  0  0  0
   65.0950   65.3810   30.1630 C   0  0  0  0  0  3  0  0  0  0  0  0
   66.0320   64.5840   29.5350 C   0  0  0  0  0  0  0  0  0  0  0  0
   66.9360   65.1490   28.6600 C   0  0  0  0  0  3  0  0  0  0  0  0
   67.8980   64.4150   27.9980 C   0  0  0  0  0  3  0  0  0  0  0  0
   67.9180   63.0400   28.2580 C   0  0  0  0  0  3  0  0  0  0  0  0
   67.0120   62.4440   29.1420 C   0  0  0  0  0  3  0  0  0  0  0  0
   66.0720   63.2290   29.7750 C   0  0  0  0  0  0  0  0  0  0  0  0
  1  6  2  0  0  0  0
  2  3  2  0  0  0  0
  2  1  1  0  0  0  0
  3  4  1  0  0  0  0
  4  5  2  0  0  0  0
  5  6  1  0  0  0  0
  5 17  1  0  0  0  0
  7  2  1  0  0  0  0
  8  7  2  0  0  0  0
  9 10  1  0  0  0  0
  9  8  1  0  0  0  0
 10 15  1  0  0  0  0
 11 12  1  0  0  0  0
 11 10  2  0  0  0  0
 12 13  2  0  0  0  0
 13 14  1  0  0  0  0
 15 14  2  0  0  0  0
 15  7  1  0  0  0  0
 16  9  1  0  0  0  0
 17 18  1  0  0  0  0
 18 19  1  0  0  0  0
 19 20  2  0  0  0  0
 21 20  1  0  0  0  0
 22 18  2  0  0  0  0
 22 21  1  0  0  0  0
 23 21  1  0  0  0  0
 23 24  1  0  0  0  0
 25 24  2  0  0  0  0
 26 25  1  0  0  0  0
 27 32  1  0  0  0  0
 27 26  2  0  0  0  0
 28 27  1  0  0  0  0
 29 30  1  0  0  0  0
 29 28  2  0  0  0  0
 30 31  2  0  0  0  0
 31 32  1  0  0  0  0
 32 23  2  0  0  0  0
M  END
>  <minimizedAffinity>
-7.58497715

$$$$

 OpenBabel03242509233D

 32 37  0  0  0  0  0  0  0  0999 V2000
   63.0990   58.1370   29.7380 C   0  0  0  0  0  3  0  0  0  0  0  0
   63.6560   57.4500   28.6570 C   0  0  0  0  0  0  0  0  0  0  0  0
   64.9980   57.0570   28.7630 C   0  0  0  0  0  3  0  0  0  0  0  0
   65.6770   57.3660   29.9130 N   0  0  0  0  0  0  0  0  0  0  0  0
   65.1040   58.0220   30.9200 C   0  0  0  0  0  0  0  0  0  0  0  0
   63.8180   58.4100   30.8410 N   0  0  0  0  0  0  0  0  0  0  0  0
   62.8640   57.1810   27.5090 C   0  0  0  0  0  0  0  0  0  0  0  0
   63.0570   56.0790   26.6540 C   0  0  0  0  0  3  0  0  0  0  0  0
   62.1270   56.1270   25.6580 N   0  0  0  0  0  0  0  0  0  0  0  0
   61.3520   57.2170   25.8450 C   0  0  0  0  0  0  0  0  0  0  0  0
   60.2720   57.7150   25.1210 C   0  0  0  0  0  3  0  0  0  0  0  0
   59.6320   58.8810   25.5340 C   0  0  0  0  0  3  0  0  0  0  0  0
   60.0820   59.5320   26.6700 C   0  0  0  0  0  3  0  0  0  0  0  0
   61.1470   58.9950   27.3420 C   0  0  0  0  0  3  0  0  0  0  0  0
   61.8050   57.8570   26.9760 C   0  0  0  0  0  0  0  0  0  0  0  0
   62.0320   55.4460   24.8910 H   0  0  0  0  0  0  0  0  0  0  0  0
   65.9150   58.3070   32.1160 C   0  0  0  0  0  2  0  0  0  0  0  0
   66.6080   59.6120   31.9070 C   0  0  0  0  0  0  0  0  0  0  0  0
   66.4080   60.6500   32.8270 C   0  0  0  0  0  3  0  0  0  0  0  0
   67.1480   61.7250   32.4120 C   0  0  0  0  0  3  0  0  0  0  0  0
   67.7670   61.3550   31.2920 N   0  0  0  0  0  0  0  0  0  0  0  0
   67.4400   60.0880   30.9940 N   0  0  0  0  0  0  0  0  0  0  0  0
   68.6380   62.1910   30.5380 C   0  0  0  0  0  0  0  0  0  0  0  0
   69.9730   62.3290   30.8630 C   0  0  0  0  0  3  0  0  0  0  0  0
   70.8950   63.1100   30.1990 C   0  0  0  0  0  3  0  0  0  0  0  0
   70.4280   63.8120   29.1090 C   0  0  0  0  0  3  0  0  0  0  0  0
   69.1040   63.7180   28.7290 C   0  0  0  0  0  0  0  0  0  0  0  0
   68.6530   64.4270   27.6350 C   0  0  0  0  0  3  0  0  0  0  0  0
   67.3450   64.3810   27.2000 C   0  0  0  0  0  3  0  0  0  0  0  0
   66.4750   63.5640   27.9300 C   0  0  0  0  0  3  0  0  0  0  0  0
   66.9090   62.8350   29.0430 C   0  0  0  0  0  3  0  0  0  0  0  0
   68.2290   62.9210   29.4320 C   0  0  0  0  0  0  0  0  0  0  0  0
  1  6  2  0  0  0  0
  2  3  2  0  0  0  0
  2  1  1  0  0  0  0
  3  4  1  0  0  0  0
  4  5  2  0  0  0  0
  5 17  1  0  0  0  0
  6  5  1  0  0  0  0
  7  2  1  0  0  0  0
  8  7  2  0  0  0  0
  9 10  1  0  0  0  0
  9  8  1  0  0  0  0
 10 15  1  0  0  0  0
 11 12  1  0  0  0  0
 11 10  2  0  0  0  0
 12 13  2  0  0  0  0
 13 14  1  0  0  0  0
 15 14  2  0  0  0  0
 15  7  1  0  0  0  0
 16  9  1  0  0  0  0
 18 17  1  0  0  0  0
 18 19  1  0  0  0  0
 20 19  2  0  0  0  0
 21 20  1  0  0  0  0
 22 21  1  0  0  0  0
 22 18  2  0  0  0  0
 23 24  1  0  0  0  0
 23 21  1  0  0  0  0
 25 24  2  0  0  0  0
 26 25  1  0  0  0  0
 27 26  2  0  0  0  0
 27 32  1  0  0  0  0
 28 27  1  0  0  0  0
 29 28  2  0  0  0  0
 29 30  1  0  0  0  0
 30 31  2  0  0  0  0
 31 32  1  0  0  0  0
 32 23  2  0  0  0  0
M  END
>  <minimizedAffinity>
-7.3507905

$$$$

 OpenBabel03242509233D

 32 37  0  0  0  0  0  0  0  0999 V2000
   65.9560   61.3810   30.3930 C   0  0  0  0  0  3  0  0  0  0  0  0
   67.2500   61.2260   30.8970 C   0  0  0  0  0  0  0  0  0  0  0  0
   67.5690   59.9950   31.4890 C   0  0  0  0  0  3  0  0  0  0  0  0
   66.6020   59.0260   31.5360 N   0  0  0  0  0  0  0  0  0  0  0  0
   65.3810   59.2180   31.0410 C   0  0  0  0  0  0  0  0  0  0  0  0
   65.0500   60.3910   30.4700 N   0  0  0  0  0  0  0  0  0  0  0  0
   68.1780   62.2970   30.7990 C   0  0  0  0  0  0  0  0  0  0  0  0
   69.0520   62.6850   31.8330 C   0  0  0  0  0  3  0  0  0  0  0  0
   69.7990   63.7420   31.4030 N   0  0  0  0  0  0  0  0  0  0  0  0
   69.4350   64.0400   30.1370 C   0  0  0  0  0  0  0  0  0  0  0  0
   69.8850   65.0180   29.2550 C   0  0  0  0  0  3  0  0  0  0  0  0
   69.3350   65.1170   27.9800 C   0  0  0  0  0  3  0  0  0  0  0  0
   68.3390   64.2310   27.6050 C   0  0  0  0  0  3  0  0  0  0  0  0
   67.9360   63.2900   28.5140 C   0  0  0  0  0  3  0  0  0  0  0  0
   68.4450   63.1550   29.7730 C   0  0  0  0  0  0  0  0  0  0  0  0
   70.5210   64.2300   31.9520 H   0  0  0  0  0  0  0  0  0  0  0  0
   64.4090   58.1160   31.1370 C   0  0  0  0  0  2  0  0  0  0  0  0
   63.9320   57.7950   29.7590 C   0  0  0  0  0  0  0  0  0  0  0  0
   64.8720   57.5470   28.7490 C   0  0  0  0  0  3  0  0  0  0  0  0
   64.1840   57.2810   27.5950 C   0  0  0  0  0  3  0  0  0  0  0  0
   62.8880   57.3650   27.8920 N   0  0  0  0  0  0  0  0  0  0  0  0
   62.7430   57.6720   29.1910 N   0  0  0  0  0  0  0  0  0  0  0  0
   61.8330   57.1560   26.9620 C   0  0  0  0  0  0  0  0  0  0  0  0
   61.5700   55.9110   26.4270 C   0  0  0  0  0  3  0  0  0  0  0  0
   60.5750   55.6060   25.5230 C   0  0  0  0  0  3  0  0  0  0  0  0
   59.7720   56.6520   25.1240 C   0  0  0  0  0  3  0  0  0  0  0  0
   59.9790   57.9240   25.6210 C   0  0  0  0  0  0  0  0  0  0  0  0
   59.1660   58.9610   25.2120 C   0  0  0  0  0  3  0  0  0  0  0  0
   59.3150   60.2540   25.6650 C   0  0  0  0  0  3  0  0  0  0  0  0
   60.3500   60.4760   26.5810 C   0  0  0  0  0  3  0  0  0  0  0  0
   61.1870   59.4410   27.0120 C   0  0  0  0  0  3  0  0  0  0  0  0
   60.9900   58.1670   26.5220 C   0  0  0  0  0  0  0  0  0  0  0  0
  1  6  2  0  0  0  0
  1  2  1  0  0  0  0
  2  3  2  0  0  0  0
  3  4  1  0  0  0  0
  5 17  1  0  0  0  0
  5  4  2  0  0  0  0
  6  5  1  0  0  0  0
  7  2  1  0  0  0  0
  7  8  2  0  0  0  0
  9  8  1  0  0  0  0
  9 16  1  0  0  0  0
 10  9  1  0  0  0  0
 11 10  2  0  0  0  0
 12 11  1  0  0  0  0
 13 12  2  0  0  0  0
 13 14  1  0  0  0  0
 14 15  2  0  0  0  0
 15 10  1  0  0  0  0
 15  7  1  0  0  0  0
 18 17  1  0  0  0  0
 19 18  1  0  0  0  0
 20 21  1  0  0  0  0
 20 19  2  0  0  0  0
 21 22  1  0  0  0  0
 22 18  2  0  0  0  0
 23 21  1  0  0  0  0
 24 23  2  0  0  0  0
 25 24  1  0  0  0  0
 26 25  2  0  0  0  0
 26 27  1  0  0  0  0
 27 32  1  0  0  0  0
 28 27  2  0  0  0  0
 28 29  1  0  0  0  0
 29 30  2  0  0  0  0
 30 31  1  0  0  0  0
 32 23  1  0  0  0  0
 32 31  2  0  0  0  0
M  END
>  <minimizedAffinity>
-7.2310009

$$$$

 OpenBabel03242509233D

 32 37  0  0  0  0  0  0  0  0999 V2000
   62.2930   64.7510   30.3600 C   0  0  0  0  0  3  0  0  0  0  0  0
   63.3770   63.9420   30.0130 C   0  0  0  0  0  0  0  0  0  0  0  0
   63.0940   62.6720   29.4880 C   0  0  0  0  0  3  0  0  0  0  0  0
   61.7810   62.3050   29.3470 N   0  0  0  0  0  0  0  0  0  0  0  0
   60.7780   63.1110   29.6910 C   0  0  0  0  0  0  0  0  0  0  0  0
   61.0250   64.3330   30.1970 N   0  0  0  0  0  0  0  0  0  0  0  0
   64.7010   64.4180   30.2010 C   0  0  0  0  0  0  0  0  0  0  0  0
   65.1440   65.0920   31.3560 C   0  0  0  0  0  3  0  0  0  0  0  0
   66.4620   65.4070   31.2030 N   0  0  0  0  0  0  0  0  0  0  0  0
   66.8740   64.9610   29.9960 C   0  0  0  0  0  0  0  0  0  0  0  0
   68.1120   65.0260   29.3640 C   0  0  0  0  0  3  0  0  0  0  0  0
   68.2780   64.4780   28.0950 C   0  0  0  0  0  3  0  0  0  0  0  0
   67.1990   63.8700   27.4760 C   0  0  0  0  0  3  0  0  0  0  0  0
   66.0060   63.8350   28.1460 C   0  0  0  0  0  3  0  0  0  0  0  0
   65.7960   64.3580   29.3890 C   0  0  0  0  0  0  0  0  0  0  0  0
   67.0460   65.9030   31.8920 H   0  0  0  0  0  0  0  0  0  0  0  0
   59.4000   62.6280   29.5000 C   0  0  0  0  0  2  0  0  0  0  0  0
   59.3640   61.8040   28.2560 C   0  0  0  0  0  0  0  0  0  0  0  0
   59.4640   62.4380   27.0100 C   0  0  0  0  0  3  0  0  0  0  0  0
   59.4060   61.4710   26.0420 C   0  0  0  0  0  3  0  0  0  0  0  0
   59.2750   60.3050   26.6730 N   0  0  0  0  0  0  0  0  0  0  0  0
   59.2510   60.5110   27.9990 N   0  0  0  0  0  0  0  0  0  0  0  0
   59.1770   59.0440   26.0230 C   0  0  0  0  0  0  0  0  0  0  0  0
   58.0650   58.6910   25.2830 C   0  0  0  0  0  3  0  0  0  0  0  0
   57.8740   57.4990   24.6180 C   0  0  0  0  0  3  0  0  0  0  0  0
   58.8980   56.5810   24.7050 C   0  0  0  0  0  3  0  0  0  0  0  0
   60.0390   56.8690   25.4280 C   0  0  0  0  0  0  0  0  0  0  0  0
   61.0550   55.9400   25.5060 C   0  0  0  0  0  3  0  0  0  0  0  0
   62.2200   56.1600   26.2100 C   0  0  0  0  0  3  0  0  0  0  0  0
   62.3320   57.3960   26.8550 C   0  0  0  0  0  3  0  0  0  0  0  0
   61.3160   58.3560   26.7910 C   0  0  0  0  0  3  0  0  0  0  0  0
   60.1720   58.0780   26.0720 C   0  0  0  0  0  0  0  0  0  0  0  0
  2  7  1  0  0  0  0
  2  1  1  0  0  0  0
  3  2  2  0  0  0  0
  4  3  1  0  0  0  0
  4  5  2  0  0  0  0
  5  6  1  0  0  0  0
  6  1  2  0  0  0  0
  7  8  2  0  0  0  0
  9  8  1  0  0  0  0
  9 16  1  0  0  0  0
 10  9  1  0  0  0  0
 11 10  2  0  0  0  0
 12 11  1  0  0  0  0
 13 12  2  0  0  0  0
 13 14  1  0  0  0  0
 14 15  2  0  0  0  0
 15 10  1  0  0  0  0
 15  7  1  0  0  0  0
 17  5  1  0  0  0  0
 18 17  1  0  0  0  0
 19 18  1  0  0  0  0
 20 21  1  0  0  0  0
 20 19  2  0  0  0  0
 21 22  1  0  0  0  0
 22 18  2  0  0  0  0
 23 32  1  0  0  0  0
 23 21  1  0  0  0  0
 24 23  2  0  0  0  0
 25 26  2  0  0  0  0
 25 24  1  0  0  0  0
 26 27  1  0  0  0  0
 27 28  2  0  0  0  0
 27 32  1  0  0  0  0
 28 29  1  0  0  0  0
 29 30  2  0  0  0  0
 31 30  1  0  0  0  0
 32 31  2  0  0  0  0
M  END
>  <minimizedAffinity>
-7.20834017

$$$$

 OpenBabel03242509233D

 32 37  0  0  0  0  0  0  0  0999 V2000
   62.6870   58.6250   29.4060 C   0  0  0  0  0  3  0  0  0  0  0  0
   63.2620   57.6050   28.6450 C   0  0  0  0  0  0  0  0  0  0  0  0
   64.6420   57.3930   28.7840 C   0  0  0  0  0  3  0  0  0  0  0  0
   65.3370   58.1930   29.6530 N   0  0  0  0  0  0  0  0  0  0  0  0
   64.7460   59.1550   30.3590 C   0  0  0  0  0  0  0  0  0  0  0  0
   63.4240   59.3770   30.2420 N   0  0  0  0  0  0  0  0  0  0  0  0
   62.4500   56.8330   27.7720 C   0  0  0  0  0  0  0  0  0  0  0  0
   62.2580   55.4430   27.8890 C   0  0  0  0  0  3  0  0  0  0  0  0
   61.4260   55.0270   26.8920 N   0  0  0  0  0  0  0  0  0  0  0  0
   61.0810   56.0980   26.1450 C   0  0  0  0  0  0  0  0  0  0  0  0
   60.2620   56.2150   25.0260 C   0  0  0  0  0  3  0  0  0  0  0  0
   60.0650   57.4590   24.4310 C   0  0  0  0  0  3  0  0  0  0  0  0
   60.6920   58.5700   24.9680 C   0  0  0  0  0  3  0  0  0  0  0  0
   61.4850   58.3950   26.0700 C   0  0  0  0  0  3  0  0  0  0  0  0
   61.7080   57.1980   26.6860 C   0  0  0  0  0  0  0  0  0  0  0  0
   61.1130   54.0590   26.7350 H   0  0  0  0  0  0  0  0  0  0  0  0
   65.5770   59.9620   31.2680 C   0  0  0  0  0  2  0  0  0  0  0  0
   66.1970   59.0440   32.2690 C   0  0  0  0  0  0  0  0  0  0  0  0
   65.5920   58.8880   33.5240 C   0  0  0  0  0  3  0  0  0  0  0  0
   66.3490   58.0040   34.2460 C   0  0  0  0  0  3  0  0  0  0  0  0
   67.3650   57.6420   33.4650 N   0  0  0  0  0  0  0  0  0  0  0  0
   67.2690   58.2680   32.2820 N   0  0  0  0  0  0  0  0  0  0  0  0
   68.3880   56.7290   33.8450 C   0  0  0  0  0  0  0  0  0  0  0  0
   68.0950   55.4960   34.3920 C   0  0  0  0  0  3  0  0  0  0  0  0
   69.0100   54.5450   34.7900 C   0  0  0  0  0  3  0  0  0  0  0  0
   70.3390   54.8660   34.6200 C   0  0  0  0  0  3  0  0  0  0  0  0
   70.7020   56.0830   34.0770 C   0  0  0  0  0  0  0  0  0  0  0  0
   72.0370   56.3900   33.9120 C   0  0  0  0  0  3  0  0  0  0  0  0
   72.4710   57.5850   33.3780 C   0  0  0  0  0  3  0  0  0  0  0  0
   71.4770   58.4940   33.0000 C   0  0  0  0  0  3  0  0  0  0  0  0
   70.1160   58.2060   33.1560 C   0  0  0  0  0  3  0  0  0  0  0  0
   69.7420   56.9940   33.6980 C   0  0  0  0  0  0  0  0  0  0  0  0
  1  6  2  0  0  0  0
  2  3  2  0  0  0  0
  2  1  1  0  0  0  0
  3  4  1  0  0  0  0
  4  5  2  0  0  0  0
  5 17  1  0  0  0  0
  6  5  1  0  0  0  0
  7  8  2  0  0  0  0
  7  2  1  0  0  0  0
  9  8  1  0  0  0  0
 10 15  1  0  0  0  0
 10  9  1  0  0  0  0
 11 10  2  0  0  0  0
 12 13  2  0  0  0  0
 12 11  1  0  0  0  0
 13 14  1  0  0  0  0
 14 15  2  0  0  0  0
 15  7  1  0  0  0  0
 16  9  1  0  0  0  0
 17 18  1  0  0  0  0
 18 22  2  0  0  0  0
 18 19  1  0  0  0  0
 19 20  2  0  0  0  0
 21 23  1  0  0  0  0
 21 20  1  0  0  0  0
 22 21  1  0  0  0  0
 23 24  1  0  0  0  0
 24 25  2  0  0  0  0
 26 25  1  0  0  0  0
 27 26  2  0  0  0  0
 28 27  1  0  0  0  0
 29 28  2  0  0  0  0
 30 31  2  0  0  0  0
 30 29  1  0  0  0  0
 31 32  1  0  0  0  0
 32 23  2  0  0  0  0
 32 27  1  0  0  0  0
M  END
>  <minimizedAffinity>
-7.1832056

$$$$
