
 OpenBabel03242509313D

 31 35  0  0  0  0  0  0  0  0999 V2000
   64.9370   56.9650   26.6160 C   0  0  0  0  0  3  0  0  0  0  0  0
   65.1570   57.3740   27.9320 C   0  0  0  0  0  3  0  0  0  0  0  0
   64.0200   57.6140   28.6630 C   0  0  0  0  0  0  0  0  0  0  0  0
   62.8530   57.4400   28.0720 N   0  0  0  0  0  0  0  0  0  0  0  0
   62.5990   57.0600   26.8440 C   0  0  0  0  0  0  0  0  0  0  0  0
   63.6970   56.8330   26.1520 N   0  0  0  0  0  0  0  0  0  0  0  0
   61.4000   56.8350   26.0850 C   0  0  0  0  0  0  0  0  0  0  0  0
   60.7390   55.5980   26.0310 C   0  0  0  0  0  3  0  0  0  0  0  0
   59.5940   55.3630   25.3130 C   0  0  0  0  0  3  0  0  0  0  0  0
   59.0290   56.3570   24.5950 C   0  0  0  0  0  3  0  0  0  0  0  0
   59.6180   57.5920   24.6000 C   0  0  0  0  0  0  0  0  0  0  0  0
   59.0180   58.6070   23.8510 C   0  0  0  0  0  3  0  0  0  0  0  0
   59.5460   59.8580   23.8090 C   0  0  0  0  0  3  0  0  0  0  0  0
   60.7140   60.0890   24.5440 C   0  0  0  0  0  3  0  0  0  0  0  0
   61.2680   59.0730   25.2610 C   0  0  0  0  0  3  0  0  0  0  0  0
   60.7680   57.8060   25.3290 C   0  0  0  0  0  0  0  0  0  0  0  0
   64.0940   58.0440   30.0420 C   0  0  0  0  0  0  0  0  0  0  0  0
   63.6340   59.1460   30.4550 O   0  0  0  0  0  0  0  0  0  0  0  0
   64.6830   57.2650   31.0090 O   0  0  0  0  0  0  0  0  0  0  0  0
   68.0540   58.2820   31.5330 N   0  0  0  0  0  0  0  0  0  0  0  0
   66.8930   58.3550   30.9010 N   0  0  0  0  0  0  0  0  0  0  0  0
   66.0050   57.4840   31.4070 C   0  0  0  0  0  0  0  0  0  0  0  0
   66.6600   56.8160   32.4340 C   0  0  0  0  0  3  0  0  0  0  0  0
   67.9200   57.3350   32.4820 C   0  0  0  0  0  0  0  0  0  0  0  0
   68.8960   58.8400   31.3380 H   0  0  0  0  0  0  0  0  0  0  0  0
   68.9530   56.9550   33.3830 N   0  0  0  0  0  0  0  0  0  0  0  0
   68.8450   55.7600   34.1990 C   0  0  0  0  0  2  0  0  0  0  0  0
   70.2550   55.2720   34.4800 C   0  0  0  0  0  2  0  0  0  0  0  0
   71.1180   55.5270   33.4410 O   0  0  0  0  0  0  0  0  0  0  0  0
   71.3080   56.8480   33.1290 C   0  0  0  0  0  2  0  0  0  0  0  0
   70.1590   57.7540   33.5160 C   0  0  0  0  0  2  0  0  0  0  0  0
  1  2  1  0  0  0  0
  2  3  2  0  0  0  0
  3 17  1  0  0  0  0
  4  3  1  0  0  0  0
  5  4  2  0  0  0  0
  6  1  2  0  0  0  0
  6  5  1  0  0  0  0
  7  5  1  0  0  0  0
  8  7  1  0  0  0  0
  9  8  2  0  0  0  0
 10 11  2  0  0  0  0
 10  9  1  0  0  0  0
 11 16  1  0  0  0  0
 12 11  1  0  0  0  0
 13 12  2  0  0  0  0
 13 14  1  0  0  0  0
 14 15  2  0  0  0  0
 15 16  1  0  0  0  0
 16  7  2  0  0  0  0
 17 18  2  0  0  0  0
 17 19  1  0  0  0  0
 19 22  1  0  0  0  0
 20 24  1  0  0  0  0
 21 22  2  0  0  0  0
 21 20  1  0  0  0  0
 22 23  1  0  0  0  0
 23 24  2  0  0  0  0
 24 26  1  0  0  0  0
 25 20  1  0  0  0  0
 26 31  1  0  0  0  0
 26 27  1  0  0  0  0
 27 28  1  0  0  0  0
 29 28  1  0  0  0  0
 30 29  1  0  0  0  0
 30 31  1  0  0  0  0
M  END
>  <minimizedAffinity>
-7.90034342

$$$$

 OpenBabel03242509313D

 31 35  0  0  0  0  0  0  0  0999 V2000
   64.9010   56.9890   26.6600 C   0  0  0  0  0  3  0  0  0  0  0  0
   65.0950   57.3940   27.9810 C   0  0  0  0  0  3  0  0  0  0  0  0
   63.9430   57.6230   28.6930 C   0  0  0  0  0  0  0  0  0  0  0  0
   62.7880   57.4450   28.0790 N   0  0  0  0  0  0  0  0  0  0  0  0
   62.5590   57.0680   26.8450 C   0  0  0  0  0  0  0  0  0  0  0  0
   63.6710   56.8510   26.1730 N   0  0  0  0  0  0  0  0  0  0  0  0
   61.3760   56.8390   26.0630 C   0  0  0  0  0  0  0  0  0  0  0  0
   60.7340   55.5940   25.9780 C   0  0  0  0  0  3  0  0  0  0  0  0
   59.6040   55.3540   25.2370 C   0  0  0  0  0  3  0  0  0  0  0  0
   59.0360   56.3520   24.5280 C   0  0  0  0  0  3  0  0  0  0  0  0
   59.6070   57.5960   24.5630 C   0  0  0  0  0  0  0  0  0  0  0  0
   59.0030   58.6140   23.8220 C   0  0  0  0  0  3  0  0  0  0  0  0
   59.5140   59.8740   23.8090 C   0  0  0  0  0  3  0  0  0  0  0  0
   60.6660   60.1090   24.5670 C   0  0  0  0  0  3  0  0  0  0  0  0
   61.2240   59.0890   25.2760 C   0  0  0  0  0  3  0  0  0  0  0  0
   60.7410   57.8140   25.3140 C   0  0  0  0  0  0  0  0  0  0  0  0
   63.9890   58.0480   30.0740 C   0  0  0  0  0  0  0  0  0  0  0  0
   63.4830   59.1290   30.4900 O   0  0  0  0  0  0  0  0  0  0  0  0
   64.6000   57.2870   31.0420 O   0  0  0  0  0  0  0  0  0  0  0  0
   67.9910   57.2200   32.1240 N   0  0  0  0  0  0  0  0  0  0  0  0
   66.8270   56.6380   31.8800 N   0  0  0  0  0  0  0  0  0  0  0  0
   65.9280   57.5180   31.4110 C   0  0  0  0  0  0  0  0  0  0  0  0
   66.5790   58.7440   31.3570 C   0  0  0  0  0  3  0  0  0  0  0  0
   67.8480   58.5200   31.8030 C   0  0  0  0  0  0  0  0  0  0  0  0
   68.8400   56.7670   32.4890 H   0  0  0  0  0  0  0  0  0  0  0  0
   68.8810   59.4910   31.9230 N   0  0  0  0  0  0  0  0  0  0  0  0
   70.2830   59.1160   31.8770 C   0  0  0  0  0  2  0  0  0  0  0  0
   71.0550   60.3110   31.3490 C   0  0  0  0  0  2  0  0  0  0  0  0
   70.3330   61.0470   30.4410 O   0  0  0  0  0  0  0  0  0  0  0  0
   69.1770   61.6140   30.9110 C   0  0  0  0  0  2  0  0  0  0  0  0
   68.5660   60.8990   32.0970 C   0  0  0  0  0  2  0  0  0  0  0  0
  1  2  1  0  0  0  0
  2  3  2  0  0  0  0
  3 17  1  0  0  0  0
  4  3  1  0  0  0  0
  5  4  2  0  0  0  0
  6  1  2  0  0  0  0
  6  5  1  0  0  0  0
  7  5  1  0  0  0  0
  8  7  1  0  0  0  0
  9  8  2  0  0  0  0
 10 11  2  0  0  0  0
 10  9  1  0  0  0  0
 11 16  1  0  0  0  0
 12 11  1  0  0  0  0
 13 12  2  0  0  0  0
 13 14  1  0  0  0  0
 14 15  2  0  0  0  0
 15 16  1  0  0  0  0
 16  7  2  0  0  0  0
 17 18  2  0  0  0  0
 17 19  1  0  0  0  0
 19 22  1  0  0  0  0
 20 25  1  0  0  0  0
 21 20  1  0  0  0  0
 22 21  2  0  0  0  0
 23 22  1  0  0  0  0
 23 24  2  0  0  0  0
 24 26  1  0  0  0  0
 24 20  1  0  0  0  0
 26 31  1  0  0  0  0
 27 26  1  0  0  0  0
 28 27  1  0  0  0  0
 29 30  1  0  0  0  0
 29 28  1  0  0  0  0
 30 31  1  0  0  0  0
M  END
>  <minimizedAffinity>
-7.59064245

$$$$

 OpenBabel03242509313D

 31 35  0  0  0  0  0  0  0  0999 V2000
   64.7880   58.5450   32.6500 C   0  0  0  0  0  3  0  0  0  0  0  0
   64.2050   58.1810   31.4350 C   0  0  0  0  0  3  0  0  0  0  0  0
   65.0720   57.6510   30.5110 C   0  0  0  0  0  0  0  0  0  0  0  0
   66.3440   57.5380   30.8460 N   0  0  0  0  0  0  0  0  0  0  0  0
   66.9330   57.8660   31.9690 C   0  0  0  0  0  0  0  0  0  0  0  0
   66.0920   58.3730   32.8480 N   0  0  0  0  0  0  0  0  0  0  0  0
   68.2820   57.7990   32.4580 C   0  0  0  0  0  0  0  0  0  0  0  0
   69.2890   58.6990   32.0750 C   0  0  0  0  0  3  0  0  0  0  0  0
   70.5830   58.6520   32.5300 C   0  0  0  0  0  3  0  0  0  0  0  0
   70.9590   57.6940   33.4030 C   0  0  0  0  0  3  0  0  0  0  0  0
   70.0310   56.7800   33.8220 C   0  0  0  0  0  0  0  0  0  0  0  0
   70.4400   55.7980   34.7260 C   0  0  0  0  0  3  0  0  0  0  0  0
   69.5730   54.8570   35.1850 C   0  0  0  0  0  3  0  0  0  0  0  0
   68.2560   54.9120   34.7170 C   0  0  0  0  0  3  0  0  0  0  0  0
   67.8960   55.8860   33.8360 C   0  0  0  0  0  3  0  0  0  0  0  0
   68.7360   56.8460   33.3530 C   0  0  0  0  0  0  0  0  0  0  0  0
   64.6090   57.2290   29.2080 C   0  0  0  0  0  0  0  0  0  0  0  0
   65.3050   57.3200   28.1560 O   0  0  0  0  0  0  0  0  0  0  0  0
   63.3570   56.6920   29.0270 O   0  0  0  0  0  0  0  0  0  0  0  0
   62.0510   56.1790   25.7550 N   0  0  0  0  0  0  0  0  0  0  0  0
   62.7680   55.8030   26.8030 N   0  0  0  0  0  0  0  0  0  0  0  0
   62.7310   56.7250   27.7780 C   0  0  0  0  0  0  0  0  0  0  0  0
   61.9290   57.7570   27.3040 C   0  0  0  0  0  3  0  0  0  0  0  0
   61.5290   57.3830   26.0550 C   0  0  0  0  0  0  0  0  0  0  0  0
   61.9190   55.6530   24.8800 H   0  0  0  0  0  0  0  0  0  0  0  0
   60.6900   58.1310   25.1820 N   0  0  0  0  0  0  0  0  0  0  0  0
   59.3160   57.7370   24.9300 C   0  0  0  0  0  2  0  0  0  0  0  0
   58.5410   58.9940   24.5800 C   0  0  0  0  0  2  0  0  0  0  0  0
   59.0080   60.1040   25.2420 O   0  0  0  0  0  0  0  0  0  0  0  0
   60.3050   60.4610   24.9750 C   0  0  0  0  0  2  0  0  0  0  0  0
   61.1840   59.3200   24.5100 C   0  0  0  0  0  2  0  0  0  0  0  0
  1  6  2  0  0  0  0
  2  1  1  0  0  0  0
  3  4  1  0  0  0  0
  3  2  2  0  0  0  0
  4  5  2  0  0  0  0
  5  7  1  0  0  0  0
  5  6  1  0  0  0  0
  7 16  1  0  0  0  0
  8  7  2  0  0  0  0
  8  9  1  0  0  0  0
  9 10  2  0  0  0  0
 10 11  1  0  0  0  0
 11 12  1  0  0  0  0
 12 13  2  0  0  0  0
 14 13  1  0  0  0  0
 15 14  2  0  0  0  0
 16 11  2  0  0  0  0
 16 15  1  0  0  0  0
 17  3  1  0  0  0  0
 18 17  2  0  0  0  0
 19 17  1  0  0  0  0
 20 24  1  0  0  0  0
 20 21  1  0  0  0  0
 21 22  2  0  0  0  0
 22 19  1  0  0  0  0
 23 22  1  0  0  0  0
 24 23  2  0  0  0  0
 25 20  1  0  0  0  0
 26 24  1  0  0  0  0
 27 26  1  0  0  0  0
 28 27  1  0  0  0  0
 28 29  1  0  0  0  0
 30 29  1  0  0  0  0
 31 30  1  0  0  0  0
 31 26  1  0  0  0  0
M  END
>  <minimizedAffinity>
-7.3850522

$$$$

 OpenBabel03242509313D

 31 35  0  0  0  0  0  0  0  0999 V2000
   65.0450   57.0900   26.9340 C   0  0  0  0  0  3  0  0  0  0  0  0
   65.2920   57.4900   28.2490 C   0  0  0  0  0  3  0  0  0  0  0  0
   64.1690   57.7350   29.0010 C   0  0  0  0  0  0  0  0  0  0  0  0
   62.9910   57.5740   28.4290 N   0  0  0  0  0  0  0  0  0  0  0  0
   62.7120   57.2020   27.2040 C   0  0  0  0  0  0  0  0  0  0  0  0
   63.7960   56.9710   26.4920 N   0  0  0  0  0  0  0  0  0  0  0  0
   61.4980   56.9920   26.4650 C   0  0  0  0  0  0  0  0  0  0  0  0
   61.0080   55.7200   26.1300 C   0  0  0  0  0  3  0  0  0  0  0  0
   59.8520   55.4970   25.4250 C   0  0  0  0  0  3  0  0  0  0  0  0
   59.1030   56.5400   25.0060 C   0  0  0  0  0  3  0  0  0  0  0  0
   59.5200   57.8110   25.2960 C   0  0  0  0  0  0  0  0  0  0  0  0
   58.7310   58.8750   24.8530 C   0  0  0  0  0  3  0  0  0  0  0  0
   59.0820   60.1640   25.1040 C   0  0  0  0  0  3  0  0  0  0  0  0
   60.2620   60.3820   25.8230 C   0  0  0  0  0  3  0  0  0  0  0  0
   61.0020   59.3170   26.2370 C   0  0  0  0  0  3  0  0  0  0  0  0
   60.6840   58.0110   26.0050 C   0  0  0  0  0  0  0  0  0  0  0  0
   64.2710   58.1570   30.3800 C   0  0  0  0  0  0  0  0  0  0  0  0
   64.3550   57.3540   31.3530 O   0  0  0  0  0  0  0  0  0  0  0  0
   64.2830   59.4870   30.7280 O   0  0  0  0  0  0  0  0  0  0  0  0
   67.5420   60.9130   30.8410 N   0  0  0  0  0  0  0  0  0  0  0  0
   66.6740   59.9500   31.1110 N   0  0  0  0  0  0  0  0  0  0  0  0
   65.4520   60.2470   30.6400 C   0  0  0  0  0  0  0  0  0  0  0  0
   65.5640   61.4900   30.0300 C   0  0  0  0  0  3  0  0  0  0  0  0
   66.8660   61.8680   30.1730 C   0  0  0  0  0  0  0  0  0  0  0  0
   68.5400   60.9300   31.0930 H   0  0  0  0  0  0  0  0  0  0  0  0
   67.4480   63.0780   29.7010 N   0  0  0  0  0  0  0  0  0  0  0  0
   68.2080   63.1210   28.4650 C   0  0  0  0  0  2  0  0  0  0  0  0
   68.0890   64.5280   27.9090 C   0  0  0  0  0  2  0  0  0  0  0  0
   66.8740   65.1060   28.1900 O   0  0  0  0  0  0  0  0  0  0  0  0
   66.5840   65.2780   29.5190 C   0  0  0  0  0  2  0  0  0  0  0  0
   67.2990   64.3170   30.4450 C   0  0  0  0  0  2  0  0  0  0  0  0
  1  2  1  0  0  0  0
  2  3  2  0  0  0  0
  3 17  1  0  0  0  0
  4  3  1  0  0  0  0
  5  4  2  0  0  0  0
  6  1  2  0  0  0  0
  6  5  1  0  0  0  0
  7  5  1  0  0  0  0
  8  7  1  0  0  0  0
  9  8  2  0  0  0  0
 10 11  2  0  0  0  0
 10  9  1  0  0  0  0
 11 16  1  0  0  0  0
 12 13  2  0  0  0  0
 12 11  1  0  0  0  0
 13 14  1  0  0  0  0
 14 15  2  0  0  0  0
 16 15  1  0  0  0  0
 16  7  2  0  0  0  0
 17 19  1  0  0  0  0
 17 18  2  0  0  0  0
 20 25  1  0  0  0  0
 20 21  1  0  0  0  0
 22 19  1  0  0  0  0
 22 21  2  0  0  0  0
 23 24  2  0  0  0  0
 23 22  1  0  0  0  0
 24 20  1  0  0  0  0
 26 24  1  0  0  0  0
 26 31  1  0  0  0  0
 27 26  1  0  0  0  0
 28 29  1  0  0  0  0
 28 27  1  0  0  0  0
 29 30  1  0  0  0  0
 30 31  1  0  0  0  0
M  END
>  <minimizedAffinity>
-7.34095812

$$$$

 OpenBabel03242509313D

 31 35  0  0  0  0  0  0  0  0999 V2000
   66.3940   61.7070   33.0190 C   0  0  0  0  0  3  0  0  0  0  0  0
   66.6830   60.3560   33.2210 C   0  0  0  0  0  3  0  0  0  0  0  0
   67.2430   59.7150   32.1440 C   0  0  0  0  0  0  0  0  0  0  0  0
   67.4520   60.4140   31.0440 N   0  0  0  0  0  0  0  0  0  0  0  0
   67.1970   61.6770   30.8090 C   0  0  0  0  0  0  0  0  0  0  0  0
   66.6600   62.2820   31.8490 N   0  0  0  0  0  0  0  0  0  0  0  0
   67.3700   62.5480   29.6800 C   0  0  0  0  0  0  0  0  0  0  0  0
   66.3200   62.9330   28.8320 C   0  0  0  0  0  3  0  0  0  0  0  0
   66.4630   63.7630   27.7490 C   0  0  0  0  0  3  0  0  0  0  0  0
   67.6760   64.2680   27.4390 C   0  0  0  0  0  3  0  0  0  0  0  0
   68.7490   63.9360   28.2220 C   0  0  0  0  0  0  0  0  0  0  0  0
   69.9950   64.4690   27.8840 C   0  0  0  0  0  3  0  0  0  0  0  0
   71.1040   64.1840   28.6150 C   0  0  0  0  0  3  0  0  0  0  0  0
   70.9500   63.3370   29.7180 C   0  0  0  0  0  3  0  0  0  0  0  0
   69.7170   62.8380   30.0130 C   0  0  0  0  0  3  0  0  0  0  0  0
   68.5820   63.1010   29.3050 C   0  0  0  0  0  0  0  0  0  0  0  0
   67.5960   58.3140   32.2080 C   0  0  0  0  0  0  0  0  0  0  0  0
   68.7780   57.8970   32.3750 O   0  0  0  0  0  0  0  0  0  0  0  0
   66.6470   57.3250   32.0890 O   0  0  0  0  0  0  0  0  0  0  0  0
   63.5960   57.7850   30.3140 N   0  0  0  0  0  0  0  0  0  0  0  0
   64.3150   57.7740   31.4260 N   0  0  0  0  0  0  0  0  0  0  0  0
   65.5920   57.4440   31.1800 C   0  0  0  0  0  0  0  0  0  0  0  0
   65.6800   57.2320   29.8090 C   0  0  0  0  0  3  0  0  0  0  0  0
   64.4300   57.4520   29.3110 C   0  0  0  0  0  0  0  0  0  0  0  0
   62.5940   58.0050   30.2330 H   0  0  0  0  0  0  0  0  0  0  0  0
   64.0390   57.3520   27.9460 N   0  0  0  0  0  0  0  0  0  0  0  0
   65.0180   57.1890   26.8870 C   0  0  0  0  0  2  0  0  0  0  0  0
   64.3350   56.4550   25.7470 C   0  0  0  0  0  2  0  0  0  0  0  0
   63.3890   55.5610   26.1870 O   0  0  0  0  0  0  0  0  0  0  0  0
   62.3340   56.0960   26.8810 C   0  0  0  0  0  2  0  0  0  0  0  0
   62.6380   57.4110   27.5650 C   0  0  0  0  0  2  0  0  0  0  0  0
  1  2  1  0  0  0  0
  3 17  1  0  0  0  0
  3  2  2  0  0  0  0
  4  3  1  0  0  0  0
  5  4  2  0  0  0  0
  5  6  1  0  0  0  0
  6  1  2  0  0  0  0
  7  5  1  0  0  0  0
  8  7  2  0  0  0  0
  9  8  1  0  0  0  0
 10  9  2  0  0  0  0
 10 11  1  0  0  0  0
 11 16  1  0  0  0  0
 12 11  2  0  0  0  0
 12 13  1  0  0  0  0
 13 14  2  0  0  0  0
 14 15  1  0  0  0  0
 16  7  1  0  0  0  0
 16 15  2  0  0  0  0
 17 18  2  0  0  0  0
 19 17  1  0  0  0  0
 20 21  1  0  0  0  0
 22 21  2  0  0  0  0
 22 19  1  0  0  0  0
 23 22  1  0  0  0  0
 24 23  2  0  0  0  0
 24 20  1  0  0  0  0
 25 20  1  0  0  0  0
 26 24  1  0  0  0  0
 27 26  1  0  0  0  0
 28 29  1  0  0  0  0
 28 27  1  0  0  0  0
 29 30  1  0  0  0  0
 30 31  1  0  0  0  0
 31 26  1  0  0  0  0
M  END
>  <minimizedAffinity>
-7.2100997

$$$$

 OpenBabel03242509313D

 31 35  0  0  0  0  0  0  0  0999 V2000
   64.9610   57.0170   26.5850 C   0  0  0  0  0  3  0  0  0  0  0  0
   65.1820   57.3990   27.9100 C   0  0  0  0  0  3  0  0  0  0  0  0
   64.0450   57.5960   28.6540 C   0  0  0  0  0  0  0  0  0  0  0  0
   62.8780   57.4110   28.0660 N   0  0  0  0  0  0  0  0  0  0  0  0
   62.6230   57.0550   26.8320 C   0  0  0  0  0  0  0  0  0  0  0  0
   63.7210   56.8690   26.1270 N   0  0  0  0  0  0  0  0  0  0  0  0
   61.4240   56.8220   26.0760 C   0  0  0  0  0  0  0  0  0  0  0  0
   60.7720   55.5800   26.0210 C   0  0  0  0  0  3  0  0  0  0  0  0
   59.6270   55.3370   25.3060 C   0  0  0  0  0  3  0  0  0  0  0  0
   59.0530   56.3280   24.5910 C   0  0  0  0  0  3  0  0  0  0  0  0
   59.6320   57.5680   24.5960 C   0  0  0  0  0  0  0  0  0  0  0  0
   59.0230   58.5790   23.8510 C   0  0  0  0  0  3  0  0  0  0  0  0
   59.5420   59.8340   23.8080 C   0  0  0  0  0  3  0  0  0  0  0  0
   60.7100   60.0730   24.5400 C   0  0  0  0  0  3  0  0  0  0  0  0
   61.2730   59.0600   25.2550 C   0  0  0  0  0  3  0  0  0  0  0  0
   60.7820   57.7890   25.3220 C   0  0  0  0  0  0  0  0  0  0  0  0
   64.1200   57.9950   30.0420 C   0  0  0  0  0  0  0  0  0  0  0  0
   63.7380   59.1220   30.4670 O   0  0  0  0  0  0  0  0  0  0  0  0
   64.6230   57.1540   31.0070 O   0  0  0  0  0  0  0  0  0  0  0  0
   67.4390   57.9050   33.0510 N   0  0  0  0  0  0  0  0  0  0  0  0
   66.8600   57.2800   32.0380 N   0  0  0  0  0  0  0  0  0  0  0  0
   65.5610   57.6050   31.9390 C   0  0  0  0  0  0  0  0  0  0  0  0
   65.3090   58.5030   32.9690 C   0  0  0  0  0  3  0  0  0  0  0  0
   66.4900   58.6640   33.6320 C   0  0  0  0  0  0  0  0  0  0  0  0
   68.4240   57.8270   33.3390 H   0  0  0  0  0  0  0  0  0  0  0  0
   66.7130   59.4960   34.7640 N   0  0  0  0  0  0  0  0  0  0  0  0
   66.0900   59.2160   36.0450 C   0  0  0  0  0  2  0  0  0  0  0  0
   66.9940   59.7830   37.1240 C   0  0  0  0  0  2  0  0  0  0  0  0
   68.3250   59.7180   36.7840 O   0  0  0  0  0  0  0  0  0  0  0  0
   68.6950   60.4270   35.6710 C   0  0  0  0  0  2  0  0  0  0  0  0
   67.5780   60.6590   34.6760 C   0  0  0  0  0  2  0  0  0  0  0  0
  1  2  1  0  0  0  0
  2  3  2  0  0  0  0
  3 17  1  0  0  0  0
  4  3  1  0  0  0  0
  5  4  2  0  0  0  0
  6  1  2  0  0  0  0
  6  5  1  0  0  0  0
  7  5  1  0  0  0  0
  8  7  1  0  0  0  0
  9  8  2  0  0  0  0
 10 11  2  0  0  0  0
 10  9  1  0  0  0  0
 11 16  1  0  0  0  0
 12 11  1  0  0  0  0
 13 12  2  0  0  0  0
 13 14  1  0  0  0  0
 14 15  2  0  0  0  0
 15 16  1  0  0  0  0
 16  7  2  0  0  0  0
 17 18  2  0  0  0  0
 17 19  1  0  0  0  0
 19 22  1  0  0  0  0
 20 25  1  0  0  0  0
 20 24  1  0  0  0  0
 21 20  1  0  0  0  0
 22 21  2  0  0  0  0
 22 23  1  0  0  0  0
 23 24  2  0  0  0  0
 24 26  1  0  0  0  0
 26 27  1  0  0  0  0
 27 28  1  0  0  0  0
 29 28  1  0  0  0  0
 30 29  1  0  0  0  0
 31 26  1  0  0  0  0
 31 30  1  0  0  0  0
M  END
>  <minimizedAffinity>
-7.19515562

$$$$

 OpenBabel03242509313D

 31 35  0  0  0  0  0  0  0  0999 V2000
   65.6680   59.2450   32.3630 C   0  0  0  0  0  3  0  0  0  0  0  0
   65.3940   58.1580   31.5310 C   0  0  0  0  0  3  0  0  0  0  0  0
   64.9890   58.4880   30.2610 C   0  0  0  0  0  0  0  0  0  0  0  0
   64.8970   59.7680   29.9500 N   0  0  0  0  0  0  0  0  0  0  0  0
   65.1410   60.8170   30.6960 C   0  0  0  0  0  0  0  0  0  0  0  0
   65.5290   60.4880   31.9110 N   0  0  0  0  0  0  0  0  0  0  0  0
   65.0820   62.2370   30.4890 C   0  0  0  0  0  0  0  0  0  0  0  0
   64.0980   63.0610   31.0570 C   0  0  0  0  0  3  0  0  0  0  0  0
   64.0240   64.4190   30.8730 C   0  0  0  0  0  3  0  0  0  0  0  0
   64.9360   65.0480   30.1020 C   0  0  0  0  0  3  0  0  0  0  0  0
   65.9270   64.3080   29.5140 C   0  0  0  0  0  0  0  0  0  0  0  0
   66.8610   64.9780   28.7210 C   0  0  0  0  0  3  0  0  0  0  0  0
   67.8720   64.3090   28.1060 C   0  0  0  0  0  3  0  0  0  0  0  0
   67.9400   62.9260   28.2990 C   0  0  0  0  0  3  0  0  0  0  0  0
   67.0100   62.3100   29.0810 C   0  0  0  0  0  3  0  0  0  0  0  0
   65.9830   62.9460   29.7140 C   0  0  0  0  0  0  0  0  0  0  0  0
   64.6710   57.4660   29.2880 C   0  0  0  0  0  0  0  0  0  0  0  0
   65.4430   57.1360   28.3430 O   0  0  0  0  0  0  0  0  0  0  0  0
   63.4830   56.7750   29.3310 O   0  0  0  0  0  0  0  0  0  0  0  0
   61.4600   55.8140   26.5640 N   0  0  0  0  0  0  0  0  0  0  0  0
   62.1880   55.5380   27.6350 N   0  0  0  0  0  0  0  0  0  0  0  0
   62.6760   56.6560   28.1970 C   0  0  0  0  0  0  0  0  0  0  0  0
   62.2170   57.7110   27.4180 C   0  0  0  0  0  3  0  0  0  0  0  0
   61.4710   57.1530   26.4230 C   0  0  0  0  0  0  0  0  0  0  0  0
   60.9790   55.1360   25.9570 H   0  0  0  0  0  0  0  0  0  0  0  0
   60.7980   57.8520   25.3820 N   0  0  0  0  0  0  0  0  0  0  0  0
   59.5380   57.3770   24.8410 C   0  0  0  0  0  2  0  0  0  0  0  0
   58.7830   58.5870   24.3210 C   0  0  0  0  0  2  0  0  0  0  0  0
   59.0270   59.7200   25.0590 O   0  0  0  0  0  0  0  0  0  0  0  0
   60.3270   60.1560   25.0770 C   0  0  0  0  0  2  0  0  0  0  0  0
   61.3540   59.0730   24.8230 C   0  0  0  0  0  2  0  0  0  0  0  0
  2  1  1  0  0  0  0
  3  2  2  0  0  0  0
  4  3  1  0  0  0  0
  4  5  2  0  0  0  0
  5  6  1  0  0  0  0
  6  1  2  0  0  0  0
  7  5  1  0  0  0  0
  7  8  1  0  0  0  0
  9  8  2  0  0  0  0
 10  9  1  0  0  0  0
 11 16  1  0  0  0  0
 11 10  2  0  0  0  0
 12 11  1  0  0  0  0
 13 14  1  0  0  0  0
 13 12  2  0  0  0  0
 14 15  2  0  0  0  0
 15 16  1  0  0  0  0
 16  7  2  0  0  0  0
 17 19  1  0  0  0  0
 17  3  1  0  0  0  0
 18 17  2  0  0  0  0
 20 21  1  0  0  0  0
 21 22  2  0  0  0  0
 22 19  1  0  0  0  0
 23 22  1  0  0  0  0
 24 20  1  0  0  0  0
 24 23  2  0  0  0  0
 25 20  1  0  0  0  0
 26 24  1  0  0  0  0
 27 26  1  0  0  0  0
 28 27  1  0  0  0  0
 28 29  1  0  0  0  0
 29 30  1  0  0  0  0
 31 30  1  0  0  0  0
 31 26  1  0  0  0  0
M  END
>  <minimizedAffinity>
-7.17578125

$$$$

 OpenBabel03242509313D

 31 35  0  0  0  0  0  0  0  0999 V2000
   66.3900   62.7480   30.8740 C   0  0  0  0  0  3  0  0  0  0  0  0
   65.8700   61.7520   31.7010 C   0  0  0  0  0  3  0  0  0  0  0  0
   66.7120   60.6930   31.9350 C   0  0  0  0  0  0  0  0  0  0  0  0
   67.9060   60.7120   31.3710 N   0  0  0  0  0  0  0  0  0  0  0  0
   68.4340   61.6220   30.5900 C   0  0  0  0  0  0  0  0  0  0  0  0
   67.6170   62.6320   30.3730 N   0  0  0  0  0  0  0  0  0  0  0  0
   69.6970   61.7660   29.9190 C   0  0  0  0  0  0  0  0  0  0  0  0
   70.7070   60.7930   29.9550 C   0  0  0  0  0  3  0  0  0  0  0  0
   71.9190   60.9110   29.3220 C   0  0  0  0  0  3  0  0  0  0  0  0
   72.2030   62.0190   28.6050 C   0  0  0  0  0  3  0  0  0  0  0  0
   71.2640   63.0120   28.5250 C   0  0  0  0  0  0  0  0  0  0  0  0
   71.5770   64.1500   27.7780 C   0  0  0  0  0  3  0  0  0  0  0  0
   70.6950   65.1760   27.6540 C   0  0  0  0  0  3  0  0  0  0  0  0
   69.4620   65.0480   28.3030 C   0  0  0  0  0  3  0  0  0  0  0  0
   69.1950   63.9220   29.0210 C   0  0  0  0  0  3  0  0  0  0  0  0
   70.0540   62.8720   29.1680 C   0  0  0  0  0  0  0  0  0  0  0  0
   66.3080   59.5870   32.7730 C   0  0  0  0  0  0  0  0  0  0  0  0
   66.8430   59.3230   33.8880 O   0  0  0  0  0  0  0  0  0  0  0  0
   65.2960   58.7330   32.4020 O   0  0  0  0  0  0  0  0  0  0  0  0
   65.8890   56.8220   29.4590 N   0  0  0  0  0  0  0  0  0  0  0  0
   66.2020   57.2150   30.6840 N   0  0  0  0  0  0  0  0  0  0  0  0
   65.3080   58.0960   31.1590 C   0  0  0  0  0  0  0  0  0  0  0  0
   64.3630   58.2670   30.1540 C   0  0  0  0  0  3  0  0  0  0  0  0
   64.7550   57.4660   29.1240 C   0  0  0  0  0  0  0  0  0  0  0  0
   66.4120   56.1540   28.8750 H   0  0  0  0  0  0  0  0  0  0  0  0
   64.0880   57.3140   27.8760 N   0  0  0  0  0  0  0  0  0  0  0  0
   64.8260   57.1050   26.6430 C   0  0  0  0  0  2  0  0  0  0  0  0
   63.9240   56.3290   25.7000 C   0  0  0  0  0  2  0  0  0  0  0  0
   63.0940   55.4570   26.3620 O   0  0  0  0  0  0  0  0  0  0  0  0
   62.2050   56.0220   27.2400 C   0  0  0  0  0  2  0  0  0  0  0  0
   62.6390   57.3630   27.7930 C   0  0  0  0  0  2  0  0  0  0  0  0
  1  2  1  0  0  0  0
  2  3  2  0  0  0  0
  3 17  1  0  0  0  0
  4  3  1  0  0  0  0
  5  4  2  0  0  0  0
  6  5  1  0  0  0  0
  6  1  2  0  0  0  0
  7  8  1  0  0  0  0
  7  5  1  0  0  0  0
  9  8  2  0  0  0  0
 10  9  1  0  0  0  0
 11 10  2  0  0  0  0
 11 16  1  0  0  0  0
 12 11  1  0  0  0  0
 13 12  2  0  0  0  0
 13 14  1  0  0  0  0
 14 15  2  0  0  0  0
 15 16  1  0  0  0  0
 16  7  2  0  0  0  0
 17 18  2  0  0  0  0
 19 17  1  0  0  0  0
 20 21  1  0  0  0  0
 21 22  2  0  0  0  0
 22 19  1  0  0  0  0
 23 22  1  0  0  0  0
 24 20  1  0  0  0  0
 24 23  2  0  0  0  0
 25 20  1  0  0  0  0
 26 24  1  0  0  0  0
 27 26  1  0  0  0  0
 28 29  1  0  0  0  0
 28 27  1  0  0  0  0
 29 30  1  0  0  0  0
 30 31  1  0  0  0  0
 31 26  1  0  0  0  0
M  END
>  <minimizedAffinity>
-7.15761089

$$$$

 OpenBabel03242509313D

 31 35  0  0  0  0  0  0  0  0999 V2000
   62.8810   56.7230   28.2300 C   0  0  0  0  0  3  0  0  0  0  0  0
   63.6790   57.0710   29.3220 C   0  0  0  0  0  3  0  0  0  0  0  0
   63.4500   58.3260   29.8310 C   0  0  0  0  0  0  0  0  0  0  0  0
   62.5230   59.0690   29.2570 N   0  0  0  0  0  0  0  0  0  0  0  0
   61.7540   58.7860   28.2350 C   0  0  0  0  0  0  0  0  0  0  0  0
   61.9820   57.5800   27.7550 N   0  0  0  0  0  0  0  0  0  0  0  0
   60.7240   59.4890   27.5220 C   0  0  0  0  0  0  0  0  0  0  0  0
   60.0150   58.9370   26.4430 C   0  0  0  0  0  3  0  0  0  0  0  0
   59.0290   59.5910   25.7490 C   0  0  0  0  0  3  0  0  0  0  0  0
   58.6820   60.8500   26.0910 C   0  0  0  0  0  3  0  0  0  0  0  0
   59.3300   61.4540   27.1340 C   0  0  0  0  0  0  0  0  0  0  0  0
   58.9560   62.7560   27.4720 C   0  0  0  0  0  3  0  0  0  0  0  0
   59.5550   63.4180   28.4960 C   0  0  0  0  0  3  0  0  0  0  0  0
   60.5600   62.7440   29.1980 C   0  0  0  0  0  3  0  0  0  0  0  0
   60.8950   61.4750   28.8380 C   0  0  0  0  0  3  0  0  0  0  0  0
   60.3170   60.7780   27.8180 C   0  0  0  0  0  0  0  0  0  0  0  0
   64.2020   58.8220   30.9620 C   0  0  0  0  0  0  0  0  0  0  0  0
   64.6460   60.0030   31.0410 O   0  0  0  0  0  0  0  0  0  0  0  0
   64.4880   58.0240   32.0440 O   0  0  0  0  0  0  0  0  0  0  0  0
   67.5730   56.2620   31.8280 N   0  0  0  0  0  0  0  0  0  0  0  0
   66.3960   56.6270   31.3450 N   0  0  0  0  0  0  0  0  0  0  0  0
   65.7470   57.4370   32.1960 C   0  0  0  0  0  0  0  0  0  0  0  0
   66.5820   57.5900   33.2960 C   0  0  0  0  0  3  0  0  0  0  0  0
   67.6970   56.8530   33.0320 C   0  0  0  0  0  0  0  0  0  0  0  0
   68.2600   55.6460   31.3720 H   0  0  0  0  0  0  0  0  0  0  0  0
   68.8320   56.7100   33.8790 N   0  0  0  0  0  0  0  0  0  0  0  0
   68.8310   55.7850   34.9980 C   0  0  0  0  0  2  0  0  0  0  0  0
   70.2690   55.3630   35.2380 C   0  0  0  0  0  2  0  0  0  0  0  0
   71.0040   55.3060   34.0790 O   0  0  0  0  0  0  0  0  0  0  0  0
   71.1420   56.4880   33.3980 C   0  0  0  0  0  2  0  0  0  0  0  0
   70.0360   57.4900   33.6510 C   0  0  0  0  0  2  0  0  0  0  0  0
  1  2  1  0  0  0  0
  2  3  2  0  0  0  0
  3 17  1  0  0  0  0
  4  3  1  0  0  0  0
  5  4  2  0  0  0  0
  6  1  2  0  0  0  0
  6  5  1  0  0  0  0
  7 16  1  0  0  0  0
  7  5  1  0  0  0  0
  8  7  2  0  0  0  0
  9 10  2  0  0  0  0
  9  8  1  0  0  0  0
 10 11  1  0  0  0  0
 11 12  2  0  0  0  0
 11 16  1  0  0  0  0
 12 13  1  0  0  0  0
 13 14  2  0  0  0  0
 15 14  1  0  0  0  0
 16 15  2  0  0  0  0
 17 18  2  0  0  0  0
 17 19  1  0  0  0  0
 19 22  1  0  0  0  0
 20 24  1  0  0  0  0
 21 20  1  0  0  0  0
 21 22  2  0  0  0  0
 22 23  1  0  0  0  0
 24 23  2  0  0  0  0
 24 26  1  0  0  0  0
 25 20  1  0  0  0  0
 26 27  1  0  0  0  0
 27 28  1  0  0  0  0
 29 28  1  0  0  0  0
 30 31  1  0  0  0  0
 30 29  1  0  0  0  0
 31 26  1  0  0  0  0
M  END
>  <minimizedAffinity>
-7.08265209

$$$$
