
 OpenBabel03242509213D

 35 39  0  0  1  0  0  0  0  0999 V2000
   65.0100   57.3940   31.0620 C   0  0  2  0  0  3  0  0  0  0  0  0
   64.1260   58.3930   31.6430 C   0  0  0  0  0  2  0  0  0  0  0  0
   65.4850   58.3820   32.1490 C   0  0  2  0  0  3  0  0  0  0  0  0
   66.5000   59.3940   31.8090 C   0  0  0  0  0  0  0  0  0  0  0  0
   67.8130   59.5180   32.1730 N   0  0  0  0  0  0  0  0  0  0  0  0
   68.3060   60.5800   31.6380 O   0  0  0  0  0  0  0  0  0  0  0  0
   67.3780   61.1870   30.9200 C   0  0  0  0  0  0  0  0  0  0  0  0
   66.2400   60.4540   31.0200 N   0  0  0  0  0  0  0  0  0  0  0  0
   67.3730   62.3840   30.1260 N   0  0  0  0  0  0  0  0  0  0  0  0
   66.3490   63.2540   30.2610 C   0  0  0  0  0  3  0  0  0  0  0  0
   66.3950   64.4020   29.4640 C   0  0  0  0  0  3  0  0  0  0  0  0
   67.4250   64.6510   28.5780 C   0  0  0  0  0  0  0  0  0  0  0  0
   67.4460   65.8330   27.7770 N   0  0  0  0  0  0  0  0  0  0  0  0
   68.4170   63.7280   28.5020 N   0  0  0  0  0  0  0  0  0  0  0  0
   68.4010   62.6040   29.2610 C   0  0  0  0  0  0  0  0  0  0  0  0
   69.3210   61.7370   29.1960 O   0  0  0  0  0  0  0  0  0  0  0  0
   68.2250   65.9970   27.1220 H   0  0  0  0  0  0  0  0  0  0  0  0
   66.6820   66.5200   27.8530 H   0  0  0  0  0  0  0  0  0  0  0  0
   65.5700   57.5180   29.6960 C   0  0  0  0  0  2  0  0  0  0  0  0
   64.8210   57.3260   27.2640 C   0  0  0  0  0  3  0  0  0  0  0  0
   64.6020   57.3860   28.6430 C   0  0  0  0  0  0  0  0  0  0  0  0
   63.2910   57.3130   29.0760 C   0  0  0  0  0  3  0  0  0  0  0  0
   62.2980   57.1890   28.1350 N   0  0  0  0  0  0  0  0  0  0  0  0
   62.5430   57.1350   26.8090 C   0  0  0  0  0  0  0  0  0  0  0  0
   63.8170   57.2050   26.3880 N   0  0  0  0  0  0  0  0  0  0  0  0
   61.4440   57.0070   25.9140 N   0  0  0  0  0  0  0  0  0  0  0  0
   60.7470   55.8670   25.8790 C   0  0  0  0  0  3  0  0  0  0  0  0
   59.6630   55.6150   25.0620 C   0  0  0  0  0  0  0  0  0  0  0  0
   59.2800   56.6420   24.2130 C   0  0  0  0  0  0  0  0  0  0  0  0
   58.3140   56.4840   23.4500 O   0  0  0  0  0  0  0  0  0  0  0  0
   59.9950   57.7970   24.2540 N   0  0  0  0  0  0  0  0  0  0  0  0
   61.0590   57.9980   25.0820 C   0  0  0  0  0  0  0  0  0  0  0  0
   61.6870   59.0860   25.0810 O   0  0  0  0  0  0  0  0  0  0  0  0
   58.9680   54.3140   25.1110 C   0  0  0  0  0  1  0  0  0  0  0  0
   59.7160   58.5640   23.6250 H   0  0  0  0  0  0  0  0  0  0  0  0
  1 19  1  6  0  0  0
  1  2  1  0  0  0  0
  1  3  1  0  0  0  0
  2  3  1  0  0  0  0
  3  4  1  6  0  0  0
  4  5  2  0  0  0  0
  6  5  1  0  0  0  0
  7  8  2  0  0  0  0
  7  6  1  0  0  0  0
  8  4  1  0  0  0  0
  9 10  1  0  0  0  0
  9  7  1  0  0  0  0
 11 10  2  0  0  0  0
 12 11  1  0  0  0  0
 13 18  1  0  0  0  0
 13 12  1  0  0  0  0
 14 12  2  0  0  0  0
 14 15  1  0  0  0  0
 15  9  1  0  0  0  0
 16 15  2  0  0  0  0
 17 13  1  0  0  0  0
 20 21  1  0  0  0  0
 21 22  2  0  0  0  0
 21 19  1  0  0  0  0
 23 22  1  0  0  0  0
 24 23  2  0  0  0  0
 25 24  1  0  0  0  0
 25 20  2  0  0  0  0
 26 24  1  0  0  0  0
 27 26  1  0  0  0  0
 28 34  1  0  0  0  0
 28 27  2  0  0  0  0
 29 31  1  0  0  0  0
 29 28  1  0  0  0  0
 30 29  2  0  0  0  0
 31 32  1  0  0  0  0
 32 26  1  0  0  0  0
 33 32  2  0  0  0  0
 35 31  1  0  0  0  0
M  END
>  <minimizedAffinity>
-8.22175503

$$$$

 OpenBabel03242509213D

 35 39  0  0  1  0  0  0  0  0999 V2000
   62.7640   56.5180   28.4790 C   0  0  2  0  0  3  0  0  0  0  0  0
   62.9900   55.7770   27.2480 C   0  0  0  0  0  2  0  0  0  0  0  0
   61.7370   56.5010   27.3260 C   0  0  2  0  0  3  0  0  0  0  0  0
   61.4560   57.7480   26.5920 C   0  0  0  0  0  0  0  0  0  0  0  0
   61.8530   58.1800   25.3560 N   0  0  0  0  0  0  0  0  0  0  0  0
   61.3680   59.3520   25.1390 O   0  0  0  0  0  0  0  0  0  0  0  0
   60.6540   59.7380   26.1800 C   0  0  0  0  0  0  0  0  0  0  0  0
   60.7010   58.7410   27.1000 N   0  0  0  0  0  0  0  0  0  0  0  0
   59.9050   60.9270   26.4750 N   0  0  0  0  0  0  0  0  0  0  0  0
   60.0500   61.5080   27.6850 C   0  0  0  0  0  3  0  0  0  0  0  0
   59.2970   62.6630   27.9190 C   0  0  0  0  0  3  0  0  0  0  0  0
   58.4440   63.1980   26.9740 C   0  0  0  0  0  0  0  0  0  0  0  0
   57.6870   64.3800   27.2400 N   0  0  0  0  0  0  0  0  0  0  0  0
   58.3540   62.5550   25.7820 N   0  0  0  0  0  0  0  0  0  0  0  0
   59.0710   61.4330   25.5260 C   0  0  0  0  0  0  0  0  0  0  0  0
   58.9940   60.8260   24.4170 O   0  0  0  0  0  0  0  0  0  0  0  0
   57.0560   64.7600   26.5200 H   0  0  0  0  0  0  0  0  0  0  0  0
   57.7720   64.8510   28.1520 H   0  0  0  0  0  0  0  0  0  0  0  0
   63.4620   57.7870   28.7900 C   0  0  0  0  0  2  0  0  0  0  0  0
   64.0950   58.0770   31.2450 C   0  0  0  0  0  3  0  0  0  0  0  0
   64.3480   57.7180   29.9180 C   0  0  0  0  0  0  0  0  0  0  0  0
   65.6080   57.2290   29.6270 C   0  0  0  0  0  3  0  0  0  0  0  0
   66.5220   57.1300   30.6480 N   0  0  0  0  0  0  0  0  0  0  0  0
   66.2460   57.4890   31.9200 C   0  0  0  0  0  0  0  0  0  0  0  0
   65.0220   57.9630   32.2030 N   0  0  0  0  0  0  0  0  0  0  0  0
   67.2630   57.3490   32.9060 N   0  0  0  0  0  0  0  0  0  0  0  0
   67.6570   56.1300   33.2850 C   0  0  0  0  0  3  0  0  0  0  0  0
   68.6300   55.8580   34.2270 C   0  0  0  0  0  0  0  0  0  0  0  0
   69.2380   56.9550   34.8180 C   0  0  0  0  0  0  0  0  0  0  0  0
   70.1210   56.7840   35.6730 O   0  0  0  0  0  0  0  0  0  0  0  0
   68.8310   58.1910   34.4270 N   0  0  0  0  0  0  0  0  0  0  0  0
   67.8650   58.4080   33.4900 C   0  0  0  0  0  0  0  0  0  0  0  0
   67.5240   59.5720   33.1640 O   0  0  0  0  0  0  0  0  0  0  0  0
   68.9830   54.4660   34.5650 C   0  0  0  0  0  1  0  0  0  0  0  0
   69.2780   59.0110   34.8630 H   0  0  0  0  0  0  0  0  0  0  0  0
  1 19  1  6  0  0  0
  2  3  1  0  0  0  0
  2  1  1  0  0  0  0
  3  4  1  6  0  0  0
  3  1  1  0  0  0  0
  4  8  1  0  0  0  0
  5  4  2  0  0  0  0
  6  5  1  0  0  0  0
  6  7  1  0  0  0  0
  7  9  1  0  0  0  0
  7  8  2  0  0  0  0
  9 10  1  0  0  0  0
 10 11  2  0  0  0  0
 12 13  1  0  0  0  0
 12 11  1  0  0  0  0
 13 18  1  0  0  0  0
 14 12  2  0  0  0  0
 15 14  1  0  0  0  0
 15  9  1  0  0  0  0
 16 15  2  0  0  0  0
 17 13  1  0  0  0  0
 19 21  1  0  0  0  0
 20 25  2  0  0  0  0
 21 20  1  0  0  0  0
 22 21  2  0  0  0  0
 22 23  1  0  0  0  0
 23 24  2  0  0  0  0
 24 25  1  0  0  0  0
 24 26  1  0  0  0  0
 26 27  1  0  0  0  0
 26 32  1  0  0  0  0
 27 28  2  0  0  0  0
 28 34  1  0  0  0  0
 28 29  1  0  0  0  0
 29 30  2  0  0  0  0
 31 29  1  0  0  0  0
 31 35  1  0  0  0  0
 32 31  1  0  0  0  0
 33 32  2  0  0  0  0
M  END
>  <minimizedAffinity>
-7.76349211

$$$$

 OpenBabel03242509213D

 35 39  0  0  1  0  0  0  0  0999 V2000
   61.4500   55.9040   25.9620 C   0  0  2  0  0  3  0  0  0  0  0  0
   60.5370   55.8110   24.8320 C   0  0  0  0  0  2  0  0  0  0  0  0
   60.1410   56.7210   25.8890 C   0  0  2  0  0  3  0  0  0  0  0  0
   60.2130   58.1900   25.7840 C   0  0  0  0  0  0  0  0  0  0  0  0
   60.2780   59.0180   24.6970 N   0  0  0  0  0  0  0  0  0  0  0  0
   60.3390   60.2400   25.0960 O   0  0  0  0  0  0  0  0  0  0  0  0
   60.3180   60.2780   26.4160 C   0  0  0  0  0  0  0  0  0  0  0  0
   60.2400   58.9990   26.8610 N   0  0  0  0  0  0  0  0  0  0  0  0
   60.3620   61.3510   27.3710 N   0  0  0  0  0  0  0  0  0  0  0  0
   61.1890   61.2460   28.4330 C   0  0  0  0  0  3  0  0  0  0  0  0
   61.1920   62.3180   29.3310 C   0  0  0  0  0  3  0  0  0  0  0  0
   60.3970   63.4340   29.1590 C   0  0  0  0  0  0  0  0  0  0  0  0
   60.4200   64.5150   30.0920 N   0  0  0  0  0  0  0  0  0  0  0  0
   59.5930   63.4630   28.0650 N   0  0  0  0  0  0  0  0  0  0  0  0
   59.5680   62.4380   27.1760 C   0  0  0  0  0  0  0  0  0  0  0  0
   58.8210   62.4560   26.1540 O   0  0  0  0  0  0  0  0  0  0  0  0
   59.8180   65.3370   29.9430 H   0  0  0  0  0  0  0  0  0  0  0  0
   61.0390   64.4720   30.9140 H   0  0  0  0  0  0  0  0  0  0  0  0
   62.7420   56.6250   25.8900 C   0  0  0  0  0  2  0  0  0  0  0  0
   62.6390   57.1380   28.3880 C   0  0  0  0  0  3  0  0  0  0  0  0
   63.2990   56.9740   27.1670 C   0  0  0  0  0  0  0  0  0  0  0  0
   64.6680   57.1690   27.1590 C   0  0  0  0  0  3  0  0  0  0  0  0
   65.2860   57.5100   28.3380 N   0  0  0  0  0  0  0  0  0  0  0  0
   64.6180   57.6610   29.5020 C   0  0  0  0  0  0  0  0  0  0  0  0
   63.2890   57.4710   29.5090 N   0  0  0  0  0  0  0  0  0  0  0  0
   65.3500   58.0160   30.6690 N   0  0  0  0  0  0  0  0  0  0  0  0
   66.1960   57.1370   31.2150 C   0  0  0  0  0  3  0  0  0  0  0  0
   66.9640   57.3560   32.3420 C   0  0  0  0  0  0  0  0  0  0  0  0
   66.8330   58.5990   32.9440 C   0  0  0  0  0  0  0  0  0  0  0  0
   67.4920   58.8630   33.9610 O   0  0  0  0  0  0  0  0  0  0  0  0
   65.9700   59.4860   32.3830 N   0  0  0  0  0  0  0  0  0  0  0  0
   65.2340   59.2220   31.2670 C   0  0  0  0  0  0  0  0  0  0  0  0
   64.4490   60.0780   30.7880 O   0  0  0  0  0  0  0  0  0  0  0  0
   67.8660   56.3080   32.8540 C   0  0  0  0  0  1  0  0  0  0  0  0
   65.8670   60.4110   32.8260 H   0  0  0  0  0  0  0  0  0  0  0  0
  1 19  1  6  0  0  0
  2  3  1  0  0  0  0
  2  1  1  0  0  0  0
  3  4  1  6  0  0  0
  3  1  1  0  0  0  0
  4  8  1  0  0  0  0
  5  6  1  0  0  0  0
  5  4  2  0  0  0  0
  6  7  1  0  0  0  0
  7  8  2  0  0  0  0
  7  9  1  0  0  0  0
  9 10  1  0  0  0  0
 10 11  2  0  0  0  0
 12 11  1  0  0  0  0
 12 13  1  0  0  0  0
 13 18  1  0  0  0  0
 14 12  2  0  0  0  0
 15  9  1  0  0  0  0
 15 14  1  0  0  0  0
 16 15  2  0  0  0  0
 17 13  1  0  0  0  0
 19 21  1  0  0  0  0
 20 25  2  0  0  0  0
 21 20  1  0  0  0  0
 22 21  2  0  0  0  0
 22 23  1  0  0  0  0
 23 24  2  0  0  0  0
 24 25  1  0  0  0  0
 24 26  1  0  0  0  0
 26 27  1  0  0  0  0
 26 32  1  0  0  0  0
 27 28  2  0  0  0  0
 28 34  1  0  0  0  0
 28 29  1  0  0  0  0
 29 30  2  0  0  0  0
 31 35  1  0  0  0  0
 31 29  1  0  0  0  0
 32 31  1  0  0  0  0
 33 32  2  0  0  0  0
M  END
>  <minimizedAffinity>
-7.61245537

$$$$

 OpenBabel03242509213D

 35 39  0  0  1  0  0  0  0  0999 V2000
   63.6050   56.5640   27.0950 C   0  0  2  0  0  3  0  0  0  0  0  0
   63.9280   57.0540   25.7640 C   0  0  0  0  0  2  0  0  0  0  0  0
   62.7040   56.2860   25.8720 C   0  0  2  0  0  3  0  0  0  0  0  0
   61.3530   56.8740   25.8240 C   0  0  0  0  0  0  0  0  0  0  0  0
   60.1220   56.3030   25.6540 N   0  0  0  0  0  0  0  0  0  0  0  0
   59.2200   57.2210   25.6680 O   0  0  0  0  0  0  0  0  0  0  0  0
   59.7890   58.4000   25.8420 C   0  0  0  0  0  0  0  0  0  0  0  0
   61.1270   58.1970   25.9400 N   0  0  0  0  0  0  0  0  0  0  0  0
   59.2750   59.7380   25.9350 N   0  0  0  0  0  0  0  0  0  0  0  0
   59.8800   60.7210   25.2330 C   0  0  0  0  0  3  0  0  0  0  0  0
   59.3390   62.0040   25.3600 C   0  0  0  0  0  3  0  0  0  0  0  0
   58.2430   62.2730   26.1560 C   0  0  0  0  0  0  0  0  0  0  0  0
   57.7100   63.5930   26.2670 N   0  0  0  0  0  0  0  0  0  0  0  0
   57.6910   61.2300   26.8280 N   0  0  0  0  0  0  0  0  0  0  0  0
   58.1940   59.9740   26.7260 C   0  0  0  0  0  0  0  0  0  0  0  0
   57.6870   58.9960   27.3500 O   0  0  0  0  0  0  0  0  0  0  0  0
   56.8920   63.7700   26.8680 H   0  0  0  0  0  0  0  0  0  0  0  0
   58.1450   64.3690   25.7460 H   0  0  0  0  0  0  0  0  0  0  0  0
   63.0920   57.4440   28.1710 C   0  0  0  0  0  2  0  0  0  0  0  0
   63.6700   58.0670   30.5770 C   0  0  0  0  0  3  0  0  0  0  0  0
   63.9620   57.5630   29.3060 C   0  0  0  0  0  0  0  0  0  0  0  0
   65.2520   57.1160   29.0880 C   0  0  0  0  0  3  0  0  0  0  0  0
   66.1550   57.1950   30.1210 N   0  0  0  0  0  0  0  0  0  0  0  0
   65.8400   57.6890   31.3370 C   0  0  0  0  0  0  0  0  0  0  0  0
   64.5870   58.1230   31.5500 N   0  0  0  0  0  0  0  0  0  0  0  0
   66.8470   57.7300   32.3410 N   0  0  0  0  0  0  0  0  0  0  0  0
   67.3030   56.5900   32.8700 C   0  0  0  0  0  3  0  0  0  0  0  0
   68.2750   56.4910   33.8460 C   0  0  0  0  0  0  0  0  0  0  0  0
   68.8120   57.6860   34.3030 C   0  0  0  0  0  0  0  0  0  0  0  0
   69.6900   57.6710   35.1800 O   0  0  0  0  0  0  0  0  0  0  0  0
   68.3430   58.8400   33.7610 N   0  0  0  0  0  0  0  0  0  0  0  0
   67.3800   58.8850   32.7970 C   0  0  0  0  0  0  0  0  0  0  0  0
   66.9800   59.9790   32.3280 O   0  0  0  0  0  0  0  0  0  0  0  0
   68.7010   55.1740   34.3550 C   0  0  0  0  0  1  0  0  0  0  0  0
   68.7360   59.7300   34.0970 H   0  0  0  0  0  0  0  0  0  0  0  0
  1 19  1  1  0  0  0
  2  3  1  0  0  0  0
  2  1  1  0  0  0  0
  3  4  1  1  0  0  0
  3  1  1  0  0  0  0
  4  8  1  0  0  0  0
  5  6  1  0  0  0  0
  5  4  2  0  0  0  0
  6  7  1  0  0  0  0
  7  9  1  0  0  0  0
  7  8  2  0  0  0  0
  9 15  1  0  0  0  0
 10 11  2  0  0  0  0
 10  9  1  0  0  0  0
 11 12  1  0  0  0  0
 12 13  1  0  0  0  0
 12 14  2  0  0  0  0
 13 17  1  0  0  0  0
 15 14  1  0  0  0  0
 15 16  2  0  0  0  0
 18 13  1  0  0  0  0
 19 21  1  0  0  0  0
 20 25  2  0  0  0  0
 21 20  1  0  0  0  0
 22 21  2  0  0  0  0
 22 23  1  0  0  0  0
 23 24  2  0  0  0  0
 24 25  1  0  0  0  0
 24 26  1  0  0  0  0
 26 32  1  0  0  0  0
 26 27  1  0  0  0  0
 27 28  2  0  0  0  0
 28 29  1  0  0  0  0
 28 34  1  0  0  0  0
 29 30  2  0  0  0  0
 31 35  1  0  0  0  0
 31 29  1  0  0  0  0
 32 31  1  0  0  0  0
 33 32  2  0  0  0  0
M  END
>  <minimizedAffinity>
-7.41789484

$$$$

 OpenBabel03242509213D

 35 39  0  0  1  0  0  0  0  0999 V2000
   65.7750   56.7780   31.0850 C   0  0  2  0  0  3  0  0  0  0  0  0
   65.1400   57.5640   32.1330 C   0  0  0  0  0  2  0  0  0  0  0  0
   66.5780   57.4130   32.2420 C   0  0  2  0  0  3  0  0  0  0  0  0
   67.5460   58.4850   31.9450 C   0  0  0  0  0  0  0  0  0  0  0  0
   68.9010   58.4550   31.7570 N   0  0  0  0  0  0  0  0  0  0  0  0
   69.3260   59.6490   31.5320 O   0  0  0  0  0  0  0  0  0  0  0  0
   68.3120   60.4940   31.5590 C   0  0  0  0  0  0  0  0  0  0  0  0
   67.1890   59.7770   31.8180 N   0  0  0  0  0  0  0  0  0  0  0  0
   68.2090   61.9150   31.3770 N   0  0  0  0  0  0  0  0  0  0  0  0
   67.4690   62.6340   32.2490 C   0  0  0  0  0  3  0  0  0  0  0  0
   67.4030   64.0120   32.0250 C   0  0  0  0  0  3  0  0  0  0  0  0
   68.0530   64.6270   30.9730 C   0  0  0  0  0  0  0  0  0  0  0  0
   67.9680   66.0370   30.7680 N   0  0  0  0  0  0  0  0  0  0  0  0
   68.7770   63.8350   30.1410 N   0  0  0  0  0  0  0  0  0  0  0  0
   68.8600   62.4940   30.3320 C   0  0  0  0  0  0  0  0  0  0  0  0
   69.5320   61.7480   29.5610 O   0  0  0  0  0  0  0  0  0  0  0  0
   68.4620   66.4730   29.9750 H   0  0  0  0  0  0  0  0  0  0  0  0
   67.4140   66.6190   31.4130 H   0  0  0  0  0  0  0  0  0  0  0  0
   65.9810   57.2930   29.7120 C   0  0  0  0  0  2  0  0  0  0  0  0
   63.4690   57.1900   29.2770 C   0  0  0  0  0  3  0  0  0  0  0  0
   64.8080   57.2630   28.8840 C   0  0  0  0  0  0  0  0  0  0  0  0
   65.0640   57.3150   27.5260 C   0  0  0  0  0  3  0  0  0  0  0  0
   64.0000   57.2880   26.6590 N   0  0  0  0  0  0  0  0  0  0  0  0
   62.7160   57.2160   27.0710 C   0  0  0  0  0  0  0  0  0  0  0  0
   62.4670   57.1670   28.3900 N   0  0  0  0  0  0  0  0  0  0  0  0
   61.6830   57.1930   26.0930 N   0  0  0  0  0  0  0  0  0  0  0  0
   61.4360   58.2860   25.3640 C   0  0  0  0  0  3  0  0  0  0  0  0
   60.4670   58.3950   24.3860 C   0  0  0  0  0  0  0  0  0  0  0  0
   59.6960   57.2660   24.1550 C   0  0  0  0  0  0  0  0  0  0  0  0
   58.8060   57.2940   23.2900 O   0  0  0  0  0  0  0  0  0  0  0  0
   59.9530   56.1590   24.9010 N   0  0  0  0  0  0  0  0  0  0  0  0
   60.9240   56.1010   25.8560 C   0  0  0  0  0  0  0  0  0  0  0  0
   61.1220   55.0530   26.5190 O   0  0  0  0  0  0  0  0  0  0  0  0
   60.2850   59.6570   23.6430 C   0  0  0  0  0  1  0  0  0  0  0  0
   59.3830   55.3180   24.7350 H   0  0  0  0  0  0  0  0  0  0  0  0
  1 19  1  6  0  0  0
  1  2  1  0  0  0  0
  1  3  1  0  0  0  0
  2  3  1  0  0  0  0
  3  4  1  6  0  0  0
  5  4  2  0  0  0  0
  6  7  1  0  0  0  0
  6  5  1  0  0  0  0
  7  8  2  0  0  0  0
  8  4  1  0  0  0  0
  9  7  1  0  0  0  0
  9 10  1  0  0  0  0
 11 10  2  0  0  0  0
 12 11  1  0  0  0  0
 13 12  1  0  0  0  0
 13 18  1  0  0  0  0
 14 15  1  0  0  0  0
 14 12  2  0  0  0  0
 15  9  1  0  0  0  0
 16 15  2  0  0  0  0
 17 13  1  0  0  0  0
 21 20  1  0  0  0  0
 21 19  1  0  0  0  0
 22 21  2  0  0  0  0
 23 24  2  0  0  0  0
 23 22  1  0  0  0  0
 24 25  1  0  0  0  0
 25 20  2  0  0  0  0
 26 24  1  0  0  0  0
 27 26  1  0  0  0  0
 28 27  2  0  0  0  0
 29 28  1  0  0  0  0
 29 31  1  0  0  0  0
 30 29  2  0  0  0  0
 31 32  1  0  0  0  0
 32 26  1  0  0  0  0
 32 33  2  0  0  0  0
 34 28  1  0  0  0  0
 35 31  1  0  0  0  0
M  END
>  <minimizedAffinity>
-7.06854582

$$$$

 OpenBabel03242509213D

 35 39  0  0  1  0  0  0  0  0999 V2000
   65.0970   57.3540   30.9040 C   0  0  2  0  0  3  0  0  0  0  0  0
   64.0990   58.2790   31.4200 C   0  0  0  0  0  2  0  0  0  0  0  0
   65.4540   58.4850   31.8930 C   0  0  2  0  0  3  0  0  0  0  0  0
   66.3270   59.5850   31.4450 C   0  0  0  0  0  0  0  0  0  0  0  0
   66.0660   60.7000   30.6960 N   0  0  0  0  0  0  0  0  0  0  0  0
   67.1510   61.3760   30.5460 O   0  0  0  0  0  0  0  0  0  0  0  0
   68.1450   60.7640   31.1640 C   0  0  0  0  0  0  0  0  0  0  0  0
   67.6420   59.6380   31.7310 N   0  0  0  0  0  0  0  0  0  0  0  0
   69.5410   61.0630   31.3200 N   0  0  0  0  0  0  0  0  0  0  0  0
   70.4460   60.0800   31.1260 C   0  0  0  0  0  3  0  0  0  0  0  0
   71.7910   60.4260   31.2910 C   0  0  0  0  0  3  0  0  0  0  0  0
   72.1930   61.7010   31.6350 C   0  0  0  0  0  0  0  0  0  0  0  0
   73.5740   62.0270   31.7970 N   0  0  0  0  0  0  0  0  0  0  0  0
   71.2220   62.6330   31.8120 N   0  0  0  0  0  0  0  0  0  0  0  0
   69.9090   62.3280   31.6600 C   0  0  0  0  0  0  0  0  0  0  0  0
   68.9970   63.1910   31.8230 O   0  0  0  0  0  0  0  0  0  0  0  0
   73.8500   62.9860   32.0550 H   0  0  0  0  0  0  0  0  0  0  0  0
   74.2940   61.3030   31.6570 H   0  0  0  0  0  0  0  0  0  0  0  0
   65.6190   57.4290   29.5200 C   0  0  0  0  0  2  0  0  0  0  0  0
   64.7820   57.3220   27.1120 C   0  0  0  0  0  3  0  0  0  0  0  0
   64.6150   57.3190   28.4990 C   0  0  0  0  0  0  0  0  0  0  0  0
   63.3230   57.1960   28.9780 C   0  0  0  0  0  3  0  0  0  0  0  0
   62.2980   57.0880   28.0710 N   0  0  0  0  0  0  0  0  0  0  0  0
   62.4930   57.0960   26.7350 C   0  0  0  0  0  0  0  0  0  0  0  0
   63.7470   57.2140   26.2700 N   0  0  0  0  0  0  0  0  0  0  0  0
   61.3630   56.9790   25.8770 N   0  0  0  0  0  0  0  0  0  0  0  0
   60.6910   55.8260   25.8200 C   0  0  0  0  0  3  0  0  0  0  0  0
   59.5820   55.5820   25.0330 C   0  0  0  0  0  0  0  0  0  0  0  0
   59.1440   56.6360   24.2440 C   0  0  0  0  0  0  0  0  0  0  0  0
   58.1530   56.4870   23.5120 O   0  0  0  0  0  0  0  0  0  0  0  0
   59.8340   57.8050   24.3090 N   0  0  0  0  0  0  0  0  0  0  0  0
   60.9240   57.9950   25.1040 C   0  0  0  0  0  0  0  0  0  0  0  0
   61.5280   59.0970   25.1260 O   0  0  0  0  0  0  0  0  0  0  0  0
   58.9190   54.2650   25.0520 C   0  0  0  0  0  1  0  0  0  0  0  0
   59.5150   58.5900   23.7240 H   0  0  0  0  0  0  0  0  0  0  0  0
  1 19  1  6  0  0  0
  1  2  1  0  0  0  0
  1  3  1  0  0  0  0
  2  3  1  0  0  0  0
  3  4  1  6  0  0  0
  4  8  1  0  0  0  0
  5  4  2  0  0  0  0
  6  5  1  0  0  0  0
  6  7  1  0  0  0  0
  7  9  1  0  0  0  0
  7  8  2  0  0  0  0
  9 15  1  0  0  0  0
 10 11  2  0  0  0  0
 10  9  1  0  0  0  0
 11 12  1  0  0  0  0
 12 13  1  0  0  0  0
 12 14  2  0  0  0  0
 13 17  1  0  0  0  0
 15 14  1  0  0  0  0
 15 16  2  0  0  0  0
 18 13  1  0  0  0  0
 20 21  1  0  0  0  0
 21 22  2  0  0  0  0
 21 19  1  0  0  0  0
 23 22  1  0  0  0  0
 24 23  2  0  0  0  0
 25 24  1  0  0  0  0
 25 20  2  0  0  0  0
 26 24  1  0  0  0  0
 27 26  1  0  0  0  0
 28 34  1  0  0  0  0
 28 27  2  0  0  0  0
 29 31  1  0  0  0  0
 29 28  1  0  0  0  0
 30 29  2  0  0  0  0
 31 32  1  0  0  0  0
 32 33  2  0  0  0  0
 32 26  1  0  0  0  0
 35 31  1  0  0  0  0
M  END
>  <minimizedAffinity>
-7.06667566

$$$$

 OpenBabel03242509213D

 35 39  0  0  1  0  0  0  0  0999 V2000
   67.4900   58.2480   33.5860 C   0  0  2  0  0  3  0  0  0  0  0  0
   68.5270   58.5200   34.5690 C   0  0  0  0  0  2  0  0  0  0  0  0
   68.8270   58.9240   33.2100 C   0  0  2  0  0  3  0  0  0  0  0  0
   68.8210   60.3220   32.7430 C   0  0  0  0  0  0  0  0  0  0  0  0
   69.1230   61.4920   33.3850 N   0  0  0  0  0  0  0  0  0  0  0  0
   68.9620   62.4770   32.5730 O   0  0  0  0  0  0  0  0  0  0  0  0
   68.5610   62.0250   31.3990 C   0  0  0  0  0  0  0  0  0  0  0  0
   68.4680   60.6740   31.4920 N   0  0  0  0  0  0  0  0  0  0  0  0
   68.2370   62.6650   30.1550 N   0  0  0  0  0  0  0  0  0  0  0  0
   67.1120   62.2970   29.5040 C   0  0  0  0  0  3  0  0  0  0  0  0
   66.8450   62.9520   28.2980 C   0  0  0  0  0  3  0  0  0  0  0  0
   67.6760   63.9270   27.7820 C   0  0  0  0  0  0  0  0  0  0  0  0
   67.3780   64.5800   26.5480 N   0  0  0  0  0  0  0  0  0  0  0  0
   68.7860   64.2410   28.4970 N   0  0  0  0  0  0  0  0  0  0  0  0
   69.0730   63.6220   29.6700 C   0  0  0  0  0  0  0  0  0  0  0  0
   70.1070   63.9080   30.3430 O   0  0  0  0  0  0  0  0  0  0  0  0
   68.0130   65.3050   26.1820 H   0  0  0  0  0  0  0  0  0  0  0  0
   66.5280   64.3270   26.0230 H   0  0  0  0  0  0  0  0  0  0  0  0
   66.2430   59.0420   33.4960 C   0  0  0  0  0  2  0  0  0  0  0  0
   65.1770   59.8830   31.3350 C   0  0  0  0  0  3  0  0  0  0  0  0
   65.5320   58.8940   32.2560 C   0  0  0  0  0  0  0  0  0  0  0  0
   65.1620   57.5950   31.9600 C   0  0  0  0  0  3  0  0  0  0  0  0
   64.4750   57.3610   30.7940 N   0  0  0  0  0  0  0  0  0  0  0  0
   64.1460   58.3400   29.9250 C   0  0  0  0  0  0  0  0  0  0  0  0
   64.5060   59.6020   30.2120 N   0  0  0  0  0  0  0  0  0  0  0  0
   63.4310   57.9950   28.7430 N   0  0  0  0  0  0  0  0  0  0  0  0
   64.0360   57.2840   27.7870 C   0  0  0  0  0  3  0  0  0  0  0  0
   63.4580   56.8840   26.5980 C   0  0  0  0  0  0  0  0  0  0  0  0
   62.1380   57.2610   26.3980 C   0  0  0  0  0  0  0  0  0  0  0  0
   61.5560   56.9360   25.3520 O   0  0  0  0  0  0  0  0  0  0  0  0
   61.5310   57.9840   27.3760 N   0  0  0  0  0  0  0  0  0  0  0  0
   62.1460   58.3540   28.5350 C   0  0  0  0  0  0  0  0  0  0  0  0
   61.5400   59.0230   29.4080 O   0  0  0  0  0  0  0  0  0  0  0  0
   64.2260   56.0990   25.6130 C   0  0  0  0  0  1  0  0  0  0  0  0
   60.5510   58.2680   27.2330 H   0  0  0  0  0  0  0  0  0  0  0  0
  1 19  1  1  0  0  0
  1  2  1  0  0  0  0
  3  4  1  1  0  0  0
  3  1  1  0  0  0  0
  3  2  1  0  0  0  0
  4  5  2  0  0  0  0
  6  5  1  0  0  0  0
  7  8  2  0  0  0  0
  7  6  1  0  0  0  0
  8  4  1  0  0  0  0
  9  7  1  0  0  0  0
 10  9  1  0  0  0  0
 11 10  2  0  0  0  0
 12 11  1  0  0  0  0
 12 14  2  0  0  0  0
 13 12  1  0  0  0  0
 14 15  1  0  0  0  0
 15  9  1  0  0  0  0
 15 16  2  0  0  0  0
 17 13  1  0  0  0  0
 18 13  1  0  0  0  0
 20 21  1  0  0  0  0
 21 19  1  0  0  0  0
 22 21  2  0  0  0  0
 23 22  1  0  0  0  0
 24 25  1  0  0  0  0
 24 23  2  0  0  0  0
 25 20  2  0  0  0  0
 26 24  1  0  0  0  0
 27 26  1  0  0  0  0
 28 27  2  0  0  0  0
 29 28  1  0  0  0  0
 29 31  1  0  0  0  0
 30 29  2  0  0  0  0
 31 32  1  0  0  0  0
 32 26  1  0  0  0  0
 32 33  2  0  0  0  0
 34 28  1  0  0  0  0
 35 31  1  0  0  0  0
M  END
>  <minimizedAffinity>
-7.01362419

$$$$

 OpenBabel03242509213D

 35 39  0  0  1  0  0  0  0  0999 V2000
   64.8870   59.0800   31.6840 C   0  0  2  0  0  3  0  0  0  0  0  0
   66.0410   58.1960   31.6370 C   0  0  0  0  0  2  0  0  0  0  0  0
   64.8180   57.6660   31.0670 C   0  0  2  0  0  3  0  0  0  0  0  0
   64.5760   57.5210   29.6200 C   0  0  0  0  0  0  0  0  0  0  0  0
   65.4360   57.3270   28.5740 N   0  0  0  0  0  0  0  0  0  0  0  0
   64.7660   57.2730   27.4760 O   0  0  0  0  0  0  0  0  0  0  0  0
   63.4790   57.4230   27.7330 C   0  0  0  0  0  0  0  0  0  0  0  0
   63.3460   57.5810   29.0750 N   0  0  0  0  0  0  0  0  0  0  0  0
   62.3050   57.4460   26.9060 N   0  0  0  0  0  0  0  0  0  0  0  0
   61.3850   58.4130   27.1050 C   0  0  0  0  0  3  0  0  0  0  0  0
   60.2620   58.3880   26.2720 C   0  0  0  0  0  3  0  0  0  0  0  0
   60.0850   57.4320   25.2910 C   0  0  0  0  0  0  0  0  0  0  0  0
   58.9280   57.4310   24.4540 N   0  0  0  0  0  0  0  0  0  0  0  0
   61.0560   56.4940   25.1540 N   0  0  0  0  0  0  0  0  0  0  0  0
   62.1570   56.4920   25.9470 C   0  0  0  0  0  0  0  0  0  0  0  0
   63.0680   55.6200   25.8280 O   0  0  0  0  0  0  0  0  0  0  0  0
   58.8180   56.7070   23.7290 H   0  0  0  0  0  0  0  0  0  0  0  0
   58.2040   58.1540   24.5750 H   0  0  0  0  0  0  0  0  0  0  0  0
   64.7400   60.2520   30.7900 C   0  0  0  0  0  2  0  0  0  0  0  0
   66.8400   61.4300   31.6340 C   0  0  0  0  0  3  0  0  0  0  0  0
   65.9290   61.0440   30.6470 C   0  0  0  0  0  0  0  0  0  0  0  0
   66.1840   61.4670   29.3560 C   0  0  0  0  0  3  0  0  0  0  0  0
   67.3010   62.2330   29.1270 N   0  0  0  0  0  0  0  0  0  0  0  0
   68.1610   62.5900   30.1050 C   0  0  0  0  0  0  0  0  0  0  0  0
   67.9150   62.1790   31.3590 N   0  0  0  0  0  0  0  0  0  0  0  0
   69.2900   63.3870   29.7650 N   0  0  0  0  0  0  0  0  0  0  0  0
   70.2730   62.8640   29.0260 C   0  0  0  0  0  3  0  0  0  0  0  0
   71.4180   63.5270   28.6290 C   0  0  0  0  0  0  0  0  0  0  0  0
   71.5390   64.8460   29.0390 C   0  0  0  0  0  0  0  0  0  0  0  0
   72.5420   65.5020   28.7180 O   0  0  0  0  0  0  0  0  0  0  0  0
   70.5350   65.3700   29.7900 N   0  0  0  0  0  0  0  0  0  0  0  0
   69.4220   64.6730   30.1570 C   0  0  0  0  0  0  0  0  0  0  0  0
   68.5220   65.2040   30.8530 O   0  0  0  0  0  0  0  0  0  0  0  0
   72.4380   62.8440   27.8110 C   0  0  0  0  0  1  0  0  0  0  0  0
   70.6190   66.3490   30.1000 H   0  0  0  0  0  0  0  0  0  0  0  0
  1 19  1  6  0  0  0
  2  1  1  0  0  0  0
  3  4  1  6  0  0  0
  3  2  1  0  0  0  0
  3  1  1  0  0  0  0
  5  4  2  0  0  0  0
  6  7  1  0  0  0  0
  6  5  1  0  0  0  0
  7  8  2  0  0  0  0
  8  4  1  0  0  0  0
  9 10  1  0  0  0  0
  9  7  1  0  0  0  0
 11 10  2  0  0  0  0
 12 11  1  0  0  0  0
 13 18  1  0  0  0  0
 13 12  1  0  0  0  0
 14 12  2  0  0  0  0
 14 15  1  0  0  0  0
 15  9  1  0  0  0  0
 16 15  2  0  0  0  0
 17 13  1  0  0  0  0
 21 19  1  0  0  0  0
 21 20  1  0  0  0  0
 22 21  2  0  0  0  0
 23 22  1  0  0  0  0
 23 24  2  0  0  0  0
 24 25  1  0  0  0  0
 25 20  2  0  0  0  0
 26 24  1  0  0  0  0
 26 32  1  0  0  0  0
 27 26  1  0  0  0  0
 28 27  2  0  0  0  0
 28 29  1  0  0  0  0
 29 31  1  0  0  0  0
 30 29  2  0  0  0  0
 31 35  1  0  0  0  0
 31 32  1  0  0  0  0
 32 33  2  0  0  0  0
 34 28  1  0  0  0  0
M  END
>  <minimizedAffinity>
-7.01124334

$$$$

 OpenBabel03242509213D

 35 39  0  0  1  0  0  0  0  0999 V2000
   65.3050   59.0290   31.3650 C   0  0  2  0  0  3  0  0  0  0  0  0
   66.0710   57.7920   31.3880 C   0  0  0  0  0  2  0  0  0  0  0  0
   64.7290   57.6920   30.8500 C   0  0  2  0  0  3  0  0  0  0  0  0
   64.4230   57.5430   29.4160 C   0  0  0  0  0  0  0  0  0  0  0  0
   65.2250   57.2590   28.3440 N   0  0  0  0  0  0  0  0  0  0  0  0
   64.5120   57.2430   27.2720 O   0  0  0  0  0  0  0  0  0  0  0  0
   63.2540   57.5070   27.5710 C   0  0  0  0  0  0  0  0  0  0  0  0
   63.1840   57.6980   28.9120 N   0  0  0  0  0  0  0  0  0  0  0  0
   62.0560   57.6160   26.7850 N   0  0  0  0  0  0  0  0  0  0  0  0
   61.2290   58.6620   26.9950 C   0  0  0  0  0  3  0  0  0  0  0  0
   60.0780   58.7180   26.2030 C   0  0  0  0  0  3  0  0  0  0  0  0
   59.7850   57.7640   25.2480 C   0  0  0  0  0  0  0  0  0  0  0  0
   58.6030   57.8470   24.4520 N   0  0  0  0  0  0  0  0  0  0  0  0
   60.6680   56.7440   25.0970 N   0  0  0  0  0  0  0  0  0  0  0  0
   61.7930   56.6610   25.8510 C   0  0  0  0  0  0  0  0  0  0  0  0
   62.6220   55.7130   25.7170 O   0  0  0  0  0  0  0  0  0  0  0  0
   58.4050   57.1230   23.7460 H   0  0  0  0  0  0  0  0  0  0  0  0
   57.9470   58.6310   24.5840 H   0  0  0  0  0  0  0  0  0  0  0  0
   65.5640   60.1130   30.3900 C   0  0  0  0  0  2  0  0  0  0  0  0
   64.0290   62.1050   29.9560 C   0  0  0  0  0  3  0  0  0  0  0  0
   64.9400   61.3660   30.7140 C   0  0  0  0  0  0  0  0  0  0  0  0
   65.3070   61.8860   31.9420 C   0  0  0  0  0  3  0  0  0  0  0  0
   64.7610   63.0840   32.3330 N   0  0  0  0  0  0  0  0  0  0  0  0
   63.8830   63.7750   31.5740 C   0  0  0  0  0  0  0  0  0  0  0  0
   63.5260   63.2700   30.3830 N   0  0  0  0  0  0  0  0  0  0  0  0
   63.3740   65.0090   32.0690 N   0  0  0  0  0  0  0  0  0  0  0  0
   62.5440   65.0120   33.1160 C   0  0  0  0  0  3  0  0  0  0  0  0
   61.9820   66.1350   33.6920 C   0  0  0  0  0  0  0  0  0  0  0  0
   62.3210   67.3530   33.1220 C   0  0  0  0  0  0  0  0  0  0  0  0
   61.8520   68.4030   33.5880 O   0  0  0  0  0  0  0  0  0  0  0  0
   63.1650   67.3410   32.0570 N   0  0  0  0  0  0  0  0  0  0  0  0
   63.6940   66.2030   31.5250 C   0  0  0  0  0  0  0  0  0  0  0  0
   64.4710   66.2460   30.5390 O   0  0  0  0  0  0  0  0  0  0  0  0
   61.0760   66.0150   34.8500 C   0  0  0  0  0  1  0  0  0  0  0  0
   63.4200   68.2420   31.6280 H   0  0  0  0  0  0  0  0  0  0  0  0
  1 19  1  6  0  0  0
  1  2  1  0  0  0  0
  3  4  1  6  0  0  0
  3  1  1  0  0  0  0
  3  2  1  0  0  0  0
  5  4  2  0  0  0  0
  6  7  1  0  0  0  0
  6  5  1  0  0  0  0
  7  8  2  0  0  0  0
  8  4  1  0  0  0  0
  9 10  1  0  0  0  0
  9  7  1  0  0  0  0
 11 10  2  0  0  0  0
 12 11  1  0  0  0  0
 13 18  1  0  0  0  0
 13 12  1  0  0  0  0
 14 12  2  0  0  0  0
 14 15  1  0  0  0  0
 15  9  1  0  0  0  0
 16 15  2  0  0  0  0
 17 13  1  0  0  0  0
 19 21  1  0  0  0  0
 20 25  2  0  0  0  0
 20 21  1  0  0  0  0
 21 22  2  0  0  0  0
 22 23  1  0  0  0  0
 24 26  1  0  0  0  0
 24 23  2  0  0  0  0
 25 24  1  0  0  0  0
 26 27  1  0  0  0  0
 27 28  2  0  0  0  0
 28 34  1  0  0  0  0
 29 30  2  0  0  0  0
 29 28  1  0  0  0  0
 31 29  1  0  0  0  0
 32 31  1  0  0  0  0
 32 26  1  0  0  0  0
 33 32  2  0  0  0  0
 35 31  1  0  0  0  0
M  END
>  <minimizedAffinity>
-6.94643164

$$$$
