
 OpenBabel03242509203D

 37 42  0  0  1  0  0  0  0  0999 V2000
   65.6630   57.0330   31.2740 C   0  0  2  0  0  3  0  0  0  0  0  0
   64.8940   57.9420   32.1100 C   0  0  0  0  0  2  0  0  0  0  0  0
   66.3250   57.9120   32.3610 C   0  0  2  0  0  3  0  0  0  0  0  0
   67.2500   58.9870   31.9470 C   0  0  0  0  0  0  0  0  0  0  0  0
   68.5910   58.9750   31.6680 N   0  0  0  0  0  0  0  0  0  0  0  0
   68.9640   60.1680   31.3630 O   0  0  0  0  0  0  0  0  0  0  0  0
   67.9490   60.9950   31.4200 C   0  0  0  0  0  0  0  0  0  0  0  0
   66.8650   60.2680   31.7850 N   0  0  0  0  0  0  0  0  0  0  0  0
   67.7870   62.3980   31.1880 N   0  0  0  0  0  0  0  0  0  0  0  0
   67.2140   63.1700   32.1320 C   0  0  0  0  0  3  0  0  0  0  0  0
   67.1680   64.4530   31.6920 N   0  0  0  0  0  0  0  0  0  0  0  0
   67.7170   64.4990   30.4580 C   0  0  0  0  0  0  0  0  0  0  0  0
   67.9870   65.4440   29.4620 C   0  0  0  0  0  0  0  0  0  0  0  0
   68.5770   65.0790   28.3100 N   0  0  0  0  0  0  0  0  0  0  0  0
   68.9350   63.8010   28.0560 C   0  0  0  0  0  3  0  0  0  0  0  0
   68.6940   62.8420   28.9940 N   0  0  0  0  0  0  0  0  0  0  0  0
   68.0990   63.2030   30.1590 C   0  0  0  0  0  0  0  0  0  0  0  0
   67.5980   66.7830   29.7570 N   0  0  0  0  0  0  0  0  0  0  0  0
   67.7660   67.5320   29.0700 H   0  0  0  0  0  0  0  0  0  0  0  0
   67.1500   67.0020   30.6580 H   0  0  0  0  0  0  0  0  0  0  0  0
   65.9660   57.3060   29.8520 C   0  0  0  0  0  2  0  0  0  0  0  0
   63.4600   57.2420   29.3660 C   0  0  0  0  0  3  0  0  0  0  0  0
   64.8100   57.3000   28.9910 C   0  0  0  0  0  0  0  0  0  0  0  0
   65.0960   57.3540   27.6490 C   0  0  0  0  0  3  0  0  0  0  0  0
   64.0580   57.3490   26.7520 N   0  0  0  0  0  0  0  0  0  0  0  0
   62.7570   57.2930   27.1410 C   0  0  0  0  0  0  0  0  0  0  0  0
   62.4780   57.2400   28.4550 N   0  0  0  0  0  0  0  0  0  0  0  0
   61.7440   57.2930   26.1430 N   0  0  0  0  0  0  0  0  0  0  0  0
   61.5250   58.4060   25.4230 C   0  0  0  0  0  3  0  0  0  0  0  0
   60.5700   58.5230   24.4300 C   0  0  0  0  0  0  0  0  0  0  0  0
   59.7950   57.4150   24.1660 C   0  0  0  0  0  0  0  0  0  0  0  0
   58.9240   57.4650   23.2860 O   0  0  0  0  0  0  0  0  0  0  0  0
   60.0290   56.3000   24.9010 N   0  0  0  0  0  0  0  0  0  0  0  0
   60.9790   56.2250   25.8710 C   0  0  0  0  0  0  0  0  0  0  0  0
   61.1520   55.1580   26.5240 O   0  0  0  0  0  0  0  0  0  0  0  0
   60.4230   59.8160   23.7010 C   0  0  0  0  0  1  0  0  0  0  0  0
   59.4550   55.4650   24.7150 H   0  0  0  0  0  0  0  0  0  0  0  0
  1 21  1  6  0  0  0
  1  2  1  0  0  0  0
  1  3  1  0  0  0  0
  2  3  1  0  0  0  0
  3  4  1  6  0  0  0
  5  4  2  0  0  0  0
  6  7  1  0  0  0  0
  6  5  1  0  0  0  0
  7  8  2  0  0  0  0
  8  4  1  0  0  0  0
  9  7  1  0  0  0  0
  9 10  1  0  0  0  0
 11 10  2  0  0  0  0
 12 11  1  0  0  0  0
 13 18  1  0  0  0  0
 13 12  2  0  0  0  0
 14 13  1  0  0  0  0
 15 14  2  0  0  0  0
 15 16  1  0  0  0  0
 16 17  2  0  0  0  0
 17 12  1  0  0  0  0
 17  9  1  0  0  0  0
 18 20  1  0  0  0  0
 19 18  1  0  0  0  0
 23 22  1  0  0  0  0
 23 21  1  0  0  0  0
 24 23  2  0  0  0  0
 25 26  2  0  0  0  0
 25 24  1  0  0  0  0
 26 27  1  0  0  0  0
 27 22  2  0  0  0  0
 28 26  1  0  0  0  0
 29 28  1  0  0  0  0
 30 29  2  0  0  0  0
 31 30  1  0  0  0  0
 31 33  1  0  0  0  0
 32 31  2  0  0  0  0
 33 34  1  0  0  0  0
 34 28  1  0  0  0  0
 34 35  2  0  0  0  0
 36 30  1  0  0  0  0
 37 33  1  0  0  0  0
M  END
>  <minimizedAffinity>
-8.0110178

$$$$

 OpenBabel03242509203D

 37 42  0  0  1  0  0  0  0  0999 V2000
   64.9010   57.4370   31.2610 C   0  0  2  0  0  3  0  0  0  0  0  0
   64.5880   58.6060   32.0690 C   0  0  0  0  0  2  0  0  0  0  0  0
   65.7390   57.8310   32.4990 C   0  0  2  0  0  3  0  0  0  0  0  0
   67.1370   58.2690   32.3070 C   0  0  0  0  0  0  0  0  0  0  0  0
   68.3200   57.5810   32.3570 N   0  0  0  0  0  0  0  0  0  0  0  0
   69.2890   58.3990   32.1370 O   0  0  0  0  0  0  0  0  0  0  0  0
   68.8300   59.6110   31.9400 C   0  0  0  0  0  0  0  0  0  0  0  0
   67.4800   59.5450   32.0440 N   0  0  0  0  0  0  0  0  0  0  0  0
   69.4350   60.8780   31.6610 N   0  0  0  0  0  0  0  0  0  0  0  0
   69.1420   61.9430   32.4320 C   0  0  0  0  0  3  0  0  0  0  0  0
   69.8290   63.0230   31.9800 N   0  0  0  0  0  0  0  0  0  0  0  0
   70.5650   62.6430   30.9120 C   0  0  0  0  0  0  0  0  0  0  0  0
   71.4630   63.2070   30.0000 C   0  0  0  0  0  0  0  0  0  0  0  0
   72.0140   62.4600   29.0260 N   0  0  0  0  0  0  0  0  0  0  0  0
   71.7340   61.1460   28.8790 C   0  0  0  0  0  3  0  0  0  0  0  0
   70.8660   60.5490   29.7430 N   0  0  0  0  0  0  0  0  0  0  0  0
   70.3060   61.2960   30.7280 C   0  0  0  0  0  0  0  0  0  0  0  0
   71.7390   64.5930   30.1790 N   0  0  0  0  0  0  0  0  0  0  0  0
   72.3910   65.0760   29.5430 H   0  0  0  0  0  0  0  0  0  0  0  0
   71.2860   65.1140   30.9440 H   0  0  0  0  0  0  0  0  0  0  0  0
   65.5200   57.5240   29.9200 C   0  0  0  0  0  2  0  0  0  0  0  0
   64.8760   57.2730   27.4620 C   0  0  0  0  0  3  0  0  0  0  0  0
   64.5870   57.3890   28.8290 C   0  0  0  0  0  0  0  0  0  0  0  0
   63.2670   57.3800   29.2040 C   0  0  0  0  0  3  0  0  0  0  0  0
   62.3060   57.2590   28.2320 N   0  0  0  0  0  0  0  0  0  0  0  0
   62.6120   57.1470   26.9130 C   0  0  0  0  0  0  0  0  0  0  0  0
   63.9050   57.1570   26.5470 N   0  0  0  0  0  0  0  0  0  0  0  0
   61.5510   57.0250   25.9730 N   0  0  0  0  0  0  0  0  0  0  0  0
   60.8200   55.8980   25.9430 C   0  0  0  0  0  3  0  0  0  0  0  0
   59.7700   55.6670   25.0750 C   0  0  0  0  0  0  0  0  0  0  0  0
   59.4550   56.6700   24.1840 C   0  0  0  0  0  0  0  0  0  0  0  0
   58.5210   56.5160   23.3830 O   0  0  0  0  0  0  0  0  0  0  0  0
   60.2010   57.8010   24.2270 N   0  0  0  0  0  0  0  0  0  0  0  0
   61.2290   57.9890   25.0970 C   0  0  0  0  0  0  0  0  0  0  0  0
   61.8900   59.0660   25.0920 O   0  0  0  0  0  0  0  0  0  0  0  0
   59.0350   54.3700   25.1390 C   0  0  0  0  0  1  0  0  0  0  0  0
   59.9770   58.5580   23.5660 H   0  0  0  0  0  0  0  0  0  0  0  0
  1 21  1  6  0  0  0
  1  2  1  0  0  0  0
  1  3  1  0  0  0  0
  2  3  1  0  0  0  0
  3  4  1  6  0  0  0
  4  5  2  0  0  0  0
  6  5  1  0  0  0  0
  7  8  2  0  0  0  0
  7  6  1  0  0  0  0
  8  4  1  0  0  0  0
  9  7  1  0  0  0  0
  9 10  1  0  0  0  0
 11 10  2  0  0  0  0
 12 11  1  0  0  0  0
 13 18  1  0  0  0  0
 13 12  2  0  0  0  0
 14 13  1  0  0  0  0
 15 14  2  0  0  0  0
 15 16  1  0  0  0  0
 16 17  2  0  0  0  0
 17 12  1  0  0  0  0
 17  9  1  0  0  0  0
 18 20  1  0  0  0  0
 19 18  1  0  0  0  0
 22 23  1  0  0  0  0
 23 24  2  0  0  0  0
 23 21  1  0  0  0  0
 25 24  1  0  0  0  0
 26 25  2  0  0  0  0
 27 26  1  0  0  0  0
 27 22  2  0  0  0  0
 28 26  1  0  0  0  0
 29 28  1  0  0  0  0
 30 36  1  0  0  0  0
 30 29  2  0  0  0  0
 31 33  1  0  0  0  0
 31 30  1  0  0  0  0
 32 31  2  0  0  0  0
 33 34  1  0  0  0  0
 34 28  1  0  0  0  0
 35 34  2  0  0  0  0
 37 33  1  0  0  0  0
M  END
>  <minimizedAffinity>
-7.25822926

$$$$

 OpenBabel03242509203D

 37 42  0  0  1  0  0  0  0  0999 V2000
   64.7730   59.1760   31.2650 C   0  0  2  0  0  3  0  0  0  0  0  0
   65.6670   58.0320   31.1720 C   0  0  0  0  0  2  0  0  0  0  0  0
   64.2910   57.7920   30.7730 C   0  0  2  0  0  3  0  0  0  0  0  0
   63.8610   57.6420   29.3680 C   0  0  0  0  0  0  0  0  0  0  0  0
   64.5080   57.1430   28.2680 N   0  0  0  0  0  0  0  0  0  0  0  0
   63.7270   57.2320   27.2490 O   0  0  0  0  0  0  0  0  0  0  0  0
   62.5810   57.7670   27.5940 C   0  0  0  0  0  0  0  0  0  0  0  0
   62.6500   58.0290   28.9220 N   0  0  0  0  0  0  0  0  0  0  0  0
   61.3780   58.0950   26.8920 N   0  0  0  0  0  0  0  0  0  0  0  0
   60.8730   59.3420   26.9770 C   0  0  0  0  0  3  0  0  0  0  0  0
   59.7390   59.4160   26.2350 N   0  0  0  0  0  0  0  0  0  0  0  0
   59.5200   58.2060   25.6720 C   0  0  0  0  0  0  0  0  0  0  0  0
   58.5860   57.5920   24.8300 C   0  0  0  0  0  0  0  0  0  0  0  0
   58.7210   56.3010   24.4790 N   0  0  0  0  0  0  0  0  0  0  0  0
   59.7490   55.5390   24.9150 C   0  0  0  0  0  3  0  0  0  0  0  0
   60.6860   56.0900   25.7370 N   0  0  0  0  0  0  0  0  0  0  0  0
   60.5560   57.3920   26.0950 C   0  0  0  0  0  0  0  0  0  0  0  0
   57.5130   58.4190   24.3880 N   0  0  0  0  0  0  0  0  0  0  0  0
   56.7880   58.0340   23.7660 H   0  0  0  0  0  0  0  0  0  0  0  0
   57.4630   59.4030   24.6910 H   0  0  0  0  0  0  0  0  0  0  0  0
   64.8040   60.3040   30.3090 C   0  0  0  0  0  2  0  0  0  0  0  0
   67.0530   61.0390   31.2710 C   0  0  0  0  0  3  0  0  0  0  0  0
   66.0510   61.0290   30.2900 C   0  0  0  0  0  0  0  0  0  0  0  0
   66.2510   61.7940   29.1680 C   0  0  0  0  0  3  0  0  0  0  0  0
   67.4090   62.5230   29.0640 N   0  0  0  0  0  0  0  0  0  0  0  0
   68.3660   62.5140   30.0290 C   0  0  0  0  0  0  0  0  0  0  0  0
   68.1690   61.7650   31.1270 N   0  0  0  0  0  0  0  0  0  0  0  0
   69.5360   63.2990   29.8380 N   0  0  0  0  0  0  0  0  0  0  0  0
   70.4240   62.9440   28.8940 C   0  0  0  0  0  3  0  0  0  0  0  0
   71.5940   63.6280   28.6200 C   0  0  0  0  0  0  0  0  0  0  0  0
   71.8580   64.7520   29.3700 C   0  0  0  0  0  0  0  0  0  0  0  0
   72.8930   65.4040   29.1660 O   0  0  0  0  0  0  0  0  0  0  0  0
   70.9520   65.0980   30.3180 N   0  0  0  0  0  0  0  0  0  0  0  0
   69.8120   64.3980   30.5570 C   0  0  0  0  0  0  0  0  0  0  0  0
   69.0030   64.7680   31.4550 O   0  0  0  0  0  0  0  0  0  0  0  0
   72.5010   63.1300   27.5450 C   0  0  0  0  0  1  0  0  0  0  0  0
   71.1380   65.9370   30.8870 H   0  0  0  0  0  0  0  0  0  0  0  0
  1 21  1  6  0  0  0
  2  1  1  0  0  0  0
  3  4  1  6  0  0  0
  3  2  1  0  0  0  0
  3  1  1  0  0  0  0
  5  4  2  0  0  0  0
  6  7  1  0  0  0  0
  6  5  1  0  0  0  0
  7  8  2  0  0  0  0
  8  4  1  0  0  0  0
  9 10  1  0  0  0  0
  9  7  1  0  0  0  0
 11 10  2  0  0  0  0
 12 17  1  0  0  0  0
 12 11  1  0  0  0  0
 13 12  2  0  0  0  0
 14 13  1  0  0  0  0
 14 15  2  0  0  0  0
 15 16  1  0  0  0  0
 16 17  2  0  0  0  0
 17  9  1  0  0  0  0
 18 20  1  0  0  0  0
 18 13  1  0  0  0  0
 19 18  1  0  0  0  0
 23 21  1  0  0  0  0
 23 22  1  0  0  0  0
 24 23  2  0  0  0  0
 25 24  1  0  0  0  0
 25 26  2  0  0  0  0
 26 27  1  0  0  0  0
 27 22  2  0  0  0  0
 28 26  1  0  0  0  0
 28 34  1  0  0  0  0
 29 28  1  0  0  0  0
 30 29  2  0  0  0  0
 30 31  1  0  0  0  0
 31 33  1  0  0  0  0
 32 31  2  0  0  0  0
 33 34  1  0  0  0  0
 33 37  1  0  0  0  0
 34 35  2  0  0  0  0
 36 30  1  0  0  0  0
M  END
>  <minimizedAffinity>
-6.72394466

$$$$

 OpenBabel03242509203D

 37 42  0  0  1  0  0  0  0  0999 V2000
   65.0200   58.9360   31.1270 C   0  0  2  0  0  3  0  0  0  0  0  0
   65.2610   57.5170   31.3390 C   0  0  0  0  0  2  0  0  0  0  0  0
   63.9610   57.8610   30.7890 C   0  0  2  0  0  3  0  0  0  0  0  0
   63.5870   57.6440   29.3770 C   0  0  0  0  0  0  0  0  0  0  0  0
   64.2390   57.0150   28.3500 N   0  0  0  0  0  0  0  0  0  0  0  0
   63.5180   57.0920   27.2870 O   0  0  0  0  0  0  0  0  0  0  0  0
   62.4070   57.7430   27.5340 C   0  0  0  0  0  0  0  0  0  0  0  0
   62.4350   58.0950   28.8430 N   0  0  0  0  0  0  0  0  0  0  0  0
   61.2690   58.1160   26.7490 N   0  0  0  0  0  0  0  0  0  0  0  0
   60.8690   59.4020   26.7200 C   0  0  0  0  0  3  0  0  0  0  0  0
   59.7820   59.5130   25.9160 N   0  0  0  0  0  0  0  0  0  0  0  0
   59.4870   58.2880   25.4270 C   0  0  0  0  0  0  0  0  0  0  0  0
   58.5450   57.6920   24.5820 C   0  0  0  0  0  0  0  0  0  0  0  0
   58.5860   56.3720   24.3280 N   0  0  0  0  0  0  0  0  0  0  0  0
   59.5240   55.5630   24.8680 C   0  0  0  0  0  3  0  0  0  0  0  0
   60.4650   56.0940   25.6990 N   0  0  0  0  0  0  0  0  0  0  0  0
   60.4300   57.4250   25.9590 C   0  0  0  0  0  0  0  0  0  0  0  0
   57.5680   58.5690   24.0270 N   0  0  0  0  0  0  0  0  0  0  0  0
   56.8430   58.2000   23.3950 H   0  0  0  0  0  0  0  0  0  0  0  0
   57.5870   59.5730   24.2580 H   0  0  0  0  0  0  0  0  0  0  0  0
   65.6370   59.7040   30.0230 C   0  0  0  0  0  2  0  0  0  0  0  0
   65.2730   61.8420   31.3720 C   0  0  0  0  0  3  0  0  0  0  0  0
   65.8130   61.1070   30.3060 C   0  0  0  0  0  0  0  0  0  0  0  0
   66.6050   61.7760   29.4070 C   0  0  0  0  0  3  0  0  0  0  0  0
   66.8260   63.1180   29.5940 N   0  0  0  0  0  0  0  0  0  0  0  0
   66.2910   63.8080   30.6360 C   0  0  0  0  0  0  0  0  0  0  0  0
   65.5160   63.1510   31.5150 N   0  0  0  0  0  0  0  0  0  0  0  0
   66.5740   65.1970   30.7520 N   0  0  0  0  0  0  0  0  0  0  0  0
   67.8180   65.5950   31.0710 C   0  0  0  0  0  3  0  0  0  0  0  0
   68.2070   66.9130   31.2120 C   0  0  0  0  0  0  0  0  0  0  0  0
   67.2480   67.8800   31.0080 C   0  0  0  0  0  0  0  0  0  0  0  0
   67.5430   69.0790   31.1220 O   0  0  0  0  0  0  0  0  0  0  0  0
   65.9990   67.4630   30.6870 N   0  0  0  0  0  0  0  0  0  0  0  0
   65.6540   66.1540   30.5570 C   0  0  0  0  0  0  0  0  0  0  0  0
   64.4730   65.8240   30.2550 O   0  0  0  0  0  0  0  0  0  0  0  0
   69.6210   67.2260   31.5720 C   0  0  0  0  0  1  0  0  0  0  0  0
   65.2710   68.1760   30.5320 H   0  0  0  0  0  0  0  0  0  0  0  0
  1 21  1  6  0  0  0
  1  2  1  0  0  0  0
  3  4  1  6  0  0  0
  3  1  1  0  0  0  0
  3  2  1  0  0  0  0
  5  4  2  0  0  0  0
  6  7  1  0  0  0  0
  6  5  1  0  0  0  0
  7  8  2  0  0  0  0
  8  4  1  0  0  0  0
  9  7  1  0  0  0  0
 10  9  1  0  0  0  0
 11 10  2  0  0  0  0
 12 11  1  0  0  0  0
 12 17  1  0  0  0  0
 13 12  2  0  0  0  0
 14 13  1  0  0  0  0
 14 15  2  0  0  0  0
 15 16  1  0  0  0  0
 16 17  2  0  0  0  0
 17  9  1  0  0  0  0
 18 20  1  0  0  0  0
 18 13  1  0  0  0  0
 19 18  1  0  0  0  0
 21 23  1  0  0  0  0
 22 27  2  0  0  0  0
 23 22  1  0  0  0  0
 24 25  1  0  0  0  0
 24 23  2  0  0  0  0
 25 26  2  0  0  0  0
 26 28  1  0  0  0  0
 26 27  1  0  0  0  0
 28 29  1  0  0  0  0
 29 30  2  0  0  0  0
 30 36  1  0  0  0  0
 31 32  2  0  0  0  0
 31 30  1  0  0  0  0
 33 31  1  0  0  0  0
 34 33  1  0  0  0  0
 34 28  1  0  0  0  0
 35 34  2  0  0  0  0
 37 33  1  0  0  0  0
M  END
>  <minimizedAffinity>
-6.69022417

$$$$

 OpenBabel03242509203D

 37 42  0  0  1  0  0  0  0  0999 V2000
   64.9930   59.0390   31.2790 C   0  0  2  0  0  3  0  0  0  0  0  0
   65.6420   57.7370   31.2650 C   0  0  0  0  0  2  0  0  0  0  0  0
   64.2570   57.7570   30.8270 C   0  0  2  0  0  3  0  0  0  0  0  0
   63.8430   57.6280   29.4150 C   0  0  0  0  0  0  0  0  0  0  0  0
   64.5070   57.1580   28.3130 N   0  0  0  0  0  0  0  0  0  0  0  0
   63.7360   57.2580   27.2880 O   0  0  0  0  0  0  0  0  0  0  0  0
   62.5800   57.7730   27.6310 C   0  0  0  0  0  0  0  0  0  0  0  0
   62.6320   58.0100   28.9650 N   0  0  0  0  0  0  0  0  0  0  0  0
   61.3800   58.1000   26.9230 N   0  0  0  0  0  0  0  0  0  0  0  0
   60.8600   59.3390   27.0260 C   0  0  0  0  0  3  0  0  0  0  0  0
   59.7320   59.4130   26.2740 N   0  0  0  0  0  0  0  0  0  0  0  0
   59.5330   58.2120   25.6860 C   0  0  0  0  0  0  0  0  0  0  0  0
   58.6150   57.6030   24.8230 C   0  0  0  0  0  0  0  0  0  0  0  0
   58.7690   56.3210   24.4490 N   0  0  0  0  0  0  0  0  0  0  0  0
   59.8020   55.5630   24.8810 C   0  0  0  0  0  3  0  0  0  0  0  0
   60.7240   56.1090   25.7230 N   0  0  0  0  0  0  0  0  0  0  0  0
   60.5750   57.4020   26.1040 C   0  0  0  0  0  0  0  0  0  0  0  0
   57.5370   58.4260   24.3860 N   0  0  0  0  0  0  0  0  0  0  0  0
   56.8230   58.0440   23.7480 H   0  0  0  0  0  0  0  0  0  0  0  0
   57.4720   59.4030   24.7060 H   0  0  0  0  0  0  0  0  0  0  0  0
   65.2750   60.0920   30.2780 C   0  0  0  0  0  2  0  0  0  0  0  0
   64.0200   62.3150   30.1690 C   0  0  0  0  0  3  0  0  0  0  0  0
   64.9560   61.4270   30.7210 C   0  0  0  0  0  0  0  0  0  0  0  0
   65.6730   61.8540   31.8110 C   0  0  0  0  0  3  0  0  0  0  0  0
   65.4400   63.1150   32.3010 N   0  0  0  0  0  0  0  0  0  0  0  0
   64.5270   63.9550   31.7490 C   0  0  0  0  0  0  0  0  0  0  0  0
   63.8260   63.5370   30.6820 N   0  0  0  0  0  0  0  0  0  0  0  0
   64.3500   65.2450   32.3230 N   0  0  0  0  0  0  0  0  0  0  0  0
   63.7830   65.3570   33.5360 C   0  0  0  0  0  3  0  0  0  0  0  0
   63.5600   66.5540   34.1900 C   0  0  0  0  0  0  0  0  0  0  0  0
   63.9520   67.7070   33.5470 C   0  0  0  0  0  0  0  0  0  0  0  0
   63.7760   68.8090   34.0880 O   0  0  0  0  0  0  0  0  0  0  0  0
   64.5230   67.5780   32.3240 N   0  0  0  0  0  0  0  0  0  0  0  0
   64.7240   66.3800   31.7130 C   0  0  0  0  0  0  0  0  0  0  0  0
   65.2620   66.3200   30.5710 O   0  0  0  0  0  0  0  0  0  0  0  0
   62.9200   66.5470   35.5370 C   0  0  0  0  0  1  0  0  0  0  0  0
   64.8190   68.4320   31.8310 H   0  0  0  0  0  0  0  0  0  0  0  0
  1 21  1  6  0  0  0
  2  1  1  0  0  0  0
  3  4  1  6  0  0  0
  3  2  1  0  0  0  0
  3  1  1  0  0  0  0
  5  4  2  0  0  0  0
  6  7  1  0  0  0  0
  6  5  1  0  0  0  0
  7  8  2  0  0  0  0
  8  4  1  0  0  0  0
  9 10  1  0  0  0  0
  9  7  1  0  0  0  0
 11 10  2  0  0  0  0
 12 17  1  0  0  0  0
 12 11  1  0  0  0  0
 13 12  2  0  0  0  0
 14 13  1  0  0  0  0
 14 15  2  0  0  0  0
 15 16  1  0  0  0  0
 16 17  2  0  0  0  0
 17  9  1  0  0  0  0
 18 20  1  0  0  0  0
 18 13  1  0  0  0  0
 19 18  1  0  0  0  0
 21 23  1  0  0  0  0
 22 27  2  0  0  0  0
 22 23  1  0  0  0  0
 23 24  2  0  0  0  0
 24 25  1  0  0  0  0
 26 25  2  0  0  0  0
 26 28  1  0  0  0  0
 27 26  1  0  0  0  0
 28 29  1  0  0  0  0
 29 30  2  0  0  0  0
 30 36  1  0  0  0  0
 31 32  2  0  0  0  0
 31 30  1  0  0  0  0
 33 31  1  0  0  0  0
 34 28  1  0  0  0  0
 34 33  1  0  0  0  0
 35 34  2  0  0  0  0
 37 33  1  0  0  0  0
M  END
>  <minimizedAffinity>
-6.67500257

$$$$

 OpenBabel03242509203D

 37 42  0  0  1  0  0  0  0  0999 V2000
   66.8910   62.7180   28.7480 C   0  0  2  0  0  3  0  0  0  0  0  0
   66.8340   63.8040   27.7810 C   0  0  0  0  0  2  0  0  0  0  0  0
   65.6930   63.6920   28.6740 C   0  0  2  0  0  3  0  0  0  0  0  0
   65.4460   64.6110   29.8030 C   0  0  0  0  0  0  0  0  0  0  0  0
   65.9340   65.8600   30.0840 N   0  0  0  0  0  0  0  0  0  0  0  0
   65.4360   66.2620   31.2000 O   0  0  0  0  0  0  0  0  0  0  0  0
   64.6350   65.3520   31.6990 C   0  0  0  0  0  0  0  0  0  0  0  0
   64.6300   64.3100   30.8330 N   0  0  0  0  0  0  0  0  0  0  0  0
   63.8340   65.2640   32.8820 N   0  0  0  0  0  0  0  0  0  0  0  0
   63.9610   64.1980   33.6970 C   0  0  0  0  0  3  0  0  0  0  0  0
   63.1080   64.3340   34.7440 N   0  0  0  0  0  0  0  0  0  0  0  0
   62.4340   65.4960   34.5960 C   0  0  0  0  0  0  0  0  0  0  0  0
   61.4510   66.2340   35.2650 C   0  0  0  0  0  0  0  0  0  0  0  0
   61.0180   67.4080   34.7730 N   0  0  0  0  0  0  0  0  0  0  0  0
   61.5020   67.9300   33.6230 C   0  0  0  0  0  3  0  0  0  0  0  0
   62.4610   67.2510   32.9340 N   0  0  0  0  0  0  0  0  0  0  0  0
   62.9020   66.0650   33.4250 C   0  0  0  0  0  0  0  0  0  0  0  0
   60.9600   65.6590   36.4730 N   0  0  0  0  0  0  0  0  0  0  0  0
   60.2350   66.1470   37.0190 H   0  0  0  0  0  0  0  0  0  0  0  0
   61.3300   64.7550   36.8010 H   0  0  0  0  0  0  0  0  0  0  0  0
   67.7630   62.7470   29.9440 C   0  0  0  0  0  2  0  0  0  0  0  0
   66.4950   60.7630   30.9330 C   0  0  0  0  0  3  0  0  0  0  0  0
   67.6080   61.6090   30.8150 C   0  0  0  0  0  0  0  0  0  0  0  0
   68.6930   61.3480   31.6130 C   0  0  0  0  0  3  0  0  0  0  0  0
   68.6350   60.2850   32.4790 N   0  0  0  0  0  0  0  0  0  0  0  0
   67.5450   59.4790   32.5740 C   0  0  0  0  0  0  0  0  0  0  0  0
   66.4830   59.7350   31.7920 N   0  0  0  0  0  0  0  0  0  0  0  0
   67.5720   58.3990   33.4980 N   0  0  0  0  0  0  0  0  0  0  0  0
   68.3790   57.3490   33.2660 C   0  0  0  0  0  3  0  0  0  0  0  0
   68.4880   56.2460   34.0910 C   0  0  0  0  0  0  0  0  0  0  0  0
   67.7120   56.2290   35.2290 C   0  0  0  0  0  0  0  0  0  0  0  0
   67.7710   55.2640   36.0050 O   0  0  0  0  0  0  0  0  0  0  0  0
   66.9030   57.2950   35.4490 N   0  0  0  0  0  0  0  0  0  0  0  0
   66.8250   58.3630   34.6120 C   0  0  0  0  0  0  0  0  0  0  0  0
   66.0520   59.3300   34.8690 O   0  0  0  0  0  0  0  0  0  0  0  0
   69.4220   55.1420   33.7220 C   0  0  0  0  0  1  0  0  0  0  0  0
   66.3170   57.2950   36.2960 H   0  0  0  0  0  0  0  0  0  0  0  0
  1 21  1  1  0  0  0
  2  3  1  0  0  0  0
  2  1  1  0  0  0  0
  3  1  1  0  0  0  0
  3  4  1  1  0  0  0
  4  5  2  0  0  0  0
  4  8  1  0  0  0  0
  5  6  1  0  0  0  0
  6  7  1  0  0  0  0
  7  9  1  0  0  0  0
  8  7  2  0  0  0  0
  9 17  1  0  0  0  0
  9 10  1  0  0  0  0
 10 11  2  0  0  0  0
 12 11  1  0  0  0  0
 12 13  1  0  0  0  0
 13 18  1  0  0  0  0
 14 13  2  0  0  0  0
 15 14  1  0  0  0  0
 16 17  1  0  0  0  0
 16 15  2  0  0  0  0
 17 12  2  0  0  0  0
 18 20  1  0  0  0  0
 18 19  1  0  0  0  0
 21 23  1  0  0  0  0
 22 27  2  0  0  0  0
 23 22  1  0  0  0  0
 23 24  2  0  0  0  0
 24 25  1  0  0  0  0
 25 26  2  0  0  0  0
 26 28  1  0  0  0  0
 27 26  1  0  0  0  0
 28 34  1  0  0  0  0
 29 28  1  0  0  0  0
 29 30  2  0  0  0  0
 30 31  1  0  0  0  0
 31 33  1  0  0  0  0
 31 32  2  0  0  0  0
 33 37  1  0  0  0  0
 34 35  2  0  0  0  0
 34 33  1  0  0  0  0
 36 30  1  0  0  0  0
M  END
>  <minimizedAffinity>
-6.65456438

$$$$

 OpenBabel03242509203D

 37 42  0  0  1  0  0  0  0  0999 V2000
   64.1320   62.0930   30.6310 C   0  0  2  0  0  3  0  0  0  0  0  0
   63.4130   63.1020   29.8700 C   0  0  0  0  0  2  0  0  0  0  0  0
   64.7700   63.4490   30.2540 C   0  0  2  0  0  3  0  0  0  0  0  0
   65.9070   63.4690   29.3110 C   0  0  0  0  0  0  0  0  0  0  0  0
   65.9590   63.6420   27.9530 N   0  0  0  0  0  0  0  0  0  0  0  0
   67.1840   63.5660   27.5690 O   0  0  0  0  0  0  0  0  0  0  0  0
   67.9730   63.3490   28.5930 C   0  0  0  0  0  0  0  0  0  0  0  0
   67.1850   63.2860   29.6950 N   0  0  0  0  0  0  0  0  0  0  0  0
   69.3860   63.1820   28.7510 N   0  0  0  0  0  0  0  0  0  0  0  0
   69.8630   62.1010   29.3990 C   0  0  0  0  0  3  0  0  0  0  0  0
   71.2190   62.1580   29.4240 N   0  0  0  0  0  0  0  0  0  0  0  0
   71.6090   63.2840   28.7860 C   0  0  0  0  0  0  0  0  0  0  0  0
   72.7950   63.9470   28.4520 C   0  0  0  0  0  0  0  0  0  0  0  0
   72.7680   65.1090   27.7760 N   0  0  0  0  0  0  0  0  0  0  0  0
   71.6100   65.6900   27.3890 C   0  0  0  0  0  3  0  0  0  0  0  0
   70.4270   65.0850   27.6890 N   0  0  0  0  0  0  0  0  0  0  0  0
   70.4480   63.9120   28.3710 C   0  0  0  0  0  0  0  0  0  0  0  0
   73.9990   63.3100   28.8740 N   0  0  0  0  0  0  0  0  0  0  0  0
   74.9110   63.7410   28.6630 H   0  0  0  0  0  0  0  0  0  0  0  0
   73.9570   62.4200   29.3890 H   0  0  0  0  0  0  0  0  0  0  0  0
   64.6710   60.8560   30.0230 C   0  0  0  0  0  2  0  0  0  0  0  0
   64.5070   58.8320   31.5730 C   0  0  0  0  0  3  0  0  0  0  0  0
   65.1860   59.9050   30.9770 C   0  0  0  0  0  0  0  0  0  0  0  0
   66.4980   60.1010   31.3280 C   0  0  0  0  0  3  0  0  0  0  0  0
   67.0740   59.2460   32.2350 N   0  0  0  0  0  0  0  0  0  0  0  0
   66.3930   58.2120   32.7970 C   0  0  0  0  0  0  0  0  0  0  0  0
   65.1090   58.0220   32.4530 N   0  0  0  0  0  0  0  0  0  0  0  0
   67.0690   57.3750   33.7270 N   0  0  0  0  0  0  0  0  0  0  0  0
   68.0420   56.5550   33.2940 C   0  0  0  0  0  3  0  0  0  0  0  0
   68.7640   55.6990   34.1040 C   0  0  0  0  0  0  0  0  0  0  0  0
   68.4600   55.6940   35.4470 C   0  0  0  0  0  0  0  0  0  0  0  0
   69.0770   54.9450   36.2190 O   0  0  0  0  0  0  0  0  0  0  0  0
   67.4760   56.5270   35.8690 N   0  0  0  0  0  0  0  0  0  0  0  0
   66.7880   57.3550   35.0390 C   0  0  0  0  0  0  0  0  0  0  0  0
   65.8810   58.1110   35.4890 O   0  0  0  0  0  0  0  0  0  0  0  0
   69.8210   54.8350   33.5010 C   0  0  0  0  0  1  0  0  0  0  0  0
   67.2380   56.5320   36.8710 H   0  0  0  0  0  0  0  0  0  0  0  0
  1 21  1  6  0  0  0
  2  3  1  0  0  0  0
  2  1  1  0  0  0  0
  3  4  1  6  0  0  0
  3  1  1  0  0  0  0
  4  8  1  0  0  0  0
  5  4  2  0  0  0  0
  6  5  1  0  0  0  0
  6  7  1  0  0  0  0
  7  9  1  0  0  0  0
  7  8  2  0  0  0  0
  9 10  1  0  0  0  0
 10 11  2  0  0  0  0
 12 11  1  0  0  0  0
 13 12  1  0  0  0  0
 13 18  1  0  0  0  0
 14 13  2  0  0  0  0
 15 16  2  0  0  0  0
 15 14  1  0  0  0  0
 16 17  1  0  0  0  0
 17  9  1  0  0  0  0
 17 12  2  0  0  0  0
 18 20  1  0  0  0  0
 19 18  1  0  0  0  0
 21 23  1  0  0  0  0
 22 27  2  0  0  0  0
 23 24  2  0  0  0  0
 23 22  1  0  0  0  0
 24 25  1  0  0  0  0
 25 26  2  0  0  0  0
 26 28  1  0  0  0  0
 27 26  1  0  0  0  0
 28 34  1  0  0  0  0
 29 28  1  0  0  0  0
 29 30  2  0  0  0  0
 30 31  1  0  0  0  0
 31 33  1  0  0  0  0
 31 32  2  0  0  0  0
 33 37  1  0  0  0  0
 34 35  2  0  0  0  0
 34 33  1  0  0  0  0
 36 30  1  0  0  0  0
M  END
>  <minimizedAffinity>
-6.60232258

$$$$

 OpenBabel03242509203D

 37 42  0  0  1  0  0  0  0  0999 V2000
   68.0520   60.2640   32.0630 C   0  0  2  0  0  3  0  0  0  0  0  0
   68.5260   58.9950   31.5330 C   0  0  0  0  0  2  0  0  0  0  0  0
   67.4230   58.9140   32.4750 C   0  0  2  0  0  3  0  0  0  0  0  0
   66.0300   58.6220   32.0790 C   0  0  0  0  0  0  0  0  0  0  0  0
   64.8820   58.5020   32.8160 N   0  0  0  0  0  0  0  0  0  0  0  0
   63.9050   58.2240   32.0250 O   0  0  0  0  0  0  0  0  0  0  0  0
   64.3260   58.1470   30.7860 C   0  0  0  0  0  0  0  0  0  0  0  0
   65.6590   58.3950   30.8040 N   0  0  0  0  0  0  0  0  0  0  0  0
   63.6970   57.8740   29.5300 N   0  0  0  0  0  0  0  0  0  0  0  0
   64.1910   56.9090   28.7300 C   0  0  0  0  0  3  0  0  0  0  0  0
   63.4360   56.8330   27.6040 N   0  0  0  0  0  0  0  0  0  0  0  0
   62.4530   57.7570   27.6880 C   0  0  0  0  0  0  0  0  0  0  0  0
   61.3700   58.2120   26.9280 C   0  0  0  0  0  0  0  0  0  0  0  0
   60.5820   59.2040   27.3780 N   0  0  0  0  0  0  0  0  0  0  0  0
   60.7910   59.8060   28.5700 C   0  0  0  0  0  3  0  0  0  0  0  0
   61.8320   59.4000   29.3490 N   0  0  0  0  0  0  0  0  0  0  0  0
   62.6310   58.3990   28.9010 C   0  0  0  0  0  0  0  0  0  0  0  0
   61.1740   57.5590   25.6760 N   0  0  0  0  0  0  0  0  0  0  0  0
   60.3960   57.8420   25.0630 H   0  0  0  0  0  0  0  0  0  0  0  0
   61.8110   56.8040   25.3850 H   0  0  0  0  0  0  0  0  0  0  0  0
   67.2440   61.2180   31.2720 C   0  0  0  0  0  2  0  0  0  0  0  0
   68.0190   62.3270   29.1050 C   0  0  0  0  0  3  0  0  0  0  0  0
   68.0240   62.1510   30.4960 C   0  0  0  0  0  0  0  0  0  0  0  0
   68.8650   62.9460   31.2350 C   0  0  0  0  0  3  0  0  0  0  0  0
   69.6500   63.8620   30.5820 N   0  0  0  0  0  0  0  0  0  0  0  0
   69.6250   64.0140   29.2310 C   0  0  0  0  0  0  0  0  0  0  0  0
   68.8020   63.2350   28.5090 N   0  0  0  0  0  0  0  0  0  0  0  0
   70.4730   64.9890   28.6380 N   0  0  0  0  0  0  0  0  0  0  0  0
   70.2160   66.2940   28.8310 C   0  0  0  0  0  3  0  0  0  0  0  0
   70.9670   67.3280   28.3050 C   0  0  0  0  0  0  0  0  0  0  0  0
   72.0550   66.9880   27.5310 C   0  0  0  0  0  0  0  0  0  0  0  0
   72.7640   67.8750   27.0340 O   0  0  0  0  0  0  0  0  0  0  0  0
   72.3010   65.6670   27.3450 N   0  0  0  0  0  0  0  0  0  0  0  0
   71.5360   64.6790   27.8810 C   0  0  0  0  0  0  0  0  0  0  0  0
   71.8140   63.4630   27.6740 O   0  0  0  0  0  0  0  0  0  0  0  0
   70.5780   68.7390   28.5920 C   0  0  0  0  0  1  0  0  0  0  0  0
   73.1100   65.3990   26.7670 H   0  0  0  0  0  0  0  0  0  0  0  0
  1 21  1  6  0  0  0
  1  3  1  0  0  0  0
  2  1  1  0  0  0  0
  2  3  1  0  0  0  0
  3  4  1  6  0  0  0
  4  5  2  0  0  0  0
  6  5  1  0  0  0  0
  7  8  2  0  0  0  0
  7  6  1  0  0  0  0
  8  4  1  0  0  0  0
  9  7  1  0  0  0  0
 10  9  1  0  0  0  0
 11 12  1  0  0  0  0
 11 10  2  0  0  0  0
 12 17  1  0  0  0  0
 13 14  1  0  0  0  0
 13 12  2  0  0  0  0
 14 15  2  0  0  0  0
 15 16  1  0  0  0  0
 17 16  2  0  0  0  0
 17  9  1  0  0  0  0
 18 13  1  0  0  0  0
 19 18  1  0  0  0  0
 20 18  1  0  0  0  0
 22 23  1  0  0  0  0
 23 24  2  0  0  0  0
 23 21  1  0  0  0  0
 25 24  1  0  0  0  0
 26 25  2  0  0  0  0
 27 22  2  0  0  0  0
 27 26  1  0  0  0  0
 28 29  1  0  0  0  0
 28 26  1  0  0  0  0
 30 36  1  0  0  0  0
 30 29  2  0  0  0  0
 31 30  1  0  0  0  0
 32 31  2  0  0  0  0
 33 31  1  0  0  0  0
 33 34  1  0  0  0  0
 34 28  1  0  0  0  0
 35 34  2  0  0  0  0
 37 33  1  0  0  0  0
M  END
>  <minimizedAffinity>
-6.53240013

$$$$

 OpenBabel03242509203D

 37 42  0  0  1  0  0  0  0  0999 V2000
   64.7550   62.4140   29.9680 C   0  0  2  0  0  3  0  0  0  0  0  0
   65.0240   63.6360   29.2260 C   0  0  0  0  0  2  0  0  0  0  0  0
   63.6220   63.2860   29.3800 C   0  0  2  0  0  3  0  0  0  0  0  0
   62.7020   63.9820   30.3020 C   0  0  0  0  0  0  0  0  0  0  0  0
   61.3450   63.8980   30.4670 N   0  0  0  0  0  0  0  0  0  0  0  0
   60.9850   64.7160   31.3930 O   0  0  0  0  0  0  0  0  0  0  0  0
   62.0260   65.3560   31.8690 C   0  0  0  0  0  0  0  0  0  0  0  0
   63.1110   64.9050   31.1940 N   0  0  0  0  0  0  0  0  0  0  0  0
   62.2120   66.3520   32.8800 N   0  0  0  0  0  0  0  0  0  0  0  0
   62.8730   67.4890   32.5840 C   0  0  0  0  0  3  0  0  0  0  0  0
   62.9250   68.2750   33.6890 N   0  0  0  0  0  0  0  0  0  0  0  0
   62.2910   67.6350   34.6970 C   0  0  0  0  0  0  0  0  0  0  0  0
   61.9780   67.8450   36.0440 C   0  0  0  0  0  0  0  0  0  0  0  0
   61.2960   66.9210   36.7450 N   0  0  0  0  0  0  0  0  0  0  0  0
   60.8840   65.7580   36.1930 C   0  0  0  0  0  3  0  0  0  0  0  0
   61.1630   65.5050   34.8840 N   0  0  0  0  0  0  0  0  0  0  0  0
   61.8500   66.4330   34.1710 C   0  0  0  0  0  0  0  0  0  0  0  0
   62.4260   69.0790   36.5980 N   0  0  0  0  0  0  0  0  0  0  0  0
   62.2310   69.3020   37.5850 H   0  0  0  0  0  0  0  0  0  0  0  0
   62.9440   69.7490   36.0120 H   0  0  0  0  0  0  0  0  0  0  0  0
   64.8920   62.3150   31.4380 C   0  0  0  0  0  2  0  0  0  0  0  0
   66.9250   61.5270   32.7670 C   0  0  0  0  0  3  0  0  0  0  0  0
   65.8590   61.3390   31.8760 C   0  0  0  0  0  0  0  0  0  0  0  0
   65.6920   60.0880   31.3380 C   0  0  0  0  0  3  0  0  0  0  0  0
   66.5690   59.0940   31.6940 N   0  0  0  0  0  0  0  0  0  0  0  0
   67.5940   59.3010   32.5620 C   0  0  0  0  0  0  0  0  0  0  0  0
   67.7570   60.5270   33.0880 N   0  0  0  0  0  0  0  0  0  0  0  0
   68.4540   58.2130   32.8760 N   0  0  0  0  0  0  0  0  0  0  0  0
   67.9860   57.1900   33.6100 C   0  0  0  0  0  3  0  0  0  0  0  0
   68.7280   56.0830   33.9760 C   0  0  0  0  0  0  0  0  0  0  0  0
   70.0380   56.0330   33.5540 C   0  0  0  0  0  0  0  0  0  0  0  0
   70.7490   55.0630   33.8540 O   0  0  0  0  0  0  0  0  0  0  0  0
   70.4960   57.0730   32.8140 N   0  0  0  0  0  0  0  0  0  0  0  0
   69.7330   58.1460   32.4740 C   0  0  0  0  0  0  0  0  0  0  0  0
   70.2140   59.0870   31.7820 O   0  0  0  0  0  0  0  0  0  0  0  0
   68.0910   55.0110   34.7960 C   0  0  0  0  0  1  0  0  0  0  0  0
   71.4740   57.0490   32.4930 H   0  0  0  0  0  0  0  0  0  0  0  0
  1 21  1  1  0  0  0
  2  3  1  0  0  0  0
  2  1  1  0  0  0  0
  3  1  1  0  0  0  0
  3  4  1  1  0  0  0
  4  5  2  0  0  0  0
  4  8  1  0  0  0  0
  5  6  1  0  0  0  0
  6  7  1  0  0  0  0
  7  9  1  0  0  0  0
  8  7  2  0  0  0  0
  9 17  1  0  0  0  0
 10  9  1  0  0  0  0
 10 11  2  0  0  0  0
 11 12  1  0  0  0  0
 12 13  1  0  0  0  0
 13 18  1  0  0  0  0
 13 14  2  0  0  0  0
 15 14  1  0  0  0  0
 16 15  2  0  0  0  0
 17 12  2  0  0  0  0
 17 16  1  0  0  0  0
 18 19  1  0  0  0  0
 20 18  1  0  0  0  0
 21 23  1  0  0  0  0
 22 27  2  0  0  0  0
 23 22  1  0  0  0  0
 24 25  1  0  0  0  0
 24 23  2  0  0  0  0
 25 26  2  0  0  0  0
 26 28  1  0  0  0  0
 26 27  1  0  0  0  0
 28 29  1  0  0  0  0
 29 30  2  0  0  0  0
 30 36  1  0  0  0  0
 31 32  2  0  0  0  0
 31 30  1  0  0  0  0
 33 31  1  0  0  0  0
 34 33  1  0  0  0  0
 34 28  1  0  0  0  0
 35 34  2  0  0  0  0
 37 33  1  0  0  0  0
M  END
>  <minimizedAffinity>
-6.44269228

$$$$
