
 OpenBabel03242509243D

 37 42  0  0  0  0  0  0  0  0999 V2000
   64.9260   57.4450   30.7990 O   0  0  0  0  0  0  0  0  0  0  0  0
   68.8430   57.5760   33.2320 N   0  0  0  0  0  0  0  0  0  0  0  0
   68.3270   56.3180   33.2350 C   0  0  0  0  0  3  0  0  0  0  0  0
   67.1960   56.3750   32.5080 N   0  0  0  0  0  0  0  0  0  0  0  0
   67.0260   57.6290   32.0740 C   0  0  0  0  0  0  0  0  0  0  0  0
   66.0090   58.1530   31.2960 C   0  0  0  0  0  0  0  0  0  0  0  0
   66.0910   59.4660   31.0060 N   0  0  0  0  0  0  0  0  0  0  0  0
   67.1010   60.2420   31.4390 C   0  0  0  0  0  0  0  0  0  0  0  0
   68.0860   59.7010   32.2010 N   0  0  0  0  0  0  0  0  0  0  0  0
   68.0660   58.3990   32.5290 C   0  0  0  0  0  0  0  0  0  0  0  0
   69.7130   57.8540   33.7070 H   0  0  0  0  0  0  0  0  0  0  0  0
   67.0500   61.6770   31.0320 C   0  0  0  0  0  2  0  0  0  0  0  0
   66.4330   61.7810   29.6390 C   0  0  0  0  0  2  0  0  0  0  0  0
   67.2120   62.7940   28.8880 C   0  0  0  0  0  0  0  0  0  0  0  0
   66.5530   63.6530   28.0320 C   0  0  0  0  0  3  0  0  0  0  0  0
   67.3850   64.5660   27.3760 C   0  0  0  0  0  3  0  0  0  0  0  0
   68.7530   64.5760   27.5930 C   0  0  0  0  0  3  0  0  0  0  0  0
   69.3480   63.6920   28.4590 C   0  0  0  0  0  3  0  0  0  0  0  0
   68.5390   62.8110   29.0920 N   0  0  0  0  0  0  0  0  0  0  0  0
   64.0850   57.9510   29.8390 C   0  0  0  0  0  0  0  0  0  0  0  0
   63.2760   58.8360   30.2390 O   0  0  0  0  0  0  0  0  0  0  0  0
   65.3240   56.8970   26.5740 C   0  0  0  0  0  3  0  0  0  0  0  0
   64.1740   56.7030   25.8490 C   0  0  0  0  0  3  0  0  0  0  0  0
   62.9360   56.9220   26.4490 C   0  0  0  0  0  0  0  0  0  0  0  0
   62.9560   57.3350   27.7700 N   0  0  0  0  0  0  0  0  0  0  0  0
   64.1060   57.5180   28.4610 C   0  0  0  0  0  0  0  0  0  0  0  0
   65.2440   57.2930   27.8400 N   0  0  0  0  0  0  0  0  0  0  0  0
   61.6120   56.8550   25.8800 C   0  0  0  0  0  0  0  0  0  0  0  0
   60.9410   55.6280   25.9910 C   0  0  0  0  0  3  0  0  0  0  0  0
   59.6820   55.3760   25.5010 C   0  0  0  0  0  3  0  0  0  0  0  0
   59.0000   56.3770   24.8470 C   0  0  0  0  0  3  0  0  0  0  0  0
   59.6020   57.6040   24.7020 C   0  0  0  0  0  0  0  0  0  0  0  0
   58.9520   58.6050   24.0220 C   0  0  0  0  0  3  0  0  0  0  0  0
   59.5310   59.8600   23.8100 C   0  0  0  0  0  3  0  0  0  0  0  0
   60.8140   60.0200   24.3370 C   0  0  0  0  0  3  0  0  0  0  0  0
   61.4310   58.9940   25.0120 C   0  0  0  0  0  3  0  0  0  0  0  0
   60.8580   57.7770   25.2160 C   0  0  0  0  0  0  0  0  0  0  0  0
  1  6  1  0  0  0  0
  2  3  1  0  0  0  0
  2 11  1  0  0  0  0
  4  3  2  0  0  0  0
  5  4  1  0  0  0  0
  5 10  2  0  0  0  0
  6  5  1  0  0  0  0
  7  6  2  0  0  0  0
  7  8  1  0  0  0  0
  8  9  2  0  0  0  0
  9 10  1  0  0  0  0
 10  2  1  0  0  0  0
 12  8  1  0  0  0  0
 13 12  1  0  0  0  0
 14 19  1  0  0  0  0
 14 13  1  0  0  0  0
 15 14  2  0  0  0  0
 16 17  2  0  0  0  0
 16 15  1  0  0  0  0
 17 18  1  0  0  0  0
 18 19  2  0  0  0  0
 20 21  2  0  0  0  0
 20  1  1  0  0  0  0
 22 27  2  0  0  0  0
 23 24  2  0  0  0  0
 23 22  1  0  0  0  0
 24 25  1  0  0  0  0
 25 26  2  0  0  0  0
 26 20  1  0  0  0  0
 27 26  1  0  0  0  0
 28 29  1  0  0  0  0
 28 24  1  0  0  0  0
 30 29  2  0  0  0  0
 31 30  1  0  0  0  0
 32 31  2  0  0  0  0
 32 37  1  0  0  0  0
 33 32  1  0  0  0  0
 34 33  2  0  0  0  0
 34 35  1  0  0  0  0
 35 36  2  0  0  0  0
 36 37  1  0  0  0  0
 37 28  2  0  0  0  0
M  END
>  <minimizedAffinity>
-8.85223961

$$$$

 OpenBabel03242509243D

 37 42  0  0  0  0  0  0  0  0999 V2000
   63.9610   57.9240   30.7090 O   0  0  0  0  0  0  0  0  0  0  0  0
   66.9400   59.9290   33.6050 N   0  0  0  0  0  0  0  0  0  0  0  0
   66.8330   58.6030   33.8820 C   0  0  0  0  0  3  0  0  0  0  0  0
   65.9510   58.1050   32.9960 N   0  0  0  0  0  0  0  0  0  0  0  0
   65.5330   59.0970   32.2020 C   0  0  0  0  0  0  0  0  0  0  0  0
   64.6300   59.0540   31.1530 C   0  0  0  0  0  0  0  0  0  0  0  0
   64.3920   60.2190   30.5190 N   0  0  0  0  0  0  0  0  0  0  0  0
   64.9900   61.3710   30.8710 C   0  0  0  0  0  0  0  0  0  0  0  0
   65.8710   61.3840   31.9040 N   0  0  0  0  0  0  0  0  0  0  0  0
   66.1540   60.2590   32.5810 C   0  0  0  0  0  0  0  0  0  0  0  0
   67.5450   60.5880   34.1150 H   0  0  0  0  0  0  0  0  0  0  0  0
   64.6210   62.5750   30.0700 C   0  0  0  0  0  2  0  0  0  0  0  0
   65.4390   63.7700   30.5550 C   0  0  0  0  0  2  0  0  0  0  0  0
   66.3190   64.1830   29.4350 C   0  0  0  0  0  0  0  0  0  0  0  0
   66.2310   63.5190   28.2280 C   0  0  0  0  0  3  0  0  0  0  0  0
   67.1060   63.9910   27.2440 C   0  0  0  0  0  3  0  0  0  0  0  0
   67.9750   65.0390   27.4990 C   0  0  0  0  0  3  0  0  0  0  0  0
   68.0140   65.6570   28.7240 C   0  0  0  0  0  3  0  0  0  0  0  0
   67.1660   65.1980   29.6720 N   0  0  0  0  0  0  0  0  0  0  0  0
   64.2450   57.3150   29.5120 C   0  0  0  0  0  0  0  0  0  0  0  0
   65.4710   57.0960   29.2930 O   0  0  0  0  0  0  0  0  0  0  0  0
   62.0100   55.2690   27.4820 C   0  0  0  0  0  3  0  0  0  0  0  0
   61.3180   56.1970   26.7440 C   0  0  0  0  0  3  0  0  0  0  0  0
   61.5870   57.5530   26.9150 C   0  0  0  0  0  0  0  0  0  0  0  0
   62.5640   57.8750   27.8410 N   0  0  0  0  0  0  0  0  0  0  0  0
   63.2310   56.9380   28.5550 C   0  0  0  0  0  0  0  0  0  0  0  0
   62.9310   55.6740   28.3500 N   0  0  0  0  0  0  0  0  0  0  0  0
   61.0500   58.6950   26.2150 C   0  0  0  0  0  0  0  0  0  0  0  0
   61.1110   58.6590   24.8140 C   0  0  0  0  0  3  0  0  0  0  0  0
   60.6600   59.6570   23.9840 C   0  0  0  0  0  3  0  0  0  0  0  0
   60.1010   60.7890   24.5320 C   0  0  0  0  0  3  0  0  0  0  0  0
   60.0130   60.8890   25.9000 C   0  0  0  0  0  0  0  0  0  0  0  0
   59.4900   62.0260   26.4680 C   0  0  0  0  0  3  0  0  0  0  0  0
   59.4120   62.1990   27.8530 C   0  0  0  0  0  3  0  0  0  0  0  0
   59.9020   61.1360   28.6150 C   0  0  0  0  0  3  0  0  0  0  0  0
   60.4160   60.0150   28.0090 C   0  0  0  0  0  3  0  0  0  0  0  0
   60.4860   59.8540   26.6600 C   0  0  0  0  0  0  0  0  0  0  0  0
  1  6  1  0  0  0  0
  2  3  1  0  0  0  0
  2 11  1  0  0  0  0
  4  3  2  0  0  0  0
  5 10  2  0  0  0  0
  5  4  1  0  0  0  0
  6  5  1  0  0  0  0
  7  8  1  0  0  0  0
  7  6  2  0  0  0  0
  8  9  2  0  0  0  0
  9 10  1  0  0  0  0
 10  2  1  0  0  0  0
 12 13  1  0  0  0  0
 12  8  1  0  0  0  0
 14 19  1  0  0  0  0
 14 13  1  0  0  0  0
 15 14  2  0  0  0  0
 16 17  2  0  0  0  0
 16 15  1  0  0  0  0
 17 18  1  0  0  0  0
 18 19  2  0  0  0  0
 20  1  1  0  0  0  0
 21 20  2  0  0  0  0
 22 27  2  0  0  0  0
 23 24  2  0  0  0  0
 23 22  1  0  0  0  0
 24 25  1  0  0  0  0
 25 26  2  0  0  0  0
 26 20  1  0  0  0  0
 27 26  1  0  0  0  0
 28 37  1  0  0  0  0
 28 24  1  0  0  0  0
 29 28  2  0  0  0  0
 30 31  2  0  0  0  0
 30 29  1  0  0  0  0
 31 32  1  0  0  0  0
 32 33  2  0  0  0  0
 32 37  1  0  0  0  0
 33 34  1  0  0  0  0
 34 35  2  0  0  0  0
 36 35  1  0  0  0  0
 37 36  2  0  0  0  0
M  END
>  <minimizedAffinity>
-8.29832649

$$$$

 OpenBabel03242509243D

 37 42  0  0  0  0  0  0  0  0999 V2000
   65.5930   58.0350   30.2560 O   0  0  0  0  0  0  0  0  0  0  0  0
   66.9340   59.1890   34.5160 N   0  0  0  0  0  0  0  0  0  0  0  0
   67.0220   57.8440   34.3420 C   0  0  0  0  0  3  0  0  0  0  0  0
   66.6150   57.6010   33.0820 N   0  0  0  0  0  0  0  0  0  0  0  0
   66.2880   58.7630   32.5050 C   0  0  0  0  0  0  0  0  0  0  0  0
   65.8200   59.0010   31.2240 C   0  0  0  0  0  0  0  0  0  0  0  0
   65.5680   60.2850   30.9060 N   0  0  0  0  0  0  0  0  0  0  0  0
   65.7560   61.2970   31.7730 C   0  0  0  0  0  0  0  0  0  0  0  0
   66.2160   61.0350   33.0230 N   0  0  0  0  0  0  0  0  0  0  0  0
   66.4870   59.7760   33.4080 C   0  0  0  0  0  0  0  0  0  0  0  0
   67.1790   59.6850   35.3850 H   0  0  0  0  0  0  0  0  0  0  0  0
   65.4320   62.6630   31.2690 C   0  0  0  0  0  2  0  0  0  0  0  0
   64.7470   62.5480   29.9100 C   0  0  0  0  0  2  0  0  0  0  0  0
   63.4550   63.2690   30.0060 C   0  0  0  0  0  0  0  0  0  0  0  0
   63.3830   64.4240   30.7580 C   0  0  0  0  0  3  0  0  0  0  0  0
   62.1180   65.0210   30.7790 C   0  0  0  0  0  3  0  0  0  0  0  0
   61.0520   64.4690   30.0900 C   0  0  0  0  0  3  0  0  0  0  0  0
   61.1900   63.3150   29.3590 C   0  0  0  0  0  3  0  0  0  0  0  0
   62.4150   62.7410   29.3420 N   0  0  0  0  0  0  0  0  0  0  0  0
   64.4070   57.9330   29.5720 C   0  0  0  0  0  0  0  0  0  0  0  0
   63.3780   58.2830   30.2170 O   0  0  0  0  0  0  0  0  0  0  0  0
   65.3780   56.7330   26.2680 C   0  0  0  0  0  3  0  0  0  0  0  0
   64.1740   56.5720   25.6250 C   0  0  0  0  0  3  0  0  0  0  0  0
   62.9900   56.8640   26.2980 C   0  0  0  0  0  0  0  0  0  0  0  0
   63.1160   57.3120   27.6020 N   0  0  0  0  0  0  0  0  0  0  0  0
   64.3160   57.4620   28.2100 C   0  0  0  0  0  0  0  0  0  0  0  0
   65.3990   57.1670   27.5230 N   0  0  0  0  0  0  0  0  0  0  0  0
   61.6290   56.8430   25.8200 C   0  0  0  0  0  0  0  0  0  0  0  0
   60.9150   55.6500   26.0080 C   0  0  0  0  0  3  0  0  0  0  0  0
   59.6160   55.4430   25.6090 C   0  0  0  0  0  3  0  0  0  0  0  0
   58.9350   56.4560   24.9740 C   0  0  0  0  0  3  0  0  0  0  0  0
   59.5790   57.6520   24.7560 C   0  0  0  0  0  0  0  0  0  0  0  0
   58.9280   58.6640   24.0930 C   0  0  0  0  0  3  0  0  0  0  0  0
   59.5450   59.8860   23.8080 C   0  0  0  0  0  3  0  0  0  0  0  0
   60.8670   60.0010   24.2460 C   0  0  0  0  0  3  0  0  0  0  0  0
   61.4820   58.9660   24.9060 C   0  0  0  0  0  3  0  0  0  0  0  0
   60.8730   57.7810   25.1810 C   0  0  0  0  0  0  0  0  0  0  0  0
  1  6  1  0  0  0  0
  2 11  1  0  0  0  0
  3  2  1  0  0  0  0
  4  3  2  0  0  0  0
  5  4  1  0  0  0  0
  5 10  2  0  0  0  0
  6  5  1  0  0  0  0
  7  6  2  0  0  0  0
  7  8  1  0  0  0  0
  8  9  2  0  0  0  0
  9 10  1  0  0  0  0
 10  2  1  0  0  0  0
 12  8  1  0  0  0  0
 13 14  1  0  0  0  0
 13 12  1  0  0  0  0
 14 15  1  0  0  0  0
 15 16  2  0  0  0  0
 17 16  1  0  0  0  0
 18 17  2  0  0  0  0
 19 18  1  0  0  0  0
 19 14  2  0  0  0  0
 20 21  2  0  0  0  0
 20  1  1  0  0  0  0
 22 27  2  0  0  0  0
 23 22  1  0  0  0  0
 23 24  2  0  0  0  0
 24 25  1  0  0  0  0
 25 26  2  0  0  0  0
 26 20  1  0  0  0  0
 27 26  1  0  0  0  0
 28 29  1  0  0  0  0
 28 24  1  0  0  0  0
 30 29  2  0  0  0  0
 31 30  1  0  0  0  0
 32 31  2  0  0  0  0
 32 37  1  0  0  0  0
 33 32  1  0  0  0  0
 34 33  2  0  0  0  0
 34 35  1  0  0  0  0
 35 36  2  0  0  0  0
 36 37  1  0  0  0  0
 37 28  2  0  0  0  0
M  END
>  <minimizedAffinity>
-8.01540375

$$$$

 OpenBabel03242509243D

 37 42  0  0  0  0  0  0  0  0999 V2000
   63.9010   59.5270   30.2430 O   0  0  0  0  0  0  0  0  0  0  0  0
   65.9020   63.6630   30.6630 N   0  0  0  0  0  0  0  0  0  0  0  0
   64.6750   63.7880   30.0910 C   0  0  0  0  0  3  0  0  0  0  0  0
   64.1700   62.5430   30.0090 N   0  0  0  0  0  0  0  0  0  0  0  0
   65.0620   61.6840   30.5150 C   0  0  0  0  0  0  0  0  0  0  0  0
   64.9760   60.3080   30.6390 C   0  0  0  0  0  0  0  0  0  0  0  0
   66.0360   59.6880   31.1920 N   0  0  0  0  0  0  0  0  0  0  0  0
   67.1280   60.3530   31.6100 C   0  0  0  0  0  0  0  0  0  0  0  0
   67.1850   61.7020   31.4770 N   0  0  0  0  0  0  0  0  0  0  0  0
   66.1650   62.3850   30.9320 C   0  0  0  0  0  0  0  0  0  0  0  0
   66.5390   64.4470   30.8600 H   0  0  0  0  0  0  0  0  0  0  0  0
   68.2170   59.5230   32.2030 C   0  0  0  0  0  2  0  0  0  0  0  0
   67.6240   58.2200   32.7340 C   0  0  0  0  0  2  0  0  0  0  0  0
   68.7570   57.3250   33.0690 C   0  0  0  0  0  0  0  0  0  0  0  0
   68.4960   56.0630   33.5620 C   0  0  0  0  0  3  0  0  0  0  0  0
   69.6370   55.3050   33.8430 C   0  0  0  0  0  3  0  0  0  0  0  0
   70.9070   55.8150   33.6330 C   0  0  0  0  0  3  0  0  0  0  0  0
   71.1000   57.0810   33.1400 C   0  0  0  0  0  3  0  0  0  0  0  0
   69.9930   57.8100   32.8690 N   0  0  0  0  0  0  0  0  0  0  0  0
   64.0240   58.1950   29.9320 C   0  0  0  0  0  0  0  0  0  0  0  0
   64.0930   57.4120   30.9220 O   0  0  0  0  0  0  0  0  0  0  0  0
   65.3260   57.0030   26.7410 C   0  0  0  0  0  3  0  0  0  0  0  0
   64.1900   56.7670   26.0060 C   0  0  0  0  0  3  0  0  0  0  0  0
   62.9400   57.0040   26.5750 C   0  0  0  0  0  0  0  0  0  0  0  0
   62.9350   57.4770   27.8750 N   0  0  0  0  0  0  0  0  0  0  0  0
   64.0710   57.7000   28.5760 C   0  0  0  0  0  0  0  0  0  0  0  0
   65.2210   57.4550   27.9850 N   0  0  0  0  0  0  0  0  0  0  0  0
   61.6260   56.9010   25.9870 C   0  0  0  0  0  0  0  0  0  0  0  0
   60.9740   55.6660   26.1190 C   0  0  0  0  0  3  0  0  0  0  0  0
   59.7270   55.3810   25.6160 C   0  0  0  0  0  3  0  0  0  0  0  0
   59.0390   56.3540   24.9260 C   0  0  0  0  0  3  0  0  0  0  0  0
   59.6230   57.5870   24.7590 C   0  0  0  0  0  0  0  0  0  0  0  0
   58.9680   58.5600   24.0450 C   0  0  0  0  0  3  0  0  0  0  0  0
   59.5300   59.8190   23.8090 C   0  0  0  0  0  3  0  0  0  0  0  0
   60.8020   60.0130   24.3520 C   0  0  0  0  0  3  0  0  0  0  0  0
   61.4250   59.0140   25.0620 C   0  0  0  0  0  3  0  0  0  0  0  0
   60.8690   57.7930   25.2880 C   0  0  0  0  0  0  0  0  0  0  0  0
  1  6  1  0  0  0  0
  2 11  1  0  0  0  0
  2 10  1  0  0  0  0
  3  2  1  0  0  0  0
  4  3  2  0  0  0  0
  4  5  1  0  0  0  0
  5  6  1  0  0  0  0
  5 10  2  0  0  0  0
  6  7  2  0  0  0  0
  7  8  1  0  0  0  0
  8 12  1  0  0  0  0
  9  8  2  0  0  0  0
 10  9  1  0  0  0  0
 12 13  1  0  0  0  0
 13 14  1  0  0  0  0
 14 15  1  0  0  0  0
 15 16  2  0  0  0  0
 17 16  1  0  0  0  0
 18 17  2  0  0  0  0
 19 14  2  0  0  0  0
 19 18  1  0  0  0  0
 20  1  1  0  0  0  0
 20 21  2  0  0  0  0
 22 27  2  0  0  0  0
 23 24  2  0  0  0  0
 23 22  1  0  0  0  0
 24 25  1  0  0  0  0
 25 26  2  0  0  0  0
 26 20  1  0  0  0  0
 27 26  1  0  0  0  0
 28 29  1  0  0  0  0
 28 24  1  0  0  0  0
 30 29  2  0  0  0  0
 31 30  1  0  0  0  0
 32 31  2  0  0  0  0
 32 37  1  0  0  0  0
 33 32  1  0  0  0  0
 34 33  2  0  0  0  0
 34 35  1  0  0  0  0
 35 36  2  0  0  0  0
 36 37  1  0  0  0  0
 37 28  2  0  0  0  0
M  END
>  <minimizedAffinity>
-8.00260448

$$$$

 OpenBabel03242509243D

 37 42  0  0  0  0  0  0  0  0999 V2000
   60.2120   60.6170   28.5390 O   0  0  0  0  0  0  0  0  0  0  0  0
   60.7260   57.8050   24.9180 N   0  0  0  0  0  0  0  0  0  0  0  0
   59.8260   58.7820   24.6320 C   0  0  0  0  0  3  0  0  0  0  0  0
   59.7400   59.5480   25.7350 N   0  0  0  0  0  0  0  0  0  0  0  0
   60.5640   59.0530   26.6670 C   0  0  0  0  0  0  0  0  0  0  0  0
   60.8050   59.5110   27.9510 C   0  0  0  0  0  0  0  0  0  0  0  0
   61.6950   58.8100   28.6800 N   0  0  0  0  0  0  0  0  0  0  0  0
   62.3270   57.7230   28.2030 C   0  0  0  0  0  0  0  0  0  0  0  0
   62.0710   57.2960   26.9400 N   0  0  0  0  0  0  0  0  0  0  0  0
   61.1940   57.9470   26.1580 C   0  0  0  0  0  0  0  0  0  0  0  0
   61.0080   57.0590   24.2670 H   0  0  0  0  0  0  0  0  0  0  0  0
   63.2850   57.0570   29.1330 C   0  0  0  0  0  2  0  0  0  0  0  0
   64.6100   57.8140   29.1140 C   0  0  0  0  0  2  0  0  0  0  0  0
   65.1390   57.8100   30.4990 C   0  0  0  0  0  0  0  0  0  0  0  0
   64.3110   58.1840   31.5380 C   0  0  0  0  0  3  0  0  0  0  0  0
   64.9120   58.1430   32.8000 C   0  0  0  0  0  3  0  0  0  0  0  0
   66.2320   57.7540   32.9540 C   0  0  0  0  0  3  0  0  0  0  0  0
   67.0050   57.3940   31.8780 C   0  0  0  0  0  3  0  0  0  0  0  0
   66.4180   57.4350   30.6590 N   0  0  0  0  0  0  0  0  0  0  0  0
   60.5730   61.9050   28.2320 C   0  0  0  0  0  0  0  0  0  0  0  0
   60.1320   62.3440   27.1310 O   0  0  0  0  0  0  0  0  0  0  0  0
   61.6320   64.6100   30.4380 C   0  0  0  0  0  3  0  0  0  0  0  0
   62.9380   64.2930   30.7200 C   0  0  0  0  0  3  0  0  0  0  0  0
   63.5020   63.1430   30.1700 C   0  0  0  0  0  0  0  0  0  0  0  0
   62.6820   62.3850   29.3530 N   0  0  0  0  0  0  0  0  0  0  0  0
   61.3970   62.7230   29.0910 C   0  0  0  0  0  0  0  0  0  0  0  0
   60.9210   63.8190   29.6420 N   0  0  0  0  0  0  0  0  0  0  0  0
   64.8530   62.6460   30.2620 C   0  0  0  0  0  0  0  0  0  0  0  0
   65.1330   61.7780   31.3280 C   0  0  0  0  0  3  0  0  0  0  0  0
   66.3620   61.2170   31.5790 C   0  0  0  0  0  3  0  0  0  0  0  0
   67.4190   61.5050   30.7450 C   0  0  0  0  0  3  0  0  0  0  0  0
   67.2120   62.3510   29.6820 C   0  0  0  0  0  0  0  0  0  0  0  0
   68.2620   62.6780   28.8580 C   0  0  0  0  0  3  0  0  0  0  0  0
   68.1200   63.5640   27.7850 C   0  0  0  0  0  3  0  0  0  0  0  0
   66.8370   64.0890   27.6130 C   0  0  0  0  0  3  0  0  0  0  0  0
   65.8130   63.7360   28.4580 C   0  0  0  0  0  3  0  0  0  0  0  0
   65.9600   62.8720   29.4980 C   0  0  0  0  0  0  0  0  0  0  0  0
  2 10  1  0  0  0  0
  3  2  1  0  0  0  0
  3  4  2  0  0  0  0
  4  5  1  0  0  0  0
  5  6  1  0  0  0  0
  6  1  1  0  0  0  0
  6  7  2  0  0  0  0
  8  7  1  0  0  0  0
  8 12  1  0  0  0  0
  9  8  2  0  0  0  0
 10  5  2  0  0  0  0
 10  9  1  0  0  0  0
 11  2  1  0  0  0  0
 13 12  1  0  0  0  0
 13 14  1  0  0  0  0
 14 19  2  0  0  0  0
 14 15  1  0  0  0  0
 15 16  2  0  0  0  0
 16 17  1  0  0  0  0
 18 17  2  0  0  0  0
 19 18  1  0  0  0  0
 20  1  1  0  0  0  0
 20 26  1  0  0  0  0
 21 20  2  0  0  0  0
 22 23  1  0  0  0  0
 24 28  1  0  0  0  0
 24 23  2  0  0  0  0
 25 24  1  0  0  0  0
 26 25  2  0  0  0  0
 26 27  1  0  0  0  0
 27 22  2  0  0  0  0
 28 29  1  0  0  0  0
 29 30  2  0  0  0  0
 31 30  1  0  0  0  0
 32 31  2  0  0  0  0
 33 32  1  0  0  0  0
 34 33  2  0  0  0  0
 35 34  1  0  0  0  0
 35 36  2  0  0  0  0
 36 37  1  0  0  0  0
 37 32  1  0  0  0  0
 37 28  2  0  0  0  0
M  END
>  <minimizedAffinity>
-7.9049511

$$$$

 OpenBabel03242509243D

 37 42  0  0  0  0  0  0  0  0999 V2000
   67.0530   60.5680   32.1090 O   0  0  0  0  0  0  0  0  0  0  0  0
   67.3980   55.9680   32.2020 N   0  0  0  0  0  0  0  0  0  0  0  0
   68.3880   56.5310   32.9440 C   0  0  0  0  0  3  0  0  0  0  0  0
   68.2100   57.8620   32.8600 N   0  0  0  0  0  0  0  0  0  0  0  0
   67.1430   58.1050   32.0890 C   0  0  0  0  0  0  0  0  0  0  0  0
   66.5880   59.3190   31.7250 C   0  0  0  0  0  0  0  0  0  0  0  0
   65.5020   59.2680   30.9300 N   0  0  0  0  0  0  0  0  0  0  0  0
   64.9710   58.1080   30.5030 C   0  0  0  0  0  0  0  0  0  0  0  0
   65.5360   56.9320   30.8750 N   0  0  0  0  0  0  0  0  0  0  0  0
   66.6220   56.9090   31.6660 C   0  0  0  0  0  0  0  0  0  0  0  0
   67.2660   54.9550   32.0710 H   0  0  0  0  0  0  0  0  0  0  0  0
   63.7670   58.2190   29.6280 C   0  0  0  0  0  2  0  0  0  0  0  0
   63.4240   56.8400   29.0700 C   0  0  0  0  0  2  0  0  0  0  0  0
   62.5140   57.0450   27.9180 C   0  0  0  0  0  0  0  0  0  0  0  0
   61.9400   58.2860   27.7250 C   0  0  0  0  0  3  0  0  0  0  0  0
   61.1010   58.3670   26.6090 C   0  0  0  0  0  3  0  0  0  0  0  0
   60.8880   57.2710   25.7900 C   0  0  0  0  0  3  0  0  0  0  0  0
   61.4900   56.0620   26.0370 C   0  0  0  0  0  3  0  0  0  0  0  0
   62.3010   55.9890   27.1170 N   0  0  0  0  0  0  0  0  0  0  0  0
   67.6890   61.4220   31.2430 C   0  0  0  0  0  0  0  0  0  0  0  0
   68.9510   61.4390   31.3270 O   0  0  0  0  0  0  0  0  0  0  0  0
   66.9220   63.2980   28.2110 C   0  0  0  0  0  3  0  0  0  0  0  0
   65.6830   63.8290   28.4740 C   0  0  0  0  0  3  0  0  0  0  0  0
   65.0640   63.5610   29.6940 C   0  0  0  0  0  0  0  0  0  0  0  0
   65.7660   62.7610   30.5780 N   0  0  0  0  0  0  0  0  0  0  0  0
   66.9880   62.2530   30.2920 C   0  0  0  0  0  0  0  0  0  0  0  0
   67.5190   62.5380   29.1230 N   0  0  0  0  0  0  0  0  0  0  0  0
   63.8150   64.0550   30.2210 C   0  0  0  0  0  0  0  0  0  0  0  0
   63.8930   65.1260   31.1230 C   0  0  0  0  0  3  0  0  0  0  0  0
   62.8120   65.7170   31.7320 C   0  0  0  0  0  3  0  0  0  0  0  0
   61.5460   65.2510   31.4610 C   0  0  0  0  0  3  0  0  0  0  0  0
   61.4000   64.2010   30.5860 C   0  0  0  0  0  0  0  0  0  0  0  0
   60.1470   63.6980   30.3280 C   0  0  0  0  0  3  0  0  0  0  0  0
   59.9420   62.6070   29.4780 C   0  0  0  0  0  3  0  0  0  0  0  0
   61.0990   62.0680   28.9120 C   0  0  0  0  0  3  0  0  0  0  0  0
   62.3340   62.6000   29.1940 C   0  0  0  0  0  3  0  0  0  0  0  0
   62.5240   63.6640   30.0210 C   0  0  0  0  0  0  0  0  0  0  0  0
  2  3  1  0  0  0  0
  4  3  2  0  0  0  0
  5  4  1  0  0  0  0
  6  5  1  0  0  0  0
  6  1  1  0  0  0  0
  7  6  2  0  0  0  0
  8  9  2  0  0  0  0
  8  7  1  0  0  0  0
  9 10  1  0  0  0  0
 10  5  2  0  0  0  0
 10  2  1  0  0  0  0
 11  2  1  0  0  0  0
 12  8  1  0  0  0  0
 13 12  1  0  0  0  0
 14 13  1  0  0  0  0
 15 14  1  0  0  0  0
 16 15  2  0  0  0  0
 17 18  2  0  0  0  0
 17 16  1  0  0  0  0
 18 19  1  0  0  0  0
 19 14  2  0  0  0  0
 20 21  2  0  0  0  0
 20  1  1  0  0  0  0
 22 23  1  0  0  0  0
 22 27  2  0  0  0  0
 23 24  2  0  0  0  0
 24 28  1  0  0  0  0
 24 25  1  0  0  0  0
 26 25  2  0  0  0  0
 26 20  1  0  0  0  0
 27 26  1  0  0  0  0
 28 29  1  0  0  0  0
 29 30  2  0  0  0  0
 31 30  1  0  0  0  0
 32 31  2  0  0  0  0
 33 32  1  0  0  0  0
 34 33  2  0  0  0  0
 35 36  2  0  0  0  0
 35 34  1  0  0  0  0
 36 37  1  0  0  0  0
 37 28  2  0  0  0  0
 37 32  1  0  0  0  0
M  END
>  <minimizedAffinity>
-7.6990056

$$$$

 OpenBabel03242509243D

 37 42  0  0  0  0  0  0  0  0999 V2000
   65.8070   60.9220   31.1860 O   0  0  0  0  0  0  0  0  0  0  0  0
   66.7730   56.4230   31.5250 N   0  0  0  0  0  0  0  0  0  0  0  0
   67.7100   57.1580   32.1800 C   0  0  0  0  0  3  0  0  0  0  0  0
   67.3500   58.4450   32.0290 N   0  0  0  0  0  0  0  0  0  0  0  0
   66.2280   58.4960   31.3040 C   0  0  0  0  0  0  0  0  0  0  0  0
   65.4970   59.6010   30.9010 C   0  0  0  0  0  0  0  0  0  0  0  0
   64.3940   59.3560   30.1680 N   0  0  0  0  0  0  0  0  0  0  0  0
   64.0050   58.1110   29.8370 C   0  0  0  0  0  0  0  0  0  0  0  0
   64.7400   57.0460   30.2460 N   0  0  0  0  0  0  0  0  0  0  0  0
   65.8530   57.2180   30.9790 C   0  0  0  0  0  0  0  0  0  0  0  0
   66.7730   55.3950   31.4600 H   0  0  0  0  0  0  0  0  0  0  0  0
   62.7590   58.0060   29.0230 C   0  0  0  0  0  2  0  0  0  0  0  0
   62.8040   56.7200   28.2010 C   0  0  0  0  0  2  0  0  0  0  0  0
   61.8880   56.9010   27.0500 C   0  0  0  0  0  0  0  0  0  0  0  0
   61.5930   58.1790   26.6180 C   0  0  0  0  0  3  0  0  0  0  0  0
   60.7190   58.2320   25.5270 C   0  0  0  0  0  3  0  0  0  0  0  0
   60.2130   57.0770   24.9550 C   0  0  0  0  0  3  0  0  0  0  0  0
   60.5460   55.8340   25.4340 C   0  0  0  0  0  3  0  0  0  0  0  0
   61.3910   55.7870   26.4890 N   0  0  0  0  0  0  0  0  0  0  0  0
   66.6770   61.6630   30.4260 C   0  0  0  0  0  0  0  0  0  0  0  0
   66.2230   62.0550   29.3120 O   0  0  0  0  0  0  0  0  0  0  0  0
   69.4850   62.6530   32.5310 C   0  0  0  0  0  3  0  0  0  0  0  0
   70.5550   62.6060   31.6700 C   0  0  0  0  0  3  0  0  0  0  0  0
   70.3560   62.2320   30.3430 C   0  0  0  0  0  0  0  0  0  0  0  0
   69.0560   61.9300   29.9770 N   0  0  0  0  0  0  0  0  0  0  0  0
   68.0200   61.9850   30.8470 C   0  0  0  0  0  0  0  0  0  0  0  0
   68.2720   62.3430   32.0880 N   0  0  0  0  0  0  0  0  0  0  0  0
   71.2960   62.1770   29.2510 C   0  0  0  0  0  0  0  0  0  0  0  0
   72.0350   60.9930   29.1150 C   0  0  0  0  0  3  0  0  0  0  0  0
   72.9810   60.7660   28.1440 C   0  0  0  0  0  3  0  0  0  0  0  0
   73.2490   61.7500   27.2200 C   0  0  0  0  0  3  0  0  0  0  0  0
   72.5600   62.9380   27.2970 C   0  0  0  0  0  0  0  0  0  0  0  0
   72.8380   63.9450   26.4060 C   0  0  0  0  0  3  0  0  0  0  0  0
   72.1980   65.1870   26.4610 C   0  0  0  0  0  3  0  0  0  0  0  0
   71.2590   65.3270   27.4860 C   0  0  0  0  0  3  0  0  0  0  0  0
   71.0090   64.2950   28.3580 C   0  0  0  0  0  3  0  0  0  0  0  0
   71.6350   63.0890   28.2950 C   0  0  0  0  0  0  0  0  0  0  0  0
  2  3  1  0  0  0  0
  4  3  2  0  0  0  0
  5  4  1  0  0  0  0
  6  1  1  0  0  0  0
  6  5  1  0  0  0  0
  7  6  2  0  0  0  0
  8  7  1  0  0  0  0
  8  9  2  0  0  0  0
  9 10  1  0  0  0  0
 10  5  2  0  0  0  0
 10  2  1  0  0  0  0
 11  2  1  0  0  0  0
 12  8  1  0  0  0  0
 13 12  1  0  0  0  0
 14 13  1  0  0  0  0
 15 14  1  0  0  0  0
 16 15  2  0  0  0  0
 17 18  2  0  0  0  0
 17 16  1  0  0  0  0
 18 19  1  0  0  0  0
 19 14  2  0  0  0  0
 20 26  1  0  0  0  0
 20  1  1  0  0  0  0
 21 20  2  0  0  0  0
 23 22  1  0  0  0  0
 24 23  2  0  0  0  0
 25 24  1  0  0  0  0
 25 26  2  0  0  0  0
 26 27  1  0  0  0  0
 27 22  2  0  0  0  0
 28 24  1  0  0  0  0
 29 28  1  0  0  0  0
 30 29  2  0  0  0  0
 31 32  2  0  0  0  0
 31 30  1  0  0  0  0
 32 37  1  0  0  0  0
 33 34  2  0  0  0  0
 33 32  1  0  0  0  0
 34 35  1  0  0  0  0
 35 36  2  0  0  0  0
 37 36  1  0  0  0  0
 37 28  2  0  0  0  0
M  END
>  <minimizedAffinity>
-7.69883537

$$$$

 OpenBabel03242509243D

 37 42  0  0  0  0  0  0  0  0999 V2000
   63.9680   57.9930   30.8260 O   0  0  0  0  0  0  0  0  0  0  0  0
   66.9490   59.6870   33.9130 N   0  0  0  0  0  0  0  0  0  0  0  0
   66.6800   58.3820   34.1830 C   0  0  0  0  0  3  0  0  0  0  0  0
   65.8110   57.9750   33.2410 N   0  0  0  0  0  0  0  0  0  0  0  0
   65.5550   59.0000   32.4200 C   0  0  0  0  0  0  0  0  0  0  0  0
   64.7250   59.0470   31.3130 C   0  0  0  0  0  0  0  0  0  0  0  0
   64.6570   60.2260   30.6640 N   0  0  0  0  0  0  0  0  0  0  0  0
   65.3510   61.3100   31.0540 C   0  0  0  0  0  0  0  0  0  0  0  0
   66.1580   61.2350   32.1440 N   0  0  0  0  0  0  0  0  0  0  0  0
   66.2730   60.0920   32.8390 C   0  0  0  0  0  0  0  0  0  0  0  0
   67.5860   60.2810   34.4620 H   0  0  0  0  0  0  0  0  0  0  0  0
   65.1690   62.5400   30.2300 C   0  0  0  0  0  2  0  0  0  0  0  0
   63.7240   62.6070   29.7410 C   0  0  0  0  0  2  0  0  0  0  0  0
   63.0320   63.6360   30.5540 C   0  0  0  0  0  0  0  0  0  0  0  0
   61.7430   64.0020   30.2220 C   0  0  0  0  0  3  0  0  0  0  0  0
   61.1880   64.9790   31.0550 C   0  0  0  0  0  3  0  0  0  0  0  0
   61.9040   65.5110   32.1140 C   0  0  0  0  0  3  0  0  0  0  0  0
   63.1860   65.1040   32.3910 C   0  0  0  0  0  3  0  0  0  0  0  0
   63.7180   64.1580   31.5830 N   0  0  0  0  0  0  0  0  0  0  0  0
   64.2570   57.3540   29.6460 C   0  0  0  0  0  0  0  0  0  0  0  0
   65.4800   57.0990   29.4530 O   0  0  0  0  0  0  0  0  0  0  0  0
   62.0450   55.3290   27.5700 C   0  0  0  0  0  3  0  0  0  0  0  0
   61.3500   56.2660   26.8440 C   0  0  0  0  0  3  0  0  0  0  0  0
   61.6100   57.6200   27.0400 C   0  0  0  0  0  0  0  0  0  0  0  0
   62.5800   57.9330   27.9760 N   0  0  0  0  0  0  0  0  0  0  0  0
   63.2500   56.9880   28.6770 C   0  0  0  0  0  0  0  0  0  0  0  0
   62.9580   55.7250   28.4500 N   0  0  0  0  0  0  0  0  0  0  0  0
   61.0680   58.7700   26.3570 C   0  0  0  0  0  0  0  0  0  0  0  0
   61.1640   58.7720   24.9570 C   0  0  0  0  0  3  0  0  0  0  0  0
   60.7150   59.7840   24.1430 C   0  0  0  0  0  3  0  0  0  0  0  0
   60.1220   60.8910   24.7060 C   0  0  0  0  0  3  0  0  0  0  0  0
   59.9990   60.9530   26.0740 C   0  0  0  0  0  0  0  0  0  0  0  0
   59.4420   62.0650   26.6580 C   0  0  0  0  0  3  0  0  0  0  0  0
   59.3270   62.2000   28.0450 C   0  0  0  0  0  3  0  0  0  0  0  0
   59.8180   61.1260   28.7900 C   0  0  0  0  0  3  0  0  0  0  0  0
   60.3670   60.0310   28.1690 C   0  0  0  0  0  3  0  0  0  0  0  0
   60.4730   59.9060   26.8180 C   0  0  0  0  0  0  0  0  0  0  0  0
  1  6  1  0  0  0  0
  2  3  1  0  0  0  0
  2 11  1  0  0  0  0
  4  3  2  0  0  0  0
  5 10  2  0  0  0  0
  5  4  1  0  0  0  0
  6  5  1  0  0  0  0
  7  8  1  0  0  0  0
  7  6  2  0  0  0  0
  8  9  2  0  0  0  0
  9 10  1  0  0  0  0
 10  2  1  0  0  0  0
 12  8  1  0  0  0  0
 13 12  1  0  0  0  0
 13 14  1  0  0  0  0
 14 19  1  0  0  0  0
 15 14  2  0  0  0  0
 15 16  1  0  0  0  0
 16 17  2  0  0  0  0
 17 18  1  0  0  0  0
 19 18  2  0  0  0  0
 20  1  1  0  0  0  0
 21 20  2  0  0  0  0
 22 27  2  0  0  0  0
 23 24  2  0  0  0  0
 23 22  1  0  0  0  0
 24 25  1  0  0  0  0
 25 26  2  0  0  0  0
 26 20  1  0  0  0  0
 27 26  1  0  0  0  0
 28 37  1  0  0  0  0
 28 24  1  0  0  0  0
 29 28  2  0  0  0  0
 30 31  2  0  0  0  0
 30 29  1  0  0  0  0
 31 32  1  0  0  0  0
 32 33  2  0  0  0  0
 32 37  1  0  0  0  0
 33 34  1  0  0  0  0
 34 35  2  0  0  0  0
 36 35  1  0  0  0  0
 37 36  2  0  0  0  0
M  END
>  <minimizedAffinity>
-7.66238832

$$$$

 OpenBabel03242509243D

 37 42  0  0  0  0  0  0  0  0999 V2000
   64.0290   59.2360   30.2340 O   0  0  0  0  0  0  0  0  0  0  0  0
   67.2730   60.6780   33.1810 N   0  0  0  0  0  0  0  0  0  0  0  0
   66.5150   59.7050   33.7520 C   0  0  0  0  0  3  0  0  0  0  0  0
   65.6040   59.3480   32.8280 N   0  0  0  0  0  0  0  0  0  0  0  0
   65.7990   60.0810   31.7270 C   0  0  0  0  0  0  0  0  0  0  0  0
   65.1050   60.0600   30.5290 C   0  0  0  0  0  0  0  0  0  0  0  0
   65.5220   60.9180   29.5790 N   0  0  0  0  0  0  0  0  0  0  0  0
   66.5560   61.7580   29.7640 C   0  0  0  0  0  0  0  0  0  0  0  0
   67.2180   61.7580   30.9490 N   0  0  0  0  0  0  0  0  0  0  0  0
   66.8550   60.9290   31.9410 C   0  0  0  0  0  0  0  0  0  0  0  0
   68.0600   61.1550   33.6430 H   0  0  0  0  0  0  0  0  0  0  0  0
   66.8960   62.6470   28.6140 C   0  0  0  0  0  2  0  0  0  0  0  0
   65.9780   63.8660   28.6340 C   0  0  0  0  0  2  0  0  0  0  0  0
   66.7740   65.0080   29.1430 C   0  0  0  0  0  0  0  0  0  0  0  0
   66.3640   65.6580   30.2900 C   0  0  0  0  0  3  0  0  0  0  0  0
   67.1890   66.7180   30.6790 C   0  0  0  0  0  3  0  0  0  0  0  0
   68.3150   67.0580   29.9480 C   0  0  0  0  0  3  0  0  0  0  0  0
   68.6680   66.3710   28.8130 C   0  0  0  0  0  3  0  0  0  0  0  0
   67.8680   65.3460   28.4410 N   0  0  0  0  0  0  0  0  0  0  0  0
   64.1800   57.9370   29.8180 C   0  0  0  0  0  0  0  0  0  0  0  0
   64.3540   57.0890   30.7410 O   0  0  0  0  0  0  0  0  0  0  0  0
   65.2870   56.9720   26.4800 C   0  0  0  0  0  3  0  0  0  0  0  0
   64.1090   56.7940   25.7970 C   0  0  0  0  0  3  0  0  0  0  0  0
   62.8960   56.9940   26.4530 C   0  0  0  0  0  0  0  0  0  0  0  0
   62.9690   57.3720   27.7820 N   0  0  0  0  0  0  0  0  0  0  0  0
   64.1460   57.5400   28.4300 C   0  0  0  0  0  0  0  0  0  0  0  0
   65.2580   57.3340   27.7570 N   0  0  0  0  0  0  0  0  0  0  0  0
   61.5500   56.9380   25.9360 C   0  0  0  0  0  0  0  0  0  0  0  0
   60.9060   55.6930   25.9910 C   0  0  0  0  0  3  0  0  0  0  0  0
   59.6320   55.4490   25.5380 C   0  0  0  0  0  3  0  0  0  0  0  0
   58.9040   56.4770   24.9830 C   0  0  0  0  0  3  0  0  0  0  0  0
   59.4770   57.7240   24.8980 C   0  0  0  0  0  0  0  0  0  0  0  0
   58.7810   58.7560   24.3170 C   0  0  0  0  0  3  0  0  0  0  0  0
   59.3280   60.0340   24.1670 C   0  0  0  0  0  3  0  0  0  0  0  0
   60.6290   60.1840   24.6500 C   0  0  0  0  0  3  0  0  0  0  0  0
   61.2930   59.1280   25.2260 C   0  0  0  0  0  3  0  0  0  0  0  0
   60.7520   57.8880   25.3700 C   0  0  0  0  0  0  0  0  0  0  0  0
  1  6  1  0  0  0  0
  2 11  1  0  0  0  0
  2  3  1  0  0  0  0
  4  3  2  0  0  0  0
  5 10  2  0  0  0  0
  5  4  1  0  0  0  0
  6  5  1  0  0  0  0
  7  8  1  0  0  0  0
  7  6  2  0  0  0  0
  8  9  2  0  0  0  0
  9 10  1  0  0  0  0
 10  2  1  0  0  0  0
 12 13  1  0  0  0  0
 12  8  1  0  0  0  0
 13 14  1  0  0  0  0
 14 15  1  0  0  0  0
 15 16  2  0  0  0  0
 17 16  1  0  0  0  0
 18 17  2  0  0  0  0
 19 18  1  0  0  0  0
 19 14  2  0  0  0  0
 20  1  1  0  0  0  0
 20 21  2  0  0  0  0
 22 27  2  0  0  0  0
 23 24  2  0  0  0  0
 23 22  1  0  0  0  0
 24 25  1  0  0  0  0
 25 26  2  0  0  0  0
 26 20  1  0  0  0  0
 27 26  1  0  0  0  0
 28 29  1  0  0  0  0
 28 24  1  0  0  0  0
 30 29  2  0  0  0  0
 31 30  1  0  0  0  0
 32 31  2  0  0  0  0
 32 37  1  0  0  0  0
 33 32  1  0  0  0  0
 34 33  2  0  0  0  0
 34 35  1  0  0  0  0
 35 36  2  0  0  0  0
 36 37  1  0  0  0  0
 37 28  2  0  0  0  0
M  END
>  <minimizedAffinity>
-7.64267921

$$$$
