
 OpenBabel03242509273D

 32 36  0  0  0  0  0  0  0  0999 V2000
   64.5380   57.6830   29.0940 C   0  0  0  0  0  0  0  0  0  0  0  0
   65.7420   57.4360   29.7000 C   0  0  0  0  0  3  0  0  0  0  0  0
   65.8410   57.9400   30.9800 C   0  0  0  0  0  0  0  0  0  0  0  0
   64.8580   58.6090   31.5880 N   0  0  0  0  0  0  0  0  0  0  0  0
   63.6890   58.8140   30.9190 C   0  0  0  0  0  3  0  0  0  0  0  0
   63.5230   58.3560   29.6770 N   0  0  0  0  0  0  0  0  0  0  0  0
   67.0070   57.7990   31.7980 N   0  0  0  0  0  0  0  0  0  0  0  0
   67.0670   56.5910   32.3920 C   0  0  0  0  0  3  0  0  0  0  0  0
   68.1330   56.2780   33.2260 C   0  0  0  0  0  3  0  0  0  0  0  0
   69.1360   57.2360   33.4340 C   0  0  0  0  0  0  0  0  0  0  0  0
   70.2290   56.9360   34.2820 N   0  0  0  0  0  0  0  0  0  0  0  0
   69.0100   58.4310   32.8030 N   0  0  0  0  0  0  0  0  0  0  0  0
   67.9770   58.7180   32.0030 C   0  0  0  0  0  0  0  0  0  0  0  0
   67.8050   59.7960   31.3970 O   0  0  0  0  0  0  0  0  0  0  0  0
   70.9670   57.6360   34.4370 H   0  0  0  0  0  0  0  0  0  0  0  0
   70.2850   56.0160   34.7440 H   0  0  0  0  0  0  0  0  0  0  0  0
   65.1260   56.2820   25.6750 C   0  0  0  0  0  3  0  0  0  0  0  0
   65.4100   56.7670   26.9700 C   0  0  0  0  0  3  0  0  0  0  0  0
   64.3350   57.1800   27.7320 C   0  0  0  0  0  0  0  0  0  0  0  0
   63.1240   57.0880   27.1830 N   0  0  0  0  0  0  0  0  0  0  0  0
   62.8320   56.6260   25.9430 C   0  0  0  0  0  0  0  0  0  0  0  0
   63.8750   56.2240   25.2040 N   0  0  0  0  0  0  0  0  0  0  0  0
   61.4010   56.6630   25.6680 C   0  0  0  0  0  0  0  0  0  0  0  0
   60.6010   55.5850   25.8690 C   0  0  0  0  0  3  0  0  0  0  0  0
   59.2450   55.5720   25.6240 C   0  0  0  0  0  3  0  0  0  0  0  0
   58.6110   56.6960   25.1450 C   0  0  0  0  0  3  0  0  0  0  0  0
   59.3870   57.8140   24.9260 C   0  0  0  0  0  0  0  0  0  0  0  0
   58.7320   58.9290   24.4470 C   0  0  0  0  0  3  0  0  0  0  0  0
   59.4450   60.0840   24.2070 C   0  0  0  0  0  3  0  0  0  0  0  0
   60.8140   60.0690   24.4630 C   0  0  0  0  0  3  0  0  0  0  0  0
   61.4030   58.9200   24.9410 C   0  0  0  0  0  3  0  0  0  0  0  0
   60.7340   57.7470   25.1950 C   0  0  0  0  0  0  0  0  0  0  0  0
  1  6  2  0  0  0  0
  1  2  1  0  0  0  0
  2  3  2  0  0  0  0
  3  4  1  0  0  0  0
  3  7  1  0  0  0  0
  5  4  2  0  0  0  0
  6  5  1  0  0  0  0
  7 13  1  0  0  0  0
  7  8  1  0  0  0  0
  8  9  2  0  0  0  0
  9 10  1  0  0  0  0
 10 11  1  0  0  0  0
 11 15  1  0  0  0  0
 11 16  1  0  0  0  0
 12 10  2  0  0  0  0
 13 12  1  0  0  0  0
 14 13  2  0  0  0  0
 17 18  1  0  0  0  0
 18 19  2  0  0  0  0
 19  1  1  0  0  0  0
 20 19  1  0  0  0  0
 21 20  2  0  0  0  0
 22 17  2  0  0  0  0
 22 21  1  0  0  0  0
 23 24  1  0  0  0  0
 23 21  1  0  0  0  0
 25 24  2  0  0  0  0
 26 25  1  0  0  0  0
 27 26  2  0  0  0  0
 27 32  1  0  0  0  0
 28 27  1  0  0  0  0
 29 28  2  0  0  0  0
 29 30  1  0  0  0  0
 30 31  2  0  0  0  0
 31 32  1  0  0  0  0
 32 23  2  0  0  0  0
M  END
>  <minimizedAffinity>
-8.13173199

$$$$

 OpenBabel03242509273D

 32 36  0  0  0  0  0  0  0  0999 V2000
   63.9050   58.2800   29.8690 C   0  0  0  0  0  0  0  0  0  0  0  0
   64.6330   57.5210   30.7470 C   0  0  0  0  0  3  0  0  0  0  0  0
   65.3410   58.2570   31.6740 C   0  0  0  0  0  0  0  0  0  0  0  0
   65.3260   59.5910   31.7230 N   0  0  0  0  0  0  0  0  0  0  0  0
   64.5760   60.2760   30.8160 C   0  0  0  0  0  3  0  0  0  0  0  0
   63.8650   59.6290   29.8890 N   0  0  0  0  0  0  0  0  0  0  0  0
   66.1690   57.6720   32.6840 N   0  0  0  0  0  0  0  0  0  0  0  0
   65.9360   58.2040   33.9000 C   0  0  0  0  0  3  0  0  0  0  0  0
   66.6520   57.7550   35.0040 C   0  0  0  0  0  3  0  0  0  0  0  0
   67.6100   56.7480   34.8270 C   0  0  0  0  0  0  0  0  0  0  0  0
   68.3500   56.2800   35.9390 N   0  0  0  0  0  0  0  0  0  0  0  0
   67.7910   56.2590   33.5740 N   0  0  0  0  0  0  0  0  0  0  0  0
   67.0950   56.7010   32.5210 C   0  0  0  0  0  0  0  0  0  0  0  0
   67.2150   56.2930   31.3470 O   0  0  0  0  0  0  0  0  0  0  0  0
   69.0550   55.5390   35.8140 H   0  0  0  0  0  0  0  0  0  0  0  0
   68.1840   56.6800   36.8740 H   0  0  0  0  0  0  0  0  0  0  0  0
   62.2340   55.6190   27.8380 C   0  0  0  0  0  3  0  0  0  0  0  0
   63.0310   56.2070   28.8440 C   0  0  0  0  0  3  0  0  0  0  0  0
   63.1120   57.5860   28.8510 C   0  0  0  0  0  0  0  0  0  0  0  0
   62.4340   58.2430   27.9080 N   0  0  0  0  0  0  0  0  0  0  0  0
   61.6660   57.6970   26.9360 C   0  0  0  0  0  0  0  0  0  0  0  0
   61.5870   56.3590   26.9310 N   0  0  0  0  0  0  0  0  0  0  0  0
   61.0680   58.7100   26.0760 C   0  0  0  0  0  0  0  0  0  0  0  0
   61.1020   58.6170   24.7210 C   0  0  0  0  0  3  0  0  0  0  0  0
   60.5510   59.5480   23.8680 C   0  0  0  0  0  3  0  0  0  0  0  0
   59.9150   60.6620   24.3680 C   0  0  0  0  0  3  0  0  0  0  0  0
   59.8580   60.7970   25.7380 C   0  0  0  0  0  0  0  0  0  0  0  0
   59.2160   61.9190   26.2170 C   0  0  0  0  0  3  0  0  0  0  0  0
   59.1190   62.1170   27.5780 C   0  0  0  0  0  3  0  0  0  0  0  0
   59.6850   61.1610   28.4160 C   0  0  0  0  0  3  0  0  0  0  0  0
   60.3120   60.0640   27.8700 C   0  0  0  0  0  3  0  0  0  0  0  0
   60.4320   59.8240   26.5220 C   0  0  0  0  0  0  0  0  0  0  0  0
  1  6  2  0  0  0  0
  1  2  1  0  0  0  0
  2  3  2  0  0  0  0
  3  4  1  0  0  0  0
  3  7  1  0  0  0  0
  5  4  2  0  0  0  0
  6  5  1  0  0  0  0
  7  8  1  0  0  0  0
  8  9  2  0  0  0  0
 10  9  1  0  0  0  0
 10 11  1  0  0  0  0
 11 16  1  0  0  0  0
 12 10  2  0  0  0  0
 13  7  1  0  0  0  0
 13 12  1  0  0  0  0
 14 13  2  0  0  0  0
 15 11  1  0  0  0  0
 17 18  1  0  0  0  0
 18 19  2  0  0  0  0
 19  1  1  0  0  0  0
 20 19  1  0  0  0  0
 21 20  2  0  0  0  0
 22 21  1  0  0  0  0
 22 17  2  0  0  0  0
 23 32  1  0  0  0  0
 23 21  1  0  0  0  0
 24 23  2  0  0  0  0
 25 26  2  0  0  0  0
 25 24  1  0  0  0  0
 26 27  1  0  0  0  0
 27 28  2  0  0  0  0
 27 32  1  0  0  0  0
 28 29  1  0  0  0  0
 29 30  2  0  0  0  0
 31 30  1  0  0  0  0
 32 31  2  0  0  0  0
M  END
>  <minimizedAffinity>
-7.74680853

$$$$

 OpenBabel03242509273D

 32 36  0  0  0  0  0  0  0  0999 V2000
   61.7400   63.6350   29.7150 C   0  0  0  0  0  0  0  0  0  0  0  0
   62.9230   62.9730   29.5140 C   0  0  0  0  0  3  0  0  0  0  0  0
   64.0150   63.5850   30.0940 C   0  0  0  0  0  0  0  0  0  0  0  0
   63.9410   64.7200   30.7920 N   0  0  0  0  0  0  0  0  0  0  0  0
   62.7280   65.3200   30.9490 C   0  0  0  0  0  3  0  0  0  0  0  0
   61.6270   64.7840   30.4150 N   0  0  0  0  0  0  0  0  0  0  0  0
   65.3480   63.0690   30.0110 N   0  0  0  0  0  0  0  0  0  0  0  0
   65.9640   63.4350   28.8710 C   0  0  0  0  0  3  0  0  0  0  0  0
   67.2660   63.0220   28.6200 C   0  0  0  0  0  3  0  0  0  0  0  0
   67.9200   62.2260   29.5710 C   0  0  0  0  0  0  0  0  0  0  0  0
   69.2470   61.7940   29.3320 N   0  0  0  0  0  0  0  0  0  0  0  0
   67.2380   61.8950   30.6970 N   0  0  0  0  0  0  0  0  0  0  0  0
   65.9830   62.3000   30.9240 C   0  0  0  0  0  0  0  0  0  0  0  0
   65.3050   62.0300   31.9360 O   0  0  0  0  0  0  0  0  0  0  0  0
   69.7310   61.2090   30.0280 H   0  0  0  0  0  0  0  0  0  0  0  0
   69.7290   62.0650   28.4620 H   0  0  0  0  0  0  0  0  0  0  0  0
   58.1570   62.8120   29.0250 C   0  0  0  0  0  3  0  0  0  0  0  0
   59.2810   63.4030   29.6430 C   0  0  0  0  0  3  0  0  0  0  0  0
   60.5210   63.0580   29.1430 C   0  0  0  0  0  0  0  0  0  0  0  0
   60.5530   62.1990   28.1230 N   0  0  0  0  0  0  0  0  0  0  0  0
   59.4860   61.6220   27.5190 C   0  0  0  0  0  0  0  0  0  0  0  0
   58.2830   61.9580   28.0030 N   0  0  0  0  0  0  0  0  0  0  0  0
   59.8860   60.7340   26.4350 C   0  0  0  0  0  0  0  0  0  0  0  0
   59.5310   60.9680   25.1450 C   0  0  0  0  0  3  0  0  0  0  0  0
   59.8850   60.1580   24.0870 C   0  0  0  0  0  3  0  0  0  0  0  0
   60.6440   59.0290   24.2960 C   0  0  0  0  0  3  0  0  0  0  0  0
   61.0260   58.7540   25.5910 C   0  0  0  0  0  0  0  0  0  0  0  0
   61.7870   57.6190   25.7770 C   0  0  0  0  0  3  0  0  0  0  0  0
   62.2060   57.2840   27.0470 C   0  0  0  0  0  3  0  0  0  0  0  0
   61.8340   58.1200   28.0970 C   0  0  0  0  0  3  0  0  0  0  0  0
   61.0730   59.2370   27.8390 C   0  0  0  0  0  3  0  0  0  0  0  0
   60.6330   59.6110   26.5920 C   0  0  0  0  0  0  0  0  0  0  0  0
  1  6  1  0  0  0  0
  2  1  2  0  0  0  0
  2  3  1  0  0  0  0
  3  4  2  0  0  0  0
  4  5  1  0  0  0  0
  6  5  2  0  0  0  0
  7  3  1  0  0  0  0
  7 13  1  0  0  0  0
  8  7  1  0  0  0  0
  9  8  2  0  0  0  0
  9 10  1  0  0  0  0
 10 12  2  0  0  0  0
 11 10  1  0  0  0  0
 11 15  1  0  0  0  0
 12 13  1  0  0  0  0
 13 14  2  0  0  0  0
 16 11  1  0  0  0  0
 17 18  1  0  0  0  0
 19 18  2  0  0  0  0
 19  1  1  0  0  0  0
 20 19  1  0  0  0  0
 21 22  1  0  0  0  0
 21 20  2  0  0  0  0
 22 17  2  0  0  0  0
 23 32  1  0  0  0  0
 23 21  1  0  0  0  0
 24 23  2  0  0  0  0
 25 26  2  0  0  0  0
 25 24  1  0  0  0  0
 26 27  1  0  0  0  0
 27 28  2  0  0  0  0
 27 32  1  0  0  0  0
 28 29  1  0  0  0  0
 29 30  2  0  0  0  0
 31 30  1  0  0  0  0
 32 31  2  0  0  0  0
M  END
>  <minimizedAffinity>
-7.73803139

$$$$

 OpenBabel03242509273D

 32 36  0  0  0  0  0  0  0  0999 V2000
   64.6460   58.7830   30.8270 C   0  0  0  0  0  0  0  0  0  0  0  0
   65.2550   57.9320   31.7110 C   0  0  0  0  0  3  0  0  0  0  0  0
   66.0880   58.5600   32.6130 C   0  0  0  0  0  0  0  0  0  0  0  0
   66.2920   59.8790   32.6350 N   0  0  0  0  0  0  0  0  0  0  0  0
   65.6490   60.6610   31.7230 C   0  0  0  0  0  3  0  0  0  0  0  0
   64.8280   60.1210   30.8190 N   0  0  0  0  0  0  0  0  0  0  0  0
   66.8250   57.8670   33.6260 N   0  0  0  0  0  0  0  0  0  0  0  0
   68.0030   57.4020   33.1670 C   0  0  0  0  0  3  0  0  0  0  0  0
   68.8520   56.7010   34.0150 C   0  0  0  0  0  3  0  0  0  0  0  0
   68.4610   56.4910   35.3440 C   0  0  0  0  0  0  0  0  0  0  0  0
   69.3110   55.7770   36.2220 N   0  0  0  0  0  0  0  0  0  0  0  0
   67.2600   56.9870   35.7370 N   0  0  0  0  0  0  0  0  0  0  0  0
   66.4530   57.6600   34.9090 C   0  0  0  0  0  0  0  0  0  0  0  0
   65.3400   58.1390   35.2100 O   0  0  0  0  0  0  0  0  0  0  0  0
   69.0280   55.6210   37.2000 H   0  0  0  0  0  0  0  0  0  0  0  0
   70.2140   55.4140   35.8830 H   0  0  0  0  0  0  0  0  0  0  0  0
   62.9380   56.4140   28.4890 C   0  0  0  0  0  3  0  0  0  0  0  0
   63.8660   56.8920   29.4390 C   0  0  0  0  0  3  0  0  0  0  0  0
   63.7350   58.2090   29.8330 C   0  0  0  0  0  0  0  0  0  0  0  0
   62.7460   58.9170   29.2840 N   0  0  0  0  0  0  0  0  0  0  0  0
   61.8480   58.4760   28.3710 C   0  0  0  0  0  0  0  0  0  0  0  0
   61.9750   57.1970   27.9900 N   0  0  0  0  0  0  0  0  0  0  0  0
   60.9020   59.5160   27.9870 C   0  0  0  0  0  0  0  0  0  0  0  0
   60.3020   60.3180   28.9030 C   0  0  0  0  0  3  0  0  0  0  0  0
   59.4030   61.3140   28.5890 C   0  0  0  0  0  3  0  0  0  0  0  0
   59.0560   61.5530   27.2780 C   0  0  0  0  0  3  0  0  0  0  0  0
   59.6420   60.7600   26.3150 C   0  0  0  0  0  0  0  0  0  0  0  0
   59.2820   61.0170   25.0080 C   0  0  0  0  0  3  0  0  0  0  0  0
   59.8310   60.2640   23.9920 C   0  0  0  0  0  3  0  0  0  0  0  0
   60.7350   59.2650   24.3390 C   0  0  0  0  0  3  0  0  0  0  0  0
   61.0500   59.0630   25.6640 C   0  0  0  0  0  3  0  0  0  0  0  0
   60.5300   59.7870   26.7090 C   0  0  0  0  0  0  0  0  0  0  0  0
  1  2  1  0  0  0  0
  2  3  2  0  0  0  0
  3  4  1  0  0  0  0
  3  7  1  0  0  0  0
  5  4  2  0  0  0  0
  6  1  2  0  0  0  0
  6  5  1  0  0  0  0
  7 13  1  0  0  0  0
  8  7  1  0  0  0  0
  8  9  2  0  0  0  0
  9 10  1  0  0  0  0
 10 12  2  0  0  0  0
 10 11  1  0  0  0  0
 11 15  1  0  0  0  0
 13 14  2  0  0  0  0
 13 12  1  0  0  0  0
 16 11  1  0  0  0  0
 17 18  1  0  0  0  0
 18 19  2  0  0  0  0
 19  1  1  0  0  0  0
 20 19  1  0  0  0  0
 21 20  2  0  0  0  0
 22 21  1  0  0  0  0
 22 17  2  0  0  0  0
 23 21  1  0  0  0  0
 23 24  1  0  0  0  0
 25 24  2  0  0  0  0
 26 25  1  0  0  0  0
 27 32  1  0  0  0  0
 27 26  2  0  0  0  0
 28 27  1  0  0  0  0
 29 30  1  0  0  0  0
 29 28  2  0  0  0  0
 30 31  2  0  0  0  0
 31 32  1  0  0  0  0
 32 23  2  0  0  0  0
M  END
>  <minimizedAffinity>
-7.31115532

$$$$

 OpenBabel03242509273D

 32 36  0  0  0  0  0  0  0  0999 V2000
   64.4940   58.0190   29.2120 C   0  0  0  0  0  0  0  0  0  0  0  0
   65.0260   59.2780   29.3000 C   0  0  0  0  0  3  0  0  0  0  0  0
   65.1290   59.7560   30.5900 C   0  0  0  0  0  0  0  0  0  0  0  0
   64.7480   59.0630   31.6660 N   0  0  0  0  0  0  0  0  0  0  0  0
   64.2280   57.8160   31.4970 C   0  0  0  0  0  3  0  0  0  0  0  0
   64.0980   57.2890   30.2770 N   0  0  0  0  0  0  0  0  0  0  0  0
   65.6560   61.0460   30.9170 N   0  0  0  0  0  0  0  0  0  0  0  0
   64.7290   62.0160   30.8020 C   0  0  0  0  0  3  0  0  0  0  0  0
   65.0650   63.3360   31.0790 C   0  0  0  0  0  3  0  0  0  0  0  0
   66.3750   63.6320   31.4790 C   0  0  0  0  0  0  0  0  0  0  0  0
   66.7370   64.9710   31.7640 N   0  0  0  0  0  0  0  0  0  0  0  0
   67.2560   62.6050   31.5740 N   0  0  0  0  0  0  0  0  0  0  0  0
   66.9180   61.3390   31.3030 C   0  0  0  0  0  0  0  0  0  0  0  0
   67.6810   60.3530   31.3710 O   0  0  0  0  0  0  0  0  0  0  0  0
   67.6980   65.1930   32.0590 H   0  0  0  0  0  0  0  0  0  0  0  0
   66.0370   65.7230   31.6770 H   0  0  0  0  0  0  0  0  0  0  0  0
   65.2360   56.4090   25.9180 C   0  0  0  0  0  3  0  0  0  0  0  0
   65.4630   56.9850   27.1870 C   0  0  0  0  0  3  0  0  0  0  0  0
   64.3520   57.4220   27.8810 C   0  0  0  0  0  0  0  0  0  0  0  0
   63.1630   57.2640   27.2970 N   0  0  0  0  0  0  0  0  0  0  0  0
   62.9270   56.7140   26.0810 C   0  0  0  0  0  0  0  0  0  0  0  0
   64.0060   56.2900   25.4080 N   0  0  0  0  0  0  0  0  0  0  0  0
   61.5070   56.6980   25.7550 C   0  0  0  0  0  0  0  0  0  0  0  0
   60.7310   55.6040   25.9680 C   0  0  0  0  0  3  0  0  0  0  0  0
   59.3860   55.5410   25.6760 C   0  0  0  0  0  3  0  0  0  0  0  0
   58.7380   56.6280   25.1320 C   0  0  0  0  0  3  0  0  0  0  0  0
   59.4890   57.7600   24.8980 C   0  0  0  0  0  0  0  0  0  0  0  0
   58.8210   58.8360   24.3540 C   0  0  0  0  0  3  0  0  0  0  0  0
   59.5090   60.0020   24.0960 C   0  0  0  0  0  3  0  0  0  0  0  0
   60.8670   60.0380   24.4010 C   0  0  0  0  0  3  0  0  0  0  0  0
   61.4710   58.9250   24.9420 C   0  0  0  0  0  3  0  0  0  0  0  0
   60.8260   57.7430   25.2170 C   0  0  0  0  0  0  0  0  0  0  0  0
  1  2  2  0  0  0  0
  1  6  1  0  0  0  0
  2  3  1  0  0  0  0
  3  7  1  0  0  0  0
  3  4  2  0  0  0  0
  5  4  1  0  0  0  0
  6  5  2  0  0  0  0
  7 13  1  0  0  0  0
  8  7  1  0  0  0  0
  8  9  2  0  0  0  0
  9 10  1  0  0  0  0
 10 12  2  0  0  0  0
 10 11  1  0  0  0  0
 11 15  1  0  0  0  0
 13 14  2  0  0  0  0
 13 12  1  0  0  0  0
 16 11  1  0  0  0  0
 17 18  1  0  0  0  0
 18 19  2  0  0  0  0
 19  1  1  0  0  0  0
 20 19  1  0  0  0  0
 21 20  2  0  0  0  0
 22 17  2  0  0  0  0
 22 21  1  0  0  0  0
 23 24  1  0  0  0  0
 23 21  1  0  0  0  0
 25 24  2  0  0  0  0
 26 25  1  0  0  0  0
 27 26  2  0  0  0  0
 27 32  1  0  0  0  0
 28 27  1  0  0  0  0
 29 28  2  0  0  0  0
 29 30  1  0  0  0  0
 30 31  2  0  0  0  0
 31 32  1  0  0  0  0
 32 23  2  0  0  0  0
M  END
>  <minimizedAffinity>
-7.0571208

$$$$

 OpenBabel03242509273D

 32 36  0  0  0  0  0  0  0  0999 V2000
   65.5580   60.6310   31.8620 C   0  0  0  0  0  0  0  0  0  0  0  0
   65.0710   61.8130   31.3700 C   0  0  0  0  0  3  0  0  0  0  0  0
   65.4890   62.9270   32.0680 C   0  0  0  0  0  0  0  0  0  0  0  0
   66.2960   62.8720   33.1310 N   0  0  0  0  0  0  0  0  0  0  0  0
   66.7390   61.6580   33.5600 C   0  0  0  0  0  3  0  0  0  0  0  0
   66.3750   60.5370   32.9330 N   0  0  0  0  0  0  0  0  0  0  0  0
   65.1040   64.2640   31.7300 N   0  0  0  0  0  0  0  0  0  0  0  0
   65.9550   64.8300   30.8540 C   0  0  0  0  0  3  0  0  0  0  0  0
   65.7380   66.1300   30.4140 C   0  0  0  0  0  3  0  0  0  0  0  0
   64.6230   66.8310   30.8940 C   0  0  0  0  0  0  0  0  0  0  0  0
   64.3860   68.1570   30.4590 N   0  0  0  0  0  0  0  0  0  0  0  0
   63.8080   66.1980   31.7750 N   0  0  0  0  0  0  0  0  0  0  0  0
   64.0310   64.9460   32.1910 C   0  0  0  0  0  0  0  0  0  0  0  0
   63.3200   64.3110   32.9970 O   0  0  0  0  0  0  0  0  0  0  0  0
   63.5680   68.6760   30.8090 H   0  0  0  0  0  0  0  0  0  0  0  0
   65.0320   68.6030   29.7910 H   0  0  0  0  0  0  0  0  0  0  0  0
   65.4300   57.0690   30.7240 C   0  0  0  0  0  3  0  0  0  0  0  0
   65.8730   58.2220   31.4090 C   0  0  0  0  0  3  0  0  0  0  0  0
   65.1750   59.3910   31.1810 C   0  0  0  0  0  0  0  0  0  0  0  0
   64.1450   59.3340   30.3350 N   0  0  0  0  0  0  0  0  0  0  0  0
   63.7060   58.2390   29.6690 C   0  0  0  0  0  0  0  0  0  0  0  0
   64.3830   57.1040   29.8920 N   0  0  0  0  0  0  0  0  0  0  0  0
   62.5530   58.5360   28.8290 C   0  0  0  0  0  0  0  0  0  0  0  0
   61.7130   59.5690   29.0960 C   0  0  0  0  0  3  0  0  0  0  0  0
   60.6120   59.8880   28.3310 C   0  0  0  0  0  3  0  0  0  0  0  0
   60.2990   59.1460   27.2150 C   0  0  0  0  0  3  0  0  0  0  0  0
   61.1250   58.0870   26.9070 C   0  0  0  0  0  0  0  0  0  0  0  0
   60.7940   57.3580   25.7850 C   0  0  0  0  0  3  0  0  0  0  0  0
   61.5780   56.2860   25.4150 C   0  0  0  0  0  3  0  0  0  0  0  0
   62.6840   55.9850   26.2060 C   0  0  0  0  0  3  0  0  0  0  0  0
   62.9560   56.7560   27.3140 C   0  0  0  0  0  3  0  0  0  0  0  0
   62.2050   57.8330   27.7200 C   0  0  0  0  0  0  0  0  0  0  0  0
  1  6  1  0  0  0  0
  2  1  2  0  0  0  0
  2  3  1  0  0  0  0
  3  4  2  0  0  0  0
  4  5  1  0  0  0  0
  6  5  2  0  0  0  0
  7  3  1  0  0  0  0
  7 13  1  0  0  0  0
  8  7  1  0  0  0  0
  9  8  2  0  0  0  0
  9 10  1  0  0  0  0
 10 12  2  0  0  0  0
 11 15  1  0  0  0  0
 11 10  1  0  0  0  0
 12 13  1  0  0  0  0
 13 14  2  0  0  0  0
 16 11  1  0  0  0  0
 17 18  1  0  0  0  0
 19 18  2  0  0  0  0
 19  1  1  0  0  0  0
 20 19  1  0  0  0  0
 21 22  1  0  0  0  0
 21 20  2  0  0  0  0
 22 17  2  0  0  0  0
 23 24  1  0  0  0  0
 23 21  1  0  0  0  0
 25 24  2  0  0  0  0
 26 25  1  0  0  0  0
 27 26  2  0  0  0  0
 27 32  1  0  0  0  0
 28 27  1  0  0  0  0
 29 28  2  0  0  0  0
 29 30  1  0  0  0  0
 30 31  2  0  0  0  0
 31 32  1  0  0  0  0
 32 23  2  0  0  0  0
M  END
>  <minimizedAffinity>
-7.04363203

$$$$

 OpenBabel03242509273D

 32 36  0  0  0  0  0  0  0  0999 V2000
   63.0910   63.7630   30.3550 C   0  0  0  0  0  0  0  0  0  0  0  0
   64.2240   63.6670   29.5900 C   0  0  0  0  0  3  0  0  0  0  0  0
   65.3620   64.1450   30.2060 C   0  0  0  0  0  0  0  0  0  0  0  0
   65.3720   64.6580   31.4390 N   0  0  0  0  0  0  0  0  0  0  0  0
   64.2050   64.7190   32.1380 C   0  0  0  0  0  3  0  0  0  0  0  0
   63.0650   64.2750   31.6040 N   0  0  0  0  0  0  0  0  0  0  0  0
   66.6550   64.1440   29.5930 N   0  0  0  0  0  0  0  0  0  0  0  0
   66.9740   65.3470   29.0790 C   0  0  0  0  0  3  0  0  0  0  0  0
   68.1950   65.5300   28.4420 C   0  0  0  0  0  3  0  0  0  0  0  0
   69.0810   64.4470   28.3500 C   0  0  0  0  0  0  0  0  0  0  0  0
   70.3290   64.6130   27.7040 N   0  0  0  0  0  0  0  0  0  0  0  0
   68.6930   63.2640   28.8910 N   0  0  0  0  0  0  0  0  0  0  0  0
   67.5130   63.1030   29.5000 C   0  0  0  0  0  0  0  0  0  0  0  0
   67.1010   62.0440   30.0160 O   0  0  0  0  0  0  0  0  0  0  0  0
   70.9830   63.8210   27.6350 H   0  0  0  0  0  0  0  0  0  0  0  0
   70.5840   65.5280   27.3030 H   0  0  0  0  0  0  0  0  0  0  0  0
   59.5120   63.4850   29.3040 C   0  0  0  0  0  3  0  0  0  0  0  0
   60.6780   64.0230   29.8910 C   0  0  0  0  0  3  0  0  0  0  0  0
   61.8330   63.2730   29.7870 C   0  0  0  0  0  0  0  0  0  0  0  0
   61.7500   62.1080   29.1430 N   0  0  0  0  0  0  0  0  0  0  0  0
   60.6410   61.5750   28.5750 C   0  0  0  0  0  0  0  0  0  0  0  0
   59.5210   62.3040   28.6750 N   0  0  0  0  0  0  0  0  0  0  0  0
   60.9110   60.2860   27.9530 C   0  0  0  0  0  0  0  0  0  0  0  0
   61.5070   59.2700   28.6300 C   0  0  0  0  0  3  0  0  0  0  0  0
   61.7810   58.0340   28.0860 C   0  0  0  0  0  3  0  0  0  0  0  0
   61.4510   57.7590   26.7770 C   0  0  0  0  0  3  0  0  0  0  0  0
   60.8450   58.7620   26.0530 C   0  0  0  0  0  0  0  0  0  0  0  0
   60.5220   58.4650   24.7460 C   0  0  0  0  0  3  0  0  0  0  0  0
   59.9100   59.4210   23.9640 C   0  0  0  0  0  3  0  0  0  0  0  0
   59.6450   60.6610   24.5390 C   0  0  0  0  0  3  0  0  0  0  0  0
   59.9950   60.8900   25.8510 C   0  0  0  0  0  3  0  0  0  0  0  0
   60.6040   59.9680   26.6680 C   0  0  0  0  0  0  0  0  0  0  0  0
  1  6  1  0  0  0  0
  2  3  1  0  0  0  0
  2  1  2  0  0  0  0
  3  4  2  0  0  0  0
  4  5  1  0  0  0  0
  6  5  2  0  0  0  0
  7  3  1  0  0  0  0
  8  7  1  0  0  0  0
  9  8  2  0  0  0  0
 10  9  1  0  0  0  0
 10 12  2  0  0  0  0
 11 10  1  0  0  0  0
 12 13  1  0  0  0  0
 13  7  1  0  0  0  0
 13 14  2  0  0  0  0
 15 11  1  0  0  0  0
 16 11  1  0  0  0  0
 17 18  1  0  0  0  0
 19 18  2  0  0  0  0
 19  1  1  0  0  0  0
 20 19  1  0  0  0  0
 21 22  1  0  0  0  0
 21 20  2  0  0  0  0
 22 17  2  0  0  0  0
 23 21  1  0  0  0  0
 23 24  1  0  0  0  0
 25 24  2  0  0  0  0
 26 25  1  0  0  0  0
 27 32  1  0  0  0  0
 27 26  2  0  0  0  0
 28 27  1  0  0  0  0
 29 30  1  0  0  0  0
 29 28  2  0  0  0  0
 30 31  2  0  0  0  0
 31 32  1  0  0  0  0
 32 23  2  0  0  0  0
M  END
>  <minimizedAffinity>
-7.0120306

$$$$

 OpenBabel03242509273D

 32 36  0  0  0  0  0  0  0  0999 V2000
   63.9140   58.2470   29.9540 C   0  0  0  0  0  0  0  0  0  0  0  0
   64.4190   59.4950   29.7000 C   0  0  0  0  0  3  0  0  0  0  0  0
   65.1440   60.0320   30.7430 C   0  0  0  0  0  0  0  0  0  0  0  0
   65.3440   59.4010   31.9030 N   0  0  0  0  0  0  0  0  0  0  0  0
   64.8090   58.1610   32.0800 C   0  0  0  0  0  3  0  0  0  0  0  0
   64.0960   57.5800   31.1130 N   0  0  0  0  0  0  0  0  0  0  0  0
   65.7620   61.3220   30.6970 N   0  0  0  0  0  0  0  0  0  0  0  0
   67.1040   61.2450   30.7910 C   0  0  0  0  0  3  0  0  0  0  0  0
   67.8700   62.4030   30.7650 C   0  0  0  0  0  3  0  0  0  0  0  0
   67.2250   63.6410   30.6380 C   0  0  0  0  0  0  0  0  0  0  0  0
   67.9890   64.8320   30.6120 N   0  0  0  0  0  0  0  0  0  0  0  0
   65.8710   63.6430   30.5490 N   0  0  0  0  0  0  0  0  0  0  0  0
   65.1450   62.5190   30.5770 C   0  0  0  0  0  0  0  0  0  0  0  0
   63.9010   62.4550   30.4990 O   0  0  0  0  0  0  0  0  0  0  0  0
   67.5190   65.7440   30.5190 H   0  0  0  0  0  0  0  0  0  0  0  0
   69.0160   64.7870   30.6860 H   0  0  0  0  0  0  0  0  0  0  0  0
   62.2860   55.6630   27.7930 C   0  0  0  0  0  3  0  0  0  0  0  0
   63.0710   56.2140   28.8300 C   0  0  0  0  0  3  0  0  0  0  0  0
   63.1350   57.5910   28.9000 C   0  0  0  0  0  0  0  0  0  0  0  0
   62.4530   58.2830   27.9860 N   0  0  0  0  0  0  0  0  0  0  0  0
   61.6970   57.7730   26.9840 C   0  0  0  0  0  0  0  0  0  0  0  0
   61.6340   56.4360   26.9170 N   0  0  0  0  0  0  0  0  0  0  0  0
   61.0900   58.8170   26.1690 C   0  0  0  0  0  0  0  0  0  0  0  0
   61.0790   58.7580   24.8130 C   0  0  0  0  0  3  0  0  0  0  0  0
   60.5190   59.7190   24.0000 C   0  0  0  0  0  3  0  0  0  0  0  0
   59.9180   60.8310   24.5470 C   0  0  0  0  0  3  0  0  0  0  0  0
   59.9070   60.9320   25.9220 C   0  0  0  0  0  0  0  0  0  0  0  0
   59.3000   62.0530   26.4480 C   0  0  0  0  0  3  0  0  0  0  0  0
   59.2500   62.2190   27.8160 C   0  0  0  0  0  3  0  0  0  0  0  0
   59.8250   61.2320   28.6120 C   0  0  0  0  0  3  0  0  0  0  0  0
   60.4150   60.1380   28.0190 C   0  0  0  0  0  3  0  0  0  0  0  0
   60.4880   59.9300   26.6630 C   0  0  0  0  0  0  0  0  0  0  0  0
  1  6  1  0  0  0  0
  2  1  2  0  0  0  0
  2  3  1  0  0  0  0
  3  4  2  0  0  0  0
  4  5  1  0  0  0  0
  6  5  2  0  0  0  0
  7  3  1  0  0  0  0
  7  8  1  0  0  0  0
  9  8  2  0  0  0  0
 10  9  1  0  0  0  0
 11 10  1  0  0  0  0
 11 16  1  0  0  0  0
 12 13  1  0  0  0  0
 12 10  2  0  0  0  0
 13  7  1  0  0  0  0
 14 13  2  0  0  0  0
 15 11  1  0  0  0  0
 17 18  1  0  0  0  0
 18 19  2  0  0  0  0
 19  1  1  0  0  0  0
 20 19  1  0  0  0  0
 21 20  2  0  0  0  0
 22 21  1  0  0  0  0
 22 17  2  0  0  0  0
 23 32  1  0  0  0  0
 23 21  1  0  0  0  0
 24 23  2  0  0  0  0
 25 26  2  0  0  0  0
 25 24  1  0  0  0  0
 26 27  1  0  0  0  0
 27 28  2  0  0  0  0
 27 32  1  0  0  0  0
 28 29  1  0  0  0  0
 29 30  2  0  0  0  0
 31 30  1  0  0  0  0
 32 31  2  0  0  0  0
M  END
>  <minimizedAffinity>
-7.00709105

$$$$

 OpenBabel03242509273D

 32 36  0  0  0  0  0  0  0  0999 V2000
   64.7250   59.8010   30.9080 C   0  0  0  0  0  0  0  0  0  0  0  0
   64.7750   61.1360   30.6010 C   0  0  0  0  0  3  0  0  0  0  0  0
   65.5840   61.8760   31.4390 C   0  0  0  0  0  0  0  0  0  0  0  0
   66.2640   61.3510   32.4610 N   0  0  0  0  0  0  0  0  0  0  0  0
   66.1630   60.0140   32.7030 C   0  0  0  0  0  3  0  0  0  0  0  0
   65.3980   59.2360   31.9330 N   0  0  0  0  0  0  0  0  0  0  0  0
   65.7840   63.2860   31.3030 N   0  0  0  0  0  0  0  0  0  0  0  0
   66.8240   63.5760   30.4980 C   0  0  0  0  0  3  0  0  0  0  0  0
   67.1660   64.9000   30.2530 C   0  0  0  0  0  3  0  0  0  0  0  0
   66.4120   65.9180   30.8530 C   0  0  0  0  0  0  0  0  0  0  0  0
   66.7470   67.2730   30.6160 N   0  0  0  0  0  0  0  0  0  0  0  0
   65.3780   65.5520   31.6520 N   0  0  0  0  0  0  0  0  0  0  0  0
   65.0610   64.2730   31.8800 C   0  0  0  0  0  0  0  0  0  0  0  0
   64.1240   63.8740   32.6020 O   0  0  0  0  0  0  0  0  0  0  0  0
   66.1940   68.0240   31.0540 H   0  0  0  0  0  0  0  0  0  0  0  0
   67.5420   67.5080   30.0040 H   0  0  0  0  0  0  0  0  0  0  0  0
   63.3820   56.8350   29.0660 C   0  0  0  0  0  3  0  0  0  0  0  0
   64.2420   57.6080   29.8760 C   0  0  0  0  0  3  0  0  0  0  0  0
   63.8970   58.9310   30.0690 C   0  0  0  0  0  0  0  0  0  0  0  0
   62.7850   59.3660   29.4750 N   0  0  0  0  0  0  0  0  0  0  0  0
   61.9490   58.6410   28.6950 C   0  0  0  0  0  0  0  0  0  0  0  0
   62.2840   57.3560   28.5090 N   0  0  0  0  0  0  0  0  0  0  0  0
   60.8270   59.4340   28.2100 C   0  0  0  0  0  0  0  0  0  0  0  0
   59.9810   60.0780   29.0550 C   0  0  0  0  0  3  0  0  0  0  0  0
   58.9080   60.8390   28.6450 C   0  0  0  0  0  3  0  0  0  0  0  0
   58.6310   60.9890   27.3050 C   0  0  0  0  0  3  0  0  0  0  0  0
   59.4640   60.3510   26.4110 C   0  0  0  0  0  0  0  0  0  0  0  0
   59.1690   60.5150   25.0740 C   0  0  0  0  0  3  0  0  0  0  0  0
   59.9620   59.9080   24.1240 C   0  0  0  0  0  3  0  0  0  0  0  0
   61.0390   59.1450   24.5670 C   0  0  0  0  0  3  0  0  0  0  0  0
   61.2760   59.0230   25.9180 C   0  0  0  0  0  3  0  0  0  0  0  0
   60.5140   59.6100   26.9000 C   0  0  0  0  0  0  0  0  0  0  0  0
  1  6  1  0  0  0  0
  2  1  2  0  0  0  0
  2  3  1  0  0  0  0
  3  4  2  0  0  0  0
  4  5  1  0  0  0  0
  6  5  2  0  0  0  0
  7  3  1  0  0  0  0
  7 13  1  0  0  0  0
  8  7  1  0  0  0  0
  9  8  2  0  0  0  0
  9 10  1  0  0  0  0
 10 12  2  0  0  0  0
 11 10  1  0  0  0  0
 11 15  1  0  0  0  0
 12 13  1  0  0  0  0
 13 14  2  0  0  0  0
 16 11  1  0  0  0  0
 17 18  1  0  0  0  0
 18 19  2  0  0  0  0
 19  1  1  0  0  0  0
 20 19  1  0  0  0  0
 21 20  2  0  0  0  0
 22 21  1  0  0  0  0
 22 17  2  0  0  0  0
 23 21  1  0  0  0  0
 23 24  1  0  0  0  0
 25 24  2  0  0  0  0
 26 25  1  0  0  0  0
 27 32  1  0  0  0  0
 27 26  2  0  0  0  0
 28 27  1  0  0  0  0
 29 30  1  0  0  0  0
 29 28  2  0  0  0  0
 30 31  2  0  0  0  0
 31 32  1  0  0  0  0
 32 23  2  0  0  0  0
M  END
>  <minimizedAffinity>
-6.9115572

$$$$
