
 OpenBabel03242509243D

 37 42  0  0  0  0  0  0  0  0999 V2000
   64.2930   58.3060   30.5370 O   0  0  0  0  0  0  0  0  0  0  0  0
   66.7710   60.8140   33.5200 N   0  0  0  0  0  0  0  0  0  0  0  0
   66.8360   59.4980   33.8430 C   0  0  0  0  0  3  0  0  0  0  0  0
   66.0910   58.8450   32.9270 N   0  0  0  0  0  0  0  0  0  0  0  0
   65.5850   59.7400   32.0690 C   0  0  0  0  0  0  0  0  0  0  0  0
   64.7690   59.5260   30.9770 C   0  0  0  0  0  0  0  0  0  0  0  0
   64.4030   60.6220   30.2790 N   0  0  0  0  0  0  0  0  0  0  0  0
   64.8050   61.8590   30.6160 C   0  0  0  0  0  0  0  0  0  0  0  0
   65.6070   62.0380   31.6920 N   0  0  0  0  0  0  0  0  0  0  0  0
   66.0060   60.9980   32.4280 C   0  0  0  0  0  0  0  0  0  0  0  0
   67.2420   61.5680   34.0380 H   0  0  0  0  0  0  0  0  0  0  0  0
   64.3110   62.9690   29.7360 C   0  0  0  0  0  2  0  0  0  0  0  0
   65.0100   64.2680   30.1390 C   0  0  0  0  0  2  0  0  0  0  0  0
   66.1250   64.4890   29.1910 C   0  0  0  0  0  0  0  0  0  0  0  0
   66.1680   63.7660   28.0040 C   0  0  0  0  0  3  0  0  0  0  0  0
   67.2670   64.0660   27.1980 C   0  0  0  0  0  3  0  0  0  0  0  0
   68.2090   64.9940   27.5630 C   0  0  0  0  0  3  0  0  0  0  0  0
   68.1050   65.6800   28.7640 C   0  0  0  0  0  3  0  0  0  0  0  0
   67.0430   65.3930   29.5460 N   0  0  0  0  0  0  0  0  0  0  0  0
   64.9660   57.5040   29.6450 C   0  0  0  0  0  0  0  0  0  0  0  0
   66.0250   56.9810   30.1060 O   0  0  0  0  0  0  0  0  0  0  0  0
   65.0630   56.9120   26.0630 C   0  0  0  0  0  3  0  0  0  0  0  0
   63.7320   56.8420   25.7170 C   0  0  0  0  0  3  0  0  0  0  0  0
   62.7430   56.9910   26.7140 C   0  0  0  0  0  0  0  0  0  0  0  0
   63.2100   57.2000   27.9910 N   0  0  0  0  0  0  0  0  0  0  0  0
   64.5210   57.2640   28.2950 C   0  0  0  0  0  0  0  0  0  0  0  0
   65.4100   57.1190   27.3320 N   0  0  0  0  0  0  0  0  0  0  0  0
   61.4060   56.8980   26.2160 C   0  0  0  0  0  0  0  0  0  0  0  0
   60.8300   55.7240   25.9090 N   0  0  0  0  0  0  0  0  0  0  0  0
   59.5970   55.5790   25.4460 C   0  0  0  0  0  3  0  0  0  0  0  0
   58.7820   56.6090   25.2280 N   0  0  0  0  0  0  0  0  0  0  0  0
   59.2480   57.8290   25.4960 C   0  0  0  0  0  0  0  0  0  0  0  0
   58.4380   58.9240   25.2870 C   0  0  0  0  0  3  0  0  0  0  0  0
   58.8840   60.2020   25.5540 C   0  0  0  0  0  3  0  0  0  0  0  0
   60.1850   60.3520   26.0440 C   0  0  0  0  0  3  0  0  0  0  0  0
   60.9440   59.2210   26.2320 C   0  0  0  0  0  3  0  0  0  0  0  0
   60.5340   57.9360   25.9780 C   0  0  0  0  0  0  0  0  0  0  0  0
  1  6  1  0  0  0  0
  2  3  1  0  0  0  0
  2 11  1  0  0  0  0
  4  3  2  0  0  0  0
  5 10  2  0  0  0  0
  5  4  1  0  0  0  0
  6  5  1  0  0  0  0
  7  8  1  0  0  0  0
  7  6  2  0  0  0  0
  8  9  2  0  0  0  0
  9 10  1  0  0  0  0
 10  2  1  0  0  0  0
 12 13  1  0  0  0  0
 12  8  1  0  0  0  0
 14 19  1  0  0  0  0
 14 13  1  0  0  0  0
 15 14  2  0  0  0  0
 16 17  2  0  0  0  0
 16 15  1  0  0  0  0
 17 18  1  0  0  0  0
 18 19  2  0  0  0  0
 20 21  2  0  0  0  0
 20  1  1  0  0  0  0
 22 27  2  0  0  0  0
 23 22  1  0  0  0  0
 23 24  2  0  0  0  0
 24 25  1  0  0  0  0
 25 26  2  0  0  0  0
 26 20  1  0  0  0  0
 27 26  1  0  0  0  0
 28 24  1  0  0  0  0
 29 28  2  0  0  0  0
 30 29  1  0  0  0  0
 31 30  2  0  0  0  0
 31 32  1  0  0  0  0
 32 37  1  0  0  0  0
 33 32  2  0  0  0  0
 33 34  1  0  0  0  0
 34 35  2  0  0  0  0
 35 36  1  0  0  0  0
 37 28  1  0  0  0  0
 37 36  2  0  0  0  0
M  END
>  <minimizedAffinity>
-8.17320442

$$$$

 OpenBabel03242509243D

 37 42  0  0  0  0  0  0  0  0999 V2000
   63.2700   56.9270   29.2570 O   0  0  0  0  0  0  0  0  0  0  0  0
   60.9800   57.4760   25.2850 N   0  0  0  0  0  0  0  0  0  0  0  0
   61.7400   56.3530   25.2390 C   0  0  0  0  0  3  0  0  0  0  0  0
   62.3680   56.2720   26.4300 N   0  0  0  0  0  0  0  0  0  0  0  0
   62.0000   57.3170   27.1810 C   0  0  0  0  0  0  0  0  0  0  0  0
   62.3900   57.6400   28.4640 C   0  0  0  0  0  0  0  0  0  0  0  0
   61.8590   58.7650   28.9870 N   0  0  0  0  0  0  0  0  0  0  0  0
   60.9940   59.5380   28.3080 C   0  0  0  0  0  0  0  0  0  0  0  0
   60.6280   59.1950   27.0500 N   0  0  0  0  0  0  0  0  0  0  0  0
   61.1170   58.0950   26.4710 C   0  0  0  0  0  0  0  0  0  0  0  0
   60.3800   57.8090   24.5170 H   0  0  0  0  0  0  0  0  0  0  0  0
   60.4950   60.7530   29.0320 C   0  0  0  0  0  2  0  0  0  0  0  0
   60.8550   61.9960   28.2180 C   0  0  0  0  0  2  0  0  0  0  0  0
   61.4640   62.9770   29.1430 C   0  0  0  0  0  0  0  0  0  0  0  0
   60.6720   63.9750   29.7010 C   0  0  0  0  0  3  0  0  0  0  0  0
   61.3630   64.8350   30.5560 C   0  0  0  0  0  3  0  0  0  0  0  0
   62.7030   64.6900   30.8100 C   0  0  0  0  0  3  0  0  0  0  0  0
   63.4340   63.6700   30.2190 C   0  0  0  0  0  3  0  0  0  0  0  0
   62.7690   62.8370   29.3920 N   0  0  0  0  0  0  0  0  0  0  0  0
   64.5810   57.2920   29.4560 C   0  0  0  0  0  0  0  0  0  0  0  0
   65.2800   57.3310   28.3980 O   0  0  0  0  0  0  0  0  0  0  0  0
   64.7970   58.3940   32.9100 C   0  0  0  0  0  3  0  0  0  0  0  0
   66.1350   58.2590   33.2030 C   0  0  0  0  0  3  0  0  0  0  0  0
   67.0200   57.7720   32.2150 C   0  0  0  0  0  0  0  0  0  0  0  0
   66.4490   57.4630   31.0020 N   0  0  0  0  0  0  0  0  0  0  0  0
   65.1340   57.6100   30.7480 C   0  0  0  0  0  0  0  0  0  0  0  0
   64.3440   58.0670   31.7010 N   0  0  0  0  0  0  0  0  0  0  0  0
   68.3780   57.6830   32.6530 C   0  0  0  0  0  0  0  0  0  0  0  0
   69.3260   58.5430   32.2440 N   0  0  0  0  0  0  0  0  0  0  0  0
   70.5970   58.5080   32.6170 C   0  0  0  0  0  3  0  0  0  0  0  0
   71.0790   57.5930   33.4540 N   0  0  0  0  0  0  0  0  0  0  0  0
   70.2270   56.6820   33.9270 C   0  0  0  0  0  0  0  0  0  0  0  0
   70.6820   55.7170   34.7970 C   0  0  0  0  0  3  0  0  0  0  0  0
   69.8320   54.7590   35.3090 C   0  0  0  0  0  3  0  0  0  0  0  0
   68.4900   54.7990   34.9140 C   0  0  0  0  0  3  0  0  0  0  0  0
   68.0960   55.7870   34.0430 C   0  0  0  0  0  3  0  0  0  0  0  0
   68.9140   56.7550   33.5160 C   0  0  0  0  0  0  0  0  0  0  0  0
  1 20  1  0  0  0  0
  2 10  1  0  0  0  0
  3  2  1  0  0  0  0
  3  4  2  0  0  0  0
  4  5  1  0  0  0  0
  5  6  1  0  0  0  0
  6  7  2  0  0  0  0
  6  1  1  0  0  0  0
  8  7  1  0  0  0  0
  8 12  1  0  0  0  0
  9  8  2  0  0  0  0
 10  9  1  0  0  0  0
 10  5  2  0  0  0  0
 11  2  1  0  0  0  0
 13 12  1  0  0  0  0
 13 14  1  0  0  0  0
 14 19  2  0  0  0  0
 14 15  1  0  0  0  0
 15 16  2  0  0  0  0
 16 17  1  0  0  0  0
 18 17  2  0  0  0  0
 19 18  1  0  0  0  0
 20 26  1  0  0  0  0
 21 20  2  0  0  0  0
 22 23  1  0  0  0  0
 24 28  1  0  0  0  0
 24 23  2  0  0  0  0
 25 24  1  0  0  0  0
 26 25  2  0  0  0  0
 26 27  1  0  0  0  0
 27 22  2  0  0  0  0
 28 37  1  0  0  0  0
 29 30  1  0  0  0  0
 29 28  2  0  0  0  0
 30 31  2  0  0  0  0
 31 32  1  0  0  0  0
 32 33  1  0  0  0  0
 33 34  2  0  0  0  0
 35 34  1  0  0  0  0
 36 35  2  0  0  0  0
 37 32  2  0  0  0  0
 37 36  1  0  0  0  0
M  END
>  <minimizedAffinity>
-7.93769121

$$$$

 OpenBabel03242509243D

 37 42  0  0  0  0  0  0  0  0999 V2000
   59.9770   60.8510   28.4740 O   0  0  0  0  0  0  0  0  0  0  0  0
   60.8350   58.7450   24.4550 N   0  0  0  0  0  0  0  0  0  0  0  0
   60.0050   59.8010   24.2650 C   0  0  0  0  0  3  0  0  0  0  0  0
   59.8100   60.3530   25.4810 N   0  0  0  0  0  0  0  0  0  0  0  0
   60.5030   59.6520   26.3860 C   0  0  0  0  0  0  0  0  0  0  0  0
   60.5990   59.8540   27.7480 C   0  0  0  0  0  0  0  0  0  0  0  0
   61.3750   58.9850   28.4290 N   0  0  0  0  0  0  0  0  0  0  0  0
   62.0270   57.9750   27.8280 C   0  0  0  0  0  0  0  0  0  0  0  0
   61.9150   57.8030   26.4900 N   0  0  0  0  0  0  0  0  0  0  0  0
   61.1620   58.6250   25.7550 C   0  0  0  0  0  0  0  0  0  0  0  0
   61.1690   58.1210   23.7070 H   0  0  0  0  0  0  0  0  0  0  0  0
   62.8490   57.1000   28.7270 C   0  0  0  0  0  2  0  0  0  0  0  0
   64.3160   57.5180   28.6180 C   0  0  0  0  0  2  0  0  0  0  0  0
   64.8710   57.5710   29.9890 C   0  0  0  0  0  0  0  0  0  0  0  0
   64.1340   58.1740   31.0020 C   0  0  0  0  0  3  0  0  0  0  0  0
   64.7650   58.1580   32.2470 C   0  0  0  0  0  3  0  0  0  0  0  0
   66.0010   57.5930   32.4310 C   0  0  0  0  0  3  0  0  0  0  0  0
   66.6820   57.0080   31.3750 C   0  0  0  0  0  3  0  0  0  0  0  0
   66.0750   57.0210   30.1700 N   0  0  0  0  0  0  0  0  0  0  0  0
   60.3230   62.1800   28.3920 C   0  0  0  0  0  0  0  0  0  0  0  0
   59.6860   62.8340   27.5100 O   0  0  0  0  0  0  0  0  0  0  0  0
   61.9040   64.5190   30.6760 C   0  0  0  0  0  3  0  0  0  0  0  0
   63.1830   64.0270   30.7990 C   0  0  0  0  0  3  0  0  0  0  0  0
   63.5510   62.8560   30.1000 C   0  0  0  0  0  0  0  0  0  0  0  0
   62.5640   62.2870   29.3270 N   0  0  0  0  0  0  0  0  0  0  0  0
   61.3210   62.7980   29.2280 C   0  0  0  0  0  0  0  0  0  0  0  0
   61.0220   63.8920   29.9000 N   0  0  0  0  0  0  0  0  0  0  0  0
   64.9060   62.4580   30.3170 C   0  0  0  0  0  0  0  0  0  0  0  0
   65.2740   61.6840   31.3520 N   0  0  0  0  0  0  0  0  0  0  0  0
   66.5130   61.2850   31.6020 C   0  0  0  0  0  3  0  0  0  0  0  0
   67.5480   61.6210   30.8350 N   0  0  0  0  0  0  0  0  0  0  0  0
   67.3030   62.3900   29.7740 C   0  0  0  0  0  0  0  0  0  0  0  0
   68.3440   62.7600   28.9510 C   0  0  0  0  0  3  0  0  0  0  0  0
   68.1300   63.5540   27.8440 C   0  0  0  0  0  3  0  0  0  0  0  0
   66.8220   63.9740   27.5820 C   0  0  0  0  0  3  0  0  0  0  0  0
   65.8260   63.5710   28.4400 C   0  0  0  0  0  3  0  0  0  0  0  0
   66.0020   62.7820   29.5490 C   0  0  0  0  0  0  0  0  0  0  0  0
  2 10  1  0  0  0  0
  3  2  1  0  0  0  0
  3  4  2  0  0  0  0
  4  5  1  0  0  0  0
  5  6  1  0  0  0  0
  6  7  2  0  0  0  0
  6  1  1  0  0  0  0
  8  7  1  0  0  0  0
  8 12  1  0  0  0  0
  9  8  2  0  0  0  0
 10  5  2  0  0  0  0
 10  9  1  0  0  0  0
 11  2  1  0  0  0  0
 13 12  1  0  0  0  0
 13 14  1  0  0  0  0
 14 19  2  0  0  0  0
 14 15  1  0  0  0  0
 15 16  2  0  0  0  0
 16 17  1  0  0  0  0
 18 17  2  0  0  0  0
 19 18  1  0  0  0  0
 20  1  1  0  0  0  0
 20 26  1  0  0  0  0
 21 20  2  0  0  0  0
 22 23  1  0  0  0  0
 24 28  1  0  0  0  0
 24 23  2  0  0  0  0
 25 24  1  0  0  0  0
 26 25  2  0  0  0  0
 26 27  1  0  0  0  0
 27 22  2  0  0  0  0
 28 29  1  0  0  0  0
 29 30  2  0  0  0  0
 31 30  1  0  0  0  0
 32 31  2  0  0  0  0
 33 32  1  0  0  0  0
 34 33  2  0  0  0  0
 35 34  1  0  0  0  0
 35 36  2  0  0  0  0
 36 37  1  0  0  0  0
 37 32  1  0  0  0  0
 37 28  2  0  0  0  0
M  END
>  <minimizedAffinity>
-7.87698078

$$$$

 OpenBabel03242509243D

 37 42  0  0  0  0  0  0  0  0999 V2000
   64.1990   58.3700   30.4320 O   0  0  0  0  0  0  0  0  0  0  0  0
   66.7140   61.0410   33.2370 N   0  0  0  0  0  0  0  0  0  0  0  0
   66.8700   59.7340   33.5660 C   0  0  0  0  0  3  0  0  0  0  0  0
   66.1070   59.0320   32.7030 N   0  0  0  0  0  0  0  0  0  0  0  0
   65.5020   59.8880   31.8710 C   0  0  0  0  0  0  0  0  0  0  0  0
   64.6340   59.6190   30.8330 C   0  0  0  0  0  0  0  0  0  0  0  0
   64.1670   60.6850   30.1490 N   0  0  0  0  0  0  0  0  0  0  0  0
   64.5210   61.9460   30.4510 C   0  0  0  0  0  0  0  0  0  0  0  0
   65.3760   62.1800   31.4740 N   0  0  0  0  0  0  0  0  0  0  0  0
   65.8750   61.1710   32.1930 C   0  0  0  0  0  0  0  0  0  0  0  0
   67.1740   61.8260   33.7200 H   0  0  0  0  0  0  0  0  0  0  0  0
   63.9150   63.0180   29.5940 C   0  0  0  0  0  2  0  0  0  0  0  0
   62.7230   63.6260   30.3330 C   0  0  0  0  0  2  0  0  0  0  0  0
   61.5110   63.3590   29.5270 C   0  0  0  0  0  0  0  0  0  0  0  0
   61.3950   62.1510   28.8460 C   0  0  0  0  0  3  0  0  0  0  0  0
   60.2070   62.0210   28.1240 C   0  0  0  0  0  3  0  0  0  0  0  0
   59.2550   63.0070   28.1020 C   0  0  0  0  0  3  0  0  0  0  0  0
   59.4350   64.1880   28.8050 C   0  0  0  0  0  3  0  0  0  0  0  0
   60.5820   64.3180   29.5040 N   0  0  0  0  0  0  0  0  0  0  0  0
   64.9080   57.5550   29.5810 C   0  0  0  0  0  0  0  0  0  0  0  0
   65.9640   57.0630   30.0850 O   0  0  0  0  0  0  0  0  0  0  0  0
   65.1090   56.8280   26.0290 C   0  0  0  0  0  3  0  0  0  0  0  0
   63.7890   56.7560   25.6440 C   0  0  0  0  0  3  0  0  0  0  0  0
   62.7710   56.9490   26.6040 C   0  0  0  0  0  0  0  0  0  0  0  0
   63.2010   57.2020   27.8870 N   0  0  0  0  0  0  0  0  0  0  0  0
   64.5030   57.2680   28.2290 C   0  0  0  0  0  0  0  0  0  0  0  0
   65.4190   57.0790   27.2990 N   0  0  0  0  0  0  0  0  0  0  0  0
   61.4490   56.8490   26.0700 C   0  0  0  0  0  0  0  0  0  0  0  0
   60.7800   55.6850   26.0140 N   0  0  0  0  0  0  0  0  0  0  0  0
   59.5560   55.5330   25.5300 C   0  0  0  0  0  3  0  0  0  0  0  0
   58.8450   56.5440   25.0340 N   0  0  0  0  0  0  0  0  0  0  0  0
   59.4100   57.7520   25.0360 C   0  0  0  0  0  0  0  0  0  0  0  0
   58.7100   58.8270   24.5340 C   0  0  0  0  0  3  0  0  0  0  0  0
   59.2600   60.0920   24.5200 C   0  0  0  0  0  3  0  0  0  0  0  0
   60.5520   60.2490   25.0320 C   0  0  0  0  0  3  0  0  0  0  0  0
   61.1990   59.1380   25.5190 C   0  0  0  0  0  3  0  0  0  0  0  0
   60.6830   57.8670   25.5490 C   0  0  0  0  0  0  0  0  0  0  0  0
  1  6  1  0  0  0  0
  2  3  1  0  0  0  0
  2 11  1  0  0  0  0
  4  3  2  0  0  0  0
  5 10  2  0  0  0  0
  5  4  1  0  0  0  0
  6  5  1  0  0  0  0
  7  8  1  0  0  0  0
  7  6  2  0  0  0  0
  8  9  2  0  0  0  0
  9 10  1  0  0  0  0
 10  2  1  0  0  0  0
 12 13  1  0  0  0  0
 12  8  1  0  0  0  0
 14 13  1  0  0  0  0
 15 14  2  0  0  0  0
 16 15  1  0  0  0  0
 17 16  2  0  0  0  0
 17 18  1  0  0  0  0
 18 19  2  0  0  0  0
 19 14  1  0  0  0  0
 20 21  2  0  0  0  0
 20  1  1  0  0  0  0
 22 27  2  0  0  0  0
 23 22  1  0  0  0  0
 23 24  2  0  0  0  0
 24 25  1  0  0  0  0
 25 26  2  0  0  0  0
 26 20  1  0  0  0  0
 27 26  1  0  0  0  0
 28 24  1  0  0  0  0
 29 28  1  0  0  0  0
 30 29  2  0  0  0  0
 31 32  2  0  0  0  0
 31 30  1  0  0  0  0
 32 37  1  0  0  0  0
 33 32  1  0  0  0  0
 34 33  2  0  0  0  0
 34 35  1  0  0  0  0
 35 36  2  0  0  0  0
 36 37  1  0  0  0  0
 37 28  2  0  0  0  0
M  END
>  <minimizedAffinity>
-7.68071985

$$$$

 OpenBabel03242509243D

 37 42  0  0  0  0  0  0  0  0999 V2000
   68.0150   60.3420   32.1260 O   0  0  0  0  0  0  0  0  0  0  0  0
   68.4590   55.8340   33.0240 N   0  0  0  0  0  0  0  0  0  0  0  0
   69.5050   56.5230   33.5460 C   0  0  0  0  0  3  0  0  0  0  0  0
   69.2940   57.8200   33.2390 N   0  0  0  0  0  0  0  0  0  0  0  0
   68.1520   57.9180   32.5490 C   0  0  0  0  0  0  0  0  0  0  0  0
   67.5460   59.0450   32.0330 C   0  0  0  0  0  0  0  0  0  0  0  0
   66.3860   58.8530   31.3710 N   0  0  0  0  0  0  0  0  0  0  0  0
   65.8360   57.6360   31.2180 C   0  0  0  0  0  0  0  0  0  0  0  0
   66.4520   56.5470   31.7360 N   0  0  0  0  0  0  0  0  0  0  0  0
   67.6050   56.6660   32.4010 C   0  0  0  0  0  0  0  0  0  0  0  0
   68.3370   54.8140   33.0940 H   0  0  0  0  0  0  0  0  0  0  0  0
   64.5430   57.5940   30.4580 C   0  0  0  0  0  2  0  0  0  0  0  0
   64.8080   58.0080   29.0100 C   0  0  0  0  0  2  0  0  0  0  0  0
   63.9440   57.1760   28.1420 C   0  0  0  0  0  0  0  0  0  0  0  0
   62.8590   56.5060   28.6960 C   0  0  0  0  0  3  0  0  0  0  0  0
   62.1250   55.7580   27.7750 C   0  0  0  0  0  3  0  0  0  0  0  0
   62.4610   55.7030   26.4460 C   0  0  0  0  0  3  0  0  0  0  0  0
   63.5570   56.3980   25.9590 C   0  0  0  0  0  3  0  0  0  0  0  0
   64.2700   57.1220   26.8470 N   0  0  0  0  0  0  0  0  0  0  0  0
   68.5790   61.0240   31.0740 C   0  0  0  0  0  0  0  0  0  0  0  0
   69.7630   60.6650   30.7920 O   0  0  0  0  0  0  0  0  0  0  0  0
   67.7320   63.3300   28.3990 C   0  0  0  0  0  3  0  0  0  0  0  0
   66.6700   64.0370   28.9140 C   0  0  0  0  0  3  0  0  0  0  0  0
   66.1960   63.7390   30.2110 C   0  0  0  0  0  0  0  0  0  0  0  0
   66.8610   62.7310   30.8720 N   0  0  0  0  0  0  0  0  0  0  0  0
   67.9000   62.0600   30.3380 C   0  0  0  0  0  0  0  0  0  0  0  0
   68.3070   62.3710   29.1230 N   0  0  0  0  0  0  0  0  0  0  0  0
   65.0920   64.5480   30.6200 C   0  0  0  0  0  0  0  0  0  0  0  0
   65.2480   65.6750   31.3360 N   0  0  0  0  0  0  0  0  0  0  0  0
   64.2620   66.4620   31.7410 C   0  0  0  0  0  3  0  0  0  0  0  0
   62.9820   66.2110   31.4770 N   0  0  0  0  0  0  0  0  0  0  0  0
   62.7040   65.1140   30.7710 C   0  0  0  0  0  0  0  0  0  0  0  0
   61.3920   64.8160   30.4730 C   0  0  0  0  0  3  0  0  0  0  0  0
   61.0650   63.6920   29.7450 C   0  0  0  0  0  3  0  0  0  0  0  0
   62.1070   62.8620   29.3170 C   0  0  0  0  0  3  0  0  0  0  0  0
   63.3950   63.2140   29.6460 C   0  0  0  0  0  3  0  0  0  0  0  0
   63.7570   64.3240   30.3680 C   0  0  0  0  0  0  0  0  0  0  0  0
  2 11  1  0  0  0  0
  2  3  1  0  0  0  0
  4  3  2  0  0  0  0
  5  4  1  0  0  0  0
  6  1  1  0  0  0  0
  6  5  1  0  0  0  0
  7  6  2  0  0  0  0
  8  7  1  0  0  0  0
  8  9  2  0  0  0  0
  9 10  1  0  0  0  0
 10  5  2  0  0  0  0
 10  2  1  0  0  0  0
 12  8  1  0  0  0  0
 13 12  1  0  0  0  0
 14 15  1  0  0  0  0
 14 13  1  0  0  0  0
 16 15  2  0  0  0  0
 17 16  1  0  0  0  0
 18 17  2  0  0  0  0
 18 19  1  0  0  0  0
 19 14  2  0  0  0  0
 20  1  1  0  0  0  0
 21 20  2  0  0  0  0
 22 23  1  0  0  0  0
 22 27  2  0  0  0  0
 23 24  2  0  0  0  0
 24 28  1  0  0  0  0
 24 25  1  0  0  0  0
 26 25  2  0  0  0  0
 26 20  1  0  0  0  0
 27 26  1  0  0  0  0
 28 29  1  0  0  0  0
 29 30  2  0  0  0  0
 31 30  1  0  0  0  0
 32 31  2  0  0  0  0
 33 32  1  0  0  0  0
 34 33  2  0  0  0  0
 35 36  2  0  0  0  0
 35 34  1  0  0  0  0
 36 37  1  0  0  0  0
 37 28  2  0  0  0  0
 37 32  1  0  0  0  0
M  END
>  <minimizedAffinity>
-7.67972851

$$$$

 OpenBabel03242509243D

 37 42  0  0  0  0  0  0  0  0999 V2000
   67.6480   60.4630   32.0480 O   0  0  0  0  0  0  0  0  0  0  0  0
   68.3050   55.9740   32.9100 N   0  0  0  0  0  0  0  0  0  0  0  0
   69.2710   56.7140   33.5100 C   0  0  0  0  0  3  0  0  0  0  0  0
   69.0030   58.0010   33.2070 N   0  0  0  0  0  0  0  0  0  0  0  0
   67.9040   58.0440   32.4450 C   0  0  0  0  0  0  0  0  0  0  0  0
   67.2660   59.1420   31.9060 C   0  0  0  0  0  0  0  0  0  0  0  0
   66.1640   58.8930   31.1670 N   0  0  0  0  0  0  0  0  0  0  0  0
   65.7000   57.6480   30.9600 C   0  0  0  0  0  0  0  0  0  0  0  0
   66.3470   56.5890   31.5030 N   0  0  0  0  0  0  0  0  0  0  0  0
   67.4440   56.7640   32.2440 C   0  0  0  0  0  0  0  0  0  0  0  0
   68.2400   54.9470   32.9580 H   0  0  0  0  0  0  0  0  0  0  0  0
   64.4650   57.5430   30.1170 C   0  0  0  0  0  2  0  0  0  0  0  0
   64.8660   57.6060   28.6430 C   0  0  0  0  0  2  0  0  0  0  0  0
   63.7970   56.9480   27.8590 C   0  0  0  0  0  0  0  0  0  0  0  0
   63.7330   57.1510   26.4840 C   0  0  0  0  0  3  0  0  0  0  0  0
   62.6820   56.4760   25.8610 C   0  0  0  0  0  3  0  0  0  0  0  0
   61.8030   55.6890   26.5600 C   0  0  0  0  0  3  0  0  0  0  0  0
   61.9250   55.5300   27.9330 C   0  0  0  0  0  3  0  0  0  0  0  0
   62.9400   56.1810   28.5390 N   0  0  0  0  0  0  0  0  0  0  0  0
   68.1010   61.2380   31.0070 C   0  0  0  0  0  0  0  0  0  0  0  0
   69.3560   61.1890   30.8250 O   0  0  0  0  0  0  0  0  0  0  0  0
   66.9610   63.3040   28.2460 C   0  0  0  0  0  3  0  0  0  0  0  0
   65.6640   63.6080   28.5920 C   0  0  0  0  0  3  0  0  0  0  0  0
   65.1260   63.1020   29.7960 C   0  0  0  0  0  0  0  0  0  0  0  0
   65.9740   62.3220   30.5470 N   0  0  0  0  0  0  0  0  0  0  0  0
   67.2410   62.0450   30.1800 C   0  0  0  0  0  0  0  0  0  0  0  0
   67.7010   62.5380   29.0460 N   0  0  0  0  0  0  0  0  0  0  0  0
   63.7720   63.4960   30.0310 C   0  0  0  0  0  0  0  0  0  0  0  0
   62.7450   63.0130   29.3120 N   0  0  0  0  0  0  0  0  0  0  0  0
   61.4730   63.3410   29.4860 C   0  0  0  0  0  3  0  0  0  0  0  0
   61.0720   64.2090   30.4130 N   0  0  0  0  0  0  0  0  0  0  0  0
   62.0070   64.7570   31.1890 C   0  0  0  0  0  0  0  0  0  0  0  0
   61.6370   65.6590   32.1610 C   0  0  0  0  0  3  0  0  0  0  0  0
   62.5760   66.2460   32.9840 C   0  0  0  0  0  3  0  0  0  0  0  0
   63.9180   65.8970   32.7990 C   0  0  0  0  0  3  0  0  0  0  0  0
   64.2240   64.9910   31.8110 C   0  0  0  0  0  3  0  0  0  0  0  0
   63.3170   64.3870   30.9760 C   0  0  0  0  0  0  0  0  0  0  0  0
  2 11  1  0  0  0  0
  2  3  1  0  0  0  0
  4  3  2  0  0  0  0
  5  4  1  0  0  0  0
  6  1  1  0  0  0  0
  6  5  1  0  0  0  0
  7  6  2  0  0  0  0
  8  7  1  0  0  0  0
  8  9  2  0  0  0  0
  9 10  1  0  0  0  0
 10  5  2  0  0  0  0
 10  2  1  0  0  0  0
 12  8  1  0  0  0  0
 13 12  1  0  0  0  0
 14 19  1  0  0  0  0
 14 13  1  0  0  0  0
 15 14  2  0  0  0  0
 16 15  1  0  0  0  0
 16 17  2  0  0  0  0
 17 18  1  0  0  0  0
 18 19  2  0  0  0  0
 20  1  1  0  0  0  0
 21 20  2  0  0  0  0
 22 23  1  0  0  0  0
 22 27  2  0  0  0  0
 23 24  2  0  0  0  0
 24 28  1  0  0  0  0
 24 25  1  0  0  0  0
 26 25  2  0  0  0  0
 26 20  1  0  0  0  0
 27 26  1  0  0  0  0
 28 37  1  0  0  0  0
 29 30  1  0  0  0  0
 29 28  2  0  0  0  0
 30 31  2  0  0  0  0
 31 32  1  0  0  0  0
 32 33  1  0  0  0  0
 33 34  2  0  0  0  0
 35 34  1  0  0  0  0
 36 35  2  0  0  0  0
 37 32  2  0  0  0  0
 37 36  1  0  0  0  0
M  END
>  <minimizedAffinity>
-7.48223162

$$$$

 OpenBabel03242509243D

 37 42  0  0  0  0  0  0  0  0999 V2000
   60.6490   59.5240   28.4820 O   0  0  0  0  0  0  0  0  0  0  0  0
   63.4560   56.1600   27.0230 N   0  0  0  0  0  0  0  0  0  0  0  0
   62.4410   56.3410   26.1410 C   0  0  0  0  0  3  0  0  0  0  0  0
   61.6770   57.3330   26.6430 N   0  0  0  0  0  0  0  0  0  0  0  0
   62.2120   57.7450   27.7980 C   0  0  0  0  0  0  0  0  0  0  0  0
   61.7700   58.7350   28.6530 C   0  0  0  0  0  0  0  0  0  0  0  0
   62.5110   58.9430   29.7620 N   0  0  0  0  0  0  0  0  0  0  0  0
   63.6210   58.2350   30.0320 C   0  0  0  0  0  0  0  0  0  0  0  0
   64.0310   57.2710   29.1740 N   0  0  0  0  0  0  0  0  0  0  0  0
   63.3440   57.0120   28.0580 C   0  0  0  0  0  0  0  0  0  0  0  0
   64.2080   55.4650   26.9150 H   0  0  0  0  0  0  0  0  0  0  0  0
   64.3290   58.5910   31.3050 C   0  0  0  0  0  2  0  0  0  0  0  0
   65.6440   57.8140   31.3730 C   0  0  0  0  0  2  0  0  0  0  0  0
   66.7440   58.8010   31.4580 C   0  0  0  0  0  0  0  0  0  0  0  0
   66.4670   60.1520   31.2730 C   0  0  0  0  0  3  0  0  0  0  0  0
   67.5870   60.9780   31.3780 C   0  0  0  0  0  3  0  0  0  0  0  0
   68.8380   60.4830   31.6400 C   0  0  0  0  0  3  0  0  0  0  0  0
   69.0440   59.1220   31.8140 C   0  0  0  0  0  3  0  0  0  0  0  0
   67.9640   58.3190   31.7130 N   0  0  0  0  0  0  0  0  0  0  0  0
   60.6680   60.7480   27.8560 C   0  0  0  0  0  0  0  0  0  0  0  0
   60.5160   60.6940   26.5970 O   0  0  0  0  0  0  0  0  0  0  0  0
   59.9830   64.0730   29.1460 C   0  0  0  0  0  3  0  0  0  0  0  0
   61.1370   64.3940   29.8240 C   0  0  0  0  0  3  0  0  0  0  0  0
   62.2020   63.4670   29.8680 C   0  0  0  0  0  0  0  0  0  0  0  0
   61.9870   62.2790   29.2070 N   0  0  0  0  0  0  0  0  0  0  0  0
   60.8440   61.9970   28.5510 C   0  0  0  0  0  0  0  0  0  0  0  0
   59.8760   62.8930   28.5370 N   0  0  0  0  0  0  0  0  0  0  0  0
   63.3370   63.9300   30.6030 C   0  0  0  0  0  0  0  0  0  0  0  0
   63.2400   64.4150   31.8510 N   0  0  0  0  0  0  0  0  0  0  0  0
   64.2560   64.8570   32.5780 C   0  0  0  0  0  3  0  0  0  0  0  0
   65.5110   64.8680   32.1330 N   0  0  0  0  0  0  0  0  0  0  0  0
   65.7300   64.4080   30.9000 C   0  0  0  0  0  0  0  0  0  0  0  0
   67.0130   64.3990   30.3990 C   0  0  0  0  0  3  0  0  0  0  0  0
   67.2800   63.9310   29.1300 C   0  0  0  0  0  3  0  0  0  0  0  0
   66.2050   63.4650   28.3660 C   0  0  0  0  0  3  0  0  0  0  0  0
   64.9480   63.4990   28.9210 C   0  0  0  0  0  3  0  0  0  0  0  0
   64.6460   63.9570   30.1790 C   0  0  0  0  0  0  0  0  0  0  0  0
  1  6  1  0  0  0  0
  2 10  1  0  0  0  0
  3  4  2  0  0  0  0
  3  2  1  0  0  0  0
  4  5  1  0  0  0  0
  5 10  2  0  0  0  0
  5  6  1  0  0  0  0
  6  7  2  0  0  0  0
  7  8  1  0  0  0  0
  8 12  1  0  0  0  0
  9  8  2  0  0  0  0
 10  9  1  0  0  0  0
 11  2  1  0  0  0  0
 12 13  1  0  0  0  0
 13 14  1  0  0  0  0
 14 19  1  0  0  0  0
 15 16  1  0  0  0  0
 15 14  2  0  0  0  0
 16 17  2  0  0  0  0
 17 18  1  0  0  0  0
 19 18  2  0  0  0  0
 20  1  1  0  0  0  0
 20 26  1  0  0  0  0
 21 20  2  0  0  0  0
 22 23  1  0  0  0  0
 23 24  2  0  0  0  0
 24 28  1  0  0  0  0
 25 24  1  0  0  0  0
 26 25  2  0  0  0  0
 27 26  1  0  0  0  0
 27 22  2  0  0  0  0
 28 29  1  0  0  0  0
 29 30  2  0  0  0  0
 31 30  1  0  0  0  0
 32 31  2  0  0  0  0
 33 32  1  0  0  0  0
 34 33  2  0  0  0  0
 35 36  2  0  0  0  0
 35 34  1  0  0  0  0
 36 37  1  0  0  0  0
 37 28  2  0  0  0  0
 37 32  1  0  0  0  0
M  END
>  <minimizedAffinity>
-6.96598339

$$$$

 OpenBabel03242509243D

 37 42  0  0  0  0  0  0  0  0999 V2000
   60.9380   59.3060   28.8780 O   0  0  0  0  0  0  0  0  0  0  0  0
   63.5020   56.0250   26.8800 N   0  0  0  0  0  0  0  0  0  0  0  0
   62.2910   56.1110   26.2740 C   0  0  0  0  0  3  0  0  0  0  0  0
   61.6140   57.0850   26.9160 N   0  0  0  0  0  0  0  0  0  0  0  0
   62.3920   57.5800   27.8870 C   0  0  0  0  0  0  0  0  0  0  0  0
   62.1140   58.5850   28.7900 C   0  0  0  0  0  0  0  0  0  0  0  0
   63.0910   58.8850   29.6720 N   0  0  0  0  0  0  0  0  0  0  0  0
   64.2750   58.2490   29.6810 C   0  0  0  0  0  0  0  0  0  0  0  0
   64.5200   57.2670   28.7810 N   0  0  0  0  0  0  0  0  0  0  0  0
   63.5970   56.9190   27.8810 C   0  0  0  0  0  0  0  0  0  0  0  0
   64.2460   55.3660   26.6110 H   0  0  0  0  0  0  0  0  0  0  0  0
   65.2530   58.7030   30.7240 C   0  0  0  0  0  2  0  0  0  0  0  0
   64.6260   58.5080   32.1060 C   0  0  0  0  0  2  0  0  0  0  0  0
   65.6770   57.9770   33.0030 C   0  0  0  0  0  0  0  0  0  0  0  0
   65.6600   58.3170   34.3520 C   0  0  0  0  0  3  0  0  0  0  0  0
   66.7020   57.7530   35.0900 C   0  0  0  0  0  3  0  0  0  0  0  0
   67.6450   56.9390   34.5170 C   0  0  0  0  0  3  0  0  0  0  0  0
   67.6020   56.6400   33.1640 C   0  0  0  0  0  3  0  0  0  0  0  0
   66.5960   57.1840   32.4460 N   0  0  0  0  0  0  0  0  0  0  0  0
   60.6650   60.4110   28.1070 C   0  0  0  0  0  0  0  0  0  0  0  0
   60.3750   60.1500   26.9000 O   0  0  0  0  0  0  0  0  0  0  0  0
   59.6610   63.8340   28.7920 C   0  0  0  0  0  3  0  0  0  0  0  0
   60.7230   64.3390   29.5070 C   0  0  0  0  0  3  0  0  0  0  0  0
   61.8320   63.5100   29.7890 C   0  0  0  0  0  0  0  0  0  0  0  0
   61.7530   62.2230   29.3080 N   0  0  0  0  0  0  0  0  0  0  0  0
   60.6970   61.7620   28.6090 C   0  0  0  0  0  0  0  0  0  0  0  0
   59.6840   62.5710   28.3700 N   0  0  0  0  0  0  0  0  0  0  0  0
   62.8620   64.1620   30.5360 C   0  0  0  0  0  0  0  0  0  0  0  0
   64.1030   64.3380   30.0520 N   0  0  0  0  0  0  0  0  0  0  0  0
   65.0940   64.9340   30.6990 C   0  0  0  0  0  3  0  0  0  0  0  0
   64.9600   65.4290   31.9280 N   0  0  0  0  0  0  0  0  0  0  0  0
   63.7680   65.3110   32.5120 C   0  0  0  0  0  0  0  0  0  0  0  0
   63.5830   65.8110   33.7820 C   0  0  0  0  0  3  0  0  0  0  0  0
   62.3640   65.7090   34.4180 C   0  0  0  0  0  3  0  0  0  0  0  0
   61.3190   65.0800   33.7330 C   0  0  0  0  0  3  0  0  0  0  0  0
   61.5650   64.6020   32.4680 C   0  0  0  0  0  3  0  0  0  0  0  0
   62.7630   64.6870   31.8040 C   0  0  0  0  0  0  0  0  0  0  0  0
  2 10  1  0  0  0  0
  3  2  1  0  0  0  0
  3  4  2  0  0  0  0
  4  5  1  0  0  0  0
  5  6  1  0  0  0  0
  6  1  1  0  0  0  0
  6  7  2  0  0  0  0
  7  8  1  0  0  0  0
  8 12  1  0  0  0  0
  9  8  2  0  0  0  0
 10  5  2  0  0  0  0
 10  9  1  0  0  0  0
 11  2  1  0  0  0  0
 12 13  1  0  0  0  0
 13 14  1  0  0  0  0
 14 15  1  0  0  0  0
 15 16  2  0  0  0  0
 17 16  1  0  0  0  0
 18 17  2  0  0  0  0
 19 14  2  0  0  0  0
 19 18  1  0  0  0  0
 20 26  1  0  0  0  0
 20  1  1  0  0  0  0
 21 20  2  0  0  0  0
 22 23  1  0  0  0  0
 23 24  2  0  0  0  0
 24 28  1  0  0  0  0
 25 24  1  0  0  0  0
 26 25  2  0  0  0  0
 27 26  1  0  0  0  0
 27 22  2  0  0  0  0
 28 37  1  0  0  0  0
 29 28  2  0  0  0  0
 29 30  1  0  0  0  0
 30 31  2  0  0  0  0
 31 32  1  0  0  0  0
 32 33  1  0  0  0  0
 33 34  2  0  0  0  0
 35 34  1  0  0  0  0
 36 35  2  0  0  0  0
 37 36  1  0  0  0  0
 37 32  2  0  0  0  0
M  END
>  <minimizedAffinity>
-6.95094872

$$$$

 OpenBabel03242509243D

 37 42  0  0  0  0  0  0  0  0999 V2000
   65.9770   59.3530   34.4940 O   0  0  0  0  0  0  0  0  0  0  0  0
   68.0980   55.7290   32.5720 N   0  0  0  0  0  0  0  0  0  0  0  0
   68.4700   55.8580   33.8700 C   0  0  0  0  0  3  0  0  0  0  0  0
   67.8090   56.9320   34.3480 N   0  0  0  0  0  0  0  0  0  0  0  0
   67.0540   57.4430   33.3680 C   0  0  0  0  0  0  0  0  0  0  0  0
   66.2140   58.5370   33.4040 C   0  0  0  0  0  0  0  0  0  0  0  0
   65.5680   58.8340   32.2560 N   0  0  0  0  0  0  0  0  0  0  0  0
   65.7220   58.1110   31.1340 C   0  0  0  0  0  0  0  0  0  0  0  0
   66.5520   57.0410   31.1290 N   0  0  0  0  0  0  0  0  0  0  0  0
   67.2240   56.6930   32.2300 C   0  0  0  0  0  0  0  0  0  0  0  0
   68.4390   54.9950   31.9350 H   0  0  0  0  0  0  0  0  0  0  0  0
   64.9300   58.5730   29.9460 C   0  0  0  0  0  2  0  0  0  0  0  0
   63.8060   57.5710   29.6810 C   0  0  0  0  0  2  0  0  0  0  0  0
   63.8980   57.1590   28.2630 C   0  0  0  0  0  0  0  0  0  0  0  0
   62.7590   56.7000   27.6090 C   0  0  0  0  0  3  0  0  0  0  0  0
   62.9760   56.3440   26.2770 C   0  0  0  0  0  3  0  0  0  0  0  0
   64.2090   56.4460   25.6860 C   0  0  0  0  0  3  0  0  0  0  0  0
   65.3040   56.9130   26.3970 C   0  0  0  0  0  3  0  0  0  0  0  0
   65.0980   57.2580   27.6860 N   0  0  0  0  0  0  0  0  0  0  0  0
   66.9090   60.2240   35.0080 C   0  0  0  0  0  0  0  0  0  0  0  0
   67.4690   59.8220   36.0740 O   0  0  0  0  0  0  0  0  0  0  0  0
   67.2860   63.8070   34.5560 C   0  0  0  0  0  3  0  0  0  0  0  0
   67.8130   63.9140   33.2890 C   0  0  0  0  0  3  0  0  0  0  0  0
   68.0680   62.7440   32.5380 C   0  0  0  0  0  0  0  0  0  0  0  0
   67.7560   61.5570   33.1600 N   0  0  0  0  0  0  0  0  0  0  0  0
   67.2390   61.4890   34.4030 C   0  0  0  0  0  0  0  0  0  0  0  0
   67.0190   62.6070   35.0670 N   0  0  0  0  0  0  0  0  0  0  0  0
   68.6120   63.0000   31.2420 C   0  0  0  0  0  0  0  0  0  0  0  0
   69.9350   63.0550   31.0130 N   0  0  0  0  0  0  0  0  0  0  0  0
   70.4940   63.2870   29.8340 C   0  0  0  0  0  3  0  0  0  0  0  0
   69.7850   63.4990   28.7280 N   0  0  0  0  0  0  0  0  0  0  0  0
   68.4570   63.4700   28.8340 C   0  0  0  0  0  0  0  0  0  0  0  0
   67.6830   63.6830   27.7140 C   0  0  0  0  0  3  0  0  0  0  0  0
   66.3060   63.6590   27.7840 C   0  0  0  0  0  3  0  0  0  0  0  0
   65.7180   63.4130   29.0290 C   0  0  0  0  0  3  0  0  0  0  0  0
   66.5430   63.2080   30.1090 C   0  0  0  0  0  3  0  0  0  0  0  0
   67.9150   63.2230   30.0760 C   0  0  0  0  0  0  0  0  0  0  0  0
  1 20  1  0  0  0  0
  2  3  1  0  0  0  0
  3  4  2  0  0  0  0
  5  6  1  0  0  0  0
  5  4  1  0  0  0  0
  6  1  1  0  0  0  0
  7  6  2  0  0  0  0
  8  7  1  0  0  0  0
  9  8  2  0  0  0  0
  9 10  1  0  0  0  0
 10  2  1  0  0  0  0
 10  5  2  0  0  0  0
 11  2  1  0  0  0  0
 12  8  1  0  0  0  0
 13 12  1  0  0  0  0
 14 13  1  0  0  0  0
 15 14  2  0  0  0  0
 16 15  1  0  0  0  0
 17 16  2  0  0  0  0
 17 18  1  0  0  0  0
 18 19  2  0  0  0  0
 19 14  1  0  0  0  0
 20 21  2  0  0  0  0
 22 27  2  0  0  0  0
 23 22  1  0  0  0  0
 24 25  1  0  0  0  0
 24 23  2  0  0  0  0
 25 26  2  0  0  0  0
 26 20  1  0  0  0  0
 26 27  1  0  0  0  0
 28 24  1  0  0  0  0
 29 28  1  0  0  0  0
 30 29  2  0  0  0  0
 31 32  2  0  0  0  0
 31 30  1  0  0  0  0
 32 37  1  0  0  0  0
 33 34  2  0  0  0  0
 33 32  1  0  0  0  0
 34 35  1  0  0  0  0
 35 36  2  0  0  0  0
 37 36  1  0  0  0  0
 37 28  2  0  0  0  0
M  END
>  <minimizedAffinity>
-6.94093657

$$$$
