
 OpenBabel03242509313D

 38 43  0  0  1  0  0  0  0  0999 V2000
   66.0790   57.0850   30.0190 C   0  0  0  0  0  2  0  0  0  0  0  0
   62.6320   57.0570   28.7300 C   0  0  0  0  0  2  0  0  0  0  0  0
   62.7670   57.1610   27.3900 C   0  0  0  0  0  0  0  0  0  0  0  0
   64.0560   57.2460   26.9340 C   0  0  0  0  0  3  0  0  0  0  0  0
   65.0820   57.2210   27.8150 N   0  0  0  0  0  0  0  0  0  0  0  0
   64.9090   57.1170   29.1090 C   0  0  0  0  0  0  0  0  0  0  0  0
   63.6880   57.0340   29.5950 N   0  0  0  0  0  0  0  0  0  0  0  0
   63.5310   56.9540   30.6100 H   0  0  0  0  0  0  0  0  0  0  0  0
   61.5540   57.1470   26.5710 C   0  0  0  0  0  0  0  0  0  0  0  0
   61.4850   56.0400   25.7830 N   0  0  0  0  0  0  0  0  0  0  0  0
   60.5200   55.8650   24.8680 C   0  0  0  0  0  3  0  0  0  0  0  0
   59.6380   56.8930   24.5680 N   0  0  0  0  0  0  0  0  0  0  0  0
   59.8050   58.0730   25.2250 C   0  0  2  0  0  3  0  0  0  0  0  0
   59.0210   59.1510   24.9410 C   0  0  0  0  0  3  0  0  0  0  0  0
   59.2510   60.3650   25.5710 C   0  0  0  0  0  3  0  0  0  0  0  0
   60.2860   60.5020   26.5030 C   0  0  0  0  0  3  0  0  0  0  0  0
   61.0770   59.3900   26.7830 C   0  0  0  0  0  3  0  0  0  0  0  0
   60.8030   58.2180   26.1340 C   0  0  0  0  0  0  0  0  0  0  0  0
   58.8850   56.7680   23.8750 H   0  0  0  0  0  0  0  0  0  0  0  0
   65.7050   57.4050   31.4450 C   0  0  0  0  0  2  0  0  0  0  0  0
   66.0530   58.7740   31.8220 C   0  0  0  0  0  0  0  0  0  0  0  0
   66.4930   58.9790   33.1250 C   0  0  0  0  0  3  0  0  0  0  0  0
   66.8350   60.2850   33.5210 C   0  0  0  0  0  3  0  0  0  0  0  0
   66.7300   61.2860   32.6390 N   0  0  0  0  0  0  0  0  0  0  0  0
   66.3020   61.0930   31.3660 C   0  0  0  0  0  0  0  0  0  0  0  0
   65.9820   59.8370   31.0150 N   0  0  0  0  0  0  0  0  0  0  0  0
   66.1800   62.1430   30.4000 N   0  0  0  0  0  0  0  0  0  0  0  0
   65.0710   62.7880   29.9330 C   0  0  0  0  0  3  0  0  0  0  0  0
   65.4970   63.6960   29.0320 N   0  0  0  0  0  0  0  0  0  0  0  0
   66.8320   63.6240   28.9370 C   0  0  0  0  0  0  0  0  0  0  0  0
   67.7810   64.2980   28.1920 C   0  0  0  0  0  0  0  0  0  0  0  0
   69.0870   63.9870   28.3240 N   0  0  0  0  0  0  0  0  0  0  0  0
   69.5220   63.0460   29.1510 C   0  0  0  0  0  3  0  0  0  0  0  0
   68.5970   62.3920   29.8740 N   0  0  0  0  0  0  0  0  0  0  0  0
   67.2850   62.6580   29.7860 C   0  0  0  0  0  0  0  0  0  0  0  0
   67.3930   65.3120   27.2920 N   0  0  0  0  0  0  0  0  0  0  0  0
   68.1050   65.8110   26.7390 H   0  0  0  0  0  0  0  0  0  0  0  0
   66.3970   65.5530   27.1880 H   0  0  0  0  0  0  0  0  0  0  0  0
  1 20  1  0  0  0  0
  2  7  1  0  0  0  0
  3  2  1  0  0  0  0
  4  3  2  0  0  0  0
  4  5  1  0  0  0  0
  5  6  2  0  0  0  0
  6  7  1  0  0  0  0
  6  1  1  0  0  0  0
  7  8  1  0  0  0  0
  9  3  1  0  0  0  0
 10  9  1  0  0  0  0
 11 10  2  0  0  0  0
 12 11  1  0  0  0  0
 12 13  1  0  0  0  0
 13 14  1  6  0  0  0
 13 18  1  0  0  0  0
 14 15  2  0  0  0  0
 15 16  1  0  0  0  0
 16 17  2  0  0  0  0
 18  9  2  0  0  0  0
 18 17  1  0  0  0  0
 19 12  1  0  0  0  0
 20 21  1  0  0  0  0
 21 22  1  0  0  0  0
 22 23  2  0  0  0  0
 24 23  1  0  0  0  0
 25 24  2  0  0  0  0
 26 25  1  0  0  0  0
 26 21  2  0  0  0  0
 27 25  1  0  0  0  0
 28 27  1  0  0  0  0
 29 28  2  0  0  0  0
 30 29  1  0  0  0  0
 30 35  1  0  0  0  0
 31 32  1  0  0  0  0
 31 30  2  0  0  0  0
 32 33  2  0  0  0  0
 33 34  1  0  0  0  0
 35 34  2  0  0  0  0
 35 27  1  0  0  0  0
 36 31  1  0  0  0  0
 37 36  1  0  0  0  0
 38 36  1  0  0  0  0
M  END
>  <minimizedAffinity>
-8.21572304

$$$$

 OpenBabel03242509313D

 38 43  0  0  1  0  0  0  0  0999 V2000
   66.6730   57.3890   31.1630 C   0  0  0  0  0  2  0  0  0  0  0  0
   64.6710   57.0290   28.0960 C   0  0  0  0  0  2  0  0  0  0  0  0
   63.3980   57.2440   28.4910 C   0  0  0  0  0  0  0  0  0  0  0  0
   63.2340   57.5100   29.8240 C   0  0  0  0  0  3  0  0  0  0  0  0
   64.3110   57.5420   30.6400 N   0  0  0  0  0  0  0  0  0  0  0  0
   65.5330   57.3280   30.2160 C   0  0  0  0  0  0  0  0  0  0  0  0
   65.7410   57.0670   28.9430 N   0  0  0  0  0  0  0  0  0  0  0  0
   66.6940   56.8940   28.5910 H   0  0  0  0  0  0  0  0  0  0  0  0
   62.3430   57.2000   27.4770 C   0  0  0  0  0  0  0  0  0  0  0  0
   62.6080   56.2850   26.5050 N   0  0  0  0  0  0  0  0  0  0  0  0
   61.8400   56.1480   25.4150 C   0  0  0  0  0  3  0  0  0  0  0  0
   60.8240   57.0550   25.1490 N   0  0  0  0  0  0  0  0  0  0  0  0
   60.6580   58.0830   26.0240 C   0  0  2  0  0  3  0  0  0  0  0  0
   59.7260   59.0520   25.8000 C   0  0  0  0  0  3  0  0  0  0  0  0
   59.6170   60.1290   26.6680 C   0  0  0  0  0  3  0  0  0  0  0  0
   60.4590   60.2380   27.7800 C   0  0  0  0  0  3  0  0  0  0  0  0
   61.4060   59.2390   27.9950 C   0  0  0  0  0  3  0  0  0  0  0  0
   61.4660   58.1990   27.1090 C   0  0  0  0  0  0  0  0  0  0  0  0
   60.2190   56.9540   24.3200 H   0  0  0  0  0  0  0  0  0  0  0  0
   66.2770   57.9690   32.4990 C   0  0  0  0  0  2  0  0  0  0  0  0
   66.4720   59.4160   32.5610 C   0  0  0  0  0  0  0  0  0  0  0  0
   66.8230   59.9550   33.7930 C   0  0  0  0  0  3  0  0  0  0  0  0
   67.0170   61.3450   33.8880 C   0  0  0  0  0  3  0  0  0  0  0  0
   66.8620   62.1050   32.7970 N   0  0  0  0  0  0  0  0  0  0  0  0
   66.5200   61.5850   31.5910 C   0  0  0  0  0  0  0  0  0  0  0  0
   66.3400   60.2560   31.5290 N   0  0  0  0  0  0  0  0  0  0  0  0
   66.3470   62.3720   30.4060 N   0  0  0  0  0  0  0  0  0  0  0  0
   65.2070   62.7740   29.7730 C   0  0  0  0  0  3  0  0  0  0  0  0
   65.5890   63.4950   28.7000 N   0  0  0  0  0  0  0  0  0  0  0  0
   66.9280   63.5440   28.6610 C   0  0  0  0  0  0  0  0  0  0  0  0
   67.8440   64.1280   27.8080 C   0  0  0  0  0  0  0  0  0  0  0  0
   69.1650   63.9940   28.0440 N   0  0  0  0  0  0  0  0  0  0  0  0
   69.6460   63.3160   29.0760 C   0  0  0  0  0  3  0  0  0  0  0  0
   68.7530   62.7480   29.9040 N   0  0  0  0  0  0  0  0  0  0  0  0
   67.4270   62.8470   29.7210 C   0  0  0  0  0  0  0  0  0  0  0  0
   67.4070   64.8660   26.6880 N   0  0  0  0  0  0  0  0  0  0  0  0
   68.0950   65.3000   26.0550 H   0  0  0  0  0  0  0  0  0  0  0  0
   66.3990   64.9720   26.5040 H   0  0  0  0  0  0  0  0  0  0  0  0
  1 20  1  0  0  0  0
  2  3  1  0  0  0  0
  2  7  1  0  0  0  0
  3  4  2  0  0  0  0
  4  5  1  0  0  0  0
  6  5  2  0  0  0  0
  6  1  1  0  0  0  0
  7  6  1  0  0  0  0
  8  7  1  0  0  0  0
  9  3  1  0  0  0  0
 10  9  1  0  0  0  0
 11 10  2  0  0  0  0
 12 11  1  0  0  0  0
 12 13  1  0  0  0  0
 13 14  1  6  0  0  0
 13 18  1  0  0  0  0
 14 15  2  0  0  0  0
 15 16  1  0  0  0  0
 16 17  2  0  0  0  0
 18  9  2  0  0  0  0
 18 17  1  0  0  0  0
 19 12  1  0  0  0  0
 20 21  1  0  0  0  0
 21 22  1  0  0  0  0
 22 23  2  0  0  0  0
 24 23  1  0  0  0  0
 25 24  2  0  0  0  0
 26 25  1  0  0  0  0
 26 21  2  0  0  0  0
 27 25  1  0  0  0  0
 28 27  1  0  0  0  0
 29 28  2  0  0  0  0
 30 29  1  0  0  0  0
 30 35  1  0  0  0  0
 31 32  1  0  0  0  0
 31 30  2  0  0  0  0
 32 33  2  0  0  0  0
 33 34  1  0  0  0  0
 35 34  2  0  0  0  0
 35 27  1  0  0  0  0
 36 31  1  0  0  0  0
 37 36  1  0  0  0  0
 38 36  1  0  0  0  0
M  END
>  <minimizedAffinity>
-7.75024271

$$$$

 OpenBabel03242509313D

 38 43  0  0  1  0  0  0  0  0999 V2000
   67.0010   56.8400   32.7030 C   0  0  0  0  0  2  0  0  0  0  0  0
   63.9980   58.2700   31.1280 C   0  0  0  0  0  2  0  0  0  0  0  0
   64.1270   57.9770   29.8160 C   0  0  0  0  0  0  0  0  0  0  0  0
   65.2600   57.2860   29.4770 C   0  0  0  0  0  3  0  0  0  0  0  0
   66.1510   56.9480   30.4360 N   0  0  0  0  0  0  0  0  0  0  0  0
   65.9890   57.2510   31.7010 C   0  0  0  0  0  0  0  0  0  0  0  0
   64.9150   57.9160   32.0740 N   0  0  0  0  0  0  0  0  0  0  0  0
   64.7700   58.1650   33.0630 H   0  0  0  0  0  0  0  0  0  0  0  0
   63.0580   58.3920   28.9070 C   0  0  0  0  0  0  0  0  0  0  0  0
   62.2410   59.3220   29.4720 N   0  0  0  0  0  0  0  0  0  0  0  0
   61.1290   59.7670   28.8690 C   0  0  0  0  0  3  0  0  0  0  0  0
   60.6710   59.1690   27.7030 N   0  0  0  0  0  0  0  0  0  0  0  0
   61.3840   58.1170   27.2170 C   0  0  2  0  0  3  0  0  0  0  0  0
   60.9660   57.4350   26.1150 C   0  0  0  0  0  3  0  0  0  0  0  0
   61.6680   56.3230   25.6740 C   0  0  0  0  0  3  0  0  0  0  0  0
   62.8110   55.8850   26.3530 C   0  0  0  0  0  3  0  0  0  0  0  0
   63.2260   56.5940   27.4770 C   0  0  0  0  0  3  0  0  0  0  0  0
   62.4970   57.6840   27.8640 C   0  0  0  0  0  0  0  0  0  0  0  0
   59.8250   59.5090   27.2240 H   0  0  0  0  0  0  0  0  0  0  0  0
   68.3010   57.5880   32.5430 C   0  0  0  0  0  2  0  0  0  0  0  0
   68.1270   59.0380   32.6170 C   0  0  0  0  0  0  0  0  0  0  0  0
   68.4010   59.6470   33.8360 C   0  0  0  0  0  3  0  0  0  0  0  0
   68.2420   61.0400   33.9410 C   0  0  0  0  0  3  0  0  0  0  0  0
   67.8350   61.7370   32.8730 N   0  0  0  0  0  0  0  0  0  0  0  0
   67.5670   61.1490   31.6800 C   0  0  0  0  0  0  0  0  0  0  0  0
   67.7260   59.8170   31.6070 N   0  0  0  0  0  0  0  0  0  0  0  0
   67.1310   61.8660   30.5200 N   0  0  0  0  0  0  0  0  0  0  0  0
   65.8910   61.9660   29.9580 C   0  0  0  0  0  3  0  0  0  0  0  0
   66.0140   62.7610   28.8760 N   0  0  0  0  0  0  0  0  0  0  0  0
   67.2930   63.1490   28.7620 C   0  0  0  0  0  0  0  0  0  0  0  0
   67.9800   63.9470   27.8680 C   0  0  0  0  0  0  0  0  0  0  0  0
   69.3030   64.1530   28.0270 N   0  0  0  0  0  0  0  0  0  0  0  0
   70.0000   63.6170   29.0200 C   0  0  0  0  0  3  0  0  0  0  0  0
   69.3290   62.8410   29.8890 N   0  0  0  0  0  0  0  0  0  0  0  0
   68.0140   62.6010   29.7820 C   0  0  0  0  0  0  0  0  0  0  0  0
   67.3040   64.5510   26.7870 N   0  0  0  0  0  0  0  0  0  0  0  0
   67.8220   65.1450   26.1230 H   0  0  0  0  0  0  0  0  0  0  0  0
   66.2940   64.3970   26.6610 H   0  0  0  0  0  0  0  0  0  0  0  0
  2  7  1  0  0  0  0
  3  2  1  0  0  0  0
  4  3  2  0  0  0  0
  4  5  1  0  0  0  0
  5  6  2  0  0  0  0
  6  7  1  0  0  0  0
  6  1  1  0  0  0  0
  7  8  1  0  0  0  0
  9 10  1  0  0  0  0
  9  3  1  0  0  0  0
 11 10  2  0  0  0  0
 12 11  1  0  0  0  0
 13 14  1  1  0  0  0
 13 12  1  0  0  0  0
 13 18  1  0  0  0  0
 15 14  2  0  0  0  0
 15 16  1  0  0  0  0
 16 17  2  0  0  0  0
 17 18  1  0  0  0  0
 18  9  2  0  0  0  0
 19 12  1  0  0  0  0
 20 21  1  0  0  0  0
 20  1  1  0  0  0  0
 21 22  1  0  0  0  0
 22 23  2  0  0  0  0
 24 23  1  0  0  0  0
 25 24  2  0  0  0  0
 26 25  1  0  0  0  0
 26 21  2  0  0  0  0
 27 25  1  0  0  0  0
 28 27  1  0  0  0  0
 29 28  2  0  0  0  0
 30 29  1  0  0  0  0
 30 35  1  0  0  0  0
 31 32  1  0  0  0  0
 31 30  2  0  0  0  0
 32 33  2  0  0  0  0
 33 34  1  0  0  0  0
 35 34  2  0  0  0  0
 35 27  1  0  0  0  0
 36 31  1  0  0  0  0
 37 36  1  0  0  0  0
 38 36  1  0  0  0  0
M  END
>  <minimizedAffinity>
-7.654181

$$$$

 OpenBabel03242509313D

 38 43  0  0  1  0  0  0  0  0999 V2000
   67.1140   56.8200   32.3430 C   0  0  0  0  0  2  0  0  0  0  0  0
   65.0580   57.4390   29.3540 C   0  0  0  0  0  2  0  0  0  0  0  0
   63.9320   58.0140   29.8270 C   0  0  0  0  0  0  0  0  0  0  0  0
   63.8850   58.1840   31.1850 C   0  0  0  0  0  3  0  0  0  0  0  0
   64.9260   57.7820   31.9480 N   0  0  0  0  0  0  0  0  0  0  0  0
   66.0040   57.2270   31.4500 C   0  0  0  0  0  0  0  0  0  0  0  0
   66.0950   57.0420   30.1490 N   0  0  0  0  0  0  0  0  0  0  0  0
   66.9330   56.6060   29.7390 H   0  0  0  0  0  0  0  0  0  0  0  0
   62.9060   58.4170   28.8640 C   0  0  0  0  0  0  0  0  0  0  0  0
   62.0830   59.3760   29.3680 N   0  0  0  0  0  0  0  0  0  0  0  0
   61.0020   59.8190   28.7090 C   0  0  0  0  0  3  0  0  0  0  0  0
   60.5810   59.1940   27.5440 N   0  0  0  0  0  0  0  0  0  0  0  0
   61.2950   58.1170   27.1190 C   0  0  2  0  0  3  0  0  0  0  0  0
   60.9090   57.4080   26.0210 C   0  0  0  0  0  3  0  0  0  0  0  0
   61.6100   56.2730   25.6420 C   0  0  0  0  0  3  0  0  0  0  0  0
   62.7180   55.8390   26.3780 C   0  0  0  0  0  3  0  0  0  0  0  0
   63.1010   56.5750   27.4960 C   0  0  0  0  0  3  0  0  0  0  0  0
   62.3750   57.6870   27.8210 C   0  0  0  0  0  0  0  0  0  0  0  0
   59.7590   59.5310   27.0220 H   0  0  0  0  0  0  0  0  0  0  0  0
   67.5270   57.9240   33.2850 C   0  0  0  0  0  2  0  0  0  0  0  0
   68.2380   59.0050   32.6050 C   0  0  0  0  0  0  0  0  0  0  0  0
   69.4810   58.7000   32.0620 C   0  0  0  0  0  3  0  0  0  0  0  0
   70.1930   59.7170   31.4010 C   0  0  0  0  0  3  0  0  0  0  0  0
   69.6580   60.9410   31.3120 N   0  0  0  0  0  0  0  0  0  0  0  0
   68.4450   61.2450   31.8390 C   0  0  0  0  0  0  0  0  0  0  0  0
   67.7870   60.2550   32.4650 N   0  0  0  0  0  0  0  0  0  0  0  0
   67.8460   62.5430   31.7600 N   0  0  0  0  0  0  0  0  0  0  0  0
   67.7230   63.5180   32.7080 C   0  0  0  0  0  3  0  0  0  0  0  0
   67.0790   64.5500   32.1280 N   0  0  0  0  0  0  0  0  0  0  0  0
   66.8050   64.2330   30.8540 C   0  0  0  0  0  0  0  0  0  0  0  0
   66.1780   64.8900   29.8130 C   0  0  0  0  0  0  0  0  0  0  0  0
   66.0540   64.2870   28.6130 N   0  0  0  0  0  0  0  0  0  0  0  0
   66.5140   63.0680   28.3700 C   0  0  0  0  0  3  0  0  0  0  0  0
   67.1240   62.4310   29.3840 N   0  0  0  0  0  0  0  0  0  0  0  0
   67.2770   62.9800   30.5990 C   0  0  0  0  0  0  0  0  0  0  0  0
   65.6630   66.1900   29.9980 N   0  0  0  0  0  0  0  0  0  0  0  0
   65.1960   66.6750   29.2180 H   0  0  0  0  0  0  0  0  0  0  0  0
   65.7550   66.6550   30.9130 H   0  0  0  0  0  0  0  0  0  0  0  0
  1 20  1  0  0  0  0
  2  3  1  0  0  0  0
  2  7  1  0  0  0  0
  3  4  2  0  0  0  0
  4  5  1  0  0  0  0
  6  5  2  0  0  0  0
  6  1  1  0  0  0  0
  7  6  1  0  0  0  0
  8  7  1  0  0  0  0
  9 10  1  0  0  0  0
  9  3  1  0  0  0  0
 11 10  2  0  0  0  0
 12 11  1  0  0  0  0
 13 14  1  1  0  0  0
 13 12  1  0  0  0  0
 13 18  1  0  0  0  0
 15 14  2  0  0  0  0
 15 16  1  0  0  0  0
 16 17  2  0  0  0  0
 17 18  1  0  0  0  0
 18  9  2  0  0  0  0
 19 12  1  0  0  0  0
 21 20  1  0  0  0  0
 22 21  1  0  0  0  0
 23 22  2  0  0  0  0
 24 23  1  0  0  0  0
 24 25  2  0  0  0  0
 25 26  1  0  0  0  0
 26 21  2  0  0  0  0
 27 25  1  0  0  0  0
 27 28  1  0  0  0  0
 29 28  2  0  0  0  0
 30 29  1  0  0  0  0
 31 36  1  0  0  0  0
 31 30  2  0  0  0  0
 32 31  1  0  0  0  0
 33 32  2  0  0  0  0
 33 34  1  0  0  0  0
 34 35  2  0  0  0  0
 35 30  1  0  0  0  0
 35 27  1  0  0  0  0
 36 38  1  0  0  0  0
 37 36  1  0  0  0  0
M  END
>  <minimizedAffinity>
-7.64592218

$$$$

 OpenBabel03242509313D

 38 43  0  0  1  0  0  0  0  0999 V2000
   65.6340   57.4230   31.4760 C   0  0  0  0  0  2  0  0  0  0  0  0
   63.3690   56.9090   28.6210 C   0  0  0  0  0  2  0  0  0  0  0  0
   62.5620   57.9910   28.6250 C   0  0  0  0  0  0  0  0  0  0  0  0
   62.8020   58.8990   29.6230 C   0  0  0  0  0  3  0  0  0  0  0  0
   63.7930   58.6710   30.5130 N   0  0  0  0  0  0  0  0  0  0  0  0
   64.5560   57.6060   30.4740 C   0  0  0  0  0  0  0  0  0  0  0  0
   64.3630   56.7050   29.5340 N   0  0  0  0  0  0  0  0  0  0  0  0
   64.9520   55.8600   29.4880 H   0  0  0  0  0  0  0  0  0  0  0  0
   61.5510   58.1030   27.5730 C   0  0  0  0  0  0  0  0  0  0  0  0
   61.7530   57.2020   26.5740 N   0  0  0  0  0  0  0  0  0  0  0  0
   61.0180   57.1920   25.4520 C   0  0  0  0  0  3  0  0  0  0  0  0
   60.1190   58.2150   25.1880 N   0  0  0  0  0  0  0  0  0  0  0  0
   60.0320   59.2220   26.0990 C   0  0  2  0  0  3  0  0  0  0  0  0
   59.2210   60.2950   25.8830 C   0  0  0  0  0  3  0  0  0  0  0  0
   59.1960   61.3440   26.7910 C   0  0  0  0  0  3  0  0  0  0  0  0
   60.0000   61.3170   27.9360 C   0  0  0  0  0  3  0  0  0  0  0  0
   60.8220   60.2120   28.1430 C   0  0  0  0  0  3  0  0  0  0  0  0
   60.8030   59.2070   27.2170 C   0  0  0  0  0  0  0  0  0  0  0  0
   59.5410   58.2130   24.3350 H   0  0  0  0  0  0  0  0  0  0  0  0
   65.3740   58.1970   32.7450 C   0  0  0  0  0  2  0  0  0  0  0  0
   66.4400   59.1510   33.0470 C   0  0  0  0  0  0  0  0  0  0  0  0
   67.0120   59.0800   34.3120 C   0  0  0  0  0  3  0  0  0  0  0  0
   68.0400   59.9840   34.6360 C   0  0  0  0  0  3  0  0  0  0  0  0
   68.4360   60.8810   33.7250 N   0  0  0  0  0  0  0  0  0  0  0  0
   67.8810   60.9560   32.4890 C   0  0  0  0  0  0  0  0  0  0  0  0
   66.9020   60.0810   32.2050 N   0  0  0  0  0  0  0  0  0  0  0  0
   68.2840   61.9030   31.4930 N   0  0  0  0  0  0  0  0  0  0  0  0
   67.6770   63.0510   31.0700 C   0  0  0  0  0  3  0  0  0  0  0  0
   68.4630   63.5790   30.1110 N   0  0  0  0  0  0  0  0  0  0  0  0
   69.5310   62.7880   29.9370 C   0  0  0  0  0  0  0  0  0  0  0  0
   70.6370   62.8330   29.1100 C   0  0  0  0  0  0  0  0  0  0  0  0
   71.5660   61.8570   29.1730 N   0  0  0  0  0  0  0  0  0  0  0  0
   71.4750   60.8310   30.0070 C   0  0  0  0  0  3  0  0  0  0  0  0
   70.3980   60.7880   30.8100 N   0  0  0  0  0  0  0  0  0  0  0  0
   69.4420   61.7300   30.7920 C   0  0  0  0  0  0  0  0  0  0  0  0
   70.8020   63.8960   28.1980 N   0  0  0  0  0  0  0  0  0  0  0  0
   71.6290   63.9240   27.5830 H   0  0  0  0  0  0  0  0  0  0  0  0
   70.0950   64.6440   28.1460 H   0  0  0  0  0  0  0  0  0  0  0  0
  1 20  1  0  0  0  0
  2  3  1  0  0  0  0
  2  7  1  0  0  0  0
  3  4  2  0  0  0  0
  4  5  1  0  0  0  0
  6  5  2  0  0  0  0
  6  1  1  0  0  0  0
  7  6  1  0  0  0  0
  8  7  1  0  0  0  0
  9  3  1  0  0  0  0
 10  9  1  0  0  0  0
 11 10  2  0  0  0  0
 12 11  1  0  0  0  0
 12 13  1  0  0  0  0
 13 14  1  6  0  0  0
 13 18  1  0  0  0  0
 14 15  2  0  0  0  0
 15 16  1  0  0  0  0
 16 17  2  0  0  0  0
 18  9  2  0  0  0  0
 18 17  1  0  0  0  0
 19 12  1  0  0  0  0
 20 21  1  0  0  0  0
 21 22  1  0  0  0  0
 22 23  2  0  0  0  0
 24 23  1  0  0  0  0
 25 24  2  0  0  0  0
 26 25  1  0  0  0  0
 26 21  2  0  0  0  0
 27 25  1  0  0  0  0
 28 27  1  0  0  0  0
 29 28  2  0  0  0  0
 30 29  1  0  0  0  0
 30 35  1  0  0  0  0
 31 32  1  0  0  0  0
 31 30  2  0  0  0  0
 32 33  2  0  0  0  0
 33 34  1  0  0  0  0
 35 34  2  0  0  0  0
 35 27  1  0  0  0  0
 36 31  1  0  0  0  0
 37 36  1  0  0  0  0
 38 36  1  0  0  0  0
M  END
>  <minimizedAffinity>
-7.10523081

$$$$

 OpenBabel03242509313D

 38 43  0  0  1  0  0  0  0  0999 V2000
   67.1630   57.5480   31.7810 C   0  0  0  0  0  2  0  0  0  0  0  0
   65.1200   57.2560   28.7340 C   0  0  0  0  0  2  0  0  0  0  0  0
   63.8500   57.4430   29.1540 C   0  0  0  0  0  0  0  0  0  0  0  0
   63.7030   57.6670   30.4970 C   0  0  0  0  0  3  0  0  0  0  0  0
   64.7920   57.6880   31.2970 N   0  0  0  0  0  0  0  0  0  0  0  0
   66.0100   57.5020   30.8500 C   0  0  0  0  0  0  0  0  0  0  0  0
   66.2020   57.2820   29.5660 N   0  0  0  0  0  0  0  0  0  0  0  0
   67.1510   57.1320   29.1950 H   0  0  0  0  0  0  0  0  0  0  0  0
   62.7810   57.4170   28.1550 C   0  0  0  0  0  0  0  0  0  0  0  0
   63.0830   56.6020   27.1070 N   0  0  0  0  0  0  0  0  0  0  0  0
   62.3040   56.5070   26.0200 C   0  0  0  0  0  3  0  0  0  0  0  0
   61.2300   57.3680   25.8440 N   0  0  0  0  0  0  0  0  0  0  0  0
   61.0180   58.3080   26.8030 C   0  0  2  0  0  3  0  0  0  0  0  0
   60.0240   59.2320   26.6740 C   0  0  0  0  0  3  0  0  0  0  0  0
   59.8670   60.2250   27.6290 C   0  0  0  0  0  3  0  0  0  0  0  0
   60.7210   60.2950   28.7340 C   0  0  0  0  0  3  0  0  0  0  0  0
   61.7310   59.3430   28.8530 C   0  0  0  0  0  3  0  0  0  0  0  0
   61.8370   58.3860   27.8830 C   0  0  0  0  0  0  0  0  0  0  0  0
   60.6160   57.2970   25.0190 H   0  0  0  0  0  0  0  0  0  0  0  0
   66.9570   58.5420   32.8990 C   0  0  0  0  0  2  0  0  0  0  0  0
   67.0490   59.9270   32.4410 C   0  0  0  0  0  0  0  0  0  0  0  0
   68.1120   60.2460   31.6040 C   0  0  0  0  0  3  0  0  0  0  0  0
   68.2310   61.5710   31.1460 C   0  0  0  0  0  3  0  0  0  0  0  0
   67.3250   62.4810   31.5250 N   0  0  0  0  0  0  0  0  0  0  0  0
   66.2850   62.1750   32.3410 C   0  0  0  0  0  0  0  0  0  0  0  0
   66.1950   60.9030   32.7640 N   0  0  0  0  0  0  0  0  0  0  0  0
   65.3000   63.1240   32.7630 N   0  0  0  0  0  0  0  0  0  0  0  0
   65.1440   63.7620   33.9610 C   0  0  0  0  0  3  0  0  0  0  0  0
   64.0600   64.5540   33.8440 N   0  0  0  0  0  0  0  0  0  0  0  0
   63.5510   64.4200   32.6110 C   0  0  0  0  0  0  0  0  0  0  0  0
   62.4720   64.9750   31.9500 C   0  0  0  0  0  0  0  0  0  0  0  0
   62.2130   64.6270   30.6730 N   0  0  0  0  0  0  0  0  0  0  0  0
   62.9550   63.7600   29.9990 C   0  0  0  0  0  3  0  0  0  0  0  0
   64.0030   63.2200   30.6450 N   0  0  0  0  0  0  0  0  0  0  0  0
   64.3110   63.5280   31.9140 C   0  0  0  0  0  0  0  0  0  0  0  0
   61.6380   65.9060   32.6030 N   0  0  0  0  0  0  0  0  0  0  0  0
   60.8350   66.3160   32.1050 H   0  0  0  0  0  0  0  0  0  0  0  0
   61.8320   66.1750   33.5780 H   0  0  0  0  0  0  0  0  0  0  0  0
  1 20  1  0  0  0  0
  2  3  1  0  0  0  0
  2  7  1  0  0  0  0
  3  4  2  0  0  0  0
  4  5  1  0  0  0  0
  6  5  2  0  0  0  0
  6  1  1  0  0  0  0
  7  6  1  0  0  0  0
  8  7  1  0  0  0  0
  9  3  1  0  0  0  0
 10  9  1  0  0  0  0
 11 10  2  0  0  0  0
 12 11  1  0  0  0  0
 12 13  1  0  0  0  0
 13 14  1  6  0  0  0
 13 18  1  0  0  0  0
 14 15  2  0  0  0  0
 15 16  1  0  0  0  0
 16 17  2  0  0  0  0
 18  9  2  0  0  0  0
 18 17  1  0  0  0  0
 19 12  1  0  0  0  0
 21 26  2  0  0  0  0
 21 20  1  0  0  0  0
 22 21  1  0  0  0  0
 23 24  1  0  0  0  0
 23 22  2  0  0  0  0
 24 25  2  0  0  0  0
 25 27  1  0  0  0  0
 25 26  1  0  0  0  0
 27 28  1  0  0  0  0
 29 28  2  0  0  0  0
 30 29  1  0  0  0  0
 31 36  1  0  0  0  0
 31 30  1  0  0  0  0
 32 31  2  0  0  0  0
 33 34  2  0  0  0  0
 33 32  1  0  0  0  0
 34 35  1  0  0  0  0
 35 30  2  0  0  0  0
 35 27  1  0  0  0  0
 36 38  1  0  0  0  0
 37 36  1  0  0  0  0
M  END
>  <minimizedAffinity>
-6.93395758

$$$$

 OpenBabel03242509313D

 38 43  0  0  1  0  0  0  0  0999 V2000
   65.9310   58.3880   33.6580 C   0  0  0  0  0  2  0  0  0  0  0  0
   64.3290   58.4880   30.3460 C   0  0  0  0  0  2  0  0  0  0  0  0
   64.9160   57.4890   29.6520 C   0  0  0  0  0  0  0  0  0  0  0  0
   65.8710   56.7830   30.3330 C   0  0  0  0  0  3  0  0  0  0  0  0
   66.1630   57.1100   31.6120 N   0  0  0  0  0  0  0  0  0  0  0  0
   65.5700   58.0880   32.2520 C   0  0  0  0  0  0  0  0  0  0  0  0
   64.6450   58.7970   31.6370 N   0  0  0  0  0  0  0  0  0  0  0  0
   64.1680   59.5700   32.1230 H   0  0  0  0  0  0  0  0  0  0  0  0
   64.4670   57.2450   28.2810 C   0  0  0  0  0  0  0  0  0  0  0  0
   65.5040   56.9530   27.4490 N   0  0  0  0  0  0  0  0  0  0  0  0
   65.3480   56.8020   26.1260 C   0  0  0  0  0  3  0  0  0  0  0  0
   64.1370   57.1020   25.5200 N   0  0  0  0  0  0  0  0  0  0  0  0
   63.1360   57.5650   26.3170 C   0  0  2  0  0  3  0  0  0  0  0  0
   61.9380   57.9440   25.7900 C   0  0  0  0  0  3  0  0  0  0  0  0
   60.9530   58.4780   26.6090 C   0  0  0  0  0  3  0  0  0  0  0  0
   61.1740   58.6360   27.9810 C   0  0  0  0  0  3  0  0  0  0  0  0
   62.4040   58.2430   28.5050 C   0  0  0  0  0  3  0  0  0  0  0  0
   63.3360   57.7210   27.6510 C   0  0  0  0  0  0  0  0  0  0  0  0
   64.0000   56.9790   24.5060 H   0  0  0  0  0  0  0  0  0  0  0  0
   67.4070   58.2140   33.9200 C   0  0  0  0  0  2  0  0  0  0  0  0
   68.1780   59.4120   33.5980 C   0  0  0  0  0  0  0  0  0  0  0  0
   69.5460   59.3680   33.8420 C   0  0  0  0  0  3  0  0  0  0  0  0
   70.3180   60.5060   33.5430 C   0  0  0  0  0  3  0  0  0  0  0  0
   69.7200   61.5910   33.0350 N   0  0  0  0  0  0  0  0  0  0  0  0
   68.3850   61.6390   32.7950 C   0  0  0  0  0  0  0  0  0  0  0  0
   67.6720   60.5400   33.0890 N   0  0  0  0  0  0  0  0  0  0  0  0
   67.7170   62.7840   32.2520 N   0  0  0  0  0  0  0  0  0  0  0  0
   66.9330   63.7200   32.8630 C   0  0  0  0  0  3  0  0  0  0  0  0
   66.5460   64.5890   31.9080 N   0  0  0  0  0  0  0  0  0  0  0  0
   67.0700   64.2110   30.7340 C   0  0  0  0  0  0  0  0  0  0  0  0
   67.0120   64.7130   29.4480 C   0  0  0  0  0  0  0  0  0  0  0  0
   67.6690   64.0870   28.4500 N   0  0  0  0  0  0  0  0  0  0  0  0
   68.3860   62.9890   28.6390 C   0  0  0  0  0  3  0  0  0  0  0  0
   68.4410   62.5020   29.8910 N   0  0  0  0  0  0  0  0  0  0  0  0
   67.8100   63.0810   30.9230 C   0  0  0  0  0  0  0  0  0  0  0  0
   66.2690   65.8790   29.1710 N   0  0  0  0  0  0  0  0  0  0  0  0
   66.2290   66.2490   28.2100 H   0  0  0  0  0  0  0  0  0  0  0  0
   65.7660   66.3610   29.9300 H   0  0  0  0  0  0  0  0  0  0  0  0
  1 20  1  0  0  0  0
  2  7  1  0  0  0  0
  3  4  2  0  0  0  0
  3  2  1  0  0  0  0
  4  5  1  0  0  0  0
  5  6  2  0  0  0  0
  6  1  1  0  0  0  0
  7  8  1  0  0  0  0
  7  6  1  0  0  0  0
  9  3  1  0  0  0  0
 10  9  1  0  0  0  0
 11 10  2  0  0  0  0
 12 11  1  0  0  0  0
 12 13  1  0  0  0  0
 13 14  1  6  0  0  0
 13 18  1  0  0  0  0
 14 15  2  0  0  0  0
 15 16  1  0  0  0  0
 16 17  2  0  0  0  0
 18  9  2  0  0  0  0
 18 17  1  0  0  0  0
 19 12  1  0  0  0  0
 21 22  1  0  0  0  0
 21 20  1  0  0  0  0
 23 22  2  0  0  0  0
 24 23  1  0  0  0  0
 25 24  2  0  0  0  0
 25 26  1  0  0  0  0
 26 21  2  0  0  0  0
 27 25  1  0  0  0  0
 27 28  1  0  0  0  0
 29 28  2  0  0  0  0
 30 35  1  0  0  0  0
 30 29  1  0  0  0  0
 31 30  2  0  0  0  0
 32 33  2  0  0  0  0
 32 31  1  0  0  0  0
 33 34  1  0  0  0  0
 34 35  2  0  0  0  0
 35 27  1  0  0  0  0
 36 31  1  0  0  0  0
 36 38  1  0  0  0  0
 37 36  1  0  0  0  0
M  END
>  <minimizedAffinity>
-6.69420433

$$$$

 OpenBabel03242509313D

 38 43  0  0  1  0  0  0  0  0999 V2000
   66.0050   57.1890   30.2010 C   0  0  0  0  0  2  0  0  0  0  0  0
   62.6000   57.0780   28.8080 C   0  0  0  0  0  2  0  0  0  0  0  0
   62.7720   57.1960   27.4740 C   0  0  0  0  0  0  0  0  0  0  0  0
   64.0710   57.3180   27.0580 C   0  0  0  0  0  3  0  0  0  0  0  0
   65.0700   57.3140   27.9680 N   0  0  0  0  0  0  0  0  0  0  0  0
   64.8620   57.1960   29.2570 C   0  0  0  0  0  0  0  0  0  0  0  0
   63.6290   57.0770   29.7050 N   0  0  0  0  0  0  0  0  0  0  0  0
   63.4450   56.9850   30.7140 H   0  0  0  0  0  0  0  0  0  0  0  0
   61.5850   57.1550   26.6190 C   0  0  0  0  0  0  0  0  0  0  0  0
   61.5680   56.0520   25.8220 N   0  0  0  0  0  0  0  0  0  0  0  0
   60.6370   55.8590   24.8770 C   0  0  0  0  0  3  0  0  0  0  0  0
   59.7360   56.8650   24.5580 N   0  0  0  0  0  0  0  0  0  0  0  0
   59.8520   58.0440   25.2270 C   0  0  2  0  0  3  0  0  0  0  0  0
   59.0490   59.1020   24.9260 C   0  0  0  0  0  3  0  0  0  0  0  0
   59.2260   60.3170   25.5720 C   0  0  0  0  0  3  0  0  0  0  0  0
   60.2290   60.4750   26.5350 C   0  0  0  0  0  3  0  0  0  0  0  0
   61.0410   59.3830   26.8310 C   0  0  0  0  0  3  0  0  0  0  0  0
   60.8180   58.2090   26.1660 C   0  0  0  0  0  0  0  0  0  0  0  0
   59.0080   56.7240   23.8420 H   0  0  0  0  0  0  0  0  0  0  0  0
   65.6110   57.6520   31.5810 C   0  0  0  0  0  2  0  0  0  0  0  0
   66.7430   57.6920   32.5040 C   0  0  0  0  0  0  0  0  0  0  0  0
   67.4630   56.5140   32.6730 C   0  0  0  0  0  3  0  0  0  0  0  0
   68.5590   56.5180   33.5550 C   0  0  0  0  0  3  0  0  0  0  0  0
   68.8770   57.6460   34.2020 N   0  0  0  0  0  0  0  0  0  0  0  0
   68.1790   58.7980   34.0410 C   0  0  0  0  0  0  0  0  0  0  0  0
   67.1370   58.7670   33.1940 N   0  0  0  0  0  0  0  0  0  0  0  0
   68.4950   60.0200   34.7190 N   0  0  0  0  0  0  0  0  0  0  0  0
   67.8890   60.6200   35.7840 C   0  0  0  0  0  3  0  0  0  0  0  0
   68.5720   61.7540   36.0360 N   0  0  0  0  0  0  0  0  0  0  0  0
   69.5780   61.8630   35.1550 C   0  0  0  0  0  0  0  0  0  0  0  0
   70.5750   62.7950   34.9430 C   0  0  0  0  0  0  0  0  0  0  0  0
   71.4640   62.6170   33.9450 N   0  0  0  0  0  0  0  0  0  0  0  0
   71.4330   61.5690   33.1340 C   0  0  0  0  0  3  0  0  0  0  0  0
   70.4620   60.6630   33.3410 N   0  0  0  0  0  0  0  0  0  0  0  0
   69.5510   60.7860   34.3180 C   0  0  0  0  0  0  0  0  0  0  0  0
   70.6710   63.9360   35.7680 N   0  0  0  0  0  0  0  0  0  0  0  0
   71.4160   64.6280   35.6050 H   0  0  0  0  0  0  0  0  0  0  0  0
   69.9940   64.0770   36.5320 H   0  0  0  0  0  0  0  0  0  0  0  0
  1 20  1  0  0  0  0
  2  7  1  0  0  0  0
  3  2  1  0  0  0  0
  4  3  2  0  0  0  0
  4  5  1  0  0  0  0
  5  6  2  0  0  0  0
  6  7  1  0  0  0  0
  6  1  1  0  0  0  0
  7  8  1  0  0  0  0
  9  3  1  0  0  0  0
 10  9  1  0  0  0  0
 11 10  2  0  0  0  0
 12 11  1  0  0  0  0
 12 13  1  0  0  0  0
 13 14  1  6  0  0  0
 13 18  1  0  0  0  0
 14 15  2  0  0  0  0
 15 16  1  0  0  0  0
 16 17  2  0  0  0  0
 18  9  2  0  0  0  0
 18 17  1  0  0  0  0
 19 12  1  0  0  0  0
 20 21  1  0  0  0  0
 21 22  1  0  0  0  0
 21 26  2  0  0  0  0
 22 23  2  0  0  0  0
 23 24  1  0  0  0  0
 25 24  2  0  0  0  0
 25 27  1  0  0  0  0
 26 25  1  0  0  0  0
 27 28  1  0  0  0  0
 28 29  2  0  0  0  0
 30 29  1  0  0  0  0
 31 30  1  0  0  0  0
 31 36  1  0  0  0  0
 32 31  2  0  0  0  0
 33 34  2  0  0  0  0
 33 32  1  0  0  0  0
 34 35  1  0  0  0  0
 35 27  1  0  0  0  0
 35 30  2  0  0  0  0
 36 38  1  0  0  0  0
 37 36  1  0  0  0  0
M  END
>  <minimizedAffinity>
-6.68555212

$$$$

 OpenBabel03242509313D

 38 43  0  0  1  0  0  0  0  0999 V2000
   66.0010   57.1350   30.0860 C   0  0  0  0  0  2  0  0  0  0  0  0
   62.5710   56.9000   28.7750 C   0  0  0  0  0  2  0  0  0  0  0  0
   62.6940   57.1300   27.4500 C   0  0  0  0  0  0  0  0  0  0  0  0
   63.9690   57.3720   27.0120 C   0  0  0  0  0  3  0  0  0  0  0  0
   64.9940   57.3660   27.8940 N   0  0  0  0  0  0  0  0  0  0  0  0
   64.8320   57.1370   29.1750 C   0  0  0  0  0  0  0  0  0  0  0  0
   63.6240   56.9010   29.6430 N   0  0  0  0  0  0  0  0  0  0  0  0
   63.4760   56.7210   30.6460 H   0  0  0  0  0  0  0  0  0  0  0  0
   61.4870   57.0750   26.6240 C   0  0  0  0  0  0  0  0  0  0  0  0
   61.4050   55.9140   25.9190 N   0  0  0  0  0  0  0  0  0  0  0  0
   60.4450   55.6880   25.0110 C   0  0  0  0  0  3  0  0  0  0  0  0
   59.5810   56.7040   24.6290 N   0  0  0  0  0  0  0  0  0  0  0  0
   59.7630   57.9270   25.1980 C   0  0  2  0  0  3  0  0  0  0  0  0
   58.9990   58.9930   24.8300 C   0  0  0  0  0  3  0  0  0  0  0  0
   59.2440   60.2460   25.3710 C   0  0  0  0  0  3  0  0  0  0  0  0
   60.2740   60.4350   26.2980 C   0  0  0  0  0  3  0  0  0  0  0  0
   61.0450   59.3350   26.6660 C   0  0  0  0  0  3  0  0  0  0  0  0
   60.7570   58.1230   26.1030 C   0  0  0  0  0  0  0  0  0  0  0  0
   58.8320   56.5400   23.9410 H   0  0  0  0  0  0  0  0  0  0  0  0
   65.6160   57.4460   31.5120 C   0  0  0  0  0  2  0  0  0  0  0  0
   66.5340   58.3890   32.1470 C   0  0  0  0  0  0  0  0  0  0  0  0
   67.8190   58.4710   31.6240 C   0  0  0  0  0  3  0  0  0  0  0  0
   68.7280   59.3690   32.2130 C   0  0  0  0  0  3  0  0  0  0  0  0
   68.3340   60.1150   33.2520 N   0  0  0  0  0  0  0  0  0  0  0  0
   67.0810   60.0400   33.7660 C   0  0  0  0  0  0  0  0  0  0  0  0
   66.2330   59.1750   33.1860 N   0  0  0  0  0  0  0  0  0  0  0  0
   66.6290   60.8260   34.8760 N   0  0  0  0  0  0  0  0  0  0  0  0
   66.4320   60.4780   36.1820 C   0  0  0  0  0  3  0  0  0  0  0  0
   65.9990   61.5820   36.8200 N   0  0  0  0  0  0  0  0  0  0  0  0
   65.9260   62.5940   35.9430 C   0  0  0  0  0  0  0  0  0  0  0  0
   65.5560   63.9220   36.0340 C   0  0  0  0  0  0  0  0  0  0  0  0
   65.5910   64.7080   34.9390 N   0  0  0  0  0  0  0  0  0  0  0  0
   65.9710   64.2660   33.7490 C   0  0  0  0  0  3  0  0  0  0  0  0
   66.3300   62.9740   33.6620 N   0  0  0  0  0  0  0  0  0  0  0  0
   66.3170   62.1440   34.7160 C   0  0  0  0  0  0  0  0  0  0  0  0
   65.1410   64.4630   37.2690 N   0  0  0  0  0  0  0  0  0  0  0  0
   64.8660   65.4530   37.3310 H   0  0  0  0  0  0  0  0  0  0  0  0
   65.1130   63.8660   38.1090 H   0  0  0  0  0  0  0  0  0  0  0  0
  1 20  1  0  0  0  0
  2  7  1  0  0  0  0
  3  2  1  0  0  0  0
  4  3  2  0  0  0  0
  4  5  1  0  0  0  0
  5  6  2  0  0  0  0
  6  7  1  0  0  0  0
  6  1  1  0  0  0  0
  7  8  1  0  0  0  0
  9  3  1  0  0  0  0
 10  9  1  0  0  0  0
 11 10  2  0  0  0  0
 12 11  1  0  0  0  0
 12 13  1  0  0  0  0
 13 14  1  6  0  0  0
 13 18  1  0  0  0  0
 14 15  2  0  0  0  0
 15 16  1  0  0  0  0
 16 17  2  0  0  0  0
 18  9  2  0  0  0  0
 18 17  1  0  0  0  0
 19 12  1  0  0  0  0
 20 21  1  0  0  0  0
 21 26  2  0  0  0  0
 22 21  1  0  0  0  0
 22 23  2  0  0  0  0
 23 24  1  0  0  0  0
 24 25  2  0  0  0  0
 25 27  1  0  0  0  0
 26 25  1  0  0  0  0
 27 28  1  0  0  0  0
 28 29  2  0  0  0  0
 30 31  1  0  0  0  0
 30 29  1  0  0  0  0
 31 36  1  0  0  0  0
 32 31  2  0  0  0  0
 33 32  1  0  0  0  0
 34 33  2  0  0  0  0
 34 35  1  0  0  0  0
 35 27  1  0  0  0  0
 35 30  2  0  0  0  0
 36 37  1  0  0  0  0
 36 38  1  0  0  0  0
M  END
>  <minimizedAffinity>
-6.59403706

$$$$
