
 OpenBabel03242509333D

 36 41  0  0  1  0  0  0  0  0999 V2000
   67.0690   56.8930   32.4310 C   0  0  0  0  0  2  0  0  0  0  0  0
   65.0750   57.5540   29.4090 C   0  0  0  0  0  2  0  0  0  0  0  0
   63.9120   58.0630   29.8730 C   0  0  0  0  0  0  0  0  0  0  0  0
   63.8110   58.1770   31.2380 C   0  0  0  0  0  3  0  0  0  0  0  0
   64.8450   57.7880   32.0200 N   0  0  0  0  0  0  0  0  0  0  0  0
   65.9620   57.2980   31.5330 C   0  0  0  0  0  0  0  0  0  0  0  0
   66.1040   57.1690   30.2220 N   0  0  0  0  0  0  0  0  0  0  0  0
   66.9730   56.7850   29.8230 H   0  0  0  0  0  0  0  0  0  0  0  0
   62.8970   58.4560   28.8940 C   0  0  0  0  0  0  0  0  0  0  0  0
   62.0630   59.4140   29.3840 N   0  0  0  0  0  0  0  0  0  0  0  0
   60.9780   59.8340   28.7130 C   0  0  0  0  0  3  0  0  0  0  0  0
   60.5700   59.1960   27.5520 N   0  0  0  0  0  0  0  0  0  0  0  0
   61.3010   58.1290   27.1420 C   0  0  2  0  0  3  0  0  0  0  0  0
   60.9420   57.4110   26.0420 C   0  0  0  0  0  3  0  0  0  0  0  0
   61.6740   56.2790   25.6640 C   0  0  0  0  0  3  0  0  0  0  0  0
   62.7770   55.8770   26.4120 C   0  0  0  0  0  3  0  0  0  0  0  0
   63.1330   56.6180   27.5280 C   0  0  0  0  0  3  0  0  0  0  0  0
   62.3850   57.7160   27.8520 C   0  0  0  0  0  0  0  0  0  0  0  0
   59.7460   59.5170   27.0240 H   0  0  0  0  0  0  0  0  0  0  0  0
   68.3290   57.7170   32.1470 C   0  0  0  0  0  2  0  0  0  0  0  0
   68.1550   59.1370   32.4760 C   0  0  0  0  0  0  0  0  0  0  0  0
   68.8230   59.6260   33.5820 C   0  0  0  0  0  3  0  0  0  0  0  0
   68.6750   60.9660   33.9050 C   0  0  0  0  0  3  0  0  0  0  0  0
   67.9080   61.7420   33.1550 N   0  0  0  0  0  0  0  0  0  0  0  0
   67.2350   61.3050   32.0630 C   0  0  0  0  0  0  0  0  0  0  0  0
   67.4070   59.9810   31.7800 N   0  0  0  0  0  0  0  0  0  0  0  0
   66.3480   61.9400   31.0940 C   0  0  0  0  0  0  0  0  0  0  0  0
   65.0000   61.9840   31.2120 N   0  0  0  0  0  0  0  0  0  0  0  0
   64.1820   62.5580   30.3370 C   0  0  0  0  0  3  0  0  0  0  0  0
   64.6600   63.1580   29.2340 N   0  0  0  0  0  0  0  0  0  0  0  0
   66.0030   63.1870   28.9920 C   0  0  0  0  0  0  0  0  0  0  0  0
   66.4820   63.7970   27.8670 C   0  0  0  0  0  3  0  0  0  0  0  0
   67.8270   63.8250   27.6230 C   0  0  0  0  0  3  0  0  0  0  0  0
   68.6690   63.2200   28.5470 C   0  0  0  0  0  3  0  0  0  0  0  0
   68.1200   62.6220   29.6590 C   0  0  0  0  0  3  0  0  0  0  0  0
   66.7780   62.5690   29.9470 C   0  0  0  0  0  0  0  0  0  0  0  0
  2  3  1  0  0  0  0
  2  7  1  0  0  0  0
  3  4  2  0  0  0  0
  4  5  1  0  0  0  0
  6  5  2  0  0  0  0
  6  1  1  0  0  0  0
  7  6  1  0  0  0  0
  8  7  1  0  0  0  0
  9 10  1  0  0  0  0
  9  3  1  0  0  0  0
 11 10  2  0  0  0  0
 12 11  1  0  0  0  0
 13 14  1  1  0  0  0
 13 12  1  0  0  0  0
 13 18  1  0  0  0  0
 15 14  2  0  0  0  0
 15 16  1  0  0  0  0
 16 17  2  0  0  0  0
 17 18  1  0  0  0  0
 18  9  2  0  0  0  0
 19 12  1  0  0  0  0
 20  1  1  0  0  0  0
 20 21  1  0  0  0  0
 21 22  1  0  0  0  0
 22 23  2  0  0  0  0
 24 23  1  0  0  0  0
 25 24  2  0  0  0  0
 26 25  1  0  0  0  0
 26 21  2  0  0  0  0
 27 28  1  0  0  0  0
 27 25  1  0  0  0  0
 29 28  2  0  0  0  0
 30 29  1  0  0  0  0
 31 30  2  0  0  0  0
 31 36  1  0  0  0  0
 32 31  1  0  0  0  0
 33 32  2  0  0  0  0
 33 34  1  0  0  0  0
 34 35  2  0  0  0  0
 35 36  1  0  0  0  0
 36 27  2  0  0  0  0
M  END
>  <minimizedAffinity>
-7.56308222

$$$$

 OpenBabel03242509333D

 36 41  0  0  1  0  0  0  0  0999 V2000
   67.0750   57.4260   32.2960 C   0  0  0  0  0  2  0  0  0  0  0  0
   65.2650   57.0920   29.1080 C   0  0  0  0  0  2  0  0  0  0  0  0
   64.0010   57.4780   29.3920 C   0  0  0  0  0  0  0  0  0  0  0  0
   63.7680   57.8520   30.6920 C   0  0  0  0  0  3  0  0  0  0  0  0
   64.7800   57.8180   31.5910 N   0  0  0  0  0  0  0  0  0  0  0  0
   65.9980   57.4380   31.2780 C   0  0  0  0  0  0  0  0  0  0  0  0
   66.2690   57.0670   30.0350 N   0  0  0  0  0  0  0  0  0  0  0  0
   67.2190   56.7660   29.7730 H   0  0  0  0  0  0  0  0  0  0  0  0
   63.0240   57.4780   28.3020 C   0  0  0  0  0  0  0  0  0  0  0  0
   63.4850   56.8150   27.2070 N   0  0  0  0  0  0  0  0  0  0  0  0
   62.8160   56.7970   26.0420 C   0  0  0  0  0  3  0  0  0  0  0  0
   61.6910   57.5870   25.8580 N   0  0  0  0  0  0  0  0  0  0  0  0
   61.3160   58.3810   26.8910 C   0  0  2  0  0  3  0  0  0  0  0  0
   60.2550   59.2280   26.7790 C   0  0  0  0  0  3  0  0  0  0  0  0
   59.9140   60.0820   27.8350 C   0  0  0  0  0  3  0  0  0  0  0  0
   60.6600   60.0740   29.0100 C   0  0  0  0  0  3  0  0  0  0  0  0
   61.7360   59.2060   29.1130 C   0  0  0  0  0  3  0  0  0  0  0  0
   62.0240   58.3920   28.0520 C   0  0  0  0  0  0  0  0  0  0  0  0
   61.1640   57.5710   24.9730 H   0  0  0  0  0  0  0  0  0  0  0  0
   68.2400   58.3230   31.8670 C   0  0  0  0  0  2  0  0  0  0  0  0
   68.0100   59.7350   32.1950 C   0  0  0  0  0  0  0  0  0  0  0  0
   67.2400   60.0190   33.3050 C   0  0  0  0  0  3  0  0  0  0  0  0
   67.0170   61.3480   33.6340 C   0  0  0  0  0  3  0  0  0  0  0  0
   67.5410   62.3050   32.8860 N   0  0  0  0  0  0  0  0  0  0  0  0
   68.3010   62.0730   31.7890 C   0  0  0  0  0  0  0  0  0  0  0  0
   68.4960   60.7530   31.5000 N   0  0  0  0  0  0  0  0  0  0  0  0
   68.9780   62.9300   30.8210 C   0  0  0  0  0  0  0  0  0  0  0  0
   70.2420   63.3950   30.9710 N   0  0  0  0  0  0  0  0  0  0  0  0
   70.8690   64.1760   30.0980 C   0  0  0  0  0  3  0  0  0  0  0  0
   70.2660   64.5680   28.9640 N   0  0  0  0  0  0  0  0  0  0  0  0
   68.9900   64.1710   28.6880 C   0  0  0  0  0  0  0  0  0  0  0  0
   68.3820   64.5760   27.5320 C   0  0  0  0  0  3  0  0  0  0  0  0
   67.1040   64.1790   27.2560 C   0  0  0  0  0  3  0  0  0  0  0  0
   66.4610   63.3630   28.1770 C   0  0  0  0  0  3  0  0  0  0  0  0
   67.1310   62.9930   29.3220 C   0  0  0  0  0  3  0  0  0  0  0  0
   68.4130   63.3650   29.6430 C   0  0  0  0  0  0  0  0  0  0  0  0
  2  3  1  0  0  0  0
  2  7  1  0  0  0  0
  3  4  2  0  0  0  0
  4  5  1  0  0  0  0
  6  5  2  0  0  0  0
  6  1  1  0  0  0  0
  7  6  1  0  0  0  0
  8  7  1  0  0  0  0
  9  3  1  0  0  0  0
 10  9  1  0  0  0  0
 11 10  2  0  0  0  0
 12 11  1  0  0  0  0
 12 13  1  0  0  0  0
 13 14  1  6  0  0  0
 13 18  1  0  0  0  0
 14 15  2  0  0  0  0
 15 16  1  0  0  0  0
 16 17  2  0  0  0  0
 18  9  2  0  0  0  0
 18 17  1  0  0  0  0
 19 12  1  0  0  0  0
 20 21  1  0  0  0  0
 20  1  1  0  0  0  0
 21 22  1  0  0  0  0
 22 23  2  0  0  0  0
 24 23  1  0  0  0  0
 25 24  2  0  0  0  0
 26 25  1  0  0  0  0
 26 21  2  0  0  0  0
 27 28  1  0  0  0  0
 27 25  1  0  0  0  0
 29 28  2  0  0  0  0
 30 29  1  0  0  0  0
 31 30  2  0  0  0  0
 31 36  1  0  0  0  0
 32 31  1  0  0  0  0
 33 32  2  0  0  0  0
 33 34  1  0  0  0  0
 34 35  2  0  0  0  0
 35 36  1  0  0  0  0
 36 27  2  0  0  0  0
M  END
>  <minimizedAffinity>
-7.50355864

$$$$

 OpenBabel03242509333D

 36 41  0  0  1  0  0  0  0  0999 V2000
   66.9840   57.4310   32.1260 C   0  0  0  0  0  2  0  0  0  0  0  0
   65.1830   57.0650   28.9370 C   0  0  0  0  0  2  0  0  0  0  0  0
   63.9000   57.3730   29.2320 C   0  0  0  0  0  0  0  0  0  0  0  0
   63.6520   57.7050   30.5420 C   0  0  0  0  0  3  0  0  0  0  0  0
   64.6680   57.7090   31.4360 N   0  0  0  0  0  0  0  0  0  0  0  0
   65.9040   57.4050   31.1110 C   0  0  0  0  0  0  0  0  0  0  0  0
   66.1900   57.0770   29.8600 N   0  0  0  0  0  0  0  0  0  0  0  0
   67.1540   56.8350   29.5880 H   0  0  0  0  0  0  0  0  0  0  0  0
   62.9200   57.3420   28.1460 C   0  0  0  0  0  0  0  0  0  0  0  0
   63.3530   56.5980   27.0920 N   0  0  0  0  0  0  0  0  0  0  0  0
   62.6790   56.5330   25.9320 C   0  0  0  0  0  3  0  0  0  0  0  0
   61.5840   57.3500   25.7010 N   0  0  0  0  0  0  0  0  0  0  0  0
   61.2400   58.2180   26.6850 C   0  0  2  0  0  3  0  0  0  0  0  0
   60.2100   59.0940   26.5230 C   0  0  0  0  0  3  0  0  0  0  0  0
   59.9030   60.0230   27.5250 C   0  0  0  0  0  3  0  0  0  0  0  0
   60.6520   60.0590   28.6980 C   0  0  0  0  0  3  0  0  0  0  0  0
   61.6970   59.1610   28.8520 C   0  0  0  0  0  3  0  0  0  0  0  0
   61.9520   58.2740   27.8420 C   0  0  0  0  0  0  0  0  0  0  0  0
   61.0530   57.3000   24.8200 H   0  0  0  0  0  0  0  0  0  0  0  0
   66.5070   58.1150   33.4100 C   0  0  0  0  0  2  0  0  0  0  0  0
   66.8580   59.5400   33.4480 C   0  0  0  0  0  0  0  0  0  0  0  0
   67.7860   59.9480   34.3850 C   0  0  0  0  0  3  0  0  0  0  0  0
   68.1340   61.2900   34.4330 C   0  0  0  0  0  3  0  0  0  0  0  0
   67.5770   62.1420   33.5880 N   0  0  0  0  0  0  0  0  0  0  0  0
   66.6620   61.7870   32.6530 C   0  0  0  0  0  0  0  0  0  0  0  0
   66.3480   60.4580   32.6400 N   0  0  0  0  0  0  0  0  0  0  0  0
   65.9180   62.5140   31.6300 C   0  0  0  0  0  0  0  0  0  0  0  0
   64.6490   62.9600   31.7860 N   0  0  0  0  0  0  0  0  0  0  0  0
   63.9610   63.6220   30.8630 C   0  0  0  0  0  3  0  0  0  0  0  0
   64.5040   63.9060   29.6670 N   0  0  0  0  0  0  0  0  0  0  0  0
   65.7780   63.5140   29.3780 C   0  0  0  0  0  0  0  0  0  0  0  0
   66.3240   63.8040   28.1590 C   0  0  0  0  0  3  0  0  0  0  0  0
   67.6000   63.4110   27.8680 C   0  0  0  0  0  3  0  0  0  0  0  0
   68.3060   62.7200   28.8430 C   0  0  0  0  0  3  0  0  0  0  0  0
   67.6970   62.4590   30.0500 C   0  0  0  0  0  3  0  0  0  0  0  0
   66.4200   62.8330   30.3880 C   0  0  0  0  0  0  0  0  0  0  0  0
  1 20  1  0  0  0  0
  2  3  1  0  0  0  0
  2  7  1  0  0  0  0
  3  4  2  0  0  0  0
  4  5  1  0  0  0  0
  6  5  2  0  0  0  0
  6  1  1  0  0  0  0
  7  6  1  0  0  0  0
  8  7  1  0  0  0  0
  9  3  1  0  0  0  0
 10  9  1  0  0  0  0
 11 10  2  0  0  0  0
 12 11  1  0  0  0  0
 12 13  1  0  0  0  0
 13 14  1  6  0  0  0
 13 18  1  0  0  0  0
 14 15  2  0  0  0  0
 15 16  1  0  0  0  0
 16 17  2  0  0  0  0
 18  9  2  0  0  0  0
 18 17  1  0  0  0  0
 19 12  1  0  0  0  0
 20 21  1  0  0  0  0
 21 22  1  0  0  0  0
 22 23  2  0  0  0  0
 24 23  1  0  0  0  0
 25 24  2  0  0  0  0
 26 25  1  0  0  0  0
 26 21  2  0  0  0  0
 27 28  1  0  0  0  0
 27 25  1  0  0  0  0
 29 28  2  0  0  0  0
 30 29  1  0  0  0  0
 31 30  2  0  0  0  0
 31 36  1  0  0  0  0
 32 31  1  0  0  0  0
 33 32  2  0  0  0  0
 33 34  1  0  0  0  0
 34 35  2  0  0  0  0
 35 36  1  0  0  0  0
 36 27  2  0  0  0  0
M  END
>  <minimizedAffinity>
-7.48038292

$$$$

 OpenBabel03242509333D

 36 41  0  0  1  0  0  0  0  0999 V2000
   66.8850   57.0290   32.7320 C   0  0  0  0  0  2  0  0  0  0  0  0
   63.8600   58.3230   31.0820 C   0  0  0  0  0  2  0  0  0  0  0  0
   64.0370   58.0370   29.7730 C   0  0  0  0  0  0  0  0  0  0  0  0
   65.2090   57.3970   29.4540 C   0  0  0  0  0  3  0  0  0  0  0  0
   66.0950   57.0960   30.4320 N   0  0  0  0  0  0  0  0  0  0  0  0
   65.8880   57.3880   31.6960 C   0  0  0  0  0  0  0  0  0  0  0  0
   64.7710   58.0070   32.0500 N   0  0  0  0  0  0  0  0  0  0  0  0
   64.5930   58.2440   33.0370 H   0  0  0  0  0  0  0  0  0  0  0  0
   62.9740   58.4130   28.8400 C   0  0  0  0  0  0  0  0  0  0  0  0
   62.1320   59.3390   29.3740 N   0  0  0  0  0  0  0  0  0  0  0  0
   61.0100   59.7360   28.7520 C   0  0  0  0  0  3  0  0  0  0  0  0
   60.5770   59.1020   27.5980 N   0  0  0  0  0  0  0  0  0  0  0  0
   61.3220   58.0630   27.1450 C   0  0  2  0  0  3  0  0  0  0  0  0
   60.9420   57.3500   26.0480 C   0  0  0  0  0  3  0  0  0  0  0  0
   61.6920   56.2450   25.6250 C   0  0  0  0  0  3  0  0  0  0  0  0
   62.8340   55.8660   26.3250 C   0  0  0  0  0  3  0  0  0  0  0  0
   63.2110   56.6020   27.4380 C   0  0  0  0  0  3  0  0  0  0  0  0
   62.4440   57.6720   27.8060 C   0  0  0  0  0  0  0  0  0  0  0  0
   59.7240   59.4060   27.1060 H   0  0  0  0  0  0  0  0  0  0  0  0
   68.2270   57.7120   32.4550 C   0  0  0  0  0  2  0  0  0  0  0  0
   68.1680   59.1650   32.6550 C   0  0  0  0  0  0  0  0  0  0  0  0
   67.7010   59.6260   33.8690 C   0  0  0  0  0  3  0  0  0  0  0  0
   67.6440   60.9960   34.0790 C   0  0  0  0  0  3  0  0  0  0  0  0
   68.0350   61.8240   33.1230 N   0  0  0  0  0  0  0  0  0  0  0  0
   68.4990   61.4150   31.9170 C   0  0  0  0  0  0  0  0  0  0  0  0
   68.5390   60.0610   31.7520 N   0  0  0  0  0  0  0  0  0  0  0  0
   68.9800   62.1060   30.7250 C   0  0  0  0  0  0  0  0  0  0  0  0
   70.2890   62.2850   30.4270 N   0  0  0  0  0  0  0  0  0  0  0  0
   70.7400   62.9130   29.3470 C   0  0  0  0  0  3  0  0  0  0  0  0
   69.8910   63.4300   28.4430 N   0  0  0  0  0  0  0  0  0  0  0  0
   68.5430   63.3200   28.6210 C   0  0  0  0  0  0  0  0  0  0  0  0
   67.6850   63.8490   27.6980 C   0  0  0  0  0  3  0  0  0  0  0  0
   66.3340   63.7400   27.8770 C   0  0  0  0  0  3  0  0  0  0  0  0
   65.8780   63.0820   29.0110 C   0  0  0  0  0  3  0  0  0  0  0  0
   66.7970   62.5720   29.9010 C   0  0  0  0  0  3  0  0  0  0  0  0
   68.1600   62.6570   29.7650 C   0  0  0  0  0  0  0  0  0  0  0  0
  2  7  1  0  0  0  0
  3  2  1  0  0  0  0
  4  3  2  0  0  0  0
  4  5  1  0  0  0  0
  5  6  2  0  0  0  0
  6  7  1  0  0  0  0
  6  1  1  0  0  0  0
  7  8  1  0  0  0  0
  9 10  1  0  0  0  0
  9  3  1  0  0  0  0
 11 10  2  0  0  0  0
 12 11  1  0  0  0  0
 13 14  1  1  0  0  0
 13 12  1  0  0  0  0
 13 18  1  0  0  0  0
 15 14  2  0  0  0  0
 15 16  1  0  0  0  0
 16 17  2  0  0  0  0
 17 18  1  0  0  0  0
 18  9  2  0  0  0  0
 19 12  1  0  0  0  0
 20 21  1  0  0  0  0
 20  1  1  0  0  0  0
 21 22  1  0  0  0  0
 22 23  2  0  0  0  0
 24 23  1  0  0  0  0
 25 24  2  0  0  0  0
 26 25  1  0  0  0  0
 26 21  2  0  0  0  0
 27 25  1  0  0  0  0
 28 27  1  0  0  0  0
 29 28  2  0  0  0  0
 30 31  2  0  0  0  0
 30 29  1  0  0  0  0
 31 36  1  0  0  0  0
 32 33  2  0  0  0  0
 32 31  1  0  0  0  0
 33 34  1  0  0  0  0
 34 35  2  0  0  0  0
 36 35  1  0  0  0  0
 36 27  2  0  0  0  0
M  END
>  <minimizedAffinity>
-7.27170944

$$$$

 OpenBabel03242509333D

 36 41  0  0  1  0  0  0  0  0999 V2000
   66.6000   57.8300   32.7060 C   0  0  0  0  0  2  0  0  0  0  0  0
   65.0440   57.1100   29.4490 C   0  0  0  0  0  2  0  0  0  0  0  0
   63.8000   57.6310   29.5430 C   0  0  0  0  0  0  0  0  0  0  0  0
   63.4920   58.2310   30.7400 C   0  0  0  0  0  3  0  0  0  0  0  0
   64.4180   58.2700   31.7270 N   0  0  0  0  0  0  0  0  0  0  0  0
   65.6180   57.7540   31.5980 C   0  0  0  0  0  0  0  0  0  0  0  0
   65.9600   57.1640   30.4620 N   0  0  0  0  0  0  0  0  0  0  0  0
   66.8970   56.7530   30.3450 H   0  0  0  0  0  0  0  0  0  0  0  0
   62.9220   57.5240   28.3770 C   0  0  0  0  0  0  0  0  0  0  0  0
   63.4800   56.7740   27.3880 N   0  0  0  0  0  0  0  0  0  0  0  0
   62.9160   56.6460   26.1770 C   0  0  0  0  0  3  0  0  0  0  0  0
   61.8090   57.4040   25.8260 N   0  0  0  0  0  0  0  0  0  0  0  0
   61.3410   58.2810   26.7490 C   0  0  2  0  0  3  0  0  0  0  0  0
   60.2910   59.1020   26.4700 C   0  0  0  0  0  3  0  0  0  0  0  0
   59.8550   60.0420   27.4130 C   0  0  0  0  0  3  0  0  0  0  0  0
   60.4950   60.1440   28.6450 C   0  0  0  0  0  3  0  0  0  0  0  0
   61.5610   59.3020   28.9170 C   0  0  0  0  0  3  0  0  0  0  0  0
   61.9440   58.4010   27.9610 C   0  0  0  0  0  0  0  0  0  0  0  0
   61.3610   57.3050   24.9030 H   0  0  0  0  0  0  0  0  0  0  0  0
   68.0320   57.8430   32.1640 C   0  0  0  0  0  2  0  0  0  0  0  0
   68.6080   59.1920   32.1380 C   0  0  0  0  0  0  0  0  0  0  0  0
   69.5760   59.4960   33.0760 C   0  0  0  0  0  3  0  0  0  0  0  0
   70.1350   60.7650   33.0630 C   0  0  0  0  0  3  0  0  0  0  0  0
   69.7380   61.6480   32.1610 N   0  0  0  0  0  0  0  0  0  0  0  0
   68.7930   61.3940   31.2240 C   0  0  0  0  0  0  0  0  0  0  0  0
   68.2670   60.1350   31.2720 N   0  0  0  0  0  0  0  0  0  0  0  0
   68.1930   62.1750   30.1470 C   0  0  0  0  0  0  0  0  0  0  0  0
   68.8920   62.7100   29.1170 N   0  0  0  0  0  0  0  0  0  0  0  0
   68.3590   63.4230   28.1310 C   0  0  0  0  0  3  0  0  0  0  0  0
   67.0390   63.6670   28.0900 N   0  0  0  0  0  0  0  0  0  0  0  0
   66.2170   63.1860   29.0680 C   0  0  0  0  0  0  0  0  0  0  0  0
   64.8750   63.4390   29.0210 C   0  0  0  0  0  3  0  0  0  0  0  0
   64.0520   62.9580   30.0000 C   0  0  0  0  0  3  0  0  0  0  0  0
   64.6240   62.2150   31.0240 C   0  0  0  0  0  3  0  0  0  0  0  0
   65.9840   61.9970   31.0110 C   0  0  0  0  0  3  0  0  0  0  0  0
   66.8500   62.4590   30.0510 C   0  0  0  0  0  0  0  0  0  0  0  0
  2  3  1  0  0  0  0
  2  7  1  0  0  0  0
  3  4  2  0  0  0  0
  4  5  1  0  0  0  0
  6  5  2  0  0  0  0
  6  1  1  0  0  0  0
  7  6  1  0  0  0  0
  8  7  1  0  0  0  0
  9  3  1  0  0  0  0
 10  9  1  0  0  0  0
 11 10  2  0  0  0  0
 12 11  1  0  0  0  0
 12 13  1  0  0  0  0
 13 14  1  6  0  0  0
 13 18  1  0  0  0  0
 14 15  2  0  0  0  0
 15 16  1  0  0  0  0
 16 17  2  0  0  0  0
 18  9  2  0  0  0  0
 18 17  1  0  0  0  0
 19 12  1  0  0  0  0
 20  1  1  0  0  0  0
 21 20  1  0  0  0  0
 21 22  1  0  0  0  0
 23 22  2  0  0  0  0
 24 23  1  0  0  0  0
 25 26  1  0  0  0  0
 25 24  2  0  0  0  0
 26 21  2  0  0  0  0
 27 25  1  0  0  0  0
 28 27  2  0  0  0  0
 29 28  1  0  0  0  0
 30 29  2  0  0  0  0
 30 31  1  0  0  0  0
 31 36  1  0  0  0  0
 32 31  2  0  0  0  0
 32 33  1  0  0  0  0
 33 34  2  0  0  0  0
 35 34  1  0  0  0  0
 36 27  1  0  0  0  0
 36 35  2  0  0  0  0
M  END
>  <minimizedAffinity>
-7.10697699

$$$$

 OpenBabel03242509333D

 36 41  0  0  0  0  0  0  0  0999 V2000
   67.2010   61.5600   30.7630 C   0  0  0  0  0  2  0  0  0  0  0  0
   68.8380   58.4500   31.8580 C   0  0  0  0  0  2  0  0  0  0  0  0
   69.1640   58.6730   33.1510 C   0  0  0  0  0  0  0  0  0  0  0  0
   68.8210   59.9060   33.6500 C   0  0  0  0  0  3  0  0  0  0  0  0
   68.1960   60.8020   32.8500 N   0  0  0  0  0  0  0  0  0  0  0  0
   67.8940   60.5490   31.5970 C   0  0  0  0  0  0  0  0  0  0  0  0
   68.2060   59.3730   31.0720 N   0  0  0  0  0  0  0  0  0  0  0  0
   67.9770   59.1580   30.0910 H   0  0  0  0  0  0  0  0  0  0  0  0
   69.8210   57.5940   33.8880 C   0  0  0  0  0  0  0  0  0  0  0  0
   71.0250   57.2660   33.3430 N   0  0  0  0  0  0  0  0  0  0  0  0
   71.7470   56.2180   33.7720 C   0  0  0  0  0  3  0  0  0  0  0  0
   71.2230   55.3240   34.6920 N   0  0  0  0  0  0  0  0  0  0  0  0
   69.9560   55.5470   35.1210 C   0  0  0  0  0  0  0  0  0  0  0  0
   69.3430   54.6910   35.9850 C   0  0  0  0  0  3  0  0  0  0  0  0
   68.0150   54.9040   36.3740 C   0  0  0  0  0  3  0  0  0  0  0  0
   67.3080   55.9970   35.8780 C   0  0  0  0  0  3  0  0  0  0  0  0
   67.9430   56.8620   35.0010 C   0  0  0  0  0  2  0  0  0  0  0  0
   69.2420   56.6080   34.6560 C   0  0  0  0  0  0  0  0  0  0  0  0
   71.7730   54.5240   35.0370 H   0  0  0  0  0  0  0  0  0  0  0  0
   65.6820   61.4460   30.9210 C   0  0  0  0  0  2  0  0  0  0  0  0
   65.2190   60.0540   30.8890 C   0  0  0  0  0  0  0  0  0  0  0  0
   64.9630   59.4350   32.0970 C   0  0  0  0  0  3  0  0  0  0  0  0
   64.5200   58.1210   32.0870 C   0  0  0  0  0  3  0  0  0  0  0  0
   64.3500   57.4950   30.9340 N   0  0  0  0  0  0  0  0  0  0  0  0
   64.5880   58.0620   29.7270 C   0  0  0  0  0  0  0  0  0  0  0  0
   65.0230   59.3540   29.7810 N   0  0  0  0  0  0  0  0  0  0  0  0
   64.4820   57.5990   28.3470 C   0  0  0  0  0  0  0  0  0  0  0  0
   65.4970   57.0250   27.6580 N   0  0  0  0  0  0  0  0  0  0  0  0
   65.4130   56.6000   26.4020 C   0  0  0  0  0  3  0  0  0  0  0  0
   64.2690   56.7150   25.7080 N   0  0  0  0  0  0  0  0  0  0  0  0
   63.1660   57.2760   26.2840 C   0  0  0  0  0  0  0  0  0  0  0  0
   62.0060   57.3910   25.5720 C   0  0  0  0  0  3  0  0  0  0  0  0
   60.9010   57.9530   26.1480 C   0  0  0  0  0  3  0  0  0  0  0  0
   61.0040   58.3930   27.4610 C   0  0  0  0  0  3  0  0  0  0  0  0
   62.2030   58.2470   28.1210 C   0  0  0  0  0  3  0  0  0  0  0  0
   63.3380   57.6900   27.5860 C   0  0  0  0  0  0  0  0  0  0  0  0
  1 20  1  0  0  0  0
  1  6  1  0  0  0  0
  2  3  1  0  0  0  0
  3  4  2  0  0  0  0
  3  9  1  0  0  0  0
  5  4  1  0  0  0  0
  6  5  2  0  0  0  0
  7  6  1  0  0  0  0
  7  2  1  0  0  0  0
  8  7  1  0  0  0  0
  9 18  2  0  0  0  0
 10 11  2  0  0  0  0
 10  9  1  0  0  0  0
 11 12  1  0  0  0  0
 12 19  1  0  0  0  0
 12 13  1  0  0  0  0
 13 14  2  0  0  0  0
 14 15  1  0  0  0  0
 16 15  2  0  0  0  0
 17 16  1  0  0  0  0
 18 17  1  0  0  0  0
 18 13  1  0  0  0  0
 21 20  1  0  0  0  0
 21 22  1  0  0  0  0
 23 22  2  0  0  0  0
 24 23  1  0  0  0  0
 25 26  1  0  0  0  0
 25 24  2  0  0  0  0
 26 21  2  0  0  0  0
 27 25  1  0  0  0  0
 28 27  1  0  0  0  0
 29 28  2  0  0  0  0
 30 31  2  0  0  0  0
 30 29  1  0  0  0  0
 31 36  1  0  0  0  0
 32 33  2  0  0  0  0
 32 31  1  0  0  0  0
 33 34  1  0  0  0  0
 34 35  2  0  0  0  0
 36 35  1  0  0  0  0
 36 27  2  0  0  0  0
M  END
>  <minimizedAffinity>
-6.56479883

$$$$

 OpenBabel03242509333D

 36 41  0  0  0  0  0  0  0  0999 V2000
   60.7880   61.0690   28.0100 C   0  0  0  0  0  2  0  0  0  0  0  0
   62.6590   63.3850   30.1740 C   0  0  0  0  0  2  0  0  0  0  0  0
   61.7460   64.3050   30.5590 C   0  0  0  0  0  0  0  0  0  0  0  0
   60.4760   64.1290   30.0660 C   0  0  0  0  0  3  0  0  0  0  0  0
   60.2140   63.0800   29.2510 N   0  0  0  0  0  0  0  0  0  0  0  0
   61.1280   62.2050   28.8990 C   0  0  0  0  0  0  0  0  0  0  0  0
   62.3670   62.3360   29.3490 N   0  0  0  0  0  0  0  0  0  0  0  0
   63.0960   61.6590   29.0820 H   0  0  0  0  0  0  0  0  0  0  0  0
   62.1840   65.3700   31.4620 C   0  0  0  0  0  0  0  0  0  0  0  0
   63.2190   66.0830   30.9410 N   0  0  0  0  0  0  0  0  0  0  0  0
   63.8700   67.0240   31.6440 C   0  0  0  0  0  3  0  0  0  0  0  0
   63.6150   67.2040   32.9950 N   0  0  0  0  0  0  0  0  0  0  0  0
   62.7000   66.3830   33.5670 C   0  0  0  0  0  0  0  0  0  0  0  0
   62.4250   66.4540   34.9000 C   0  0  0  0  0  3  0  0  0  0  0  0
   61.5200   65.5620   35.4860 C   0  0  0  0  0  3  0  0  0  0  0  0
   60.8920   64.5910   34.7100 C   0  0  0  0  0  3  0  0  0  0  0  0
   61.1780   64.5300   33.3560 C   0  0  0  0  0  2  0  0  0  0  0  0
   62.0690   65.4270   32.8330 C   0  0  0  0  0  0  0  0  0  0  0  0
   64.1000   67.9310   33.5410 H   0  0  0  0  0  0  0  0  0  0  0  0
   60.5800   59.7870   28.8210 C   0  0  0  0  0  2  0  0  0  0  0  0
   61.7950   58.9670   28.8930 C   0  0  0  0  0  0  0  0  0  0  0  0
   62.0070   58.0440   27.8880 C   0  0  0  0  0  3  0  0  0  0  0  0
   63.1530   57.2640   27.9360 C   0  0  0  0  0  3  0  0  0  0  0  0
   64.0110   57.4190   28.9320 N   0  0  0  0  0  0  0  0  0  0  0  0
   63.8440   58.3110   29.9380 C   0  0  0  0  0  0  0  0  0  0  0  0
   62.7040   59.0570   29.8530 N   0  0  0  0  0  0  0  0  0  0  0  0
   64.6210   58.6670   31.1200 C   0  0  0  0  0  0  0  0  0  0  0  0
   64.6620   57.9280   32.2540 N   0  0  0  0  0  0  0  0  0  0  0  0
   65.3640   58.2420   33.3370 C   0  0  0  0  0  3  0  0  0  0  0  0
   66.1110   59.3570   33.3770 N   0  0  0  0  0  0  0  0  0  0  0  0
   66.1600   60.1940   32.3000 C   0  0  0  0  0  0  0  0  0  0  0  0
   66.9210   61.3280   32.3480 C   0  0  0  0  0  3  0  0  0  0  0  0
   66.9690   62.1670   31.2700 C   0  0  0  0  0  3  0  0  0  0  0  0
   66.2290   61.8260   30.1460 C   0  0  0  0  0  3  0  0  0  0  0  0
   65.4830   60.6680   30.1640 C   0  0  0  0  0  3  0  0  0  0  0  0
   65.4030   59.7960   31.2210 C   0  0  0  0  0  0  0  0  0  0  0  0
  1 20  1  0  0  0  0
  1  6  1  0  0  0  0
  2  3  1  0  0  0  0
  3  9  1  0  0  0  0
  4  3  2  0  0  0  0
  5  4  1  0  0  0  0
  6  5  2  0  0  0  0
  6  7  1  0  0  0  0
  7  2  1  0  0  0  0
  8  7  1  0  0  0  0
  9 18  2  0  0  0  0
 10  9  1  0  0  0  0
 10 11  2  0  0  0  0
 11 12  1  0  0  0  0
 12 19  1  0  0  0  0
 12 13  1  0  0  0  0
 13 14  2  0  0  0  0
 14 15  1  0  0  0  0
 16 15  2  0  0  0  0
 17 16  1  0  0  0  0
 18 17  1  0  0  0  0
 18 13  1  0  0  0  0
 20 21  1  0  0  0  0
 21 26  2  0  0  0  0
 22 23  2  0  0  0  0
 22 21  1  0  0  0  0
 23 24  1  0  0  0  0
 24 25  2  0  0  0  0
 25 27  1  0  0  0  0
 26 25  1  0  0  0  0
 27 36  2  0  0  0  0
 27 28  1  0  0  0  0
 28 29  2  0  0  0  0
 29 30  1  0  0  0  0
 31 32  1  0  0  0  0
 31 30  2  0  0  0  0
 33 32  2  0  0  0  0
 34 35  2  0  0  0  0
 34 33  1  0  0  0  0
 35 36  1  0  0  0  0
 36 31  1  0  0  0  0
M  END
>  <minimizedAffinity>
-6.42652273

$$$$

 OpenBabel03242509333D

 36 41  0  0  1  0  0  0  0  0999 V2000
   69.5530   62.6000   30.8440 C   0  0  0  0  0  2  0  0  0  0  0  0
   69.5640   59.0130   31.6710 C   0  0  0  0  0  2  0  0  0  0  0  0
   70.1530   58.9450   32.8850 C   0  0  0  0  0  0  0  0  0  0  0  0
   70.5540   60.1440   33.4230 C   0  0  0  0  0  3  0  0  0  0  0  0
   70.3450   61.2900   32.7340 N   0  0  0  0  0  0  0  0  0  0  0  0
   69.7670   61.3170   31.5550 C   0  0  0  0  0  0  0  0  0  0  0  0
   69.3650   60.1850   30.9960 N   0  0  0  0  0  0  0  0  0  0  0  0
   68.9100   60.1890   30.0720 H   0  0  0  0  0  0  0  0  0  0  0  0
   70.2880   57.6280   33.5090 C   0  0  0  0  0  0  0  0  0  0  0  0
   71.2710   56.8890   32.9260 N   0  0  0  0  0  0  0  0  0  0  0  0
   71.4880   55.6020   33.2450 C   0  0  0  0  0  3  0  0  0  0  0  0
   70.6150   54.9200   34.0770 N   0  0  0  0  0  0  0  0  0  0  0  0
   69.5350   55.6020   34.5340 C   0  0  2  0  0  3  0  0  0  0  0  0
   68.5980   54.9950   35.3150 C   0  0  0  0  0  3  0  0  0  0  0  0
   67.4600   55.6970   35.7320 C   0  0  0  0  0  3  0  0  0  0  0  0
   67.2770   57.0230   35.3510 C   0  0  0  0  0  3  0  0  0  0  0  0
   68.2380   57.6300   34.5580 C   0  0  0  0  0  3  0  0  0  0  0  0
   69.3310   56.8990   34.1800 C   0  0  0  0  0  0  0  0  0  0  0  0
   70.7780   53.9370   34.3380 H   0  0  0  0  0  0  0  0  0  0  0  0
   68.3360   63.3390   31.4080 C   0  0  0  0  0  2  0  0  0  0  0  0
   67.2540   63.4680   30.4250 C   0  0  0  0  0  0  0  0  0  0  0  0
   67.5420   63.1610   29.1100 C   0  0  0  0  0  3  0  0  0  0  0  0
   66.5300   63.2730   28.1680 C   0  0  0  0  0  3  0  0  0  0  0  0
   65.3230   63.6640   28.5440 N   0  0  0  0  0  0  0  0  0  0  0  0
   64.9970   63.9760   29.8210 C   0  0  0  0  0  0  0  0  0  0  0  0
   66.0200   63.8530   30.7160 N   0  0  0  0  0  0  0  0  0  0  0  0
   63.7720   64.4200   30.4780 C   0  0  0  0  0  0  0  0  0  0  0  0
   63.7270   65.3800   31.4330 N   0  0  0  0  0  0  0  0  0  0  0  0
   62.6200   65.7930   32.0390 C   0  0  0  0  0  3  0  0  0  0  0  0
   61.4240   65.2640   31.7290 N   0  0  0  0  0  0  0  0  0  0  0  0
   61.3270   64.2870   30.7820 C   0  0  0  0  0  0  0  0  0  0  0  0
   60.1070   63.7520   30.4730 C   0  0  0  0  0  3  0  0  0  0  0  0
   60.0090   62.7720   29.5260 C   0  0  0  0  0  3  0  0  0  0  0  0
   61.1750   62.3510   28.9010 C   0  0  0  0  0  3  0  0  0  0  0  0
   62.3710   62.9310   29.2600 C   0  0  0  0  0  3  0  0  0  0  0  0
   62.5200   63.9170   30.2050 C   0  0  0  0  0  0  0  0  0  0  0  0
  1 20  1  0  0  0  0
  1  6  1  0  0  0  0
  2  3  1  0  0  0  0
  3  4  2  0  0  0  0
  3  9  1  0  0  0  0
  5  4  1  0  0  0  0
  6  5  2  0  0  0  0
  7  6  1  0  0  0  0
  7  2  1  0  0  0  0
  8  7  1  0  0  0  0
  9 18  2  0  0  0  0
 10 11  2  0  0  0  0
 10  9  1  0  0  0  0
 11 12  1  0  0  0  0
 12 19  1  0  0  0  0
 12 13  1  0  0  0  0
 13 14  1  6  0  0  0
 14 15  2  0  0  0  0
 16 15  1  0  0  0  0
 17 16  2  0  0  0  0
 18 13  1  0  0  0  0
 18 17  1  0  0  0  0
 21 26  2  0  0  0  0
 21 20  1  0  0  0  0
 22 21  1  0  0  0  0
 23 24  1  0  0  0  0
 23 22  2  0  0  0  0
 24 25  2  0  0  0  0
 25 27  1  0  0  0  0
 25 26  1  0  0  0  0
 27 28  1  0  0  0  0
 28 29  2  0  0  0  0
 30 29  1  0  0  0  0
 31 30  2  0  0  0  0
 32 31  1  0  0  0  0
 33 32  2  0  0  0  0
 34 35  2  0  0  0  0
 34 33  1  0  0  0  0
 35 36  1  0  0  0  0
 36 27  2  0  0  0  0
 36 31  1  0  0  0  0
M  END
>  <minimizedAffinity>
-6.30538225

$$$$

 OpenBabel03242509333D

 36 41  0  0  0  0  0  0  0  0999 V2000
   65.0090   58.5540   30.5370 C   0  0  0  0  0  2  0  0  0  0  0  0
   67.0790   61.5940   30.3810 C   0  0  0  0  0  2  0  0  0  0  0  0
   66.1890   62.6110   30.3630 C   0  0  0  0  0  0  0  0  0  0  0  0
   64.8650   62.2490   30.4010 C   0  0  0  0  0  3  0  0  0  0  0  0
   64.5310   60.9380   30.4540 N   0  0  0  0  0  0  0  0  0  0  0  0
   65.4250   59.9750   30.4710 C   0  0  0  0  0  0  0  0  0  0  0  0
   66.7140   60.2780   30.4350 N   0  0  0  0  0  0  0  0  0  0  0  0
   67.4280   59.5350   30.4470 H   0  0  0  0  0  0  0  0  0  0  0  0
   66.7120   63.9780   30.3250 C   0  0  0  0  0  0  0  0  0  0  0  0
   65.7830   64.8880   30.7260 N   0  0  0  0  0  0  0  0  0  0  0  0
   65.9940   66.2120   30.6490 C   0  0  0  0  0  3  0  0  0  0  0  0
   67.1160   66.7160   30.0100 N   0  0  0  0  0  0  0  0  0  0  0  0
   67.9700   65.8190   29.4580 C   0  0  0  0  0  0  0  0  0  0  0  0
   69.0700   66.2270   28.7660 C   0  0  0  0  0  3  0  0  0  0  0  0
   69.9120   65.2900   28.1550 C   0  0  0  0  0  3  0  0  0  0  0  0
   69.6300   63.9300   28.2490 C   0  0  0  0  0  3  0  0  0  0  0  0
   68.5080   63.5270   28.9570 C   0  0  0  0  0  2  0  0  0  0  0  0
   67.7210   64.4840   29.5370 C   0  0  0  0  0  0  0  0  0  0  0  0
   67.2930   67.7300   29.9550 H   0  0  0  0  0  0  0  0  0  0  0  0
   64.2890   58.2590   31.8570 C   0  0  0  0  0  2  0  0  0  0  0  0
   65.1900   58.3300   33.0130 C   0  0  0  0  0  0  0  0  0  0  0  0
   64.6220   58.3020   34.2720 C   0  0  0  0  0  3  0  0  0  0  0  0
   65.4580   58.3630   35.3770 C   0  0  0  0  0  3  0  0  0  0  0  0
   66.7680   58.4440   35.2050 N   0  0  0  0  0  0  0  0  0  0  0  0
   67.3680   58.4760   33.9910 C   0  0  0  0  0  0  0  0  0  0  0  0
   66.5100   58.4140   32.9310 N   0  0  0  0  0  0  0  0  0  0  0  0
   68.7540   58.5600   33.5430 C   0  0  0  0  0  0  0  0  0  0  0  0
   69.3510   59.7030   33.1300 N   0  0  0  0  0  0  0  0  0  0  0  0
   70.6110   59.7930   32.7200 C   0  0  0  0  0  3  0  0  0  0  0  0
   71.4070   58.7120   32.6900 N   0  0  0  0  0  0  0  0  0  0  0  0
   70.9310   57.4940   33.0800 C   0  0  0  0  0  0  0  0  0  0  0  0
   71.7460   56.3970   33.0450 C   0  0  0  0  0  3  0  0  0  0  0  0
   71.2690   55.1770   33.4350 C   0  0  0  0  0  3  0  0  0  0  0  0
   69.9500   55.0990   33.8610 C   0  0  0  0  0  3  0  0  0  0  0  0
   69.1830   56.2420   33.8710 C   0  0  0  0  0  3  0  0  0  0  0  0
   69.6170   57.4880   33.4890 C   0  0  0  0  0  0  0  0  0  0  0  0
  1 20  1  0  0  0  0
  2  7  1  0  0  0  0
  3  2  1  0  0  0  0
  3  4  2  0  0  0  0
  4  5  1  0  0  0  0
  5  6  2  0  0  0  0
  6  1  1  0  0  0  0
  7  8  1  0  0  0  0
  7  6  1  0  0  0  0
  9  3  1  0  0  0  0
  9 10  1  0  0  0  0
 11 10  2  0  0  0  0
 12 11  1  0  0  0  0
 13 18  1  0  0  0  0
 13 12  1  0  0  0  0
 14 13  2  0  0  0  0
 15 16  2  0  0  0  0
 15 14  1  0  0  0  0
 16 17  1  0  0  0  0
 17 18  1  0  0  0  0
 18  9  2  0  0  0  0
 19 12  1  0  0  0  0
 20 21  1  0  0  0  0
 21 22  1  0  0  0  0
 22 23  2  0  0  0  0
 24 23  1  0  0  0  0
 25 24  2  0  0  0  0
 26 21  2  0  0  0  0
 26 25  1  0  0  0  0
 27 25  1  0  0  0  0
 28 27  2  0  0  0  0
 29 28  1  0  0  0  0
 30 29  2  0  0  0  0
 30 31  1  0  0  0  0
 31 36  1  0  0  0  0
 32 31  2  0  0  0  0
 32 33  1  0  0  0  0
 33 34  2  0  0  0  0
 34 35  1  0  0  0  0
 36 27  1  0  0  0  0
 36 35  2  0  0  0  0
M  END
>  <minimizedAffinity>
-6.22253656

$$$$
