
 OpenBabel03242509323D

 35 40  0  0  1  0  0  0  0  0999 V2000
   62.5660   56.9820   28.7230 C   0  0  0  0  0  2  0  0  0  0  0  0
   62.7290   57.1930   27.3980 C   0  0  0  0  0  0  0  0  0  0  0  0
   64.0250   57.3610   26.9750 C   0  0  0  0  0  3  0  0  0  0  0  0
   65.0320   57.3060   27.8770 N   0  0  0  0  0  0  0  0  0  0  0  0
   64.8340   57.0990   29.1580 C   0  0  0  0  0  0  0  0  0  0  0  0
   63.6100   56.9340   29.6040 N   0  0  0  0  0  0  0  0  0  0  0  0
   63.4390   56.7720   30.6060 H   0  0  0  0  0  0  0  0  0  0  0  0
   61.5310   57.2060   26.5530 C   0  0  0  0  0  0  0  0  0  0  0  0
   61.4890   56.1330   25.7170 N   0  0  0  0  0  0  0  0  0  0  0  0
   60.5540   56.0010   24.7630 C   0  0  0  0  0  3  0  0  0  0  0  0
   59.6750   57.0370   24.4840 N   0  0  0  0  0  0  0  0  0  0  0  0
   59.8150   58.1800   25.2030 C   0  0  2  0  0  3  0  0  0  0  0  0
   59.0300   59.2660   24.9620 C   0  0  0  0  0  3  0  0  0  0  0  0
   59.2220   60.4540   25.6730 C   0  0  0  0  0  3  0  0  0  0  0  0
   60.2210   60.5400   26.6350 C   0  0  0  0  0  3  0  0  0  0  0  0
   61.0190   59.4250   26.8740 C   0  0  0  0  0  3  0  0  0  0  0  0
   60.7830   58.2890   26.1510 C   0  0  0  0  0  0  0  0  0  0  0  0
   58.9460   56.9440   23.7610 H   0  0  0  0  0  0  0  0  0  0  0  0
   65.9870   57.0380   30.0880 C   0  0  0  0  0  2  0  0  0  0  0  0
   65.6690   57.7040   31.4210 C   0  0  0  0  0  2  0  0  0  0  0  0
   66.3250   59.0120   31.5590 C   0  0  0  0  0  0  0  0  0  0  0  0
   67.1810   59.1740   32.6520 C   0  0  0  0  0  3  0  0  0  0  0  0
   67.8110   60.4020   32.8030 C   0  0  0  0  0  3  0  0  0  0  0  0
   67.5850   61.3780   31.9120 N   0  0  0  0  0  0  0  0  0  0  0  0
   66.7690   61.2330   30.8640 C   0  0  0  0  0  0  0  0  0  0  0  0
   66.1490   60.0280   30.7150 N   0  0  0  0  0  0  0  0  0  0  0  0
   66.5750   62.3130   29.9580 N   0  0  0  0  0  0  0  0  0  0  0  0
   65.3300   62.7530   29.6320 C   0  0  0  0  0  3  0  0  0  0  0  0
   65.4090   63.7630   28.7740 N   0  0  0  0  0  0  0  0  0  0  0  0
   66.6870   64.0080   28.5180 C   0  0  0  0  0  0  0  0  0  0  0  0
   67.4220   64.8980   27.7360 C   0  0  0  0  0  3  0  0  0  0  0  0
   68.7700   64.8280   27.7440 N   0  0  0  0  0  0  0  0  0  0  0  0
   69.4580   63.9340   28.4750 C   0  0  0  0  0  3  0  0  0  0  0  0
   68.7640   63.0490   29.2500 N   0  0  0  0  0  0  0  0  0  0  0  0
   67.4140   63.0990   29.2600 C   0  0  0  0  0  0  0  0  0  0  0  0
  1  6  1  0  0  0  0
  2  1  1  0  0  0  0
  3  2  2  0  0  0  0
  3  4  1  0  0  0  0
  4  5  2  0  0  0  0
  5  6  1  0  0  0  0
  5 19  1  0  0  0  0
  6  7  1  0  0  0  0
  8  2  1  0  0  0  0
  9  8  1  0  0  0  0
 10  9  2  0  0  0  0
 11 10  1  0  0  0  0
 11 12  1  0  0  0  0
 12 13  1  6  0  0  0
 12 17  1  0  0  0  0
 13 14  2  0  0  0  0
 14 15  1  0  0  0  0
 15 16  2  0  0  0  0
 17  8  2  0  0  0  0
 17 16  1  0  0  0  0
 18 11  1  0  0  0  0
 19 20  1  0  0  0  0
 20 21  1  0  0  0  0
 21 22  1  0  0  0  0
 22 23  2  0  0  0  0
 24 23  1  0  0  0  0
 25 24  2  0  0  0  0
 26 25  1  0  0  0  0
 26 21  2  0  0  0  0
 27 25  1  0  0  0  0
 28 27  1  0  0  0  0
 29 28  2  0  0  0  0
 30 29  1  0  0  0  0
 30 35  1  0  0  0  0
 31 32  1  0  0  0  0
 31 30  2  0  0  0  0
 32 33  2  0  0  0  0
 33 34  1  0  0  0  0
 34 35  2  0  0  0  0
 35 27  1  0  0  0  0
M  END
>  <minimizedAffinity>
-7.69543314

$$$$

 OpenBabel03242509323D

 35 40  0  0  1  0  0  0  0  0999 V2000
   65.1110   57.4370   29.3140 C   0  0  0  0  0  2  0  0  0  0  0  0
   63.9830   57.9870   29.8150 C   0  0  0  0  0  0  0  0  0  0  0  0
   63.9360   58.1110   31.1820 C   0  0  0  0  0  3  0  0  0  0  0  0
   64.9840   57.6910   31.9260 N   0  0  0  0  0  0  0  0  0  0  0  0
   66.0650   57.1600   31.4030 C   0  0  0  0  0  0  0  0  0  0  0  0
   66.1510   57.0230   30.1000 N   0  0  0  0  0  0  0  0  0  0  0  0
   66.9920   56.6080   29.6750 H   0  0  0  0  0  0  0  0  0  0  0  0
   62.9470   58.4070   28.8680 C   0  0  0  0  0  0  0  0  0  0  0  0
   62.1420   59.3710   29.3910 N   0  0  0  0  0  0  0  0  0  0  0  0
   61.0460   59.8170   28.7570 C   0  0  0  0  0  3  0  0  0  0  0  0
   60.5950   59.1960   27.6000 N   0  0  0  0  0  0  0  0  0  0  0  0
   61.3000   58.1230   27.1570 C   0  0  2  0  0  3  0  0  0  0  0  0
   60.9020   57.4220   26.0600 C   0  0  0  0  0  3  0  0  0  0  0  0
   61.6060   56.2870   25.6480 C   0  0  0  0  0  3  0  0  0  0  0  0
   62.7220   55.8600   26.3570 C   0  0  0  0  0  3  0  0  0  0  0  0
   63.1210   56.5830   27.4770 C   0  0  0  0  0  3  0  0  0  0  0  0
   62.3960   57.6870   27.8320 C   0  0  0  0  0  0  0  0  0  0  0  0
   59.7610   59.5340   27.0990 H   0  0  0  0  0  0  0  0  0  0  0  0
   67.1830   56.7340   32.2790 C   0  0  0  0  0  2  0  0  0  0  0  0
   67.6400   57.8610   33.1950 C   0  0  0  0  0  2  0  0  0  0  0  0
   68.2780   58.9580   32.4530 C   0  0  0  0  0  0  0  0  0  0  0  0
   69.5850   58.7390   32.0080 C   0  0  0  0  0  3  0  0  0  0  0  0
   70.2080   59.7620   31.3060 C   0  0  0  0  0  3  0  0  0  0  0  0
   69.5500   60.9070   31.0770 N   0  0  0  0  0  0  0  0  0  0  0  0
   68.3000   61.1260   31.4970 C   0  0  0  0  0  0  0  0  0  0  0  0
   67.6880   60.1230   32.1880 N   0  0  0  0  0  0  0  0  0  0  0  0
   67.6620   62.3660   31.2190 N   0  0  0  0  0  0  0  0  0  0  0  0
   67.0870   63.1070   32.2030 C   0  0  0  0  0  3  0  0  0  0  0  0
   66.5610   64.2160   31.6970 N   0  0  0  0  0  0  0  0  0  0  0  0
   66.7710   64.2310   30.3890 C   0  0  0  0  0  0  0  0  0  0  0  0
   66.4850   65.0740   29.3150 C   0  0  0  0  0  3  0  0  0  0  0  0
   66.8850   64.7240   28.0740 N   0  0  0  0  0  0  0  0  0  0  0  0
   67.5560   63.5900   27.8080 C   0  0  0  0  0  3  0  0  0  0  0  0
   67.8500   62.7450   28.8400 N   0  0  0  0  0  0  0  0  0  0  0  0
   67.4600   63.0720   30.0910 C   0  0  0  0  0  0  0  0  0  0  0  0
  1  2  1  0  0  0  0
  1  6  1  0  0  0  0
  2  3  2  0  0  0  0
  3  4  1  0  0  0  0
  5  4  2  0  0  0  0
  5 19  1  0  0  0  0
  6  5  1  0  0  0  0
  7  6  1  0  0  0  0
  8  9  1  0  0  0  0
  8  2  1  0  0  0  0
 10  9  2  0  0  0  0
 11 10  1  0  0  0  0
 12 13  1  1  0  0  0
 12 11  1  0  0  0  0
 12 17  1  0  0  0  0
 14 13  2  0  0  0  0
 14 15  1  0  0  0  0
 15 16  2  0  0  0  0
 16 17  1  0  0  0  0
 17  8  2  0  0  0  0
 18 11  1  0  0  0  0
 19 20  1  0  0  0  0
 21 20  1  0  0  0  0
 22 21  1  0  0  0  0
 23 22  2  0  0  0  0
 24 23  1  0  0  0  0
 24 25  2  0  0  0  0
 25 26  1  0  0  0  0
 26 21  2  0  0  0  0
 27 25  1  0  0  0  0
 27 28  1  0  0  0  0
 29 28  2  0  0  0  0
 30 29  1  0  0  0  0
 31 30  2  0  0  0  0
 32 31  1  0  0  0  0
 33 32  2  0  0  0  0
 33 34  1  0  0  0  0
 34 35  2  0  0  0  0
 35 30  1  0  0  0  0
 35 27  1  0  0  0  0
M  END
>  <minimizedAffinity>
-7.50174952

$$$$

 OpenBabel03242509323D

 35 40  0  0  1  0  0  0  0  0999 V2000
   64.0190   57.3060   26.7270 C   0  0  0  0  0  2  0  0  0  0  0  0
   62.7460   57.5840   27.0850 C   0  0  0  0  0  0  0  0  0  0  0  0
   62.5060   57.6450   28.4360 C   0  0  0  0  0  3  0  0  0  0  0  0
   63.5210   57.4330   29.3040 N   0  0  0  0  0  0  0  0  0  0  0  0
   64.7470   57.1640   28.9180 C   0  0  0  0  0  0  0  0  0  0  0  0
   65.0200   57.0960   27.6360 N   0  0  0  0  0  0  0  0  0  0  0  0
   65.9760   56.8850   27.3180 H   0  0  0  0  0  0  0  0  0  0  0  0
   61.7670   57.8070   26.0180 C   0  0  0  0  0  0  0  0  0  0  0  0
   61.6210   59.1290   25.7310 N   0  0  0  0  0  0  0  0  0  0  0  0
   60.6870   59.5820   24.8790 C   0  0  0  0  0  3  0  0  0  0  0  0
   59.7190   58.7280   24.3700 N   0  0  0  0  0  0  0  0  0  0  0  0
   59.7550   57.4340   24.7810 C   0  0  2  0  0  3  0  0  0  0  0  0
   58.8150   56.5380   24.3720 C   0  0  0  0  0  3  0  0  0  0  0  0
   58.8320   55.2240   24.8470 C   0  0  0  0  0  3  0  0  0  0  0  0
   59.8110   54.8160   25.7440 C   0  0  0  0  0  3  0  0  0  0  0  0
   60.7680   55.7390   26.1560 C   0  0  0  0  0  3  0  0  0  0  0  0
   60.7040   57.0110   25.6570 C   0  0  0  0  0  0  0  0  0  0  0  0
   59.0030   59.0610   23.7080 H   0  0  0  0  0  0  0  0  0  0  0  0
   65.8150   56.9550   29.9260 C   0  0  0  0  0  2  0  0  0  0  0  0
   65.5070   57.6810   31.2290 C   0  0  0  0  0  2  0  0  0  0  0  0
   66.2890   58.9170   31.3750 C   0  0  0  0  0  0  0  0  0  0  0  0
   67.3170   58.9030   32.3220 C   0  0  0  0  0  3  0  0  0  0  0  0
   68.0680   60.0600   32.4780 C   0  0  0  0  0  3  0  0  0  0  0  0
   67.7920   61.1370   31.7280 N   0  0  0  0  0  0  0  0  0  0  0  0
   66.8120   61.1600   30.8200 C   0  0  0  0  0  0  0  0  0  0  0  0
   66.0730   60.0250   30.6670 N   0  0  0  0  0  0  0  0  0  0  0  0
   66.5750   62.3390   30.0600 N   0  0  0  0  0  0  0  0  0  0  0  0
   65.3380   62.8990   29.9840 C   0  0  0  0  0  3  0  0  0  0  0  0
   65.3700   63.9840   29.2200 N   0  0  0  0  0  0  0  0  0  0  0  0
   66.6080   64.1620   28.7800 C   0  0  0  0  0  0  0  0  0  0  0  0
   67.2870   65.0720   27.9710 C   0  0  0  0  0  3  0  0  0  0  0  0
   68.6080   64.9040   27.7500 N   0  0  0  0  0  0  0  0  0  0  0  0
   69.3210   63.8920   28.2740 C   0  0  0  0  0  3  0  0  0  0  0  0
   68.6820   62.9840   29.0700 N   0  0  0  0  0  0  0  0  0  0  0  0
   67.3600   63.1300   29.3070 C   0  0  0  0  0  0  0  0  0  0  0  0
  1  2  1  0  0  0  0
  1  6  1  0  0  0  0
  2  3  2  0  0  0  0
  3  4  1  0  0  0  0
  5  4  2  0  0  0  0
  5 19  1  0  0  0  0
  6  5  1  0  0  0  0
  7  6  1  0  0  0  0
  8  2  1  0  0  0  0
  9  8  1  0  0  0  0
 10  9  2  0  0  0  0
 11 12  1  0  0  0  0
 11 10  1  0  0  0  0
 12 13  1  1  0  0  0
 12 17  1  0  0  0  0
 13 14  2  0  0  0  0
 14 15  1  0  0  0  0
 15 16  2  0  0  0  0
 17  8  2  0  0  0  0
 17 16  1  0  0  0  0
 18 11  1  0  0  0  0
 19 20  1  0  0  0  0
 20 21  1  0  0  0  0
 21 22  1  0  0  0  0
 22 23  2  0  0  0  0
 24 23  1  0  0  0  0
 25 24  2  0  0  0  0
 26 25  1  0  0  0  0
 26 21  2  0  0  0  0
 27 25  1  0  0  0  0
 28 27  1  0  0  0  0
 29 28  2  0  0  0  0
 30 29  1  0  0  0  0
 30 35  1  0  0  0  0
 31 30  2  0  0  0  0
 32 31  1  0  0  0  0
 32 33  2  0  0  0  0
 33 34  1  0  0  0  0
 34 35  2  0  0  0  0
 35 27  1  0  0  0  0
M  END
>  <minimizedAffinity>
-7.29513264

$$$$

 OpenBabel03242509323D

 35 40  0  0  1  0  0  0  0  0999 V2000
   64.7770   56.9580   28.2400 C   0  0  0  0  0  2  0  0  0  0  0  0
   63.5190   57.2790   28.6140 C   0  0  0  0  0  0  0  0  0  0  0  0
   63.3670   57.6760   29.9200 C   0  0  0  0  0  3  0  0  0  0  0  0
   64.4480   57.7230   30.7320 N   0  0  0  0  0  0  0  0  0  0  0  0
   65.6570   57.4030   30.3330 C   0  0  0  0  0  0  0  0  0  0  0  0
   65.8460   57.0170   29.0920 N   0  0  0  0  0  0  0  0  0  0  0  0
   66.7880   56.7610   28.7640 H   0  0  0  0  0  0  0  0  0  0  0  0
   62.4610   57.1920   27.6040 C   0  0  0  0  0  0  0  0  0  0  0  0
   62.7430   56.2600   26.6530 N   0  0  0  0  0  0  0  0  0  0  0  0
   61.9820   56.0960   25.5590 C   0  0  0  0  0  3  0  0  0  0  0  0
   60.9540   56.9820   25.2710 N   0  0  0  0  0  0  0  0  0  0  0  0
   60.7680   58.0170   26.1300 C   0  0  2  0  0  3  0  0  0  0  0  0
   59.8160   58.9630   25.9000 C   0  0  0  0  0  3  0  0  0  0  0  0
   59.6730   60.0520   26.7640 C   0  0  0  0  0  3  0  0  0  0  0  0
   60.5030   60.1820   27.8700 C   0  0  0  0  0  3  0  0  0  0  0  0
   61.4730   59.2100   28.0980 C   0  0  0  0  0  3  0  0  0  0  0  0
   61.5660   58.1650   27.2210 C   0  0  0  0  0  0  0  0  0  0  0  0
   60.3580   56.8610   24.4400 H   0  0  0  0  0  0  0  0  0  0  0  0
   66.7990   57.4900   31.2750 C   0  0  0  0  0  2  0  0  0  0  0  0
   66.4510   58.3220   32.5020 C   0  0  0  0  0  2  0  0  0  0  0  0
   66.9360   59.7050   32.3930 C   0  0  0  0  0  0  0  0  0  0  0  0
   67.7140   60.1850   33.4510 C   0  0  0  0  0  3  0  0  0  0  0  0
   68.1820   61.4890   33.3680 C   0  0  0  0  0  3  0  0  0  0  0  0
   67.8820   62.2360   32.2960 N   0  0  0  0  0  0  0  0  0  0  0  0
   67.1410   61.7870   31.2790 C   0  0  0  0  0  0  0  0  0  0  0  0
   66.6790   60.5070   31.3590 N   0  0  0  0  0  0  0  0  0  0  0  0
   66.8610   62.6350   30.1720 N   0  0  0  0  0  0  0  0  0  0  0  0
   65.5900   62.8400   29.7360 C   0  0  0  0  0  3  0  0  0  0  0  0
   65.5870   63.6660   28.6970 N   0  0  0  0  0  0  0  0  0  0  0  0
   66.8360   64.0180   28.4260 C   0  0  0  0  0  0  0  0  0  0  0  0
   67.4950   64.8250   27.4990 C   0  0  0  0  0  3  0  0  0  0  0  0
   68.8390   64.9310   27.5520 N   0  0  0  0  0  0  0  0  0  0  0  0
   69.5950   64.2920   28.4620 C   0  0  0  0  0  3  0  0  0  0  0  0
   68.9770   63.4930   29.3820 N   0  0  0  0  0  0  0  0  0  0  0  0
   67.6320   63.3710   29.3510 C   0  0  0  0  0  0  0  0  0  0  0  0
  1  2  1  0  0  0  0
  1  6  1  0  0  0  0
  2  3  2  0  0  0  0
  3  4  1  0  0  0  0
  5  4  2  0  0  0  0
  5 19  1  0  0  0  0
  6  5  1  0  0  0  0
  7  6  1  0  0  0  0
  8  2  1  0  0  0  0
  9  8  1  0  0  0  0
 10  9  2  0  0  0  0
 11 10  1  0  0  0  0
 11 12  1  0  0  0  0
 12 13  1  6  0  0  0
 12 17  1  0  0  0  0
 13 14  2  0  0  0  0
 14 15  1  0  0  0  0
 15 16  2  0  0  0  0
 17  8  2  0  0  0  0
 17 16  1  0  0  0  0
 18 11  1  0  0  0  0
 19 20  1  0  0  0  0
 21 20  1  0  0  0  0
 21 22  1  0  0  0  0
 23 22  2  0  0  0  0
 24 23  1  0  0  0  0
 25 26  1  0  0  0  0
 25 24  2  0  0  0  0
 26 21  2  0  0  0  0
 27 25  1  0  0  0  0
 28 27  1  0  0  0  0
 29 28  2  0  0  0  0
 30 29  1  0  0  0  0
 30 35  1  0  0  0  0
 31 32  1  0  0  0  0
 31 30  2  0  0  0  0
 32 33  2  0  0  0  0
 33 34  1  0  0  0  0
 35 34  2  0  0  0  0
 35 27  1  0  0  0  0
M  END
>  <minimizedAffinity>
-7.21687984

$$$$

 OpenBabel03242509323D

 35 40  0  0  1  0  0  0  0  0999 V2000
   62.0970   58.6990   29.2780 C   0  0  0  0  0  2  0  0  0  0  0  0
   62.4640   57.8180   28.3210 C   0  0  0  0  0  0  0  0  0  0  0  0
   63.6510   57.1620   28.5390 C   0  0  0  0  0  3  0  0  0  0  0  0
   64.3620   57.4240   29.6590 N   0  0  0  0  0  0  0  0  0  0  0  0
   63.9730   58.2880   30.5670 C   0  0  0  0  0  0  0  0  0  0  0  0
   62.8440   58.9380   30.3980 N   0  0  0  0  0  0  0  0  0  0  0  0
   62.5260   59.6200   31.1010 H   0  0  0  0  0  0  0  0  0  0  0  0
   61.5690   57.6370   27.1760 C   0  0  0  0  0  0  0  0  0  0  0  0
   61.8120   56.4700   26.5210 N   0  0  0  0  0  0  0  0  0  0  0  0
   61.2040   56.1520   25.3670 C   0  0  0  0  0  3  0  0  0  0  0  0
   60.4110   57.0780   24.7050 N   0  0  0  0  0  0  0  0  0  0  0  0
   60.2940   58.3090   25.2670 C   0  0  2  0  0  3  0  0  0  0  0  0
   59.5770   59.2960   24.6620 C   0  0  0  0  0  3  0  0  0  0  0  0
   59.5100   60.5730   25.2250 C   0  0  0  0  0  3  0  0  0  0  0  0
   60.1780   60.8510   26.4120 C   0  0  0  0  0  3  0  0  0  0  0  0
   60.9080   59.8360   27.0230 C   0  0  0  0  0  3  0  0  0  0  0  0
   60.9350   58.6040   26.4280 C   0  0  0  0  0  0  0  0  0  0  0  0
   59.9310   56.8430   23.8240 H   0  0  0  0  0  0  0  0  0  0  0  0
   64.7970   58.5170   31.7780 C   0  0  0  0  0  2  0  0  0  0  0  0
   65.9280   57.5020   31.8870 C   0  0  0  0  0  2  0  0  0  0  0  0
   67.2420   58.1460   32.0240 C   0  0  0  0  0  0  0  0  0  0  0  0
   68.1630   57.5250   32.8720 C   0  0  0  0  0  3  0  0  0  0  0  0
   69.4100   58.1170   33.0160 C   0  0  0  0  0  3  0  0  0  0  0  0
   69.6910   59.2450   32.3490 N   0  0  0  0  0  0  0  0  0  0  0  0
   68.8190   59.8470   31.5350 C   0  0  0  0  0  0  0  0  0  0  0  0
   67.5930   59.2680   31.3930 N   0  0  0  0  0  0  0  0  0  0  0  0
   69.1840   61.0440   30.8590 N   0  0  0  0  0  0  0  0  0  0  0  0
   68.4120   62.1610   30.9240 C   0  0  0  0  0  3  0  0  0  0  0  0
   68.9600   63.1410   30.2150 N   0  0  0  0  0  0  0  0  0  0  0  0
   70.0870   62.7000   29.6740 C   0  0  0  0  0  0  0  0  0  0  0  0
   71.0960   63.2030   28.8530 C   0  0  0  0  0  3  0  0  0  0  0  0
   72.1270   62.4050   28.5060 N   0  0  0  0  0  0  0  0  0  0  0  0
   72.2410   61.1280   28.9130 C   0  0  0  0  0  3  0  0  0  0  0  0
   71.2670   60.6070   29.7170 N   0  0  0  0  0  0  0  0  0  0  0  0
   70.2250   61.3860   30.0780 C   0  0  0  0  0  0  0  0  0  0  0  0
  1  6  1  0  0  0  0
  2  3  2  0  0  0  0
  2  1  1  0  0  0  0
  3  4  1  0  0  0  0
  4  5  2  0  0  0  0
  5 19  1  0  0  0  0
  6  5  1  0  0  0  0
  6  7  1  0  0  0  0
  8  2  1  0  0  0  0
  9  8  1  0  0  0  0
 10  9  2  0  0  0  0
 11 12  1  0  0  0  0
 11 10  1  0  0  0  0
 12 13  1  6  0  0  0
 12 17  1  0  0  0  0
 13 14  2  0  0  0  0
 14 15  1  0  0  0  0
 15 16  2  0  0  0  0
 17 16  1  0  0  0  0
 17  8  2  0  0  0  0
 18 11  1  0  0  0  0
 19 20  1  0  0  0  0
 20 21  1  0  0  0  0
 21 22  1  0  0  0  0
 22 23  2  0  0  0  0
 24 23  1  0  0  0  0
 25 24  2  0  0  0  0
 26 25  1  0  0  0  0
 26 21  2  0  0  0  0
 27 28  1  0  0  0  0
 27 25  1  0  0  0  0
 29 28  2  0  0  0  0
 30 35  1  0  0  0  0
 30 29  1  0  0  0  0
 31 30  2  0  0  0  0
 32 31  1  0  0  0  0
 32 33  2  0  0  0  0
 33 34  1  0  0  0  0
 34 35  2  0  0  0  0
 35 27  1  0  0  0  0
M  END
>  <minimizedAffinity>
-7.13496923

$$$$

 OpenBabel03242509323D

 35 40  0  0  1  0  0  0  0  0999 V2000
   63.3220   56.8160   28.4550 C   0  0  0  0  0  2  0  0  0  0  0  0
   62.3660   57.7520   28.2640 C   0  0  0  0  0  0  0  0  0  0  0  0
   62.3400   58.7750   29.1800 C   0  0  0  0  0  3  0  0  0  0  0  0
   63.2430   58.7900   30.1870 N   0  0  0  0  0  0  0  0  0  0  0  0
   64.1590   57.8620   30.3410 C   0  0  0  0  0  0  0  0  0  0  0  0
   64.2170   56.8660   29.4880 N   0  0  0  0  0  0  0  0  0  0  0  0
   64.9300   56.1300   29.5960 H   0  0  0  0  0  0  0  0  0  0  0  0
   61.4770   57.5970   27.1100 C   0  0  0  0  0  0  0  0  0  0  0  0
   61.7000   56.4270   26.4510 N   0  0  0  0  0  0  0  0  0  0  0  0
   61.0950   56.1280   25.2900 C   0  0  0  0  0  3  0  0  0  0  0  0
   60.3280   57.0750   24.6260 N   0  0  0  0  0  0  0  0  0  0  0  0
   60.2330   58.3050   25.1940 C   0  0  2  0  0  3  0  0  0  0  0  0
   59.5440   59.3110   24.5870 C   0  0  0  0  0  3  0  0  0  0  0  0
   59.5010   60.5860   25.1550 C   0  0  0  0  0  3  0  0  0  0  0  0
   60.1640   60.8440   26.3490 C   0  0  0  0  0  3  0  0  0  0  0  0
   60.8660   59.8100   26.9620 C   0  0  0  0  0  3  0  0  0  0  0  0
   60.8710   58.5810   26.3620 C   0  0  0  0  0  0  0  0  0  0  0  0
   59.8510   56.8550   23.7400 H   0  0  0  0  0  0  0  0  0  0  0  0
   65.1250   57.9500   31.4620 C   0  0  0  0  0  2  0  0  0  0  0  0
   66.2800   58.8880   31.1360 C   0  0  0  0  0  2  0  0  0  0  0  0
   66.1990   60.1510   31.8840 C   0  0  0  0  0  0  0  0  0  0  0  0
   66.7660   60.1630   33.1610 C   0  0  0  0  0  3  0  0  0  0  0  0
   66.7000   61.3460   33.8860 C   0  0  0  0  0  3  0  0  0  0  0  0
   66.1070   62.4220   33.3490 N   0  0  0  0  0  0  0  0  0  0  0  0
   65.5630   62.4210   32.1290 C   0  0  0  0  0  0  0  0  0  0  0  0
   65.6250   61.2600   31.4160 N   0  0  0  0  0  0  0  0  0  0  0  0
   64.9490   63.5990   31.6220 N   0  0  0  0  0  0  0  0  0  0  0  0
   63.6820   63.5850   31.1270 C   0  0  0  0  0  3  0  0  0  0  0  0
   63.3350   64.7990   30.7170 N   0  0  0  0  0  0  0  0  0  0  0  0
   64.3470   65.6290   30.9280 C   0  0  0  0  0  0  0  0  0  0  0  0
   64.6220   66.9820   30.7290 C   0  0  0  0  0  3  0  0  0  0  0  0
   65.8260   67.4720   31.0910 N   0  0  0  0  0  0  0  0  0  0  0  0
   66.7940   66.7190   31.6420 C   0  0  0  0  0  3  0  0  0  0  0  0
   66.5540   65.3910   31.8470 N   0  0  0  0  0  0  0  0  0  0  0  0
   65.3570   64.8750   31.4940 C   0  0  0  0  0  0  0  0  0  0  0  0
  1  6  1  0  0  0  0
  2  1  1  0  0  0  0
  2  3  2  0  0  0  0
  3  4  1  0  0  0  0
  4  5  2  0  0  0  0
  5 19  1  0  0  0  0
  6  7  1  0  0  0  0
  6  5  1  0  0  0  0
  8  2  1  0  0  0  0
  9  8  1  0  0  0  0
 10  9  2  0  0  0  0
 11 12  1  0  0  0  0
 11 10  1  0  0  0  0
 12 13  1  6  0  0  0
 12 17  1  0  0  0  0
 13 14  2  0  0  0  0
 14 15  1  0  0  0  0
 15 16  2  0  0  0  0
 17 16  1  0  0  0  0
 17  8  2  0  0  0  0
 18 11  1  0  0  0  0
 20 19  1  0  0  0  0
 20 21  1  0  0  0  0
 21 22  1  0  0  0  0
 22 23  2  0  0  0  0
 24 23  1  0  0  0  0
 25 24  2  0  0  0  0
 26 21  2  0  0  0  0
 26 25  1  0  0  0  0
 27 25  1  0  0  0  0
 28 27  1  0  0  0  0
 29 30  1  0  0  0  0
 29 28  2  0  0  0  0
 30 35  1  0  0  0  0
 31 30  2  0  0  0  0
 31 32  1  0  0  0  0
 32 33  2  0  0  0  0
 33 34  1  0  0  0  0
 35 27  1  0  0  0  0
 35 34  2  0  0  0  0
M  END
>  <minimizedAffinity>
-6.93831015

$$$$

 OpenBabel03242509323D

 35 40  0  0  1  0  0  0  0  0999 V2000
   63.3410   57.1190   28.3520 C   0  0  0  0  0  2  0  0  0  0  0  0
   62.2470   57.8920   28.1740 C   0  0  0  0  0  0  0  0  0  0  0  0
   62.1140   58.9460   29.0440 C   0  0  0  0  0  3  0  0  0  0  0  0
   63.0520   59.1460   29.9980 N   0  0  0  0  0  0  0  0  0  0  0  0
   64.1020   58.3720   30.1410 C   0  0  0  0  0  0  0  0  0  0  0  0
   64.2680   57.3520   29.3300 N   0  0  0  0  0  0  0  0  0  0  0  0
   65.0870   56.7360   29.4300 H   0  0  0  0  0  0  0  0  0  0  0  0
   61.3360   57.5490   27.0790 C   0  0  0  0  0  0  0  0  0  0  0  0
   61.5640   56.2950   26.6040 N   0  0  0  0  0  0  0  0  0  0  0  0
   60.9400   55.8120   25.5180 C   0  0  0  0  0  3  0  0  0  0  0  0
   60.1430   56.6340   24.7340 N   0  0  0  0  0  0  0  0  0  0  0  0
   60.0390   57.9360   25.1070 C   0  0  2  0  0  3  0  0  0  0  0  0
   59.3200   58.8260   24.3700 C   0  0  0  0  0  3  0  0  0  0  0  0
   59.2670   60.1740   24.7360 C   0  0  0  0  0  3  0  0  0  0  0  0
   59.9520   60.6210   25.8590 C   0  0  0  0  0  3  0  0  0  0  0  0
   60.6850   59.7040   26.6070 C   0  0  0  0  0  3  0  0  0  0  0  0
   60.6970   58.3970   26.2030 C   0  0  0  0  0  0  0  0  0  0  0  0
   59.6500   56.2730   23.9040 H   0  0  0  0  0  0  0  0  0  0  0  0
   65.0990   58.6580   31.2010 C   0  0  0  0  0  2  0  0  0  0  0  0
   64.6590   58.1010   32.5490 C   0  0  0  0  0  2  0  0  0  0  0  0
   65.7370   58.1420   33.5470 C   0  0  0  0  0  0  0  0  0  0  0  0
   65.3550   58.3130   34.8810 C   0  0  0  0  0  3  0  0  0  0  0  0
   66.3570   58.3560   35.8400 C   0  0  0  0  0  3  0  0  0  0  0  0
   67.6400   58.2330   35.4670 N   0  0  0  0  0  0  0  0  0  0  0  0
   68.0160   58.0690   34.1950 C   0  0  0  0  0  0  0  0  0  0  0  0
   67.0330   58.0280   33.2520 N   0  0  0  0  0  0  0  0  0  0  0  0
   69.3950   57.9460   33.8710 N   0  0  0  0  0  0  0  0  0  0  0  0
   69.9760   58.7310   32.9240 C   0  0  0  0  0  3  0  0  0  0  0  0
   71.2630   58.4300   32.8030 N   0  0  0  0  0  0  0  0  0  0  0  0
   71.5570   57.4550   33.6520 C   0  0  0  0  0  0  0  0  0  0  0  0
   72.6810   56.7110   34.0090 C   0  0  0  0  0  3  0  0  0  0  0  0
   72.5710   55.7620   34.9620 N   0  0  0  0  0  0  0  0  0  0  0  0
   71.4200   55.4860   35.5990 C   0  0  0  0  0  3  0  0  0  0  0  0
   70.3020   56.1980   35.2700 N   0  0  0  0  0  0  0  0  0  0  0  0
   70.3850   57.1530   34.3190 C   0  0  0  0  0  0  0  0  0  0  0  0
  1  6  1  0  0  0  0
  2  1  1  0  0  0  0
  2  3  2  0  0  0  0
  3  4  1  0  0  0  0
  4  5  2  0  0  0  0
  5 19  1  0  0  0  0
  6  7  1  0  0  0  0
  6  5  1  0  0  0  0
  8  2  1  0  0  0  0
  9  8  1  0  0  0  0
 10  9  2  0  0  0  0
 11 12  1  0  0  0  0
 11 10  1  0  0  0  0
 12 13  1  6  0  0  0
 12 17  1  0  0  0  0
 13 14  2  0  0  0  0
 14 15  1  0  0  0  0
 15 16  2  0  0  0  0
 17 16  1  0  0  0  0
 17  8  2  0  0  0  0
 18 11  1  0  0  0  0
 19 20  1  0  0  0  0
 20 21  1  0  0  0  0
 21 22  1  0  0  0  0
 22 23  2  0  0  0  0
 24 23  1  0  0  0  0
 25 24  2  0  0  0  0
 26 21  2  0  0  0  0
 26 25  1  0  0  0  0
 27 25  1  0  0  0  0
 27 35  1  0  0  0  0
 28 27  1  0  0  0  0
 29 28  2  0  0  0  0
 29 30  1  0  0  0  0
 30 31  2  0  0  0  0
 30 35  1  0  0  0  0
 31 32  1  0  0  0  0
 32 33  2  0  0  0  0
 34 33  1  0  0  0  0
 35 34  2  0  0  0  0
M  END
>  <minimizedAffinity>
-6.93098116

$$$$

 OpenBabel03242509323D

 35 40  0  0  1  0  0  0  0  0999 V2000
   63.5620   57.0140   28.7570 C   0  0  0  0  0  2  0  0  0  0  0  0
   62.5300   57.8460   28.4940 C   0  0  0  0  0  0  0  0  0  0  0  0
   62.3860   58.9080   29.3530 C   0  0  0  0  0  3  0  0  0  0  0  0
   63.2560   59.0580   30.3780 N   0  0  0  0  0  0  0  0  0  0  0  0
   64.2480   58.2280   30.6020 C   0  0  0  0  0  0  0  0  0  0  0  0
   64.4210   57.1990   29.8050 N   0  0  0  0  0  0  0  0  0  0  0  0
   65.1940   56.5380   29.9680 H   0  0  0  0  0  0  0  0  0  0  0  0
   61.6900   57.5500   27.3300 C   0  0  0  0  0  0  0  0  0  0  0  0
   62.0230   56.3640   26.7530 N   0  0  0  0  0  0  0  0  0  0  0  0
   61.4790   55.9480   25.5980 C   0  0  0  0  0  3  0  0  0  0  0  0
   60.6600   56.7880   24.8570 N   0  0  0  0  0  0  0  0  0  0  0  0
   60.4520   58.0380   25.3440 C   0  0  2  0  0  3  0  0  0  0  0  0
   59.7040   58.9470   24.6580 C   0  0  0  0  0  3  0  0  0  0  0  0
   59.5440   60.2470   25.1440 C   0  0  0  0  0  3  0  0  0  0  0  0
   60.1490   60.6290   26.3350 C   0  0  0  0  0  3  0  0  0  0  0  0
   60.9120   59.6940   27.0290 C   0  0  0  0  0  3  0  0  0  0  0  0
   61.0310   58.4350   26.5070 C   0  0  0  0  0  0  0  0  0  0  0  0
   60.2280   56.4760   23.9750 H   0  0  0  0  0  0  0  0  0  0  0  0
   65.1720   58.4620   31.7380 C   0  0  0  0  0  2  0  0  0  0  0  0
   66.3870   59.2770   31.3140 C   0  0  0  0  0  2  0  0  0  0  0  0
   66.0600   60.6950   31.1050 C   0  0  0  0  0  0  0  0  0  0  0  0
   66.3280   61.2220   29.8390 C   0  0  0  0  0  3  0  0  0  0  0  0
   66.0280   62.5600   29.6190 C   0  0  0  0  0  3  0  0  0  0  0  0
   65.4980   63.2930   30.6100 N   0  0  0  0  0  0  0  0  0  0  0  0
   65.2380   62.7980   31.8230 C   0  0  0  0  0  0  0  0  0  0  0  0
   65.5330   61.4850   32.0410 N   0  0  0  0  0  0  0  0  0  0  0  0
   64.6760   63.6340   32.8270 N   0  0  0  0  0  0  0  0  0  0  0  0
   65.2410   63.7450   34.0590 C   0  0  0  0  0  3  0  0  0  0  0  0
   64.5370   64.5790   34.8150 N   0  0  0  0  0  0  0  0  0  0  0  0
   63.5080   65.0300   34.1120 C   0  0  0  0  0  0  0  0  0  0  0  0
   62.4330   65.8960   34.3090 C   0  0  0  0  0  3  0  0  0  0  0  0
   61.5590   66.1060   33.3030 N   0  0  0  0  0  0  0  0  0  0  0  0
   61.6650   65.5170   32.0980 C   0  0  0  0  0  3  0  0  0  0  0  0
   62.7080   64.6630   31.8760 N   0  0  0  0  0  0  0  0  0  0  0  0
   63.5970   64.4370   32.8680 C   0  0  0  0  0  0  0  0  0  0  0  0
  1  6  1  0  0  0  0
  2  1  1  0  0  0  0
  2  3  2  0  0  0  0
  3  4  1  0  0  0  0
  4  5  2  0  0  0  0
  5 19  1  0  0  0  0
  6  7  1  0  0  0  0
  6  5  1  0  0  0  0
  8  2  1  0  0  0  0
  9  8  1  0  0  0  0
 10  9  2  0  0  0  0
 11 12  1  0  0  0  0
 11 10  1  0  0  0  0
 12 13  1  6  0  0  0
 12 17  1  0  0  0  0
 13 14  2  0  0  0  0
 14 15  1  0  0  0  0
 15 16  2  0  0  0  0
 17 16  1  0  0  0  0
 17  8  2  0  0  0  0
 18 11  1  0  0  0  0
 20 19  1  0  0  0  0
 21 20  1  0  0  0  0
 21 26  2  0  0  0  0
 22 21  1  0  0  0  0
 23 22  2  0  0  0  0
 23 24  1  0  0  0  0
 24 25  2  0  0  0  0
 25 26  1  0  0  0  0
 25 27  1  0  0  0  0
 27 35  1  0  0  0  0
 27 28  1  0  0  0  0
 28 29  2  0  0  0  0
 30 31  1  0  0  0  0
 30 29  1  0  0  0  0
 32 31  2  0  0  0  0
 33 32  1  0  0  0  0
 34 33  2  0  0  0  0
 34 35  1  0  0  0  0
 35 30  2  0  0  0  0
M  END
>  <minimizedAffinity>
-6.83857107

$$$$

 OpenBabel03242509323D

 35 40  0  0  1  0  0  0  0  0999 V2000
   64.8910   57.0620   28.7050 C   0  0  0  0  0  2  0  0  0  0  0  0
   63.6900   57.5200   29.1230 C   0  0  0  0  0  0  0  0  0  0  0  0
   63.6130   57.8670   30.4500 C   0  0  0  0  0  3  0  0  0  0  0  0
   64.7050   57.7370   31.2370 N   0  0  0  0  0  0  0  0  0  0  0  0
   65.8570   57.2880   30.7950 C   0  0  0  0  0  0  0  0  0  0  0  0
   65.9730   56.9440   29.5330 N   0  0  0  0  0  0  0  0  0  0  0  0
   66.8700   56.5890   29.1710 H   0  0  0  0  0  0  0  0  0  0  0  0
   62.6120   57.6160   28.1360 C   0  0  0  0  0  0  0  0  0  0  0  0
   62.8810   56.8890   27.0180 N   0  0  0  0  0  0  0  0  0  0  0  0
   62.0990   56.9300   25.9270 C   0  0  0  0  0  3  0  0  0  0  0  0
   61.0580   57.8430   25.8350 N   0  0  0  0  0  0  0  0  0  0  0  0
   60.8820   58.6900   26.8810 C   0  0  2  0  0  3  0  0  0  0  0  0
   59.9180   59.6510   26.8560 C   0  0  0  0  0  3  0  0  0  0  0  0
   59.7840   60.5510   27.9160 C   0  0  0  0  0  3  0  0  0  0  0  0
   60.6360   60.4750   29.0110 C   0  0  0  0  0  3  0  0  0  0  0  0
   61.6190   59.4890   29.0280 C   0  0  0  0  0  3  0  0  0  0  0  0
   61.7010   58.6340   27.9640 C   0  0  0  0  0  0  0  0  0  0  0  0
   60.4460   57.8770   25.0070 H   0  0  0  0  0  0  0  0  0  0  0  0
   67.0170   57.1840   31.7120 C   0  0  0  0  0  2  0  0  0  0  0  0
   66.9030   58.1630   32.8730 C   0  0  0  0  0  2  0  0  0  0  0  0
   67.3630   59.5120   32.5120 C   0  0  0  0  0  0  0  0  0  0  0  0
   68.6560   59.6170   31.9900 C   0  0  0  0  0  3  0  0  0  0  0  0
   69.1110   60.8810   31.6420 C   0  0  0  0  0  3  0  0  0  0  0  0
   68.3120   61.9450   31.8120 N   0  0  0  0  0  0  0  0  0  0  0  0
   67.0750   61.8550   32.3090 C   0  0  0  0  0  0  0  0  0  0  0  0
   66.6270   60.6140   32.6520 N   0  0  0  0  0  0  0  0  0  0  0  0
   66.2830   63.0260   32.4630 N   0  0  0  0  0  0  0  0  0  0  0  0
   65.6910   63.3340   33.6470 C   0  0  0  0  0  3  0  0  0  0  0  0
   65.0090   64.4690   33.5400 N   0  0  0  0  0  0  0  0  0  0  0  0
   65.1330   64.9270   32.3030 C   0  0  0  0  0  0  0  0  0  0  0  0
   64.6840   66.0230   31.5660 C   0  0  0  0  0  3  0  0  0  0  0  0
   65.0420   66.1420   30.2710 N   0  0  0  0  0  0  0  0  0  0  0  0
   65.8210   65.2480   29.6360 C   0  0  0  0  0  3  0  0  0  0  0  0
   66.2740   64.1640   30.3310 N   0  0  0  0  0  0  0  0  0  0  0  0
   65.9300   64.0220   31.6300 C   0  0  0  0  0  0  0  0  0  0  0  0
  1  2  1  0  0  0  0
  1  6  1  0  0  0  0
  2  3  2  0  0  0  0
  3  4  1  0  0  0  0
  5  4  2  0  0  0  0
  5 19  1  0  0  0  0
  6  5  1  0  0  0  0
  7  6  1  0  0  0  0
  8  2  1  0  0  0  0
  9  8  1  0  0  0  0
 10  9  2  0  0  0  0
 11 10  1  0  0  0  0
 11 12  1  0  0  0  0
 12 13  1  6  0  0  0
 12 17  1  0  0  0  0
 13 14  2  0  0  0  0
 14 15  1  0  0  0  0
 15 16  2  0  0  0  0
 17  8  2  0  0  0  0
 17 16  1  0  0  0  0
 18 11  1  0  0  0  0
 19 20  1  0  0  0  0
 21 26  2  0  0  0  0
 21 20  1  0  0  0  0
 22 21  1  0  0  0  0
 23 24  1  0  0  0  0
 23 22  2  0  0  0  0
 24 25  2  0  0  0  0
 25 27  1  0  0  0  0
 25 26  1  0  0  0  0
 27 28  1  0  0  0  0
 29 28  2  0  0  0  0
 30 29  1  0  0  0  0
 31 30  2  0  0  0  0
 32 31  1  0  0  0  0
 33 32  2  0  0  0  0
 33 34  1  0  0  0  0
 34 35  2  0  0  0  0
 35 30  1  0  0  0  0
 35 27  1  0  0  0  0
M  END
>  <minimizedAffinity>
-6.72385454

$$$$
