
 OpenBabel03242509293D

 32 37  0  0  0  0  0  0  0  0999 V2000
   66.5600   57.1060   31.0420 C   0  0  0  0  0  3  0  0  0  0  0  0
   65.8060   57.7160   32.0820 C   0  0  0  0  0  0  0  0  0  0  0  0
   64.4990   58.1480   31.8190 C   0  0  0  0  0  3  0  0  0  0  0  0
   64.0000   57.9640   30.5680 N   0  0  0  0  0  0  0  0  0  0  0  0
   64.7510   57.3810   29.6140 C   0  0  0  0  0  0  0  0  0  0  0  0
   66.0010   56.9630   29.8480 N   0  0  0  0  0  0  0  0  0  0  0  0
   66.4520   57.8630   33.4010 C   0  0  0  0  0  0  0  0  0  0  0  0
   65.7850   58.5380   34.4430 C   0  0  0  0  0  3  0  0  0  0  0  0
   66.9860   58.4480   35.8440 S   0  0  0  0  0  0  0  0  0  0  0  0
   68.1930   57.4940   34.7280 C   0  0  0  0  0  0  0  0  0  0  0  0
   67.6260   57.4360   33.7810 N   0  0  0  0  0  0  0  0  0  0  0  0
   69.4820   57.0280   35.1550 N   0  0  0  0  0  0  0  0  0  0  0  0
   69.9170   56.9350   36.5180 C   0  0  0  0  0  2  0  0  0  0  0  0
   71.4590   56.9270   36.4470 C   0  0  0  0  0  2  0  0  0  0  0  0
   71.9400   55.8600   35.7500 O   0  0  0  0  0  0  0  0  0  0  0  0
   71.2350   55.5090   34.6380 C   0  0  0  0  0  2  0  0  0  0  0  0
   70.4000   56.6290   34.1020 C   0  0  0  0  0  2  0  0  0  0  0  0
   64.1360   57.2250   28.3010 C   0  0  0  0  0  0  0  0  0  0  0  0
   64.6600   57.2000   27.0760 N   0  0  0  0  0  0  0  0  0  0  0  0
   63.7120   57.0340   26.1760 O   0  0  0  0  0  0  0  0  0  0  0  0
   62.5400   56.9450   26.7840 C   0  0  0  0  0  0  0  0  0  0  0  0
   62.8330   57.0640   28.0720 N   0  0  0  0  0  0  0  0  0  0  0  0
   61.3550   56.7580   25.9800 C   0  0  0  0  0  0  0  0  0  0  0  0
   60.7010   55.5620   25.9760 C   0  0  0  0  0  3  0  0  0  0  0  0
   59.5480   55.3270   25.2160 C   0  0  0  0  0  3  0  0  0  0  0  0
   59.0240   56.3070   24.4320 C   0  0  0  0  0  3  0  0  0  0  0  0
   59.6490   57.5220   24.4050 C   0  0  0  0  0  0  0  0  0  0  0  0
   59.1360   58.5300   23.6170 C   0  0  0  0  0  3  0  0  0  0  0  0
   59.7200   59.7770   23.5460 C   0  0  0  0  0  3  0  0  0  0  0  0
   60.8700   59.9910   24.3150 C   0  0  0  0  0  3  0  0  0  0  0  0
   61.3440   58.9540   25.0850 C   0  0  0  0  0  3  0  0  0  0  0  0
   60.7800   57.7070   25.1690 C   0  0  0  0  0  0  0  0  0  0  0  0
  1  2  1  0  0  0  0
  2  7  1  0  0  0  0
  3  2  2  0  0  0  0
  4  3  1  0  0  0  0
  5  6  1  0  0  0  0
  5  4  2  0  0  0  0
  6  1  2  0  0  0  0
  7 11  1  0  0  0  0
  7  8  2  0  0  0  0
  8  9  1  0  0  0  0
 10 12  1  0  0  0  0
 10  9  1  0  0  0  0
 11 10  2  0  0  0  0
 12 13  1  0  0  0  0
 14 13  1  0  0  0  0
 15 14  1  0  0  0  0
 16 15  1  0  0  0  0
 17 16  1  0  0  0  0
 17 12  1  0  0  0  0
 18  5  1  0  0  0  0
 19 18  2  0  0  0  0
 20 21  1  0  0  0  0
 20 19  1  0  0  0  0
 21 22  2  0  0  0  0
 22 18  1  0  0  0  0
 23 21  1  0  0  0  0
 24 23  1  0  0  0  0
 25 24  2  0  0  0  0
 26 25  1  0  0  0  0
 27 26  2  0  0  0  0
 27 32  1  0  0  0  0
 28 27  1  0  0  0  0
 29 28  2  0  0  0  0
 29 30  1  0  0  0  0
 30 31  2  0  0  0  0
 31 32  1  0  0  0  0
 32 23  2  0  0  0  0
M  END
>  <minimizedAffinity>
-8.85514355

$$$$

 OpenBabel03242509293D

 32 37  0  0  0  0  0  0  0  0999 V2000
   66.7550   57.0650   31.1460 C   0  0  0  0  0  3  0  0  0  0  0  0
   66.0140   57.6560   32.2060 C   0  0  0  0  0  0  0  0  0  0  0  0
   64.7070   58.1000   31.9670 C   0  0  0  0  0  3  0  0  0  0  0  0
   64.1940   57.9460   30.7180 N   0  0  0  0  0  0  0  0  0  0  0  0
   64.9320   57.3800   29.7440 C   0  0  0  0  0  0  0  0  0  0  0  0
   66.1820   56.9500   29.9560 N   0  0  0  0  0  0  0  0  0  0  0  0
   66.6750   57.7720   33.5210 C   0  0  0  0  0  0  0  0  0  0  0  0
   67.5510   56.7610   33.9630 C   0  0  0  0  0  3  0  0  0  0  0  0
   68.0980   57.3660   35.6210 S   0  0  0  0  0  0  0  0  0  0  0  0
   67.0090   58.9090   35.3990 C   0  0  0  0  0  0  0  0  0  0  0  0
   66.5660   58.7300   34.4020 N   0  0  0  0  0  0  0  0  0  0  0  0
   66.8970   59.9580   36.3730 N   0  0  0  0  0  0  0  0  0  0  0  0
   67.7880   60.1580   37.4790 C   0  0  0  0  0  2  0  0  0  0  0  0
   66.9850   60.9990   38.4920 C   0  0  0  0  0  2  0  0  0  0  0  0
   66.6210   62.2120   37.9870 O   0  0  0  0  0  0  0  0  0  0  0  0
   66.2310   62.2180   36.6810 C   0  0  0  0  0  2  0  0  0  0  0  0
   65.7820   60.8740   36.2020 C   0  0  0  0  0  2  0  0  0  0  0  0
   64.3020   57.2540   28.4340 C   0  0  0  0  0  0  0  0  0  0  0  0
   64.8030   57.3230   27.2010 N   0  0  0  0  0  0  0  0  0  0  0  0
   63.8490   57.1470   26.3090 O   0  0  0  0  0  0  0  0  0  0  0  0
   62.6970   56.9580   26.9310 C   0  0  0  0  0  0  0  0  0  0  0  0
   63.0060   57.0290   28.2180 N   0  0  0  0  0  0  0  0  0  0  0  0
   61.5090   56.7430   26.1370 C   0  0  0  0  0  0  0  0  0  0  0  0
   60.8640   55.5430   26.1660 C   0  0  0  0  0  3  0  0  0  0  0  0
   59.7100   55.2800   25.4170 C   0  0  0  0  0  3  0  0  0  0  0  0
   59.1750   56.2370   24.6100 C   0  0  0  0  0  3  0  0  0  0  0  0
   59.7910   57.4550   24.5510 C   0  0  0  0  0  0  0  0  0  0  0  0
   59.2670   58.4400   23.7410 C   0  0  0  0  0  3  0  0  0  0  0  0
   59.8420   59.6890   23.6370 C   0  0  0  0  0  3  0  0  0  0  0  0
   60.9940   59.9300   24.3940 C   0  0  0  0  0  3  0  0  0  0  0  0
   61.4780   58.9160   25.1880 C   0  0  0  0  0  3  0  0  0  0  0  0
   60.9240   57.6670   25.3050 C   0  0  0  0  0  0  0  0  0  0  0  0
  1  2  1  0  0  0  0
  2  7  1  0  0  0  0
  3  2  2  0  0  0  0
  4  3  1  0  0  0  0
  5  6  1  0  0  0  0
  5  4  2  0  0  0  0
  6  1  2  0  0  0  0
  7  8  2  0  0  0  0
  7 11  1  0  0  0  0
  8  9  1  0  0  0  0
 10  9  1  0  0  0  0
 10 12  1  0  0  0  0
 11 10  2  0  0  0  0
 12 13  1  0  0  0  0
 13 14  1  0  0  0  0
 15 14  1  0  0  0  0
 16 15  1  0  0  0  0
 17 12  1  0  0  0  0
 17 16  1  0  0  0  0
 18  5  1  0  0  0  0
 19 18  2  0  0  0  0
 20 21  1  0  0  0  0
 20 19  1  0  0  0  0
 21 22  2  0  0  0  0
 22 18  1  0  0  0  0
 23 24  1  0  0  0  0
 23 21  1  0  0  0  0
 25 24  2  0  0  0  0
 26 25  1  0  0  0  0
 27 26  2  0  0  0  0
 27 32  1  0  0  0  0
 28 27  1  0  0  0  0
 29 28  2  0  0  0  0
 29 30  1  0  0  0  0
 30 31  2  0  0  0  0
 31 32  1  0  0  0  0
 32 23  2  0  0  0  0
M  END
>  <minimizedAffinity>
-8.35676003

$$$$

 OpenBabel03242509293D

 32 37  0  0  0  0  0  0  0  0999 V2000
   66.5120   57.2590   31.1040 C   0  0  0  0  0  3  0  0  0  0  0  0
   65.7970   58.0350   32.0570 C   0  0  0  0  0  0  0  0  0  0  0  0
   64.5370   58.5450   31.7200 C   0  0  0  0  0  3  0  0  0  0  0  0
   64.0420   58.2730   30.4830 N   0  0  0  0  0  0  0  0  0  0  0  0
   64.7540   57.5320   29.6130 C   0  0  0  0  0  0  0  0  0  0  0  0
   65.9610   57.0380   29.9180 N   0  0  0  0  0  0  0  0  0  0  0  0
   66.4340   58.2650   33.3680 C   0  0  0  0  0  0  0  0  0  0  0  0
   65.6480   58.3140   34.5360 C   0  0  0  0  0  3  0  0  0  0  0  0
   66.8890   58.6160   35.8720 S   0  0  0  0  0  0  0  0  0  0  0  0
   68.2700   58.6210   34.5650 C   0  0  0  0  0  0  0  0  0  0  0  0
   67.7000   58.4430   33.6350 N   0  0  0  0  0  0  0  0  0  0  0  0
   69.6590   58.8180   34.8690 N   0  0  0  0  0  0  0  0  0  0  0  0
   70.2400   58.7310   36.1770 C   0  0  0  0  0  2  0  0  0  0  0  0
   71.5590   59.5260   36.0840 C   0  0  0  0  0  2  0  0  0  0  0  0
   72.4230   58.9930   35.1750 O   0  0  0  0  0  0  0  0  0  0  0  0
   71.8610   58.5250   34.0240 C   0  0  0  0  0  2  0  0  0  0  0  0
   70.5220   59.1310   33.7430 C   0  0  0  0  0  2  0  0  0  0  0  0
   64.1470   57.2910   28.3080 C   0  0  0  0  0  0  0  0  0  0  0  0
   64.6840   57.1290   27.1000 N   0  0  0  0  0  0  0  0  0  0  0  0
   63.7390   56.9320   26.2030 O   0  0  0  0  0  0  0  0  0  0  0  0
   62.5570   56.9580   26.7970 C   0  0  0  0  0  0  0  0  0  0  0  0
   62.8400   57.1770   28.0740 N   0  0  0  0  0  0  0  0  0  0  0  0
   61.3730   56.7610   25.9930 C   0  0  0  0  0  0  0  0  0  0  0  0
   60.7310   55.5590   25.9880 C   0  0  0  0  0  3  0  0  0  0  0  0
   59.5800   55.3140   25.2280 C   0  0  0  0  0  3  0  0  0  0  0  0
   59.0450   56.2910   24.4450 C   0  0  0  0  0  3  0  0  0  0  0  0
   59.6580   57.5110   24.4200 C   0  0  0  0  0  0  0  0  0  0  0  0
   59.1360   58.5160   23.6350 C   0  0  0  0  0  3  0  0  0  0  0  0
   59.7070   59.7690   23.5660 C   0  0  0  0  0  3  0  0  0  0  0  0
   60.8560   59.9930   24.3340 C   0  0  0  0  0  3  0  0  0  0  0  0
   61.3400   58.9580   25.1020 C   0  0  0  0  0  3  0  0  0  0  0  0
   60.7890   57.7060   25.1850 C   0  0  0  0  0  0  0  0  0  0  0  0
  1  2  1  0  0  0  0
  2  7  1  0  0  0  0
  3  2  2  0  0  0  0
  4  3  1  0  0  0  0
  5  6  1  0  0  0  0
  5  4  2  0  0  0  0
  6  1  2  0  0  0  0
  7 11  1  0  0  0  0
  7  8  2  0  0  0  0
  8  9  1  0  0  0  0
 10 12  1  0  0  0  0
 10  9  1  0  0  0  0
 11 10  2  0  0  0  0
 12 13  1  0  0  0  0
 14 13  1  0  0  0  0
 15 14  1  0  0  0  0
 16 15  1  0  0  0  0
 17 16  1  0  0  0  0
 17 12  1  0  0  0  0
 18  5  1  0  0  0  0
 19 18  2  0  0  0  0
 20 21  1  0  0  0  0
 20 19  1  0  0  0  0
 21 22  2  0  0  0  0
 22 18  1  0  0  0  0
 23 21  1  0  0  0  0
 24 23  1  0  0  0  0
 25 24  2  0  0  0  0
 26 25  1  0  0  0  0
 27 26  2  0  0  0  0
 27 32  1  0  0  0  0
 28 27  1  0  0  0  0
 29 28  2  0  0  0  0
 29 30  1  0  0  0  0
 30 31  2  0  0  0  0
 31 32  1  0  0  0  0
 32 23  2  0  0  0  0
M  END
>  <minimizedAffinity>
-8.2343998

$$$$

 OpenBabel03242509293D

 32 37  0  0  0  0  0  0  0  0999 V2000
   66.3040   57.0520   30.6610 C   0  0  0  0  0  3  0  0  0  0  0  0
   65.5510   57.6560   31.7050 C   0  0  0  0  0  0  0  0  0  0  0  0
   64.2790   58.1700   31.4250 C   0  0  0  0  0  3  0  0  0  0  0  0
   63.8100   58.0690   30.1520 N   0  0  0  0  0  0  0  0  0  0  0  0
   64.5580   57.4890   29.1950 C   0  0  0  0  0  0  0  0  0  0  0  0
   65.7760   56.9930   29.4460 N   0  0  0  0  0  0  0  0  0  0  0  0
   66.1620   57.7090   33.0480 C   0  0  0  0  0  0  0  0  0  0  0  0
   65.4470   58.2600   34.1280 C   0  0  0  0  0  3  0  0  0  0  0  0
   66.6200   58.0930   35.5450 S   0  0  0  0  0  0  0  0  0  0  0  0
   67.8890   57.2900   34.3790 C   0  0  0  0  0  0  0  0  0  0  0  0
   67.3450   57.2960   33.4170 N   0  0  0  0  0  0  0  0  0  0  0  0
   69.1870   56.8400   34.7950 N   0  0  0  0  0  0  0  0  0  0  0  0
   69.5970   56.6410   36.1550 C   0  0  0  0  0  2  0  0  0  0  0  0
   71.1380   56.7010   36.1220 C   0  0  0  0  0  2  0  0  0  0  0  0
   71.6780   55.7200   35.3450 O   0  0  0  0  0  0  0  0  0  0  0  0
   71.0110   55.4430   34.1890 C   0  0  0  0  0  2  0  0  0  0  0  0
   70.1430   56.5720   33.7340 C   0  0  0  0  0  2  0  0  0  0  0  0
   63.9770   57.4240   27.8590 C   0  0  0  0  0  0  0  0  0  0  0  0
   64.4500   56.9410   26.7110 N   0  0  0  0  0  0  0  0  0  0  0  0
   63.5640   57.0990   25.7480 O   0  0  0  0  0  0  0  0  0  0  0  0
   62.4860   57.6890   26.2370 C   0  0  0  0  0  0  0  0  0  0  0  0
   62.7680   57.8720   27.5200 N   0  0  0  0  0  0  0  0  0  0  0  0
   61.3800   57.9590   25.3470 C   0  0  0  0  0  0  0  0  0  0  0  0
   61.2730   59.1650   24.7200 C   0  0  0  0  0  3  0  0  0  0  0  0
   60.2230   59.4790   23.8480 C   0  0  0  0  0  3  0  0  0  0  0  0
   59.2450   58.5700   23.5860 C   0  0  0  0  0  3  0  0  0  0  0  0
   59.3130   57.3480   24.1940 C   0  0  0  0  0  0  0  0  0  0  0  0
   58.3340   56.4120   23.9440 C   0  0  0  0  0  3  0  0  0  0  0  0
   58.3460   55.1620   24.5260 C   0  0  0  0  0  3  0  0  0  0  0  0
   59.4040   54.8690   25.3930 C   0  0  0  0  0  3  0  0  0  0  0  0
   60.3580   55.8360   25.6110 C   0  0  0  0  0  3  0  0  0  0  0  0
   60.3650   57.0850   25.0440 C   0  0  0  0  0  0  0  0  0  0  0  0
  1  2  1  0  0  0  0
  2  7  1  0  0  0  0
  3  2  2  0  0  0  0
  4  3  1  0  0  0  0
  5  6  1  0  0  0  0
  5  4  2  0  0  0  0
  6  1  2  0  0  0  0
  7 11  1  0  0  0  0
  7  8  2  0  0  0  0
  8  9  1  0  0  0  0
 10 12  1  0  0  0  0
 10  9  1  0  0  0  0
 11 10  2  0  0  0  0
 12 13  1  0  0  0  0
 14 13  1  0  0  0  0
 15 14  1  0  0  0  0
 16 15  1  0  0  0  0
 17 16  1  0  0  0  0
 17 12  1  0  0  0  0
 18  5  1  0  0  0  0
 19 18  2  0  0  0  0
 20 21  1  0  0  0  0
 20 19  1  0  0  0  0
 21 22  2  0  0  0  0
 22 18  1  0  0  0  0
 23 21  1  0  0  0  0
 24 23  2  0  0  0  0
 25 24  1  0  0  0  0
 26 25  2  0  0  0  0
 26 27  1  0  0  0  0
 27 32  1  0  0  0  0
 28 27  2  0  0  0  0
 28 29  1  0  0  0  0
 29 30  2  0  0  0  0
 30 31  1  0  0  0  0
 32 23  1  0  0  0  0
 32 31  2  0  0  0  0
M  END
>  <minimizedAffinity>
-8.21333981

$$$$

 OpenBabel03242509293D

 32 37  0  0  0  0  0  0  0  0999 V2000
   64.9050   58.3140   32.3100 C   0  0  0  0  0  3  0  0  0  0  0  0
   66.2510   57.9070   32.0990 C   0  0  0  0  0  0  0  0  0  0  0  0
   66.6010   57.2890   30.8920 C   0  0  0  0  0  3  0  0  0  0  0  0
   65.6300   57.1020   29.9590 N   0  0  0  0  0  0  0  0  0  0  0  0
   64.3680   57.5050   30.2010 C   0  0  0  0  0  0  0  0  0  0  0  0
   64.0160   58.0960   31.3500 N   0  0  0  0  0  0  0  0  0  0  0  0
   67.2210   58.1610   33.1830 C   0  0  0  0  0  0  0  0  0  0  0  0
   67.5520   59.4830   33.5380 C   0  0  0  0  0  3  0  0  0  0  0  0
   68.7710   59.2630   34.9090 S   0  0  0  0  0  0  0  0  0  0  0  0
   68.5990   57.3770   34.7370 C   0  0  0  0  0  0  0  0  0  0  0  0
   67.8640   57.2930   33.9160 N   0  0  0  0  0  0  0  0  0  0  0  0
   69.3110   56.4300   35.5480 N   0  0  0  0  0  0  0  0  0  0  0  0
   69.9940   56.7370   36.7710 C   0  0  0  0  0  2  0  0  0  0  0  0
   71.0130   55.5940   36.9580 C   0  0  0  0  0  2  0  0  0  0  0  0
   70.4120   54.3770   37.0760 O   0  0  0  0  0  0  0  0  0  0  0  0
   69.3360   54.1650   36.2660 C   0  0  0  0  0  2  0  0  0  0  0  0
   69.3260   55.0590   35.0670 C   0  0  0  0  0  2  0  0  0  0  0  0
   63.3900   57.2640   29.1450 C   0  0  0  0  0  0  0  0  0  0  0  0
   62.8050   56.1450   28.7210 N   0  0  0  0  0  0  0  0  0  0  0  0
   61.9770   56.4090   27.7300 O   0  0  0  0  0  0  0  0  0  0  0  0
   61.9960   57.7070   27.4780 C   0  0  0  0  0  0  0  0  0  0  0  0
   62.8620   58.1970   28.3540 N   0  0  0  0  0  0  0  0  0  0  0  0
   61.1540   58.2200   26.4210 C   0  0  0  0  0  0  0  0  0  0  0  0
   60.8930   57.4670   25.3160 C   0  0  0  0  0  3  0  0  0  0  0  0
   60.0850   57.9140   24.2630 C   0  0  0  0  0  3  0  0  0  0  0  0
   59.5150   59.1490   24.3030 C   0  0  0  0  0  3  0  0  0  0  0  0
   59.7520   59.9380   25.3930 C   0  0  0  0  0  0  0  0  0  0  0  0
   59.1860   61.1930   25.4560 C   0  0  0  0  0  3  0  0  0  0  0  0
   59.3860   62.0370   26.5280 C   0  0  0  0  0  3  0  0  0  0  0  0
   60.1960   61.5700   27.5690 C   0  0  0  0  0  3  0  0  0  0  0  0
   60.7390   60.3100   27.4600 C   0  0  0  0  0  3  0  0  0  0  0  0
   60.5540   59.4560   26.4040 C   0  0  0  0  0  0  0  0  0  0  0  0
  2  1  1  0  0  0  0
  2  7  1  0  0  0  0
  3  2  2  0  0  0  0
  4  5  2  0  0  0  0
  4  3  1  0  0  0  0
  5  6  1  0  0  0  0
  6  1  2  0  0  0  0
  7  8  2  0  0  0  0
  7 11  1  0  0  0  0
  8  9  1  0  0  0  0
 10  9  1  0  0  0  0
 10 12  1  0  0  0  0
 11 10  2  0  0  0  0
 12 13  1  0  0  0  0
 13 14  1  0  0  0  0
 14 15  1  0  0  0  0
 16 15  1  0  0  0  0
 17 12  1  0  0  0  0
 17 16  1  0  0  0  0
 18  5  1  0  0  0  0
 19 18  2  0  0  0  0
 20 19  1  0  0  0  0
 21 20  1  0  0  0  0
 21 22  2  0  0  0  0
 22 18  1  0  0  0  0
 23 21  1  0  0  0  0
 24 23  2  0  0  0  0
 25 26  2  0  0  0  0
 25 24  1  0  0  0  0
 26 27  1  0  0  0  0
 27 28  2  0  0  0  0
 27 32  1  0  0  0  0
 28 29  1  0  0  0  0
 29 30  2  0  0  0  0
 31 30  1  0  0  0  0
 32 23  1  0  0  0  0
 32 31  2  0  0  0  0
M  END
>  <minimizedAffinity>
-7.89195824

$$$$

 OpenBabel03242509293D

 32 37  0  0  0  0  0  0  0  0999 V2000
   62.6220   58.2290   29.1300 C   0  0  0  0  0  3  0  0  0  0  0  0
   63.0200   57.5120   27.9690 C   0  0  0  0  0  0  0  0  0  0  0  0
   64.3440   57.0700   27.8540 C   0  0  0  0  0  3  0  0  0  0  0  0
   65.2050   57.3490   28.8700 N   0  0  0  0  0  0  0  0  0  0  0  0
   64.7840   58.0310   29.9510 C   0  0  0  0  0  0  0  0  0  0  0  0
   63.5210   58.4600   30.0760 N   0  0  0  0  0  0  0  0  0  0  0  0
   61.9980   57.2680   26.9310 C   0  0  0  0  0  0  0  0  0  0  0  0
   61.7100   55.9520   26.5190 C   0  0  0  0  0  3  0  0  0  0  0  0
   60.3980   56.1850   25.2390 S   0  0  0  0  0  0  0  0  0  0  0  0
   60.4920   58.0640   25.5080 C   0  0  0  0  0  0  0  0  0  0  0  0
   61.2700   58.1410   26.2900 N   0  0  0  0  0  0  0  0  0  0  0  0
   59.6860   59.0170   24.7970 N   0  0  0  0  0  0  0  0  0  0  0  0
   58.5130   58.7020   24.0350 C   0  0  0  0  0  2  0  0  0  0  0  0
   58.3380   59.8860   23.0620 C   0  0  0  0  0  2  0  0  0  0  0  0
   58.1440   61.0680   23.7120 O   0  0  0  0  0  0  0  0  0  0  0  0
   58.8890   61.2550   24.8390 C   0  0  0  0  0  2  0  0  0  0  0  0
   60.1170   60.4030   24.8720 C   0  0  0  0  0  2  0  0  0  0  0  0
   65.7750   58.2860   30.9910 C   0  0  0  0  0  0  0  0  0  0  0  0
   65.8070   59.1750   31.9830 N   0  0  0  0  0  0  0  0  0  0  0  0
   66.9130   59.0360   32.6860 O   0  0  0  0  0  0  0  0  0  0  0  0
   67.6360   58.0530   32.1760 C   0  0  0  0  0  0  0  0  0  0  0  0
   66.9170   57.6180   31.1500 N   0  0  0  0  0  0  0  0  0  0  0  0
   68.8980   57.7260   32.7990 C   0  0  0  0  0  0  0  0  0  0  0  0
   70.0180   58.4500   32.5180 C   0  0  0  0  0  3  0  0  0  0  0  0
   71.2650   58.1780   33.0920 C   0  0  0  0  0  3  0  0  0  0  0  0
   71.4120   57.1530   33.9760 C   0  0  0  0  0  3  0  0  0  0  0  0
   70.3150   56.4000   34.2860 C   0  0  0  0  0  0  0  0  0  0  0  0
   70.4390   55.3570   35.1770 C   0  0  0  0  0  3  0  0  0  0  0  0
   69.3700   54.5600   35.5310 C   0  0  0  0  0  3  0  0  0  0  0  0
   68.1330   54.8510   34.9460 C   0  0  0  0  0  3  0  0  0  0  0  0
   68.0590   55.9030   34.0610 C   0  0  0  0  0  3  0  0  0  0  0  0
   69.1080   56.7060   33.6950 C   0  0  0  0  0  0  0  0  0  0  0  0
  1  6  2  0  0  0  0
  2  1  1  0  0  0  0
  3  2  2  0  0  0  0
  3  4  1  0  0  0  0
  4  5  2  0  0  0  0
  5  6  1  0  0  0  0
  5 18  1  0  0  0  0
  7  2  1  0  0  0  0
  8  7  2  0  0  0  0
  9 10  1  0  0  0  0
  9  8  1  0  0  0  0
 10 11  2  0  0  0  0
 11  7  1  0  0  0  0
 12 17  1  0  0  0  0
 12 10  1  0  0  0  0
 13 12  1  0  0  0  0
 14 15  1  0  0  0  0
 14 13  1  0  0  0  0
 15 16  1  0  0  0  0
 16 17  1  0  0  0  0
 18 22  1  0  0  0  0
 18 19  2  0  0  0  0
 19 20  1  0  0  0  0
 21 20  1  0  0  0  0
 21 23  1  0  0  0  0
 22 21  2  0  0  0  0
 23 32  1  0  0  0  0
 24 23  2  0  0  0  0
 24 25  1  0  0  0  0
 25 26  2  0  0  0  0
 26 27  1  0  0  0  0
 27 28  1  0  0  0  0
 28 29  2  0  0  0  0
 30 29  1  0  0  0  0
 31 30  2  0  0  0  0
 32 31  1  0  0  0  0
 32 27  2  0  0  0  0
M  END
>  <minimizedAffinity>
-7.76507282

$$$$

 OpenBabel03242509293D

 32 37  0  0  0  0  0  0  0  0999 V2000
   64.8090   57.0340   28.1140 C   0  0  0  0  0  3  0  0  0  0  0  0
   63.4760   57.4330   28.4080 C   0  0  0  0  0  0  0  0  0  0  0  0
   63.1620   57.8830   29.6970 C   0  0  0  0  0  3  0  0  0  0  0  0
   64.1550   57.9200   30.6250 N   0  0  0  0  0  0  0  0  0  0  0  0
   65.4040   57.5330   30.3020 C   0  0  0  0  0  0  0  0  0  0  0  0
   65.7200   57.1000   29.0750 N   0  0  0  0  0  0  0  0  0  0  0  0
   62.4810   57.3490   27.3210 C   0  0  0  0  0  0  0  0  0  0  0  0
   62.3450   56.1600   26.5770 C   0  0  0  0  0  3  0  0  0  0  0  0
   61.0030   56.5620   25.3730 S   0  0  0  0  0  0  0  0  0  0  0  0
   60.8770   58.3050   26.1200 C   0  0  0  0  0  0  0  0  0  0  0  0
   61.6480   58.2670   26.9110 N   0  0  0  0  0  0  0  0  0  0  0  0
   59.9580   59.3090   25.6620 N   0  0  0  0  0  0  0  0  0  0  0  0
   58.8230   59.0680   24.8200 C   0  0  0  0  0  2  0  0  0  0  0  0
   58.5000   60.4340   24.1810 C   0  0  0  0  0  2  0  0  0  0  0  0
   58.1750   61.3770   25.1090 O   0  0  0  0  0  0  0  0  0  0  0  0
   58.9030   61.3520   26.2620 C   0  0  0  0  0  2  0  0  0  0  0  0
   60.2240   60.6680   26.1010 C   0  0  0  0  0  2  0  0  0  0  0  0
   66.4060   57.6060   31.3590 C   0  0  0  0  0  0  0  0  0  0  0  0
   67.1150   58.6280   31.8370 N   0  0  0  0  0  0  0  0  0  0  0  0
   67.9090   58.2210   32.8060 O   0  0  0  0  0  0  0  0  0  0  0  0
   67.7430   56.9210   32.9920 C   0  0  0  0  0  0  0  0  0  0  0  0
   66.8250   56.5800   32.0990 N   0  0  0  0  0  0  0  0  0  0  0  0
   68.5220   56.2630   34.0160 C   0  0  0  0  0  0  0  0  0  0  0  0
   67.9090   55.5480   35.0010 C   0  0  0  0  0  3  0  0  0  0  0  0
   68.6140   54.8910   36.0170 C   0  0  0  0  0  3  0  0  0  0  0  0
   69.9740   54.9430   36.0610 C   0  0  0  0  0  3  0  0  0  0  0  0
   70.6290   55.6500   35.0930 C   0  0  0  0  0  0  0  0  0  0  0  0
   72.0050   55.7170   35.1180 C   0  0  0  0  0  3  0  0  0  0  0  0
   72.7250   56.4150   34.1700 C   0  0  0  0  0  3  0  0  0  0  0  0
   72.0000   57.0630   33.1640 C   0  0  0  0  0  3  0  0  0  0  0  0
   70.6270   56.9670   33.1820 C   0  0  0  0  0  3  0  0  0  0  0  0
   69.8920   56.2810   34.1140 C   0  0  0  0  0  0  0  0  0  0  0  0
  1  2  1  0  0  0  0
  1  6  2  0  0  0  0
  2  3  2  0  0  0  0
  3  4  1  0  0  0  0
  5  4  2  0  0  0  0
  5 18  1  0  0  0  0
  6  5  1  0  0  0  0
  7  2  1  0  0  0  0
  8  7  2  0  0  0  0
  9 10  1  0  0  0  0
  9  8  1  0  0  0  0
 10 11  2  0  0  0  0
 11  7  1  0  0  0  0
 12 17  1  0  0  0  0
 12 10  1  0  0  0  0
 13 12  1  0  0  0  0
 14 13  1  0  0  0  0
 14 15  1  0  0  0  0
 15 16  1  0  0  0  0
 17 16  1  0  0  0  0
 18 19  2  0  0  0  0
 18 22  1  0  0  0  0
 19 20  1  0  0  0  0
 20 21  1  0  0  0  0
 21 23  1  0  0  0  0
 22 21  2  0  0  0  0
 23 32  2  0  0  0  0
 23 24  1  0  0  0  0
 24 25  2  0  0  0  0
 25 26  1  0  0  0  0
 27 28  1  0  0  0  0
 27 26  2  0  0  0  0
 29 28  2  0  0  0  0
 30 31  2  0  0  0  0
 30 29  1  0  0  0  0
 31 32  1  0  0  0  0
 32 27  1  0  0  0  0
M  END
>  <minimizedAffinity>
-7.58344698

$$$$

 OpenBabel03242509293D

 32 37  0  0  0  0  0  0  0  0999 V2000
   66.0360   57.6280   30.4410 C   0  0  0  0  0  3  0  0  0  0  0  0
   65.6540   58.8730   31.0120 C   0  0  0  0  0  0  0  0  0  0  0  0
   64.3820   59.3920   30.7370 C   0  0  0  0  0  3  0  0  0  0  0  0
   63.5570   58.6780   29.9260 N   0  0  0  0  0  0  0  0  0  0  0  0
   63.9610   57.5030   29.4080 C   0  0  0  0  0  0  0  0  0  0  0  0
   65.1730   56.9920   29.6610 N   0  0  0  0  0  0  0  0  0  0  0  0
   66.6330   59.5590   31.8770 C   0  0  0  0  0  0  0  0  0  0  0  0
   66.5390   59.4480   33.2780 C   0  0  0  0  0  3  0  0  0  0  0  0
   67.9590   60.4630   33.8820 S   0  0  0  0  0  0  0  0  0  0  0  0
   68.4230   60.8570   32.0810 C   0  0  0  0  0  0  0  0  0  0  0  0
   67.6440   60.3060   31.5230 N   0  0  0  0  0  0  0  0  0  0  0  0
   69.5370   61.6790   31.7010 N   0  0  0  0  0  0  0  0  0  0  0  0
   70.6170   62.0590   32.5660 C   0  0  0  0  0  2  0  0  0  0  0  0
   71.2250   63.3200   31.9170 C   0  0  0  0  0  2  0  0  0  0  0  0
   71.7160   63.0760   30.6700 O   0  0  0  0  0  0  0  0  0  0  0  0
   70.9750   62.2360   29.8930 C   0  0  0  0  0  2  0  0  0  0  0  0
   69.5460   62.1520   30.3270 C   0  0  0  0  0  2  0  0  0  0  0  0
   63.0110   56.8050   28.5490 C   0  0  0  0  0  0  0  0  0  0  0  0
   62.5920   55.5400   28.5390 N   0  0  0  0  0  0  0  0  0  0  0  0
   61.7160   55.3560   27.5720 O   0  0  0  0  0  0  0  0  0  0  0  0
   61.5370   56.4930   26.9200 C   0  0  0  0  0  0  0  0  0  0  0  0
   62.3360   57.3520   27.5390 N   0  0  0  0  0  0  0  0  0  0  0  0
   60.6090   56.5180   25.8130 C   0  0  0  0  0  0  0  0  0  0  0  0
   59.9070   55.4020   25.4710 C   0  0  0  0  0  3  0  0  0  0  0  0
   58.9960   55.3710   24.4080 C   0  0  0  0  0  3  0  0  0  0  0  0
   58.7720   56.4820   23.6550 C   0  0  0  0  0  3  0  0  0  0  0  0
   59.4560   57.6240   23.9630 C   0  0  0  0  0  0  0  0  0  0  0  0
   59.2460   58.7620   23.2140 C   0  0  0  0  0  3  0  0  0  0  0  0
   59.9050   59.9450   23.4740 C   0  0  0  0  0  3  0  0  0  0  0  0
   60.8100   59.9540   24.5410 C   0  0  0  0  0  3  0  0  0  0  0  0
   60.9860   58.7930   25.2590 C   0  0  0  0  0  3  0  0  0  0  0  0
   60.3420   57.6070   25.0180 C   0  0  0  0  0  0  0  0  0  0  0  0
  1  2  1  0  0  0  0
  2  7  1  0  0  0  0
  3  2  2  0  0  0  0
  4  3  1  0  0  0  0
  5  6  1  0  0  0  0
  5  4  2  0  0  0  0
  6  1  2  0  0  0  0
  7  8  2  0  0  0  0
  8  9  1  0  0  0  0
 10  9  1  0  0  0  0
 11  7  1  0  0  0  0
 11 10  2  0  0  0  0
 12 10  1  0  0  0  0
 12 13  1  0  0  0  0
 14 13  1  0  0  0  0
 15 14  1  0  0  0  0
 16 17  1  0  0  0  0
 16 15  1  0  0  0  0
 17 12  1  0  0  0  0
 18  5  1  0  0  0  0
 19 18  2  0  0  0  0
 20 19  1  0  0  0  0
 21 22  2  0  0  0  0
 21 20  1  0  0  0  0
 22 18  1  0  0  0  0
 23 21  1  0  0  0  0
 24 23  1  0  0  0  0
 25 24  2  0  0  0  0
 26 27  2  0  0  0  0
 26 25  1  0  0  0  0
 27 32  1  0  0  0  0
 28 29  2  0  0  0  0
 28 27  1  0  0  0  0
 29 30  1  0  0  0  0
 30 31  2  0  0  0  0
 32 31  1  0  0  0  0
 32 23  2  0  0  0  0
M  END
>  <minimizedAffinity>
-7.4514389

$$$$

 OpenBabel03242509293D

 32 37  0  0  0  0  0  0  0  0999 V2000
   66.5050   57.0040   30.6280 C   0  0  0  0  0  3  0  0  0  0  0  0
   65.8940   57.5330   31.7970 C   0  0  0  0  0  0  0  0  0  0  0  0
   64.5810   58.0160   31.7280 C   0  0  0  0  0  3  0  0  0  0  0  0
   63.9360   57.9580   30.5320 N   0  0  0  0  0  0  0  0  0  0  0  0
   64.5540   57.4480   29.4500 C   0  0  0  0  0  0  0  0  0  0  0  0
   65.8090   56.9820   29.4990 N   0  0  0  0  0  0  0  0  0  0  0  0
   66.6910   57.5440   33.0400 C   0  0  0  0  0  0  0  0  0  0  0  0
   67.5570   56.4730   33.3340 C   0  0  0  0  0  3  0  0  0  0  0  0
   68.3000   56.9590   34.9540 S   0  0  0  0  0  0  0  0  0  0  0  0
   67.2720   58.5580   34.9280 C   0  0  0  0  0  0  0  0  0  0  0  0
   66.7220   58.4550   33.9750 N   0  0  0  0  0  0  0  0  0  0  0  0
   67.3130   59.5540   35.9610 N   0  0  0  0  0  0  0  0  0  0  0  0
   68.3220   59.6510   36.9760 C   0  0  0  0  0  2  0  0  0  0  0  0
   67.6710   60.4690   38.1110 C   0  0  0  0  0  2  0  0  0  0  0  0
   67.3180   61.7230   37.7100 O   0  0  0  0  0  0  0  0  0  0  0  0
   66.7960   61.8200   36.4540 C   0  0  0  0  0  2  0  0  0  0  0  0
   66.2340   60.5270   35.9560 C   0  0  0  0  0  2  0  0  0  0  0  0
   63.7880   57.4260   28.2090 C   0  0  0  0  0  0  0  0  0  0  0  0
   64.0770   56.9480   27.0000 N   0  0  0  0  0  0  0  0  0  0  0  0
   63.0700   57.1510   26.1740 O   0  0  0  0  0  0  0  0  0  0  0  0
   62.0930   57.7670   26.8190 C   0  0  0  0  0  0  0  0  0  0  0  0
   62.5600   57.9190   28.0500 N   0  0  0  0  0  0  0  0  0  0  0  0
   60.8830   58.0890   26.0970 C   0  0  0  0  0  0  0  0  0  0  0  0
   60.5320   59.3860   25.8750 C   0  0  0  0  0  3  0  0  0  0  0  0
   59.3710   59.7540   25.1830 C   0  0  0  0  0  3  0  0  0  0  0  0
   58.5270   58.8050   24.6930 C   0  0  0  0  0  3  0  0  0  0  0  0
   58.8410   57.4900   24.8940 C   0  0  0  0  0  0  0  0  0  0  0  0
   58.0010   56.5120   24.4080 C   0  0  0  0  0  3  0  0  0  0  0  0
   58.2610   55.1680   24.5780 C   0  0  0  0  0  3  0  0  0  0  0  0
   59.4270   54.8240   25.2720 C   0  0  0  0  0  3  0  0  0  0  0  0
   60.2330   55.8360   25.7380 C   0  0  0  0  0  3  0  0  0  0  0  0
   59.9930   57.1770   25.5810 C   0  0  0  0  0  0  0  0  0  0  0  0
  1  2  1  0  0  0  0
  2  7  1  0  0  0  0
  3  2  2  0  0  0  0
  4  3  1  0  0  0  0
  5  6  1  0  0  0  0
  5  4  2  0  0  0  0
  6  1  2  0  0  0  0
  7  8  2  0  0  0  0
  7 11  1  0  0  0  0
  8  9  1  0  0  0  0
 10  9  1  0  0  0  0
 10 12  1  0  0  0  0
 11 10  2  0  0  0  0
 12 13  1  0  0  0  0
 13 14  1  0  0  0  0
 15 14  1  0  0  0  0
 16 15  1  0  0  0  0
 17 12  1  0  0  0  0
 17 16  1  0  0  0  0
 18  5  1  0  0  0  0
 19 18  2  0  0  0  0
 20 21  1  0  0  0  0
 20 19  1  0  0  0  0
 21 22  2  0  0  0  0
 22 18  1  0  0  0  0
 23 21  1  0  0  0  0
 24 23  1  0  0  0  0
 25 24  2  0  0  0  0
 26 27  2  0  0  0  0
 26 25  1  0  0  0  0
 27 32  1  0  0  0  0
 28 29  2  0  0  0  0
 28 27  1  0  0  0  0
 29 30  1  0  0  0  0
 30 31  2  0  0  0  0
 32 31  1  0  0  0  0
 32 23  2  0  0  0  0
M  END
>  <minimizedAffinity>
-7.41687775

$$$$
