
 OpenBabel03242509253D

 37 42  0  0  0  0  0  0  0  0999 V2000
   59.9220   60.8160   28.3930 O   0  0  0  0  0  0  0  0  0  0  0  0
   60.9060   58.7630   24.3850 N   0  0  0  0  0  0  0  0  0  0  0  0
   60.0770   59.8090   24.1830 C   0  0  0  0  0  3  0  0  0  0  0  0
   59.8470   60.3430   25.3950 N   0  0  0  0  0  0  0  0  0  0  0  0
   60.5170   59.6380   26.3050 C   0  0  0  0  0  0  0  0  0  0  0  0
   60.5770   59.8220   27.6760 C   0  0  0  0  0  0  0  0  0  0  0  0
   61.3410   58.9520   28.3680 N   0  0  0  0  0  0  0  0  0  0  0  0
   62.0170   57.9520   27.7790 C   0  0  0  0  0  0  0  0  0  0  0  0
   61.9440   57.7930   26.4320 N   0  0  0  0  0  0  0  0  0  0  0  0
   61.1990   58.6270   25.6800 C   0  0  0  0  0  0  0  0  0  0  0  0
   61.2650   58.1510   23.6390 H   0  0  0  0  0  0  0  0  0  0  0  0
   62.8220   57.0710   28.6770 C   0  0  0  0  0  2  0  0  0  0  0  0
   64.2970   57.4580   28.5560 C   0  0  0  0  0  2  0  0  0  0  0  0
   64.8510   57.5480   29.9210 C   0  0  0  0  0  0  0  0  0  0  0  0
   64.1280   58.1390   30.9240 C   0  0  0  0  0  3  0  0  0  0  0  0
   64.7670   58.1590   32.1660 C   0  0  0  0  0  3  0  0  0  0  0  0
   66.0150   57.6240   32.3440 C   0  0  0  0  0  3  0  0  0  0  0  0
   66.6950   57.0440   31.3030 C   0  0  0  0  0  3  0  0  0  0  0  0
   66.0800   57.0220   30.0960 N   0  0  0  0  0  0  0  0  0  0  0  0
   60.2250   62.1640   28.2520 C   0  0  0  0  0  0  0  0  0  0  0  0
   59.6040   62.7600   27.3210 O   0  0  0  0  0  0  0  0  0  0  0  0
   61.5940   64.6120   30.5650 C   0  0  0  0  0  3  0  0  0  0  0  0
   62.9170   64.2120   30.7190 C   0  0  0  0  0  3  0  0  0  0  0  0
   63.3500   63.0800   30.0150 C   0  0  0  0  0  0  0  0  0  0  0  0
   62.4500   62.4290   29.2140 N   0  0  0  0  0  0  0  0  0  0  0  0
   61.1660   62.8470   29.0890 C   0  0  0  0  0  0  0  0  0  0  0  0
   60.7750   63.9260   29.7680 N   0  0  0  0  0  0  0  0  0  0  0  0
   64.7270   62.6230   30.1440 C   0  0  0  0  0  0  0  0  0  0  0  0
   65.2000   61.7740   31.1070 C   0  0  0  0  0  3  0  0  0  0  0  0
   66.5180   61.6070   30.8730 N   0  0  0  0  0  0  0  0  0  0  0  0
   66.8590   62.3310   29.7920 C   0  0  0  0  0  0  0  0  0  0  0  0
   68.1070   62.4470   29.2050 C   0  0  0  0  0  3  0  0  0  0  0  0
   68.1920   63.2590   28.0960 C   0  0  0  0  0  3  0  0  0  0  0  0
   67.1090   63.9410   27.5680 C   0  0  0  0  0  3  0  0  0  0  0  0
   65.8710   63.7880   28.1980 C   0  0  0  0  0  3  0  0  0  0  0  0
   65.7410   62.9960   29.2980 C   0  0  0  0  0  0  0  0  0  0  0  0
   67.1560   61.0210   31.4290 H   0  0  0  0  0  0  0  0  0  0  0  0
  2 10  1  0  0  0  0
  3  2  1  0  0  0  0
  3  4  2  0  0  0  0
  4  5  1  0  0  0  0
  5  6  1  0  0  0  0
  6  7  2  0  0  0  0
  6  1  1  0  0  0  0
  8  7  1  0  0  0  0
  8 12  1  0  0  0  0
  9  8  2  0  0  0  0
 10  5  2  0  0  0  0
 10  9  1  0  0  0  0
 11  2  1  0  0  0  0
 13 12  1  0  0  0  0
 13 14  1  0  0  0  0
 14 19  2  0  0  0  0
 14 15  1  0  0  0  0
 15 16  2  0  0  0  0
 16 17  1  0  0  0  0
 18 17  2  0  0  0  0
 19 18  1  0  0  0  0
 20  1  1  0  0  0  0
 20 26  1  0  0  0  0
 21 20  2  0  0  0  0
 22 23  1  0  0  0  0
 24 28  1  0  0  0  0
 24 23  2  0  0  0  0
 25 24  1  0  0  0  0
 26 25  2  0  0  0  0
 26 27  1  0  0  0  0
 27 22  2  0  0  0  0
 28 29  2  0  0  0  0
 30 29  1  0  0  0  0
 30 37  1  0  0  0  0
 31 30  1  0  0  0  0
 32 31  2  0  0  0  0
 33 32  1  0  0  0  0
 34 33  2  0  0  0  0
 34 35  1  0  0  0  0
 35 36  2  0  0  0  0
 36 31  1  0  0  0  0
 36 28  1  0  0  0  0
M  END
>  <minimizedAffinity>
-7.96019077

$$$$

 OpenBabel03242509253D

 37 42  0  0  0  0  0  0  0  0999 V2000
   65.3370   57.4140   30.8530 O   0  0  0  0  0  0  0  0  0  0  0  0
   69.1380   58.2820   33.3110 N   0  0  0  0  0  0  0  0  0  0  0  0
   68.8310   56.9700   33.3750 C   0  0  0  0  0  3  0  0  0  0  0  0
   67.7200   56.8100   32.6350 N   0  0  0  0  0  0  0  0  0  0  0  0
   67.3640   57.9940   32.1400 C   0  0  0  0  0  0  0  0  0  0  0  0
   66.2890   58.3090   31.3270 C   0  0  0  0  0  0  0  0  0  0  0  0
   66.1640   59.6030   30.9680 N   0  0  0  0  0  0  0  0  0  0  0  0
   67.0240   60.5540   31.3670 C   0  0  0  0  0  0  0  0  0  0  0  0
   68.0720   60.2200   32.1640 N   0  0  0  0  0  0  0  0  0  0  0  0
   68.2570   58.9450   32.5590 C   0  0  0  0  0  0  0  0  0  0  0  0
   69.9460   58.7150   33.7810 H   0  0  0  0  0  0  0  0  0  0  0  0
   66.7550   61.9420   30.8870 C   0  0  0  0  0  2  0  0  0  0  0  0
   66.5430   61.9080   29.3720 C   0  0  0  0  0  2  0  0  0  0  0  0
   67.4240   62.9290   28.7720 C   0  0  0  0  0  0  0  0  0  0  0  0
   66.9480   63.7660   27.7960 C   0  0  0  0  0  3  0  0  0  0  0  0
   67.8840   64.6840   27.3130 C   0  0  0  0  0  3  0  0  0  0  0  0
   69.1660   64.7280   27.7920 C   0  0  0  0  0  3  0  0  0  0  0  0
   69.5880   63.8650   28.7720 C   0  0  0  0  0  3  0  0  0  0  0  0
   68.6860   62.9720   29.2430 N   0  0  0  0  0  0  0  0  0  0  0  0
   64.2560   57.8120   30.0780 C   0  0  0  0  0  0  0  0  0  0  0  0
   63.3730   58.4830   30.6910 O   0  0  0  0  0  0  0  0  0  0  0  0
   65.1970   57.0350   26.6530 C   0  0  0  0  0  3  0  0  0  0  0  0
   63.9760   56.8860   26.0040 C   0  0  0  0  0  3  0  0  0  0  0  0
   62.8040   57.0560   26.7560 C   0  0  0  0  0  0  0  0  0  0  0  0
   62.9240   57.3590   28.0860 N   0  0  0  0  0  0  0  0  0  0  0  0
   64.1320   57.4950   28.6850 C   0  0  0  0  0  0  0  0  0  0  0  0
   65.2340   57.3300   27.9520 N   0  0  0  0  0  0  0  0  0  0  0  0
   61.5020   56.9100   26.1200 C   0  0  0  0  0  0  0  0  0  0  0  0
   60.7820   55.7500   26.0320 C   0  0  0  0  0  3  0  0  0  0  0  0
   59.6420   56.0430   25.3720 N   0  0  0  0  0  0  0  0  0  0  0  0
   59.6500   57.3510   25.0570 C   0  0  0  0  0  0  0  0  0  0  0  0
   58.6800   58.0690   24.3810 C   0  0  0  0  0  3  0  0  0  0  0  0
   58.9310   59.4080   24.1830 C   0  0  0  0  0  3  0  0  0  0  0  0
   60.0830   60.0390   24.6220 C   0  0  0  0  0  3  0  0  0  0  0  0
   61.0300   59.2680   25.3000 C   0  0  0  0  0  3  0  0  0  0  0  0
   60.8240   57.9390   25.5180 C   0  0  0  0  0  0  0  0  0  0  0  0
   58.8910   55.3750   25.1480 H   0  0  0  0  0  0  0  0  0  0  0  0
  1  6  1  0  0  0  0
  2  3  1  0  0  0  0
  2 11  1  0  0  0  0
  4  3  2  0  0  0  0
  5 10  2  0  0  0  0
  5  4  1  0  0  0  0
  6  5  1  0  0  0  0
  7  6  2  0  0  0  0
  7  8  1  0  0  0  0
  8  9  2  0  0  0  0
  9 10  1  0  0  0  0
 10  2  1  0  0  0  0
 12  8  1  0  0  0  0
 13 12  1  0  0  0  0
 14 19  1  0  0  0  0
 14 13  1  0  0  0  0
 15 14  2  0  0  0  0
 16 17  2  0  0  0  0
 16 15  1  0  0  0  0
 17 18  1  0  0  0  0
 18 19  2  0  0  0  0
 20 21  2  0  0  0  0
 20  1  1  0  0  0  0
 22 27  2  0  0  0  0
 23 22  1  0  0  0  0
 23 24  2  0  0  0  0
 24 25  1  0  0  0  0
 25 26  2  0  0  0  0
 26 20  1  0  0  0  0
 27 26  1  0  0  0  0
 28 24  1  0  0  0  0
 29 28  2  0  0  0  0
 30 29  1  0  0  0  0
 31 30  1  0  0  0  0
 31 36  1  0  0  0  0
 32 31  2  0  0  0  0
 33 32  1  0  0  0  0
 33 34  2  0  0  0  0
 34 35  1  0  0  0  0
 35 36  2  0  0  0  0
 36 28  1  0  0  0  0
 37 30  1  0  0  0  0
M  END
>  <minimizedAffinity>
-7.92682362

$$$$

 OpenBabel03242509253D

 37 42  0  0  0  0  0  0  0  0999 V2000
   67.8630   60.4420   32.0880 O   0  0  0  0  0  0  0  0  0  0  0  0
   68.3470   55.9350   32.9230 N   0  0  0  0  0  0  0  0  0  0  0  0
   69.3670   56.6250   33.4770 C   0  0  0  0  0  3  0  0  0  0  0  0
   69.1440   57.9190   33.1850 N   0  0  0  0  0  0  0  0  0  0  0  0
   68.0220   58.0080   32.4740 C   0  0  0  0  0  0  0  0  0  0  0  0
   67.4070   59.1360   31.9580 C   0  0  0  0  0  0  0  0  0  0  0  0
   66.2650   58.9380   31.2690 N   0  0  0  0  0  0  0  0  0  0  0  0
   65.7330   57.7190   31.0810 C   0  0  0  0  0  0  0  0  0  0  0  0
   66.3540   56.6270   31.5990 N   0  0  0  0  0  0  0  0  0  0  0  0
   67.4990   56.7540   32.2980 C   0  0  0  0  0  0  0  0  0  0  0  0
   68.2380   54.9130   32.9770 H   0  0  0  0  0  0  0  0  0  0  0  0
   64.4630   57.6590   30.2970 C   0  0  0  0  0  2  0  0  0  0  0  0
   64.7890   57.8470   28.8140 C   0  0  0  0  0  2  0  0  0  0  0  0
   63.8180   57.0520   28.0360 C   0  0  0  0  0  0  0  0  0  0  0  0
   62.8580   56.3130   28.6770 C   0  0  0  0  0  3  0  0  0  0  0  0
   62.0050   55.6070   27.8250 C   0  0  0  0  0  3  0  0  0  0  0  0
   62.1360   55.6640   26.4630 C   0  0  0  0  0  3  0  0  0  0  0  0
   63.1170   56.4220   25.8750 C   0  0  0  0  0  3  0  0  0  0  0  0
   63.9480   57.1080   26.6960 N   0  0  0  0  0  0  0  0  0  0  0  0
   68.4490   61.1380   31.0390 C   0  0  0  0  0  0  0  0  0  0  0  0
   69.6660   60.8610   30.8230 O   0  0  0  0  0  0  0  0  0  0  0  0
   67.5720   63.2680   28.2260 C   0  0  0  0  0  3  0  0  0  0  0  0
   66.4380   63.9420   28.6670 C   0  0  0  0  0  3  0  0  0  0  0  0
   65.9640   63.6620   29.9560 C   0  0  0  0  0  0  0  0  0  0  0  0
   66.6410   62.7420   30.7120 N   0  0  0  0  0  0  0  0  0  0  0  0
   67.7420   62.1030   30.2470 C   0  0  0  0  0  0  0  0  0  0  0  0
   68.1760   62.3840   29.0180 N   0  0  0  0  0  0  0  0  0  0  0  0
   64.7800   64.3430   30.4620 C   0  0  0  0  0  0  0  0  0  0  0  0
   64.7780   65.4200   31.3080 C   0  0  0  0  0  3  0  0  0  0  0  0
   63.4880   65.7430   31.5310 N   0  0  0  0  0  0  0  0  0  0  0  0
   62.7040   64.8920   30.8430 C   0  0  0  0  0  0  0  0  0  0  0  0
   61.3220   64.8650   30.7880 C   0  0  0  0  0  3  0  0  0  0  0  0
   60.7580   63.8840   30.0040 C   0  0  0  0  0  3  0  0  0  0  0  0
   61.5010   62.9560   29.2940 C   0  0  0  0  0  3  0  0  0  0  0  0
   62.8930   63.0290   29.3830 C   0  0  0  0  0  3  0  0  0  0  0  0
   63.4940   63.9820   30.1480 C   0  0  0  0  0  0  0  0  0  0  0  0
   63.1580   66.5140   32.1280 H   0  0  0  0  0  0  0  0  0  0  0  0
  2 11  1  0  0  0  0
  2  3  1  0  0  0  0
  4  3  2  0  0  0  0
  5  4  1  0  0  0  0
  6  1  1  0  0  0  0
  6  5  1  0  0  0  0
  7  6  2  0  0  0  0
  8  7  1  0  0  0  0
  8  9  2  0  0  0  0
  9 10  1  0  0  0  0
 10  5  2  0  0  0  0
 10  2  1  0  0  0  0
 12  8  1  0  0  0  0
 13 12  1  0  0  0  0
 14 15  1  0  0  0  0
 14 13  1  0  0  0  0
 16 15  2  0  0  0  0
 17 16  1  0  0  0  0
 18 17  2  0  0  0  0
 18 19  1  0  0  0  0
 19 14  2  0  0  0  0
 20  1  1  0  0  0  0
 21 20  2  0  0  0  0
 22 23  1  0  0  0  0
 22 27  2  0  0  0  0
 23 24  2  0  0  0  0
 24 28  1  0  0  0  0
 24 25  1  0  0  0  0
 26 25  2  0  0  0  0
 26 20  1  0  0  0  0
 27 26  1  0  0  0  0
 28 29  2  0  0  0  0
 29 30  1  0  0  0  0
 30 37  1  0  0  0  0
 31 30  1  0  0  0  0
 32 31  1  0  0  0  0
 33 32  2  0  0  0  0
 34 35  2  0  0  0  0
 34 33  1  0  0  0  0
 35 36  1  0  0  0  0
 36 28  1  0  0  0  0
 36 31  2  0  0  0  0
M  END
>  <minimizedAffinity>
-7.64542341

$$$$

 OpenBabel03242509253D

 37 42  0  0  0  0  0  0  0  0999 V2000
   65.9210   60.1110   32.6200 O   0  0  0  0  0  0  0  0  0  0  0  0
   67.7950   55.9100   32.3310 N   0  0  0  0  0  0  0  0  0  0  0  0
   68.2100   56.5300   33.4560 C   0  0  0  0  0  3  0  0  0  0  0  0
   67.6190   57.7370   33.4560 N   0  0  0  0  0  0  0  0  0  0  0  0
   66.8680   57.8440   32.3620 C   0  0  0  0  0  0  0  0  0  0  0  0
   66.0820   58.9060   31.9480 C   0  0  0  0  0  0  0  0  0  0  0  0
   65.4180   58.7460   30.7850 N   0  0  0  0  0  0  0  0  0  0  0  0
   65.5000   57.6240   30.0500 C   0  0  0  0  0  0  0  0  0  0  0  0
   66.2760   56.5950   30.4790 N   0  0  0  0  0  0  0  0  0  0  0  0
   66.9670   56.6890   31.6320 C   0  0  0  0  0  0  0  0  0  0  0  0
   68.0800   54.9610   32.0500 H   0  0  0  0  0  0  0  0  0  0  0  0
   64.7060   57.5950   28.7860 C   0  0  0  0  0  2  0  0  0  0  0  0
   63.4070   56.8250   29.0370 C   0  0  0  0  0  2  0  0  0  0  0  0
   62.5160   57.0590   27.8830 C   0  0  0  0  0  0  0  0  0  0  0  0
   61.9240   58.2820   27.7030 C   0  0  0  0  0  3  0  0  0  0  0  0
   61.1050   58.3690   26.5740 C   0  0  0  0  0  3  0  0  0  0  0  0
   60.9250   57.3070   25.7300 C   0  0  0  0  0  3  0  0  0  0  0  0
   61.5440   56.1030   25.9590 C   0  0  0  0  0  3  0  0  0  0  0  0
   62.3380   56.0130   27.0520 N   0  0  0  0  0  0  0  0  0  0  0  0
   66.5000   61.2950   32.1840 C   0  0  0  0  0  0  0  0  0  0  0  0
   67.5560   61.6350   32.7970 O   0  0  0  0  0  0  0  0  0  0  0  0
   66.2910   63.1240   29.0490 C   0  0  0  0  0  3  0  0  0  0  0  0
   64.9850   63.6020   29.0360 C   0  0  0  0  0  3  0  0  0  0  0  0
   64.1580   63.2930   30.1250 C   0  0  0  0  0  0  0  0  0  0  0  0
   64.6790   62.5380   31.1420 N   0  0  0  0  0  0  0  0  0  0  0  0
   65.9570   62.0870   31.1190 C   0  0  0  0  0  0  0  0  0  0  0  0
   66.7260   62.3930   30.0740 N   0  0  0  0  0  0  0  0  0  0  0  0
   62.7830   63.7720   30.1570 C   0  0  0  0  0  0  0  0  0  0  0  0
   62.3470   64.9070   30.7860 C   0  0  0  0  0  3  0  0  0  0  0  0
   61.0180   64.9880   30.5760 N   0  0  0  0  0  0  0  0  0  0  0  0
   60.6320   63.9330   29.8350 C   0  0  0  0  0  0  0  0  0  0  0  0
   59.3590   63.6250   29.3900 C   0  0  0  0  0  3  0  0  0  0  0  0
   59.2300   62.4770   28.6410 C   0  0  0  0  0  3  0  0  0  0  0  0
   60.2940   61.6480   28.3290 C   0  0  0  0  0  3  0  0  0  0  0  0
   61.5590   62.0060   28.8020 C   0  0  0  0  0  3  0  0  0  0  0  0
   61.7340   63.1320   29.5480 C   0  0  0  0  0  0  0  0  0  0  0  0
   60.4000   65.7340   30.9250 H   0  0  0  0  0  0  0  0  0  0  0  0
  2  3  1  0  0  0  0
  4  3  2  0  0  0  0
  5  4  1  0  0  0  0
  6  5  1  0  0  0  0
  6  1  1  0  0  0  0
  7  6  2  0  0  0  0
  8  9  2  0  0  0  0
  8  7  1  0  0  0  0
  9 10  1  0  0  0  0
 10  2  1  0  0  0  0
 10  5  2  0  0  0  0
 11  2  1  0  0  0  0
 12 13  1  0  0  0  0
 12  8  1  0  0  0  0
 14 13  1  0  0  0  0
 15 14  1  0  0  0  0
 16 15  2  0  0  0  0
 17 18  2  0  0  0  0
 17 16  1  0  0  0  0
 18 19  1  0  0  0  0
 19 14  2  0  0  0  0
 20  1  1  0  0  0  0
 20 21  2  0  0  0  0
 22 27  2  0  0  0  0
 23 22  1  0  0  0  0
 23 24  2  0  0  0  0
 24 28  1  0  0  0  0
 24 25  1  0  0  0  0
 26 25  2  0  0  0  0
 26 20  1  0  0  0  0
 27 26  1  0  0  0  0
 28 29  2  0  0  0  0
 30 29  1  0  0  0  0
 30 37  1  0  0  0  0
 31 30  1  0  0  0  0
 32 31  2  0  0  0  0
 33 32  1  0  0  0  0
 34 33  2  0  0  0  0
 34 35  1  0  0  0  0
 35 36  2  0  0  0  0
 36 31  1  0  0  0  0
 36 28  1  0  0  0  0
M  END
>  <minimizedAffinity>
-7.43800545

$$$$

 OpenBabel03242509253D

 37 42  0  0  0  0  0  0  0  0999 V2000
   66.5470   59.7490   34.2960 O   0  0  0  0  0  0  0  0  0  0  0  0
   68.2540   55.7460   32.7760 N   0  0  0  0  0  0  0  0  0  0  0  0
   68.9630   56.1840   33.8380 C   0  0  0  0  0  3  0  0  0  0  0  0
   68.3990   57.3450   34.2110 N   0  0  0  0  0  0  0  0  0  0  0  0
   67.3780   57.6040   33.3970 C   0  0  0  0  0  0  0  0  0  0  0  0
   66.5130   58.6850   33.4030 C   0  0  0  0  0  0  0  0  0  0  0  0
   65.5550   58.6960   32.4530 N   0  0  0  0  0  0  0  0  0  0  0  0
   65.4290   57.7210   31.5380 C   0  0  0  0  0  0  0  0  0  0  0  0
   66.2890   56.6700   31.5530 N   0  0  0  0  0  0  0  0  0  0  0  0
   67.2690   56.5960   32.4750 C   0  0  0  0  0  0  0  0  0  0  0  0
   68.4460   54.8730   32.2650 H   0  0  0  0  0  0  0  0  0  0  0  0
   64.3190   57.8720   30.5510 C   0  0  0  0  0  2  0  0  0  0  0  0
   64.9110   57.8720   29.1390 C   0  0  0  0  0  2  0  0  0  0  0  0
   63.9920   57.1160   28.2670 C   0  0  0  0  0  0  0  0  0  0  0  0
   62.9290   56.4360   28.8040 C   0  0  0  0  0  3  0  0  0  0  0  0
   62.1400   55.7610   27.8700 C   0  0  0  0  0  3  0  0  0  0  0  0
   62.4230   55.7910   26.5310 C   0  0  0  0  0  3  0  0  0  0  0  0
   63.5010   56.4890   26.0470 C   0  0  0  0  0  3  0  0  0  0  0  0
   64.2710   57.1440   26.9480 N   0  0  0  0  0  0  0  0  0  0  0  0
   66.9790   61.0180   33.9330 C   0  0  0  0  0  0  0  0  0  0  0  0
   66.1950   61.9630   34.2470 O   0  0  0  0  0  0  0  0  0  0  0  0
   70.5190   60.8550   33.1220 C   0  0  0  0  0  3  0  0  0  0  0  0
   70.6360   61.6720   32.0030 C   0  0  0  0  0  3  0  0  0  0  0  0
   69.4770   62.2930   31.5140 C   0  0  0  0  0  0  0  0  0  0  0  0
   68.2940   62.0630   32.1650 N   0  0  0  0  0  0  0  0  0  0  0  0
   68.2190   61.2580   33.2540 C   0  0  0  0  0  0  0  0  0  0  0  0
   69.3320   60.6780   33.7010 N   0  0  0  0  0  0  0  0  0  0  0  0
   69.5500   63.1570   30.3450 C   0  0  0  0  0  0  0  0  0  0  0  0
   70.6300   63.9130   29.9760 C   0  0  0  0  0  3  0  0  0  0  0  0
   70.2890   64.5620   28.8440 N   0  0  0  0  0  0  0  0  0  0  0  0
   69.0300   64.2210   28.5140 C   0  0  0  0  0  0  0  0  0  0  0  0
   68.2880   64.6540   27.4290 C   0  0  0  0  0  3  0  0  0  0  0  0
   67.0120   64.1500   27.3160 C   0  0  0  0  0  3  0  0  0  0  0  0
   66.4640   63.2570   28.2210 C   0  0  0  0  0  3  0  0  0  0  0  0
   67.2550   62.8520   29.2990 C   0  0  0  0  0  3  0  0  0  0  0  0
   68.5240   63.3250   29.4500 C   0  0  0  0  0  0  0  0  0  0  0  0
   70.8920   65.2110   28.3200 H   0  0  0  0  0  0  0  0  0  0  0  0
  2  3  1  0  0  0  0
  3  4  2  0  0  0  0
  5  6  1  0  0  0  0
  5  4  1  0  0  0  0
  6  1  1  0  0  0  0
  7  6  2  0  0  0  0
  8  9  2  0  0  0  0
  8  7  1  0  0  0  0
  9 10  1  0  0  0  0
 10  2  1  0  0  0  0
 10  5  2  0  0  0  0
 11  2  1  0  0  0  0
 12  8  1  0  0  0  0
 13 12  1  0  0  0  0
 14 15  1  0  0  0  0
 14 13  1  0  0  0  0
 16 15  2  0  0  0  0
 17 16  1  0  0  0  0
 18 17  2  0  0  0  0
 18 19  1  0  0  0  0
 19 14  2  0  0  0  0
 20 21  2  0  0  0  0
 20  1  1  0  0  0  0
 22 27  2  0  0  0  0
 23 22  1  0  0  0  0
 24 23  2  0  0  0  0
 24 25  1  0  0  0  0
 25 26  2  0  0  0  0
 26 27  1  0  0  0  0
 26 20  1  0  0  0  0
 28 24  1  0  0  0  0
 29 28  2  0  0  0  0
 30 29  1  0  0  0  0
 31 30  1  0  0  0  0
 31 36  1  0  0  0  0
 32 31  2  0  0  0  0
 33 32  1  0  0  0  0
 33 34  2  0  0  0  0
 34 35  1  0  0  0  0
 35 36  2  0  0  0  0
 36 28  1  0  0  0  0
 37 30  1  0  0  0  0
M  END
>  <minimizedAffinity>
-7.26202202

$$$$

 OpenBabel03242509253D

 37 42  0  0  0  0  0  0  0  0999 V2000
   65.3960   60.4110   32.0940 O   0  0  0  0  0  0  0  0  0  0  0  0
   67.6910   56.4140   32.1230 N   0  0  0  0  0  0  0  0  0  0  0  0
   68.0360   57.1590   33.1940 C   0  0  0  0  0  3  0  0  0  0  0  0
   67.3240   58.2950   33.1040 N   0  0  0  0  0  0  0  0  0  0  0  0
   66.5710   58.2400   32.0080 C   0  0  0  0  0  0  0  0  0  0  0  0
   65.6810   59.1800   31.5160 C   0  0  0  0  0  0  0  0  0  0  0  0
   65.0410   58.8630   30.3720 N   0  0  0  0  0  0  0  0  0  0  0  0
   65.2400   57.7020   29.7260 C   0  0  0  0  0  0  0  0  0  0  0  0
   66.1160   56.7940   30.2300 N   0  0  0  0  0  0  0  0  0  0  0  0
   66.7890   57.0480   31.3700 C   0  0  0  0  0  0  0  0  0  0  0  0
   68.0720   55.4800   31.9150 H   0  0  0  0  0  0  0  0  0  0  0  0
   64.4580   57.4930   28.4720 C   0  0  0  0  0  2  0  0  0  0  0  0
   63.1680   56.7430   28.8130 C   0  0  0  0  0  2  0  0  0  0  0  0
   62.2770   56.8220   27.6390 C   0  0  0  0  0  0  0  0  0  0  0  0
   61.9460   55.6880   26.9440 C   0  0  0  0  0  3  0  0  0  0  0  0
   61.0990   55.9030   25.8540 C   0  0  0  0  0  3  0  0  0  0  0  0
   60.6470   57.1530   25.5270 C   0  0  0  0  0  3  0  0  0  0  0  0
   61.0110   58.2550   26.2590 C   0  0  0  0  0  3  0  0  0  0  0  0
   61.8330   58.0530   27.3160 N   0  0  0  0  0  0  0  0  0  0  0  0
   65.6010   61.6150   31.4320 C   0  0  0  0  0  0  0  0  0  0  0  0
   66.8140   61.8990   31.1970 O   0  0  0  0  0  0  0  0  0  0  0  0
   62.8400   62.9730   29.4970 C   0  0  0  0  0  3  0  0  0  0  0  0
   62.4640   64.1040   30.2130 C   0  0  0  0  0  3  0  0  0  0  0  0
   63.1720   64.4100   31.3840 C   0  0  0  0  0  0  0  0  0  0  0  0
   64.1950   63.5800   31.7600 N   0  0  0  0  0  0  0  0  0  0  0  0
   64.5320   62.4840   31.0370 C   0  0  0  0  0  0  0  0  0  0  0  0
   63.8450   62.2110   29.9270 N   0  0  0  0  0  0  0  0  0  0  0  0
   62.8160   65.5850   32.1670 C   0  0  0  0  0  0  0  0  0  0  0  0
   63.2670   66.8580   31.9470 C   0  0  0  0  0  3  0  0  0  0  0  0
   62.7030   67.6440   32.8860 N   0  0  0  0  0  0  0  0  0  0  0  0
   61.9200   66.8830   33.6720 C   0  0  0  0  0  0  0  0  0  0  0  0
   61.1580   67.2820   34.7560 C   0  0  0  0  0  3  0  0  0  0  0  0
   60.4390   66.2990   35.3980 C   0  0  0  0  0  3  0  0  0  0  0  0
   60.4530   64.9700   35.0100 C   0  0  0  0  0  3  0  0  0  0  0  0
   61.2380   64.6210   33.9090 C   0  0  0  0  0  3  0  0  0  0  0  0
   61.9670   65.5600   33.2440 C   0  0  0  0  0  0  0  0  0  0  0  0
   62.8480   68.6590   32.9860 H   0  0  0  0  0  0  0  0  0  0  0  0
  2  3  1  0  0  0  0
  4  3  2  0  0  0  0
  5  4  1  0  0  0  0
  6  5  1  0  0  0  0
  6  1  1  0  0  0  0
  7  6  2  0  0  0  0
  8  9  2  0  0  0  0
  8  7  1  0  0  0  0
  9 10  1  0  0  0  0
 10  5  2  0  0  0  0
 10  2  1  0  0  0  0
 11  2  1  0  0  0  0
 12 13  1  0  0  0  0
 12  8  1  0  0  0  0
 14 13  1  0  0  0  0
 15 14  2  0  0  0  0
 16 15  1  0  0  0  0
 17 16  2  0  0  0  0
 17 18  1  0  0  0  0
 18 19  2  0  0  0  0
 19 14  1  0  0  0  0
 20  1  1  0  0  0  0
 21 20  2  0  0  0  0
 22 27  2  0  0  0  0
 22 23  1  0  0  0  0
 23 24  2  0  0  0  0
 24 25  1  0  0  0  0
 24 28  1  0  0  0  0
 26 20  1  0  0  0  0
 26 25  2  0  0  0  0
 27 26  1  0  0  0  0
 28 36  1  0  0  0  0
 29 28  2  0  0  0  0
 29 30  1  0  0  0  0
 30 37  1  0  0  0  0
 30 31  1  0  0  0  0
 31 32  1  0  0  0  0
 32 33  2  0  0  0  0
 34 33  1  0  0  0  0
 35 34  2  0  0  0  0
 36 31  2  0  0  0  0
 36 35  1  0  0  0  0
M  END
>  <minimizedAffinity>
-7.25555468

$$$$

 OpenBabel03242509253D

 37 42  0  0  0  0  0  0  0  0999 V2000
   61.8240   63.7800   30.6150 O   0  0  0  0  0  0  0  0  0  0  0  0
   64.8790   67.1750   31.2310 N   0  0  0  0  0  0  0  0  0  0  0  0
   63.7190   67.4720   31.8550 C   0  0  0  0  0  3  0  0  0  0  0  0
   62.8950   66.4350   31.6230 N   0  0  0  0  0  0  0  0  0  0  0  0
   63.5380   65.5380   30.8800 C   0  0  0  0  0  0  0  0  0  0  0  0
   63.0860   64.3200   30.4020 C   0  0  0  0  0  0  0  0  0  0  0  0
   63.9560   63.6010   29.6640 N   0  0  0  0  0  0  0  0  0  0  0  0
   65.2020   64.0240   29.3940 C   0  0  0  0  0  0  0  0  0  0  0  0
   65.6240   65.2220   29.8750 N   0  0  0  0  0  0  0  0  0  0  0  0
   64.8050   65.9910   30.6200 C   0  0  0  0  0  0  0  0  0  0  0  0
   65.7110   67.7820   31.2280 H   0  0  0  0  0  0  0  0  0  0  0  0
   66.0500   63.1180   28.5640 C   0  0  0  0  0  2  0  0  0  0  0  0
   67.1390   63.9480   27.8800 C   0  0  0  0  0  2  0  0  0  0  0  0
   68.4460   63.4590   28.3610 C   0  0  0  0  0  0  0  0  0  0  0  0
   69.6010   64.1020   27.9980 C   0  0  0  0  0  3  0  0  0  0  0  0
   70.7670   63.5360   28.5190 C   0  0  0  0  0  3  0  0  0  0  0  0
   70.7350   62.4310   29.3270 C   0  0  0  0  0  3  0  0  0  0  0  0
   69.5480   61.8270   29.6580 C   0  0  0  0  0  3  0  0  0  0  0  0
   68.4140   62.3700   29.1550 N   0  0  0  0  0  0  0  0  0  0  0  0
   60.8410   63.7630   29.6330 C   0  0  0  0  0  0  0  0  0  0  0  0
   60.3680   64.8970   29.3250 O   0  0  0  0  0  0  0  0  0  0  0  0
   58.7060   61.4640   27.7960 C   0  0  0  0  0  3  0  0  0  0  0  0
   59.4410   60.2840   27.7710 C   0  0  0  0  0  3  0  0  0  0  0  0
   60.6960   60.2740   28.3970 C   0  0  0  0  0  0  0  0  0  0  0  0
   61.1290   61.4250   29.0000 N   0  0  0  0  0  0  0  0  0  0  0  0
   60.3850   62.5580   29.0030 C   0  0  0  0  0  0  0  0  0  0  0  0
   59.1950   62.5450   28.4010 N   0  0  0  0  0  0  0  0  0  0  0  0
   61.5020   59.0620   28.3980 C   0  0  0  0  0  0  0  0  0  0  0  0
   62.3510   58.6670   29.3970 C   0  0  0  0  0  3  0  0  0  0  0  0
   62.9000   57.4980   29.0080 N   0  0  0  0  0  0  0  0  0  0  0  0
   62.4080   57.1700   27.7990 C   0  0  0  0  0  0  0  0  0  0  0  0
   62.7010   56.0550   27.0350 C   0  0  0  0  0  3  0  0  0  0  0  0
   62.0570   55.9530   25.8230 C   0  0  0  0  0  3  0  0  0  0  0  0
   61.1580   56.8980   25.3570 C   0  0  0  0  0  3  0  0  0  0  0  0
   60.8960   58.0050   26.1690 C   0  0  0  0  0  3  0  0  0  0  0  0
   61.5120   58.1460   27.3760 C   0  0  0  0  0  0  0  0  0  0  0  0
   63.5830   56.9480   29.5480 H   0  0  0  0  0  0  0  0  0  0  0  0
  2  3  1  0  0  0  0
  4  3  2  0  0  0  0
  5  4  1  0  0  0  0
  6  1  1  0  0  0  0
  6  5  1  0  0  0  0
  7  6  2  0  0  0  0
  8  7  1  0  0  0  0
  8  9  2  0  0  0  0
  9 10  1  0  0  0  0
 10  5  2  0  0  0  0
 10  2  1  0  0  0  0
 11  2  1  0  0  0  0
 12  8  1  0  0  0  0
 13 14  1  0  0  0  0
 13 12  1  0  0  0  0
 14 19  1  0  0  0  0
 15 14  2  0  0  0  0
 15 16  1  0  0  0  0
 16 17  2  0  0  0  0
 17 18  1  0  0  0  0
 19 18  2  0  0  0  0
 20  1  1  0  0  0  0
 21 20  2  0  0  0  0
 22 27  2  0  0  0  0
 23 22  1  0  0  0  0
 23 24  2  0  0  0  0
 24 28  1  0  0  0  0
 24 25  1  0  0  0  0
 25 26  2  0  0  0  0
 26 20  1  0  0  0  0
 27 26  1  0  0  0  0
 28 29  2  0  0  0  0
 30 29  1  0  0  0  0
 30 37  1  0  0  0  0
 31 30  1  0  0  0  0
 32 31  2  0  0  0  0
 33 32  1  0  0  0  0
 34 33  2  0  0  0  0
 34 35  1  0  0  0  0
 35 36  2  0  0  0  0
 36 31  1  0  0  0  0
 36 28  1  0  0  0  0
M  END
>  <minimizedAffinity>
-7.22652435

$$$$

 OpenBabel03242509253D

 37 42  0  0  0  0  0  0  0  0999 V2000
   60.3270   60.9130   29.0280 O   0  0  0  0  0  0  0  0  0  0  0  0
   60.6570   58.6590   25.0210 N   0  0  0  0  0  0  0  0  0  0  0  0
   59.8340   59.7220   24.8930 C   0  0  0  0  0  3  0  0  0  0  0  0
   59.7990   60.3140   26.0990 N   0  0  0  0  0  0  0  0  0  0  0  0
   60.5760   59.6280   26.9340 C   0  0  0  0  0  0  0  0  0  0  0  0
   60.8420   59.8680   28.2710 C   0  0  0  0  0  0  0  0  0  0  0  0
   61.6770   59.0050   28.8840 N   0  0  0  0  0  0  0  0  0  0  0  0
   62.2340   57.9590   28.2510 C   0  0  0  0  0  0  0  0  0  0  0  0
   61.9590   57.7450   26.9380 N   0  0  0  0  0  0  0  0  0  0  0  0
   61.1330   58.5690   26.2650 C   0  0  0  0  0  0  0  0  0  0  0  0
   60.8860   58.0040   24.2610 H   0  0  0  0  0  0  0  0  0  0  0  0
   63.1380   57.0920   29.0630 C   0  0  0  0  0  2  0  0  0  0  0  0
   64.5580   57.6600   28.9960 C   0  0  0  0  0  2  0  0  0  0  0  0
   65.0920   57.6960   30.3720 C   0  0  0  0  0  0  0  0  0  0  0  0
   64.3640   58.2690   31.3820 C   0  0  0  0  0  3  0  0  0  0  0  0
   64.9850   58.2380   32.6330 C   0  0  0  0  0  3  0  0  0  0  0  0
   66.2200   57.6750   32.8130 C   0  0  0  0  0  3  0  0  0  0  0  0
   66.9050   57.1150   31.7640 C   0  0  0  0  0  3  0  0  0  0  0  0
   66.3080   57.1430   30.5480 N   0  0  0  0  0  0  0  0  0  0  0  0
   60.6150   62.2450   28.7610 C   0  0  0  0  0  0  0  0  0  0  0  0
   59.8500   62.8030   27.9200 O   0  0  0  0  0  0  0  0  0  0  0  0
   62.3770   64.5820   30.9180 C   0  0  0  0  0  3  0  0  0  0  0  0
   63.7160   64.3520   30.6250 C   0  0  0  0  0  3  0  0  0  0  0  0
   64.0240   63.3750   29.6670 C   0  0  0  0  0  0  0  0  0  0  0  0
   62.9910   62.7010   29.0720 N   0  0  0  0  0  0  0  0  0  0  0  0
   61.6960   62.9520   29.3840 C   0  0  0  0  0  0  0  0  0  0  0  0
   61.4260   63.8850   30.2980 N   0  0  0  0  0  0  0  0  0  0  0  0
   65.4130   63.0990   29.3260 C   0  0  0  0  0  0  0  0  0  0  0  0
   66.0580   63.5250   28.1970 C   0  0  0  0  0  3  0  0  0  0  0  0
   67.3210   63.0570   28.2650 N   0  0  0  0  0  0  0  0  0  0  0  0
   67.4630   62.3590   29.4060 C   0  0  0  0  0  0  0  0  0  0  0  0
   68.5920   61.7100   29.8720 C   0  0  0  0  0  3  0  0  0  0  0  0
   68.4740   61.0610   31.0800 C   0  0  0  0  0  3  0  0  0  0  0  0
   67.3030   61.0360   31.8190 C   0  0  0  0  0  3  0  0  0  0  0  0
   66.1920   61.7070   31.3040 C   0  0  0  0  0  3  0  0  0  0  0  0
   66.2630   62.3620   30.1110 C   0  0  0  0  0  0  0  0  0  0  0  0
   68.0560   63.2100   27.5590 H   0  0  0  0  0  0  0  0  0  0  0  0
  2 10  1  0  0  0  0
  3  2  1  0  0  0  0
  3  4  2  0  0  0  0
  4  5  1  0  0  0  0
  5  6  1  0  0  0  0
  6  7  2  0  0  0  0
  6  1  1  0  0  0  0
  8  7  1  0  0  0  0
  8 12  1  0  0  0  0
  9  8  2  0  0  0  0
 10  5  2  0  0  0  0
 10  9  1  0  0  0  0
 11  2  1  0  0  0  0
 13 12  1  0  0  0  0
 13 14  1  0  0  0  0
 14 19  2  0  0  0  0
 14 15  1  0  0  0  0
 15 16  2  0  0  0  0
 16 17  1  0  0  0  0
 18 17  2  0  0  0  0
 19 18  1  0  0  0  0
 20  1  1  0  0  0  0
 20 26  1  0  0  0  0
 21 20  2  0  0  0  0
 23 22  1  0  0  0  0
 24 23  2  0  0  0  0
 25 26  2  0  0  0  0
 25 24  1  0  0  0  0
 26 27  1  0  0  0  0
 27 22  2  0  0  0  0
 28 24  1  0  0  0  0
 28 36  1  0  0  0  0
 29 30  1  0  0  0  0
 29 28  2  0  0  0  0
 30 31  1  0  0  0  0
 31 32  2  0  0  0  0
 31 36  1  0  0  0  0
 32 33  1  0  0  0  0
 33 34  2  0  0  0  0
 35 34  1  0  0  0  0
 36 35  2  0  0  0  0
 37 30  1  0  0  0  0
M  END
>  <minimizedAffinity>
-7.12975454

$$$$

 OpenBabel03242509253D

 37 42  0  0  0  0  0  0  0  0999 V2000
   63.3780   57.2010   29.2140 O   0  0  0  0  0  0  0  0  0  0  0  0
   60.8630   57.3180   25.3530 N   0  0  0  0  0  0  0  0  0  0  0  0
   61.7070   56.2650   25.3290 C   0  0  0  0  0  3  0  0  0  0  0  0
   62.3930   56.3100   26.4840 N   0  0  0  0  0  0  0  0  0  0  0  0
   61.9770   57.3620   27.1860 C   0  0  0  0  0  0  0  0  0  0  0  0
   62.3990   57.7990   28.4300 C   0  0  0  0  0  0  0  0  0  0  0  0
   61.8010   58.9070   28.9150 N   0  0  0  0  0  0  0  0  0  0  0  0
   60.8430   59.5670   28.2430 C   0  0  0  0  0  0  0  0  0  0  0  0
   60.4440   59.1180   27.0250 N   0  0  0  0  0  0  0  0  0  0  0  0
   61.0010   58.0170   26.4830 C   0  0  0  0  0  0  0  0  0  0  0  0
   60.2000   57.5520   24.6010 H   0  0  0  0  0  0  0  0  0  0  0  0
   60.2740   60.7760   28.9100 C   0  0  0  0  0  2  0  0  0  0  0  0
   60.7760   62.0240   28.1800 C   0  0  0  0  0  2  0  0  0  0  0  0
   61.3550   62.9320   29.1900 C   0  0  0  0  0  0  0  0  0  0  0  0
   62.7150   63.0170   29.3460 C   0  0  0  0  0  3  0  0  0  0  0  0
   63.1300   63.9100   30.3360 C   0  0  0  0  0  3  0  0  0  0  0  0
   62.2350   64.6350   31.0760 C   0  0  0  0  0  3  0  0  0  0  0  0
   60.8830   64.5100   30.8770 C   0  0  0  0  0  3  0  0  0  0  0  0
   60.4740   63.6440   29.9200 N   0  0  0  0  0  0  0  0  0  0  0  0
   64.7220   57.5400   29.1220 C   0  0  0  0  0  0  0  0  0  0  0  0
   65.2780   57.2420   28.0230 O   0  0  0  0  0  0  0  0  0  0  0  0
   66.7450   57.9610   32.1130 C   0  0  0  0  0  3  0  0  0  0  0  0
   66.8440   59.3410   32.2500 C   0  0  0  0  0  3  0  0  0  0  0  0
   66.2030   60.1460   31.2970 C   0  0  0  0  0  0  0  0  0  0  0  0
   65.5150   59.5310   30.2850 N   0  0  0  0  0  0  0  0  0  0  0  0
   65.4410   58.1820   30.1830 C   0  0  0  0  0  0  0  0  0  0  0  0
   66.0580   57.4350   31.1000 N   0  0  0  0  0  0  0  0  0  0  0  0
   66.2780   61.5970   31.3990 C   0  0  0  0  0  0  0  0  0  0  0  0
   66.1630   62.3240   32.5530 C   0  0  0  0  0  3  0  0  0  0  0  0
   66.2890   63.6230   32.2140 N   0  0  0  0  0  0  0  0  0  0  0  0
   66.4790   63.7070   30.8840 C   0  0  0  0  0  0  0  0  0  0  0  0
   66.6550   64.8460   30.1200 C   0  0  0  0  0  3  0  0  0  0  0  0
   66.8310   64.6580   28.7670 C   0  0  0  0  0  3  0  0  0  0  0  0
   66.8370   63.4110   28.1670 C   0  0  0  0  0  3  0  0  0  0  0  0
   66.6570   62.2920   28.9850 C   0  0  0  0  0  3  0  0  0  0  0  0
   66.4780   62.4310   30.3280 C   0  0  0  0  0  0  0  0  0  0  0  0
   66.2480   64.4190   32.8650 H   0  0  0  0  0  0  0  0  0  0  0  0
  2 10  1  0  0  0  0
  3  2  1  0  0  0  0
  3  4  2  0  0  0  0
  4  5  1  0  0  0  0
  5  6  1  0  0  0  0
  6  7  2  0  0  0  0
  6  1  1  0  0  0  0
  8 12  1  0  0  0  0
  8  7  1  0  0  0  0
  9  8  2  0  0  0  0
 10  9  1  0  0  0  0
 10  5  2  0  0  0  0
 11  2  1  0  0  0  0
 13 12  1  0  0  0  0
 13 14  1  0  0  0  0
 14 15  2  0  0  0  0
 14 19  1  0  0  0  0
 15 16  1  0  0  0  0
 16 17  2  0  0  0  0
 18 17  1  0  0  0  0
 19 18  2  0  0  0  0
 20  1  1  0  0  0  0
 20 26  1  0  0  0  0
 21 20  2  0  0  0  0
 22 23  1  0  0  0  0
 24 28  1  0  0  0  0
 24 23  2  0  0  0  0
 25 24  1  0  0  0  0
 26 25  2  0  0  0  0
 26 27  1  0  0  0  0
 27 22  2  0  0  0  0
 28 29  2  0  0  0  0
 30 29  1  0  0  0  0
 30 37  1  0  0  0  0
 31 30  1  0  0  0  0
 32 31  2  0  0  0  0
 33 32  1  0  0  0  0
 34 33  2  0  0  0  0
 34 35  1  0  0  0  0
 35 36  2  0  0  0  0
 36 31  1  0  0  0  0
 36 28  1  0  0  0  0
M  END
>  <minimizedAffinity>
-7.10746002

$$$$
