
 OpenBabel03242509233D

 32 37  0  0  0  0  0  0  0  0999 V2000
   62.4120   57.0260   28.4010 C   0  0  0  0  0  3  0  0  0  0  0  0
   62.7140   57.0330   27.0470 C   0  0  0  0  0  0  0  0  0  0  0  0
   64.0530   57.1130   26.6900 C   0  0  0  0  0  3  0  0  0  0  0  0
   64.9990   57.1800   27.6720 N   0  0  0  0  0  0  0  0  0  0  0  0
   64.6530   57.1700   28.9730 C   0  0  0  0  0  0  0  0  0  0  0  0
   63.3720   57.0930   29.3340 N   0  0  0  0  0  0  0  0  0  0  0  0
   61.6590   56.9590   26.0910 C   0  0  0  0  0  0  0  0  0  0  0  0
   60.9530   55.7730   25.7810 C   0  0  0  0  0  3  0  0  0  0  0  0
   60.0140   56.0630   24.8270 N   0  0  0  0  0  0  0  0  0  0  0  0
   60.1020   57.3790   24.5270 C   0  0  0  0  0  0  0  0  0  0  0  0
   59.3750   58.1530   23.6280 C   0  0  0  0  0  3  0  0  0  0  0  0
   59.6690   59.5090   23.5060 C   0  0  0  0  0  3  0  0  0  0  0  0
   60.6700   60.0760   24.2680 C   0  0  0  0  0  3  0  0  0  0  0  0
   61.3550   59.2530   25.1420 C   0  0  0  0  0  3  0  0  0  0  0  0
   61.1070   57.9050   25.3040 C   0  0  0  0  0  0  0  0  0  0  0  0
   59.3520   55.3930   24.4090 H   0  0  0  0  0  0  0  0  0  0  0  0
   65.7440   57.2460   29.9770 C   0  0  0  0  0  2  0  0  0  0  0  0
   65.7320   58.6240   30.5450 C   0  0  0  0  0  0  0  0  0  0  0  0
   66.0730   58.8330   31.8890 C   0  0  0  0  0  3  0  0  0  0  0  0
   65.9740   60.1830   32.1210 C   0  0  0  0  0  3  0  0  0  0  0  0
   65.5930   60.7480   30.9760 N   0  0  0  0  0  0  0  0  0  0  0  0
   65.4510   59.8150   30.0440 N   0  0  0  0  0  0  0  0  0  0  0  0
   65.3980   62.1540   30.8890 C   0  0  0  0  0  0  0  0  0  0  0  0
   64.6380   63.0350   31.6300 C   0  0  0  0  0  3  0  0  0  0  0  0
   64.7740   64.2900   31.1660 N   0  0  0  0  0  0  0  0  0  0  0  0
   65.6220   64.2850   30.1100 C   0  0  0  0  0  0  0  0  0  0  0  0
   66.1310   65.2210   29.2540 C   0  0  0  0  0  3  0  0  0  0  0  0
   67.0060   64.9050   28.2350 C   0  0  0  0  0  3  0  0  0  0  0  0
   67.4140   63.6000   28.0300 C   0  0  0  0  0  3  0  0  0  0  0  0
   66.8950   62.6650   28.8980 C   0  0  0  0  0  3  0  0  0  0  0  0
   66.0110   62.9670   29.9330 C   0  0  0  0  0  0  0  0  0  0  0  0
   64.3080   65.1220   31.5520 H   0  0  0  0  0  0  0  0  0  0  0  0
  1  6  2  0  0  0  0
  2  1  1  0  0  0  0
  3  2  2  0  0  0  0
  3  4  1  0  0  0  0
  4  5  2  0  0  0  0
  5  6  1  0  0  0  0
  5 17  1  0  0  0  0
  7  2  1  0  0  0  0
  8  7  2  0  0  0  0
  9  8  1  0  0  0  0
 10  9  1  0  0  0  0
 10 15  1  0  0  0  0
 11 10  2  0  0  0  0
 12 11  1  0  0  0  0
 12 13  2  0  0  0  0
 13 14  1  0  0  0  0
 14 15  2  0  0  0  0
 15  7  1  0  0  0  0
 16  9  1  0  0  0  0
 17 18  1  0  0  0  0
 18 19  1  0  0  0  0
 19 20  2  0  0  0  0
 21 20  1  0  0  0  0
 22 18  2  0  0  0  0
 22 21  1  0  0  0  0
 23 21  1  0  0  0  0
 23 24  2  0  0  0  0
 25 32  1  0  0  0  0
 25 24  1  0  0  0  0
 26 25  1  0  0  0  0
 27 26  2  0  0  0  0
 28 27  1  0  0  0  0
 29 28  2  0  0  0  0
 29 30  1  0  0  0  0
 30 31  2  0  0  0  0
 31 26  1  0  0  0  0
 31 23  1  0  0  0  0
M  END
>  <minimizedAffinity>
-8.04946518

$$$$

 OpenBabel03242509233D

 32 37  0  0  0  0  0  0  0  0999 V2000
   62.3680   58.0230   28.6230 C   0  0  0  0  0  3  0  0  0  0  0  0
   62.7490   57.3800   27.4540 C   0  0  0  0  0  0  0  0  0  0  0  0
   64.0890   57.0490   27.3130 C   0  0  0  0  0  3  0  0  0  0  0  0
   64.9600   57.3650   28.3160 N   0  0  0  0  0  0  0  0  0  0  0  0
   64.5400   57.9900   29.4310 C   0  0  0  0  0  0  0  0  0  0  0  0
   63.2560   58.3150   29.5840 N   0  0  0  0  0  0  0  0  0  0  0  0
   61.7690   57.0880   26.4610 C   0  0  0  0  0  0  0  0  0  0  0  0
   61.1730   55.8170   26.2850 C   0  0  0  0  0  3  0  0  0  0  0  0
   60.2820   55.8940   25.2480 N   0  0  0  0  0  0  0  0  0  0  0  0
   60.2950   57.1580   24.7670 C   0  0  0  0  0  0  0  0  0  0  0  0
   59.5760   57.7390   23.7270 C   0  0  0  0  0  3  0  0  0  0  0  0
   59.7770   59.0840   23.4280 C   0  0  0  0  0  3  0  0  0  0  0  0
   60.6810   59.8310   24.1560 C   0  0  0  0  0  3  0  0  0  0  0  0
   61.3630   59.1960   25.1770 C   0  0  0  0  0  3  0  0  0  0  0  0
   61.2040   57.8670   25.5160 C   0  0  0  0  0  0  0  0  0  0  0  0
   59.7000   55.1210   24.8940 H   0  0  0  0  0  0  0  0  0  0  0  0
   65.5520   58.2990   30.4730 C   0  0  0  0  0  2  0  0  0  0  0  0
   65.6260   59.7820   30.5990 C   0  0  0  0  0  0  0  0  0  0  0  0
   65.3580   60.3970   31.8300 C   0  0  0  0  0  3  0  0  0  0  0  0
   65.5030   61.7490   31.6400 C   0  0  0  0  0  3  0  0  0  0  0  0
   65.8370   61.9300   30.3630 N   0  0  0  0  0  0  0  0  0  0  0  0
   65.9080   60.7560   29.7500 N   0  0  0  0  0  0  0  0  0  0  0  0
   66.0600   63.2370   29.8480 C   0  0  0  0  0  0  0  0  0  0  0  0
   65.2570   64.3570   29.7780 C   0  0  0  0  0  3  0  0  0  0  0  0
   65.9130   65.3770   29.1950 N   0  0  0  0  0  0  0  0  0  0  0  0
   67.1610   64.9730   28.8630 C   0  0  0  0  0  0  0  0  0  0  0  0
   68.2520   65.5410   28.2670 C   0  0  0  0  0  3  0  0  0  0  0  0
   69.4300   64.8540   28.0520 C   0  0  0  0  0  3  0  0  0  0  0  0
   69.5600   63.5330   28.4390 C   0  0  0  0  0  3  0  0  0  0  0  0
   68.4550   62.9700   29.0390 C   0  0  0  0  0  3  0  0  0  0  0  0
   67.2580   63.6500   29.2630 C   0  0  0  0  0  0  0  0  0  0  0  0
   65.5260   66.3160   29.0290 H   0  0  0  0  0  0  0  0  0  0  0  0
  1  6  2  0  0  0  0
  2  1  1  0  0  0  0
  3  2  2  0  0  0  0
  3  4  1  0  0  0  0
  4  5  2  0  0  0  0
  5  6  1  0  0  0  0
  5 17  1  0  0  0  0
  7  2  1  0  0  0  0
  8  7  2  0  0  0  0
  9  8  1  0  0  0  0
 10  9  1  0  0  0  0
 10 15  1  0  0  0  0
 11 10  2  0  0  0  0
 12 11  1  0  0  0  0
 12 13  2  0  0  0  0
 13 14  1  0  0  0  0
 14 15  2  0  0  0  0
 15  7  1  0  0  0  0
 16  9  1  0  0  0  0
 17 18  1  0  0  0  0
 18 19  1  0  0  0  0
 20 19  2  0  0  0  0
 21 20  1  0  0  0  0
 22 21  1  0  0  0  0
 22 18  2  0  0  0  0
 23 21  1  0  0  0  0
 24 23  2  0  0  0  0
 25 24  1  0  0  0  0
 26 25  1  0  0  0  0
 26 31  1  0  0  0  0
 27 26  2  0  0  0  0
 28 27  1  0  0  0  0
 28 29  2  0  0  0  0
 29 30  1  0  0  0  0
 30 31  2  0  0  0  0
 31 23  1  0  0  0  0
 32 25  1  0  0  0  0
M  END
>  <minimizedAffinity>
-7.80858707

$$$$

 OpenBabel03242509233D

 32 37  0  0  0  0  0  0  0  0999 V2000
   62.1380   57.7000   28.0220 C   0  0  0  0  0  3  0  0  0  0  0  0
   62.4970   57.5750   26.6880 C   0  0  0  0  0  0  0  0  0  0  0  0
   63.8320   57.3170   26.4060 C   0  0  0  0  0  3  0  0  0  0  0  0
   64.7170   57.1990   27.4380 N   0  0  0  0  0  0  0  0  0  0  0  0
   64.3180   57.3280   28.7160 C   0  0  0  0  0  0  0  0  0  0  0  0
   63.0400   57.5760   29.0060 N   0  0  0  0  0  0  0  0  0  0  0  0
   61.5030   57.7140   25.6760 C   0  0  0  0  0  0  0  0  0  0  0  0
   61.3410   58.8710   24.8780 C   0  0  0  0  0  3  0  0  0  0  0  0
   60.2980   58.6610   24.0150 N   0  0  0  0  0  0  0  0  0  0  0  0
   59.8010   57.4230   24.2380 C   0  0  0  0  0  0  0  0  0  0  0  0
   58.7500   56.7460   23.6280 C   0  0  0  0  0  3  0  0  0  0  0  0
   58.4350   55.4570   24.0510 C   0  0  0  0  0  3  0  0  0  0  0  0
   59.1570   54.8610   25.0640 C   0  0  0  0  0  3  0  0  0  0  0  0
   60.1890   55.5860   25.6290 C   0  0  0  0  0  3  0  0  0  0  0  0
   60.5450   56.8640   25.2510 C   0  0  0  0  0  0  0  0  0  0  0  0
   59.9520   59.3320   23.3140 H   0  0  0  0  0  0  0  0  0  0  0  0
   65.3450   57.1860   29.7790 C   0  0  0  0  0  2  0  0  0  0  0  0
   65.5330   58.5270   30.4020 C   0  0  0  0  0  0  0  0  0  0  0  0
   66.1310   58.6370   31.6650 C   0  0  0  0  0  3  0  0  0  0  0  0
   66.1670   59.9740   31.9730 C   0  0  0  0  0  3  0  0  0  0  0  0
   65.6200   60.6260   30.9490 N   0  0  0  0  0  0  0  0  0  0  0  0
   65.2440   59.7590   30.0180 N   0  0  0  0  0  0  0  0  0  0  0  0
   65.5080   62.0440   30.9650 C   0  0  0  0  0  0  0  0  0  0  0  0
   64.9170   62.9190   31.8520 C   0  0  0  0  0  3  0  0  0  0  0  0
   65.0700   64.1910   31.4410 N   0  0  0  0  0  0  0  0  0  0  0  0
   65.7620   64.2030   30.2770 C   0  0  0  0  0  0  0  0  0  0  0  0
   66.2090   65.1590   29.4090 C   0  0  0  0  0  3  0  0  0  0  0  0
   66.9120   64.8570   28.2610 C   0  0  0  0  0  3  0  0  0  0  0  0
   67.2020   63.5460   27.9310 C   0  0  0  0  0  3  0  0  0  0  0  0
   66.7470   62.5900   28.8130 C   0  0  0  0  0  3  0  0  0  0  0  0
   66.0350   62.8780   29.9770 C   0  0  0  0  0  0  0  0  0  0  0  0
   64.7170   65.0230   31.9330 H   0  0  0  0  0  0  0  0  0  0  0  0
  1  6  2  0  0  0  0
  2  1  1  0  0  0  0
  3  2  2  0  0  0  0
  3  4  1  0  0  0  0
  4  5  2  0  0  0  0
  5  6  1  0  0  0  0
  5 17  1  0  0  0  0
  7  2  1  0  0  0  0
  8  7  2  0  0  0  0
  9 10  1  0  0  0  0
  9  8  1  0  0  0  0
 10 15  1  0  0  0  0
 11 12  1  0  0  0  0
 11 10  2  0  0  0  0
 12 13  2  0  0  0  0
 13 14  1  0  0  0  0
 15 14  2  0  0  0  0
 15  7  1  0  0  0  0
 16  9  1  0  0  0  0
 17 18  1  0  0  0  0
 18 19  1  0  0  0  0
 19 20  2  0  0  0  0
 21 23  1  0  0  0  0
 21 20  1  0  0  0  0
 22 18  2  0  0  0  0
 22 21  1  0  0  0  0
 23 24  2  0  0  0  0
 25 24  1  0  0  0  0
 25 32  1  0  0  0  0
 26 25  1  0  0  0  0
 27 26  2  0  0  0  0
 28 27  1  0  0  0  0
 29 28  2  0  0  0  0
 29 30  1  0  0  0  0
 30 31  2  0  0  0  0
 31 26  1  0  0  0  0
 31 23  1  0  0  0  0
M  END
>  <minimizedAffinity>
-7.63409185

$$$$

 OpenBabel03242509233D

 32 37  0  0  0  0  0  0  0  0999 V2000
   64.7810   57.1780   28.9060 C   0  0  0  0  0  3  0  0  0  0  0  0
   63.4950   57.6540   28.6990 C   0  0  0  0  0  0  0  0  0  0  0  0
   62.9610   58.4970   29.6650 C   0  0  0  0  0  3  0  0  0  0  0  0
   63.7140   58.8150   30.7580 N   0  0  0  0  0  0  0  0  0  0  0  0
   64.9590   58.3260   30.9110 C   0  0  0  0  0  0  0  0  0  0  0  0
   65.4870   57.5160   29.9940 N   0  0  0  0  0  0  0  0  0  0  0  0
   62.7820   57.2680   27.5260 C   0  0  0  0  0  0  0  0  0  0  0  0
   63.0620   56.1010   26.7780 C   0  0  0  0  0  3  0  0  0  0  0  0
   62.1910   56.0420   25.7230 N   0  0  0  0  0  0  0  0  0  0  0  0
   61.3790   57.1220   25.7780 C   0  0  0  0  0  0  0  0  0  0  0  0
   60.3380   57.5160   24.9430 C   0  0  0  0  0  3  0  0  0  0  0  0
   59.6470   58.6920   25.2260 C   0  0  0  0  0  3  0  0  0  0  0  0
   59.9930   59.4560   26.3220 C   0  0  0  0  0  3  0  0  0  0  0  0
   61.0350   59.0090   27.1120 C   0  0  0  0  0  3  0  0  0  0  0  0
   61.7540   57.8540   26.8800 C   0  0  0  0  0  0  0  0  0  0  0  0
   62.1590   55.3010   25.0080 H   0  0  0  0  0  0  0  0  0  0  0  0
   65.7100   58.7210   32.1290 C   0  0  0  0  0  2  0  0  0  0  0  0
   66.9050   59.4950   31.6870 C   0  0  0  0  0  0  0  0  0  0  0  0
   68.1930   59.0230   31.9750 C   0  0  0  0  0  3  0  0  0  0  0  0
   69.0770   59.9340   31.4490 C   0  0  0  0  0  3  0  0  0  0  0  0
   68.3530   60.8960   30.8800 N   0  0  0  0  0  0  0  0  0  0  0  0
   67.0620   60.6290   31.0250 N   0  0  0  0  0  0  0  0  0  0  0  0
   68.9850   62.0000   30.2410 C   0  0  0  0  0  0  0  0  0  0  0  0
   70.2440   62.5490   30.3650 C   0  0  0  0  0  3  0  0  0  0  0  0
   70.3880   63.6020   29.5400 N   0  0  0  0  0  0  0  0  0  0  0  0
   69.2400   63.7850   28.8470 C   0  0  0  0  0  0  0  0  0  0  0  0
   68.7940   64.6610   27.8970 C   0  0  0  0  0  3  0  0  0  0  0  0
   67.5260   64.5980   27.3580 C   0  0  0  0  0  3  0  0  0  0  0  0
   66.6310   63.6260   27.7630 C   0  0  0  0  0  3  0  0  0  0  0  0
   67.0890   62.7480   28.7210 C   0  0  0  0  0  3  0  0  0  0  0  0
   68.3670   62.7980   29.2760 C   0  0  0  0  0  0  0  0  0  0  0  0
   71.2370   64.1770   29.4510 H   0  0  0  0  0  0  0  0  0  0  0  0
  1  6  2  0  0  0  0
  2  1  1  0  0  0  0
  2  3  2  0  0  0  0
  3  4  1  0  0  0  0
  4  5  2  0  0  0  0
  5 17  1  0  0  0  0
  6  5  1  0  0  0  0
  7  2  1  0  0  0  0
  8  7  2  0  0  0  0
  9 10  1  0  0  0  0
  9  8  1  0  0  0  0
 10 15  1  0  0  0  0
 11 12  1  0  0  0  0
 11 10  2  0  0  0  0
 12 13  2  0  0  0  0
 13 14  1  0  0  0  0
 15 14  2  0  0  0  0
 15  7  1  0  0  0  0
 16  9  1  0  0  0  0
 18 19  1  0  0  0  0
 18 17  1  0  0  0  0
 20 19  2  0  0  0  0
 21 22  1  0  0  0  0
 21 20  1  0  0  0  0
 22 18  2  0  0  0  0
 23 24  2  0  0  0  0
 23 21  1  0  0  0  0
 25 24  1  0  0  0  0
 26 31  1  0  0  0  0
 26 25  1  0  0  0  0
 27 26  2  0  0  0  0
 28 29  2  0  0  0  0
 28 27  1  0  0  0  0
 29 30  1  0  0  0  0
 30 31  2  0  0  0  0
 31 23  1  0  0  0  0
 32 25  1  0  0  0  0
M  END
>  <minimizedAffinity>
-7.47634792

$$$$

 OpenBabel03242509233D

 32 37  0  0  0  0  0  0  0  0999 V2000
   61.8020   58.5990   28.6310 C   0  0  0  0  0  3  0  0  0  0  0  0
   62.3200   57.6870   27.7230 C   0  0  0  0  0  0  0  0  0  0  0  0
   63.5650   57.1400   28.0030 C   0  0  0  0  0  3  0  0  0  0  0  0
   64.2140   57.5180   29.1430 N   0  0  0  0  0  0  0  0  0  0  0  0
   63.6680   58.4080   29.9920 C   0  0  0  0  0  0  0  0  0  0  0  0
   62.4730   58.9430   29.7390 N   0  0  0  0  0  0  0  0  0  0  0  0
   61.5690   57.3510   26.5580 C   0  0  0  0  0  0  0  0  0  0  0  0
   61.2710   56.0250   26.1630 C   0  0  0  0  0  3  0  0  0  0  0  0
   60.5390   56.0710   25.0070 N   0  0  0  0  0  0  0  0  0  0  0  0
   60.3670   57.3670   24.6610 C   0  0  0  0  0  0  0  0  0  0  0  0
   59.7010   57.9340   23.5790 C   0  0  0  0  0  3  0  0  0  0  0  0
   59.6700   59.3210   23.4510 C   0  0  0  0  0  3  0  0  0  0  0  0
   60.2930   60.1210   24.3870 C   0  0  0  0  0  3  0  0  0  0  0  0
   60.9370   59.4950   25.4380 C   0  0  0  0  0  3  0  0  0  0  0  0
   60.9990   58.1280   25.6150 C   0  0  0  0  0  0  0  0  0  0  0  0
   60.1800   55.2560   24.4880 H   0  0  0  0  0  0  0  0  0  0  0  0
   64.4410   58.7650   31.2080 C   0  0  0  0  0  2  0  0  0  0  0  0
   65.1130   60.0690   30.9440 C   0  0  0  0  0  0  0  0  0  0  0  0
   66.5010   60.1880   31.0980 C   0  0  0  0  0  3  0  0  0  0  0  0
   66.8270   61.4860   30.7890 C   0  0  0  0  0  3  0  0  0  0  0  0
   65.6920   62.1070   30.4700 N   0  0  0  0  0  0  0  0  0  0  0  0
   64.6770   61.2590   30.5640 N   0  0  0  0  0  0  0  0  0  0  0  0
   65.6950   63.4800   30.0980 C   0  0  0  0  0  0  0  0  0  0  0  0
   66.3730   64.1770   29.1200 C   0  0  0  0  0  3  0  0  0  0  0  0
   66.0470   65.4810   29.1510 N   0  0  0  0  0  0  0  0  0  0  0  0
   65.1490   65.6930   30.1410 C   0  0  0  0  0  0  0  0  0  0  0  0
   64.4720   66.7710   30.6410 C   0  0  0  0  0  3  0  0  0  0  0  0
   63.5900   66.6750   31.6980 C   0  0  0  0  0  3  0  0  0  0  0  0
   63.3460   65.4600   32.3100 C   0  0  0  0  0  3  0  0  0  0  0  0
   64.0320   64.3800   31.7980 C   0  0  0  0  0  3  0  0  0  0  0  0
   64.9270   64.4590   30.7320 C   0  0  0  0  0  0  0  0  0  0  0  0
   66.4210   66.2040   28.5210 H   0  0  0  0  0  0  0  0  0  0  0  0
  1  6  2  0  0  0  0
  2  3  2  0  0  0  0
  2  1  1  0  0  0  0
  3  4  1  0  0  0  0
  4  5  2  0  0  0  0
  5 17  1  0  0  0  0
  6  5  1  0  0  0  0
  7  2  1  0  0  0  0
  8  7  2  0  0  0  0
  9  8  1  0  0  0  0
 10  9  1  0  0  0  0
 10 15  1  0  0  0  0
 11 10  2  0  0  0  0
 12 11  1  0  0  0  0
 12 13  2  0  0  0  0
 13 14  1  0  0  0  0
 14 15  2  0  0  0  0
 15  7  1  0  0  0  0
 16  9  1  0  0  0  0
 18 19  1  0  0  0  0
 18 17  1  0  0  0  0
 20 19  2  0  0  0  0
 21 22  1  0  0  0  0
 21 20  1  0  0  0  0
 22 18  2  0  0  0  0
 23 21  1  0  0  0  0
 23 31  1  0  0  0  0
 24 25  1  0  0  0  0
 24 23  2  0  0  0  0
 25 26  1  0  0  0  0
 26 27  2  0  0  0  0
 26 31  1  0  0  0  0
 27 28  1  0  0  0  0
 28 29  2  0  0  0  0
 30 29  1  0  0  0  0
 31 30  2  0  0  0  0
 32 25  1  0  0  0  0
M  END
>  <minimizedAffinity>
-7.39333057

$$$$

 OpenBabel03242509233D

 32 37  0  0  0  0  0  0  0  0999 V2000
   64.7210   61.4490   30.4450 C   0  0  0  0  0  3  0  0  0  0  0  0
   66.0470   61.6620   30.7900 C   0  0  0  0  0  0  0  0  0  0  0  0
   66.8100   60.5500   31.1210 C   0  0  0  0  0  3  0  0  0  0  0  0
   66.2290   59.3150   31.0910 N   0  0  0  0  0  0  0  0  0  0  0  0
   64.9370   59.1610   30.7490 C   0  0  0  0  0  0  0  0  0  0  0  0
   64.1900   60.2180   30.4280 N   0  0  0  0  0  0  0  0  0  0  0  0
   66.5690   62.9890   30.7930 C   0  0  0  0  0  0  0  0  0  0  0  0
   66.6790   63.7940   31.9520 C   0  0  0  0  0  3  0  0  0  0  0  0
   67.2180   65.0010   31.5920 N   0  0  0  0  0  0  0  0  0  0  0  0
   67.4490   64.9860   30.2600 C   0  0  0  0  0  0  0  0  0  0  0  0
   67.9820   65.9610   29.4230 C   0  0  0  0  0  3  0  0  0  0  0  0
   68.1170   65.6900   28.0630 C   0  0  0  0  0  3  0  0  0  0  0  0
   67.7260   64.4680   27.5550 C   0  0  0  0  0  3  0  0  0  0  0  0
   67.2050   63.5420   28.4390 C   0  0  0  0  0  3  0  0  0  0  0  0
   67.0480   63.7560   29.7930 C   0  0  0  0  0  0  0  0  0  0  0  0
   67.4150   65.7860   32.2290 H   0  0  0  0  0  0  0  0  0  0  0  0
   64.3830   57.7840   30.7420 C   0  0  0  0  0  2  0  0  0  0  0  0
   63.8960   57.5040   29.3620 C   0  0  0  0  0  0  0  0  0  0  0  0
   64.8130   57.2900   28.3230 C   0  0  0  0  0  3  0  0  0  0  0  0
   64.0790   57.0610   27.1850 C   0  0  0  0  0  3  0  0  0  0  0  0
   62.7940   57.1350   27.5280 N   0  0  0  0  0  0  0  0  0  0  0  0
   62.6920   57.3990   28.8240 N   0  0  0  0  0  0  0  0  0  0  0  0
   61.7710   56.9410   26.5590 C   0  0  0  0  0  0  0  0  0  0  0  0
   61.3110   55.8170   25.9050 C   0  0  0  0  0  3  0  0  0  0  0  0
   60.3100   56.1320   25.0640 N   0  0  0  0  0  0  0  0  0  0  0  0
   60.0730   57.4630   25.1290 C   0  0  0  0  0  0  0  0  0  0  0  0
   59.2120   58.3390   24.5310 C   0  0  0  0  0  3  0  0  0  0  0  0
   59.2070   59.6910   24.8080 C   0  0  0  0  0  3  0  0  0  0  0  0
   60.0920   60.2290   25.7230 C   0  0  0  0  0  3  0  0  0  0  0  0
   60.9560   59.3380   26.3210 C   0  0  0  0  0  3  0  0  0  0  0  0
   60.9750   57.9700   26.0520 C   0  0  0  0  0  0  0  0  0  0  0  0
   59.8040   55.4650   24.4640 H   0  0  0  0  0  0  0  0  0  0  0  0
  1  2  1  0  0  0  0
  2  7  1  0  0  0  0
  2  3  2  0  0  0  0
  4  3  1  0  0  0  0
  5  4  2  0  0  0  0
  6  1  2  0  0  0  0
  6  5  1  0  0  0  0
  7  8  2  0  0  0  0
  9  8  1  0  0  0  0
  9 16  1  0  0  0  0
 10  9  1  0  0  0  0
 11 10  2  0  0  0  0
 12 11  1  0  0  0  0
 13 12  2  0  0  0  0
 13 14  1  0  0  0  0
 14 15  2  0  0  0  0
 15 10  1  0  0  0  0
 15  7  1  0  0  0  0
 17  5  1  0  0  0  0
 18 17  1  0  0  0  0
 19 18  1  0  0  0  0
 20 21  1  0  0  0  0
 20 19  2  0  0  0  0
 21 22  1  0  0  0  0
 22 18  2  0  0  0  0
 23 21  1  0  0  0  0
 24 23  2  0  0  0  0
 25 26  1  0  0  0  0
 25 24  1  0  0  0  0
 26 31  1  0  0  0  0
 27 28  1  0  0  0  0
 27 26  2  0  0  0  0
 28 29  2  0  0  0  0
 29 30  1  0  0  0  0
 31 30  2  0  0  0  0
 31 23  1  0  0  0  0
 32 25  1  0  0  0  0
M  END
>  <minimizedAffinity>
-7.18358755

$$$$

 OpenBabel03242509233D

 32 37  0  0  0  0  0  0  0  0999 V2000
   62.8030   58.5240   29.4650 C   0  0  0  0  0  3  0  0  0  0  0  0
   63.3500   57.5970   28.5890 C   0  0  0  0  0  0  0  0  0  0  0  0
   64.7290   57.4390   28.6040 C   0  0  0  0  0  3  0  0  0  0  0  0
   65.4740   58.1900   29.4660 N   0  0  0  0  0  0  0  0  0  0  0  0
   64.8940   59.0770   30.2960 C   0  0  0  0  0  0  0  0  0  0  0  0
   63.5710   59.2420   30.2960 N   0  0  0  0  0  0  0  0  0  0  0  0
   62.4920   56.8560   27.7240 C   0  0  0  0  0  0  0  0  0  0  0  0
   62.2490   55.4680   27.8500 C   0  0  0  0  0  3  0  0  0  0  0  0
   61.3820   55.0870   26.8600 N   0  0  0  0  0  0  0  0  0  0  0  0
   61.0740   56.1770   26.1200 C   0  0  0  0  0  0  0  0  0  0  0  0
   60.2440   56.3140   25.0120 C   0  0  0  0  0  3  0  0  0  0  0  0
   60.0940   57.5680   24.4250 C   0  0  0  0  0  3  0  0  0  0  0  0
   60.7630   58.6600   24.9370 C   0  0  0  0  0  3  0  0  0  0  0  0
   61.5730   58.4590   26.0390 C   0  0  0  0  0  3  0  0  0  0  0  0
   61.7580   57.2400   26.6610 C   0  0  0  0  0  0  0  0  0  0  0  0
   61.0260   54.1340   26.7040 H   0  0  0  0  0  0  0  0  0  0  0  0
   65.7770   59.8550   31.2010 C   0  0  0  0  0  2  0  0  0  0  0  0
   66.3330   58.9060   32.2080 C   0  0  0  0  0  0  0  0  0  0  0  0
   65.7060   58.7550   33.4530 C   0  0  0  0  0  3  0  0  0  0  0  0
   66.4350   57.8280   34.1560 C   0  0  0  0  0  3  0  0  0  0  0  0
   67.4420   57.4480   33.3720 N   0  0  0  0  0  0  0  0  0  0  0  0
   67.3760   58.0930   32.2150 N   0  0  0  0  0  0  0  0  0  0  0  0
   68.3880   56.4840   33.8200 C   0  0  0  0  0  0  0  0  0  0  0  0
   68.2440   55.2500   34.4190 C   0  0  0  0  0  3  0  0  0  0  0  0
   69.4450   54.6960   34.6640 N   0  0  0  0  0  0  0  0  0  0  0  0
   70.4190   55.5360   34.2390 C   0  0  0  0  0  0  0  0  0  0  0  0
   71.7850   55.5260   34.2180 C   0  0  0  0  0  3  0  0  0  0  0  0
   72.5320   56.5650   33.7020 C   0  0  0  0  0  3  0  0  0  0  0  0
   71.9190   57.6860   33.1740 C   0  0  0  0  0  3  0  0  0  0  0  0
   70.5410   57.6850   33.1990 C   0  0  0  0  0  3  0  0  0  0  0  0
   69.7710   56.6440   33.7160 C   0  0  0  0  0  0  0  0  0  0  0  0
   69.6000   53.7790   35.1050 H   0  0  0  0  0  0  0  0  0  0  0  0
  1  6  2  0  0  0  0
  2  3  2  0  0  0  0
  2  1  1  0  0  0  0
  3  4  1  0  0  0  0
  4  5  2  0  0  0  0
  5 17  1  0  0  0  0
  6  5  1  0  0  0  0
  7  8  2  0  0  0  0
  7  2  1  0  0  0  0
  9  8  1  0  0  0  0
 10 15  1  0  0  0  0
 10  9  1  0  0  0  0
 11 10  2  0  0  0  0
 12 13  2  0  0  0  0
 12 11  1  0  0  0  0
 13 14  1  0  0  0  0
 14 15  2  0  0  0  0
 15  7  1  0  0  0  0
 16  9  1  0  0  0  0
 17 18  1  0  0  0  0
 18 22  2  0  0  0  0
 18 19  1  0  0  0  0
 19 20  2  0  0  0  0
 21 23  1  0  0  0  0
 21 20  1  0  0  0  0
 22 21  1  0  0  0  0
 23 24  2  0  0  0  0
 24 25  1  0  0  0  0
 25 32  1  0  0  0  0
 26 25  1  0  0  0  0
 27 26  1  0  0  0  0
 28 27  2  0  0  0  0
 29 30  2  0  0  0  0
 29 28  1  0  0  0  0
 30 31  1  0  0  0  0
 31 23  1  0  0  0  0
 31 26  2  0  0  0  0
M  END
>  <minimizedAffinity>
-7.04898548

$$$$

 OpenBabel03242509233D

 32 37  0  0  0  0  0  0  0  0999 V2000
   63.9230   63.2460   29.6500 C   0  0  0  0  0  3  0  0  0  0  0  0
   64.3760   64.3780   30.3110 C   0  0  0  0  0  0  0  0  0  0  0  0
   63.4220   65.2640   30.7930 C   0  0  0  0  0  3  0  0  0  0  0  0
   62.1000   64.9850   30.5980 N   0  0  0  0  0  0  0  0  0  0  0  0
   61.7110   63.8720   29.9500 C   0  0  0  0  0  0  0  0  0  0  0  0
   62.6140   63.0100   29.4810 N   0  0  0  0  0  0  0  0  0  0  0  0
   65.7780   64.5860   30.4680 C   0  0  0  0  0  0  0  0  0  0  0  0
   66.4190   64.7450   31.7190 C   0  0  0  0  0  3  0  0  0  0  0  0
   67.7600   64.9240   31.5010 N   0  0  0  0  0  0  0  0  0  0  0  0
   67.9840   64.8850   30.1680 C   0  0  0  0  0  0  0  0  0  0  0  0
   69.1650   65.0150   29.4440 C   0  0  0  0  0  3  0  0  0  0  0  0
   69.1240   64.9350   28.0540 C   0  0  0  0  0  3  0  0  0  0  0  0
   67.9240   64.7300   27.4040 C   0  0  0  0  0  3  0  0  0  0  0  0
   66.7860   64.6090   28.1800 C   0  0  0  0  0  3  0  0  0  0  0  0
   66.7680   64.6790   29.5580 C   0  0  0  0  0  0  0  0  0  0  0  0
   68.4750   65.0640   32.2280 H   0  0  0  0  0  0  0  0  0  0  0  0
   60.2540   63.6450   29.7800 C   0  0  0  0  0  2  0  0  0  0  0  0
   60.0810   62.3100   29.1390 C   0  0  0  0  0  0  0  0  0  0  0  0
   59.2730   61.3390   29.7460 C   0  0  0  0  0  3  0  0  0  0  0  0
   59.3060   60.2310   28.9360 C   0  0  0  0  0  3  0  0  0  0  0  0
   60.0920   60.5260   27.9020 N   0  0  0  0  0  0  0  0  0  0  0  0
   60.5500   61.7640   28.0300 N   0  0  0  0  0  0  0  0  0  0  0  0
   60.3320   59.5720   26.8740 C   0  0  0  0  0  0  0  0  0  0  0  0
   59.8730   59.4680   25.5780 C   0  0  0  0  0  3  0  0  0  0  0  0
   60.3820   58.3770   24.9780 N   0  0  0  0  0  0  0  0  0  0  0  0
   61.1890   57.7260   25.8480 C   0  0  0  0  0  0  0  0  0  0  0  0
   61.9580   56.5960   25.8190 C   0  0  0  0  0  3  0  0  0  0  0  0
   62.6960   56.1660   26.9020 C   0  0  0  0  0  3  0  0  0  0  0  0
   62.6910   56.8730   28.0890 C   0  0  0  0  0  3  0  0  0  0  0  0
   61.9140   58.0100   28.1080 C   0  0  0  0  0  3  0  0  0  0  0  0
   61.1610   58.4590   27.0240 C   0  0  0  0  0  0  0  0  0  0  0  0
   60.1880   58.0840   24.0110 H   0  0  0  0  0  0  0  0  0  0  0  0
  1  2  1  0  0  0  0
  2  7  1  0  0  0  0
  2  3  2  0  0  0  0
  4  3  1  0  0  0  0
  5  4  2  0  0  0  0
  6  1  2  0  0  0  0
  6  5  1  0  0  0  0
  7  8  2  0  0  0  0
  9  8  1  0  0  0  0
  9 16  1  0  0  0  0
 10  9  1  0  0  0  0
 11 10  2  0  0  0  0
 12 11  1  0  0  0  0
 13 12  2  0  0  0  0
 13 14  1  0  0  0  0
 14 15  2  0  0  0  0
 15 10  1  0  0  0  0
 15  7  1  0  0  0  0
 17  5  1  0  0  0  0
 18 19  1  0  0  0  0
 18 17  1  0  0  0  0
 20 19  2  0  0  0  0
 21 22  1  0  0  0  0
 21 20  1  0  0  0  0
 22 18  2  0  0  0  0
 23 31  1  0  0  0  0
 23 21  1  0  0  0  0
 24 23  2  0  0  0  0
 25 24  1  0  0  0  0
 25 26  1  0  0  0  0
 26 31  1  0  0  0  0
 27 26  2  0  0  0  0
 27 28  1  0  0  0  0
 28 29  2  0  0  0  0
 29 30  1  0  0  0  0
 31 30  2  0  0  0  0
 32 25  1  0  0  0  0
M  END
>  <minimizedAffinity>
-6.91105556

$$$$

 OpenBabel03242509233D

 32 37  0  0  0  0  0  0  0  0999 V2000
   63.9660   58.2790   31.2550 C   0  0  0  0  0  3  0  0  0  0  0  0
   64.0510   57.8940   29.9250 C   0  0  0  0  0  0  0  0  0  0  0  0
   65.2120   57.2510   29.5180 C   0  0  0  0  0  3  0  0  0  0  0  0
   66.2030   57.0290   30.4300 N   0  0  0  0  0  0  0  0  0  0  0  0
   66.0710   57.4230   31.7100 C   0  0  0  0  0  0  0  0  0  0  0  0
   64.9630   58.0420   32.1190 N   0  0  0  0  0  0  0  0  0  0  0  0
   62.9650   58.1670   29.0430 C   0  0  0  0  0  0  0  0  0  0  0  0
   62.0350   59.2160   29.2330 C   0  0  0  0  0  3  0  0  0  0  0  0
   61.1320   59.1880   28.2030 N   0  0  0  0  0  0  0  0  0  0  0  0
   61.4560   58.1670   27.3780 C   0  0  0  0  0  0  0  0  0  0  0  0
   60.8550   57.7250   26.2040 C   0  0  0  0  0  3  0  0  0  0  0  0
   61.3950   56.6310   25.5320 C   0  0  0  0  0  3  0  0  0  0  0  0
   62.5140   55.9930   26.0280 C   0  0  0  0  0  3  0  0  0  0  0  0
   63.0640   56.4800   27.1990 C   0  0  0  0  0  3  0  0  0  0  0  0
   62.5710   57.5590   27.9050 C   0  0  0  0  0  0  0  0  0  0  0  0
   60.3400   59.8350   28.0780 H   0  0  0  0  0  0  0  0  0  0  0  0
   67.1960   57.1440   32.6380 C   0  0  0  0  0  2  0  0  0  0  0  0
   68.1700   58.2650   32.5100 C   0  0  0  0  0  0  0  0  0  0  0  0
   68.5450   59.0020   33.6420 C   0  0  0  0  0  3  0  0  0  0  0  0
   69.4400   59.9540   33.2190 C   0  0  0  0  0  3  0  0  0  0  0  0
   69.5890   59.7920   31.9050 N   0  0  0  0  0  0  0  0  0  0  0  0
   68.8300   58.7870   31.4900 N   0  0  0  0  0  0  0  0  0  0  0  0
   70.4610   60.6370   31.1630 C   0  0  0  0  0  0  0  0  0  0  0  0
   71.8360   60.7410   31.1170 C   0  0  0  0  0  3  0  0  0  0  0  0
   72.2120   61.7000   30.2520 N   0  0  0  0  0  0  0  0  0  0  0  0
   71.1100   62.2580   29.6980 C   0  0  0  0  0  0  0  0  0  0  0  0
   70.8610   63.2450   28.7850 C   0  0  0  0  0  3  0  0  0  0  0  0
   69.5850   63.6080   28.4070 C   0  0  0  0  0  3  0  0  0  0  0  0
   68.4790   62.9780   28.9460 C   0  0  0  0  0  3  0  0  0  0  0  0
   68.7410   61.9850   29.8650 C   0  0  0  0  0  3  0  0  0  0  0  0
   70.0240   61.6050   30.2590 C   0  0  0  0  0  0  0  0  0  0  0  0
   73.1840   61.9670   30.0430 H   0  0  0  0  0  0  0  0  0  0  0  0
  1  6  2  0  0  0  0
  2  1  1  0  0  0  0
  3  2  2  0  0  0  0
  3  4  1  0  0  0  0
  4  5  2  0  0  0  0
  5  6  1  0  0  0  0
  5 17  1  0  0  0  0
  7  8  2  0  0  0  0
  7  2  1  0  0  0  0
  9  8  1  0  0  0  0
 10 15  1  0  0  0  0
 10  9  1  0  0  0  0
 11 10  2  0  0  0  0
 12 13  2  0  0  0  0
 12 11  1  0  0  0  0
 13 14  1  0  0  0  0
 14 15  2  0  0  0  0
 15  7  1  0  0  0  0
 16  9  1  0  0  0  0
 18 17  1  0  0  0  0
 18 19  1  0  0  0  0
 20 19  2  0  0  0  0
 21 20  1  0  0  0  0
 22 21  1  0  0  0  0
 22 18  2  0  0  0  0
 23 21  1  0  0  0  0
 24 23  2  0  0  0  0
 25 24  1  0  0  0  0
 26 25  1  0  0  0  0
 26 31  1  0  0  0  0
 27 26  2  0  0  0  0
 28 27  1  0  0  0  0
 28 29  2  0  0  0  0
 29 30  1  0  0  0  0
 30 31  2  0  0  0  0
 31 23  1  0  0  0  0
 32 25  1  0  0  0  0
M  END
>  <minimizedAffinity>
-6.88584328

$$$$
