
 OpenBabel03242509383D

 35 40  0  0  1  0  0  0  0  0999 V2000
   66.4640   57.7670   31.5590 N   0  0  0  0  0  0  0  0  0  0  0  0
   66.6720   56.5660   32.0720 C   0  0  0  0  0  3  0  0  0  0  0  0
   67.7960   56.3820   32.8340 C   0  0  0  0  0  3  0  0  0  0  0  0
   68.6210   57.4820   33.0000 C   0  0  0  0  0  0  0  0  0  0  0  0
   69.7990   57.3140   33.7930 N   0  0  0  0  0  0  0  0  0  0  0  0
   68.3650   58.6930   32.4540 N   0  0  0  0  0  0  0  0  0  0  0  0
   67.2570   58.8570   31.7080 C   0  0  0  0  0  0  0  0  0  0  0  0
   66.9800   59.9700   31.1800 O   0  0  0  0  0  0  0  0  0  0  0  0
   63.1380   58.9850   30.3630 C   0  0  0  0  0  3  0  0  0  0  0  0
   64.2330   58.8120   31.1980 C   0  0  0  0  0  3  0  0  0  0  0  0
   65.3000   57.9930   30.7590 C   0  0  0  0  0  0  0  0  0  0  0  0
   65.1810   57.4210   29.5310 N   0  0  0  0  0  0  0  0  0  0  0  0
   64.0950   57.6210   28.7610 C   0  0  0  0  0  0  0  0  0  0  0  0
   63.0870   58.3890   29.1630 N   0  0  0  0  0  0  0  0  0  0  0  0
   64.1750   56.9350   27.5100 N   0  0  0  0  0  0  0  0  0  0  0  0
   65.3470   57.1530   26.8870 N   0  0  0  0  0  0  0  0  0  0  0  0
   65.3100   56.4890   25.6980 C   0  0  0  0  0  3  0  0  0  0  0  0
   64.0970   55.8650   25.6090 C   0  0  0  0  0  3  0  0  0  0  0  0
   63.3890   56.1550   26.7620 C   0  0  0  0  0  0  0  0  0  0  0  0
   70.4390   58.1090   33.9400 H   0  0  0  0  0  0  0  0  0  0  0  0
   70.0080   56.4000   34.2190 H   0  0  0  0  0  0  0  0  0  0  0  0
   62.2110   55.8670   27.2520 O   0  0  0  0  0  0  0  0  0  0  0  0
   61.0180   56.4000   26.6380 C   0  0  2  0  0  3  0  0  0  0  0  0
   60.2310   55.5880   25.7040 C   0  0  0  0  0  2  0  0  0  0  0  0
   61.0620   56.7930   25.2290 C   0  0  1  0  0  3  0  0  0  0  0  0
   60.3560   58.0410   24.8510 C   0  0  0  0  0  0  0  0  0  0  0  0
   59.8090   57.9040   23.6170 N   0  0  0  0  0  0  0  0  0  0  0  0
   59.0710   58.9050   23.0590 C   0  0  0  0  0  3  0  0  0  0  0  0
   58.8740   60.0530   23.7330 N   0  0  0  0  0  0  0  0  0  0  0  0
   59.3940   60.2400   24.9590 C   0  0  0  0  0  0  0  0  0  0  0  0
   59.2690   61.3730   25.7360 C   0  0  0  0  0  3  0  0  0  0  0  0
   59.8710   61.4460   26.9920 C   0  0  0  0  0  3  0  0  0  0  0  0
   60.6130   60.4020   27.5140 C   0  0  0  0  0  3  0  0  0  0  0  0
   60.7460   59.2630   26.7470 C   0  0  0  0  0  3  0  0  0  0  0  0
   60.1400   59.2250   25.5130 C   0  0  0  0  0  0  0  0  0  0  0  0
  1  7  1  0  0  0  0
  1  2  1  0  0  0  0
  2  3  2  0  0  0  0
  3  4  1  0  0  0  0
  4  5  1  0  0  0  0
  5 20  1  0  0  0  0
  5 21  1  0  0  0  0
  6  4  2  0  0  0  0
  7  6  1  0  0  0  0
  8  7  2  0  0  0  0
  9 10  1  0  0  0  0
 11 10  2  0  0  0  0
 11  1  1  0  0  0  0
 12 11  1  0  0  0  0
 13 14  1  0  0  0  0
 13 12  2  0  0  0  0
 14  9  2  0  0  0  0
 15 13  1  0  0  0  0
 16 15  1  0  0  0  0
 17 16  2  0  0  0  0
 18 17  1  0  0  0  0
 18 19  2  0  0  0  0
 19 22  1  0  0  0  0
 19 15  1  0  0  0  0
 23 22  1  6  0  0  0
 24 23  1  0  0  0  0
 25 26  1  1  0  0  0
 25 24  1  0  0  0  0
 25 23  1  0  0  0  0
 26 35  1  0  0  0  0
 27 26  2  0  0  0  0
 28 27  1  0  0  0  0
 28 29  2  0  0  0  0
 29 30  1  0  0  0  0
 30 35  2  0  0  0  0
 30 31  1  0  0  0  0
 31 32  2  0  0  0  0
 32 33  1  0  0  0  0
 34 33  2  0  0  0  0
 35 34  1  0  0  0  0
M  END
>  <minimizedAffinity>
-8.45539856

$$$$

 OpenBabel03242509383D

 35 40  0  0  1  0  0  0  0  0999 V2000
   67.1770   62.0560   30.3270 N   0  0  0  0  0  0  0  0  0  0  0  0
   68.2560   61.5210   30.8750 C   0  0  0  0  0  3  0  0  0  0  0  0
   68.0850   60.4530   31.7140 C   0  0  0  0  0  3  0  0  0  0  0  0
   66.7830   60.0240   31.9160 C   0  0  0  0  0  0  0  0  0  0  0  0
   66.5790   58.9080   32.7870 N   0  0  0  0  0  0  0  0  0  0  0  0
   65.7090   60.6040   31.3320 N   0  0  0  0  0  0  0  0  0  0  0  0
   65.8950   61.6540   30.5090 C   0  0  0  0  0  0  0  0  0  0  0  0
   64.9210   62.2250   29.9440 O   0  0  0  0  0  0  0  0  0  0  0  0
   67.2280   64.2030   27.2670 C   0  0  0  0  0  3  0  0  0  0  0  0
   67.0680   63.0740   28.0570 C   0  0  0  0  0  3  0  0  0  0  0  0
   67.3220   63.1730   29.4460 C   0  0  0  0  0  0  0  0  0  0  0  0
   67.7110   64.3860   29.9220 N   0  0  0  0  0  0  0  0  0  0  0  0
   67.8520   65.4510   29.1100 C   0  0  0  0  0  0  0  0  0  0  0  0
   67.6160   65.3680   27.8040 N   0  0  0  0  0  0  0  0  0  0  0  0
   68.2620   66.6260   29.8110 N   0  0  0  0  0  0  0  0  0  0  0  0
   67.5080   66.8530   30.9020 N   0  0  0  0  0  0  0  0  0  0  0  0
   67.9540   68.0050   31.4770 C   0  0  0  0  0  3  0  0  0  0  0  0
   68.9890   68.4740   30.7180 C   0  0  0  0  0  3  0  0  0  0  0  0
   69.1740   67.5920   29.6680 C   0  0  0  0  0  0  0  0  0  0  0  0
   65.6250   58.5590   32.9620 H   0  0  0  0  0  0  0  0  0  0  0  0
   67.3850   58.4530   33.2380 H   0  0  0  0  0  0  0  0  0  0  0  0
   69.9750   67.4940   28.6380 O   0  0  0  0  0  0  0  0  0  0  0  0
   71.1060   66.5980   28.6780 C   0  0  2  0  0  3  0  0  0  0  0  0
   72.3010   66.8660   27.8700 C   0  0  0  0  0  2  0  0  0  0  0  0
   71.3430   65.7070   27.5420 C   0  0  1  0  0  3  0  0  0  0  0  0
   71.7720   64.3200   27.8470 C   0  0  0  0  0  0  0  0  0  0  0  0
   71.2710   63.9360   29.0470 N   0  0  0  0  0  0  0  0  0  0  0  0
   71.4930   62.6830   29.5340 C   0  0  0  0  0  3  0  0  0  0  0  0
   72.2180   61.8020   28.8210 N   0  0  0  0  0  0  0  0  0  0  0  0
   72.7380   62.1310   27.6260 C   0  0  0  0  0  0  0  0  0  0  0  0
   73.5050   61.3190   26.8150 C   0  0  0  0  0  3  0  0  0  0  0  0
   73.9960   61.7890   25.5970 C   0  0  0  0  0  3  0  0  0  0  0  0
   73.7450   63.0720   25.1480 C   0  0  0  0  0  3  0  0  0  0  0  0
   72.9800   63.8940   25.9490 C   0  0  0  0  0  3  0  0  0  0  0  0
   72.5110   63.4000   27.1430 C   0  0  0  0  0  0  0  0  0  0  0  0
  1  7  1  0  0  0  0
  1  2  1  0  0  0  0
  2  3  2  0  0  0  0
  3  4  1  0  0  0  0
  4  5  1  0  0  0  0
  5 20  1  0  0  0  0
  5 21  1  0  0  0  0
  6  4  2  0  0  0  0
  7  6  1  0  0  0  0
  8  7  2  0  0  0  0
  9 14  2  0  0  0  0
  9 10  1  0  0  0  0
 10 11  2  0  0  0  0
 11 12  1  0  0  0  0
 11  1  1  0  0  0  0
 13 15  1  0  0  0  0
 13 12  2  0  0  0  0
 14 13  1  0  0  0  0
 15 16  1  0  0  0  0
 16 17  2  0  0  0  0
 18 17  1  0  0  0  0
 19 15  1  0  0  0  0
 19 18  2  0  0  0  0
 22 19  1  0  0  0  0
 23 22  1  6  0  0  0
 24 23  1  0  0  0  0
 25 26  1  1  0  0  0
 25 24  1  0  0  0  0
 25 23  1  0  0  0  0
 26 27  1  0  0  0  0
 27 28  2  0  0  0  0
 29 28  1  0  0  0  0
 30 29  2  0  0  0  0
 31 30  1  0  0  0  0
 32 31  2  0  0  0  0
 33 32  1  0  0  0  0
 33 34  2  0  0  0  0
 34 35  1  0  0  0  0
 35 30  1  0  0  0  0
 35 26  2  0  0  0  0
M  END
>  <minimizedAffinity>
-6.77929258

$$$$

 OpenBabel03242509383D

 35 40  0  0  1  0  0  0  0  0999 V2000
   63.0740   64.1420   30.4170 N   0  0  0  0  0  0  0  0  0  0  0  0
   62.7700   63.3570   29.3960 C   0  0  0  0  0  3  0  0  0  0  0  0
   61.4510   63.0400   29.2030 C   0  0  0  0  0  3  0  0  0  0  0  0
   60.5460   63.5730   30.1060 C   0  0  0  0  0  0  0  0  0  0  0  0
   59.1630   63.2570   29.9240 N   0  0  0  0  0  0  0  0  0  0  0  0
   60.9050   64.3720   31.1360 N   0  0  0  0  0  0  0  0  0  0  0  0
   62.2050   64.6750   31.3120 C   0  0  0  0  0  0  0  0  0  0  0  0
   62.5850   65.4170   32.2610 O   0  0  0  0  0  0  0  0  0  0  0  0
   66.2620   66.0730   30.6970 C   0  0  0  0  0  3  0  0  0  0  0  0
   64.9220   65.8100   30.4520 C   0  0  0  0  0  3  0  0  0  0  0  0
   64.4410   64.4930   30.6460 C   0  0  0  0  0  0  0  0  0  0  0  0
   65.3360   63.5580   31.0650 N   0  0  0  0  0  0  0  0  0  0  0  0
   66.6280   63.8680   31.2880 C   0  0  0  0  0  0  0  0  0  0  0  0
   67.0900   65.1020   31.1100 N   0  0  0  0  0  0  0  0  0  0  0  0
   67.3930   62.7450   31.7280 N   0  0  0  0  0  0  0  0  0  0  0  0
   66.7950   62.0900   32.7390 N   0  0  0  0  0  0  0  0  0  0  0  0
   67.6150   61.0650   33.1060 C   0  0  0  0  0  3  0  0  0  0  0  0
   68.7190   61.1090   32.3020 C   0  0  0  0  0  3  0  0  0  0  0  0
   68.5660   62.1760   31.4350 C   0  0  0  0  0  0  0  0  0  0  0  0
   58.4590   63.6350   30.5740 H   0  0  0  0  0  0  0  0  0  0  0  0
   58.8710   62.6520   29.1420 H   0  0  0  0  0  0  0  0  0  0  0  0
   69.2570   62.7210   30.4660 O   0  0  0  0  0  0  0  0  0  0  0  0
   70.0360   61.8950   29.5740 C   0  0  2  0  0  3  0  0  0  0  0  0
   70.6480   60.6510   30.0510 C   0  0  0  0  0  2  0  0  0  0  0  0
   71.4930   61.8900   29.7060 C   0  0  1  0  0  3  0  0  0  0  0  0
   72.2870   61.8850   28.4540 C   0  0  0  0  0  0  0  0  0  0  0  0
   72.8450   60.6620   28.2680 N   0  0  0  0  0  0  0  0  0  0  0  0
   73.5950   60.3910   27.1620 C   0  0  0  0  0  3  0  0  0  0  0  0
   73.7890   61.3430   26.2310 N   0  0  0  0  0  0  0  0  0  0  0  0
   73.2590   62.5710   26.3660 C   0  0  0  0  0  0  0  0  0  0  0  0
   73.4000   63.6250   25.4870 C   0  0  0  0  0  3  0  0  0  0  0  0
   72.8050   64.8580   25.7510 C   0  0  0  0  0  3  0  0  0  0  0  0
   72.0560   65.0840   26.8910 C   0  0  0  0  0  3  0  0  0  0  0  0
   71.9070   64.0390   27.7790 C   0  0  0  0  0  3  0  0  0  0  0  0
   72.5060   62.8360   27.4870 C   0  0  0  0  0  0  0  0  0  0  0  0
  1 11  1  0  0  0  0
  1  7  1  0  0  0  0
  2  1  1  0  0  0  0
  3  2  2  0  0  0  0
  3  4  1  0  0  0  0
  4  6  2  0  0  0  0
  5  4  1  0  0  0  0
  5 20  1  0  0  0  0
  6  7  1  0  0  0  0
  7  8  2  0  0  0  0
  9 14  2  0  0  0  0
 10 11  2  0  0  0  0
 10  9  1  0  0  0  0
 11 12  1  0  0  0  0
 12 13  2  0  0  0  0
 13 15  1  0  0  0  0
 14 13  1  0  0  0  0
 15 16  1  0  0  0  0
 16 17  2  0  0  0  0
 18 17  1  0  0  0  0
 19 15  1  0  0  0  0
 19 18  2  0  0  0  0
 21  5  1  0  0  0  0
 22 19  1  0  0  0  0
 23 25  1  0  0  0  0
 23 24  1  0  0  0  0
 23 22  1  1  0  0  0
 25 26  1  6  0  0  0
 25 24  1  0  0  0  0
 27 26  1  0  0  0  0
 28 27  2  0  0  0  0
 29 30  2  0  0  0  0
 29 28  1  0  0  0  0
 30 35  1  0  0  0  0
 31 32  2  0  0  0  0
 31 30  1  0  0  0  0
 32 33  1  0  0  0  0
 33 34  2  0  0  0  0
 35 34  1  0  0  0  0
 35 26  2  0  0  0  0
M  END
>  <minimizedAffinity>
-6.75731802

$$$$

 OpenBabel03242509383D

 35 40  0  0  1  0  0  0  0  0999 V2000
   60.0940   61.9830   28.4880 N   0  0  0  0  0  0  0  0  0  0  0  0
   60.2070   61.8170   27.1800 C   0  0  0  0  0  3  0  0  0  0  0  0
   59.3420   60.9490   26.5680 C   0  0  0  0  0  3  0  0  0  0  0  0
   58.4180   60.3150   27.3820 C   0  0  0  0  0  0  0  0  0  0  0  0
   57.5030   59.4060   26.7650 N   0  0  0  0  0  0  0  0  0  0  0  0
   58.3410   60.5170   28.7170 N   0  0  0  0  0  0  0  0  0  0  0  0
   59.1980   61.3740   29.3040 C   0  0  0  0  0  0  0  0  0  0  0  0
   59.1610   61.5910   30.5480 O   0  0  0  0  0  0  0  0  0  0  0  0
   61.4550   64.9230   30.3530 C   0  0  0  0  0  3  0  0  0  0  0  0
   60.5340   64.1040   29.7160 C   0  0  0  0  0  3  0  0  0  0  0  0
   60.9810   62.8820   29.1580 C   0  0  0  0  0  0  0  0  0  0  0  0
   62.3020   62.5870   29.2850 N   0  0  0  0  0  0  0  0  0  0  0  0
   63.1550   63.4190   29.9140 C   0  0  0  0  0  0  0  0  0  0  0  0
   62.7450   64.5680   30.4410 N   0  0  0  0  0  0  0  0  0  0  0  0
   64.4920   62.9170   29.9410 N   0  0  0  0  0  0  0  0  0  0  0  0
   64.5450   61.6410   30.3650 N   0  0  0  0  0  0  0  0  0  0  0  0
   65.8560   61.2710   30.3870 C   0  0  0  0  0  3  0  0  0  0  0  0
   66.5970   62.3400   29.9720 C   0  0  0  0  0  3  0  0  0  0  0  0
   65.7220   63.3750   29.6920 C   0  0  0  0  0  0  0  0  0  0  0  0
   56.8010   58.9150   27.3360 H   0  0  0  0  0  0  0  0  0  0  0  0
   57.5470   59.2420   25.7480 H   0  0  0  0  0  0  0  0  0  0  0  0
   65.8140   64.6120   29.2750 O   0  0  0  0  0  0  0  0  0  0  0  0
   66.9510   65.0330   28.4910 C   0  0  2  0  0  3  0  0  0  0  0  0
   67.3420   64.2950   27.2860 C   0  0  0  0  0  2  0  0  0  0  0  0
   68.1900   64.2590   28.5700 C   0  0  1  0  0  3  0  0  0  0  0  0
   69.4630   65.0180   28.6050 C   0  0  0  0  0  0  0  0  0  0  0  0
   69.2110   66.3270   28.8530 N   0  0  0  0  0  0  0  0  0  0  0  0
   70.2270   67.2290   28.9730 C   0  0  0  0  0  3  0  0  0  0  0  0
   71.5050   66.8250   28.8470 N   0  0  0  0  0  0  0  0  0  0  0  0
   71.8090   65.5390   28.6010 C   0  0  0  0  0  0  0  0  0  0  0  0
   73.0750   65.0140   28.4410 C   0  0  0  0  0  3  0  0  0  0  0  0
   73.2550   63.6570   28.1760 C   0  0  0  0  0  3  0  0  0  0  0  0
   72.1900   62.7820   28.0610 C   0  0  0  0  0  3  0  0  0  0  0  0
   70.9200   63.2940   28.2180 C   0  0  0  0  0  3  0  0  0  0  0  0
   70.7770   64.6370   28.4790 C   0  0  0  0  0  0  0  0  0  0  0  0
  1 11  1  0  0  0  0
  1  7  1  0  0  0  0
  2  1  1  0  0  0  0
  3  2  2  0  0  0  0
  3  4  1  0  0  0  0
  4  6  2  0  0  0  0
  5 20  1  0  0  0  0
  5  4  1  0  0  0  0
  6  7  1  0  0  0  0
  7  8  2  0  0  0  0
  9 14  2  0  0  0  0
 10  9  1  0  0  0  0
 11 12  1  0  0  0  0
 11 10  2  0  0  0  0
 12 13  2  0  0  0  0
 13 15  1  0  0  0  0
 13 14  1  0  0  0  0
 15 16  1  0  0  0  0
 16 17  2  0  0  0  0
 18 17  1  0  0  0  0
 19 15  1  0  0  0  0
 19 18  2  0  0  0  0
 21  5  1  0  0  0  0
 22 19  1  0  0  0  0
 23 25  1  0  0  0  0
 23 22  1  1  0  0  0
 24 23  1  0  0  0  0
 24 25  1  0  0  0  0
 25 26  1  6  0  0  0
 26 27  1  0  0  0  0
 27 28  2  0  0  0  0
 29 28  1  0  0  0  0
 30 29  2  0  0  0  0
 31 30  1  0  0  0  0
 32 31  2  0  0  0  0
 33 32  1  0  0  0  0
 33 34  2  0  0  0  0
 34 35  1  0  0  0  0
 35 30  1  0  0  0  0
 35 26  2  0  0  0  0
M  END
>  <minimizedAffinity>
-6.71316624

$$$$

 OpenBabel03242509383D

 35 40  0  0  1  0  0  0  0  0999 V2000
   65.4040   59.2430   30.7740 N   0  0  0  0  0  0  0  0  0  0  0  0
   64.1980   59.6170   30.3780 C   0  0  0  0  0  3  0  0  0  0  0  0
   63.3970   58.6760   29.7880 C   0  0  0  0  0  3  0  0  0  0  0  0
   63.9270   57.4030   29.6570 C   0  0  0  0  0  0  0  0  0  0  0  0
   63.1080   56.4020   29.0460 N   0  0  0  0  0  0  0  0  0  0  0  0
   65.1680   57.0670   30.0780 N   0  0  0  0  0  0  0  0  0  0  0  0
   65.9430   58.0040   30.6560 C   0  0  0  0  0  0  0  0  0  0  0  0
   67.1080   57.7330   31.0630 O   0  0  0  0  0  0  0  0  0  0  0  0
   67.4510   61.0960   33.2940 C   0  0  0  0  0  3  0  0  0  0  0  0
   66.6070   60.1290   32.7650 C   0  0  0  0  0  3  0  0  0  0  0  0
   66.2650   60.2010   31.3940 C   0  0  0  0  0  0  0  0  0  0  0  0
   66.7930   61.2270   30.6730 N   0  0  0  0  0  0  0  0  0  0  0  0
   67.6080   62.1390   31.2370 C   0  0  0  0  0  0  0  0  0  0  0  0
   67.9350   62.0810   32.5240 N   0  0  0  0  0  0  0  0  0  0  0  0
   68.0550   63.1260   30.3050 N   0  0  0  0  0  0  0  0  0  0  0  0
   68.5340   62.5740   29.1750 N   0  0  0  0  0  0  0  0  0  0  0  0
   68.9630   63.5880   28.3730 C   0  0  0  0  0  3  0  0  0  0  0  0
   68.7380   64.7630   29.0330 C   0  0  0  0  0  3  0  0  0  0  0  0
   68.1620   64.4560   30.2540 C   0  0  0  0  0  0  0  0  0  0  0  0
   63.4670   55.4430   28.9300 H   0  0  0  0  0  0  0  0  0  0  0  0
   62.1600   56.6400   28.7220 H   0  0  0  0  0  0  0  0  0  0  0  0
   67.7350   65.1200   31.2970 O   0  0  0  0  0  0  0  0  0  0  0  0
   66.4400   65.7590   31.2730 C   0  0  2  0  0  3  0  0  0  0  0  0
   66.1780   66.9460   32.0920 C   0  0  0  0  0  2  0  0  0  0  0  0
   65.5430   65.5820   32.4150 C   0  0  1  0  0  3  0  0  0  0  0  0
   64.1040   65.3780   32.1210 C   0  0  0  0  0  0  0  0  0  0  0  0
   63.3520   66.1440   32.9510 N   0  0  0  0  0  0  0  0  0  0  0  0
   61.9920   66.1630   32.8520 C   0  0  0  0  0  3  0  0  0  0  0  0
   61.3740   65.4150   31.9190 N   0  0  0  0  0  0  0  0  0  0  0  0
   62.0720   64.6390   31.0720 C   0  0  0  0  0  0  0  0  0  0  0  0
   61.5490   63.8240   30.0890 C   0  0  0  0  0  3  0  0  0  0  0  0
   62.3860   63.0550   29.2800 C   0  0  0  0  0  3  0  0  0  0  0  0
   63.7610   63.0690   29.4220 C   0  0  0  0  0  3  0  0  0  0  0  0
   64.2970   63.8780   30.4020 C   0  0  0  0  0  3  0  0  0  0  0  0
   63.4440   64.6240   31.1810 C   0  0  0  0  0  0  0  0  0  0  0  0
  1 11  1  0  0  0  0
  2  1  1  0  0  0  0
  3  2  2  0  0  0  0
  4  3  1  0  0  0  0
  4  6  2  0  0  0  0
  5  4  1  0  0  0  0
  6  7  1  0  0  0  0
  7  1  1  0  0  0  0
  7  8  2  0  0  0  0
 10  9  1  0  0  0  0
 11 10  2  0  0  0  0
 12 13  2  0  0  0  0
 12 11  1  0  0  0  0
 13 14  1  0  0  0  0
 14  9  2  0  0  0  0
 15 13  1  0  0  0  0
 16 15  1  0  0  0  0
 17 18  1  0  0  0  0
 17 16  2  0  0  0  0
 18 19  2  0  0  0  0
 19 15  1  0  0  0  0
 19 22  1  0  0  0  0
 20  5  1  0  0  0  0
 21  5  1  0  0  0  0
 23 22  1  1  0  0  0
 23 24  1  0  0  0  0
 23 25  1  0  0  0  0
 24 25  1  0  0  0  0
 25 26  1  6  0  0  0
 26 27  1  0  0  0  0
 28 27  2  0  0  0  0
 29 28  1  0  0  0  0
 30 35  1  0  0  0  0
 30 29  2  0  0  0  0
 31 30  1  0  0  0  0
 32 33  1  0  0  0  0
 32 31  2  0  0  0  0
 33 34  2  0  0  0  0
 34 35  1  0  0  0  0
 35 26  2  0  0  0  0
M  END
>  <minimizedAffinity>
-6.67492199

$$$$

 OpenBabel03242509383D

 35 40  0  0  1  0  0  0  0  0999 V2000
   64.7740   59.1070   30.5230 N   0  0  0  0  0  0  0  0  0  0  0  0
   63.4950   59.2110   30.1990 C   0  0  0  0  0  3  0  0  0  0  0  0
   62.9200   58.1690   29.5210 C   0  0  0  0  0  3  0  0  0  0  0  0
   63.7390   57.0890   29.2310 C   0  0  0  0  0  0  0  0  0  0  0  0
   63.1600   55.9880   28.5260 N   0  0  0  0  0  0  0  0  0  0  0  0
   65.0430   57.0290   29.5840 N   0  0  0  0  0  0  0  0  0  0  0  0
   65.5930   58.0620   30.2500 C   0  0  0  0  0  0  0  0  0  0  0  0
   66.8070   58.0470   30.5980 O   0  0  0  0  0  0  0  0  0  0  0  0
   66.4270   61.1300   33.1960 C   0  0  0  0  0  3  0  0  0  0  0  0
   65.8200   60.0470   32.5770 C   0  0  0  0  0  3  0  0  0  0  0  0
   65.4040   60.1770   31.2310 C   0  0  0  0  0  0  0  0  0  0  0  0
   65.6290   61.3740   30.6240 N   0  0  0  0  0  0  0  0  0  0  0  0
   66.2220   62.3940   31.2720 C   0  0  0  0  0  0  0  0  0  0  0  0
   66.6170   62.2810   32.5360 N   0  0  0  0  0  0  0  0  0  0  0  0
   66.3680   63.5550   30.4520 N   0  0  0  0  0  0  0  0  0  0  0  0
   66.9110   63.2640   29.2560 N   0  0  0  0  0  0  0  0  0  0  0  0
   67.0390   64.4330   28.5680 C   0  0  0  0  0  3  0  0  0  0  0  0
   66.5660   65.4370   29.3640 C   0  0  0  0  0  3  0  0  0  0  0  0
   66.1440   64.8680   30.5530 C   0  0  0  0  0  0  0  0  0  0  0  0
   63.7360   55.1660   28.2920 H   0  0  0  0  0  0  0  0  0  0  0  0
   62.1670   56.0160   28.2520 H   0  0  0  0  0  0  0  0  0  0  0  0
   65.6190   65.2890   31.6760 O   0  0  0  0  0  0  0  0  0  0  0  0
   64.1860   65.3070   31.8470 C   0  0  2  0  0  3  0  0  0  0  0  0
   63.3550   66.2510   31.0920 C   0  0  0  0  0  2  0  0  0  0  0  0
   63.5780   66.3990   32.6080 C   0  0  1  0  0  3  0  0  0  0  0  0
   62.4700   66.0480   33.5290 C   0  0  0  0  0  0  0  0  0  0  0  0
   62.5170   64.7250   33.8230 N   0  0  0  0  0  0  0  0  0  0  0  0
   61.6230   64.1640   34.6860 C   0  0  0  0  0  3  0  0  0  0  0  0
   60.6740   64.9250   35.2620 N   0  0  0  0  0  0  0  0  0  0  0  0
   60.5840   66.2410   35.0050 C   0  0  0  0  0  0  0  0  0  0  0  0
   59.6500   67.1150   35.5250 C   0  0  0  0  0  3  0  0  0  0  0  0
   59.6570   68.4620   35.1660 C   0  0  0  0  0  3  0  0  0  0  0  0
   60.5860   68.9830   34.2830 C   0  0  0  0  0  3  0  0  0  0  0  0
   61.5240   68.1210   33.7550 C   0  0  0  0  0  3  0  0  0  0  0  0
   61.4890   66.7980   34.1310 C   0  0  0  0  0  0  0  0  0  0  0  0
  1 11  1  0  0  0  0
  2  1  1  0  0  0  0
  3  2  2  0  0  0  0
  4  3  1  0  0  0  0
  4  6  2  0  0  0  0
  5  4  1  0  0  0  0
  6  7  1  0  0  0  0
  7  1  1  0  0  0  0
  7  8  2  0  0  0  0
 10  9  1  0  0  0  0
 11 10  2  0  0  0  0
 12 11  1  0  0  0  0
 12 13  2  0  0  0  0
 13 14  1  0  0  0  0
 14  9  2  0  0  0  0
 15 19  1  0  0  0  0
 15 13  1  0  0  0  0
 16 15  1  0  0  0  0
 17 16  2  0  0  0  0
 17 18  1  0  0  0  0
 18 19  2  0  0  0  0
 19 22  1  0  0  0  0
 20  5  1  0  0  0  0
 21  5  1  0  0  0  0
 23 22  1  6  0  0  0
 23 25  1  0  0  0  0
 24 23  1  0  0  0  0
 24 25  1  0  0  0  0
 25 26  1  1  0  0  0
 26 27  2  0  0  0  0
 26 35  1  0  0  0  0
 27 28  1  0  0  0  0
 28 29  2  0  0  0  0
 30 29  1  0  0  0  0
 30 31  1  0  0  0  0
 32 31  2  0  0  0  0
 33 32  1  0  0  0  0
 34 35  1  0  0  0  0
 34 33  2  0  0  0  0
 35 30  2  0  0  0  0
M  END
>  <minimizedAffinity>
-6.58752155

$$$$

 OpenBabel03242509383D

 35 40  0  0  1  0  0  0  0  0999 V2000
   67.5740   57.4260   33.5330 N   0  0  0  0  0  0  0  0  0  0  0  0
   68.4110   56.5870   32.9460 C   0  0  0  0  0  3  0  0  0  0  0  0
   68.9300   55.5680   33.6990 C   0  0  0  0  0  3  0  0  0  0  0  0
   68.5280   55.5070   35.0230 C   0  0  0  0  0  0  0  0  0  0  0  0
   69.0540   54.4490   35.8290 N   0  0  0  0  0  0  0  0  0  0  0  0
   67.6670   56.3900   35.5810 N   0  0  0  0  0  0  0  0  0  0  0  0
   67.1660   57.3860   34.8270 C   0  0  0  0  0  0  0  0  0  0  0  0
   66.3600   58.2320   35.3070 O   0  0  0  0  0  0  0  0  0  0  0  0
   65.1730   59.6230   31.6930 C   0  0  0  0  0  3  0  0  0  0  0  0
   65.6430   58.5440   32.4300 C   0  0  0  0  0  3  0  0  0  0  0  0
   67.0140   58.5010   32.7750 C   0  0  0  0  0  0  0  0  0  0  0  0
   67.7940   59.5340   32.3560 N   0  0  0  0  0  0  0  0  0  0  0  0
   67.2870   60.5570   31.6420 C   0  0  0  0  0  0  0  0  0  0  0  0
   66.0000   60.6070   31.3130 N   0  0  0  0  0  0  0  0  0  0  0  0
   68.2730   61.5370   31.3100 N   0  0  0  0  0  0  0  0  0  0  0  0
   68.9960   61.9100   32.3820 N   0  0  0  0  0  0  0  0  0  0  0  0
   69.8780   62.8640   31.9700 C   0  0  0  0  0  3  0  0  0  0  0  0
   69.6780   63.0640   30.6330 C   0  0  0  0  0  3  0  0  0  0  0  0
   68.6600   62.2180   30.2280 C   0  0  0  0  0  0  0  0  0  0  0  0
   68.7790   54.3710   36.8190 H   0  0  0  0  0  0  0  0  0  0  0  0
   69.7090   53.7670   35.4200 H   0  0  0  0  0  0  0  0  0  0  0  0
   68.0310   61.9530   29.1120 O   0  0  0  0  0  0  0  0  0  0  0  0
   66.8090   62.6480   28.7840 C   0  0  2  0  0  3  0  0  0  0  0  0
   66.8210   63.7810   27.8520 C   0  0  0  0  0  2  0  0  0  0  0  0
   66.5720   63.9720   29.3590 C   0  0  1  0  0  3  0  0  0  0  0  0
   65.1950   64.2740   29.8210 C   0  0  0  0  0  0  0  0  0  0  0  0
   64.3810   63.2220   29.5590 N   0  0  0  0  0  0  0  0  0  0  0  0
   63.0680   63.2390   29.9260 C   0  0  0  0  0  3  0  0  0  0  0  0
   62.5600   64.3120   30.5610 N   0  0  0  0  0  0  0  0  0  0  0  0
   63.3240   65.3810   30.8440 C   0  0  0  0  0  0  0  0  0  0  0  0
   62.9120   66.5370   31.4770 C   0  0  0  0  0  3  0  0  0  0  0  0
   63.8060   67.5830   31.7010 C   0  0  0  0  0  3  0  0  0  0  0  0
   65.1300   67.5180   31.3070 C   0  0  0  0  0  3  0  0  0  0  0  0
   65.5550   66.3690   30.6730 C   0  0  0  0  0  3  0  0  0  0  0  0
   64.6470   65.3560   30.4670 C   0  0  0  0  0  0  0  0  0  0  0  0
  1  7  1  0  0  0  0
  2  1  1  0  0  0  0
  2  3  2  0  0  0  0
  3  4  1  0  0  0  0
  4  6  2  0  0  0  0
  4  5  1  0  0  0  0
  5 20  1  0  0  0  0
  7  8  2  0  0  0  0
  7  6  1  0  0  0  0
  9 10  1  0  0  0  0
 10 11  2  0  0  0  0
 11  1  1  0  0  0  0
 12 11  1  0  0  0  0
 13 12  2  0  0  0  0
 14 13  1  0  0  0  0
 14  9  2  0  0  0  0
 15 13  1  0  0  0  0
 15 16  1  0  0  0  0
 17 16  2  0  0  0  0
 18 17  1  0  0  0  0
 19 18  2  0  0  0  0
 19 15  1  0  0  0  0
 21  5  1  0  0  0  0
 22 19  1  0  0  0  0
 23 22  1  1  0  0  0
 23 25  1  0  0  0  0
 24 23  1  0  0  0  0
 24 25  1  0  0  0  0
 25 26  1  6  0  0  0
 26 35  1  0  0  0  0
 27 26  2  0  0  0  0
 27 28  1  0  0  0  0
 28 29  2  0  0  0  0
 29 30  1  0  0  0  0
 30 31  1  0  0  0  0
 31 32  2  0  0  0  0
 33 32  1  0  0  0  0
 34 33  2  0  0  0  0
 35 34  1  0  0  0  0
 35 30  2  0  0  0  0
M  END
>  <minimizedAffinity>
-6.47177076

$$$$

 OpenBabel03242509383D

 35 40  0  0  1  0  0  0  0  0999 V2000
   65.3670   59.2580   30.7550 N   0  0  0  0  0  0  0  0  0  0  0  0
   64.1560   59.6050   30.3510 C   0  0  0  0  0  3  0  0  0  0  0  0
   63.3740   58.6420   29.7710 C   0  0  0  0  0  3  0  0  0  0  0  0
   63.9290   57.3770   29.6580 C   0  0  0  0  0  0  0  0  0  0  0  0
   63.1300   56.3540   29.0580 N   0  0  0  0  0  0  0  0  0  0  0  0
   65.1740   57.0700   30.0880 N   0  0  0  0  0  0  0  0  0  0  0  0
   65.9300   58.0280   30.6550 C   0  0  0  0  0  0  0  0  0  0  0  0
   67.0980   57.7840   31.0700 O   0  0  0  0  0  0  0  0  0  0  0  0
   67.3710   61.1810   33.2570 C   0  0  0  0  0  3  0  0  0  0  0  0
   66.5470   60.1930   32.7380 C   0  0  0  0  0  3  0  0  0  0  0  0
   66.2090   60.2400   31.3650 C   0  0  0  0  0  0  0  0  0  0  0  0
   66.7210   61.2660   30.6330 N   0  0  0  0  0  0  0  0  0  0  0  0
   67.5160   62.2010   31.1870 C   0  0  0  0  0  0  0  0  0  0  0  0
   67.8400   62.1650   32.4760 N   0  0  0  0  0  0  0  0  0  0  0  0
   67.9490   63.1830   30.2440 N   0  0  0  0  0  0  0  0  0  0  0  0
   68.4410   62.6250   29.1230 N   0  0  0  0  0  0  0  0  0  0  0  0
   68.8540   63.6370   28.3090 C   0  0  0  0  0  3  0  0  0  0  0  0
   68.6050   64.8160   28.9530 C   0  0  0  0  0  3  0  0  0  0  0  0
   68.0320   64.5140   30.1760 C   0  0  0  0  0  0  0  0  0  0  0  0
   63.5070   55.4000   28.9560 H   0  0  0  0  0  0  0  0  0  0  0  0
   62.1790   56.5700   28.7270 H   0  0  0  0  0  0  0  0  0  0  0  0
   67.5880   65.1840   31.2090 O   0  0  0  0  0  0  0  0  0  0  0  0
   66.3640   65.9430   31.1130 C   0  0  2  0  0  3  0  0  0  0  0  0
   66.3770   67.4020   31.2610 C   0  0  0  0  0  2  0  0  0  0  0  0
   65.7700   66.4830   32.3360 C   0  0  1  0  0  3  0  0  0  0  0  0
   64.2940   66.4110   32.4620 C   0  0  0  0  0  0  0  0  0  0  0  0
   63.8180   65.3850   31.7130 N   0  0  0  0  0  0  0  0  0  0  0  0
   62.4880   65.0870   31.6930 C   0  0  0  0  0  3  0  0  0  0  0  0
   61.6230   65.8130   32.4250 N   0  0  0  0  0  0  0  0  0  0  0  0
   62.0430   66.8410   33.1840 C   0  0  0  0  0  0  0  0  0  0  0  0
   61.2510   67.6600   33.9630 C   0  0  0  0  0  3  0  0  0  0  0  0
   61.8110   68.7040   34.6970 C   0  0  0  0  0  3  0  0  0  0  0  0
   63.1690   68.9680   34.6820 C   0  0  0  0  0  3  0  0  0  0  0  0
   63.9720   68.1570   33.9080 C   0  0  0  0  0  3  0  0  0  0  0  0
   63.3870   67.1360   33.1960 C   0  0  0  0  0  0  0  0  0  0  0  0
  1 11  1  0  0  0  0
  2  1  1  0  0  0  0
  3  2  2  0  0  0  0
  4  3  1  0  0  0  0
  4  6  2  0  0  0  0
  5  4  1  0  0  0  0
  6  7  1  0  0  0  0
  7  1  1  0  0  0  0
  7  8  2  0  0  0  0
 10  9  1  0  0  0  0
 11 10  2  0  0  0  0
 12 13  2  0  0  0  0
 12 11  1  0  0  0  0
 13 14  1  0  0  0  0
 14  9  2  0  0  0  0
 15 13  1  0  0  0  0
 16 15  1  0  0  0  0
 17 18  1  0  0  0  0
 17 16  2  0  0  0  0
 18 19  2  0  0  0  0
 19 15  1  0  0  0  0
 19 22  1  0  0  0  0
 20  5  1  0  0  0  0
 21  5  1  0  0  0  0
 23 22  1  1  0  0  0
 23 24  1  0  0  0  0
 23 25  1  0  0  0  0
 24 25  1  0  0  0  0
 25 26  1  6  0  0  0
 26 35  1  0  0  0  0
 27 26  2  0  0  0  0
 28 27  1  0  0  0  0
 28 29  2  0  0  0  0
 29 30  1  0  0  0  0
 30 35  2  0  0  0  0
 30 31  1  0  0  0  0
 31 32  2  0  0  0  0
 33 32  1  0  0  0  0
 34 33  2  0  0  0  0
 35 34  1  0  0  0  0
M  END
>  <minimizedAffinity>
-6.40470076

$$$$

 OpenBabel03242509383D

 35 40  0  0  1  0  0  0  0  0999 V2000
   67.5190   64.1270   30.7200 N   0  0  0  0  0  0  0  0  0  0  0  0
   67.8440   64.9230   29.7140 C   0  0  0  0  0  3  0  0  0  0  0  0
   68.8970   65.7810   29.8920 C   0  0  0  0  0  3  0  0  0  0  0  0
   69.5320   65.7380   31.1220 C   0  0  0  0  0  0  0  0  0  0  0  0
   70.6360   66.6230   31.3300 N   0  0  0  0  0  0  0  0  0  0  0  0
   69.1630   64.9040   32.1210 N   0  0  0  0  0  0  0  0  0  0  0  0
   68.1260   64.0670   31.9310 C   0  0  0  0  0  0  0  0  0  0  0  0
   67.7480   63.2730   32.8370 O   0  0  0  0  0  0  0  0  0  0  0  0
   65.5010   61.0020   30.3480 C   0  0  0  0  0  3  0  0  0  0  0  0
   66.6130   61.8180   30.4940 C   0  0  0  0  0  3  0  0  0  0  0  0
   66.4250   63.2190   30.5660 C   0  0  0  0  0  0  0  0  0  0  0  0
   65.1470   63.6800   30.4860 N   0  0  0  0  0  0  0  0  0  0  0  0
   64.1020   62.8420   30.3430 C   0  0  0  0  0  0  0  0  0  0  0  0
   64.2690   61.5250   30.2750 N   0  0  0  0  0  0  0  0  0  0  0  0
   62.8510   63.5300   30.2860 N   0  0  0  0  0  0  0  0  0  0  0  0
   62.7180   64.4210   31.2850 N   0  0  0  0  0  0  0  0  0  0  0  0
   61.4880   64.9950   31.1610 C   0  0  0  0  0  3  0  0  0  0  0  0
   60.8770   64.4370   30.0740 C   0  0  0  0  0  3  0  0  0  0  0  0
   61.7510   63.5130   29.5290 C   0  0  0  0  0  0  0  0  0  0  0  0
   71.1350   66.6200   32.2320 H   0  0  0  0  0  0  0  0  0  0  0  0
   70.9330   67.2620   30.5790 H   0  0  0  0  0  0  0  0  0  0  0  0
   61.7470   62.6800   28.5190 O   0  0  0  0  0  0  0  0  0  0  0  0
   60.6380   61.7760   28.3260 C   0  0  2  0  0  3  0  0  0  0  0  0
   60.3140   60.7650   29.3380 C   0  0  0  0  0  2  0  0  0  0  0  0
   60.9150   60.3830   27.9740 C   0  0  1  0  0  3  0  0  0  0  0  0
   60.0360   59.7530   26.9600 C   0  0  0  0  0  0  0  0  0  0  0  0
   58.9850   60.5670   26.6920 N   0  0  0  0  0  0  0  0  0  0  0  0
   58.0510   60.2270   25.7580 C   0  0  0  0  0  3  0  0  0  0  0  0
   58.1630   59.0680   25.0840 N   0  0  0  0  0  0  0  0  0  0  0  0
   59.1860   58.2250   25.3120 C   0  0  0  0  0  0  0  0  0  0  0  0
   59.3970   57.0090   24.6930 C   0  0  0  0  0  3  0  0  0  0  0  0
   60.4960   56.2190   25.0300 C   0  0  0  0  0  3  0  0  0  0  0  0
   61.4150   56.6090   25.9870 C   0  0  0  0  0  3  0  0  0  0  0  0
   61.2160   57.8210   26.6140 C   0  0  0  0  0  3  0  0  0  0  0  0
   60.1220   58.5750   26.2570 C   0  0  0  0  0  0  0  0  0  0  0  0
  1  7  1  0  0  0  0
  2  3  2  0  0  0  0
  2  1  1  0  0  0  0
  3  4  1  0  0  0  0
  4  5  1  0  0  0  0
  4  6  2  0  0  0  0
  5 20  1  0  0  0  0
  7  6  1  0  0  0  0
  7  8  2  0  0  0  0
  9 10  1  0  0  0  0
 10 11  2  0  0  0  0
 11  1  1  0  0  0  0
 12 11  1  0  0  0  0
 13 12  2  0  0  0  0
 14 13  1  0  0  0  0
 14  9  2  0  0  0  0
 15 13  1  0  0  0  0
 15 16  1  0  0  0  0
 17 16  2  0  0  0  0
 18 17  1  0  0  0  0
 19 18  2  0  0  0  0
 19 15  1  0  0  0  0
 21  5  1  0  0  0  0
 22 19  1  0  0  0  0
 23 22  1  1  0  0  0
 23 24  1  0  0  0  0
 25 26  1  6  0  0  0
 25 23  1  0  0  0  0
 25 24  1  0  0  0  0
 27 26  1  0  0  0  0
 28 27  2  0  0  0  0
 29 30  2  0  0  0  0
 29 28  1  0  0  0  0
 30 35  1  0  0  0  0
 31 32  2  0  0  0  0
 31 30  1  0  0  0  0
 32 33  1  0  0  0  0
 33 34  2  0  0  0  0
 35 34  1  0  0  0  0
 35 26  2  0  0  0  0
M  END
>  <minimizedAffinity>
-6.2523284

$$$$
