
 OpenBabel03242509303D

 29 33  0  0  0  0  0  0  0  0999 V2000
   64.1660   57.2630   27.9990 C   0  0  0  0  0  0  0  0  0  0  0  0
   65.2730   56.9840   27.1880 C   0  0  0  0  0  3  0  0  0  0  0  0
   64.4750   56.5590   25.6250 S   0  0  0  0  0  0  0  0  0  0  0  0
   62.7520   56.8250   26.3030 C   0  0  0  0  0  0  0  0  0  0  0  0
   63.0400   57.1210   27.3620 N   0  0  0  0  0  0  0  0  0  0  0  0
   61.3440   56.7310   25.7810 C   0  0  0  0  0  0  0  0  0  0  0  0
   60.6450   55.5550   25.9420 C   0  0  0  0  0  3  0  0  0  0  0  0
   59.3690   55.5230   25.4510 C   0  0  0  0  0  3  0  0  0  0  0  0
   58.7590   56.5640   24.8240 C   0  0  0  0  0  3  0  0  0  0  0  0
   59.4750   57.7230   24.6750 C   0  0  0  0  0  0  0  0  0  0  0  0
   58.8520   58.7740   24.0390 C   0  0  0  0  0  3  0  0  0  0  0  0
   59.4940   59.9770   23.8480 C   0  0  0  0  0  3  0  0  0  0  0  0
   60.7980   60.0500   24.3340 C   0  0  0  0  0  3  0  0  0  0  0  0
   61.3690   58.9760   24.9580 C   0  0  0  0  0  3  0  0  0  0  0  0
   60.7620   57.7840   25.1600 C   0  0  0  0  0  0  0  0  0  0  0  0
   65.2500   57.7970   31.3900 C   0  0  0  0  0  0  0  0  0  0  0  0
   64.1830   58.6600   31.3600 C   0  0  0  0  0  3  0  0  0  0  0  0
   63.6160   58.6020   30.1180 C   0  0  0  0  0  3  0  0  0  0  0  0
   64.4010   57.6630   29.4140 C   0  0  0  0  0  0  0  0  0  0  0  0
   65.3340   57.2290   30.1960 O   0  0  0  0  0  0  0  0  0  0  0  0
   66.9520   57.7980   34.7520 C   0  0  0  0  0  3  0  0  0  0  0  0
   66.0360   58.1240   33.7360 C   0  0  0  0  0  3  0  0  0  0  0  0
   66.1500   57.5280   32.5040 C   0  0  0  0  0  0  0  0  0  0  0  0
   67.1670   56.6390   32.3420 N   0  0  0  0  0  0  0  0  0  0  0  0
   68.0370   56.3310   33.3050 C   0  0  0  0  0  0  0  0  0  0  0  0
   67.9200   56.9140   34.5010 N   0  0  0  0  0  0  0  0  0  0  0  0
   69.0250   55.3870   32.9490 N   0  0  0  0  0  0  0  0  0  0  0  0
   69.7330   55.0980   33.6390 H   0  0  0  0  0  0  0  0  0  0  0  0
   69.0380   54.9890   32.0000 H   0  0  0  0  0  0  0  0  0  0  0  0
  1 19  1  0  0  0  0
  2  1  2  0  0  0  0
  3  4  1  0  0  0  0
  3  2  1  0  0  0  0
  4  5  2  0  0  0  0
  5  1  1  0  0  0  0
  6  7  1  0  0  0  0
  6  4  1  0  0  0  0
  8  7  2  0  0  0  0
  9  8  1  0  0  0  0
 10  9  2  0  0  0  0
 10 15  1  0  0  0  0
 11 10  1  0  0  0  0
 12 11  2  0  0  0  0
 12 13  1  0  0  0  0
 13 14  2  0  0  0  0
 14 15  1  0  0  0  0
 15  6  2  0  0  0  0
 16 23  1  0  0  0  0
 17 16  2  0  0  0  0
 18 17  1  0  0  0  0
 19 18  2  0  0  0  0
 19 20  1  0  0  0  0
 20 16  1  0  0  0  0
 22 21  1  0  0  0  0
 23 22  2  0  0  0  0
 24 23  1  0  0  0  0
 24 25  2  0  0  0  0
 25 26  1  0  0  0  0
 26 21  2  0  0  0  0
 27 25  1  0  0  0  0
 27 28  1  0  0  0  0
 29 27  1  0  0  0  0
M  END
>  <minimizedAffinity>
-8.53927612

$$$$

 OpenBabel03242509303D

 29 33  0  0  0  0  0  0  0  0999 V2000
   62.8920   57.4110   28.6040 C   0  0  0  0  0  0  0  0  0  0  0  0
   62.8360   56.0200   28.4570 C   0  0  0  0  0  3  0  0  0  0  0  0
   61.7990   55.8550   26.9870 S   0  0  0  0  0  0  0  0  0  0  0  0
   61.5940   57.7040   26.7880 C   0  0  0  0  0  0  0  0  0  0  0  0
   62.2150   58.0320   27.6810 N   0  0  0  0  0  0  0  0  0  0  0  0
   60.8880   58.6290   25.8350 C   0  0  0  0  0  0  0  0  0  0  0  0
   60.7220   58.2450   24.5220 C   0  0  0  0  0  3  0  0  0  0  0  0
   60.0720   59.1220   23.6990 C   0  0  0  0  0  3  0  0  0  0  0  0
   59.5880   60.3310   24.0900 C   0  0  0  0  0  3  0  0  0  0  0  0
   59.7660   60.6920   25.4010 C   0  0  0  0  0  0  0  0  0  0  0  0
   59.2740   61.9190   25.7920 C   0  0  0  0  0  3  0  0  0  0  0  0
   59.4060   62.3610   27.0880 C   0  0  0  0  0  3  0  0  0  0  0  0
   60.0630   61.4960   27.9600 C   0  0  0  0  0  3  0  0  0  0  0  0
   60.5320   60.2890   27.5200 C   0  0  0  0  0  3  0  0  0  0  0  0
   60.4170   59.8280   26.2520 C   0  0  0  0  0  0  0  0  0  0  0  0
   64.9910   58.1480   31.4340 C   0  0  0  0  0  0  0  0  0  0  0  0
   64.5140   59.4090   31.1780 C   0  0  0  0  0  3  0  0  0  0  0  0
   63.6710   59.3410   30.1040 C   0  0  0  0  0  3  0  0  0  0  0  0
   63.6730   57.9780   29.7380 C   0  0  0  0  0  0  0  0  0  0  0  0
   64.4540   57.3310   30.5380 O   0  0  0  0  0  0  0  0  0  0  0  0
   66.8060   57.7610   34.7140 C   0  0  0  0  0  3  0  0  0  0  0  0
   65.8690   58.2170   33.7690 C   0  0  0  0  0  3  0  0  0  0  0  0
   65.9170   57.7390   32.4830 C   0  0  0  0  0  0  0  0  0  0  0  0
   66.8910   56.8320   32.1980 N   0  0  0  0  0  0  0  0  0  0  0  0
   67.7800   56.4010   33.0930 C   0  0  0  0  0  0  0  0  0  0  0  0
   67.7280   56.8700   34.3430 N   0  0  0  0  0  0  0  0  0  0  0  0
   68.7160   55.4600   32.6120 N   0  0  0  0  0  0  0  0  0  0  0  0
   69.4350   55.0790   33.2440 H   0  0  0  0  0  0  0  0  0  0  0  0
   68.6810   55.1540   31.6300 H   0  0  0  0  0  0  0  0  0  0  0  0
  1 19  1  0  0  0  0
  2  1  2  0  0  0  0
  3  2  1  0  0  0  0
  4  3  1  0  0  0  0
  4  5  2  0  0  0  0
  5  1  1  0  0  0  0
  6 15  1  0  0  0  0
  6  4  1  0  0  0  0
  7  6  2  0  0  0  0
  8  9  2  0  0  0  0
  8  7  1  0  0  0  0
  9 10  1  0  0  0  0
 10 11  2  0  0  0  0
 10 15  1  0  0  0  0
 11 12  1  0  0  0  0
 12 13  2  0  0  0  0
 14 13  1  0  0  0  0
 15 14  2  0  0  0  0
 16 23  1  0  0  0  0
 17 16  2  0  0  0  0
 18 17  1  0  0  0  0
 19 18  2  0  0  0  0
 19 20  1  0  0  0  0
 20 16  1  0  0  0  0
 22 21  1  0  0  0  0
 23 22  2  0  0  0  0
 24 23  1  0  0  0  0
 24 25  2  0  0  0  0
 25 26  1  0  0  0  0
 26 21  2  0  0  0  0
 27 25  1  0  0  0  0
 27 28  1  0  0  0  0
 29 27  1  0  0  0  0
M  END
>  <minimizedAffinity>
-7.85699368

$$$$

 OpenBabel03242509303D

 29 33  0  0  0  0  0  0  0  0999 V2000
   64.0800   57.4040   27.9260 C   0  0  0  0  0  0  0  0  0  0  0  0
   65.0520   56.6690   27.2360 C   0  0  0  0  0  3  0  0  0  0  0  0
   64.2810   56.4910   25.6120 S   0  0  0  0  0  0  0  0  0  0  0  0
   62.7500   57.4430   26.1110 C   0  0  0  0  0  0  0  0  0  0  0  0
   63.0440   57.6690   27.1850 N   0  0  0  0  0  0  0  0  0  0  0  0
   61.4640   57.8680   25.4550 C   0  0  0  0  0  0  0  0  0  0  0  0
   61.3300   59.1660   25.0150 C   0  0  0  0  0  3  0  0  0  0  0  0
   60.1430   59.4990   24.4250 C   0  0  0  0  0  3  0  0  0  0  0  0
   59.1020   58.6410   24.2500 C   0  0  0  0  0  3  0  0  0  0  0  0
   59.2590   57.3550   24.6970 C   0  0  0  0  0  0  0  0  0  0  0  0
   58.2010   56.4900   24.5170 C   0  0  0  0  0  3  0  0  0  0  0  0
   58.2710   55.1790   24.9320 C   0  0  0  0  0  3  0  0  0  0  0  0
   59.4660   54.7990   25.5400 C   0  0  0  0  0  3  0  0  0  0  0  0
   60.4850   55.6990   25.6930 C   0  0  0  0  0  3  0  0  0  0  0  0
   60.4440   56.9920   25.2940 C   0  0  0  0  0  0  0  0  0  0  0  0
   65.2130   57.8460   31.3150 C   0  0  0  0  0  0  0  0  0  0  0  0
   64.1540   58.7190   31.3190 C   0  0  0  0  0  3  0  0  0  0  0  0
   63.5710   58.6960   30.0830 C   0  0  0  0  0  3  0  0  0  0  0  0
   64.3380   57.7670   29.3470 C   0  0  0  0  0  0  0  0  0  0  0  0
   65.2760   57.3060   30.1060 O   0  0  0  0  0  0  0  0  0  0  0  0
   66.9670   57.7620   34.6480 C   0  0  0  0  0  3  0  0  0  0  0  0
   66.0420   58.1210   33.6520 C   0  0  0  0  0  3  0  0  0  0  0  0
   66.1250   57.5420   32.4100 C   0  0  0  0  0  0  0  0  0  0  0  0
   67.1220   56.6360   32.2180 N   0  0  0  0  0  0  0  0  0  0  0  0
   68.0000   56.2960   33.1620 C   0  0  0  0  0  0  0  0  0  0  0  0
   67.9140   56.8630   34.3680 N   0  0  0  0  0  0  0  0  0  0  0  0
   68.9640   55.3390   32.7760 N   0  0  0  0  0  0  0  0  0  0  0  0
   69.6770   55.0250   33.4500 H   0  0  0  0  0  0  0  0  0  0  0  0
   68.9540   54.9550   31.8210 H   0  0  0  0  0  0  0  0  0  0  0  0
  1 19  1  0  0  0  0
  2  1  2  0  0  0  0
  3  4  1  0  0  0  0
  3  2  1  0  0  0  0
  4  5  2  0  0  0  0
  5  1  1  0  0  0  0
  6  4  1  0  0  0  0
  7  6  2  0  0  0  0
  8  7  1  0  0  0  0
  9  8  2  0  0  0  0
  9 10  1  0  0  0  0
 10 15  1  0  0  0  0
 11 10  2  0  0  0  0
 11 12  1  0  0  0  0
 12 13  2  0  0  0  0
 13 14  1  0  0  0  0
 15  6  1  0  0  0  0
 15 14  2  0  0  0  0
 16 17  2  0  0  0  0
 16 23  1  0  0  0  0
 18 17  1  0  0  0  0
 19 18  2  0  0  0  0
 19 20  1  0  0  0  0
 20 16  1  0  0  0  0
 22 21  1  0  0  0  0
 23 22  2  0  0  0  0
 24 23  1  0  0  0  0
 24 25  2  0  0  0  0
 25 26  1  0  0  0  0
 26 21  2  0  0  0  0
 27 25  1  0  0  0  0
 27 28  1  0  0  0  0
 29 27  1  0  0  0  0
M  END
>  <minimizedAffinity>
-7.54751873

$$$$

 OpenBabel03242509303D

 29 33  0  0  0  0  0  0  0  0999 V2000
   66.3700   60.4930   31.2870 C   0  0  0  0  0  0  0  0  0  0  0  0
   66.8630   60.6030   32.5930 C   0  0  0  0  0  3  0  0  0  0  0  0
   67.8640   62.1020   32.4730 S   0  0  0  0  0  0  0  0  0  0  0  0
   67.4640   62.3590   30.6640 C   0  0  0  0  0  0  0  0  0  0  0  0
   66.7920   61.4550   30.5180 N   0  0  0  0  0  0  0  0  0  0  0  0
   67.8160   63.3610   29.5980 C   0  0  0  0  0  0  0  0  0  0  0  0
   66.8280   64.1710   29.0840 C   0  0  0  0  0  3  0  0  0  0  0  0
   67.2010   65.0650   28.1190 C   0  0  0  0  0  3  0  0  0  0  0  0
   68.4680   65.2000   27.6430 C   0  0  0  0  0  3  0  0  0  0  0  0
   69.4340   64.3820   28.1700 C   0  0  0  0  0  0  0  0  0  0  0  0
   70.7160   64.5240   27.6840 C   0  0  0  0  0  3  0  0  0  0  0  0
   71.7490   63.7470   28.1570 C   0  0  0  0  0  3  0  0  0  0  0  0
   71.4100   62.8230   29.1420 C   0  0  0  0  0  3  0  0  0  0  0  0
   70.1210   62.7230   29.5890 C   0  0  0  0  0  3  0  0  0  0  0  0
   69.0860   63.4740   29.1430 C   0  0  0  0  0  0  0  0  0  0  0  0
   64.3460   57.8870   29.8480 C   0  0  0  0  0  0  0  0  0  0  0  0
   64.1200   57.6340   31.1780 C   0  0  0  0  0  3  0  0  0  0  0  0
   64.8210   58.5460   31.9160 C   0  0  0  0  0  3  0  0  0  0  0  0
   65.4750   59.3490   30.9560 C   0  0  0  0  0  0  0  0  0  0  0  0
   65.1670   58.9250   29.7750 O   0  0  0  0  0  0  0  0  0  0  0  0
   62.2450   55.7220   27.5890 C   0  0  0  0  0  3  0  0  0  0  0  0
   62.6920   56.3720   28.7540 C   0  0  0  0  0  3  0  0  0  0  0  0
   63.8070   57.1710   28.6980 C   0  0  0  0  0  0  0  0  0  0  0  0
   64.4230   57.2850   27.4910 N   0  0  0  0  0  0  0  0  0  0  0  0
   64.0010   56.6690   26.3860 C   0  0  0  0  0  0  0  0  0  0  0  0
   62.9150   55.8930   26.4480 N   0  0  0  0  0  0  0  0  0  0  0  0
   64.7700   56.9070   25.2270 N   0  0  0  0  0  0  0  0  0  0  0  0
   64.5070   56.4660   24.3350 H   0  0  0  0  0  0  0  0  0  0  0  0
   65.5950   57.5220   25.2740 H   0  0  0  0  0  0  0  0  0  0  0  0
  1  2  2  0  0  0  0
  3  2  1  0  0  0  0
  4  3  1  0  0  0  0
  5  4  2  0  0  0  0
  5  1  1  0  0  0  0
  6  4  1  0  0  0  0
  7  6  2  0  0  0  0
  8  7  1  0  0  0  0
  9  8  2  0  0  0  0
  9 10  1  0  0  0  0
 10 15  1  0  0  0  0
 11 12  1  0  0  0  0
 11 10  2  0  0  0  0
 12 13  2  0  0  0  0
 13 14  1  0  0  0  0
 15 14  2  0  0  0  0
 15  6  1  0  0  0  0
 16 17  2  0  0  0  0
 17 18  1  0  0  0  0
 19  1  1  0  0  0  0
 19 18  2  0  0  0  0
 20 16  1  0  0  0  0
 20 19  1  0  0  0  0
 21 22  1  0  0  0  0
 23 22  2  0  0  0  0
 23 16  1  0  0  0  0
 24 23  1  0  0  0  0
 25 26  1  0  0  0  0
 25 24  2  0  0  0  0
 26 21  2  0  0  0  0
 27 29  1  0  0  0  0
 27 25  1  0  0  0  0
 28 27  1  0  0  0  0
M  END
>  <minimizedAffinity>
-7.3408742

$$$$

 OpenBabel03242509303D

 29 33  0  0  0  0  0  0  0  0999 V2000
   67.0550   58.9520   31.7520 C   0  0  0  0  0  0  0  0  0  0  0  0
   67.3900   60.3120   31.7420 C   0  0  0  0  0  3  0  0  0  0  0  0
   69.0020   60.2900   32.5570 S   0  0  0  0  0  0  0  0  0  0  0  0
   68.9840   58.4350   32.7910 C   0  0  0  0  0  0  0  0  0  0  0  0
   67.9750   58.2220   32.3130 N   0  0  0  0  0  0  0  0  0  0  0  0
   69.8980   57.3990   33.3860 C   0  0  0  0  0  0  0  0  0  0  0  0
   71.2030   57.3220   32.9500 C   0  0  0  0  0  3  0  0  0  0  0  0
   71.9920   56.3650   33.5250 C   0  0  0  0  0  3  0  0  0  0  0  0
   71.5730   55.4960   34.4840 C   0  0  0  0  0  3  0  0  0  0  0  0
   70.2710   55.5910   34.9010 C   0  0  0  0  0  0  0  0  0  0  0  0
   69.8520   54.7080   35.8730 C   0  0  0  0  0  3  0  0  0  0  0  0
   68.5630   54.7330   36.3540 C   0  0  0  0  0  3  0  0  0  0  0  0
   67.7260   55.6950   35.7930 C   0  0  0  0  0  3  0  0  0  0  0  0
   68.1920   56.5470   34.8310 C   0  0  0  0  0  3  0  0  0  0  0  0
   69.4550   56.5470   34.3400 C   0  0  0  0  0  0  0  0  0  0  0  0
   64.2940   57.7100   29.8050 C   0  0  0  0  0  0  0  0  0  0  0  0
   63.6010   58.2030   30.8820 C   0  0  0  0  0  3  0  0  0  0  0  0
   64.4990   58.7360   31.7650 C   0  0  0  0  0  3  0  0  0  0  0  0
   65.7560   58.5330   31.1570 C   0  0  0  0  0  0  0  0  0  0  0  0
   65.5820   57.9340   30.0250 O   0  0  0  0  0  0  0  0  0  0  0  0
   62.1780   55.6840   27.4350 C   0  0  0  0  0  3  0  0  0  0  0  0
   62.6240   56.2760   28.6300 C   0  0  0  0  0  3  0  0  0  0  0  0
   63.7550   57.0530   28.6210 C   0  0  0  0  0  0  0  0  0  0  0  0
   64.3890   57.2040   27.4260 N   0  0  0  0  0  0  0  0  0  0  0  0
   63.9680   56.6420   26.2920 C   0  0  0  0  0  0  0  0  0  0  0  0
   62.8660   55.8870   26.3090 N   0  0  0  0  0  0  0  0  0  0  0  0
   64.7560   56.9110   25.1530 N   0  0  0  0  0  0  0  0  0  0  0  0
   64.4960   56.5130   24.2400 H   0  0  0  0  0  0  0  0  0  0  0  0
   65.5930   57.5070   25.2350 H   0  0  0  0  0  0  0  0  0  0  0  0
  1  5  1  0  0  0  0
  2  1  2  0  0  0  0
  2  3  1  0  0  0  0
  3  4  1  0  0  0  0
  4  6  1  0  0  0  0
  5  4  2  0  0  0  0
  6 15  1  0  0  0  0
  7  6  2  0  0  0  0
  7  8  1  0  0  0  0
  8  9  2  0  0  0  0
  9 10  1  0  0  0  0
 10 11  1  0  0  0  0
 11 12  2  0  0  0  0
 13 12  1  0  0  0  0
 14 13  2  0  0  0  0
 15 14  1  0  0  0  0
 15 10  2  0  0  0  0
 16 20  1  0  0  0  0
 16 17  2  0  0  0  0
 17 18  1  0  0  0  0
 19  1  1  0  0  0  0
 19 18  2  0  0  0  0
 20 19  1  0  0  0  0
 21 22  1  0  0  0  0
 23 22  2  0  0  0  0
 23 16  1  0  0  0  0
 24 23  1  0  0  0  0
 25 26  1  0  0  0  0
 25 24  2  0  0  0  0
 26 21  2  0  0  0  0
 27 29  1  0  0  0  0
 27 25  1  0  0  0  0
 28 27  1  0  0  0  0
M  END
>  <minimizedAffinity>
-7.33777905

$$$$

 OpenBabel03242509303D

 29 33  0  0  0  0  0  0  0  0999 V2000
   60.6290   62.7800   29.3990 C   0  0  0  0  0  0  0  0  0  0  0  0
   59.3580   62.7620   29.9850 C   0  0  0  0  0  3  0  0  0  0  0  0
   58.4930   61.5770   28.9310 S   0  0  0  0  0  0  0  0  0  0  0  0
   59.9890   61.2800   27.8470 C   0  0  0  0  0  0  0  0  0  0  0  0
   60.7100   61.9840   28.3720 N   0  0  0  0  0  0  0  0  0  0  0  0
   60.3190   60.4360   26.6470 C   0  0  0  0  0  0  0  0  0  0  0  0
   59.9150   60.8550   25.3980 C   0  0  0  0  0  3  0  0  0  0  0  0
   60.2430   60.0520   24.3410 C   0  0  0  0  0  3  0  0  0  0  0  0
   60.9310   58.8840   24.4450 C   0  0  0  0  0  3  0  0  0  0  0  0
   61.3220   58.4870   25.6980 C   0  0  0  0  0  0  0  0  0  0  0  0
   62.0200   57.3030   25.7980 C   0  0  0  0  0  3  0  0  0  0  0  0
   62.4540   56.8300   27.0150 C   0  0  0  0  0  3  0  0  0  0  0  0
   62.1390   57.6190   28.1190 C   0  0  0  0  0  3  0  0  0  0  0  0
   61.4440   58.7870   27.9640 C   0  0  0  0  0  3  0  0  0  0  0  0
   61.0060   59.2770   26.7800 C   0  0  0  0  0  0  0  0  0  0  0  0
   63.5840   64.5410   30.4630 C   0  0  0  0  0  0  0  0  0  0  0  0
   62.6380   65.2530   31.1590 C   0  0  0  0  0  3  0  0  0  0  0  0
   61.4090   64.7230   30.8820 C   0  0  0  0  0  3  0  0  0  0  0  0
   61.6740   63.6630   29.9880 C   0  0  0  0  0  0  0  0  0  0  0  0
   62.9470   63.6020   29.7780 O   0  0  0  0  0  0  0  0  0  0  0  0
   67.2070   64.8390   31.4520 C   0  0  0  0  0  3  0  0  0  0  0  0
   65.8220   64.6230   31.5630 C   0  0  0  0  0  3  0  0  0  0  0  0
   65.0260   64.7460   30.4510 C   0  0  0  0  0  0  0  0  0  0  0  0
   65.6440   65.0780   29.2850 N   0  0  0  0  0  0  0  0  0  0  0  0
   66.9570   65.2840   29.1790 C   0  0  0  0  0  0  0  0  0  0  0  0
   67.7260   65.1620   30.2650 N   0  0  0  0  0  0  0  0  0  0  0  0
   67.4160   65.6200   27.8870 N   0  0  0  0  0  0  0  0  0  0  0  0
   68.4180   65.7950   27.7250 H   0  0  0  0  0  0  0  0  0  0  0  0
   66.7480   65.6920   27.1070 H   0  0  0  0  0  0  0  0  0  0  0  0
  1  2  2  0  0  0  0
  1 19  1  0  0  0  0
  3  2  1  0  0  0  0
  4  5  2  0  0  0  0
  4  3  1  0  0  0  0
  5  1  1  0  0  0  0
  6 15  1  0  0  0  0
  6  4  1  0  0  0  0
  7  6  2  0  0  0  0
  8  9  2  0  0  0  0
  8  7  1  0  0  0  0
  9 10  1  0  0  0  0
 10 11  2  0  0  0  0
 10 15  1  0  0  0  0
 11 12  1  0  0  0  0
 12 13  2  0  0  0  0
 14 13  1  0  0  0  0
 15 14  2  0  0  0  0
 16 17  2  0  0  0  0
 18 17  1  0  0  0  0
 19 18  2  0  0  0  0
 20 19  1  0  0  0  0
 20 16  1  0  0  0  0
 21 22  1  0  0  0  0
 23 16  1  0  0  0  0
 23 22  2  0  0  0  0
 24 23  1  0  0  0  0
 25 24  2  0  0  0  0
 25 26  1  0  0  0  0
 26 21  2  0  0  0  0
 27 25  1  0  0  0  0
 28 27  1  0  0  0  0
 29 27  1  0  0  0  0
M  END
>  <minimizedAffinity>
-7.22945547

$$$$

 OpenBabel03242509303D

 29 33  0  0  0  0  0  0  0  0999 V2000
   66.6530   60.5810   31.2930 C   0  0  0  0  0  0  0  0  0  0  0  0
   66.3120   61.4950   32.2980 C   0  0  0  0  0  3  0  0  0  0  0  0
   67.7390   62.6040   32.2720 S   0  0  0  0  0  0  0  0  0  0  0  0
   68.5880   61.6610   30.8980 C   0  0  0  0  0  0  0  0  0  0  0  0
   67.8020   60.8530   30.7470 N   0  0  0  0  0  0  0  0  0  0  0  0
   69.8730   61.7760   30.1240 C   0  0  0  0  0  0  0  0  0  0  0  0
   70.8110   60.7730   30.2240 C   0  0  0  0  0  3  0  0  0  0  0  0
   71.9600   60.9260   29.4990 C   0  0  0  0  0  3  0  0  0  0  0  0
   72.2290   61.9920   28.6980 C   0  0  0  0  0  3  0  0  0  0  0  0
   71.2800   62.9790   28.6150 C   0  0  0  0  0  0  0  0  0  0  0  0
   71.5580   64.0560   27.8030 C   0  0  0  0  0  3  0  0  0  0  0  0
   70.6620   65.0910   27.6570 C   0  0  0  0  0  3  0  0  0  0  0  0
   69.4780   64.9730   28.3810 C   0  0  0  0  0  3  0  0  0  0  0  0
   69.2530   63.8810   29.1730 C   0  0  0  0  0  3  0  0  0  0  0  0
   70.1140   62.8490   29.3340 C   0  0  0  0  0  0  0  0  0  0  0  0
   64.5130   58.0310   29.9220 C   0  0  0  0  0  0  0  0  0  0  0  0
   64.2890   57.8130   31.2590 C   0  0  0  0  0  3  0  0  0  0  0  0
   65.0340   58.7100   31.9730 C   0  0  0  0  0  3  0  0  0  0  0  0
   65.7100   59.4680   30.9920 C   0  0  0  0  0  0  0  0  0  0  0  0
   65.3740   59.0340   29.8230 O   0  0  0  0  0  0  0  0  0  0  0  0
   62.3140   55.8980   27.7280 C   0  0  0  0  0  3  0  0  0  0  0  0
   62.7980   56.5510   28.8760 C   0  0  0  0  0  3  0  0  0  0  0  0
   63.9350   57.3160   28.7920 C   0  0  0  0  0  0  0  0  0  0  0  0
   64.5350   57.3950   27.5730 N   0  0  0  0  0  0  0  0  0  0  0  0
   64.0770   56.7750   26.4850 C   0  0  0  0  0  0  0  0  0  0  0  0
   62.9700   56.0330   26.5740 N   0  0  0  0  0  0  0  0  0  0  0  0
   64.8350   56.9750   25.3100 N   0  0  0  0  0  0  0  0  0  0  0  0
   64.5450   56.5300   24.4280 H   0  0  0  0  0  0  0  0  0  0  0  0
   65.6780   57.5660   25.3360 H   0  0  0  0  0  0  0  0  0  0  0  0
  1  2  2  0  0  0  0
  3  2  1  0  0  0  0
  4  3  1  0  0  0  0
  5  4  2  0  0  0  0
  5  1  1  0  0  0  0
  6  7  1  0  0  0  0
  6  4  1  0  0  0  0
  8  7  2  0  0  0  0
  9  8  1  0  0  0  0
 10  9  2  0  0  0  0
 10 15  1  0  0  0  0
 11 10  1  0  0  0  0
 12 11  2  0  0  0  0
 12 13  1  0  0  0  0
 13 14  2  0  0  0  0
 14 15  1  0  0  0  0
 15  6  2  0  0  0  0
 16 17  2  0  0  0  0
 17 18  1  0  0  0  0
 19  1  1  0  0  0  0
 19 18  2  0  0  0  0
 20 16  1  0  0  0  0
 20 19  1  0  0  0  0
 21 22  1  0  0  0  0
 23 22  2  0  0  0  0
 23 16  1  0  0  0  0
 24 23  1  0  0  0  0
 25 26  1  0  0  0  0
 25 24  2  0  0  0  0
 26 21  2  0  0  0  0
 27 29  1  0  0  0  0
 27 25  1  0  0  0  0
 28 27  1  0  0  0  0
M  END
>  <minimizedAffinity>
-7.226017

$$$$

 OpenBabel03242509303D

 29 33  0  0  0  0  0  0  0  0999 V2000
   67.8090   57.7190   32.4380 C   0  0  0  0  0  0  0  0  0  0  0  0
   68.8440   58.5100   31.9260 C   0  0  0  0  0  3  0  0  0  0  0  0
   70.2010   58.0910   33.0430 S   0  0  0  0  0  0  0  0  0  0  0  0
   69.1600   56.9010   34.0420 C   0  0  0  0  0  0  0  0  0  0  0  0
   68.1860   57.0180   33.4680 N   0  0  0  0  0  0  0  0  0  0  0  0
   69.3630   56.0030   35.2310 C   0  0  0  0  0  0  0  0  0  0  0  0
   68.2860   55.3150   35.7470 C   0  0  0  0  0  3  0  0  0  0  0  0
   68.5250   54.5120   36.8270 C   0  0  0  0  0  3  0  0  0  0  0  0
   69.7420   54.3530   37.4140 C   0  0  0  0  0  3  0  0  0  0  0  0
   70.7980   55.0470   36.8840 C   0  0  0  0  0  0  0  0  0  0  0  0
   72.0280   54.8820   37.4820 C   0  0  0  0  0  3  0  0  0  0  0  0
   73.1440   55.5380   37.0150 C   0  0  0  0  0  3  0  0  0  0  0  0
   72.9420   56.3680   35.9150 C   0  0  0  0  0  3  0  0  0  0  0  0
   71.7000   56.4960   35.3580 C   0  0  0  0  0  3  0  0  0  0  0  0
   70.5860   55.8630   35.7960 C   0  0  0  0  0  0  0  0  0  0  0  0
   64.9080   57.6190   30.3070 C   0  0  0  0  0  0  0  0  0  0  0  0
   64.3270   58.1070   31.4510 C   0  0  0  0  0  3  0  0  0  0  0  0
   65.2930   58.2220   32.4110 C   0  0  0  0  0  3  0  0  0  0  0  0
   66.4740   57.7780   31.7790 C   0  0  0  0  0  0  0  0  0  0  0  0
   66.1970   57.4390   30.5630 O   0  0  0  0  0  0  0  0  0  0  0  0
   62.3900   56.8620   27.6090 C   0  0  0  0  0  3  0  0  0  0  0  0
   62.9180   57.1270   28.8850 C   0  0  0  0  0  3  0  0  0  0  0  0
   64.2680   57.3360   29.0300 C   0  0  0  0  0  0  0  0  0  0  0  0
   65.0250   57.2700   27.9010 N   0  0  0  0  0  0  0  0  0  0  0  0
   64.5250   57.0180   26.6910 C   0  0  0  0  0  0  0  0  0  0  0  0
   63.2110   56.8160   26.5580 N   0  0  0  0  0  0  0  0  0  0  0  0
   65.4670   56.9880   25.6400 N   0  0  0  0  0  0  0  0  0  0  0  0
   65.1580   56.7990   24.6760 H   0  0  0  0  0  0  0  0  0  0  0  0
   66.4640   57.1560   25.8380 H   0  0  0  0  0  0  0  0  0  0  0  0
  1  5  1  0  0  0  0
  2  1  2  0  0  0  0
  2  3  1  0  0  0  0
  3  4  1  0  0  0  0
  4  6  1  0  0  0  0
  5  4  2  0  0  0  0
  6  7  2  0  0  0  0
  6 15  1  0  0  0  0
  7  8  1  0  0  0  0
  8  9  2  0  0  0  0
 10  9  1  0  0  0  0
 10 11  1  0  0  0  0
 12 11  2  0  0  0  0
 13 12  1  0  0  0  0
 14 15  1  0  0  0  0
 14 13  2  0  0  0  0
 15 10  2  0  0  0  0
 16 20  1  0  0  0  0
 16 17  2  0  0  0  0
 17 18  1  0  0  0  0
 19 18  2  0  0  0  0
 19  1  1  0  0  0  0
 20 19  1  0  0  0  0
 21 22  1  0  0  0  0
 22 23  2  0  0  0  0
 23 16  1  0  0  0  0
 24 23  1  0  0  0  0
 25 24  2  0  0  0  0
 26 25  1  0  0  0  0
 26 21  2  0  0  0  0
 27 29  1  0  0  0  0
 27 25  1  0  0  0  0
 28 27  1  0  0  0  0
M  END
>  <minimizedAffinity>
-7.20225096

$$$$

 OpenBabel03242509303D

 29 33  0  0  0  0  0  0  0  0999 V2000
   64.2680   57.4250   27.9330 C   0  0  0  0  0  0  0  0  0  0  0  0
   65.3560   57.0140   27.1540 C   0  0  0  0  0  3  0  0  0  0  0  0
   64.5270   56.4370   25.6560 S   0  0  0  0  0  0  0  0  0  0  0  0
   62.8220   56.8410   26.3100 C   0  0  0  0  0  0  0  0  0  0  0  0
   63.1310   57.2490   27.3240 N   0  0  0  0  0  0  0  0  0  0  0  0
   61.4060   56.7350   25.8120 C   0  0  0  0  0  0  0  0  0  0  0  0
   60.7150   55.5580   25.9950 C   0  0  0  0  0  3  0  0  0  0  0  0
   59.4320   55.5150   25.5260 C   0  0  0  0  0  3  0  0  0  0  0  0
   58.8060   56.5470   24.8980 C   0  0  0  0  0  3  0  0  0  0  0  0
   59.5150   57.7080   24.7270 C   0  0  0  0  0  0  0  0  0  0  0  0
   58.8760   58.7510   24.0910 C   0  0  0  0  0  3  0  0  0  0  0  0
   59.5100   59.9540   23.8780 C   0  0  0  0  0  3  0  0  0  0  0  0
   60.8210   60.0380   24.3420 C   0  0  0  0  0  3  0  0  0  0  0  0
   61.4070   58.9730   24.9670 C   0  0  0  0  0  3  0  0  0  0  0  0
   60.8090   57.7790   25.1900 C   0  0  0  0  0  0  0  0  0  0  0  0
   65.2810   59.2190   30.8850 C   0  0  0  0  0  0  0  0  0  0  0  0
   64.4930   58.2590   31.4690 C   0  0  0  0  0  3  0  0  0  0  0  0
   63.9980   57.4500   30.4840 C   0  0  0  0  0  3  0  0  0  0  0  0
   64.5320   57.9800   29.2900 C   0  0  0  0  0  0  0  0  0  0  0  0
   65.2660   59.0030   29.5770 O   0  0  0  0  0  0  0  0  0  0  0  0
   67.0160   61.3910   33.4290 C   0  0  0  0  0  3  0  0  0  0  0  0
   66.3000   60.3100   32.8850 C   0  0  0  0  0  3  0  0  0  0  0  0
   66.0140   60.2940   31.5420 C   0  0  0  0  0  0  0  0  0  0  0  0
   66.4520   61.3520   30.8060 N   0  0  0  0  0  0  0  0  0  0  0  0
   67.1290   62.3780   31.3220 C   0  0  0  0  0  0  0  0  0  0  0  0
   67.4040   62.3870   32.6300 N   0  0  0  0  0  0  0  0  0  0  0  0
   67.4990   63.3830   30.4030 N   0  0  0  0  0  0  0  0  0  0  0  0
   68.0240   64.2080   30.7250 H   0  0  0  0  0  0  0  0  0  0  0  0
   67.2420   63.2920   29.4090 H   0  0  0  0  0  0  0  0  0  0  0  0
  1 19  1  0  0  0  0
  2  1  2  0  0  0  0
  3  4  1  0  0  0  0
  3  2  1  0  0  0  0
  4  5  2  0  0  0  0
  5  1  1  0  0  0  0
  6  7  1  0  0  0  0
  6  4  1  0  0  0  0
  8  7  2  0  0  0  0
  9  8  1  0  0  0  0
 10  9  2  0  0  0  0
 10 15  1  0  0  0  0
 11 10  1  0  0  0  0
 12 11  2  0  0  0  0
 12 13  1  0  0  0  0
 13 14  2  0  0  0  0
 14 15  1  0  0  0  0
 15  6  2  0  0  0  0
 16 17  2  0  0  0  0
 16 23  1  0  0  0  0
 18 17  1  0  0  0  0
 19 20  1  0  0  0  0
 19 18  2  0  0  0  0
 20 16  1  0  0  0  0
 22 21  1  0  0  0  0
 23 22  2  0  0  0  0
 24 25  2  0  0  0  0
 24 23  1  0  0  0  0
 25 26  1  0  0  0  0
 26 21  2  0  0  0  0
 27 28  1  0  0  0  0
 27 25  1  0  0  0  0
 29 27  1  0  0  0  0
M  END
>  <minimizedAffinity>
-7.01242304

$$$$
