
     RDKit          3D

 26 27  0  0  0  0  0  0  0  0999 V2000
   34.8010   30.1040   47.3300 C   0  0  0  0  0  0  0  0  0  0  0  0
   36.0720   30.4650   46.7790 C   0  0  0  0  0  0  0  0  0  0  0  0
   36.2260   30.3250   45.4270 C   0  0  0  0  0  0  0  0  0  0  0  0
   35.1560   29.8530   44.7160 N   0  0  0  0  0  0  0  0  0  0  0  0
   33.9710   29.5190   45.2420 C   0  0  0  0  0  0  0  0  0  0  0  0
   33.8200   29.6550   46.5650 N   0  0  0  0  0  0  0  0  0  0  0  0
   32.9920   29.0700   44.3450 N   0  0  0  0  0  0  0  0  0  0  0  0
   36.9580   30.9530   47.8270 C   0  0  0  0  0  0  0  0  0  0  0  0
   37.2220   30.1330   48.9450 C   0  0  0  0  0  0  0  0  0  0  0  0
   37.9960   30.4600   50.0060 C   0  0  0  0  0  0  0  0  0  0  0  0
   38.6000   31.6600   50.0640 C   0  0  0  0  0  0  0  0  0  0  0  0
   38.3520   32.4520   48.9900 C   0  0  0  0  0  0  0  0  0  0  0  0
   37.5900   32.0860   47.9840 N   0  0  0  0  0  0  0  0  0  0  0  0
   38.9510   33.7890   48.9290 N   0  0  0  0  0  0  0  0  0  0  0  0
   37.5020   30.6780   44.8070 C   0  0  0  0  0  0  0  0  0  0  0  0
   38.4820   30.1110   45.4810 F   0  0  0  0  0  0  0  0  0  0  0  0
   37.5960   30.3370   43.4690 F   0  0  0  0  0  0  0  0  0  0  0  0
   37.7060   32.0880   44.8400 F   0  0  0  0  0  0  0  0  0  0  0  0
   34.6367   30.2022   48.4132 H   0  0  0  0  0  0  0  0  0  0  0  0
   32.0609   28.7990   44.6921 H   0  0  0  0  0  0  0  0  0  0  0  0
   33.2037   29.0111   43.3387 H   0  0  0  0  0  0  0  0  0  0  0  0
   36.7559   29.1367   48.9549 H   0  0  0  0  0  0  0  0  0  0  0  0
   38.1318   29.7396   50.8261 H   0  0  0  0  0  0  0  0  0  0  0  0
   39.2369   31.9713   50.9051 H   0  0  0  0  0  0  0  0  0  0  0  0
   38.7694   34.3982   48.1186 H   0  0  0  0  0  0  0  0  0  0  0  0
   39.5534   34.1189   49.6966 H   0  0  0  0  0  0  0  0  0  0  0  0
  2  1  2  0
  2  8  1  0
  3  2  1  0
  4  5  1  0
  4  3  2  0
  5  6  2  0
  6  1  1  0
  7  5  1  0
  8 13  1  0
  8  9  2  0
  9 10  1  0
 10 11  2  0
 12 11  1  0
 13 12  2  0
 14 12  1  0
 15 18  1  0
 15  3  1  0
 15 16  1  0
 17 15  1  0
  1 19  1  0
  7 20  1  0
  7 21  1  0
  9 22  1  0
 10 23  1  0
 11 24  1  0
 14 25  1  0
 14 26  1  0
M  ISO  4  19  14  22  14  23  14  24  14
M  END
>  <minimizedAffinity>  (1) 
-5.13137007

>  <minimizedRMSD>  (1) 
1.54126465

$$$$
