
     RDKit          3D

 35 37  0  0  1  0  0  0  0  0999 V2000
   39.5450   32.8820   45.2840 C   0  0  0  0  0  0  0  0  0  0  0  0
   40.5090   32.0060   44.7990 C   0  0  0  0  0  0  0  0  0  0  0  0
   40.1640   30.6760   44.6270 C   0  0  0  0  0  0  0  0  0  0  0  0
   38.9050   30.2760   44.9350 N   0  0  0  0  0  0  0  0  0  0  0  0
   37.9950   31.0940   45.3920 C   0  0  0  0  0  0  0  0  0  0  0  0
   38.3790   32.3320   45.5320 N   0  0  0  0  0  0  0  0  0  0  0  0
   36.6970   30.6390   45.6960 N   0  0  0  0  0  0  0  0  0  0  0  0
   35.8310   29.9970   44.7020 C   0  0  0  0  0  0  0  0  0  0  0  0
   34.6340   29.5800   45.4420 C   0  0  0  0  0  0  0  0  0  0  0  0
   35.0590   29.6330   46.9090 C   0  0  0  0  0  0  0  0  0  0  0  0
   35.9770   30.7570   46.9730 C   0  0  1  0  0  0  0  0  0  0  0  0
   36.7880   30.0460   49.2510 C   0  0  0  0  0  0  0  0  0  0  0  0
   36.7560   30.9270   48.1630 C   0  0  0  0  0  0  0  0  0  0  0  0
   37.6670   31.9600   48.3220 C   0  0  0  0  0  0  0  0  0  0  0  0
   38.5160   32.1280   49.3940 C   0  0  0  0  0  0  0  0  0  0  0  0
   38.4680   31.1810   50.4340 C   0  0  0  0  0  0  0  0  0  0  0  0
   37.5910   30.1070   50.3860 C   0  0  0  0  0  0  0  0  0  0  0  0
   37.5480   29.1620   51.4360 N   0  0  0  0  0  0  0  0  0  0  0  0
   35.0720   28.1240   49.3040 N   0  0  0  0  0  0  0  0  0  0  0  0
   35.8240   28.9670   49.2700 C   0  0  0  0  0  0  0  0  0  0  0  0
   39.7434   33.9516   45.4471 H   0  0  0  0  0  0  0  0  0  0  0  0
   41.5218   32.3608   44.5576 H   0  0  0  0  0  0  0  0  0  0  0  0
   40.9009   29.9537   44.2458 H   0  0  0  0  0  0  0  0  0  0  0  0
   36.3337   29.1244   44.2594 H   0  0  0  0  0  0  0  0  0  0  0  0
   35.5843   30.6769   43.8732 H   0  0  0  0  0  0  0  0  0  0  0  0
   33.7989   30.2706   45.2531 H   0  0  0  0  0  0  0  0  0  0  0  0
   34.2814   28.5820   45.1425 H   0  0  0  0  0  0  0  0  0  0  0  0
   34.1895   29.8017   47.5613 H   0  0  0  0  0  0  0  0  0  0  0  0
   35.5187   28.6933   47.2490 H   0  0  0  0  0  0  0  0  0  0  0  0
   35.4524   31.7179   47.0796 H   0  0  0  0  0  0  0  0  0  0  0  0
   37.7163   32.7123   47.5210 H   0  0  0  0  0  0  0  0  0  0  0  0
   39.2121   32.9787   49.4359 H   0  0  0  0  0  0  0  0  0  0  0  0
   39.1372   31.2943   51.2996 H   0  0  0  0  0  0  0  0  0  0  0  0
   38.1714   29.2670   52.2492 H   0  0  0  0  0  0  0  0  0  0  0  0
   36.8933   28.3683   51.3881 H   0  0  0  0  0  0  0  0  0  0  0  0
  1  6  2  0
  2  1  1  0
  3  2  2  0
  3  4  1  0
  4  5  2  0
  5  6  1  0
  5  7  1  0
  7 11  1  0
  8  9  1  0
  8  7  1  0
  9 10  1  0
 10 11  1  0
 11 13  1  0
 12 20  1  0
 12 17  2  0
 13 14  2  0
 13 12  1  0
 14 15  1  0
 15 16  2  0
 17 16  1  0
 17 18  1  0
 20 19  3  0
  1 21  1  0
  2 22  1  0
  3 23  1  0
  8 24  1  0
  8 25  1  0
  9 26  1  0
  9 27  1  0
 10 28  1  0
 10 29  1  0
 11 30  1  6
 14 31  1  0
 15 32  1  0
 16 33  1  0
 18 34  1  0
 18 35  1  0
M  ISO  8  21  14  22  14  23  14  24  13  25  13  26  13  27  13  28  13
M  ISO  5  29  13  30  13  31  14  32  14  33  14
M  END
>  <minimizedAffinity>  (1) 
-6.25832701

>  <minimizedRMSD>  (1) 
0.77583915

$$$$
