
     RDKit          3D

 39 41  0  0  1  0  0  0  0  0999 V2000
   39.1130   32.0980   45.8420 O   0  0  0  0  0  0  0  0  0  0  0  0
   38.6530   32.7240   44.7150 C   0  0  2  0  0  0  0  0  0  0  0  0
   37.8410   31.6000   43.9770 C   0  0  0  0  0  0  0  0  0  0  0  0
   38.8360   30.5680   43.4880 C   0  0  0  0  0  0  0  0  0  0  0  0
   39.4920   31.1160   42.2580 C   0  0  0  0  0  0  0  0  0  0  0  0
   39.5350   32.6080   42.3630 C   0  0  0  0  0  0  0  0  0  0  0  0
   39.8090   33.0230   43.8020 C   0  0  1  0  0  0  0  0  0  0  0  0
   40.1710   34.4390   43.8410 N   0  0  0  0  0  0  0  0  0  0  0  0
   37.2280   30.1940   46.9640 Cl  0  0  0  0  0  0  0  0  0  0  0  0
   37.9100   31.5450   47.8380 C   0  0  0  0  0  0  0  0  0  0  0  0
   37.5360   31.7310   49.1400 C   0  0  0  0  0  0  0  0  0  0  0  0
   38.0990   32.8100   49.7820 C   0  0  0  0  0  0  0  0  0  0  0  0
   38.9860   33.6350   49.1170 C   0  0  0  0  0  0  0  0  0  0  0  0
   39.3340   33.4150   47.8130 C   0  0  0  0  0  0  0  0  0  0  0  0
   38.7850   32.3510   47.1620 C   0  0  0  0  0  0  0  0  0  0  0  0
   37.0010   30.1100   50.9670 C   0  0  0  0  0  0  0  0  0  0  0  0
   36.5940   30.8580   49.8590 C   0  0  0  0  0  0  0  0  0  0  0  0
   35.2690   30.7500   49.4580 C   0  0  0  0  0  0  0  0  0  0  0  0
   34.4500   29.9280   50.1610 N   0  0  0  0  0  0  0  0  0  0  0  0
   34.8710   29.2280   51.2130 C   0  0  0  0  0  0  0  0  0  0  0  0
   36.1490   29.3080   51.6320 N   0  0  0  0  0  0  0  0  0  0  0  0
   38.0980   33.6430   44.9546 H   0  0  0  0  0  0  0  0  0  0  0  0
   37.1272   31.1340   44.6722 H   0  0  0  0  0  0  0  0  0  0  0  0
   37.2731   32.0213   43.1343 H   0  0  0  0  0  0  0  0  0  0  0  0
   39.5926   30.3797   44.2640 H   0  0  0  0  0  0  0  0  0  0  0  0
   38.3279   29.6186   43.2635 H   0  0  0  0  0  0  0  0  0  0  0  0
   38.9143   30.8238   41.3687 H   0  0  0  0  0  0  0  0  0  0  0  0
   40.5129   30.7165   42.1674 H   0  0  0  0  0  0  0  0  0  0  0  0
   40.3341   32.9956   41.7140 H   0  0  0  0  0  0  0  0  0  0  0  0
   38.5647   33.0194   42.0479 H   0  0  0  0  0  0  0  0  0  0  0  0
   40.6530   32.4250   44.1763 H   0  0  0  0  0  0  0  0  0  0  0  0
   40.2496   34.7464   44.8209 H   0  0  0  0  0  0  0  0  0  0  0  0
   41.0740   34.5758   43.3648 H   0  0  0  0  0  0  0  0  0  0  0  0
   37.8414   33.0172   50.8312 H   0  0  0  0  0  0  0  0  0  0  0  0
   39.4237   34.4914   49.6508 H   0  0  0  0  0  0  0  0  0  0  0  0
   40.0421   34.0827   47.3003 H   0  0  0  0  0  0  0  0  0  0  0  0
   38.0456   30.1785   51.3047 H   0  0  0  0  0  0  0  0  0  0  0  0
   34.8932   31.3161   48.5930 H   0  0  0  0  0  0  0  0  0  0  0  0
   34.1652   28.5752   51.7474 H   0  0  0  0  0  0  0  0  0  0  0  0
  1 15  1  0
  2  1  1  0
  3  2  1  0
  4  3  1  0
  5  6  1  0
  5  4  1  0
  6  7  1  0
  7  8  1  0
  7  2  1  0
  9 10  1  0
 10 11  2  0
 11 12  1  0
 11 17  1  0
 13 12  2  0
 14 13  1  0
 15 14  2  0
 15 10  1  0
 16 21  2  0
 17 16  1  0
 18 17  2  0
 18 19  1  0
 19 20  2  0
 20 21  1  0
  2 22  1  1
  3 23  1  0
  3 24  1  0
  4 25  1  0
  4 26  1  0
  5 27  1  0
  5 28  1  0
  6 29  1  0
  6 30  1  0
  7 31  1  1
  8 32  1  0
  8 33  1  0
 12 34  1  0
 13 35  1  0
 14 36  1  0
 16 37  1  0
 18 38  1  0
 20 39  1  0
M  ISO  8  22  13  23  13  24  13  25  13  26  13  27  13  28  13  29  13
M  ISO  8  30  13  31  13  32   5  33   5  34  14  35  14  36  14  37  14
M  ISO  2  38  14  39  14
M  END
>  <minimizedAffinity>  (1) 
-5.54500246

>  <minimizedRMSD>  (1) 
0.670040965

$$$$
