
     RDKit          3D

 39 43  0  0  1  0  0  0  0  0999 V2000
   31.7020   28.2300   47.3600 C   0  0  1  0  0  0  0  0  0  0  0  0
   32.4870   27.0370   46.6990 C   0  0  0  0  0  0  0  0  0  0  0  0
   32.5690   28.4530   46.2040 C   0  0  2  0  0  0  0  0  0  0  0  0
   28.1390   28.6580   47.6460 C   0  0  0  0  0  0  0  0  0  0  0  0
   28.2090   27.8610   46.5170 C   0  0  0  0  0  0  0  0  0  0  0  0
   29.5700   27.5890   46.2550 C   0  0  0  0  0  0  0  0  0  0  0  0
   30.2620   28.2180   47.2120 N   0  0  0  0  0  0  0  0  0  0  0  0
   29.3990   28.8200   47.9910 N   0  0  0  0  0  0  0  0  0  0  0  0
   25.9400   28.2510   48.7830 C   0  0  0  0  0  0  0  0  0  0  0  0
   26.9090   29.1320   48.2080 C   0  0  0  0  0  0  0  0  0  0  0  0
   26.6090   30.4710   48.2170 C   0  0  0  0  0  0  0  0  0  0  0  0
   25.4300   30.8880   48.7600 N   0  0  0  0  0  0  0  0  0  0  0  0
   24.5430   30.0230   49.2900 C   0  0  0  0  0  0  0  0  0  0  0  0
   24.7930   28.6900   49.3070 N   0  0  0  0  0  0  0  0  0  0  0  0
   33.8550   29.2080   46.3710 C   0  0  0  0  0  0  0  0  0  0  0  0
   34.5780   29.7890   45.3410 C   0  0  0  0  0  0  0  0  0  0  0  0
   35.6660   30.3880   45.8950 N   0  0  0  0  0  0  0  0  0  0  0  0
   35.6360   30.1930   47.2360 C   0  0  0  0  0  0  0  0  0  0  0  0
   34.5300   29.4740   47.5210 N   0  0  0  0  0  0  0  0  0  0  0  0
   36.6300   30.6780   48.2380 C   0  0  0  0  0  0  0  0  0  0  0  0
   36.9390   29.9410   49.3840 C   0  0  0  0  0  0  0  0  0  0  0  0
   38.1790   30.9780   50.2370 S   0  0  0  0  0  0  0  0  0  0  0  0
   38.0690   32.2790   48.8560 C   0  0  0  0  0  0  0  0  0  0  0  0
   37.3040   31.8140   48.1660 N   0  0  0  0  0  0  0  0  0  0  0  0
   38.7950   33.5300   48.7500 N   0  0  0  0  0  0  0  0  0  0  0  0
   31.6285   28.6949   48.3542 H   0  0  0  0  0  0  0  0  0  0  0  0
   33.3411   26.5753   47.2160 H   0  0  0  0  0  0  0  0  0  0  0  0
   32.2327   26.0566   46.2700 H   0  0  0  0  0  0  0  0  0  0  0  0
   32.4023   28.9241   45.2240 H   0  0  0  0  0  0  0  0  0  0  0  0
   27.3535   27.5017   45.9263 H   0  0  0  0  0  0  0  0  0  0  0  0
   29.9778   26.9836   45.4321 H   0  0  0  0  0  0  0  0  0  0  0  0
   26.1476   27.1708   48.7940 H   0  0  0  0  0  0  0  0  0  0  0  0
   27.3128   31.2007   47.7903 H   0  0  0  0  0  0  0  0  0  0  0  0
   23.6025   30.4035   49.7150 H   0  0  0  0  0  0  0  0  0  0  0  0
   34.3193   29.7692   44.2720 H   0  0  0  0  0  0  0  0  0  0  0  0
   36.3932   30.9048   45.3802 H   0  0  0  0  0  0  0  0  0  0  0  0
   36.5327   28.9682   49.6981 H   0  0  0  0  0  0  0  0  0  0  0  0
   38.6394   34.1488   47.9414 H   0  0  0  0  0  0  0  0  0  0  0  0
   39.4662   33.7997   49.4833 H   0  0  0  0  0  0  0  0  0  0  0  0
  2  1  1  0
  3 15  1  0
  3  2  1  0
  3  1  1  0
  4  8  2  0
  4 10  1  0
  5  4  1  0
  6  5  2  0
  6  7  1  0
  7  1  1  0
  7  8  1  0
  9 14  2  0
 10 11  2  0
 10  9  1  0
 11 12  1  0
 12 13  2  0
 13 14  1  0
 15 19  1  0
 16 17  1  0
 16 15  2  0
 17 18  1  0
 18 19  2  0
 18 20  1  0
 20 21  2  0
 21 22  1  0
 23 22  1  0
 24 20  1  0
 24 23  2  0
 25 23  1  0
  1 26  1  1
  2 27  1  0
  2 28  1  0
  3 29  1  6
  5 30  1  0
  6 31  1  0
  9 32  1  0
 11 33  1  0
 13 34  1  0
 16 35  1  0
 17 36  1  0
 21 37  1  0
 25 38  1  0
 25 39  1  0
M  ISO  8  26  13  27  13  28  13  29  13  30  14  31  14  32  14  33  14
M  ISO  4  34  14  35  14  36   9  37  14
M  END
>  <minimizedAffinity>  (1) 
-6.14112711

>  <minimizedRMSD>  (1) 
0.567616642

$$$$
