
     RDKit          3D

 27 29  0  0  0  0  0  0  0  0999 V2000
   36.2460   30.2280   49.1210 C   0  0  0  0  0  0  0  0  0  0  0  0
   35.9400   29.8120   50.4090 C   0  0  0  0  0  0  0  0  0  0  0  0
   34.9530   28.8660   50.3470 C   0  0  0  0  0  0  0  0  0  0  0  0
   34.6620   28.7090   49.0310 N   0  0  0  0  0  0  0  0  0  0  0  0
   35.4470   29.5310   48.3330 N   0  0  0  0  0  0  0  0  0  0  0  0
   38.9710   31.9570   47.3920 C   0  0  0  0  0  0  0  0  0  0  0  0
   39.1050   33.1440   48.1660 C   0  0  0  0  0  0  0  0  0  0  0  0
   38.2590   33.3220   49.2600 C   0  0  0  0  0  0  0  0  0  0  0  0
   37.3550   32.3490   49.5230 N   0  0  0  0  0  0  0  0  0  0  0  0
   37.2480   31.2280   48.7690 C   0  0  0  0  0  0  0  0  0  0  0  0
   38.0500   31.0350   47.7140 N   0  0  0  0  0  0  0  0  0  0  0  0
   33.6760   27.8020   48.5540 C   0  0  0  0  0  0  0  0  0  0  0  0
   33.9200   26.7170   47.7360 C   0  0  0  0  0  0  0  0  0  0  0  0
   32.8690   25.8900   47.3270 C   0  0  0  0  0  0  0  0  0  0  0  0
   31.5660   26.1280   47.7210 C   0  0  0  0  0  0  0  0  0  0  0  0
   31.2940   27.1990   48.5320 C   0  0  0  0  0  0  0  0  0  0  0  0
   32.3470   27.9780   48.9080 C   0  0  0  0  0  0  0  0  0  0  0  0
   36.4137   30.1824   51.3301 H   0  0  0  0  0  0  0  0  0  0  0  0
   34.4889   28.3389   51.1937 H   0  0  0  0  0  0  0  0  0  0  0  0
   39.6267   31.7941   46.5240 H   0  0  0  0  0  0  0  0  0  0  0  0
   39.8581   33.9029   47.9072 H   0  0  0  0  0  0  0  0  0  0  0  0
   38.3239   34.2226   49.8882 H   0  0  0  0  0  0  0  0  0  0  0  0
   34.9465   26.5018   47.4042 H   0  0  0  0  0  0  0  0  0  0  0  0
   33.0846   25.0297   46.6763 H   0  0  0  0  0  0  0  0  0  0  0  0
   30.7549   25.4643   47.3870 H   0  0  0  0  0  0  0  0  0  0  0  0
   30.2693   27.4203   48.8652 H   0  0  0  0  0  0  0  0  0  0  0  0
   32.1192   28.8346   49.5594 H   0  0  0  0  0  0  0  0  0  0  0  0
  1  2  1  0
  3  2  2  0
  4  3  1  0
  5  4  1  0
  5  1  2  0
  6 11  2  0
  6  7  1  0
  7  8  2  0
  8  9  1  0
 10  1  1  0
 10  9  2  0
 11 10  1  0
 12 17  1  0
 12  4  1  0
 13 12  2  0
 14 15  2  0
 14 13  1  0
 15 16  1  0
 16 17  2  0
  2 18  1  0
  3 19  1  0
  6 20  1  0
  7 21  1  0
  8 22  1  0
 13 23  1  0
 14 24  1  0
 15 25  1  0
 16 26  1  0
 17 27  1  0
M  ISO  8  18  14  19  14  20  14  21  14  22  14  23  14  24  14  25  14
M  ISO  2  26  14  27  14
M  END
>  <minimizedAffinity>  (1) 
-5.2857461

>  <minimizedRMSD>  (1) 
2.74014568

$$$$
