
     RDKit          3D

 21 22  0  0  0  0  0  0  0  0999 V2000
   34.6150   28.9760   48.1560 S   0  0  0  0  0  0  0  0  0  0  0  0
   32.5680   30.8050   45.3150 C   0  0  0  0  0  0  0  0  0  0  0  0
   33.4160   30.7950   44.2000 C   0  0  0  0  0  0  0  0  0  0  0  0
   34.6780   30.2000   44.3190 C   0  0  0  0  0  0  0  0  0  0  0  0
   35.0190   29.6570   45.5250 N   0  0  0  0  0  0  0  0  0  0  0  0
   34.1840   29.6830   46.5730 C   0  0  0  0  0  0  0  0  0  0  0  0
   32.9730   30.2450   46.4810 N   0  0  0  0  0  0  0  0  0  0  0  0
   35.9900   29.8160   48.9210 C   0  0  0  0  0  0  0  0  0  0  0  0
   36.7370   30.8580   48.4260 C   0  0  0  0  0  0  0  0  0  0  0  0
   37.7720   31.3760   49.1790 C   0  0  0  0  0  0  0  0  0  0  0  0
   38.0610   30.8560   50.4220 C   0  0  0  0  0  0  0  0  0  0  0  0
   37.3270   29.8140   50.9380 C   0  0  0  0  0  0  0  0  0  0  0  0
   36.2830   29.2900   50.1790 C   0  0  0  0  0  0  0  0  0  0  0  0
   31.5726   31.2677   45.2442 H   0  0  0  0  0  0  0  0  0  0  0  0
   33.0965   31.2460   43.2489 H   0  0  0  0  0  0  0  0  0  0  0  0
   35.3735   30.1708   43.4673 H   0  0  0  0  0  0  0  0  0  0  0  0
   36.5114   31.2774   47.4344 H   0  0  0  0  0  0  0  0  0  0  0  0
   38.3704   32.2101   48.7837 H   0  0  0  0  0  0  0  0  0  0  0  0
   38.8893   31.2798   51.0088 H   0  0  0  0  0  0  0  0  0  0  0  0
   37.5597   29.4021   51.9311 H   0  0  0  0  0  0  0  0  0  0  0  0
   35.6855   28.4555   50.5747 H   0  0  0  0  0  0  0  0  0  0  0  0
  1  8  1  0
  2  7  2  0
  3  4  2  0
  3  2  1  0
  4  5  1  0
  5  6  2  0
  6  1  1  0
  7  6  1  0
  8 13  1  0
  9  8  2  0
  9 10  1  0
 10 11  2  0
 11 12  1  0
 13 12  2  0
  2 14  1  0
  3 15  1  0
  4 16  1  0
  9 17  1  0
 10 18  1  0
 11 19  1  0
 12 20  1  0
 13 21  1  0
M  ISO  8  14  14  15  14  16  14  17  14  18  14  19  14  20  14  21  14
M  END
>  <minimizedAffinity>  (1) 
-4.14342022

>  <minimizedRMSD>  (1) 
5.75664091

$$$$
