
     RDKit          3D

 39 41  0  0  0  0  0  0  0  0999 V2000
   37.0270   30.9530   49.0780 C   0  0  0  0  0  0  0  0  0  0  0  0
   36.7600   31.8800   50.0900 C   0  0  0  0  0  0  0  0  0  0  0  0
   37.3680   33.1210   50.1250 C   0  0  0  0  0  0  0  0  0  0  0  0
   38.2820   33.4750   49.1250 C   0  0  0  0  0  0  0  0  0  0  0  0
   38.5300   32.5510   48.1410 C   0  0  0  0  0  0  0  0  0  0  0  0
   37.9100   31.3150   48.1250 C   0  0  0  0  0  0  0  0  0  0  0  0
   36.3410   29.6740   49.1220 C   0  0  0  0  0  0  0  0  0  0  0  0
   36.8660   28.8120   49.9120 O   0  0  0  0  0  0  0  0  0  0  0  0
   33.5930   30.1630   46.8090 C   0  0  0  0  0  0  0  0  0  0  0  0
   32.9150   28.9400   46.8200 C   0  0  0  0  0  0  0  0  0  0  0  0
   33.4060   27.9460   47.6280 C   0  0  0  0  0  0  0  0  0  0  0  0
   34.5200   28.1740   48.3810 N   0  0  0  0  0  0  0  0  0  0  0  0
   35.1420   29.3380   48.3510 C   0  0  0  0  0  0  0  0  0  0  0  0
   34.6660   30.3120   47.5650 N   0  0  0  0  0  0  0  0  0  0  0  0
   38.2860   30.4660   47.0220 C   0  0  0  0  0  0  0  0  0  0  0  0
   39.0150   30.8140   45.9720 C   0  0  0  0  0  0  0  0  0  0  0  0
   39.4660   30.0510   44.7930 C   0  0  0  0  0  0  0  0  0  0  0  0
   39.3800   30.8740   43.5400 C   0  0  0  0  0  0  0  0  0  0  0  0
   40.1180   30.5240   42.4310 C   0  0  0  0  0  0  0  0  0  0  0  0
   40.0540   31.2760   41.2540 C   0  0  0  0  0  0  0  0  0  0  0  0
   39.2020   32.3620   41.3290 C   0  0  0  0  0  0  0  0  0  0  0  0
   38.4430   32.7690   42.3860 C   0  0  0  0  0  0  0  0  0  0  0  0
   38.5660   31.9620   43.5210 C   0  0  0  0  0  0  0  0  0  0  0  0
   36.0447   31.6138   50.8821 H   0  0  0  0  0  0  0  0  0  0  0  0
   37.1347   33.8276   50.9352 H   0  0  0  0  0  0  0  0  0  0  0  0
   38.7815   34.4550   49.1280 H   0  0  0  0  0  0  0  0  0  0  0  0
   39.2430   32.8009   47.3415 H   0  0  0  0  0  0  0  0  0  0  0  0
   33.2371   30.9910   46.1784 H   0  0  0  0  0  0  0  0  0  0  0  0
   32.0190   28.7805   46.2022 H   0  0  0  0  0  0  0  0  0  0  0  0
   32.9030   26.9686   47.6684 H   0  0  0  0  0  0  0  0  0  0  0  0
   37.9321   29.4250   47.0557 H   0  0  0  0  0  0  0  0  0  0  0  0
   39.3440   31.8636   45.9811 H   0  0  0  0  0  0  0  0  0  0  0  0
   40.5101   29.7406   44.9460 H   0  0  0  0  0  0  0  0  0  0  0  0
   38.8105   29.1753   44.6768 H   0  0  0  0  0  0  0  0  0  0  0  0
   40.7687   29.6380   42.4720 H   0  0  0  0  0  0  0  0  0  0  0  0
   40.6294   31.0261   40.3504 H   0  0  0  0  0  0  0  0  0  0  0  0
   39.1268   32.9764   40.4197 H   0  0  0  0  0  0  0  0  0  0  0  0
   37.7913   33.6544   42.3490 H   0  0  0  0  0  0  0  0  0  0  0  0
   37.9885   32.2144   44.4226 H   0  0  0  0  0  0  0  0  0  0  0  0
  1  7  1  0
  1  2  2  0
  2  3  1  0
  4  3  2  0
  5  4  1  0
  6  5  2  0
  6  1  1  0
  7  8  2  0
  9 10  2  0
  9 14  1  0
 10 11  1  0
 11 12  2  0
 13 12  1  0
 13  7  1  0
 14 13  2  0
 15  6  1  0
 16 15  2  0
 17 16  1  0
 18 17  1  0
 19 18  2  0
 20 21  2  0
 20 19  1  0
 21 22  1  0
 22 23  2  0
 23 18  1  0
  2 24  1  0
  3 25  1  0
  4 26  1  0
  5 27  1  0
  9 28  1  0
 10 29  1  0
 11 30  1  0
 15 31  1  0
 16 32  1  0
 17 33  1  0
 17 34  1  0
 19 35  1  0
 20 36  1  0
 21 37  1  0
 22 38  1  0
 23 39  1  0
M  ISO  8  24  14  25  14  26  14  27  14  28  14  29  14  30  14  33   8
M  ISO  6  34   8  35  14  36  14  37  14  38  14  39  14
M  END
>  <minimizedAffinity>  (1) 
-5.95859575

>  <minimizedRMSD>  (1) 
1.06286621

$$$$
