
     RDKit          3D

 27 29  0  0  0  0  0  0  0  0999 V2000
   34.1290   29.0420   47.1710 C   0  0  0  0  0  0  0  0  0  0  0  0
   34.6590   29.4920   45.9740 C   0  0  0  0  0  0  0  0  0  0  0  0
   35.7900   30.2530   46.2330 C   0  0  0  0  0  0  0  0  0  0  0  0
   35.9160   30.2420   47.5950 N   0  0  0  0  0  0  0  0  0  0  0  0
   34.9270   29.5230   48.1120 N   0  0  0  0  0  0  0  0  0  0  0  0
   32.4690   27.6500   48.4410 C   0  0  0  0  0  0  0  0  0  0  0  0
   32.9420   28.2180   47.2600 C   0  0  0  0  0  0  0  0  0  0  0  0
   32.2070   27.9630   46.0890 C   0  0  0  0  0  0  0  0  0  0  0  0
   31.0930   27.1900   46.1670 N   0  0  0  0  0  0  0  0  0  0  0  0
   30.6740   26.6580   47.3520 C   0  0  0  0  0  0  0  0  0  0  0  0
   31.3730   26.8950   48.4900 N   0  0  0  0  0  0  0  0  0  0  0  0
   36.9270   30.8820   48.3610 C   0  0  0  0  0  0  0  0  0  0  0  0
   37.6170   31.9790   47.9060 C   0  0  0  0  0  0  0  0  0  0  0  0
   38.6060   32.6620   48.5730 C   0  0  0  0  0  0  0  0  0  0  0  0
   38.8930   32.1500   49.8240 C   0  0  0  0  0  0  0  0  0  0  0  0
   38.2580   31.0570   50.3690 C   0  0  0  0  0  0  0  0  0  0  0  0
   37.2900   30.4520   49.6190 C   0  0  0  0  0  0  0  0  0  0  0  0
   34.2486   29.2799   44.9757 H   0  0  0  0  0  0  0  0  0  0  0  0
   36.4422   30.7550   45.5032 H   0  0  0  0  0  0  0  0  0  0  0  0
   33.0245   27.8329   49.3727 H   0  0  0  0  0  0  0  0  0  0  0  0
   32.5291   28.3830   45.1247 H   0  0  0  0  0  0  0  0  0  0  0  0
   29.7675   26.0357   47.3842 H   0  0  0  0  0  0  0  0  0  0  0  0
   37.3508   32.3490   46.9049 H   0  0  0  0  0  0  0  0  0  0  0  0
   39.1219   33.5364   48.1495 H   0  0  0  0  0  0  0  0  0  0  0  0
   39.6746   32.6448   50.4192 H   0  0  0  0  0  0  0  0  0  0  0  0
   38.5202   30.6850   51.3704 H   0  0  0  0  0  0  0  0  0  0  0  0
   36.7738   29.5769   50.0406 H   0  0  0  0  0  0  0  0  0  0  0  0
  1  7  1  0
  1  5  2  0
  2  3  2  0
  2  1  1  0
  3  4  1  0
  4  5  1  0
  4 12  1  0
  6 11  2  0
  7  6  1  0
  8  9  1  0
  8  7  2  0
  9 10  2  0
 10 11  1  0
 12 17  1  0
 13 12  2  0
 13 14  1  0
 14 15  2  0
 15 16  1  0
 17 16  2  0
  2 18  1  0
  3 19  1  0
  6 20  1  0
  8 21  1  0
 10 22  1  0
 13 23  1  0
 14 24  1  0
 15 25  1  0
 16 26  1  0
 17 27  1  0
M  ISO  8  18  14  19  14  20  14  21  14  22  14  23  14  24  14  25  14
M  ISO  2  26  14  27  14
M  END
>  <minimizedAffinity>  (1) 
-4.66135883

>  <minimizedRMSD>  (1) 
5.61594915

$$$$
