
     RDKit          3D

 43 45  0  0  1  0  0  0  0  0999 V2000
   34.3400   29.6100   46.8350 C   0  0  0  0  0  0  0  0  0  0  0  0
   35.2890   30.2770   46.0370 C   0  0  0  0  0  0  0  0  0  0  0  0
   35.5850   29.7280   44.7960 C   0  0  0  0  0  0  0  0  0  0  0  0
   34.9620   28.6000   44.4200 N   0  0  0  0  0  0  0  0  0  0  0  0
   34.0580   27.9820   45.2020 C   0  0  0  0  0  0  0  0  0  0  0  0
   33.7560   28.4860   46.3950 N   0  0  0  0  0  0  0  0  0  0  0  0
   36.5190   30.3300   43.9570 N   0  0  0  0  0  0  0  0  0  0  0  0
   36.7840   31.7870   43.8620 C   0  0  0  0  0  0  0  0  0  0  0  0
   37.6590   32.0270   42.6980 C   0  0  0  0  0  0  0  0  0  0  0  0
   37.5020   30.8070   41.9110 C   0  0  0  0  0  0  0  0  0  0  0  0
   37.4100   29.7900   42.9820 C   0  0  2  0  0  0  0  0  0  0  0  0
   36.9650   28.4470   42.3950 C   0  0  0  0  0  0  0  0  0  0  0  0
   35.6090   28.5110   42.1580 F   0  0  0  0  0  0  0  0  0  0  0  0
   37.1670   27.3630   43.1980 F   0  0  0  0  0  0  0  0  0  0  0  0
   37.5780   28.3330   41.1690 F   0  0  0  0  0  0  0  0  0  0  0  0
   38.6660   29.5410   43.6300 C   0  0  2  0  0  0  0  0  0  0  0  0
   39.2240   30.6080   44.6420 C   0  0  0  0  0  0  0  0  0  0  0  0
   40.0870   31.6360   44.2080 C   0  0  0  0  0  0  0  0  0  0  0  0
   40.5560   32.6760   44.9480 C   0  0  0  0  0  0  0  0  0  0  0  0
   40.1220   32.6940   46.2470 C   0  0  0  0  0  0  0  0  0  0  0  0
   39.2790   31.7530   46.7920 C   0  0  0  0  0  0  0  0  0  0  0  0
   38.8560   30.7390   45.9710 C   0  0  0  0  0  0  0  0  0  0  0  0
   39.5710   29.5740   42.7530 O   0  0  0  0  0  0  0  0  0  0  0  0
   40.6610   28.8860   42.3780 C   0  0  0  0  0  0  0  0  0  0  0  0
   40.3990   27.7080   42.1300 O   0  0  0  0  0  0  0  0  0  0  0  0
   42.0540   28.8670   42.1090 N   0  0  0  0  0  0  0  0  0  0  0  0
   34.0764   30.0128   47.8241 H   0  0  0  0  0  0  0  0  0  0  0  0
   35.7781   31.1992   46.3837 H   0  0  0  0  0  0  0  0  0  0  0  0
   33.5689   27.0600   44.8545 H   0  0  0  0  0  0  0  0  0  0  0  0
   35.8358   32.3292   43.7319 H   0  0  0  0  0  0  0  0  0  0  0  0
   37.2722   32.1428   44.7813 H   0  0  0  0  0  0  0  0  0  0  0  0
   37.3281   32.9090   42.1300 H   0  0  0  0  0  0  0  0  0  0  0  0
   38.7034   32.2317   42.9761 H   0  0  0  0  0  0  0  0  0  0  0  0
   36.5872   30.8349   41.3007 H   0  0  0  0  0  0  0  0  0  0  0  0
   38.3087   30.6290   41.1847 H   0  0  0  0  0  0  0  0  0  0  0  0
   38.4554   28.6045   44.1673 H   0  0  0  0  0  0  0  0  0  0  0  0
   40.4156   31.5916   43.1592 H   0  0  0  0  0  0  0  0  0  0  0  0
   41.2300   33.4416   44.5363 H   0  0  0  0  0  0  0  0  0  0  0  0
   40.4692   33.5121   46.8952 H   0  0  0  0  0  0  0  0  0  0  0  0
   38.9577   31.8115   47.8424 H   0  0  0  0  0  0  0  0  0  0  0  0
   38.1811   29.9810   46.3952 H   0  0  0  0  0  0  0  0  0  0  0  0
   42.5087   27.9928   41.8091 H   0  0  0  0  0  0  0  0  0  0  0  0
   42.6105   29.7274   42.2137 H   0  0  0  0  0  0  0  0  0  0  0  0
  2  1  2  0
  3  2  1  0
  4  3  2  0
  4  5  1  0
  5  6  2  0
  6  1  1  0
  7  3  1  0
  8  7  1  0
  9  8  1  0
 10  9  1  0
 10 11  1  0
 11 12  1  6
 11 16  1  0
 11  7  1  0
 12 14  1  0
 13 12  1  0
 15 12  1  0
 16 17  1  0
 17 22  1  0
 18 17  2  0
 18 19  1  0
 19 20  2  0
 20 21  1  0
 22 21  2  0
 23 16  1  0
 24 23  1  0
 25 24  2  0
 26 24  1  0
  1 27  1  0
  2 28  1  0
  5 29  1  0
  8 30  1  0
  8 31  1  0
  9 32  1  0
  9 33  1  0
 10 34  1  0
 10 35  1  0
 16 36  1  1
 18 37  1  0
 19 38  1  0
 20 39  1  0
 21 40  1  0
 22 41  1  0
 26 42  1  0
 26 43  1  0
M  ISO  8  27  14  28  14  29  14  30  13  31  13  32  13  33  13  34  13
M  ISO  7  35  13  36   8  37  14  38  14  39  14  40  14  41  14
M  END
>  <minimizedAffinity>  (1) 
-5.01595926

>  <minimizedRMSD>  (1) 
2.99903202

$$$$
