
     RDKit          3D

 30 32  0  0  1  0  0  0  0  0999 V2000
   36.8840   31.2980   50.1170 C   0  0  1  0  0  0  0  0  0  0  0  0
   36.6830   29.8690   50.0510 C   0  0  1  0  0  0  0  0  0  0  0  0
   37.5880   30.4040   51.1360 C   0  0  0  0  0  0  0  0  0  0  0  0
   37.8680   31.9940   49.1990 C   0  0  0  0  0  0  0  0  0  0  0  0
   38.3520   33.2270   49.6410 C   0  0  0  0  0  0  0  0  0  0  0  0
   39.2420   33.8540   48.7700 C   0  0  0  0  0  0  0  0  0  0  0  0
   39.5830   33.2730   47.5910 N   0  0  0  0  0  0  0  0  0  0  0  0
   39.0850   32.0650   47.1980 C   0  0  0  0  0  0  0  0  0  0  0  0
   38.2110   31.4250   48.0310 N   0  0  0  0  0  0  0  0  0  0  0  0
   35.3180   29.3290   50.3850 C   0  0  0  0  0  0  0  0  0  0  0  0
   34.6380   28.9750   49.0950 C   0  0  0  0  0  0  0  0  0  0  0  0
   34.2620   27.6700   48.8370 C   0  0  0  0  0  0  0  0  0  0  0  0
   33.6300   27.3030   47.6540 C   0  0  0  0  0  0  0  0  0  0  0  0
   33.4030   28.3200   46.7570 C   0  0  0  0  0  0  0  0  0  0  0  0
   33.7680   29.6310   46.9870 C   0  0  0  0  0  0  0  0  0  0  0  0
   34.3880   29.9630   48.1600 C   0  0  0  0  0  0  0  0  0  0  0  0
   36.1616   32.1274   50.1055 H   0  0  0  0  0  0  0  0  0  0  0  0
   36.8151   29.0972   49.2784 H   0  0  0  0  0  0  0  0  0  0  0  0
   38.6755   30.2469   51.0844 H   0  0  0  0  0  0  0  0  0  0  0  0
   37.6426   30.3364   52.2326 H   0  0  0  0  0  0  0  0  0  0  0  0
   38.0539   33.6697   50.6028 H   0  0  0  0  0  0  0  0  0  0  0  0
   39.6724   34.8294   49.0407 H   0  0  0  0  0  0  0  0  0  0  0  0
   39.3791   31.6184   46.2367 H   0  0  0  0  0  0  0  0  0  0  0  0
   35.4139   28.4330   51.0159 H   0  0  0  0  0  0  0  0  0  0  0  0
   34.7316   30.0792   50.9359 H   0  0  0  0  0  0  0  0  0  0  0  0
   34.4694   26.8971   49.5917 H   0  0  0  0  0  0  0  0  0  0  0  0
   33.3306   26.2646   47.4488 H   0  0  0  0  0  0  0  0  0  0  0  0
   32.9048   28.0762   45.8071 H   0  0  0  0  0  0  0  0  0  0  0  0
   33.5616   30.4038   46.2319 H   0  0  0  0  0  0  0  0  0  0  0  0
   34.6844   31.0037   48.3575 H   0  0  0  0  0  0  0  0  0  0  0  0
  1  3  1  0
  2  1  1  0
  2 10  1  0
  2  3  1  0
  4  5  2  0
  4  1  1  0
  6  5  1  0
  7  6  2  0
  8  7  1  0
  8  9  2  0
  9  4  1  0
 11 10  1  0
 12 11  2  0
 13 12  1  0
 14 15  1  0
 14 13  2  0
 15 16  2  0
 16 11  1  0
  1 17  1  1
  2 18  1  6
  3 19  1  0
  3 20  1  0
  5 21  1  0
  6 22  1  0
  8 23  1  0
 10 24  1  0
 10 25  1  0
 12 26  1  0
 13 27  1  0
 14 28  1  0
 15 29  1  0
 16 30  1  0
M  ISO  8  17  13  18  13  19  13  20  13  21  14  22  14  23  14  24   8
M  ISO  6  25   8  26  14  27  14  28  14  29  14  30  14
M  END
>  <minimizedAffinity>  (1) 
-5.75566101

>  <minimizedRMSD>  (1) 
2.52744532

$$$$
