
     RDKit          3D

 30 32  0  0  0  0  0  0  0  0999 V2000
   37.9230   30.6320   47.2290 F   0  0  0  0  0  0  0  0  0  0  0  0
   38.4030   31.7630   47.8230 C   0  0  0  0  0  0  0  0  0  0  0  0
   38.0570   32.0220   49.1050 C   0  0  0  0  0  0  0  0  0  0  0  0
   38.5750   33.1860   49.6550 C   0  0  0  0  0  0  0  0  0  0  0  0
   39.3980   34.0370   48.9390 C   0  0  0  0  0  0  0  0  0  0  0  0
   39.7200   33.7260   47.6340 C   0  0  0  0  0  0  0  0  0  0  0  0
   39.2130   32.5700   47.0690 C   0  0  0  0  0  0  0  0  0  0  0  0
   36.7400   29.5010   51.5960 C   0  0  0  0  0  0  0  0  0  0  0  0
   37.6130   30.3850   50.9430 C   0  0  0  0  0  0  0  0  0  0  0  0
   37.1930   31.1000   49.8120 C   0  0  0  0  0  0  0  0  0  0  0  0
   35.9250   30.8760   49.4190 N   0  0  0  0  0  0  0  0  0  0  0  0
   35.1000   30.0290   50.0510 C   0  0  0  0  0  0  0  0  0  0  0  0
   35.5050   29.3490   51.1300 N   0  0  0  0  0  0  0  0  0  0  0  0
   39.5530   32.2370   45.6860 C   0  0  0  0  0  0  0  0  0  0  0  0
   38.9570   32.9200   44.6470 C   0  0  0  0  0  0  0  0  0  0  0  0
   39.2010   32.6900   43.3120 C   0  0  0  0  0  0  0  0  0  0  0  0
   40.1320   31.6710   43.0870 C   0  0  0  0  0  0  0  0  0  0  0  0
   40.7620   30.9510   44.0580 C   0  0  0  0  0  0  0  0  0  0  0  0
   40.4600   31.2460   45.3700 C   0  0  0  0  0  0  0  0  0  0  0  0
   38.3228   33.4406   50.6950 H   0  0  0  0  0  0  0  0  0  0  0  0
   39.7916   34.9522   49.4054 H   0  0  0  0  0  0  0  0  0  0  0  0
   40.3730   34.3904   47.0491 H   0  0  0  0  0  0  0  0  0  0  0  0
   37.0739   28.9413   52.4821 H   0  0  0  0  0  0  0  0  0  0  0  0
   38.6369   30.5183   51.3222 H   0  0  0  0  0  0  0  0  0  0  0  0
   34.0748   29.8910   49.6770 H   0  0  0  0  0  0  0  0  0  0  0  0
   38.2328   33.7071   44.9041 H   0  0  0  0  0  0  0  0  0  0  0  0
   38.7122   33.2519   42.5025 H   0  0  0  0  0  0  0  0  0  0  0  0
   40.3757   31.4310   42.0415 H   0  0  0  0  0  0  0  0  0  0  0  0
   41.4857   30.1626   43.8035 H   0  0  0  0  0  0  0  0  0  0  0  0
   40.9496   30.6827   46.1780 H   0  0  0  0  0  0  0  0  0  0  0  0
  1  2  1  0
  2  3  2  0
  3  4  1  0
  3 10  1  0
  5  4  2  0
  6  5  1  0
  7  6  2  0
  7  2  1  0
  9  8  2  0
 10  9  1  0
 11 10  2  0
 11 12  1  0
 12 13  2  0
 13  8  1  0
 14  7  1  0
 15 14  2  0
 16 15  1  0
 17 16  2  0
 17 18  1  0
 18 19  2  0
 19 14  1  0
  4 20  1  0
  5 21  1  0
  6 22  1  0
  8 23  1  0
  9 24  1  0
 12 25  1  0
 15 26  1  0
 16 27  1  0
 17 28  1  0
 18 29  1  0
 19 30  1  0
M  ISO  8  20  14  21  14  22  14  23  14  24  14  25  14  26  14  27  14
M  ISO  3  28  14  29  14  30  14
M  END
>  <minimizedAffinity>  (1) 
-6.88130951

>  <minimizedRMSD>  (1) 
0.540110707

$$$$
