
     RDKit          3D

 46 49  0  0  1  0  0  0  0  0999 V2000
   35.5700   30.1850   47.3110 C   0  0  1  0  0  0  0  0  0  0  0  0
   34.5550   29.0380   47.6920 C   0  0  0  0  0  0  0  0  0  0  0  0
   34.1050   29.2010   49.1440 C   0  0  0  0  0  0  0  0  0  0  0  0
   35.2730   29.4870   50.0320 C   0  0  0  0  0  0  0  0  0  0  0  0
   36.5090   29.0220   49.3250 C   0  0  0  0  0  0  0  0  0  0  0  0
   36.7650   30.0010   48.1970 C   0  0  2  0  0  0  0  0  0  0  0  0
   34.7340   29.9600   45.0170 C   0  0  0  0  0  0  0  0  0  0  0  0
   35.0230   29.9150   43.6560 C   0  0  0  0  0  0  0  0  0  0  0  0
   36.3010   29.9270   43.1350 C   0  0  0  0  0  0  0  0  0  0  0  0
   37.3920   29.9850   44.0110 C   0  0  0  0  0  0  0  0  0  0  0  0
   37.0870   30.0300   45.3580 C   0  0  0  0  0  0  0  0  0  0  0  0
   35.8090   30.0220   45.8980 C   0  0  0  0  0  0  0  0  0  0  0  0
   32.8080   28.5290   45.4180 C   0  0  0  0  0  0  0  0  0  0  0  0
   33.3570   29.8510   45.3610 C   0  0  0  0  0  0  0  0  0  0  0  0
   32.5050   30.8770   45.6600 C   0  0  0  0  0  0  0  0  0  0  0  0
   31.2250   30.6120   45.9930 N   0  0  0  0  0  0  0  0  0  0  0  0
   30.7270   29.3300   46.0400 C   0  0  0  0  0  0  0  0  0  0  0  0
   31.5360   28.2490   45.7430 N   0  0  0  0  0  0  0  0  0  0  0  0
   37.2040   31.3370   48.7720 C   0  0  0  0  0  0  0  0  0  0  0  0
   36.7140   32.0870   49.7810 C   0  0  0  0  0  0  0  0  0  0  0  0
   37.3120   33.2830   50.1100 C   0  0  0  0  0  0  0  0  0  0  0  0
   38.4090   33.7860   49.4640 C   0  0  0  0  0  0  0  0  0  0  0  0
   38.9240   33.0430   48.4370 C   0  0  0  0  0  0  0  0  0  0  0  0
   38.3290   31.8490   48.1080 C   0  0  0  0  0  0  0  0  0  0  0  0
   35.2267   31.2181   47.4690 H   0  0  0  0  0  0  0  0  0  0  0  0
   33.6780   29.0926   47.0302 H   0  0  0  0  0  0  0  0  0  0  0  0
   35.0503   28.0629   47.5741 H   0  0  0  0  0  0  0  0  0  0  0  0
   33.3900   30.0344   49.2087 H   0  0  0  0  0  0  0  0  0  0  0  0
   33.6317   28.2645   49.4740 H   0  0  0  0  0  0  0  0  0  0  0  0
   35.3382   30.5673   50.2286 H   0  0  0  0  0  0  0  0  0  0  0  0
   35.1613   28.9660   50.9943 H   0  0  0  0  0  0  0  0  0  0  0  0
   37.3618   29.0138   50.0197 H   0  0  0  0  0  0  0  0  0  0  0  0
   36.3808   28.0002   48.9383 H   0  0  0  0  0  0  0  0  0  0  0  0
   37.5645   29.5806   47.5692 H   0  0  0  0  0  0  0  0  0  0  0  0
   34.1797   29.8668   42.9514 H   0  0  0  0  0  0  0  0  0  0  0  0
   36.4603   29.8915   42.0472 H   0  0  0  0  0  0  0  0  0  0  0  0
   38.4304   29.9942   43.6483 H   0  0  0  0  0  0  0  0  0  0  0  0
   37.9302   30.0761   46.0629 H   0  0  0  0  0  0  0  0  0  0  0  0
   33.4737   27.6865   45.1793 H   0  0  0  0  0  0  0  0  0  0  0  0
   32.8624   31.9169   45.6291 H   0  0  0  0  0  0  0  0  0  0  0  0
   29.6754   29.1638   46.3165 H   0  0  0  0  0  0  0  0  0  0  0  0
   35.8336   31.7418   50.3428 H   0  0  0  0  0  0  0  0  0  0  0  0
   36.8842   33.8669   50.9383 H   0  0  0  0  0  0  0  0  0  0  0  0
   38.8573   34.7465   49.7580 H   0  0  0  0  0  0  0  0  0  0  0  0
   39.8044   33.3975   47.8810 H   0  0  0  0  0  0  0  0  0  0  0  0
   38.7571   31.2639   47.2807 H   0  0  0  0  0  0  0  0  0  0  0  0
  1  2  1  0
  1  6  1  0
  2  3  1  0
  3  4  1  0
  5  4  1  0
  6 19  1  0
  6  5  1  0
  7 14  1  0
  7 12  1  0
  8  7  2  0
  9  8  1  0
  9 10  2  0
 10 11  1  0
 11 12  2  0
 12  1  1  0
 13 18  2  0
 14 13  1  0
 14 15  2  0
 15 16  1  0
 16 17  2  0
 18 17  1  0
 19 20  2  0
 20 21  1  0
 22 21  2  0
 23 22  1  0
 24 23  2  0
 24 19  1  0
  1 25  1  6
  2 26  1  0
  2 27  1  0
  3 28  1  0
  3 29  1  0
  4 30  1  0
  4 31  1  0
  5 32  1  0
  5 33  1  0
  6 34  1  6
  8 35  1  0
  9 36  1  0
 10 37  1  0
 11 38  1  0
 13 39  1  0
 15 40  1  0
 17 41  1  0
 20 42  1  0
 21 43  1  0
 22 44  1  0
 23 45  1  0
 24 46  1  0
M  ISO  8  25  13  26  13  27  13  28  13  29  13  30  13  31  13  32  13
M  ISO  8  33  13  34  13  35  14  36  14  37  14  38  14  39  14  40  14
M  ISO  6  41  14  42  14  43  14  44  14  45  14  46  14
M  END
>  <minimizedAffinity>  (1) 
-5.81121349

>  <minimizedRMSD>  (1) 
3.77652359

$$$$
