
     RDKit          3D

 38 41  0  0  1  0  0  0  0  0999 V2000
   35.8620   29.1480   49.8050 C   0  0  0  0  0  0  0  0  0  0  0  0
   34.8100   29.6240   50.5590 C   0  0  0  0  0  0  0  0  0  0  0  0
   33.6380   29.0500   50.0480 C   0  0  0  0  0  0  0  0  0  0  0  0
   34.0550   28.2510   49.0060 C   0  0  0  0  0  0  0  0  0  0  0  0
   35.3630   28.3420   48.9020 O   0  0  0  0  0  0  0  0  0  0  0  0
   37.2340   29.5440   50.0650 C   0  0  0  0  0  0  0  0  0  0  0  0
   37.8640   28.9840   50.9770 O   0  0  0  0  0  0  0  0  0  0  0  0
   37.7860   30.5770   49.2360 C   0  0  0  0  0  0  0  0  0  0  0  0
   38.1210   31.7730   49.8530 C   0  0  0  0  0  0  0  0  0  0  0  0
   38.6590   32.7980   49.0710 C   0  0  0  0  0  0  0  0  0  0  0  0
   38.8270   32.5620   47.7240 N   0  0  0  0  0  0  0  0  0  0  0  0
   38.4930   31.3990   47.1620 C   0  0  0  0  0  0  0  0  0  0  0  0
   37.9750   30.4070   47.9050 N   0  0  0  0  0  0  0  0  0  0  0  0
   33.1940   27.4330   48.1580 C   0  0  0  0  0  0  0  0  0  0  0  0
   31.9440   27.3980   48.4170 O   0  0  0  0  0  0  0  0  0  0  0  0
   33.7680   26.6480   47.0140 C   0  0  1  0  0  0  0  0  0  0  0  0
   33.7680   25.1080   47.3750 C   0  0  0  0  0  0  0  0  0  0  0  0
   32.9490   25.6820   46.2830 C   0  0  2  0  0  0  0  0  0  0  0  0
   33.2990   25.4760   44.8540 C   0  0  0  0  0  0  0  0  0  0  0  0
   34.6390   25.3890   44.4880 C   0  0  0  0  0  0  0  0  0  0  0  0
   34.9930   25.1950   43.1480 C   0  0  0  0  0  0  0  0  0  0  0  0
   33.9640   25.0980   42.2320 C   0  0  0  0  0  0  0  0  0  0  0  0
   32.6220   25.1770   42.5390 C   0  0  0  0  0  0  0  0  0  0  0  0
   32.3160   25.3680   43.8760 C   0  0  0  0  0  0  0  0  0  0  0  0
   34.8781   30.3243   51.4046 H   0  0  0  0  0  0  0  0  0  0  0  0
   32.6081   29.2041   50.4022 H   0  0  0  0  0  0  0  0  0  0  0  0
   37.9666   31.9114   50.9333 H   0  0  0  0  0  0  0  0  0  0  0  0
   38.9398   33.7636   49.5168 H   0  0  0  0  0  0  0  0  0  0  0  0
   38.6429   31.2514   46.0823 H   0  0  0  0  0  0  0  0  0  0  0  0
   34.4423   27.4432   46.6632 H   0  0  0  0  0  0  0  0  0  0  0  0
   34.6425   24.4810   47.1467 H   0  0  0  0  0  0  0  0  0  0  0  0
   33.5826   24.5017   48.2739 H   0  0  0  0  0  0  0  0  0  0  0  0
   31.8763   25.5752   46.0639 H   0  0  0  0  0  0  0  0  0  0  0  0
   35.4229   25.4731   45.2550 H   0  0  0  0  0  0  0  0  0  0  0  0
   36.0458   25.1229   42.8376 H   0  0  0  0  0  0  0  0  0  0  0  0
   34.2357   24.9461   41.1770 H   0  0  0  0  0  0  0  0  0  0  0  0
   31.8416   25.0933   41.7683 H   0  0  0  0  0  0  0  0  0  0  0  0
   31.2596   25.4366   44.1747 H   0  0  0  0  0  0  0  0  0  0  0  0
  1  6  1  0
  1  2  2  0
  3  2  1  0
  4  3  2  0
  5  4  1  0
  5  1  1  0
  6  7  2  0
  8  9  2  0
  8  6  1  0
 10  9  1  0
 11 10  2  0
 12 11  1  0
 12 13  2  0
 13  8  1  0
 14 15  2  0
 14  4  1  0
 16 17  1  0
 16 14  1  0
 18 16  1  0
 18 17  1  0
 19 18  1  0
 20 19  2  0
 21 20  1  0
 22 23  1  0
 22 21  2  0
 23 24  2  0
 24 19  1  0
  2 25  1  0
  3 26  1  0
  9 27  1  0
 10 28  1  0
 12 29  1  0
 16 30  1  6
 17 31  1  0
 17 32  1  0
 18 33  1  6
 20 34  1  0
 21 35  1  0
 22 36  1  0
 23 37  1  0
 24 38  1  0
M  ISO  8  25  14  26  14  27  14  28  14  29  14  30  13  31  13  32  13
M  ISO  6  33  13  34  14  35  14  36  14  37  14  38  14
M  END
>  <minimizedAffinity>  (1) 
-4.9831028

>  <minimizedRMSD>  (1) 
0.334183127

$$$$
