
     RDKit          3D

 32 34  0  0  0  0  0  0  0  0999 V2000
   33.9730   28.3530   49.3470 C   0  0  0  0  0  0  0  0  0  0  0  0
   34.7330   29.3430   48.7130 C   0  0  0  0  0  0  0  0  0  0  0  0
   34.3010   29.8240   47.4720 C   0  0  0  0  0  0  0  0  0  0  0  0
   33.1620   29.3020   46.9430 N   0  0  0  0  0  0  0  0  0  0  0  0
   32.4540   28.3560   47.5700 C   0  0  0  0  0  0  0  0  0  0  0  0
   32.8510   27.8770   48.7660 N   0  0  0  0  0  0  0  0  0  0  0  0
   31.2560   27.8530   46.9510 N   0  0  0  0  0  0  0  0  0  0  0  0
   30.1270   28.6980   46.5900 C   0  0  0  0  0  0  0  0  0  0  0  0
   29.2370   27.8170   45.7970 C   0  0  0  0  0  0  0  0  0  0  0  0
   30.0320   26.5720   45.4950 C   0  0  0  0  0  0  0  0  0  0  0  0
   31.0140   26.4610   46.6110 C   0  0  0  0  0  0  0  0  0  0  0  0
   35.9500   29.8810   49.3020 C   0  0  0  0  0  0  0  0  0  0  0  0
   36.8380   30.5290   48.4810 C   0  0  0  0  0  0  0  0  0  0  0  0
   38.0020   31.0440   49.0350 C   0  0  0  0  0  0  0  0  0  0  0  0
   38.2840   30.9220   50.3750 C   0  0  0  0  0  0  0  0  0  0  0  0
   37.3710   30.2640   51.1880 C   0  0  0  0  0  0  0  0  0  0  0  0
   36.2110   29.7500   50.6460 C   0  0  0  0  0  0  0  0  0  0  0  0
   34.2917   27.9607   50.3240 H   0  0  0  0  0  0  0  0  0  0  0  0
   34.8668   30.6025   46.9392 H   0  0  0  0  0  0  0  0  0  0  0  0
   29.6108   29.0616   47.4907 H   0  0  0  0  0  0  0  0  0  0  0  0
   30.4380   29.5908   46.0276 H   0  0  0  0  0  0  0  0  0  0  0  0
   28.3376   27.5630   46.3771 H   0  0  0  0  0  0  0  0  0  0  0  0
   28.9046   28.3126   44.8729 H   0  0  0  0  0  0  0  0  0  0  0  0
   29.3747   25.6903   45.4693 H   0  0  0  0  0  0  0  0  0  0  0  0
   30.5261   26.6252   44.5137 H   0  0  0  0  0  0  0  0  0  0  0  0
   30.5880   25.9112   47.4632 H   0  0  0  0  0  0  0  0  0  0  0  0
   31.9263   25.9087   46.3413 H   0  0  0  0  0  0  0  0  0  0  0  0
   36.6318   30.6382   47.4060 H   0  0  0  0  0  0  0  0  0  0  0  0
   38.7191   31.5645   48.3833 H   0  0  0  0  0  0  0  0  0  0  0  0
   39.2128   31.3367   50.7939 H   0  0  0  0  0  0  0  0  0  0  0  0
   37.5723   30.1525   52.2637 H   0  0  0  0  0  0  0  0  0  0  0  0
   35.4891   29.2313   51.2940 H   0  0  0  0  0  0  0  0  0  0  0  0
  2 12  1  0
  2  1  2  0
  3  2  1  0
  4  3  2  0
  4  5  1  0
  5  6  2  0
  6  1  1  0
  7  5  1  0
  8  7  1  0
  9  8  1  0
 10  9  1  0
 10 11  1  0
 11  7  1  0
 12 17  2  0
 13 14  2  0
 13 12  1  0
 14 15  1  0
 15 16  2  0
 17 16  1  0
  1 18  1  0
  3 19  1  0
  8 20  1  0
  8 21  1  0
  9 22  1  0
  9 23  1  0
 10 24  1  0
 10 25  1  0
 11 26  1  0
 11 27  1  0
 13 28  1  0
 14 29  1  0
 15 30  1  0
 16 31  1  0
 17 32  1  0
M  ISO  8  18  14  19  14  20  13  21  13  22  13  23  13  24  13  25  13
M  ISO  7  26  13  27  13  28  14  29  14  30  14  31  14  32  14
M  END
>  <minimizedAffinity>  (1) 
-5.55813456

>  <minimizedRMSD>  (1) 
5.95444536

$$$$
