
     RDKit          3D

 30 32  0  0  0  0  0  0  0  0999 V2000
   37.5580   30.2410   46.9450 Cl  0  0  0  0  0  0  0  0  0  0  0  0
   38.2020   31.6350   47.7810 C   0  0  0  0  0  0  0  0  0  0  0  0
   37.8540   31.8300   49.0730 C   0  0  0  0  0  0  0  0  0  0  0  0
   38.3990   32.9630   49.6950 C   0  0  0  0  0  0  0  0  0  0  0  0
   39.2500   33.8140   48.9830 C   0  0  0  0  0  0  0  0  0  0  0  0
   39.5720   33.5730   47.6740 C   0  0  0  0  0  0  0  0  0  0  0  0
   39.0320   32.4550   47.0670 C   0  0  0  0  0  0  0  0  0  0  0  0
   37.4100   30.2800   50.9760 C   0  0  0  0  0  0  0  0  0  0  0  0
   36.9760   30.9670   49.8390 C   0  0  0  0  0  0  0  0  0  0  0  0
   35.6350   30.7920   49.4530 C   0  0  0  0  0  0  0  0  0  0  0  0
   34.8430   29.9720   50.2000 N   0  0  0  0  0  0  0  0  0  0  0  0
   35.2920   29.3290   51.2830 C   0  0  0  0  0  0  0  0  0  0  0  0
   36.5830   29.4800   51.6770 N   0  0  0  0  0  0  0  0  0  0  0  0
   39.4110   32.2510   45.6720 C   0  0  0  0  0  0  0  0  0  0  0  0
   40.3520   31.2720   45.4250 C   0  0  0  0  0  0  0  0  0  0  0  0
   40.8090   30.9650   44.1580 C   0  0  0  0  0  0  0  0  0  0  0  0
   40.2700   31.6990   43.1210 C   0  0  0  0  0  0  0  0  0  0  0  0
   39.3240   32.6900   43.3190 C   0  0  0  0  0  0  0  0  0  0  0  0
   38.8930   32.9660   44.6110 C   0  0  0  0  0  0  0  0  0  0  0  0
   38.1564   33.1825   50.7452 H   0  0  0  0  0  0  0  0  0  0  0  0
   39.6704   34.6973   49.4859 H   0  0  0  0  0  0  0  0  0  0  0  0
   40.2409   34.2495   47.1218 H   0  0  0  0  0  0  0  0  0  0  0  0
   38.4527   30.3953   51.3069 H   0  0  0  0  0  0  0  0  0  0  0  0
   35.2339   31.3060   48.5671 H   0  0  0  0  0  0  0  0  0  0  0  0
   34.6153   28.6773   51.8552 H   0  0  0  0  0  0  0  0  0  0  0  0
   40.7577   30.7089   46.2784 H   0  0  0  0  0  0  0  0  0  0  0  0
   41.5600   30.1800   43.9854 H   0  0  0  0  0  0  0  0  0  0  0  0
   40.6059   31.4879   42.0950 H   0  0  0  0  0  0  0  0  0  0  0  0
   38.9186   33.2518   42.4646 H   0  0  0  0  0  0  0  0  0  0  0  0
   38.1425   33.7506   44.7873 H   0  0  0  0  0  0  0  0  0  0  0  0
  1  2  1  0
  2  3  2  0
  3  4  1  0
  3  9  1  0
  5  4  2  0
  6  5  1  0
  7  6  2  0
  7  2  1  0
  8 13  2  0
  9  8  1  0
 10  9  2  0
 10 11  1  0
 11 12  2  0
 12 13  1  0
 14  7  1  0
 15 14  2  0
 16 15  1  0
 17 18  1  0
 17 16  2  0
 18 19  2  0
 19 14  1  0
  4 20  1  0
  5 21  1  0
  6 22  1  0
  8 23  1  0
 10 24  1  0
 12 25  1  0
 15 26  1  0
 16 27  1  0
 17 28  1  0
 18 29  1  0
 19 30  1  0
M  ISO  8  20  14  21  14  22  14  23  14  24  14  25  14  26  14  27  14
M  ISO  3  28  14  29  14  30  14
M  END
>  <minimizedAffinity>  (1) 
-6.45060873

>  <minimizedRMSD>  (1) 
1.03180051

$$$$
