
     RDKit          3D

 22 23  0  0  0  0  0  0  0  0999 V2000
   37.3020   30.3880   50.9900 C   0  0  0  0  0  0  0  0  0  0  0  0
   38.2670   31.0410   50.1900 C   0  0  0  0  0  0  0  0  0  0  0  0
   38.0550   31.0610   48.8140 C   0  0  0  0  0  0  0  0  0  0  0  0
   36.9460   30.4610   48.3180 N   0  0  0  0  0  0  0  0  0  0  0  0
   36.0490   29.8490   49.1020 C   0  0  0  0  0  0  0  0  0  0  0  0
   36.2340   29.8200   50.4200 N   0  0  0  0  0  0  0  0  0  0  0  0
   39.0380   31.7220   48.0330 N   0  0  0  0  0  0  0  0  0  0  0  0
   34.8770   29.2230   48.4990 C   0  0  0  0  0  0  0  0  0  0  0  0
   34.4210   28.0080   49.0020 C   0  0  0  0  0  0  0  0  0  0  0  0
   33.3100   27.4500   48.4060 C   0  0  0  0  0  0  0  0  0  0  0  0
   32.6540   28.0460   47.3500 C   0  0  0  0  0  0  0  0  0  0  0  0
   33.1160   29.2600   46.8530 C   0  0  0  0  0  0  0  0  0  0  0  0
   34.2240   29.8250   47.4420 C   0  0  0  0  0  0  0  0  0  0  0  0
   37.4295   30.3470   52.0818 H   0  0  0  0  0  0  0  0  0  0  0  0
   39.1525   31.5157   50.6378 H   0  0  0  0  0  0  0  0  0  0  0  0
   38.9359   31.7696   47.0092 H   0  0  0  0  0  0  0  0  0  0  0  0
   39.8537   32.1542   48.4899 H   0  0  0  0  0  0  0  0  0  0  0  0
   34.9277   27.5119   49.8429 H   0  0  0  0  0  0  0  0  0  0  0  0
   32.9317   26.4905   48.7885 H   0  0  0  0  0  0  0  0  0  0  0  0
   31.7713   27.5647   46.9036 H   0  0  0  0  0  0  0  0  0  0  0  0
   32.6093   29.7553   46.0116 H   0  0  0  0  0  0  0  0  0  0  0  0
   34.6006   30.7850   47.0592 H   0  0  0  0  0  0  0  0  0  0  0  0
  2  1  2  0
  3  2  1  0
  4  3  2  0
  4  5  1  0
  5  6  2  0
  6  1  1  0
  7  3  1  0
  8  9  2  0
  8  5  1  0
 10  9  1  0
 11 10  2  0
 12 11  1  0
 12 13  2  0
 13  8  1  0
  1 14  1  0
  2 15  1  0
  7 16  1  0
  7 17  1  0
  9 18  1  0
 10 19  1  0
 11 20  1  0
 12 21  1  0
 13 22  1  0
M  ISO  7  14  14  15  14  18  14  19  14  20  14  21  14  22  14
M  END
>  <minimizedAffinity>  (1) 
-4.93135357

>  <minimizedRMSD>  (1) 
1.67698383

$$$$
