
     RDKit          3D

 32 34  0  0  1  0  0  0  0  0999 V2000
   36.8460   31.3760   49.1670 C   0  0  0  0  0  0  0  0  0  0  0  0
   37.1610   32.4820   49.9500 C   0  0  0  0  0  0  0  0  0  0  0  0
   38.1830   33.2820   49.4450 C   0  0  0  0  0  0  0  0  0  0  0  0
   38.8130   32.9770   48.2630 N   0  0  0  0  0  0  0  0  0  0  0  0
   38.4670   31.8830   47.5330 C   0  0  0  0  0  0  0  0  0  0  0  0
   37.4670   31.0730   47.9960 N   0  0  0  0  0  0  0  0  0  0  0  0
   39.1630   31.6120   46.2970 C   0  0  0  0  0  0  0  0  0  0  0  0
   40.1190   32.4770   45.8190 C   0  0  0  0  0  0  0  0  0  0  0  0
   40.7180   32.1250   44.6380 C   0  0  0  0  0  0  0  0  0  0  0  0
   40.4400   30.9900   43.9070 C   0  0  0  0  0  0  0  0  0  0  0  0
   39.4630   30.1320   44.4210 C   0  0  0  0  0  0  0  0  0  0  0  0
   38.8330   30.4620   45.6230 C   0  0  0  0  0  0  0  0  0  0  0  0
   35.7380   30.5020   49.6770 C   0  0  1  0  0  0  0  0  0  0  0  0
   34.9690   29.6380   48.7810 C   0  0  2  0  0  0  0  0  0  0  0  0
   36.0940   29.0050   49.5420 C   0  0  0  0  0  0  0  0  0  0  0  0
   35.1090   29.8530   47.4170 O   0  0  0  0  0  0  0  0  0  0  0  0
   34.1730   29.9470   46.4480 C   0  0  0  0  0  0  0  0  0  0  0  0
   34.2390   29.3070   45.3780 O   0  0  0  0  0  0  0  0  0  0  0  0
   33.1960   30.8500   46.8750 N   0  0  0  0  0  0  0  0  0  0  0  0
   36.6433   32.7070   50.8941 H   0  0  0  0  0  0  0  0  0  0  0  0
   38.4923   34.1771   50.0045 H   0  0  0  0  0  0  0  0  0  0  0  0
   40.3878   33.3995   46.3545 H   0  0  0  0  0  0  0  0  0  0  0  0
   41.4852   32.8054   44.2398 H   0  0  0  0  0  0  0  0  0  0  0  0
   40.9619   30.7697   42.9641 H   0  0  0  0  0  0  0  0  0  0  0  0
   39.1941   29.2094   43.8858 H   0  0  0  0  0  0  0  0  0  0  0  0
   38.0633   29.7927   46.0347 H   0  0  0  0  0  0  0  0  0  0  0  0
   35.4117   31.2215   50.4424 H   0  0  0  0  0  0  0  0  0  0  0  0
   33.9031   29.3880   48.6746 H   0  0  0  0  0  0  0  0  0  0  0  0
   35.8855   28.3065   50.3658 H   0  0  0  0  0  0  0  0  0  0  0  0
   36.9933   28.4239   49.2897 H   0  0  0  0  0  0  0  0  0  0  0  0
   32.3892   31.0600   46.2701 H   0  0  0  0  0  0  0  0  0  0  0  0
   33.2826   31.3057   47.7946 H   0  0  0  0  0  0  0  0  0  0  0  0
  1 13  1  0
  1  2  2  0
  3  2  1  0
  4  3  2  0
  5  6  2  0
  5  4  1  0
  6  1  1  0
  7  5  1  0
  8  7  2  0
  9  8  1  0
 10 11  1  0
 10  9  2  0
 11 12  2  0
 12  7  1  0
 14 15  1  0
 14 13  1  0
 15 13  1  0
 16 14  1  0
 17 19  1  0
 17 16  1  0
 18 17  2  0
  2 20  1  0
  3 21  1  0
  8 22  1  0
  9 23  1  0
 10 24  1  0
 11 25  1  0
 12 26  1  0
 13 27  1  1
 14 28  1  1
 15 29  1  0
 15 30  1  0
 19 31  1  0
 19 32  1  0
M  ISO  8  20  14  21  14  22  14  23  14  24  14  25  14  26  14  27  13
M  ISO  3  28  13  29  13  30  13
M  END
>  <minimizedAffinity>  (1) 
-6.21825552

>  <minimizedRMSD>  (1) 
2.82483244

$$$$
