
     RDKit          3D

 44 47  0  0  0  0  0  0  0  0999 V2000
   32.8510   27.8130   48.6750 C   0  0  0  0  0  0  0  0  0  0  0  0
   33.1810   27.0160   47.4800 C   0  0  0  0  0  0  0  0  0  0  0  0
   33.7180   25.7310   47.5640 C   0  0  0  0  0  0  0  0  0  0  0  0
   34.0430   25.0050   46.4330 C   0  0  0  0  0  0  0  0  0  0  0  0
   33.8440   25.5360   45.1770 C   0  0  0  0  0  0  0  0  0  0  0  0
   33.3170   26.7950   45.0970 C   0  0  0  0  0  0  0  0  0  0  0  0
   32.9860   27.5360   46.2220 C   0  0  0  0  0  0  0  0  0  0  0  0
   32.4160   28.8310   45.8860 C   0  0  0  0  0  0  0  0  0  0  0  0
   31.0780   28.7760   45.4770 C   0  0  0  0  0  0  0  0  0  0  0  0
   30.3310   29.8820   45.1280 C   0  0  0  0  0  0  0  0  0  0  0  0
   30.8960   31.1270   45.1710 C   0  0  0  0  0  0  0  0  0  0  0  0
   32.2120   31.1970   45.5720 C   0  0  0  0  0  0  0  0  0  0  0  0
   32.9600   30.0960   45.9210 C   0  0  0  0  0  0  0  0  0  0  0  0
   35.2580   28.3030   49.0770 C   0  0  0  0  0  0  0  0  0  0  0  0
   33.9900   28.6120   49.1890 C   0  0  0  0  0  0  0  0  0  0  0  0
   37.3030   30.1350   51.4840 C   0  0  0  0  0  0  0  0  0  0  0  0
   38.0290   31.0150   50.6510 C   0  0  0  0  0  0  0  0  0  0  0  0
   37.7880   30.9480   49.2660 C   0  0  0  0  0  0  0  0  0  0  0  0
   36.8680   30.0400   48.7880 N   0  0  0  0  0  0  0  0  0  0  0  0
   36.2150   29.2330   49.6580 C   0  0  0  0  0  0  0  0  0  0  0  0
   36.4300   29.2810   50.9860 N   0  0  0  0  0  0  0  0  0  0  0  0
   38.4740   31.8100   48.2930 C   0  0  0  0  0  0  0  0  0  0  0  0
   38.8020   31.3850   47.0330 C   0  0  0  0  0  0  0  0  0  0  0  0
   39.4340   32.4590   46.3900 C   0  0  0  0  0  0  0  0  0  0  0  0
   39.4570   33.4780   47.2900 N   0  0  0  0  0  0  0  0  0  0  0  0
   38.8850   33.0910   48.4230 N   0  0  0  0  0  0  0  0  0  0  0  0
   32.5202   27.1279   49.4695 H   0  0  0  0  0  0  0  0  0  0  0  0
   32.0647   28.5240   48.3815 H   0  0  0  0  0  0  0  0  0  0  0  0
   33.8871   25.2842   48.5549 H   0  0  0  0  0  0  0  0  0  0  0  0
   34.4643   23.9942   46.5368 H   0  0  0  0  0  0  0  0  0  0  0  0
   34.1001   24.9671   44.2710 H   0  0  0  0  0  0  0  0  0  0  0  0
   33.1492   27.2368   44.1037 H   0  0  0  0  0  0  0  0  0  0  0  0
   30.5925   27.7900   45.4311 H   0  0  0  0  0  0  0  0  0  0  0  0
   29.2830   29.7630   44.8157 H   0  0  0  0  0  0  0  0  0  0  0  0
   30.3272   32.0283   44.8987 H   0  0  0  0  0  0  0  0  0  0  0  0
   32.6908   32.1864   45.6156 H   0  0  0  0  0  0  0  0  0  0  0  0
   34.0068   30.2279   46.2322 H   0  0  0  0  0  0  0  0  0  0  0  0
   35.5841   27.3841   48.5679 H   0  0  0  0  0  0  0  0  0  0  0  0
   33.7479   29.5491   49.7117 H   0  0  0  0  0  0  0  0  0  0  0  0
   37.4693   30.1626   52.5710 H   0  0  0  0  0  0  0  0  0  0  0  0
   38.7560   31.7265   51.0695 H   0  0  0  0  0  0  0  0  0  0  0  0
   38.6067   30.3901   46.6064 H   0  0  0  0  0  0  0  0  0  0  0  0
   39.8311   32.4741   45.3643 H   0  0  0  0  0  0  0  0  0  0  0  0
   39.8584   34.4108   47.1180 H   0  0  0  0  0  0  0  0  0  0  0  0
  1 15  1  0
  2  3  2  0
  2  1  1  0
  4  3  1  0
  5  4  2  0
  6  5  1  0
  6  7  2  0
  7  2  1  0
  8 13  1  0
  8  7  1  0
  9  8  2  0
 10 11  2  0
 10  9  1  0
 11 12  1  0
 12 13  2  0
 14 15  2  0
 14 20  1  0
 17 16  2  0
 18 17  1  0
 19 18  2  0
 19 20  1  0
 20 21  2  0
 21 16  1  0
 22 26  2  0
 22 18  1  0
 23 22  1  0
 24 23  2  0
 24 25  1  0
 25 26  1  0
  1 27  1  0
  1 28  1  0
  3 29  1  0
  4 30  1  0
  5 31  1  0
  6 32  1  0
  9 33  1  0
 10 34  1  0
 11 35  1  0
 12 36  1  0
 13 37  1  0
 14 38  1  0
 15 39  1  0
 16 40  1  0
 17 41  1  0
 23 42  1  0
 24 43  1  0
 25 44  1  0
M  ISO  8  27   8  28   8  29  14  30  14  31  14  32  14  33  14  34  14
M  ISO  8  35  14  36  14  37  14  40  14  41  14  42  14  43  14  44   9
M  END
>  <minimizedAffinity>  (1) 
-6.40069246

>  <minimizedRMSD>  (1) 
1.31599009

$$$$
