
     RDKit          3D

 35 36  0  0  1  0  0  0  0  0999 V2000
   38.2010   30.6290   46.7800 S   0  0  0  0  0  0  0  0  0  0  0  0
   39.6250   32.9010   46.3020 N   0  0  0  0  0  0  0  0  0  0  0  0
   38.2940   32.3650   46.1800 C   0  0  1  0  0  0  0  0  0  0  0  0
   37.8680   32.3350   44.7410 C   0  0  0  0  0  0  0  0  0  0  0  0
   38.8350   31.4990   44.0320 N   0  0  0  0  0  0  0  0  0  0  0  0
   40.0810   32.2810   44.0260 C   0  0  0  0  0  0  0  0  0  0  0  0
   40.5870   32.2650   45.4650 C   0  0  2  0  0  0  0  0  0  0  0  0
   40.8580   30.8990   45.8340 N   0  0  0  0  0  0  0  0  0  0  0  0
   35.7960   31.1270   50.0070 C   0  0  0  0  0  0  0  0  0  0  0  0
   36.8250   31.3360   49.1190 C   0  0  0  0  0  0  0  0  0  0  0  0
   36.9330   30.5020   48.0300 C   0  0  0  0  0  0  0  0  0  0  0  0
   35.9990   29.4890   47.8750 N   0  0  0  0  0  0  0  0  0  0  0  0
   35.0280   29.3480   48.7780 C   0  0  0  0  0  0  0  0  0  0  0  0
   34.9000   30.1390   49.8390 N   0  0  0  0  0  0  0  0  0  0  0  0
   34.0550   28.2750   48.5820 C   0  0  0  0  0  0  0  0  0  0  0  0
   34.2150   27.3080   47.8130 O   0  0  0  0  0  0  0  0  0  0  0  0
   32.8610   28.3160   49.2920 O   0  0  0  0  0  0  0  0  0  0  0  0
   30.3810   27.8910   49.8740 O   0  0  0  0  0  0  0  0  0  0  0  0
   31.3720   27.7010   48.7280 P   0  0  0  0  0  0  0  0  0  0  0  0
   31.4290   26.0970   48.2750 O   0  0  0  0  0  0  0  0  0  0  0  0
   30.7650   28.6700   47.4550 O   0  0  0  0  0  0  0  0  0  0  0  0
   39.5946   33.9012   46.0578 H   0  0  0  0  0  0  0  0  0  0  0  0
   37.6445   33.0165   46.7831 H   0  0  0  0  0  0  0  0  0  0  0  0
   36.8594   31.9048   44.6535 H   0  0  0  0  0  0  0  0  0  0  0  0
   37.8374   33.3496   44.3170 H   0  0  0  0  0  0  0  0  0  0  0  0
   38.9709   30.6049   44.5250 H   0  0  0  0  0  0  0  0  0  0  0  0
   40.8200   31.8193   43.3547 H   0  0  0  0  0  0  0  0  0  0  0  0
   39.9140   33.3070   43.6664 H   0  0  0  0  0  0  0  0  0  0  0  0
   41.5251   32.8280   45.5794 H   0  0  0  0  0  0  0  0  0  0  0  0
   40.8742   30.8174   46.8606 H   0  0  0  0  0  0  0  0  0  0  0  0
   40.1219   30.2878   45.4526 H   0  0  0  0  0  0  0  0  0  0  0  0
   35.7033   31.7882   50.8812 H   0  0  0  0  0  0  0  0  0  0  0  0
   37.5459   32.1519   49.2758 H   0  0  0  0  0  0  0  0  0  0  0  0
   31.4493   25.5262   49.0837 H   0  0  0  0  0  0  0  0  0  0  0  0
   30.2793   29.4453   47.8332 H   0  0  0  0  0  0  0  0  0  0  0  0
  1 11  1  0
  3  2  1  0
  3  1  1  0
  4  3  1  0
  5  4  1  0
  6  5  1  0
  6  7  1  0
  7  8  1  0
  7  2  1  0
 10  9  2  0
 11 10  1  0
 12 11  2  0
 12 13  1  0
 13 14  2  0
 14  9  1  0
 15 13  1  0
 15 17  1  0
 16 15  2  0
 19 17  1  0
 19 18  2  0
 20 19  1  0
 21 19  1  0
  2 22  1  0
  3 23  1  1
  4 24  1  0
  4 25  1  0
  5 26  1  0
  6 27  1  0
  6 28  1  0
  7 29  1  6
  8 30  1  0
  8 31  1  0
  9 32  1  0
 10 33  1  0
 20 34  1  0
 21 35  1  0
M  ISO  8  22   5  23  13  24  13  25  13  26   5  27  13  28  13  29  13
M  ISO  6  30   5  31   5  32  14  33  14  34   3  35   3
M  END
>  <minimizedAffinity>  (1) 
-5.31840992

>  <minimizedRMSD>  (1) 
2.08792973

$$$$
