
     RDKit          3D

 33 35  0  0  0  0  0  0  0  0999 V2000
   36.7900   30.8620   47.0280 Br  0  0  0  0  0  0  0  0  0  0  0  0
   35.3150   29.6650   46.8010 C   0  0  0  0  0  0  0  0  0  0  0  0
   34.8310   28.9470   47.8810 C   0  0  0  0  0  0  0  0  0  0  0  0
   33.7460   28.0950   47.6590 C   0  0  0  0  0  0  0  0  0  0  0  0
   33.1970   27.9890   46.4040 C   0  0  0  0  0  0  0  0  0  0  0  0
   33.6890   28.7150   45.3180 C   0  0  0  0  0  0  0  0  0  0  0  0
   34.7540   29.5500   45.5410 C   0  0  0  0  0  0  0  0  0  0  0  0
   37.4460   29.4640   50.5470 C   0  0  0  0  0  0  0  0  0  0  0  0
   36.8450   29.2640   49.3070 C   0  0  0  0  0  0  0  0  0  0  0  0
   35.4860   29.1440   49.1620 C   0  0  0  0  0  0  0  0  0  0  0  0
   34.7450   29.2300   50.3150 N   0  0  0  0  0  0  0  0  0  0  0  0
   35.3250   29.4220   51.5210 C   0  0  0  0  0  0  0  0  0  0  0  0
   36.6550   29.5390   51.6440 N   0  0  0  0  0  0  0  0  0  0  0  0
   35.3020   30.3250   44.4360 C   0  0  0  0  0  0  0  0  0  0  0  0
   34.6070   31.1160   43.5680 C   0  0  0  0  0  0  0  0  0  0  0  0
   35.4390   31.6770   42.6790 N   0  0  0  0  0  0  0  0  0  0  0  0
   36.6720   31.2520   42.9660 C   0  0  0  0  0  0  0  0  0  0  0  0
   36.6140   30.4270   44.0330 N   0  0  0  0  0  0  0  0  0  0  0  0
   37.9050   31.5090   42.3810 O   0  0  0  0  0  0  0  0  0  0  0  0
   39.3650   33.6540   42.3000 O   0  0  0  0  0  0  0  0  0  0  0  0
   39.0330   32.5180   43.2220 P   0  0  0  0  0  0  0  0  0  0  0  0
   40.4150   31.6780   43.6380 O   0  0  0  0  0  0  0  0  0  0  0  0
   38.2820   33.0420   44.6350 O   0  0  0  0  0  0  0  0  0  0  0  0
   33.3304   27.5077   48.4911 H   0  0  0  0  0  0  0  0  0  0  0  0
   32.3440   27.3116   46.2504 H   0  0  0  0  0  0  0  0  0  0  0  0
   33.2386   28.6208   44.3189 H   0  0  0  0  0  0  0  0  0  0  0  0
   38.5385   29.5589   50.6338 H   0  0  0  0  0  0  0  0  0  0  0  0
   37.4820   29.2000   48.4125 H   0  0  0  0  0  0  0  0  0  0  0  0
   34.6931   29.4835   52.4193 H   0  0  0  0  0  0  0  0  0  0  0  0
   33.5183   31.2713   43.5941 H   0  0  0  0  0  0  0  0  0  0  0  0
   35.1760   32.3171   41.9161 H   0  0  0  0  0  0  0  0  0  0  0  0
   40.4894   31.6328   44.6242 H   0  0  0  0  0  0  0  0  0  0  0  0
   38.7772   32.6965   45.4196 H   0  0  0  0  0  0  0  0  0  0  0  0
  2  1  1  0
  2  3  2  0
  3 10  1  0
  4  3  1  0
  5  4  2  0
  6  7  2  0
  6  5  1  0
  7  2  1  0
  8 13  2  0
  9  8  1  0
 10  9  2  0
 10 11  1  0
 11 12  2  0
 12 13  1  0
 14  7  1  0
 15 14  2  0
 16 17  1  0
 16 15  1  0
 17 18  2  0
 18 14  1  0
 19 17  1  0
 19 21  1  0
 20 21  2  0
 21 22  1  0
 21 23  1  0
  4 24  1  0
  5 25  1  0
  6 26  1  0
  8 27  1  0
  9 28  1  0
 12 29  1  0
 15 30  1  0
 16 31  1  0
 22 32  1  0
 23 33  1  0
M  ISO  8  24  14  25  14  26  14  27  14  28  14  29  14  30  14  31   9
M  ISO  2  32   3  33   3
M  END
>  <minimizedAffinity>  (1) 
-4.77433109

>  <minimizedRMSD>  (1) 
3.67908168

$$$$
