
     RDKit          3D

 38 40  0  0  1  0  0  0  0  0999 V2000
   35.2570   29.9760   46.3150 C   0  0  0  0  0  0  0  0  0  0  0  0
   36.5250   30.6190   46.4070 C   0  0  0  0  0  0  0  0  0  0  0  0
   37.2740   30.7150   45.2360 C   0  0  0  0  0  0  0  0  0  0  0  0
   36.7620   30.1950   44.0840 N   0  0  0  0  0  0  0  0  0  0  0  0
   35.5620   29.5960   44.0400 C   0  0  0  0  0  0  0  0  0  0  0  0
   34.8120   29.4880   45.1590 N   0  0  0  0  0  0  0  0  0  0  0  0
   36.8710   31.0750   47.6990 N   0  0  0  0  0  0  0  0  0  0  0  0
   37.5020   32.2600   48.3170 C   0  0  0  0  0  0  0  0  0  0  0  0
   38.5780   31.6160   49.1980 C   0  0  0  0  0  0  0  0  0  0  0  0
   37.9370   30.3350   49.6760 C   0  0  0  0  0  0  0  0  0  0  0  0
   36.6240   30.2960   48.8950 C   0  0  1  0  0  0  0  0  0  0  0  0
   35.5780   30.7600   49.6720 O   0  0  0  0  0  0  0  0  0  0  0  0
   34.9510   28.2070   49.5200 O   0  0  0  0  0  0  0  0  0  0  0  0
   34.8390   29.4290   50.4030 P   0  0  0  0  0  0  0  0  0  0  0  0
   33.1980   29.7960   50.5800 O   0  0  0  0  0  0  0  0  0  0  0  0
   35.5510   29.0850   51.9020 O   0  0  0  0  0  0  0  0  0  0  0  0
   38.5640   31.3450   45.2130 C   0  0  0  0  0  0  0  0  0  0  0  0
   38.6570   32.6500   44.8070 C   0  0  0  0  0  0  0  0  0  0  0  0
   39.8490   33.3430   44.7520 C   0  0  0  0  0  0  0  0  0  0  0  0
   40.9880   32.6490   45.1350 C   0  0  0  0  0  0  0  0  0  0  0  0
   40.9760   31.3210   45.5600 C   0  0  0  0  0  0  0  0  0  0  0  0
   39.7250   30.6920   45.5860 C   0  0  0  0  0  0  0  0  0  0  0  0
   34.6337   29.8809   47.2164 H   0  0  0  0  0  0  0  0  0  0  0  0
   35.1870   29.1909   43.0885 H   0  0  0  0  0  0  0  0  0  0  0  0
   37.9475   32.9189   47.5572 H   0  0  0  0  0  0  0  0  0  0  0  0
   36.8000   32.9030   48.8681 H   0  0  0  0  0  0  0  0  0  0  0  0
   39.4866   31.4052   48.6150 H   0  0  0  0  0  0  0  0  0  0  0  0
   38.8938   32.2672   50.0264 H   0  0  0  0  0  0  0  0  0  0  0  0
   38.5657   29.4648   49.4363 H   0  0  0  0  0  0  0  0  0  0  0  0
   37.7943   30.3020   50.7662 H   0  0  0  0  0  0  0  0  0  0  0  0
   36.3144   29.2783   48.6151 H   0  0  0  0  0  0  0  0  0  0  0  0
   32.9731   29.8463   51.5428 H   0  0  0  0  0  0  0  0  0  0  0  0
   34.9463   29.3772   52.6294 H   0  0  0  0  0  0  0  0  0  0  0  0
   37.7352   33.1716   44.5099 H   0  0  0  0  0  0  0  0  0  0  0  0
   39.8940   34.3913   44.4217 H   0  0  0  0  0  0  0  0  0  0  0  0
   41.9533   33.1754   45.1015 H   0  0  0  0  0  0  0  0  0  0  0  0
   41.8964   30.7974   45.8578 H   0  0  0  0  0  0  0  0  0  0  0  0
   39.6636   29.6438   45.9139 H   0  0  0  0  0  0  0  0  0  0  0  0
  1  2  2  0
  2  7  1  0
  3  2  1  0
  4  3  2  0
  5  4  1  0
  5  6  2  0
  6  1  1  0
  7  8  1  0
  7 11  1  0
  8  9  1  0
  9 10  1  0
 11 12  1  0
 11 10  1  0
 12 14  1  0
 13 14  2  0
 14 15  1  0
 14 16  1  0
 17  3  1  0
 17 22  1  0
 18 17  2  0
 19 18  1  0
 19 20  2  0
 20 21  1  0
 21 22  2  0
  1 23  1  0
  5 24  1  0
  8 25  1  0
  8 26  1  0
  9 27  1  0
  9 28  1  0
 10 29  1  0
 10 30  1  0
 11 31  1  6
 15 32  1  0
 16 33  1  0
 18 34  1  0
 19 35  1  0
 20 36  1  0
 21 37  1  0
 22 38  1  0
M  ISO  8  23  14  24  14  25  13  26  13  27  13  28  13  29  13  30  13
M  ISO  8  31  13  32   3  33   3  34  14  35  14  36  14  37  14  38  14
M  END
>  <minimizedAffinity>  (1) 
-5.98145771

>  <minimizedRMSD>  (1) 
1.8714571

$$$$
