
     RDKit          3D

 33 35  0  0  0  0  0  0  0  0999 V2000
   37.1960   30.6960   44.5240 Cl  0  0  0  0  0  0  0  0  0  0  0  0
   38.3660   31.7820   45.2330 C   0  0  0  0  0  0  0  0  0  0  0  0
   38.3980   31.8980   46.5880 C   0  0  0  0  0  0  0  0  0  0  0  0
   39.3620   32.7850   47.0820 C   0  0  0  0  0  0  0  0  0  0  0  0
   40.2080   33.4820   46.2400 C   0  0  0  0  0  0  0  0  0  0  0  0
   40.1250   33.3210   44.8780 C   0  0  0  0  0  0  0  0  0  0  0  0
   39.1730   32.4420   44.3630 C   0  0  0  0  0  0  0  0  0  0  0  0
   40.8880   30.2950   43.3180 Cl  0  0  0  0  0  0  0  0  0  0  0  0
   39.9270   31.3550   42.3250 C   0  0  0  0  0  0  0  0  0  0  0  0
   39.1560   32.3350   42.9320 C   0  0  0  0  0  0  0  0  0  0  0  0
   38.3950   33.1730   42.1400 C   0  0  0  0  0  0  0  0  0  0  0  0
   38.4170   33.0230   40.7480 C   0  0  0  0  0  0  0  0  0  0  0  0
   39.2050   32.0270   40.1720 C   0  0  0  0  0  0  0  0  0  0  0  0
   39.2030   31.8720   38.4200 Cl  0  0  0  0  0  0  0  0  0  0  0  0
   39.9650   31.1860   40.9460 C   0  0  0  0  0  0  0  0  0  0  0  0
   37.9150   30.9480   48.8340 C   0  0  0  0  0  0  0  0  0  0  0  0
   37.5320   31.1890   47.5210 C   0  0  0  0  0  0  0  0  0  0  0  0
   36.2710   30.7270   47.1040 C   0  0  0  0  0  0  0  0  0  0  0  0
   35.5020   30.0710   48.0140 N   0  0  0  0  0  0  0  0  0  0  0  0
   35.8920   29.8530   49.2650 C   0  0  0  0  0  0  0  0  0  0  0  0
   37.0880   30.2860   49.6790 N   0  0  0  0  0  0  0  0  0  0  0  0
   35.0330   29.1330   50.2440 C   0  0  0  0  0  0  0  0  0  0  0  0
   34.7090   27.8570   49.8200 F   0  0  0  0  0  0  0  0  0  0  0  0
   35.6400   29.0660   51.4890 F   0  0  0  0  0  0  0  0  0  0  0  0
   33.8410   29.8230   50.4600 F   0  0  0  0  0  0  0  0  0  0  0  0
   39.4484   32.9311   48.1688 H   0  0  0  0  0  0  0  0  0  0  0  0
   40.9536   34.1710   46.6636 H   0  0  0  0  0  0  0  0  0  0  0  0
   40.7971   33.8753   44.2064 H   0  0  0  0  0  0  0  0  0  0  0  0
   37.7741   33.9552   42.6012 H   0  0  0  0  0  0  0  0  0  0  0  0
   37.8151   33.6881   40.1114 H   0  0  0  0  0  0  0  0  0  0  0  0
   40.5857   30.4015   40.4885 H   0  0  0  0  0  0  0  0  0  0  0  0
   38.8956   31.2966   49.1902 H   0  0  0  0  0  0  0  0  0  0  0  0
   35.9180   30.8909   46.0752 H   0  0  0  0  0  0  0  0  0  0  0  0
  1  2  1  0
  2  3  2  0
  3  4  1  0
  3 17  1  0
  5  4  2  0
  6  5  1  0
  7  6  2  0
  7  2  1  0
  9 10  2  0
  9  8  1  0
 10  7  1  0
 11 10  1  0
 12 11  2  0
 13 12  1  0
 13 15  2  0
 14 13  1  0
 15  9  1  0
 16 21  2  0
 17 16  1  0
 18 17  2  0
 18 19  1  0
 19 20  2  0
 20 21  1  0
 20 22  1  0
 22 25  1  0
 22 24  1  0
 23 22  1  0
  4 26  1  0
  5 27  1  0
  6 28  1  0
 11 29  1  0
 12 30  1  0
 15 31  1  0
 16 32  1  0
 18 33  1  0
M  ISO  8  26  14  27  14  28  14  29  14  30  14  31  14  32  14  33  14
M  END
>  <minimizedAffinity>  (1) 
-6.74236536

>  <minimizedRMSD>  (1) 
2.20887375

$$$$
