
     RDKit          3D

 23 24  0  0  0  0  0  0  0  0999 V2000
   38.2330   31.3150   47.8500 C   0  0  0  0  0  0  0  0  0  0  0  0
   38.4340   30.5840   46.6810 C   0  0  0  0  0  0  0  0  0  0  0  0
   39.2390   31.0050   45.6400 C   0  0  0  0  0  0  0  0  0  0  0  0
   39.8920   32.2270   45.7540 C   0  0  0  0  0  0  0  0  0  0  0  0
   39.6840   32.9510   46.9310 C   0  0  0  0  0  0  0  0  0  0  0  0
   38.8750   32.5480   47.9960 C   0  0  0  0  0  0  0  0  0  0  0  0
   37.9130   29.9820   49.8630 C   0  0  0  0  0  0  0  0  0  0  0  0
   37.3430   30.7220   48.8170 C   0  0  0  0  0  0  0  0  0  0  0  0
   35.9310   30.8100   48.8330 C   0  0  0  0  0  0  0  0  0  0  0  0
   35.2230   30.2100   49.8090 N   0  0  0  0  0  0  0  0  0  0  0  0
   35.8340   29.5040   50.8040 C   0  0  0  0  0  0  0  0  0  0  0  0
   37.1950   29.3970   50.8190 N   0  0  0  0  0  0  0  0  0  0  0  0
   38.7190   33.4170   49.1650 C   0  0  0  0  0  0  0  0  0  0  0  0
   39.2090   32.7000   50.2840 F   0  0  0  0  0  0  0  0  0  0  0  0
   37.3720   33.5620   49.4900 F   0  0  0  0  0  0  0  0  0  0  0  0
   39.4080   34.5870   49.1310 F   0  0  0  0  0  0  0  0  0  0  0  0
   37.9221   29.6155   46.5811 H   0  0  0  0  0  0  0  0  0  0  0  0
   39.3608   30.3857   44.7391 H   0  0  0  0  0  0  0  0  0  0  0  0
   40.5435   32.6071   44.9533 H   0  0  0  0  0  0  0  0  0  0  0  0
   40.1998   33.9178   47.0267 H   0  0  0  0  0  0  0  0  0  0  0  0
   39.0078   29.8799   49.8950 H   0  0  0  0  0  0  0  0  0  0  0  0
   35.4088   31.3714   48.0442 H   0  0  0  0  0  0  0  0  0  0  0  0
   35.2330   29.0235   51.5901 H   0  0  0  0  0  0  0  0  0  0  0  0
  1  6  1  0
  1  8  1  0
  2  1  2  0
  3  4  2  0
  3  2  1  0
  4  5  1  0
  5  6  2  0
  6 13  1  0
  7 12  2  0
  8  9  2  0
  8  7  1  0
  9 10  1  0
 10 11  2  0
 11 12  1  0
 13 15  1  0
 13 14  1  0
 16 13  1  0
  2 17  1  0
  3 18  1  0
  4 19  1  0
  5 20  1  0
  7 21  1  0
  9 22  1  0
 11 23  1  0
M  ISO  7  17  14  18  14  19  14  20  14  21  14  22  14  23  14
M  END
>  <minimizedAffinity>  (1) 
-6.19848967

>  <minimizedRMSD>  (1) 
1.65544891

$$$$
