
     RDKit          3D

 22 23  0  0  0  0  0  0  0  0999 V2000
   35.9850   30.3330   48.5670 C   0  0  0  0  0  0  0  0  0  0  0  0
   36.0140   29.3640   49.5650 C   0  0  0  0  0  0  0  0  0  0  0  0
   35.0330   28.3780   49.6100 C   0  0  0  0  0  0  0  0  0  0  0  0
   34.0700   28.4300   48.6330 C   0  0  0  0  0  0  0  0  0  0  0  0
   34.0310   29.3920   47.6330 C   0  0  0  0  0  0  0  0  0  0  0  0
   35.0190   30.3290   47.6440 N   0  0  0  0  0  0  0  0  0  0  0  0
   38.1350   33.1340   49.5600 C   0  0  0  0  0  0  0  0  0  0  0  0
   39.0210   33.2500   48.4790 C   0  0  0  0  0  0  0  0  0  0  0  0
   38.8670   32.3540   47.4120 C   0  0  0  0  0  0  0  0  0  0  0  0
   37.8640   31.4280   47.4930 N   0  0  0  0  0  0  0  0  0  0  0  0
   37.0300   31.3480   48.5530 C   0  0  0  0  0  0  0  0  0  0  0  0
   37.1830   32.2020   49.5630 N   0  0  0  0  0  0  0  0  0  0  0  0
   32.9550   29.3440   46.6470 C   0  0  0  0  0  0  0  0  0  0  0  0
   32.4270   30.6020   46.3340 F   0  0  0  0  0  0  0  0  0  0  0  0
   31.8960   28.6630   47.2620 F   0  0  0  0  0  0  0  0  0  0  0  0
   33.2880   28.7440   45.4720 F   0  0  0  0  0  0  0  0  0  0  0  0
   36.8139   29.3773   50.3199 H   0  0  0  0  0  0  0  0  0  0  0  0
   35.0294   27.5989   50.3866 H   0  0  0  0  0  0  0  0  0  0  0  0
   33.2816   27.6630   48.6432 H   0  0  0  0  0  0  0  0  0  0  0  0
   38.2271   33.8201   50.4148 H   0  0  0  0  0  0  0  0  0  0  0  0
   39.8092   34.0172   48.4688 H   0  0  0  0  0  0  0  0  0  0  0  0
   39.5322   32.3945   46.5369 H   0  0  0  0  0  0  0  0  0  0  0  0
  1  2  2  0
  2  3  1  0
  4  3  2  0
  5  6  2  0
  5  4  1  0
  6  1  1  0
  7 12  2  0
  8  7  1  0
  9 10  1  0
  9  8  2  0
 10 11  2  0
 11  1  1  0
 11 12  1  0
 13 15  1  0
 13  5  1  0
 14 13  1  0
 16 13  1  0
  2 17  1  0
  3 18  1  0
  4 19  1  0
  7 20  1  0
  8 21  1  0
  9 22  1  0
M  ISO  6  17  14  18  14  19  14  20  14  21  14  22  14
M  END
>  <minimizedAffinity>  (1) 
-5.10086966

>  <minimizedRMSD>  (1) 
0.146770135

$$$$
