
     RDKit          3D

 43 45  0  0  1  0  0  0  0  0999 V2000
   36.9320   30.1900   49.8230 C   0  0  0  0  0  0  0  0  0  0  0  0
   37.9190   30.7320   48.9680 C   0  0  0  0  0  0  0  0  0  0  0  0
   37.7740   30.6850   47.5840 C   0  0  0  0  0  0  0  0  0  0  0  0
   36.6210   30.0810   47.1930 N   0  0  0  0  0  0  0  0  0  0  0  0
   35.6830   29.5680   47.9840 C   0  0  0  0  0  0  0  0  0  0  0  0
   35.8440   29.6250   49.3130 N   0  0  0  0  0  0  0  0  0  0  0  0
   34.5240   28.9660   47.4030 N   0  0  0  0  0  0  0  0  0  0  0  0
   33.8300   27.8870   48.0820 C   0  0  0  0  0  0  0  0  0  0  0  0
   33.9330   26.6900   47.1250 C   0  0  0  0  0  0  0  0  0  0  0  0
   33.1990   27.0560   45.8720 C   0  0  0  0  0  0  0  0  0  0  0  0
   33.8360   28.2540   45.2050 C   0  0  0  0  0  0  0  0  0  0  0  0
   34.0190   29.4140   46.1340 C   0  0  1  0  0  0  0  0  0  0  0  0
   39.2860   32.5050   47.0940 C   0  0  0  0  0  0  0  0  0  0  0  0
   38.8240   31.2560   46.7980 C   0  0  0  0  0  0  0  0  0  0  0  0
   39.4180   30.6180   45.7310 C   0  0  0  0  0  0  0  0  0  0  0  0
   40.3970   31.1550   44.9980 C   0  0  0  0  0  0  0  0  0  0  0  0
   40.8850   32.4240   45.2800 C   0  0  0  0  0  0  0  0  0  0  0  0
   40.3060   33.0790   46.3410 C   0  0  0  0  0  0  0  0  0  0  0  0
   39.6000   34.3170   48.6210 N   0  0  0  0  0  0  0  0  0  0  0  0
   38.8250   33.3580   48.1540 C   0  0  0  0  0  0  0  0  0  0  0  0
   37.7560   33.6300   49.0100 N   0  0  0  0  0  0  0  0  0  0  0  0
   39.2620   34.9410   49.3860 H   0  0  0  0  0  0  0  0  0  0  0  0
   32.7550   30.2170   46.2200 C   0  0  0  0  0  0  0  0  0  0  0  0
   31.7580   29.4250   46.7980 F   0  0  0  0  0  0  0  0  0  0  0  0
   32.2710   30.5240   44.9500 F   0  0  0  0  0  0  0  0  0  0  0  0
   32.8670   31.3640   46.9440 F   0  0  0  0  0  0  0  0  0  0  0  0
   37.0658   30.2365   50.9138 H   0  0  0  0  0  0  0  0  0  0  0  0
   38.8154   31.1981   49.4030 H   0  0  0  0  0  0  0  0  0  0  0  0
   34.3152   27.6581   49.0423 H   0  0  0  0  0  0  0  0  0  0  0  0
   32.7859   28.1453   48.3126 H   0  0  0  0  0  0  0  0  0  0  0  0
   34.9884   26.4814   46.8955 H   0  0  0  0  0  0  0  0  0  0  0  0
   33.4982   25.7885   47.5814 H   0  0  0  0  0  0  0  0  0  0  0  0
   33.2225   26.2026   45.1783 H   0  0  0  0  0  0  0  0  0  0  0  0
   32.1611   27.3095   46.1336 H   0  0  0  0  0  0  0  0  0  0  0  0
   34.8217   27.9564   44.8179 H   0  0  0  0  0  0  0  0  0  0  0  0
   33.1598   28.5805   44.4012 H   0  0  0  0  0  0  0  0  0  0  0  0
   34.7821   30.0993   45.7363 H   0  0  0  0  0  0  0  0  0  0  0  0
   39.0661   29.6095   45.4680 H   0  0  0  0  0  0  0  0  0  0  0  0
   40.8225   30.5841   44.1595 H   0  0  0  0  0  0  0  0  0  0  0  0
   41.6910   32.8804   44.6867 H   0  0  0  0  0  0  0  0  0  0  0  0
   40.6596   34.0872   46.6027 H   0  0  0  0  0  0  0  0  0  0  0  0
   37.8254   34.3983   49.6925 H   0  0  0  0  0  0  0  0  0  0  0  0
   36.8981   33.0624   48.9590 H   0  0  0  0  0  0  0  0  0  0  0  0
  2  1  2  0
  3  2  1  0
  4  3  2  0
  4  5  1  0
  5  6  2  0
  6  1  1  0
  7  5  1  0
  7  8  1  0
  9  8  1  0
 10  9  1  0
 11 10  1  0
 11 12  1  0
 12 23  1  0
 12  7  1  0
 13 20  1  0
 14 13  2  0
 14  3  1  0
 15 14  1  0
 16 17  1  0
 16 15  2  0
 17 18  2  0
 18 13  1  0
 19 22  1  0
 20 19  2  0
 20 21  1  0
 23 24  1  0
 23 26  1  0
 25 23  1  0
  1 27  1  0
  2 28  1  0
  8 29  1  0
  8 30  1  0
  9 31  1  0
  9 32  1  0
 10 33  1  0
 10 34  1  0
 11 35  1  0
 11 36  1  0
 12 37  1  6
 15 38  1  0
 16 39  1  0
 17 40  1  0
 18 41  1  0
 21 42  1  0
 21 43  1  0
M  ISO  8  27  14  28  14  29  13  30  13  31  13  32  13  33  13  34  13
M  ISO  7  35  13  36  13  37  13  38  14  39  14  40  14  41  14
M  END
>  <minimizedAffinity>  (1) 
-6.53189564

>  <minimizedRMSD>  (1) 
1.08580279

$$$$
