
     RDKit          3D

 23 24  0  0  0  0  0  0  0  0999 V2000
   35.1910   29.1190   50.4620 C   0  0  0  0  0  0  0  0  0  0  0  0
   36.3450   29.8340   50.0450 C   0  0  0  0  0  0  0  0  0  0  0  0
   36.2810   30.4450   48.7960 C   0  0  0  0  0  0  0  0  0  0  0  0
   35.1490   30.3510   48.0180 N   0  0  0  0  0  0  0  0  0  0  0  0
   34.0670   29.6430   48.4830 C   0  0  0  0  0  0  0  0  0  0  0  0
   34.1090   29.0420   49.6960 N   0  0  0  0  0  0  0  0  0  0  0  0
   37.3960   31.1850   48.2540 C   0  0  0  0  0  0  0  0  0  0  0  0
   37.6730   32.4060   48.7820 C   0  0  0  0  0  0  0  0  0  0  0  0
   38.7440   33.1590   48.2810 C   0  0  0  0  0  0  0  0  0  0  0  0
   39.5140   32.6410   47.2410 C   0  0  0  0  0  0  0  0  0  0  0  0
   39.2680   31.3960   46.6660 C   0  0  0  0  0  0  0  0  0  0  0  0
   38.2030   30.7350   47.2230 C   0  0  0  0  0  0  0  0  0  0  0  0
   37.4410   29.8700   51.0340 C   0  0  0  0  0  0  0  0  0  0  0  0
   38.6000   30.4430   50.6200 F   0  0  0  0  0  0  0  0  0  0  0  0
   37.9030   28.4810   51.1670 F   0  0  0  0  0  0  0  0  0  0  0  0
   37.0690   30.1270   52.3170 F   0  0  0  0  0  0  0  0  0  0  0  0
   35.1935   28.6179   51.4412 H   0  0  0  0  0  0  0  0  0  0  0  0
   33.1601   29.5638   47.8655 H   0  0  0  0  0  0  0  0  0  0  0  0
   37.0571   32.8034   49.6022 H   0  0  0  0  0  0  0  0  0  0  0  0
   38.9743   34.1480   48.7040 H   0  0  0  0  0  0  0  0  0  0  0  0
   40.3523   33.2412   46.8576 H   0  0  0  0  0  0  0  0  0  0  0  0
   39.8704   30.9826   45.8437 H   0  0  0  0  0  0  0  0  0  0  0  0
   37.9655   29.7446   46.8074 H   0  0  0  0  0  0  0  0  0  0  0  0
  2  1  2  0
  2 13  1  0
  3  2  1  0
  4  5  1  0
  4  3  2  0
  5  6  2  0
  6  1  1  0
  7  8  2  0
  7  3  1  0
  9  8  1  0
 10  9  2  0
 11 12  2  0
 11 10  1  0
 12  7  1  0
 13 15  1  0
 13 16  1  0
 14 13  1  0
  1 17  1  0
  5 18  1  0
  8 19  1  0
  9 20  1  0
 10 21  1  0
 11 22  1  0
 12 23  1  0
M  ISO  7  17  14  18  14  19  14  20  14  21  14  22  14  23  14
M  END
>  <minimizedAffinity>  (1) 
-5.95587921

>  <minimizedRMSD>  (1) 
1.97505271

$$$$
