
     RDKit          3D

 37 39  0  0  1  0  0  0  0  0999 V2000
   32.4170   28.9620   47.0510 C   0  0  2  0  0  0  0  0  0  0  0  0
   33.6790   28.5510   47.7500 C   0  0  1  0  0  0  0  0  0  0  0  0
   34.0110   27.3010   47.3210 O   0  0  0  0  0  0  0  0  0  0  0  0
   33.2460   26.9810   46.2050 C   0  0  0  0  0  0  0  0  0  0  0  0
   32.6650   28.2680   45.6750 C   0  0  1  0  0  0  0  0  0  0  0  0
   32.3900   30.3580   46.8550 O   0  0  0  0  0  0  0  0  0  0  0  0
   35.0090   29.7050   47.2200 S   0  0  0  0  0  0  0  0  0  0  0  0
   37.0940   29.2880   50.5580 C   0  0  0  0  0  0  0  0  0  0  0  0
   37.6560   30.5460   50.8030 C   0  0  0  0  0  0  0  0  0  0  0  0
   37.3690   31.5690   49.8820 C   0  0  0  0  0  0  0  0  0  0  0  0
   36.5750   31.2870   48.8200 N   0  0  0  0  0  0  0  0  0  0  0  0
   36.0550   30.0530   48.6290 C   0  0  0  0  0  0  0  0  0  0  0  0
   36.3070   29.0360   49.4950 N   0  0  0  0  0  0  0  0  0  0  0  0
   31.4780   27.9940   45.0400 O   0  0  0  0  0  0  0  0  0  0  0  0
   29.4950   30.1680   45.1610 Cl  0  0  0  0  0  0  0  0  0  0  0  0
   29.3490   28.5260   45.7410 C   0  0  0  0  0  0  0  0  0  0  0  0
   30.3520   27.5900   45.6160 C   0  0  0  0  0  0  0  0  0  0  0  0
   30.1090   26.3010   46.0970 C   0  0  0  0  0  0  0  0  0  0  0  0
   28.8980   25.9840   46.6780 C   0  0  0  0  0  0  0  0  0  0  0  0
   27.8850   26.9200   46.8080 C   0  0  0  0  0  0  0  0  0  0  0  0
   28.1330   28.2030   46.3270 C   0  0  0  0  0  0  0  0  0  0  0  0
   27.0520   29.2140   46.4620 C   0  0  0  0  0  0  0  0  0  0  0  0
   27.4350   30.2780   47.2580 F   0  0  0  0  0  0  0  0  0  0  0  0
   25.9740   28.5700   47.0820 F   0  0  0  0  0  0  0  0  0  0  0  0
   26.5810   29.6300   45.2470 F   0  0  0  0  0  0  0  0  0  0  0  0
   31.4860   28.7043   47.5772 H   0  0  0  0  0  0  0  0  0  0  0  0
   33.5507   28.5671   48.8424 H   0  0  0  0  0  0  0  0  0  0  0  0
   33.8780   26.5094   45.4381 H   0  0  0  0  0  0  0  0  0  0  0  0
   32.4468   26.2734   46.4708 H   0  0  0  0  0  0  0  0  0  0  0  0
   33.2642   28.8394   44.9508 H   0  0  0  0  0  0  0  0  0  0  0  0
   32.3812   30.8145   47.7334 H   0  0  0  0  0  0  0  0  0  0  0  0
   37.3041   28.4707   51.2636 H   0  0  0  0  0  0  0  0  0  0  0  0
   38.2956   30.7270   51.6795 H   0  0  0  0  0  0  0  0  0  0  0  0
   37.7811   32.5794   50.0207 H   0  0  0  0  0  0  0  0  0  0  0  0
   30.8904   25.5315   46.0118 H   0  0  0  0  0  0  0  0  0  0  0  0
   28.7328   24.9612   47.0476 H   0  0  0  0  0  0  0  0  0  0  0  0
   26.9226   26.6599   47.2729 H   0  0  0  0  0  0  0  0  0  0  0  0
  1  2  1  0
  3  2  1  0
  4  3  1  0
  5  4  1  0
  5  1  1  0
  6  1  1  0
  7  2  1  0
  7 12  1  0
  8  9  2  0
 10  9  1  0
 11 10  2  0
 12 11  1  0
 12 13  2  0
 13  8  1  0
 14 17  1  0
 14  5  1  0
 15 16  1  0
 16 21  2  0
 17 16  1  0
 17 18  2  0
 18 19  1  0
 19 20  2  0
 21 22  1  0
 21 20  1  0
 22 24  1  0
 22 23  1  0
 25 22  1  0
  1 26  1  1
  2 27  1  1
  4 28  1  0
  4 29  1  0
  5 30  1  6
  6 31  1  0
  8 32  1  0
  9 33  1  0
 10 34  1  0
 18 35  1  0
 19 36  1  0
 20 37  1  0
M  ISO  8  26  13  27  13  28  13  29  13  30  13  31   3  32  14  33  14
M  ISO  4  34  14  35  14  36  14  37  14
M  END
>  <minimizedAffinity>  (1) 
-4.95514297

>  <minimizedRMSD>  (1) 
0.987726331

$$$$
