
     RDKit          3D

 37 39  0  0  1  0  0  0  0  0999 V2000
   38.3910   31.1390   47.5260 Cl  0  0  0  0  0  0  0  0  0  0  0  0
   37.0730   30.7350   46.4610 C   0  0  0  0  0  0  0  0  0  0  0  0
   35.9570   30.1660   46.9690 C   0  0  0  0  0  0  0  0  0  0  0  0
   34.9370   29.8960   46.0570 C   0  0  0  0  0  0  0  0  0  0  0  0
   35.0060   30.1650   44.7220 C   0  0  0  0  0  0  0  0  0  0  0  0
   36.1570   30.7430   44.2430 C   0  0  0  0  0  0  0  0  0  0  0  0
   37.2010   31.0330   45.1040 C   0  0  0  0  0  0  0  0  0  0  0  0
   38.4060   31.6240   44.6040 N   0  0  0  0  0  0  0  0  0  0  0  0
   38.7700   33.0130   44.7050 C   0  0  0  0  0  0  0  0  0  0  0  0
   40.0280   33.1990   43.8570 C   0  0  0  0  0  0  0  0  0  0  0  0
   39.6670   32.7200   42.5530 N   0  0  0  0  0  0  0  0  0  0  0  0
   39.5280   31.3000   42.5260 C   0  0  0  0  0  0  0  0  0  0  0  0
   39.3600   30.7520   43.9330 C   0  0  2  0  0  0  0  0  0  0  0  0
   38.9190   29.3450   43.7690 C   0  0  0  0  0  0  0  0  0  0  0  0
   38.8820   28.8010   45.0620 F   0  0  0  0  0  0  0  0  0  0  0  0
   37.7170   29.1220   43.2040 F   0  0  0  0  0  0  0  0  0  0  0  0
   39.8650   28.5650   43.0940 F   0  0  0  0  0  0  0  0  0  0  0  0
   36.8910   29.3130   50.5100 C   0  0  0  0  0  0  0  0  0  0  0  0
   37.0070   29.5900   49.1390 C   0  0  0  0  0  0  0  0  0  0  0  0
   35.8610   29.8670   48.3800 C   0  0  0  0  0  0  0  0  0  0  0  0
   34.6580   29.8510   49.0310 N   0  0  0  0  0  0  0  0  0  0  0  0
   34.5620   29.5800   50.3480 C   0  0  0  0  0  0  0  0  0  0  0  0
   35.6700   29.3120   51.0920 N   0  0  0  0  0  0  0  0  0  0  0  0
   34.0148   29.4350   46.4404 H   0  0  0  0  0  0  0  0  0  0  0  0
   34.1678   29.9271   44.0505 H   0  0  0  0  0  0  0  0  0  0  0  0
   36.2489   30.9759   43.1719 H   0  0  0  0  0  0  0  0  0  0  0  0
   37.9570   33.6470   44.3216 H   0  0  0  0  0  0  0  0  0  0  0  0
   38.9516   33.2998   45.7513 H   0  0  0  0  0  0  0  0  0  0  0  0
   40.3128   34.2606   43.8144 H   0  0  0  0  0  0  0  0  0  0  0  0
   40.8917   32.6592   44.2726 H   0  0  0  0  0  0  0  0  0  0  0  0
   38.7712   33.1473   42.2778 H   0  0  0  0  0  0  0  0  0  0  0  0
   38.6445   31.0346   41.9269 H   0  0  0  0  0  0  0  0  0  0  0  0
   40.4345   30.8635   42.0814 H   0  0  0  0  0  0  0  0  0  0  0  0
   40.2678   30.7400   44.5541 H   0  0  0  0  0  0  0  0  0  0  0  0
   37.7886   29.0978   51.1083 H   0  0  0  0  0  0  0  0  0  0  0  0
   37.9971   29.5898   48.6598 H   0  0  0  0  0  0  0  0  0  0  0  0
   33.5728   29.5754   50.8290 H   0  0  0  0  0  0  0  0  0  0  0  0
  2  3  2  0
  2  1  1  0
  3 20  1  0
  4  3  1  0
  5  4  2  0
  6  5  1  0
  6  7  2  0
  7  2  1  0
  8  9  1  0
  8  7  1  0
 10  9  1  0
 11 10  1  0
 12 11  1  0
 12 13  1  0
 13  8  1  0
 14 13  1  0
 14 15  1  0
 16 14  1  0
 17 14  1  0
 18 23  2  0
 19 18  1  0
 20 21  1  0
 20 19  2  0
 21 22  2  0
 22 23  1  0
  4 24  1  0
  5 25  1  0
  6 26  1  0
  9 27  1  0
  9 28  1  0
 10 29  1  0
 10 30  1  0
 11 31  1  0
 12 32  1  0
 12 33  1  0
 13 34  1  1
 18 35  1  0
 19 36  1  0
 22 37  1  0
M  ISO  8  24  14  25  14  26  14  27  13  28  13  29  13  30  13  31   5
M  ISO  6  32  13  33  13  34  13  35  14  36  14  37  14
M  END
>  <minimizedAffinity>  (1) 
-5.21168804

>  <minimizedRMSD>  (1) 
0.629166484

$$$$
