
     RDKit          3D

 22 23  0  0  0  0  0  0  0  0999 V2000
   38.5140   31.4180   47.9570 C   0  0  0  0  0  0  0  0  0  0  0  0
   38.9840   32.7040   48.0710 C   0  0  0  0  0  0  0  0  0  0  0  0
   39.6580   33.3680   47.0720 C   0  0  0  0  0  0  0  0  0  0  0  0
   39.8960   32.7440   45.8770 C   0  0  0  0  0  0  0  0  0  0  0  0
   39.4180   31.4620   45.7870 C   0  0  0  0  0  0  0  0  0  0  0  0
   38.7600   30.8090   46.7570 N   0  0  0  0  0  0  0  0  0  0  0  0
   37.2830   30.1890   51.2910 C   0  0  0  0  0  0  0  0  0  0  0  0
   38.0470   30.9340   50.3800 C   0  0  0  0  0  0  0  0  0  0  0  0
   37.8010   30.7190   49.0150 C   0  0  0  0  0  0  0  0  0  0  0  0
   36.8520   29.8140   48.6550 N   0  0  0  0  0  0  0  0  0  0  0  0
   36.1400   29.1180   49.5730 C   0  0  0  0  0  0  0  0  0  0  0  0
   36.3530   29.3040   50.8740 N   0  0  0  0  0  0  0  0  0  0  0  0
   39.6070   30.6560   44.5320 C   0  0  0  0  0  0  0  0  0  0  0  0
   38.7860   31.2780   43.5800 F   0  0  0  0  0  0  0  0  0  0  0  0
   39.2550   29.3430   44.6940 F   0  0  0  0  0  0  0  0  0  0  0  0
   40.9160   30.8160   44.1230 F   0  0  0  0  0  0  0  0  0  0  0  0
   38.8109   33.2351   49.0186 H   0  0  0  0  0  0  0  0  0  0  0  0
   40.0052   34.3992   47.2334 H   0  0  0  0  0  0  0  0  0  0  0  0
   40.4309   33.2346   45.0504 H   0  0  0  0  0  0  0  0  0  0  0  0
   37.4456   30.3294   52.3698 H   0  0  0  0  0  0  0  0  0  0  0  0
   38.8051   31.6546   50.7205 H   0  0  0  0  0  0  0  0  0  0  0  0
   35.3808   28.3943   49.2416 H   0  0  0  0  0  0  0  0  0  0  0  0
  1  2  2  0
  1  9  1  0
  3  2  1  0
  4  3  2  0
  5  4  1  0
  5  6  2  0
  6  1  1  0
  8  7  2  0
  9  8  1  0
 10  9  2  0
 10 11  1  0
 11 12  2  0
 12  7  1  0
 13 15  1  0
 13  5  1  0
 14 13  1  0
 16 13  1  0
  2 17  1  0
  3 18  1  0
  4 19  1  0
  7 20  1  0
  8 21  1  0
 11 22  1  0
M  ISO  6  17  14  18  14  19  14  20  14  21  14  22  14
M  END
>  <minimizedAffinity>  (1) 
-5.49876308

>  <minimizedRMSD>  (1) 
0.482764244

$$$$
