
     RDKit          3D

 27 28  0  0  0  0  0  0  0  0999 V2000
   39.4800   31.9000   46.5970 N   0  0  0  0  0  0  0  0  0  0  0  0
   40.1290   33.0760   46.0430 C   0  0  0  0  0  0  0  0  0  0  0  0
   39.9770   33.2170   44.5560 C   0  0  0  0  0  0  0  0  0  0  0  0
   39.9480   32.0070   43.8170 N   0  0  0  0  0  0  0  0  0  0  0  0
   39.1220   30.9880   44.4550 C   0  0  0  0  0  0  0  0  0  0  0  0
   39.7810   30.7580   45.8110 C   0  0  0  0  0  0  0  0  0  0  0  0
   38.6630   31.9530   47.7750 C   0  0  0  0  0  0  0  0  0  0  0  0
   38.5340   33.1340   48.5340 C   0  0  0  0  0  0  0  0  0  0  0  0
   37.7140   33.0840   49.6670 C   0  0  0  0  0  0  0  0  0  0  0  0
   37.0920   31.9090   49.9680 N   0  0  0  0  0  0  0  0  0  0  0  0
   37.2470   30.8040   49.2090 C   0  0  0  0  0  0  0  0  0  0  0  0
   38.0240   30.8120   48.1170 N   0  0  0  0  0  0  0  0  0  0  0  0
   36.5340   29.5630   49.6070 C   0  0  0  0  0  0  0  0  0  0  0  0
   37.3530   28.6840   50.2740 F   0  0  0  0  0  0  0  0  0  0  0  0
   35.8920   28.9670   48.5320 F   0  0  0  0  0  0  0  0  0  0  0  0
   35.5210   29.9830   50.4780 F   0  0  0  0  0  0  0  0  0  0  0  0
   39.6954   33.9670   46.5206 H   0  0  0  0  0  0  0  0  0  0  0  0
   41.2053   32.9680   46.2429 H   0  0  0  0  0  0  0  0  0  0  0  0
   39.0354   33.7519   44.3631 H   0  0  0  0  0  0  0  0  0  0  0  0
   40.8760   33.7514   44.2151 H   0  0  0  0  0  0  0  0  0  0  0  0
   40.9096   31.6480   43.7315 H   0  0  0  0  0  0  0  0  0  0  0  0
   38.0895   31.3463   44.5800 H   0  0  0  0  0  0  0  0  0  0  0  0
   39.0589   30.0661   43.8583 H   0  0  0  0  0  0  0  0  0  0  0  0
   39.3742   29.8519   46.2837 H   0  0  0  0  0  0  0  0  0  0  0  0
   40.8671   30.6165   45.7096 H   0  0  0  0  0  0  0  0  0  0  0  0
   39.0571   34.0581   48.2471 H   0  0  0  0  0  0  0  0  0  0  0  0
   37.5746   33.9726   50.3002 H   0  0  0  0  0  0  0  0  0  0  0  0
  1  7  1  0
  2  1  1  0
  3  2  1  0
  4  5  1  0
  4  3  1  0
  5  6  1  0
  6  1  1  0
  7 12  1  0
  7  8  2  0
  8  9  1  0
  9 10  2  0
 11 13  1  0
 11 10  1  0
 12 11  2  0
 13 14  1  0
 13 16  1  0
 15 13  1  0
  2 17  1  0
  2 18  1  0
  3 19  1  0
  3 20  1  0
  4 21  1  0
  5 22  1  0
  5 23  1  0
  6 24  1  0
  6 25  1  0
  8 26  1  0
  9 27  1  0
M  ISO  8  17  13  18  13  19  13  20  13  21   5  22  13  23  13  24  13
M  ISO  3  25  13  26  14  27  14
M  END
>  <minimizedAffinity>  (1) 
-5.4635582

>  <minimizedRMSD>  (1) 
5.37718058

$$$$
