
     RDKit          3D

 36 38  0  0  1  0  0  0  0  0999 V2000
   34.8260   29.4070   48.0040 C   0  0  0  0  0  0  0  0  0  0  0  0
   34.5710   30.1800   46.8700 C   0  0  0  0  0  0  0  0  0  0  0  0
   33.3750   29.9310   46.1910 C   0  0  0  0  0  0  0  0  0  0  0  0
   32.5470   28.9520   46.6880 N   0  0  0  0  0  0  0  0  0  0  0  0
   32.8330   28.2420   47.7720 C   0  0  0  0  0  0  0  0  0  0  0  0
   33.9850   28.4670   48.4420 N   0  0  0  0  0  0  0  0  0  0  0  0
   36.0610   29.6670   48.7010 N   0  0  0  0  0  0  0  0  0  0  0  0
   37.1980   30.3780   48.2100 C   0  0  0  0  0  0  0  0  0  0  0  0
   37.8090   30.9400   49.4940 C   0  0  2  0  0  0  0  0  0  0  0  0
   36.8510   30.5680   50.6220 C   0  0  0  0  0  0  0  0  0  0  0  0
   36.3760   29.2450   50.0610 C   0  0  0  0  0  0  0  0  0  0  0  0
   38.0390   32.4270   49.4120 C   0  0  0  0  0  0  0  0  0  0  0  0
   36.9280   33.0310   49.9610 F   0  0  0  0  0  0  0  0  0  0  0  0
   38.0420   32.7710   48.0780 F   0  0  0  0  0  0  0  0  0  0  0  0
   39.1990   32.8250   50.0230 F   0  0  0  0  0  0  0  0  0  0  0  0
   31.7260   26.9870   48.3700 S   0  0  0  0  0  0  0  0  0  0  0  0
   30.2520   27.4780   49.0100 C   0  0  0  0  0  0  0  0  0  0  0  0
   29.5530   27.4540   50.1770 C   0  0  0  0  0  0  0  0  0  0  0  0
   28.2900   27.9750   50.3690 C   0  0  0  0  0  0  0  0  0  0  0  0
   27.7520   28.5880   49.1300 C   0  0  0  0  0  0  0  0  0  0  0  0
   29.0560   28.3610   47.8740 S   0  0  0  0  0  0  0  0  0  0  0  0
   26.4400   29.1950   49.1030 C   0  0  0  0  0  0  0  0  0  0  0  0
   25.8380   28.7990   47.9010 F   0  0  0  0  0  0  0  0  0  0  0  0
   25.6220   28.6770   50.0900 F   0  0  0  0  0  0  0  0  0  0  0  0
   26.4140   30.5700   49.2320 F   0  0  0  0  0  0  0  0  0  0  0  0
   35.2784   30.9493   46.5268 H   0  0  0  0  0  0  0  0  0  0  0  0
   33.1049   30.4994   45.2888 H   0  0  0  0  0  0  0  0  0  0  0  0
   37.8991   29.7031   47.6972 H   0  0  0  0  0  0  0  0  0  0  0  0
   36.9484   31.1491   47.4663 H   0  0  0  0  0  0  0  0  0  0  0  0
   38.8067   30.5118   49.6707 H   0  0  0  0  0  0  0  0  0  0  0  0
   37.3670   30.4513   51.5864 H   0  0  0  0  0  0  0  0  0  0  0  0
   36.0679   31.3045   50.8551 H   0  0  0  0  0  0  0  0  0  0  0  0
   35.4887   28.8682   50.5908 H   0  0  0  0  0  0  0  0  0  0  0  0
   37.0929   28.4147   50.1421 H   0  0  0  0  0  0  0  0  0  0  0  0
   30.0368   26.9779   51.0426 H   0  0  0  0  0  0  0  0  0  0  0  0
   27.7475   27.9400   51.3253 H   0  0  0  0  0  0  0  0  0  0  0  0
  1  6  1  0
  1  7  1  0
  2  1  2  0
  3  4  2  0
  3  2  1  0
  4  5  1  0
  5 16  1  0
  5  6  2  0
  7 11  1  0
  8  7  1  0
  8  9  1  0
  9 10  1  0
 11 10  1  0
 12  9  1  0
 12 13  1  0
 12 15  1  0
 14 12  1  0
 16 17  1  0
 17 18  2  0
 18 19  1  0
 20 19  2  0
 21 17  1  0
 21 20  1  0
 22 20  1  0
 22 25  1  0
 22 24  1  0
 23 22  1  0
  2 26  1  0
  3 27  1  0
  8 28  1  0
  8 29  1  0
  9 30  1  1
 10 31  1  0
 10 32  1  0
 11 33  1  0
 11 34  1  0
 18 35  1  0
 19 36  1  0
M  ISO  8  26  14  27  14  28  13  29  13  30  13  31  13  32  13  33  13
M  ISO  3  34  13  35  14  36  14
M  END
>  <minimizedAffinity>  (1) 
-7.10443592

>  <minimizedRMSD>  (1) 
0.625839949

$$$$
