
     RDKit          3D

 35 37  0  0  0  0  0  0  0  0999 V2000
   37.6900   30.2700   51.0100 C   0  0  0  0  0  0  0  0  0  0  0  0
   38.1610   30.8380   49.8070 C   0  0  0  0  0  0  0  0  0  0  0  0
   37.4370   30.5760   48.6550 C   0  0  0  0  0  0  0  0  0  0  0  0
   36.3520   29.8100   48.7680 N   0  0  0  0  0  0  0  0  0  0  0  0
   35.9120   29.2740   49.9190 C   0  0  0  0  0  0  0  0  0  0  0  0
   36.5870   29.5070   51.0450 N   0  0  0  0  0  0  0  0  0  0  0  0
   37.8160   31.1000   47.3660 C   0  0  0  0  0  0  0  0  0  0  0  0
   37.0910   30.7670   46.2310 C   0  0  0  0  0  0  0  0  0  0  0  0
   37.4020   31.2360   44.9760 C   0  0  0  0  0  0  0  0  0  0  0  0
   38.4630   32.0600   44.8250 N   0  0  0  0  0  0  0  0  0  0  0  0
   39.1520   32.3710   45.9350 C   0  0  0  0  0  0  0  0  0  0  0  0
   38.8680   31.9260   47.1750 N   0  0  0  0  0  0  0  0  0  0  0  0
   40.3260   33.2770   45.8090 C   0  0  0  0  0  0  0  0  0  0  0  0
   40.4160   34.0160   47.0100 F   0  0  0  0  0  0  0  0  0  0  0  0
   41.4690   32.5820   45.5580 F   0  0  0  0  0  0  0  0  0  0  0  0
   40.1250   34.2390   44.8350 F   0  0  0  0  0  0  0  0  0  0  0  0
   34.7580   28.4970   49.8480 O   0  0  0  0  0  0  0  0  0  0  0  0
   33.5540   26.7700   46.8380 N   0  0  0  0  0  0  0  0  0  0  0  0
   34.1060   26.8940   48.0570 C   0  0  0  0  0  0  0  0  0  0  0  0
   34.2280   28.1560   48.6250 C   0  0  0  0  0  0  0  0  0  0  0  0
   33.7770   29.2570   47.9110 C   0  0  0  0  0  0  0  0  0  0  0  0
   33.7940   30.4740   48.2400 O   0  0  0  0  0  0  0  0  0  0  0  0
   33.2280   29.0600   46.6800 N   0  0  0  0  0  0  0  0  0  0  0  0
   33.1200   27.8310   46.1540 C   0  0  0  0  0  0  0  0  0  0  0  0
   32.6160   27.6140   45.0120 O   0  0  0  0  0  0  0  0  0  0  0  0
   32.7240   30.1420   45.8510 C   0  0  0  0  0  0  0  0  0  0  0  0
   33.6230   30.3170   44.7940 F   0  0  0  0  0  0  0  0  0  0  0  0
   32.5670   31.3220   46.5150 F   0  0  0  0  0  0  0  0  0  0  0  0
   31.5360   29.7060   45.2610 F   0  0  0  0  0  0  0  0  0  0  0  0
   38.2415   30.4577   51.9431 H   0  0  0  0  0  0  0  0  0  0  0  0
   39.0658   31.4631   49.7848 H   0  0  0  0  0  0  0  0  0  0  0  0
   36.2263   30.0959   46.3400 H   0  0  0  0  0  0  0  0  0  0  0  0
   36.7951   30.9443   44.1062 H   0  0  0  0  0  0  0  0  0  0  0  0
   33.4635   25.8326   46.4209 H   0  0  0  0  0  0  0  0  0  0  0  0
   34.4580   26.0045   48.6000 H   0  0  0  0  0  0  0  0  0  0  0  0
  1  6  2  0
  2  1  1  0
  3  4  1  0
  3  2  2  0
  4  5  2  0
  5  6  1  0
  7  3  1  0
  8  7  2  0
  9  8  1  0
 10  9  2  0
 10 11  1  0
 11 12  2  0
 12  7  1  0
 13 11  1  0
 13 14  1  0
 15 13  1  0
 16 13  1  0
 17  5  1  0
 18 19  1  0
 19 20  2  0
 20 17  1  0
 21 22  2  0
 21 20  1  0
 23 21  1  0
 24 23  1  0
 24 18  1  0
 25 24  2  0
 26 28  1  0
 26 23  1  0
 27 26  1  0
 29 26  1  0
  1 30  1  0
  2 31  1  0
  8 32  1  0
  9 33  1  0
 18 34  1  0
 19 35  1  0
M  ISO  6  30  14  31  14  32  14  33  14  34   9  35  14
M  END
>  <minimizedAffinity>  (1) 
-6.67735481

>  <minimizedRMSD>  (1) 
0.869129658

$$$$
