
     RDKit          3D

 34 36  0  0  0  0  0  0  0  0999 V2000
   36.9060   31.2710   48.5720 C   0  0  0  0  0  0  0  0  0  0  0  0
   37.1350   32.1590   49.6130 C   0  0  0  0  0  0  0  0  0  0  0  0
   38.0660   33.1880   49.4230 C   0  0  0  0  0  0  0  0  0  0  0  0
   38.7400   33.3140   48.2170 C   0  0  0  0  0  0  0  0  0  0  0  0
   38.4810   32.4090   47.2040 C   0  0  0  0  0  0  0  0  0  0  0  0
   37.5880   31.4410   47.4200 N   0  0  0  0  0  0  0  0  0  0  0  0
   35.1890   28.4250   50.3120 C   0  0  0  0  0  0  0  0  0  0  0  0
   36.1680   29.4070   49.9910 C   0  0  0  0  0  0  0  0  0  0  0  0
   35.9310   30.2690   48.9180 C   0  0  0  0  0  0  0  0  0  0  0  0
   34.7600   30.1170   48.2350 N   0  0  0  0  0  0  0  0  0  0  0  0
   33.8450   29.1640   48.5730 C   0  0  0  0  0  0  0  0  0  0  0  0
   34.0530   28.3320   49.5920 N   0  0  0  0  0  0  0  0  0  0  0  0
   32.7150   29.2090   47.7140 N   0  0  0  0  0  0  0  0  0  0  0  0
   37.3970   29.4650   50.8140 C   0  0  0  0  0  0  0  0  0  0  0  0
   38.5140   29.8030   50.0400 F   0  0  0  0  0  0  0  0  0  0  0  0
   37.2610   30.3980   51.7780 F   0  0  0  0  0  0  0  0  0  0  0  0
   37.7040   28.2520   51.4270 F   0  0  0  0  0  0  0  0  0  0  0  0
   39.1360   32.4720   45.9060 C   0  0  0  0  0  0  0  0  0  0  0  0
   40.4790   32.3020   45.6560 C   0  0  0  0  0  0  0  0  0  0  0  0
   40.7210   32.4320   44.2960 C   0  0  0  0  0  0  0  0  0  0  0  0
   39.4940   32.6800   43.7610 N   0  0  0  0  0  0  0  0  0  0  0  0
   38.5770   32.7010   44.7110 N   0  0  0  0  0  0  0  0  0  0  0  0
   39.2540   32.8890   42.3430 C   0  0  0  0  0  0  0  0  0  0  0  0
   39.4980   34.2130   41.9720 F   0  0  0  0  0  0  0  0  0  0  0  0
   37.9420   32.6240   42.0060 F   0  0  0  0  0  0  0  0  0  0  0  0
   40.0660   32.1010   41.5480 F   0  0  0  0  0  0  0  0  0  0  0  0
   36.5970   32.0571   50.5670 H   0  0  0  0  0  0  0  0  0  0  0  0
   38.2643   33.9017   50.2362 H   0  0  0  0  0  0  0  0  0  0  0  0
   39.4706   34.1229   48.0686 H   0  0  0  0  0  0  0  0  0  0  0  0
   35.3604   27.7373   51.1532 H   0  0  0  0  0  0  0  0  0  0  0  0
   31.9387   28.5457   47.8491 H   0  0  0  0  0  0  0  0  0  0  0  0
   32.6718   29.9050   46.9559 H   0  0  0  0  0  0  0  0  0  0  0  0
   41.2441   32.0946   46.4186 H   0  0  0  0  0  0  0  0  0  0  0  0
   41.6840   32.3528   43.7703 H   0  0  0  0  0  0  0  0  0  0  0  0
  1  9  1  0
  1  2  2  0
  3  2  1  0
  4  3  2  0
  5  6  2  0
  5  4  1  0
  6  1  1  0
  8  7  2  0
  8 14  1  0
  9  8  1  0
 10 11  1  0
 10  9  2  0
 11 12  2  0
 12  7  1  0
 13 11  1  0
 14 17  1  0
 14 16  1  0
 15 14  1  0
 18  5  1  0
 19 18  1  0
 20 19  2  0
 21 20  1  0
 21 22  1  0
 22 18  2  0
 23 21  1  0
 24 23  1  0
 25 23  1  0
 26 23  1  0
  2 27  1  0
  3 28  1  0
  4 29  1  0
  7 30  1  0
 13 31  1  0
 13 32  1  0
 19 33  1  0
 20 34  1  0
M  ISO  6  27  14  28  14  29  14  30  14  33  14  34  14
M  END
>  <minimizedAffinity>  (1) 
-7.17944765

>  <minimizedRMSD>  (1) 
1.3573463

$$$$
