
     RDKit          3D

 22 22  0  0  0  0  0  0  0  0999 V2000
   36.1060   30.1170   49.9660 C   0  0  0  0  0  0  0  0  0  0  0  0
   35.1120   29.4680   49.0830 C   0  0  0  0  0  0  0  0  0  0  0  0
   34.6010   30.1990   48.0240 C   0  0  0  0  0  0  0  0  0  0  0  0
   33.6620   29.6180   47.1730 C   0  0  0  0  0  0  0  0  0  0  0  0
   33.2940   28.3300   47.4450 N   0  0  0  0  0  0  0  0  0  0  0  0
   33.8000   27.6400   48.4740 C   0  0  0  0  0  0  0  0  0  0  0  0
   34.7090   28.2140   49.2910 N   0  0  0  0  0  0  0  0  0  0  0  0
   36.1050   31.4930   49.8730 O   0  0  0  0  0  0  0  0  0  0  0  0
   37.8910   31.5180   47.9240 O   0  0  0  0  0  0  0  0  0  0  0  0
   37.6480   31.9610   49.3400 P   0  0  2  0  0  0  0  0  0  0  0  0
   38.8160   31.1720   50.3180 O   0  0  0  0  0  0  0  0  0  0  0  0
   37.8370   33.6300   49.4440 O   0  0  0  0  0  0  0  0  0  0  0  0
   39.1950   33.9000   49.2330 C   0  0  0  0  0  0  0  0  0  0  0  0
   39.3730   35.1760   48.7320 F   0  0  0  0  0  0  0  0  0  0  0  0
   39.6000   33.0180   48.2260 F   0  0  0  0  0  0  0  0  0  0  0  0
   39.9080   33.6470   50.3720 F   0  0  0  0  0  0  0  0  0  0  0  0
   35.8833   29.8376   51.0064 H   0  0  0  0  0  0  0  0  0  0  0  0
   37.0998   29.7705   49.6462 H   0  0  0  0  0  0  0  0  0  0  0  0
   34.9344   31.2335   47.8549 H   0  0  0  0  0  0  0  0  0  0  0  0
   33.2369   30.1705   46.3221 H   0  0  0  0  0  0  0  0  0  0  0  0
   33.4752   26.6046   48.6543 H   0  0  0  0  0  0  0  0  0  0  0  0
   38.5997   31.3181   51.2730 H   0  0  0  0  0  0  0  0  0  0  0  0
  2  7  2  0
  2  1  1  0
  3  2  1  0
  4  5  1  0
  4  3  2  0
  5  6  2  0
  6  7  1  0
  8  1  1  0
 10  9  2  0
 10 12  1  0
 10  8  1  0
 10 11  1  0
 13 12  1  0
 13 16  1  0
 14 13  1  0
 15 13  1  0
  1 17  1  0
  1 18  1  0
  3 19  1  0
  4 20  1  0
  6 21  1  0
 11 22  1  0
M  ISO  6  17   8  18   8  19  14  20  14  21  14  22   3
M  END
>  <minimizedAffinity>  (1) 
-4.83095503

>  <minimizedRMSD>  (1) 
0.689998984

$$$$
