
     RDKit          3D

 29 30  0  0  1  0  0  0  0  0999 V2000
   35.8140   29.5750   48.8210 N   0  0  0  0  0  0  0  0  0  0  0  0
   36.5680   28.8190   49.7980 C   0  0  0  0  0  0  0  0  0  0  0  0
   37.0830   29.5260   50.9690 C   0  0  0  0  0  0  0  0  0  0  0  0
   37.3320   30.9750   50.8580 C   0  0  0  0  0  0  0  0  0  0  0  0
   36.5750   31.6620   49.7520 C   0  0  0  0  0  0  0  0  0  0  0  0
   36.5670   30.7770   48.5170 C   0  0  1  0  0  0  0  0  0  0  0  0
   34.5620   29.1940   48.2710 C   0  0  0  0  0  0  0  0  0  0  0  0
   34.0440   29.6970   47.0790 C   0  0  0  0  0  0  0  0  0  0  0  0
   32.8020   29.2360   46.6550 C   0  0  0  0  0  0  0  0  0  0  0  0
   32.1600   28.3150   47.4310 N   0  0  0  0  0  0  0  0  0  0  0  0
   32.6930   27.8550   48.5750 C   0  0  0  0  0  0  0  0  0  0  0  0
   33.8870   28.3000   48.9810 N   0  0  0  0  0  0  0  0  0  0  0  0
   37.9140   30.4750   48.2730 O   0  0  0  0  0  0  0  0  0  0  0  0
   38.4710   31.3220   47.3380 C   0  0  0  0  0  0  0  0  0  0  0  0
   37.5210   31.9230   46.5340 F   0  0  0  0  0  0  0  0  0  0  0  0
   39.2660   30.5160   46.5160 F   0  0  0  0  0  0  0  0  0  0  0  0
   39.2960   32.2170   47.9640 F   0  0  0  0  0  0  0  0  0  0  0  0
   35.9133   28.0145   50.1643 H   0  0  0  0  0  0  0  0  0  0  0  0
   37.4690   28.4950   49.2565 H   0  0  0  0  0  0  0  0  0  0  0  0
   36.3561   29.3820   51.7820 H   0  0  0  0  0  0  0  0  0  0  0  0
   38.0803   29.0912   51.1313 H   0  0  0  0  0  0  0  0  0  0  0  0
   37.0477   31.4452   51.8109 H   0  0  0  0  0  0  0  0  0  0  0  0
   38.3999   31.0888   50.6200 H   0  0  0  0  0  0  0  0  0  0  0  0
   35.5405   31.8479   50.0764 H   0  0  0  0  0  0  0  0  0  0  0  0
   37.0625   32.6189   49.5138 H   0  0  0  0  0  0  0  0  0  0  0  0
   36.1049   31.2541   47.6401 H   0  0  0  0  0  0  0  0  0  0  0  0
   34.6024   30.4388   46.4892 H   0  0  0  0  0  0  0  0  0  0  0  0
   32.3505   29.6030   45.7215 H   0  0  0  0  0  0  0  0  0  0  0  0
   32.1480   27.1131   49.1772 H   0  0  0  0  0  0  0  0  0  0  0  0
  1  2  1  0
  2  3  1  0
  4  3  1  0
  5  4  1  0
  6  1  1  0
  6  5  1  0
  7  1  1  0
  7 12  1  0
  8  7  2  0
  9  8  1  0
  9 10  2  0
 10 11  1  0
 11 12  2  0
 13  6  1  0
 14 17  1  0
 14 13  1  0
 15 14  1  0
 16 14  1  0
  2 18  1  0
  2 19  1  0
  3 20  1  0
  3 21  1  0
  4 22  1  0
  4 23  1  0
  5 24  1  0
  5 25  1  0
  6 26  1  6
  8 27  1  0
  9 28  1  0
 11 29  1  0
M  ISO  8  18  13  19  13  20  13  21  13  22  13  23  13  24  13  25  13
M  ISO  4  26  13  27  14  28  14  29  14
M  END
>  <minimizedAffinity>  (1) 
-5.25684595

>  <minimizedRMSD>  (1) 
0.502213299

$$$$
