
     RDKit          3D

 26 27  0  0  0  0  0  0  0  0999 V2000
   37.6140   30.3240   51.0340 C   0  0  0  0  0  0  0  0  0  0  0  0
   38.0660   30.9030   49.8370 C   0  0  0  0  0  0  0  0  0  0  0  0
   37.3950   30.5610   48.6580 C   0  0  0  0  0  0  0  0  0  0  0  0
   36.3660   29.7020   48.7530 N   0  0  0  0  0  0  0  0  0  0  0  0
   35.9500   29.1580   49.9170 C   0  0  0  0  0  0  0  0  0  0  0  0
   36.5880   29.4800   51.0680 N   0  0  0  0  0  0  0  0  0  0  0  0
   37.7570   31.0870   47.3600 C   0  0  0  0  0  0  0  0  0  0  0  0
   37.0120   30.7650   46.2290 C   0  0  0  0  0  0  0  0  0  0  0  0
   37.3260   31.2500   44.9720 C   0  0  0  0  0  0  0  0  0  0  0  0
   38.3990   32.0720   44.8320 N   0  0  0  0  0  0  0  0  0  0  0  0
   39.0910   32.3640   45.9230 C   0  0  0  0  0  0  0  0  0  0  0  0
   38.8070   31.9050   47.1590 N   0  0  0  0  0  0  0  0  0  0  0  0
   40.2650   33.2580   45.7950 C   0  0  0  0  0  0  0  0  0  0  0  0
   40.3890   33.9870   46.9900 F   0  0  0  0  0  0  0  0  0  0  0  0
   41.4210   32.5560   45.5570 F   0  0  0  0  0  0  0  0  0  0  0  0
   40.0970   34.2040   44.8100 F   0  0  0  0  0  0  0  0  0  0  0  0
   34.8710   28.2900   49.8350 O   0  0  0  0  0  0  0  0  0  0  0  0
   34.0300   28.4130   48.7340 C   0  0  0  0  0  0  0  0  0  0  0  0
   34.0780   27.1760   48.5910 O   0  0  0  0  0  0  0  0  0  0  0  0
   33.4450   29.5870   48.1510 N   0  0  0  0  0  0  0  0  0  0  0  0
   38.1259   30.5774   51.9741 H   0  0  0  0  0  0  0  0  0  0  0  0
   38.9168   31.6002   49.8268 H   0  0  0  0  0  0  0  0  0  0  0  0
   36.1421   30.1008   46.3388 H   0  0  0  0  0  0  0  0  0  0  0  0
   36.7162   30.9744   44.0989 H   0  0  0  0  0  0  0  0  0  0  0  0
   32.8360   29.5028   47.3246 H   0  0  0  0  0  0  0  0  0  0  0  0
   33.6342   30.5136   48.5591 H   0  0  0  0  0  0  0  0  0  0  0  0
  1  6  2  0
  2  1  1  0
  3  4  1  0
  3  2  2  0
  4  5  2  0
  5  6  1  0
  7  3  1  0
  8  7  2  0
  9  8  1  0
 10  9  2  0
 10 11  1  0
 11 12  2  0
 12  7  1  0
 13 11  1  0
 13 14  1  0
 15 13  1  0
 16 13  1  0
 17  5  1  0
 18 17  1  0
 19 18  2  0
 20 18  1  0
  1 21  1  0
  2 22  1  0
  8 23  1  0
  9 24  1  0
 20 25  1  0
 20 26  1  0
M  ISO  4  21  14  22  14  23  14  24  14
M  END
>  <minimizedAffinity>  (1) 
-6.25855637

>  <minimizedRMSD>  (1) 
0.716905177

$$$$
