
     RDKit          3D

 26 27  0  0  1  0  0  0  0  0999 V2000
   38.4780   31.5030   47.7090 C   0  0  2  0  0  0  0  0  0  0  0  0
   37.5850   32.1420   48.8020 C   0  0  2  0  0  0  0  0  0  0  0  0
   38.5860   33.0230   49.4280 C   0  0  0  0  0  0  0  0  0  0  0  0
   39.3610   33.5450   48.3940 O   0  0  0  0  0  0  0  0  0  0  0  0
   39.1980   32.7780   47.2830 C   0  0  0  0  0  0  0  0  0  0  0  0
   36.9380   29.6500   51.5550 C   0  0  0  0  0  0  0  0  0  0  0  0
   37.6010   30.6190   50.7610 C   0  0  0  0  0  0  0  0  0  0  0  0
   36.9440   31.1660   49.6420 C   0  0  0  0  0  0  0  0  0  0  0  0
   35.6730   30.7170   49.3760 N   0  0  0  0  0  0  0  0  0  0  0  0
   35.0690   29.8010   50.1400 C   0  0  0  0  0  0  0  0  0  0  0  0
   35.6830   29.2570   51.2300 N   0  0  0  0  0  0  0  0  0  0  0  0
   37.6920   31.0090   46.6630 O   0  0  0  0  0  0  0  0  0  0  0  0
   38.2670   30.7570   45.4320 C   0  0  0  0  0  0  0  0  0  0  0  0
   39.2420   30.0280   45.1550 O   0  0  0  0  0  0  0  0  0  0  0  0
   37.6330   31.4450   44.3360 N   0  0  0  0  0  0  0  0  0  0  0  0
   39.1090   30.6551   48.0138 H   0  0  0  0  0  0  0  0  0  0  0  0
   36.6899   32.6865   48.4668 H   0  0  0  0  0  0  0  0  0  0  0  0
   38.0864   33.8360   49.9752 H   0  0  0  0  0  0  0  0  0  0  0  0
   39.2068   32.4689   50.1474 H   0  0  0  0  0  0  0  0  0  0  0  0
   40.1785   32.5293   46.8509 H   0  0  0  0  0  0  0  0  0  0  0  0
   38.6147   33.3169   46.5218 H   0  0  0  0  0  0  0  0  0  0  0  0
   37.4412   29.2183   52.4327 H   0  0  0  0  0  0  0  0  0  0  0  0
   38.6211   30.9413   51.0170 H   0  0  0  0  0  0  0  0  0  0  0  0
   34.0496   29.4773   49.8828 H   0  0  0  0  0  0  0  0  0  0  0  0
   37.9879   31.3228   43.3768 H   0  0  0  0  0  0  0  0  0  0  0  0
   36.8249   32.0590   44.5118 H   0  0  0  0  0  0  0  0  0  0  0  0
  1  2  1  0
  2  3  1  0
  2  8  1  0
  4  3  1  0
  5  1  1  0
  5  4  1  0
  7  6  2  0
  8  7  1  0
  9  8  2  0
  9 10  1  0
 10 11  2  0
 11  6  1  0
 12  1  1  0
 13 12  1  0
 14 13  2  0
 15 13  1  0
  1 16  1  1
  2 17  1  6
  3 18  1  0
  3 19  1  0
  5 20  1  0
  5 21  1  0
  6 22  1  0
  7 23  1  0
 10 24  1  0
 15 25  1  0
 15 26  1  0
M  ISO  8  16  13  17  13  18  13  19  13  20  13  21  13  22  14  23  14
M  ISO  1  24  14
M  END
>  <minimizedAffinity>  (1) 
-4.76246262

>  <minimizedRMSD>  (1) 
1.7287848

$$$$
