
     RDKit          3D

 22 22  0  0  0  0  0  0  0  0999 V2000
   35.9660   30.7640   49.4680 C   0  0  0  0  0  0  0  0  0  0  0  0
   36.1770   29.9210   50.5490 C   0  0  0  0  0  0  0  0  0  0  0  0
   37.4150   29.9430   51.1750 C   0  0  0  0  0  0  0  0  0  0  0  0
   38.3900   30.7800   50.7250 N   0  0  0  0  0  0  0  0  0  0  0  0
   38.1410   31.5980   49.6530 C   0  0  0  0  0  0  0  0  0  0  0  0
   36.9290   31.5860   49.0290 N   0  0  0  0  0  0  0  0  0  0  0  0
   35.0780   29.1160   50.8950 N   0  0  0  0  0  0  0  0  0  0  0  0
   34.8060   30.8790   48.7250 O   0  0  0  0  0  0  0  0  0  0  0  0
   35.6410   30.0820   46.3000 O   0  0  0  0  0  0  0  0  0  0  0  0
   34.5370   29.9280   47.3010 P   0  0  1  0  0  0  0  0  0  0  0  0
   34.3900   28.3290   47.8130 O   0  0  0  0  0  0  0  0  0  0  0  0
   33.1200   30.4760   46.5610 O   0  0  0  0  0  0  0  0  0  0  0  0
   32.1010   29.6720   46.0900 C   0  0  0  0  0  0  0  0  0  0  0  0
   32.2130   29.2640   44.9040 O   0  0  0  0  0  0  0  0  0  0  0  0
   30.9520   29.2730   46.8310 N   0  0  0  0  0  0  0  0  0  0  0  0
   37.6087   29.2845   52.0345 H   0  0  0  0  0  0  0  0  0  0  0  0
   38.9304   32.2734   49.2914 H   0  0  0  0  0  0  0  0  0  0  0  0
   35.1487   28.4605   51.6863 H   0  0  0  0  0  0  0  0  0  0  0  0
   34.2020   29.1816   50.3572 H   0  0  0  0  0  0  0  0  0  0  0  0
   34.3872   28.2983   48.8025 H   0  0  0  0  0  0  0  0  0  0  0  0
   30.2414   28.6690   46.3938 H   0  0  0  0  0  0  0  0  0  0  0  0
   30.8316   29.5885   47.8041 H   0  0  0  0  0  0  0  0  0  0  0  0
  1  2  2  0
  2  7  1  0
  2  3  1  0
  4  3  2  0
  5  4  1  0
  6  1  1  0
  6  5  2  0
  8  1  1  0
 10  9  2  0
 10 11  1  0
 10  8  1  0
 12 10  1  0
 13 12  1  0
 13 15  1  0
 14 13  2  0
  3 16  1  0
  5 17  1  0
  7 18  1  0
  7 19  1  0
 11 20  1  0
 15 21  1  0
 15 22  1  0
M  ISO  3  16  14  17  14  20   3
M  END
>  <minimizedAffinity>  (1) 
-3.81208754

>  <minimizedRMSD>  (1) 
0.890099406

$$$$
