
     RDKit          3D

 29 30  0  0  0  0  0  0  0  0999 V2000
   37.9950   31.3670   47.6370 C   0  0  0  0  0  0  0  0  0  0  0  0
   37.0760   31.3050   48.6720 C   0  0  0  0  0  0  0  0  0  0  0  0
   37.2070   32.3460   49.6040 C   0  0  0  0  0  0  0  0  0  0  0  0
   38.1900   33.3340   49.4610 C   0  0  0  0  0  0  0  0  0  0  0  0
   39.0600   33.2970   48.3800 C   0  0  0  0  0  0  0  0  0  0  0  0
   38.9580   32.2830   47.4420 C   0  0  0  0  0  0  0  0  0  0  0  0
   34.9280   30.3350   48.0100 C   0  0  0  0  0  0  0  0  0  0  0  0
   36.0770   30.2960   48.8110 C   0  0  0  0  0  0  0  0  0  0  0  0
   36.2060   29.2480   49.7370 C   0  0  0  0  0  0  0  0  0  0  0  0
   35.1990   28.3260   49.8010 N   0  0  0  0  0  0  0  0  0  0  0  0
   34.1020   28.4050   49.0030 C   0  0  0  0  0  0  0  0  0  0  0  0
   33.9660   29.4030   48.1130 N   0  0  0  0  0  0  0  0  0  0  0  0
   37.3950   29.1600   50.6040 C   0  0  0  0  0  0  0  0  0  0  0  0
   37.9310   30.3500   46.6500 O   0  0  0  0  0  0  0  0  0  0  0  0
   39.8370   32.2620   46.3690 O   0  0  0  0  0  0  0  0  0  0  0  0
   39.5190   33.0820   45.2700 C   0  0  0  0  0  0  0  0  0  0  0  0
   40.2280   33.9560   44.7310 O   0  0  0  0  0  0  0  0  0  0  0  0
   38.2240   32.8680   44.7270 N   0  0  0  0  0  0  0  0  0  0  0  0
   36.5235   32.3871   50.4649 H   0  0  0  0  0  0  0  0  0  0  0  0
   38.2724   34.1394   50.2057 H   0  0  0  0  0  0  0  0  0  0  0  0
   39.8310   34.0736   48.2682 H   0  0  0  0  0  0  0  0  0  0  0  0
   34.8108   31.1486   47.2790 H   0  0  0  0  0  0  0  0  0  0  0  0
   33.3144   27.6417   49.0865 H   0  0  0  0  0  0  0  0  0  0  0  0
   37.0825   29.1831   51.6584 H   0  0  0  0  0  0  0  0  0  0  0  0
   37.9286   28.2199   50.4003 H   0  0  0  0  0  0  0  0  0  0  0  0
   38.0612   30.0113   50.4003 H   0  0  0  0  0  0  0  0  0  0  0  0
   38.5682   30.3547   45.8923 H   0  0  0  0  0  0  0  0  0  0  0  0
   37.9055   33.4236   43.9203 H   0  0  0  0  0  0  0  0  0  0  0  0
   37.6034   32.1572   45.1400 H   0  0  0  0  0  0  0  0  0  0  0  0
  1  2  2  0
  2  8  1  0
  2  3  1  0
  4  3  2  0
  5  4  1  0
  6  1  1  0
  6  5  2  0
  7 12  2  0
  7  8  1  0
  8  9  2  0
  9 10  1  0
  9 13  1  0
 11 10  2  0
 12 11  1  0
 14  1  1  0
 15  6  1  0
 16 15  1  0
 17 16  2  0
 18 16  1  0
  3 19  1  0
  4 20  1  0
  5 21  1  0
  7 22  1  0
 11 23  1  0
 13 24  1  0
 13 25  1  0
 13 26  1  0
 14 27  1  0
 18 28  1  0
 18 29  1  0
M  ISO  8  19  14  20  14  21  14  22  14  23  14  24   8  25   8  26   8
M  ISO  1  27   3
M  END
>  <minimizedAffinity>  (1) 
-6.34176445

>  <minimizedRMSD>  (1) 
0.155599773

$$$$
