
     RDKit          3D

 28 29  0  0  1  0  0  0  0  0999 V2000
   36.4850   29.8770   49.2700 N   0  0  0  0  0  0  0  0  0  0  0  0
   37.0700   31.1910   49.0910 C   0  0  1  0  0  0  0  0  0  0  0  0
   37.7900   31.3720   50.4250 C   0  0  0  0  0  0  0  0  0  0  0  0
   37.3400   30.2190   51.3130 C   0  0  0  0  0  0  0  0  0  0  0  0
   37.2370   29.1250   50.2540 C   0  0  0  0  0  0  0  0  0  0  0  0
   35.3330   29.4110   48.5750 C   0  0  0  0  0  0  0  0  0  0  0  0
   34.6840   30.2940   47.6980 C   0  0  0  0  0  0  0  0  0  0  0  0
   33.5460   29.8470   47.0130 C   0  0  0  0  0  0  0  0  0  0  0  0
   33.1370   28.5610   47.2450 N   0  0  0  0  0  0  0  0  0  0  0  0
   33.7840   27.7460   48.0890 C   0  0  0  0  0  0  0  0  0  0  0  0
   34.8880   28.1610   48.7640 N   0  0  0  0  0  0  0  0  0  0  0  0
   37.9990   31.2770   47.9640 C   0  0  0  0  0  0  0  0  0  0  0  0
   38.9840   31.9700   48.0310 O   0  0  0  0  0  0  0  0  0  0  0  0
   38.9510   30.4900   45.7560 C   0  0  0  0  0  0  0  0  0  0  0  0
   40.0660   31.0210   46.0820 O   0  0  0  0  0  0  0  0  0  0  0  0
   37.9020   30.6190   46.7080 N   0  0  0  0  0  0  0  0  0  0  0  0
   36.3250   31.9638   48.8504 H   0  0  0  0  0  0  0  0  0  0  0  0
   38.8795   31.3367   50.2777 H   0  0  0  0  0  0  0  0  0  0  0  0
   37.5506   32.3444   50.8801 H   0  0  0  0  0  0  0  0  0  0  0  0
   38.0863   29.9772   52.0841 H   0  0  0  0  0  0  0  0  0  0  0  0
   36.4243   30.4007   51.8948 H   0  0  0  0  0  0  0  0  0  0  0  0
   36.6872   28.2436   50.6158 H   0  0  0  0  0  0  0  0  0  0  0  0
   38.1875   28.6907   49.9106 H   0  0  0  0  0  0  0  0  0  0  0  0
   35.0612   31.3168   47.5512 H   0  0  0  0  0  0  0  0  0  0  0  0
   33.0030   30.5031   46.3168 H   0  0  0  0  0  0  0  0  0  0  0  0
   33.4143   26.7208   48.2385 H   0  0  0  0  0  0  0  0  0  0  0  0
   38.8108   29.9659   44.7991 H   0  0  0  0  0  0  0  0  0  0  0  0
   36.9931   30.1991   46.4661 H   0  0  0  0  0  0  0  0  0  0  0  0
  1  5  1  0
  2  1  1  0
  2  3  1  0
  3  4  1  0
  5  4  1  0
  6 11  1  0
  6  1  1  0
  7  6  2  0
  8  9  2  0
  8  7  1  0
  9 10  1  0
 10 11  2  0
 12 13  2  0
 12  2  1  0
 14 15  2  0
 14 16  1  0
 16 12  1  0
  2 17  1  6
  3 18  1  0
  3 19  1  0
  4 20  1  0
  4 21  1  0
  5 22  1  0
  5 23  1  0
  7 24  1  0
  8 25  1  0
 10 26  1  0
 14 27  1  0
 16 28  1  0
M  ISO  8  17  13  18  13  19  13  20  13  21  13  22  13  23  13  24  14
M  ISO  3  25  14  26  14  27   6
M  END
>  <minimizedAffinity>  (1) 
-5.04688692

>  <minimizedRMSD>  (1) 
0.565711737

$$$$
