
     RDKit          3D

 43 45  0  0  1  0  0  0  0  0999 V2000
   34.8660   30.0670   46.8410 C   0  0  0  0  0  0  0  0  0  0  0  0
   36.1850   30.5720   46.9090 C   0  0  0  0  0  0  0  0  0  0  0  0
   36.8850   30.7320   45.7070 C   0  0  0  0  0  0  0  0  0  0  0  0
   36.2630   30.3940   44.5510 N   0  0  0  0  0  0  0  0  0  0  0  0
   35.0160   29.9190   44.5140 C   0  0  0  0  0  0  0  0  0  0  0  0
   34.3190   29.7540   45.6470 N   0  0  0  0  0  0  0  0  0  0  0  0
   36.6790   30.8600   48.2380 N   0  0  0  0  0  0  0  0  0  0  0  0
   37.1080   31.9650   49.0270 C   0  0  0  0  0  0  0  0  0  0  0  0
   38.4270   31.5060   49.5760 C   0  0  0  0  0  0  0  0  0  0  0  0
   38.2150   30.0010   49.7760 C   0  0  0  0  0  0  0  0  0  0  0  0
   36.8610   29.7500   49.2230 C   0  0  1  0  0  0  0  0  0  0  0  0
   34.8090   29.0260   50.4310 C   0  0  0  0  0  0  0  0  0  0  0  0
   34.5100   28.0840   49.6340 O   0  0  0  0  0  0  0  0  0  0  0  0
   35.8870   29.9610   50.2890 N   0  0  0  0  0  0  0  0  0  0  0  0
   38.2290   31.2360   45.6670 C   0  0  0  0  0  0  0  0  0  0  0  0
   38.4750   32.4540   46.2260 C   0  0  0  0  0  0  0  0  0  0  0  0
   39.7300   33.0310   46.2570 C   0  0  0  0  0  0  0  0  0  0  0  0
   40.7720   32.3130   45.6790 C   0  0  0  0  0  0  0  0  0  0  0  0
   40.5940   31.0880   45.0990 C   0  0  0  0  0  0  0  0  0  0  0  0
   39.2970   30.5700   45.1080 C   0  0  0  0  0  0  0  0  0  0  0  0
   39.0650   29.2510   44.4850 C   0  0  0  0  0  0  0  0  0  0  0  0
   39.8810   27.8260   42.5790 C   0  0  0  0  0  0  0  0  0  0  0  0
   39.3700   26.7620   43.0080 O   0  0  0  0  0  0  0  0  0  0  0  0
   39.7960   29.1010   43.2180 N   0  0  0  0  0  0  0  0  0  0  0  0
   34.2837   29.9287   47.7639 H   0  0  0  0  0  0  0  0  0  0  0  0
   34.5576   29.6614   43.5478 H   0  0  0  0  0  0  0  0  0  0  0  0
   37.2308   32.8665   48.4088 H   0  0  0  0  0  0  0  0  0  0  0  0
   36.3873   32.2393   49.8114 H   0  0  0  0  0  0  0  0  0  0  0  0
   39.2408   31.6987   48.8615 H   0  0  0  0  0  0  0  0  0  0  0  0
   38.7166   32.0286   50.4996 H   0  0  0  0  0  0  0  0  0  0  0  0
   38.9740   29.4234   49.2279 H   0  0  0  0  0  0  0  0  0  0  0  0
   38.3036   29.6984   50.8298 H   0  0  0  0  0  0  0  0  0  0  0  0
   36.7434   28.7419   48.7989 H   0  0  0  0  0  0  0  0  0  0  0  0
   34.1752   29.1364   51.3233 H   0  0  0  0  0  0  0  0  0  0  0  0
   35.9721   30.7654   50.9267 H   0  0  0  0  0  0  0  0  0  0  0  0
   37.6344   33.0041   46.6740 H   0  0  0  0  0  0  0  0  0  0  0  0
   39.8980   34.0152   46.7186 H   0  0  0  0  0  0  0  0  0  0  0  0
   41.7817   32.7494   45.6891 H   0  0  0  0  0  0  0  0  0  0  0  0
   41.4318   30.5369   44.6470 H   0  0  0  0  0  0  0  0  0  0  0  0
   39.3972   28.4667   45.1811 H   0  0  0  0  0  0  0  0  0  0  0  0
   37.9902   29.1634   44.2681 H   0  0  0  0  0  0  0  0  0  0  0  0
   40.4401   27.7718   41.6333 H   0  0  0  0  0  0  0  0  0  0  0  0
   40.2495   29.9201   42.7886 H   0  0  0  0  0  0  0  0  0  0  0  0
  1  2  2  0
  2  7  1  0
  3  2  1  0
  4  3  2  0
  5  4  1  0
  5  6  2  0
  6  1  1  0
  7  8  1  0
  7 11  1  0
  8  9  1  0
  9 10  1  0
 11 10  1  0
 11 14  1  0
 13 12  2  0
 14 12  1  0
 15  3  1  0
 15 16  2  0
 16 17  1  0
 18 17  2  0
 19 20  2  0
 19 18  1  0
 20 15  1  0
 21 20  1  0
 22 23  2  0
 22 24  1  0
 24 21  1  0
  1 25  1  0
  5 26  1  0
  8 27  1  0
  8 28  1  0
  9 29  1  0
  9 30  1  0
 10 31  1  0
 10 32  1  0
 11 33  1  6
 12 34  1  0
 14 35  1  0
 16 36  1  0
 17 37  1  0
 18 38  1  0
 19 39  1  0
 21 40  1  0
 21 41  1  0
 22 42  1  0
 24 43  1  0
M  ISO  8  25  14  26  14  27  13  28  13  29  13  30  13  31  13  32  13
M  ISO  8  33  13  34   6  36  14  37  14  38  14  39  14  40   8  41   8
M  ISO  1  42   6
M  END
>  <minimizedAffinity>  (1) 
-5.76121283

>  <minimizedRMSD>  (1) 
0.891466975

$$$$
