
     RDKit          3D

 38 41  0  0  0  0  0  0  0  0999 V2000
   33.0180   28.2090   47.7830 C   0  0  0  0  0  0  0  0  0  0  0  0
   32.0050   27.4320   48.3370 C   0  0  0  0  0  0  0  0  0  0  0  0
   30.7920   27.8490   47.8050 C   0  0  0  0  0  0  0  0  0  0  0  0
   31.1080   28.8590   46.9490 N   0  0  0  0  0  0  0  0  0  0  0  0
   32.4160   29.0620   46.9440 N   0  0  0  0  0  0  0  0  0  0  0  0
   28.7200   29.2920   46.3390 N   0  0  0  0  0  0  0  0  0  0  0  0
   30.0450   29.4900   46.2460 C   0  0  0  0  0  0  0  0  0  0  0  0
   30.2310   30.4620   45.3030 N   0  0  0  0  0  0  0  0  0  0  0  0
   29.0480   30.8510   44.8280 C   0  0  0  0  0  0  0  0  0  0  0  0
   28.7340   31.7920   43.8760 C   0  0  0  0  0  0  0  0  0  0  0  0
   27.4450   32.0030   43.5680 N   0  0  0  0  0  0  0  0  0  0  0  0
   26.4760   31.2870   44.1980 C   0  0  0  0  0  0  0  0  0  0  0  0
   26.7970   30.3630   45.1340 N   0  0  0  0  0  0  0  0  0  0  0  0
   28.0760   30.1270   45.4670 C   0  0  0  0  0  0  0  0  0  0  0  0
   34.4920   28.1030   48.0750 C   0  0  0  0  0  0  0  0  0  0  0  0
   34.6260   28.2990   49.5640 C   0  0  0  0  0  0  0  0  0  0  0  0
   37.2440   30.1640   51.3800 C   0  0  0  0  0  0  0  0  0  0  0  0
   38.0400   30.6610   50.3150 C   0  0  0  0  0  0  0  0  0  0  0  0
   37.6580   30.3440   48.9920 C   0  0  0  0  0  0  0  0  0  0  0  0
   36.5560   29.5850   48.8300 N   0  0  0  0  0  0  0  0  0  0  0  0
   35.8250   29.1300   49.8680 C   0  0  0  0  0  0  0  0  0  0  0  0
   36.1800   29.4260   51.0950 N   0  0  0  0  0  0  0  0  0  0  0  0
   38.9500   32.1680   47.7870 C   0  0  0  0  0  0  0  0  0  0  0  0
   38.8430   33.1790   48.5290 O   0  0  0  0  0  0  0  0  0  0  0  0
   38.4450   30.8350   47.9160 N   0  0  0  0  0  0  0  0  0  0  0  0
   32.1419   26.6247   49.0715 H   0  0  0  0  0  0  0  0  0  0  0  0
   29.7916   27.4493   48.0274 H   0  0  0  0  0  0  0  0  0  0  0  0
   28.2608   28.6177   46.9678 H   0  0  0  0  0  0  0  0  0  0  0  0
   29.5282   32.3639   43.3739 H   0  0  0  0  0  0  0  0  0  0  0  0
   25.4197   31.4603   43.9445 H   0  0  0  0  0  0  0  0  0  0  0  0
   34.8710   27.1127   47.7825 H   0  0  0  0  0  0  0  0  0  0  0  0
   35.0728   28.8489   47.5126 H   0  0  0  0  0  0  0  0  0  0  0  0
   33.7270   28.8047   49.9462 H   0  0  0  0  0  0  0  0  0  0  0  0
   34.7383   27.3169   50.0466 H   0  0  0  0  0  0  0  0  0  0  0  0
   37.5056   30.3875   52.4248 H   0  0  0  0  0  0  0  0  0  0  0  0
   38.9299   31.2761   50.5141 H   0  0  0  0  0  0  0  0  0  0  0  0
   39.5384   32.3401   46.8737 H   0  0  0  0  0  0  0  0  0  0  0  0
   38.6726   30.1723   47.1610 H   0  0  0  0  0  0  0  0  0  0  0  0
  1 15  1  0
  1  2  1  0
  3  2  2  0
  4  3  1  0
  5  4  1  0
  5  1  2  0
  7  6  1  0
  7  4  1  0
  8  7  2  0
  9  8  1  0
  9 14  2  0
 10  9  1  0
 11 10  2  0
 11 12  1  0
 12 13  2  0
 13 14  1  0
 14  6  1  0
 15 16  1  0
 16 21  1  0
 18 17  2  0
 19 18  1  0
 20 19  2  0
 20 21  1  0
 21 22  2  0
 22 17  1  0
 23 25  1  0
 23 24  2  0
 25 19  1  0
  2 26  1  0
  3 27  1  0
  6 28  1  0
 10 29  1  0
 12 30  1  0
 15 31  1  0
 15 32  1  0
 16 33  1  0
 16 34  1  0
 17 35  1  0
 18 36  1  0
 23 37  1  0
 25 38  1  0
M  ISO  8  26  14  27  14  28   9  29  14  30  14  31   8  32   8  33   8
M  ISO  4  34   8  35  14  36  14  37   6
M  END
>  <minimizedAffinity>  (1) 
-6.66156483

>  <minimizedRMSD>  (1) 
0.0472528636

$$$$
