
     RDKit          3D

 31 32  0  0  1  0  0  0  0  0999 V2000
   39.5480   32.9000   46.1340 N   0  0  0  0  0  0  0  0  0  0  0  0
   38.2300   32.4480   45.7790 C   0  0  1  0  0  0  0  0  0  0  0  0
   38.0560   32.4570   44.2950 C   0  0  0  0  0  0  0  0  0  0  0  0
   39.0640   31.5520   43.7350 N   0  0  0  0  0  0  0  0  0  0  0  0
   40.3470   32.2530   43.9340 C   0  0  0  0  0  0  0  0  0  0  0  0
   40.5920   32.2150   45.4340 C   0  0  2  0  0  0  0  0  0  0  0  0
   40.7520   30.8520   45.8540 N   0  0  0  0  0  0  0  0  0  0  0  0
   37.9450   30.7140   46.3190 S   0  0  0  0  0  0  0  0  0  0  0  0
   37.7700   30.8640   50.3730 C   0  0  0  0  0  0  0  0  0  0  0  0
   38.2930   30.9080   49.0830 C   0  0  0  0  0  0  0  0  0  0  0  0
   37.4400   30.6930   48.0330 C   0  0  0  0  0  0  0  0  0  0  0  0
   36.1050   30.4430   48.2930 N   0  0  0  0  0  0  0  0  0  0  0  0
   35.6530   30.4100   49.5310 C   0  0  0  0  0  0  0  0  0  0  0  0
   36.4770   30.6200   50.5880 N   0  0  0  0  0  0  0  0  0  0  0  0
   33.7780   28.8270   49.6340 C   0  0  0  0  0  0  0  0  0  0  0  0
   34.5270   27.8530   49.2930 O   0  0  0  0  0  0  0  0  0  0  0  0
   34.2780   30.1500   49.7760 N   0  0  0  0  0  0  0  0  0  0  0  0
   39.6169   33.9053   45.9205 H   0  0  0  0  0  0  0  0  0  0  0  0
   37.5235   33.1301   46.2746 H   0  0  0  0  0  0  0  0  0  0  0  0
   37.0471   32.1066   44.0317 H   0  0  0  0  0  0  0  0  0  0  0  0
   38.1781   33.4739   43.8936 H   0  0  0  0  0  0  0  0  0  0  0  0
   38.8901   31.3898   42.7328 H   0  0  0  0  0  0  0  0  0  0  0  0
   41.1564   31.7363   43.3975 H   0  0  0  0  0  0  0  0  0  0  0  0
   40.3179   33.2825   43.5476 H   0  0  0  0  0  0  0  0  0  0  0  0
   41.5226   32.7480   45.6789 H   0  0  0  0  0  0  0  0  0  0  0  0
   40.7571   30.8082   46.8831 H   0  0  0  0  0  0  0  0  0  0  0  0
   39.9716   30.2868   45.4902 H   0  0  0  0  0  0  0  0  0  0  0  0
   38.4367   31.0339   51.2313 H   0  0  0  0  0  0  0  0  0  0  0  0
   39.3608   31.1097   48.9121 H   0  0  0  0  0  0  0  0  0  0  0  0
   32.7113   28.6374   49.8243 H   0  0  0  0  0  0  0  0  0  0  0  0
   33.6475   30.9153   50.0547 H   0  0  0  0  0  0  0  0  0  0  0  0
  2  1  1  0
  2  8  1  0
  3  2  1  0
  4  5  1  0
  4  3  1  0
  5  6  1  0
  6  7  1  0
  6  1  1  0
  8 11  1  0
  9 14  2  0
 10  9  1  0
 11 12  1  0
 11 10  2  0
 12 13  2  0
 13 17  1  0
 13 14  1  0
 15 17  1  0
 16 15  2  0
  1 18  1  0
  2 19  1  1
  3 20  1  0
  3 21  1  0
  4 22  1  0
  5 23  1  0
  5 24  1  0
  6 25  1  6
  7 26  1  0
  7 27  1  0
  9 28  1  0
 10 29  1  0
 15 30  1  0
 17 31  1  0
M  ISO  8  18   5  19  13  20  13  21  13  22   5  23  13  24  13  25  13
M  ISO  5  26   5  27   5  28  14  29  14  30   6
M  END
>  <minimizedAffinity>  (1) 
-5.80085039

>  <minimizedRMSD>  (1) 
1.0343349

$$$$
