
     RDKit          3D

 29 30  0  0  0  0  0  0  0  0999 V2000
   38.8750   32.3670   47.5410 C   0  0  0  0  0  0  0  0  0  0  0  0
   38.4110   31.0920   47.3690 C   0  0  0  0  0  0  0  0  0  0  0  0
   38.8500   30.4060   46.2550 C   0  0  0  0  0  0  0  0  0  0  0  0
   39.6960   30.9450   45.3630 C   0  0  0  0  0  0  0  0  0  0  0  0
   40.1850   32.2350   45.5060 C   0  0  0  0  0  0  0  0  0  0  0  0
   39.7540   32.9250   46.6130 C   0  0  0  0  0  0  0  0  0  0  0  0
   37.2320   29.5520   50.5500 C   0  0  0  0  0  0  0  0  0  0  0  0
   38.0440   30.1060   49.5380 C   0  0  0  0  0  0  0  0  0  0  0  0
   37.5020   30.5420   48.3440 C   0  0  0  0  0  0  0  0  0  0  0  0
   36.1600   30.3790   48.2700 N   0  0  0  0  0  0  0  0  0  0  0  0
   35.3740   29.8600   49.2100 C   0  0  0  0  0  0  0  0  0  0  0  0
   35.9190   29.4420   50.3650 N   0  0  0  0  0  0  0  0  0  0  0  0
   33.4390   28.4640   48.6790 C   0  0  0  0  0  0  0  0  0  0  0  0
   34.1410   27.4260   48.6210 O   0  0  0  0  0  0  0  0  0  0  0  0
   33.9720   29.7600   48.9730 N   0  0  0  0  0  0  0  0  0  0  0  0
   39.3700   34.2850   48.8820 N   0  0  0  0  0  0  0  0  0  0  0  0
   38.5760   33.2740   48.6050 C   0  0  0  0  0  0  0  0  0  0  0  0
   37.6460   33.5580   49.6160 N   0  0  0  0  0  0  0  0  0  0  0  0
   39.1440   34.9290   49.6740 H   0  0  0  0  0  0  0  0  0  0  0  0
   38.4931   29.3784   46.0918 H   0  0  0  0  0  0  0  0  0  0  0  0
   40.0101   30.3471   44.4947 H   0  0  0  0  0  0  0  0  0  0  0  0
   40.8773   32.6795   44.7759 H   0  0  0  0  0  0  0  0  0  0  0  0
   40.1142   33.9520   46.7728 H   0  0  0  0  0  0  0  0  0  0  0  0
   37.6847   29.2108   51.4927 H   0  0  0  0  0  0  0  0  0  0  0  0
   39.1282   30.1924   49.7024 H   0  0  0  0  0  0  0  0  0  0  0  0
   32.3583   28.3739   48.4945 H   0  0  0  0  0  0  0  0  0  0  0  0
   33.3640   30.5905   49.0119 H   0  0  0  0  0  0  0  0  0  0  0  0
   37.7893   34.3690   50.2346 H   0  0  0  0  0  0  0  0  0  0  0  0
   36.8198   32.9555   49.7398 H   0  0  0  0  0  0  0  0  0  0  0  0
  1 17  1  0
  2  1  2  0
  2  9  1  0
  3  2  1  0
  4  5  1  0
  4  3  2  0
  5  6  2  0
  6  1  1  0
  8  7  2  0
  9  8  1  0
 10  9  2  0
 10 11  1  0
 11 12  2  0
 12  7  1  0
 13 15  1  0
 14 13  2  0
 15 11  1  0
 16 19  1  0
 17 16  2  0
 17 18  1  0
  3 20  1  0
  4 21  1  0
  5 22  1  0
  6 23  1  0
  7 24  1  0
  8 25  1  0
 13 26  1  0
 15 27  1  0
 18 28  1  0
 18 29  1  0
M  ISO  7  20  14  21  14  22  14  23  14  24  14  25  14  26   6
M  END
>  <minimizedAffinity>  (1) 
-6.44270086

>  <minimizedRMSD>  (1) 
0.57613802

$$$$
