
     RDKit          3D

 40 42  0  0  1  0  0  0  0  0999 V2000
   35.2440   30.2940   50.0600 C   0  0  2  0  0  0  0  0  0  0  0  0
   36.1570   31.3070   49.4740 C   0  0  0  0  0  0  0  0  0  0  0  0
   37.6300   30.8700   49.5290 C   0  0  2  0  0  0  0  0  0  0  0  0
   38.1090   30.5230   50.8630 C   0  0  0  0  0  0  0  0  0  0  0  0
   37.0830   29.7660   51.6990 C   0  0  0  0  0  0  0  0  0  0  0  0
   35.9620   29.2280   50.8540 C   0  0  0  0  0  0  0  0  0  0  0  0
   38.2410   30.7900   46.6420 Cl  0  0  0  0  0  0  0  0  0  0  0  0
   38.7420   32.1180   47.6770 C   0  0  0  0  0  0  0  0  0  0  0  0
   38.3680   32.0590   49.0060 C   0  0  0  0  0  0  0  0  0  0  0  0
   38.7890   33.1560   49.7310 C   0  0  0  0  0  0  0  0  0  0  0  0
   39.5080   34.1920   49.1710 C   0  0  0  0  0  0  0  0  0  0  0  0
   39.8430   34.1720   47.8220 C   0  0  0  0  0  0  0  0  0  0  0  0
   39.4400   33.0890   47.0520 C   0  0  0  0  0  0  0  0  0  0  0  0
   40.7030   32.2850   44.9190 C   0  0  0  0  0  0  0  0  0  0  0  0
   41.4210   31.4060   45.4400 O   0  0  0  0  0  0  0  0  0  0  0  0
   39.7820   33.0680   45.6710 N   0  0  0  0  0  0  0  0  0  0  0  0
   34.4220   29.6110   49.0490 C   0  0  0  0  0  0  0  0  0  0  0  0
   34.4230   30.2010   47.7850 C   0  0  0  0  0  0  0  0  0  0  0  0
   33.6660   29.5830   46.7810 C   0  0  0  0  0  0  0  0  0  0  0  0
   32.9560   28.4260   47.0880 N   0  0  0  0  0  0  0  0  0  0  0  0
   32.9840   27.8930   48.3270 C   0  0  0  0  0  0  0  0  0  0  0  0
   33.7140   28.5000   49.2650 N   0  0  0  0  0  0  0  0  0  0  0  0
   34.6020   30.8826   50.7319 H   0  0  0  0  0  0  0  0  0  0  0  0
   36.0465   32.2477   50.0333 H   0  0  0  0  0  0  0  0  0  0  0  0
   35.8837   31.4326   48.4159 H   0  0  0  0  0  0  0  0  0  0  0  0
   37.7789   29.9467   48.9499 H   0  0  0  0  0  0  0  0  0  0  0  0
   39.0055   29.8942   50.7585 H   0  0  0  0  0  0  0  0  0  0  0  0
   38.3207   31.4668   51.3868 H   0  0  0  0  0  0  0  0  0  0  0  0
   37.5839   28.9261   52.2027 H   0  0  0  0  0  0  0  0  0  0  0  0
   36.6540   30.4666   52.4305 H   0  0  0  0  0  0  0  0  0  0  0  0
   35.2334   28.7349   51.5143 H   0  0  0  0  0  0  0  0  0  0  0  0
   36.4073   28.5291   50.1307 H   0  0  0  0  0  0  0  0  0  0  0  0
   38.5405   33.2062   50.8014 H   0  0  0  0  0  0  0  0  0  0  0  0
   39.8188   35.0411   49.7974 H   0  0  0  0  0  0  0  0  0  0  0  0
   40.4156   34.9973   47.3736 H   0  0  0  0  0  0  0  0  0  0  0  0
   40.7854   32.4612   43.8363 H   0  0  0  0  0  0  0  0  0  0  0  0
   39.2616   33.7531   45.1047 H   0  0  0  0  0  0  0  0  0  0  0  0
   34.9969   31.1176   47.5839 H   0  0  0  0  0  0  0  0  0  0  0  0
   33.6333   30.0056   45.7660 H   0  0  0  0  0  0  0  0  0  0  0  0
   32.4180   26.9788   48.5589 H   0  0  0  0  0  0  0  0  0  0  0  0
  1  6  1  0
  2  3  1  0
  2  1  1  0
  3  4  1  0
  4  5  1  0
  6  5  1  0
  7  8  1  0
  8  9  2  0
  9  3  1  0
  9 10  1  0
 11 10  2  0
 12 11  1  0
 13  8  1  0
 13 12  2  0
 14 15  2  0
 14 16  1  0
 16 13  1  0
 17 22  1  0
 17  1  1  0
 18 17  2  0
 19 20  2  0
 19 18  1  0
 20 21  1  0
 21 22  2  0
  1 23  1  1
  2 24  1  0
  2 25  1  0
  3 26  1  6
  4 27  1  0
  4 28  1  0
  5 29  1  0
  5 30  1  0
  6 31  1  0
  6 32  1  0
 10 33  1  0
 11 34  1  0
 12 35  1  0
 14 36  1  0
 16 37  1  0
 18 38  1  0
 19 39  1  0
 21 40  1  0
M  ISO  8  23  13  24  13  25  13  26  13  27  13  28  13  29  13  30  13
M  ISO  8  31  13  32  13  33  14  34  14  35  14  36   6  38  14  39  14
M  ISO  1  40  14
M  END
>  <minimizedAffinity>  (1) 
-7.70918131

>  <minimizedRMSD>  (1) 
0.388878733

$$$$
