
     RDKit          3D

 35 36  0  0  1  0  0  0  0  0999 V2000
   37.0680   30.9540   49.0480 C   0  0  0  0  0  0  0  0  0  0  0  0
   36.8130   31.9050   50.0490 C   0  0  0  0  0  0  0  0  0  0  0  0
   37.4320   33.1390   50.0600 C   0  0  0  0  0  0  0  0  0  0  0  0
   38.3440   33.4760   49.0540 C   0  0  0  0  0  0  0  0  0  0  0  0
   38.5810   32.5400   48.0880 C   0  0  0  0  0  0  0  0  0  0  0  0
   37.9500   31.3110   48.0950 C   0  0  0  0  0  0  0  0  0  0  0  0
   36.3770   29.6860   49.1110 C   0  0  0  0  0  0  0  0  0  0  0  0
   36.9180   28.8340   49.9210 O   0  0  0  0  0  0  0  0  0  0  0  0
   33.6140   30.1530   46.8230 C   0  0  0  0  0  0  0  0  0  0  0  0
   32.9420   28.9390   46.8380 C   0  0  0  0  0  0  0  0  0  0  0  0
   33.4460   27.9290   47.6540 C   0  0  0  0  0  0  0  0  0  0  0  0
   34.5640   28.1710   48.3930 N   0  0  0  0  0  0  0  0  0  0  0  0
   35.1790   29.3440   48.3530 C   0  0  0  0  0  0  0  0  0  0  0  0
   34.6950   30.3330   47.5630 N   0  0  0  0  0  0  0  0  0  0  0  0
   38.3220   30.4470   46.9920 C   0  0  0  0  0  0  0  0  0  0  0  0
   38.8900   30.7930   45.8570 C   0  0  0  0  0  0  0  0  0  0  0  0
   39.3330   30.0560   44.6840 C   0  0  0  0  0  0  0  0  0  0  0  0
   38.4380   28.5260   43.1290 C   0  0  0  0  0  0  0  0  0  0  0  0
   39.2700   27.5820   43.2200 O   0  0  0  0  0  0  0  0  0  0  0  0
   38.2770   29.8080   43.7360 N   0  0  0  0  0  0  0  0  0  0  0  0
   36.0985   31.6595   50.8485 H   0  0  0  0  0  0  0  0  0  0  0  0
   37.2077   33.8586   50.8612 H   0  0  0  0  0  0  0  0  0  0  0  0
   38.8487   34.4533   49.0416 H   0  0  0  0  0  0  0  0  0  0  0  0
   39.2937   32.7710   47.2825 H   0  0  0  0  0  0  0  0  0  0  0  0
   37.0031   29.3041   48.2911 H   0  0  0  0  0  0  0  0  0  0  0  0
   36.7428   29.1099   50.8555 H   0  0  0  0  0  0  0  0  0  0  0  0
   33.2441   30.9730   46.1899 H   0  0  0  0  0  0  0  0  0  0  0  0
   32.0418   28.7797   46.2262 H   0  0  0  0  0  0  0  0  0  0  0  0
   32.9479   26.9494   47.7009 H   0  0  0  0  0  0  0  0  0  0  0  0
   38.1037   29.3764   47.1190 H   0  0  0  0  0  0  0  0  0  0  0  0
   39.0689   31.8755   45.7779 H   0  0  0  0  0  0  0  0  0  0  0  0
   40.1222   30.6367   44.1840 H   0  0  0  0  0  0  0  0  0  0  0  0
   39.6963   29.0775   45.0313 H   0  0  0  0  0  0  0  0  0  0  0  0
   37.6405   28.3075   42.4035 H   0  0  0  0  0  0  0  0  0  0  0  0
   37.5119   30.4646   43.5254 H   0  0  0  0  0  0  0  0  0  0  0  0
  1  7  1  0
  1  2  2  0
  2  3  1  0
  4  3  2  0
  5  6  2  0
  5  4  1  0
  6  1  1  0
  7  8  1  0
  9 10  2  0
  9 14  1  0
 10 11  1  0
 11 12  2  0
 13 12  1  0
 13  7  1  0
 14 13  2  0
 15  6  1  0
 16 15  2  0
 17 16  1  0
 18 19  2  0
 18 20  1  0
 20 17  1  0
  2 21  1  0
  3 22  1  0
  4 23  1  0
  5 24  1  0
  7 25  1  0
  8 26  1  0
  9 27  1  0
 10 28  1  0
 11 29  1  0
 15 30  1  0
 16 31  1  0
 17 32  1  0
 17 33  1  0
 18 34  1  0
 20 35  1  0
M  ISO  8  21  14  22  14  23  14  24  14  25   8  26   3  27  14  28  14
M  ISO  4  29  14  32   8  33   8  34   6
M  END
>  <minimizedAffinity>  (1) 
-5.42276144

>  <minimizedRMSD>  (1) 
0.807952762

$$$$
