
     RDKit          3D

 24 25  0  0  0  0  0  0  0  0999 V2000
   36.3050   29.6500   49.1710 C   0  0  0  0  0  0  0  0  0  0  0  0
   37.4550   30.2330   48.5990 C   0  0  0  0  0  0  0  0  0  0  0  0
   37.4390   30.6760   47.2930 C   0  0  0  0  0  0  0  0  0  0  0  0
   36.2860   30.5360   46.5780 N   0  0  0  0  0  0  0  0  0  0  0  0
   35.1870   29.9640   47.1710 C   0  0  0  0  0  0  0  0  0  0  0  0
   35.1890   29.5310   48.4300 N   0  0  0  0  0  0  0  0  0  0  0  0
   38.5860   31.2730   46.6570 C   0  0  0  0  0  0  0  0  0  0  0  0
   38.8780   32.5780   46.9370 C   0  0  0  0  0  0  0  0  0  0  0  0
   39.9840   33.1960   46.3330 C   0  0  0  0  0  0  0  0  0  0  0  0
   40.7560   32.4410   45.4550 C   0  0  0  0  0  0  0  0  0  0  0  0
   40.5060   31.1300   45.1410 C   0  0  0  0  0  0  0  0  0  0  0  0
   39.4020   30.6000   45.7760 C   0  0  0  0  0  0  0  0  0  0  0  0
   38.0410   30.4180   50.8300 C   0  0  0  0  0  0  0  0  0  0  0  0
   36.9720   30.5230   51.5150 O   0  0  0  0  0  0  0  0  0  0  0  0
   38.5340   30.2720   49.4830 N   0  0  0  0  0  0  0  0  0  0  0  0
   36.3208   29.2963   50.2125 H   0  0  0  0  0  0  0  0  0  0  0  0
   34.2652   29.8591   46.5800 H   0  0  0  0  0  0  0  0  0  0  0  0
   38.2458   33.1448   47.6363 H   0  0  0  0  0  0  0  0  0  0  0  0
   40.2332   34.2458   46.5472 H   0  0  0  0  0  0  0  0  0  0  0  0
   41.6223   32.9272   44.9827 H   0  0  0  0  0  0  0  0  0  0  0  0
   41.1307   30.5518   44.4442 H   0  0  0  0  0  0  0  0  0  0  0  0
   39.1526   29.5506   45.5601 H   0  0  0  0  0  0  0  0  0  0  0  0
   38.9006   30.4506   51.5156 H   0  0  0  0  0  0  0  0  0  0  0  0
   39.5265   30.2068   49.2153 H   0  0  0  0  0  0  0  0  0  0  0  0
  2  1  2  0
  2 15  1  0
  3  2  1  0
  4  5  1  0
  4  3  2  0
  5  6  2  0
  6  1  1  0
  7  8  2  0
  7  3  1  0
  9  8  1  0
 10  9  2  0
 11 10  1  0
 11 12  2  0
 12  7  1  0
 13 14  2  0
 15 13  1  0
  1 16  1  0
  5 17  1  0
  8 18  1  0
  9 19  1  0
 10 20  1  0
 11 21  1  0
 12 22  1  0
 13 23  1  0
 15 24  1  0
M  ISO  8  16  14  17  14  18  14  19  14  20  14  21  14  22  14  23   6
M  END
>  <minimizedAffinity>  (1) 
-5.34138107

>  <minimizedRMSD>  (1) 
2.06952691

$$$$
