
     RDKit          3D

 42 45  0  0  0  0  0  0  0  0999 V2000
   38.0900   31.3340   47.8050 C   0  0  0  0  0  0  0  0  0  0  0  0
   37.0980   31.3310   48.7680 C   0  0  0  0  0  0  0  0  0  0  0  0
   37.1340   32.4350   49.6220 C   0  0  0  0  0  0  0  0  0  0  0  0
   38.0990   33.4440   49.4970 C   0  0  0  0  0  0  0  0  0  0  0  0
   39.0670   33.3440   48.4740 C   0  0  0  0  0  0  0  0  0  0  0  0
   39.0510   32.2580   47.6130 C   0  0  0  0  0  0  0  0  0  0  0  0
   34.9890   30.3060   48.0840 C   0  0  0  0  0  0  0  0  0  0  0  0
   36.1160   30.3090   48.9010 C   0  0  0  0  0  0  0  0  0  0  0  0
   36.2340   29.2750   49.8430 C   0  0  0  0  0  0  0  0  0  0  0  0
   35.2560   28.3350   49.9110 N   0  0  0  0  0  0  0  0  0  0  0  0
   34.1800   28.3800   49.0900 C   0  0  0  0  0  0  0  0  0  0  0  0
   34.0500   29.3570   48.1870 N   0  0  0  0  0  0  0  0  0  0  0  0
   37.4160   29.2220   50.7480 C   0  0  0  0  0  0  0  0  0  0  0  0
   38.1370   30.2570   46.8920 O   0  0  0  0  0  0  0  0  0  0  0  0
   40.0210   32.2240   46.6410 O   0  0  0  0  0  0  0  0  0  0  0  0
   40.5130   31.1170   44.4680 C   0  0  0  0  0  0  0  0  0  0  0  0
   39.8390   31.9850   45.3100 C   0  0  0  0  0  0  0  0  0  0  0  0
   38.8170   32.7510   44.7770 C   0  0  0  0  0  0  0  0  0  0  0  0
   38.4580   32.6660   43.4210 C   0  0  0  0  0  0  0  0  0  0  0  0
   37.5380   33.2630   42.6370 N   0  0  0  0  0  0  0  0  0  0  0  0
   37.6370   32.7900   41.3810 C   0  0  0  0  0  0  0  0  0  0  0  0
   38.6370   31.8820   41.3810 N   0  0  0  0  0  0  0  0  0  0  0  0
   39.1570   31.7890   42.6260 C   0  0  0  0  0  0  0  0  0  0  0  0
   40.1690   31.0240   43.1400 C   0  0  0  0  0  0  0  0  0  0  0  0
   40.3090   28.7980   42.3800 C   0  0  0  0  0  0  0  0  0  0  0  0
   39.2740   28.7090   43.1250 O   0  0  0  0  0  0  0  0  0  0  0  0
   40.9000   30.1130   42.3280 N   0  0  0  0  0  0  0  0  0  0  0  0
   36.3803   32.5156   50.4191 H   0  0  0  0  0  0  0  0  0  0  0  0
   38.1021   34.3014   50.1861 H   0  0  0  0  0  0  0  0  0  0  0  0
   39.8321   34.1262   48.3606 H   0  0  0  0  0  0  0  0  0  0  0  0
   34.8668   31.1027   47.3355 H   0  0  0  0  0  0  0  0  0  0  0  0
   33.4043   27.6039   49.1671 H   0  0  0  0  0  0  0  0  0  0  0  0
   37.0775   29.2372   51.7945 H   0  0  0  0  0  0  0  0  0  0  0  0
   37.9814   28.2976   50.5589 H   0  0  0  0  0  0  0  0  0  0  0  0
   38.0619   30.0921   50.5589 H   0  0  0  0  0  0  0  0  0  0  0  0
   38.8361   30.2320   46.1915 H   0  0  0  0  0  0  0  0  0  0  0  0
   41.3303   30.4967   44.8646 H   0  0  0  0  0  0  0  0  0  0  0  0
   38.2709   33.4452   45.4326 H   0  0  0  0  0  0  0  0  0  0  0  0
   36.8618   33.9734   42.9516 H   0  0  0  0  0  0  0  0  0  0  0  0
   37.0212   33.0862   40.5190 H   0  0  0  0  0  0  0  0  0  0  0  0
   40.7162   27.9410   41.8234 H   0  0  0  0  0  0  0  0  0  0  0  0
   41.7360   30.3584   41.7787 H   0  0  0  0  0  0  0  0  0  0  0  0
  1  2  2  0
  2  8  1  0
  2  3  1  0
  4  3  2  0
  5  4  1  0
  6  1  1  0
  6  5  2  0
  7 12  2  0
  7  8  1  0
  8  9  2  0
  9 10  1  0
  9 13  1  0
 11 10  2  0
 12 11  1  0
 14  1  1  0
 15  6  1  0
 16 17  2  0
 17 15  1  0
 18 17  1  0
 19 18  2  0
 20 19  1  0
 21 22  2  0
 21 20  1  0
 22 23  1  0
 23 24  2  0
 23 19  1  0
 24 16  1  0
 25 26  2  0
 27 25  1  0
 27 24  1  0
  3 28  1  0
  4 29  1  0
  5 30  1  0
  7 31  1  0
 11 32  1  0
 13 33  1  0
 13 34  1  0
 13 35  1  0
 14 36  1  0
 16 37  1  0
 18 38  1  0
 20 39  1  0
 21 40  1  0
 25 41  1  0
 27 42  1  0
M  ISO  8  28  14  29  14  30  14  31  14  32  14  33   8  34   8  35   8
M  ISO  6  36   3  37  14  38  14  39   9  40  14  41   6
M  END
>  <minimizedAffinity>  (1) 
-7.25853491

>  <minimizedRMSD>  (1) 
0.322679192

$$$$
