
     RDKit          3D

 41 45  0  0  1  0  0  0  0  0999 V2000
   31.9110   27.9380   48.0060 C   0  0  1  0  0  0  0  0  0  0  0  0
   32.7680   26.7450   47.4340 C   0  0  0  0  0  0  0  0  0  0  0  0
   32.6380   28.0700   46.7440 C   0  0  2  0  0  0  0  0  0  0  0  0
   28.3370   28.2480   48.3000 C   0  0  0  0  0  0  0  0  0  0  0  0
   28.4430   26.9470   47.8110 C   0  0  0  0  0  0  0  0  0  0  0  0
   29.8130   26.6560   47.6350 C   0  0  0  0  0  0  0  0  0  0  0  0
   30.4740   27.7570   48.0110 N   0  0  0  0  0  0  0  0  0  0  0  0
   29.5860   28.6500   48.3870 N   0  0  0  0  0  0  0  0  0  0  0  0
   25.9410   28.1410   49.0370 C   0  0  0  0  0  0  0  0  0  0  0  0
   27.0870   28.8770   48.5960 C   0  0  0  0  0  0  0  0  0  0  0  0
   26.9420   30.2410   48.4630 C   0  0  0  0  0  0  0  0  0  0  0  0
   25.7360   30.8090   48.7530 N   0  0  0  0  0  0  0  0  0  0  0  0
   24.6860   30.0870   49.1640 C   0  0  0  0  0  0  0  0  0  0  0  0
   24.7740   28.7260   49.3140 N   0  0  0  0  0  0  0  0  0  0  0  0
   33.8370   28.9680   46.6650 C   0  0  0  0  0  0  0  0  0  0  0  0
   34.2990   29.5920   45.5200 C   0  0  0  0  0  0  0  0  0  0  0  0
   35.3900   30.3290   45.8600 N   0  0  0  0  0  0  0  0  0  0  0  0
   35.6200   30.1810   47.1890 C   0  0  0  0  0  0  0  0  0  0  0  0
   34.6710   29.3500   47.6710 N   0  0  0  0  0  0  0  0  0  0  0  0
   36.7060   30.8100   47.9920 C   0  0  0  0  0  0  0  0  0  0  0  0
   36.9650   30.4290   49.3100 C   0  0  0  0  0  0  0  0  0  0  0  0
   38.3620   31.5000   49.8050 S   0  0  0  0  0  0  0  0  0  0  0  0
   38.3640   32.3140   48.0850 C   0  0  0  0  0  0  0  0  0  0  0  0
   37.5140   31.7650   47.5670 N   0  0  0  0  0  0  0  0  0  0  0  0
   39.9780   32.9300   46.4540 C   0  0  0  0  0  0  0  0  0  0  0  0
   39.8500   31.7580   45.9770 O   0  0  0  0  0  0  0  0  0  0  0  0
   39.2370   33.3630   47.5900 N   0  0  0  0  0  0  0  0  0  0  0  0
   31.8743   28.5355   48.9288 H   0  0  0  0  0  0  0  0  0  0  0  0
   33.7141   26.4557   47.9148 H   0  0  0  0  0  0  0  0  0  0  0  0
   32.5921   25.6908   47.1739 H   0  0  0  0  0  0  0  0  0  0  0  0
   32.3282   28.3690   45.7318 H   0  0  0  0  0  0  0  0  0  0  0  0
   27.6054   26.2661   47.5993 H   0  0  0  0  0  0  0  0  0  0  0  0
   30.2483   25.7162   47.2645 H   0  0  0  0  0  0  0  0  0  0  0  0
   26.0257   27.0503   49.1521 H   0  0  0  0  0  0  0  0  0  0  0  0
   27.7858   30.8622   48.1281 H   0  0  0  0  0  0  0  0  0  0  0  0
   23.7354   30.5943   49.3855 H   0  0  0  0  0  0  0  0  0  0  0  0
   33.8619   29.5071   44.5142 H   0  0  0  0  0  0  0  0  0  0  0  0
   35.9497   30.9048   45.2149 H   0  0  0  0  0  0  0  0  0  0  0  0
   36.4497   29.6642   49.9097 H   0  0  0  0  0  0  0  0  0  0  0  0
   40.6805   33.6283   45.9757 H   0  0  0  0  0  0  0  0  0  0  0  0
   39.3109   34.3016   48.0077 H   0  0  0  0  0  0  0  0  0  0  0  0
  1  7  1  0
  2  1  1  0
  3  2  1  0
  3  1  1  0
  4  8  2  0
  4 10  1  0
  5  4  1  0
  6  5  2  0
  6  7  1  0
  7  8  1  0
  9 14  2  0
 10  9  1  0
 11 10  2  0
 11 12  1  0
 12 13  2  0
 13 14  1  0
 15  3  1  0
 15 19  1  0
 16 17  1  0
 16 15  2  0
 17 18  1  0
 18 19  2  0
 18 20  1  0
 20 21  2  0
 21 22  1  0
 23 22  1  0
 24 20  1  0
 24 23  2  0
 25 27  1  0
 26 25  2  0
 27 23  1  0
  1 28  1  1
  2 29  1  0
  2 30  1  0
  3 31  1  6
  5 32  1  0
  6 33  1  0
  9 34  1  0
 11 35  1  0
 13 36  1  0
 16 37  1  0
 17 38  1  0
 21 39  1  0
 25 40  1  0
 27 41  1  0
M  ISO  8  28  13  29  13  30  13  31  13  32  14  33  14  34  14  35  14
M  ISO  5  36  14  37  14  38   9  39  14  40   6
M  END
>  <minimizedAffinity>  (1) 
-6.66586781

>  <minimizedRMSD>  (1) 
0.891153991

$$$$
