
     RDKit          3D

 24 25  0  0  0  0  0  0  0  0999 V2000
   37.3720   29.8610   51.2610 C   0  0  0  0  0  0  0  0  0  0  0  0
   38.0830   30.7970   50.5070 C   0  0  0  0  0  0  0  0  0  0  0  0
   37.3980   31.4090   49.4430 C   0  0  0  0  0  0  0  0  0  0  0  0
   36.0980   31.0640   49.2070 N   0  0  0  0  0  0  0  0  0  0  0  0
   35.4630   30.1580   49.9640 C   0  0  0  0  0  0  0  0  0  0  0  0
   36.0920   29.5650   50.9790 N   0  0  0  0  0  0  0  0  0  0  0  0
   38.1020   32.3920   48.6300 C   0  0  0  0  0  0  0  0  0  0  0  0
   38.2900   33.5800   48.9560 O   0  0  0  0  0  0  0  0  0  0  0  0
   38.6480   32.0490   47.3620 N   0  0  0  0  0  0  0  0  0  0  0  0
   38.1870   30.8040   46.7780 C   0  0  0  0  0  0  0  0  0  0  0  0
   39.1160   30.4450   45.6580 C   0  0  0  0  0  0  0  0  0  0  0  0
   40.2920   31.3720   45.8890 C   0  0  0  0  0  0  0  0  0  0  0  0
   39.5890   32.6100   46.4190 C   0  0  0  0  0  0  0  0  0  0  0  0
   37.8695   29.3562   52.1022 H   0  0  0  0  0  0  0  0  0  0  0  0
   39.1304   31.0439   50.7351 H   0  0  0  0  0  0  0  0  0  0  0  0
   34.4156   29.9020   49.7462 H   0  0  0  0  0  0  0  0  0  0  0  0
   38.1950   30.0095   47.5387 H   0  0  0  0  0  0  0  0  0  0  0  0
   37.1598   30.9164   46.4009 H   0  0  0  0  0  0  0  0  0  0  0  0
   38.6491   30.6330   44.6799 H   0  0  0  0  0  0  0  0  0  0  0  0
   39.3951   29.3810   45.6470 H   0  0  0  0  0  0  0  0  0  0  0  0
   40.9928   30.9581   46.6289 H   0  0  0  0  0  0  0  0  0  0  0  0
   40.9100   31.5498   44.9966 H   0  0  0  0  0  0  0  0  0  0  0  0
   40.2974   33.2876   46.9181 H   0  0  0  0  0  0  0  0  0  0  0  0
   39.1165   33.2186   45.6340 H   0  0  0  0  0  0  0  0  0  0  0  0
  2  1  2  0
  3  2  1  0
  4  3  2  0
  4  5  1  0
  5  6  2  0
  6  1  1  0
  7  8  2  0
  7  3  1  0
  9  7  1  0
 10  9  1  0
 11 12  1  0
 11 10  1  0
 12 13  1  0
 13  9  1  0
  1 14  1  0
  2 15  1  0
  5 16  1  0
 10 17  1  0
 10 18  1  0
 11 19  1  0
 11 20  1  0
 12 21  1  0
 12 22  1  0
 13 23  1  0
 13 24  1  0
M  ISO  8  14  14  15  14  16  14  17  13  18  13  19  13  20  13  21  13
M  ISO  3  22  13  23  13  24  13
M  END
>  <minimizedAffinity>  (1) 
-5.11866522

>  <minimizedRMSD>  (1) 
1.85688138

$$$$
