
     RDKit          3D

 24 25  0  0  0  0  0  0  0  0999 V2000
   37.9620   30.7650   49.7650 C   0  0  0  0  0  0  0  0  0  0  0  0
   36.8490   30.4420   48.9300 C   0  0  0  0  0  0  0  0  0  0  0  0
   35.7860   29.7420   49.5240 C   0  0  0  0  0  0  0  0  0  0  0  0
   35.8750   29.4170   50.8370 N   0  0  0  0  0  0  0  0  0  0  0  0
   36.9400   29.7420   51.5840 C   0  0  0  0  0  0  0  0  0  0  0  0
   37.9870   30.4080   51.0780 N   0  0  0  0  0  0  0  0  0  0  0  0
   36.8800   30.8530   47.5240 C   0  0  0  0  0  0  0  0  0  0  0  0
   35.9720   30.3670   46.8290 O   0  0  0  0  0  0  0  0  0  0  0  0
   37.8140   31.7110   46.9380 N   0  0  0  0  0  0  0  0  0  0  0  0
   37.9550   31.8030   45.4970 C   0  0  0  0  0  0  0  0  0  0  0  0
   39.4810   31.6980   45.3830 C   0  0  0  0  0  0  0  0  0  0  0  0
   39.8590   32.7770   46.3950 C   0  0  0  0  0  0  0  0  0  0  0  0
   38.7910   32.6390   47.4320 C   0  0  0  0  0  0  0  0  0  0  0  0
   38.8153   31.3128   49.3386 H   0  0  0  0  0  0  0  0  0  0  0  0
   34.8993   29.4632   48.9357 H   0  0  0  0  0  0  0  0  0  0  0  0
   36.9547   29.4529   52.6452 H   0  0  0  0  0  0  0  0  0  0  0  0
   37.4473   30.9744   44.9816 H   0  0  0  0  0  0  0  0  0  0  0  0
   37.5127   32.7006   45.0403 H   0  0  0  0  0  0  0  0  0  0  0  0
   39.8512   30.7051   45.6782 H   0  0  0  0  0  0  0  0  0  0  0  0
   39.8942   31.8262   44.3716 H   0  0  0  0  0  0  0  0  0  0  0  0
   40.8548   32.5889   46.8229 H   0  0  0  0  0  0  0  0  0  0  0  0
   39.9179   33.7851   45.9587 H   0  0  0  0  0  0  0  0  0  0  0  0
   38.3196   33.6158   47.6153 H   0  0  0  0  0  0  0  0  0  0  0  0
   39.2198   32.2767   48.3779 H   0  0  0  0  0  0  0  0  0  0  0  0
  1  6  2  0
  2  3  2  0
  2  1  1  0
  3  4  1  0
  4  5  2  0
  6  5  1  0
  7  2  1  0
  8  7  2  0
  9 13  1  0
  9  7  1  0
 10  9  1  0
 11 10  1  0
 11 12  1  0
 12 13  1  0
  1 14  1  0
  3 15  1  0
  5 16  1  0
 10 17  1  0
 10 18  1  0
 11 19  1  0
 11 20  1  0
 12 21  1  0
 12 22  1  0
 13 23  1  0
 13 24  1  0
M  ISO  8  14  14  15  14  16  14  17  13  18  13  19  13  20  13  21  13
M  ISO  3  22  13  23  13  24  13
M  END
>  <minimizedAffinity>  (1) 
-4.51374388

>  <minimizedRMSD>  (1) 
4.04196644

$$$$
