
     RDKit          3D

 46 50  0  0  0  0  0  0  0  0999 V2000
   34.4770   28.0710   48.0530 C   0  0  0  0  0  0  0  0  0  0  0  0
   33.0010   28.1900   47.7700 C   0  0  0  0  0  0  0  0  0  0  0  0
   31.9910   27.4350   48.3320 C   0  0  0  0  0  0  0  0  0  0  0  0
   30.7740   27.8560   47.8070 C   0  0  0  0  0  0  0  0  0  0  0  0
   31.0920   28.8520   46.9450 N   0  0  0  0  0  0  0  0  0  0  0  0
   32.3980   29.0350   46.9350 N   0  0  0  0  0  0  0  0  0  0  0  0
   28.7070   29.3130   46.3330 N   0  0  0  0  0  0  0  0  0  0  0  0
   30.0340   29.4920   46.2410 C   0  0  0  0  0  0  0  0  0  0  0  0
   30.2240   30.4540   45.2960 N   0  0  0  0  0  0  0  0  0  0  0  0
   29.0420   30.8620   44.8150 C   0  0  0  0  0  0  0  0  0  0  0  0
   28.7310   31.8080   43.8550 C   0  0  0  0  0  0  0  0  0  0  0  0
   27.4450   32.0260   43.5550 N   0  0  0  0  0  0  0  0  0  0  0  0
   26.4740   31.3150   44.1990 C   0  0  0  0  0  0  0  0  0  0  0  0
   26.7880   30.3940   45.1350 N   0  0  0  0  0  0  0  0  0  0  0  0
   28.0700   30.1440   45.4640 C   0  0  0  0  0  0  0  0  0  0  0  0
   34.6270   28.2830   49.5310 C   0  0  0  0  0  0  0  0  0  0  0  0
   37.3260   30.1410   51.2710 C   0  0  0  0  0  0  0  0  0  0  0  0
   37.9760   30.7830   50.2050 C   0  0  0  0  0  0  0  0  0  0  0  0
   37.4730   30.5630   48.9090 C   0  0  0  0  0  0  0  0  0  0  0  0
   36.4040   29.7580   48.7540 N   0  0  0  0  0  0  0  0  0  0  0  0
   35.8040   29.1550   49.8170 C   0  0  0  0  0  0  0  0  0  0  0  0
   36.2710   29.3570   51.0290 N   0  0  0  0  0  0  0  0  0  0  0  0
   38.0840   31.1790   47.8070 N   0  0  0  0  0  0  0  0  0  0  0  0
   38.4150   30.5560   46.5410 C   0  0  0  0  0  0  0  0  0  0  0  0
   39.6460   31.2930   46.0500 C   0  0  0  0  0  0  0  0  0  0  0  0
   39.6780   32.5990   46.7830 C   0  0  0  0  0  0  0  0  0  0  0  0
   38.4990   32.5540   47.7270 C   0  0  0  0  0  0  0  0  0  0  0  0
   35.0369   28.8375   47.4971 H   0  0  0  0  0  0  0  0  0  0  0  0
   34.8719   27.0927   47.7417 H   0  0  0  0  0  0  0  0  0  0  0  0
   32.1265   26.6330   49.0726 H   0  0  0  0  0  0  0  0  0  0  0  0
   29.7724   27.4658   48.0404 H   0  0  0  0  0  0  0  0  0  0  0  0
   28.2412   28.6471   46.9659 H   0  0  0  0  0  0  0  0  0  0  0  0
   29.5272   32.3716   43.3467 H   0  0  0  0  0  0  0  0  0  0  0  0
   25.4176   31.4955   43.9512 H   0  0  0  0  0  0  0  0  0  0  0  0
   33.7176   28.7626   49.9221 H   0  0  0  0  0  0  0  0  0  0  0  0
   34.7802   27.3079   50.0166 H   0  0  0  0  0  0  0  0  0  0  0  0
   37.6837   30.2827   52.3015 H   0  0  0  0  0  0  0  0  0  0  0  0
   38.8461   31.4338   50.3763 H   0  0  0  0  0  0  0  0  0  0  0  0
   38.6348   29.4874   46.6819 H   0  0  0  0  0  0  0  0  0  0  0  0
   37.5844   30.6149   45.8222 H   0  0  0  0  0  0  0  0  0  0  0  0
   40.5521   30.7100   46.2718 H   0  0  0  0  0  0  0  0  0  0  0  0
   39.6103   31.4476   44.9615 H   0  0  0  0  0  0  0  0  0  0  0  0
   40.6180   32.7028   47.3449 H   0  0  0  0  0  0  0  0  0  0  0  0
   39.6218   33.4566   46.0965 H   0  0  0  0  0  0  0  0  0  0  0  0
   38.7958   32.9186   48.7215 H   0  0  0  0  0  0  0  0  0  0  0  0
   37.6798   33.1936   47.3667 H   0  0  0  0  0  0  0  0  0  0  0  0
  1 16  1  0
  2  1  1  0
  2  3  1  0
  4  3  2  0
  5  4  1  0
  6  5  1  0
  6  2  2  0
  8  7  1  0
  8  5  1  0
  9  8  2  0
 10  9  1  0
 10 15  2  0
 11 10  1  0
 12 11  2  0
 12 13  1  0
 13 14  2  0
 14 15  1  0
 15  7  1  0
 16 21  1  0
 18 17  2  0
 19 18  1  0
 20 19  2  0
 20 21  1  0
 21 22  2  0
 22 17  1  0
 23 19  1  0
 24 23  1  0
 25 24  1  0
 25 26  1  0
 26 27  1  0
 27 23  1  0
  1 28  1  0
  1 29  1  0
  3 30  1  0
  4 31  1  0
  7 32  1  0
 11 33  1  0
 13 34  1  0
 16 35  1  0
 16 36  1  0
 17 37  1  0
 18 38  1  0
 24 39  1  0
 24 40  1  0
 25 41  1  0
 25 42  1  0
 26 43  1  0
 26 44  1  0
 27 45  1  0
 27 46  1  0
M  ISO  8  28   8  29   8  30  14  31  14  32   9  33  14  34  14  35   8
M  ISO  8  36   8  37  14  38  14  39  13  40  13  41  13  42  13  43  13
M  ISO  3  44  13  45  13  46  13
M  END
>  <minimizedAffinity>  (1) 
-6.90214109

>  <minimizedRMSD>  (1) 
0.291205555

$$$$
