
     RDKit          3D

 25 26  0  0  0  0  0  0  0  0999 V2000
   35.4810   29.2260   50.5120 C   0  0  0  0  0  0  0  0  0  0  0  0
   36.1780   30.1470   49.7100 C   0  0  0  0  0  0  0  0  0  0  0  0
   35.8900   30.1910   48.3480 C   0  0  0  0  0  0  0  0  0  0  0  0
   34.9360   29.3280   47.8620 N   0  0  0  0  0  0  0  0  0  0  0  0
   34.2940   28.4660   48.6540 C   0  0  0  0  0  0  0  0  0  0  0  0
   34.5550   28.4070   49.9640 N   0  0  0  0  0  0  0  0  0  0  0  0
   33.3220   27.6090   48.0680 N   0  0  0  0  0  0  0  0  0  0  0  0
   31.9160   27.6160   48.4800 C   0  0  0  0  0  0  0  0  0  0  0  0
   31.3150   26.3680   47.8640 C   0  0  0  0  0  0  0  0  0  0  0  0
   32.5450   25.5310   47.5390 C   0  0  0  0  0  0  0  0  0  0  0  0
   33.4850   26.6200   47.0190 C   0  0  0  0  0  0  0  0  0  0  0  0
   37.1920   31.0300   50.3610 C   0  0  0  0  0  0  0  0  0  0  0  0
   38.3890   31.0270   49.6530 F   0  0  0  0  0  0  0  0  0  0  0  0
   36.7040   32.3260   50.3330 F   0  0  0  0  0  0  0  0  0  0  0  0
   37.4470   30.6830   51.6650 F   0  0  0  0  0  0  0  0  0  0  0  0
   35.6901   29.1715   51.5906 H   0  0  0  0  0  0  0  0  0  0  0  0
   36.4099   30.8947   47.6813 H   0  0  0  0  0  0  0  0  0  0  0  0
   31.8352   27.5822   49.5765 H   0  0  0  0  0  0  0  0  0  0  0  0
   31.3959   28.5279   48.1515 H   0  0  0  0  0  0  0  0  0  0  0  0
   30.6593   25.8490   48.5786 H   0  0  0  0  0  0  0  0  0  0  0  0
   30.6827   26.5741   46.9878 H   0  0  0  0  0  0  0  0  0  0  0  0
   32.9498   25.0372   48.4347 H   0  0  0  0  0  0  0  0  0  0  0  0
   32.3667   24.7024   46.8378 H   0  0  0  0  0  0  0  0  0  0  0  0
   34.5237   26.2648   46.9496 H   0  0  0  0  0  0  0  0  0  0  0  0
   33.2640   26.9789   46.0030 H   0  0  0  0  0  0  0  0  0  0  0  0
  2 12  1  0
  2  1  2  0
  3  2  1  0
  4  3  2  0
  4  5  1  0
  5  6  2  0
  6  1  1  0
  7  8  1  0
  7  5  1  0
  9  8  1  0
 10  9  1  0
 11 10  1  0
 11  7  1  0
 12 15  1  0
 13 12  1  0
 14 12  1  0
  1 16  1  0
  3 17  1  0
  8 18  1  0
  8 19  1  0
  9 20  1  0
  9 21  1  0
 10 22  1  0
 10 23  1  0
 11 24  1  0
 11 25  1  0
M  ISO  8  16  14  17  14  18  13  19  13  20  13  21  13  22  13  23  13
M  ISO  2  24  13  25  13
M  END
>  <minimizedAffinity>  (1) 
-5.08275223

>  <minimizedRMSD>  (1) 
0.70741272

$$$$
