
     RDKit          3D

 41 43  0  0  0  0  0  0  0  0999 V2000
   35.2750   29.8850   45.4110 C   0  0  0  0  0  0  0  0  0  0  0  0
   35.1020   29.7320   46.7490 C   0  0  0  0  0  0  0  0  0  0  0  0
   33.9480   29.1250   47.2340 C   0  0  0  0  0  0  0  0  0  0  0  0
   32.9480   28.6650   46.3960 C   0  0  0  0  0  0  0  0  0  0  0  0
   33.0870   28.8070   45.0480 C   0  0  0  0  0  0  0  0  0  0  0  0
   34.2360   29.4060   44.6000 C   0  0  0  0  0  0  0  0  0  0  0  0
   37.7540   31.7980   48.2370 C   0  0  0  0  0  0  0  0  0  0  0  0
   36.8020   31.3060   47.3560 C   0  0  0  0  0  0  0  0  0  0  0  0
   36.0620   30.2130   47.6850 C   0  0  0  0  0  0  0  0  0  0  0  0
   36.2990   29.6440   48.9000 N   0  0  0  0  0  0  0  0  0  0  0  0
   37.2130   30.1190   49.7540 C   0  0  0  0  0  0  0  0  0  0  0  0
   37.9340   31.1890   49.4150 N   0  0  0  0  0  0  0  0  0  0  0  0
   37.3160   29.4410   51.0740 C   0  0  0  0  0  0  0  0  0  0  0  0
   37.7630   30.2970   52.0630 F   0  0  0  0  0  0  0  0  0  0  0  0
   35.9800   29.1200   51.5320 F   0  0  0  0  0  0  0  0  0  0  0  0
   37.9380   28.2840   51.1120 F   0  0  0  0  0  0  0  0  0  0  0  0
   36.6730   30.5800   44.6920 S   0  0  0  0  0  0  0  0  0  0  0  0
   36.3190   31.7840   43.8920 O   0  0  0  0  0  0  0  0  0  0  0  0
   36.8140   29.6280   43.5240 O   0  0  0  0  0  0  0  0  0  0  0  0
   38.2910   30.2730   45.0310 C   0  0  0  0  0  0  0  0  0  0  0  0
   39.3010   31.1650   44.6340 N   0  0  0  0  0  0  0  0  0  0  0  0
   40.3530   31.0470   45.6600 C   0  0  0  0  0  0  0  0  0  0  0  0
   41.1980   32.2530   45.4920 C   0  0  0  0  0  0  0  0  0  0  0  0
   40.3070   33.2410   44.7980 C   0  0  0  0  0  0  0  0  0  0  0  0
   38.9410   32.5650   44.7610 C   0  0  0  0  0  0  0  0  0  0  0  0
   33.8265   29.0068   48.3209 H   0  0  0  0  0  0  0  0  0  0  0  0
   32.0488   28.1889   46.8141 H   0  0  0  0  0  0  0  0  0  0  0  0
   32.3120   28.4567   44.3504 H   0  0  0  0  0  0  0  0  0  0  0  0
   34.3528   29.5206   43.5122 H   0  0  0  0  0  0  0  0  0  0  0  0
   38.3549   32.6798   47.9700 H   0  0  0  0  0  0  0  0  0  0  0  0
   36.6448   31.8020   46.3869 H   0  0  0  0  0  0  0  0  0  0  0  0
   38.3682   30.1817   46.1245 H   0  0  0  0  0  0  0  0  0  0  0  0
   38.5001   29.3858   44.4152 H   0  0  0  0  0  0  0  0  0  0  0  0
   39.9093   31.0242   46.6663 H   0  0  0  0  0  0  0  0  0  0  0  0
   40.9339   30.1196   45.5479 H   0  0  0  0  0  0  0  0  0  0  0  0
   41.5216   32.6405   46.4693 H   0  0  0  0  0  0  0  0  0  0  0  0
   42.1160   32.0451   44.9228 H   0  0  0  0  0  0  0  0  0  0  0  0
   40.2587   34.1840   45.3623 H   0  0  0  0  0  0  0  0  0  0  0  0
   40.6726   33.4993   43.7932 H   0  0  0  0  0  0  0  0  0  0  0  0
   38.3497   32.9056   43.8982 H   0  0  0  0  0  0  0  0  0  0  0  0
   38.3137   32.7840   45.6376 H   0  0  0  0  0  0  0  0  0  0  0  0
  1  2  1  0
  2  3  2  0
  2  9  1  0
  4  3  1  0
  5  4  2  0
  6  5  1  0
  6  1  2  0
  7 12  2  0
  8  9  2  0
  8  7  1  0
  9 10  1  0
 10 11  2  0
 11 13  1  0
 12 11  1  0
 13 16  1  0
 13 15  1  0
 13 14  1  0
 17 20  1  0
 17  1  1  0
 18 17  2  0
 19 17  2  0
 21 25  1  0
 21 20  1  0
 21 22  1  0
 23 22  1  0
 24 23  1  0
 25 24  1  0
  3 26  1  0
  4 27  1  0
  5 28  1  0
  6 29  1  0
  7 30  1  0
  8 31  1  0
 20 32  1  0
 20 33  1  0
 22 34  1  0
 22 35  1  0
 23 36  1  0
 23 37  1  0
 24 38  1  0
 24 39  1  0
 25 40  1  0
 25 41  1  0
M  ISO  8  26  14  27  14  28  14  29  14  30  14  31  14  32   8  33   8
M  ISO  8  34  13  35  13  36  13  37  13  38  13  39  13  40  13  41  13
M  END
>  <minimizedAffinity>  (1) 
-5.84724903

>  <minimizedRMSD>  (1) 
2.91050267

$$$$
