
     RDKit          3D

 44 47  0  0  0  0  0  0  0  0999 V2000
   35.1160   29.6460   47.5500 C   0  0  0  0  0  0  0  0  0  0  0  0
   35.2370   30.0950   46.2400 C   0  0  0  0  0  0  0  0  0  0  0  0
   34.1990   29.9220   45.3440 C   0  0  0  0  0  0  0  0  0  0  0  0
   33.0700   29.2970   45.7990 N   0  0  0  0  0  0  0  0  0  0  0  0
   32.9800   28.8680   47.0870 C   0  0  0  0  0  0  0  0  0  0  0  0
   33.9920   29.0390   47.9560 N   0  0  0  0  0  0  0  0  0  0  0  0
   36.1590   29.8000   48.5160 N   0  0  0  0  0  0  0  0  0  0  0  0
   36.2600   28.9330   49.6770 C   0  0  0  0  0  0  0  0  0  0  0  0
   36.5760   29.6270   50.9540 C   0  0  0  0  0  0  0  0  0  0  0  0
   37.2920   30.8480   50.8870 N   0  0  0  0  0  0  0  0  0  0  0  0
   36.9740   31.6530   49.7030 C   0  0  0  0  0  0  0  0  0  0  0  0
   37.2060   30.7630   48.5110 C   0  0  0  0  0  0  0  0  0  0  0  0
   31.7530   28.2050   47.5290 C   0  0  0  0  0  0  0  0  0  0  0  0
   31.8000   27.1010   48.3300 C   0  0  0  0  0  0  0  0  0  0  0  0
   30.6610   26.4540   48.7630 C   0  0  0  0  0  0  0  0  0  0  0  0
   29.4840   26.9730   48.3500 N   0  0  0  0  0  0  0  0  0  0  0  0
   29.4360   28.0550   47.5650 C   0  0  0  0  0  0  0  0  0  0  0  0
   30.5720   28.6710   47.1530 N   0  0  0  0  0  0  0  0  0  0  0  0
   28.2150   28.6290   47.1100 N   0  0  0  0  0  0  0  0  0  0  0  0
   27.8900   30.0080   46.7850 C   0  0  0  0  0  0  0  0  0  0  0  0
   26.6420   30.1940   47.6560 C   0  0  0  0  0  0  0  0  0  0  0  0
   26.0810   28.7820   47.8410 C   0  0  0  0  0  0  0  0  0  0  0  0
   26.9330   28.0000   46.8360 C   0  0  0  0  0  0  0  0  0  0  0  0
   36.1637   30.5905   45.9148 H   0  0  0  0  0  0  0  0  0  0  0  0
   34.2775   30.2734   44.3046 H   0  0  0  0  0  0  0  0  0  0  0  0
   35.2981   28.4136   49.7998 H   0  0  0  0  0  0  0  0  0  0  0  0
   37.1017   28.2526   49.4804 H   0  0  0  0  0  0  0  0  0  0  0  0
   35.6209   29.8349   51.4586 H   0  0  0  0  0  0  0  0  0  0  0  0
   37.2538   28.9391   51.4807 H   0  0  0  0  0  0  0  0  0  0  0  0
   37.0696   31.4020   51.7263 H   0  0  0  0  0  0  0  0  0  0  0  0
   35.9242   31.9798   49.7356 H   0  0  0  0  0  0  0  0  0  0  0  0
   37.5995   32.5566   49.6546 H   0  0  0  0  0  0  0  0  0  0  0  0
   38.1824   30.2632   48.5942 H   0  0  0  0  0  0  0  0  0  0  0  0
   37.2087   31.3428   47.5762 H   0  0  0  0  0  0  0  0  0  0  0  0
   32.7811   26.7132   48.6415 H   0  0  0  0  0  0  0  0  0  0  0  0
   30.7085   25.5648   49.4088 H   0  0  0  0  0  0  0  0  0  0  0  0
   28.6970   30.6975   47.0738 H   0  0  0  0  0  0  0  0  0  0  0  0
   27.7445   30.2118   45.7139 H   0  0  0  0  0  0  0  0  0  0  0  0
   26.9096   30.6351   48.6275 H   0  0  0  0  0  0  0  0  0  0  0  0
   25.9110   30.8743   47.1946 H   0  0  0  0  0  0  0  0  0  0  0  0
   26.2310   28.4183   48.8682 H   0  0  0  0  0  0  0  0  0  0  0  0
   24.9960   28.6985   47.6801 H   0  0  0  0  0  0  0  0  0  0  0  0
   26.6045   28.1620   45.7988 H   0  0  0  0  0  0  0  0  0  0  0  0
   26.9059   26.9048   46.9350 H   0  0  0  0  0  0  0  0  0  0  0  0
  1  6  1  0
  1  7  1  0
  2  1  2  0
  3  4  2  0
  3  2  1  0
  4  5  1  0
  5 13  1  0
  5  6  2  0
  7  8  1  0
  8  9  1  0
 10  9  1  0
 11 10  1  0
 12  7  1  0
 12 11  1  0
 13 14  2  0
 14 15  1  0
 16 15  2  0
 17 16  1  0
 18 13  1  0
 18 17  2  0
 19 17  1  0
 20 19  1  0
 20 21  1  0
 21 22  1  0
 23 19  1  0
 23 22  1  0
  2 24  1  0
  3 25  1  0
  8 26  1  0
  8 27  1  0
  9 28  1  0
  9 29  1  0
 10 30  1  0
 11 31  1  0
 11 32  1  0
 12 33  1  0
 12 34  1  0
 14 35  1  0
 15 36  1  0
 20 37  1  0
 20 38  1  0
 21 39  1  0
 21 40  1  0
 22 41  1  0
 22 42  1  0
 23 43  1  0
 23 44  1  0
M  ISO  8  24  14  25  14  26  13  27  13  28  13  29  13  30   5  31  13
M  ISO  8  32  13  33  13  34  13  35  14  36  14  37  13  38  13  39  13
M  ISO  5  40  13  41  13  42  13  43  13  44  13
M  END
>  <minimizedAffinity>  (1) 
-5.65436029

>  <minimizedRMSD>  (1) 
0.451095223

$$$$
