
     RDKit          3D

 31 33  0  0  0  0  0  0  0  0999 V2000
   36.1370   29.7200   49.8060 C   0  0  0  0  0  0  0  0  0  0  0  0
   35.0810   29.4620   50.6380 C   0  0  0  0  0  0  0  0  0  0  0  0
   34.1200   28.7530   49.8950 C   0  0  0  0  0  0  0  0  0  0  0  0
   34.6780   28.6320   48.6370 C   0  0  0  0  0  0  0  0  0  0  0  0
   35.8460   29.2050   48.6250 O   0  0  0  0  0  0  0  0  0  0  0  0
   33.9990   27.9640   47.5790 N   0  0  0  0  0  0  0  0  0  0  0  0
   33.7990   26.5300   47.4990 C   0  0  0  0  0  0  0  0  0  0  0  0
   33.6180   26.2020   46.0380 C   0  0  0  0  0  0  0  0  0  0  0  0
   33.9300   27.5140   45.3610 C   0  0  0  0  0  0  0  0  0  0  0  0
   33.3730   28.4920   46.3810 C   0  0  0  0  0  0  0  0  0  0  0  0
   37.3070   30.4370   50.2520 C   0  0  0  0  0  0  0  0  0  0  0  0
   37.6910   30.2950   51.4330 O   0  0  0  0  0  0  0  0  0  0  0  0
   37.9780   31.2890   49.3050 C   0  0  0  0  0  0  0  0  0  0  0  0
   38.2630   32.5890   49.6980 C   0  0  0  0  0  0  0  0  0  0  0  0
   38.9150   33.4360   48.7960 C   0  0  0  0  0  0  0  0  0  0  0  0
   39.2360   32.9260   47.5690 N   0  0  0  0  0  0  0  0  0  0  0  0
   38.9510   31.6670   47.2100 C   0  0  0  0  0  0  0  0  0  0  0  0
   38.3270   30.8560   48.0740 N   0  0  0  0  0  0  0  0  0  0  0  0
   34.9990   29.7556   51.6949 H   0  0  0  0  0  0  0  0  0  0  0  0
   33.1441   28.3791   50.2382 H   0  0  0  0  0  0  0  0  0  0  0  0
   34.6758   26.0013   47.9011 H   0  0  0  0  0  0  0  0  0  0  0  0
   32.9237   26.2177   48.0875 H   0  0  0  0  0  0  0  0  0  0  0  0
   34.3172   25.4151   45.7188 H   0  0  0  0  0  0  0  0  0  0  0  0
   32.6164   25.8153   45.7988 H   0  0  0  0  0  0  0  0  0  0  0  0
   35.0121   27.6495   45.2174 H   0  0  0  0  0  0  0  0  0  0  0  0
   33.5106   27.6187   44.3495 H   0  0  0  0  0  0  0  0  0  0  0  0
   33.6877   29.5255   46.1741 H   0  0  0  0  0  0  0  0  0  0  0  0
   32.2757   28.5610   46.4155 H   0  0  0  0  0  0  0  0  0  0  0  0
   37.9816   32.9464   50.6995 H   0  0  0  0  0  0  0  0  0  0  0  0
   39.1604   34.4742   49.0640 H   0  0  0  0  0  0  0  0  0  0  0  0
   39.2282   31.3012   46.2103 H   0  0  0  0  0  0  0  0  0  0  0  0
  1 11  1  0
  1  2  2  0
  3  2  1  0
  4  3  2  0
  5  4  1  0
  5  1  1  0
  6  4  1  0
  7  6  1  0
  8  7  1  0
  9  8  1  0
  9 10  1  0
 10  6  1  0
 11 12  2  0
 13 14  2  0
 13 11  1  0
 15 14  1  0
 16 15  2  0
 17 16  1  0
 17 18  2  0
 18 13  1  0
  2 19  1  0
  3 20  1  0
  7 21  1  0
  7 22  1  0
  8 23  1  0
  8 24  1  0
  9 25  1  0
  9 26  1  0
 10 27  1  0
 10 28  1  0
 14 29  1  0
 15 30  1  0
 17 31  1  0
M  ISO  8  19  14  20  14  21  13  22  13  23  13  24  13  25  13  26  13
M  ISO  5  27  13  28  13  29  14  30  14  31  14
M  END
>  <minimizedAffinity>  (1) 
-5.18218422

>  <minimizedRMSD>  (1) 
1.46231258

$$$$
