
     RDKit          3D

 28 29  0  0  0  0  0  0  0  0999 V2000
   38.0470   30.5840   47.6020 C   0  0  0  0  0  0  0  0  0  0  0  0
   37.3970   30.2680   51.3420 C   0  0  0  0  0  0  0  0  0  0  0  0
   38.0170   30.6520   50.1560 C   0  0  0  0  0  0  0  0  0  0  0  0
   37.4850   30.2350   48.9490 C   0  0  0  0  0  0  0  0  0  0  0  0
   36.3560   29.4490   48.9550 N   0  0  0  0  0  0  0  0  0  0  0  0
   35.7890   29.1000   50.1260 C   0  0  0  0  0  0  0  0  0  0  0  0
   36.2890   29.4970   51.3130 N   0  0  0  0  0  0  0  0  0  0  0  0
   38.4280   32.0640   47.6030 C   0  0  0  0  0  0  0  0  0  0  0  0
   38.7460   32.4500   46.2140 N   0  0  0  0  0  0  0  0  0  0  0  0
   40.0060   33.1660   46.1770 C   0  0  0  0  0  0  0  0  0  0  0  0
   40.9200   32.4280   45.2280 C   0  0  0  0  0  0  0  0  0  0  0  0
   39.9570   31.5530   44.4310 C   0  0  0  0  0  0  0  0  0  0  0  0
   38.8950   31.2330   45.4680 C   0  0  0  0  0  0  0  0  0  0  0  0
   37.2915   30.3961   46.8249 H   0  0  0  0  0  0  0  0  0  0  0  0
   38.9334   29.9672   47.3926 H   0  0  0  0  0  0  0  0  0  0  0  0
   37.8118   30.5943   52.3071 H   0  0  0  0  0  0  0  0  0  0  0  0
   38.9198   31.2800   50.1785 H   0  0  0  0  0  0  0  0  0  0  0  0
   34.8875   28.4698   50.1130 H   0  0  0  0  0  0  0  0  0  0  0  0
   37.5864   32.6666   47.9753 H   0  0  0  0  0  0  0  0  0  0  0  0
   39.2951   32.2367   48.2575 H   0  0  0  0  0  0  0  0  0  0  0  0
   39.8437   34.1935   45.8193 H   0  0  0  0  0  0  0  0  0  0  0  0
   40.4513   33.2185   47.1815 H   0  0  0  0  0  0  0  0  0  0  0  0
   41.4544   33.1285   44.5694 H   0  0  0  0  0  0  0  0  0  0  0  0
   41.7034   31.8518   45.7422 H   0  0  0  0  0  0  0  0  0  0  0  0
   39.5310   32.1011   43.5777 H   0  0  0  0  0  0  0  0  0  0  0  0
   40.4277   30.6634   43.9871 H   0  0  0  0  0  0  0  0  0  0  0  0
   37.9478   30.9558   44.9823 H   0  0  0  0  0  0  0  0  0  0  0  0
   39.1751   30.3819   46.1060 H   0  0  0  0  0  0  0  0  0  0  0  0
  1  8  1  0
  1  4  1  0
  3  2  2  0
  4  5  2  0
  4  3  1  0
  5  6  1  0
  6  7  2  0
  7  2  1  0
  9  8  1  0
 10  9  1  0
 11 10  1  0
 12 11  1  0
 12 13  1  0
 13  9  1  0
  1 14  1  0
  1 15  1  0
  2 16  1  0
  3 17  1  0
  6 18  1  0
  8 19  1  0
  8 20  1  0
 10 21  1  0
 10 22  1  0
 11 23  1  0
 11 24  1  0
 12 25  1  0
 12 26  1  0
 13 27  1  0
 13 28  1  0
M  ISO  8  14   8  15   8  16  14  17  14  18  14  19   8  20   8  21  13
M  ISO  7  22  13  23  13  24  13  25  13  26  13  27  13  28  13
M  END
>  <minimizedAffinity>  (1) 
-4.68089437

>  <minimizedRMSD>  (1) 
1.74991488

$$$$
