
     RDKit          3D

 24 25  0  0  0  0  0  0  0  0999 V2000
   38.1590   33.2820   49.4230 C   0  0  0  0  0  0  0  0  0  0  0  0
   38.9990   33.3140   48.2920 C   0  0  0  0  0  0  0  0  0  0  0  0
   38.9680   32.1740   47.4590 C   0  0  0  0  0  0  0  0  0  0  0  0
   38.1460   31.1280   47.7830 N   0  0  0  0  0  0  0  0  0  0  0  0
   37.3750   31.1700   48.8750 C   0  0  0  0  0  0  0  0  0  0  0  0
   37.3520   32.2220   49.7150 N   0  0  0  0  0  0  0  0  0  0  0  0
   36.5530   30.0380   49.1330 N   0  0  0  0  0  0  0  0  0  0  0  0
   35.5190   29.5250   48.2500 C   0  0  0  0  0  0  0  0  0  0  0  0
   34.3820   29.2720   49.2430 C   0  0  0  0  0  0  0  0  0  0  0  0
   35.0380   29.1850   50.6160 C   0  0  0  0  0  0  0  0  0  0  0  0
   36.4990   29.1240   50.2600 C   0  0  0  0  0  0  0  0  0  0  0  0
   39.8190   34.4470   48.0380 N   0  0  0  0  0  0  0  0  0  0  0  0
   38.1540   34.1493   50.0995 H   0  0  0  0  0  0  0  0  0  0  0  0
   39.5981   32.1268   46.5586 H   0  0  0  0  0  0  0  0  0  0  0  0
   35.2331   30.2668   47.4897 H   0  0  0  0  0  0  0  0  0  0  0  0
   35.8181   28.6397   47.6696 H   0  0  0  0  0  0  0  0  0  0  0  0
   33.6591   30.1007   49.2162 H   0  0  0  0  0  0  0  0  0  0  0  0
   33.8307   28.3517   48.9998 H   0  0  0  0  0  0  0  0  0  0  0  0
   34.8114   30.0729   51.2244 H   0  0  0  0  0  0  0  0  0  0  0  0
   34.6923   28.3332   51.2201 H   0  0  0  0  0  0  0  0  0  0  0  0
   36.8009   28.1070   49.9691 H   0  0  0  0  0  0  0  0  0  0  0  0
   37.1764   29.3856   51.0863 H   0  0  0  0  0  0  0  0  0  0  0  0
   40.4309   34.4646   47.2097 H   0  0  0  0  0  0  0  0  0  0  0  0
   39.8013   35.2504   48.6823 H   0  0  0  0  0  0  0  0  0  0  0  0
  1  6  2  0
  2  1  1  0
  3  4  1  0
  3  2  2  0
  4  5  2  0
  5  7  1  0
  5  6  1  0
  7 11  1  0
  8  7  1  0
  8  9  1  0
  9 10  1  0
 11 10  1  0
 12  2  1  0
  1 13  1  0
  3 14  1  0
  8 15  1  0
  8 16  1  0
  9 17  1  0
  9 18  1  0
 10 19  1  0
 10 20  1  0
 11 21  1  0
 11 22  1  0
 12 23  1  0
 12 24  1  0
M  ISO  8  13  14  14  14  15  13  16  13  17  13  18  13  19  13  20  13
M  ISO  2  21  13  22  13
M  END
>  <minimizedAffinity>  (1) 
-4.88202477

>  <minimizedRMSD>  (1) 
3.74068618

$$$$
