
     RDKit          3D

 40 42  0  0  0  0  0  0  0  0999 V2000
   38.0160   31.5210   46.2070 Cl  0  0  0  0  0  0  0  0  0  0  0  0
   36.7650   30.5200   45.5040 C   0  0  0  0  0  0  0  0  0  0  0  0
   36.8620   30.1450   44.2010 C   0  0  0  0  0  0  0  0  0  0  0  0
   35.8950   29.3610   43.6310 C   0  0  0  0  0  0  0  0  0  0  0  0
   34.8280   28.9640   44.3980 C   0  0  0  0  0  0  0  0  0  0  0  0
   34.7430   29.3520   45.7190 C   0  0  0  0  0  0  0  0  0  0  0  0
   35.7090   30.1430   46.3130 C   0  0  0  0  0  0  0  0  0  0  0  0
   39.0790   32.0580   41.9460 C   0  0  0  0  0  0  0  0  0  0  0  0
   40.2210   31.2290   41.9060 C   0  0  0  0  0  0  0  0  0  0  0  0
   40.1860   30.0590   42.6480 C   0  0  0  0  0  0  0  0  0  0  0  0
   39.0770   29.7670   43.3640 N   0  0  0  0  0  0  0  0  0  0  0  0
   38.0000   30.5700   43.3870 C   0  0  0  0  0  0  0  0  0  0  0  0
   38.0140   31.7010   42.6800 N   0  0  0  0  0  0  0  0  0  0  0  0
   41.3500   29.2420   42.5910 N   0  0  0  0  0  0  0  0  0  0  0  0
   35.6710   30.5920   47.7290 C   0  0  0  0  0  0  0  0  0  0  0  0
   35.7330   29.5110   48.7190 C   0  0  0  0  0  0  0  0  0  0  0  0
   36.9940   29.3140   49.3600 N   0  0  0  0  0  0  0  0  0  0  0  0
   37.8850   30.4230   49.1850 C   0  0  0  0  0  0  0  0  0  0  0  0
   38.2340   30.9670   50.5300 C   0  0  0  0  0  0  0  0  0  0  0  0
   37.2880   30.2690   51.4790 C   0  0  0  0  0  0  0  0  0  0  0  0
   36.9660   28.9970   50.7440 C   0  0  0  0  0  0  0  0  0  0  0  0
   35.9717   29.0547   42.5773 H   0  0  0  0  0  0  0  0  0  0  0  0
   34.0395   28.3354   43.9585 H   0  0  0  0  0  0  0  0  0  0  0  0
   33.8811   29.0223   46.3176 H   0  0  0  0  0  0  0  0  0  0  0  0
   39.0622   32.9978   41.3747 H   0  0  0  0  0  0  0  0  0  0  0  0
   41.1041   31.5011   41.3092 H   0  0  0  0  0  0  0  0  0  0  0  0
   41.3861   28.3593   43.1206 H   0  0  0  0  0  0  0  0  0  0  0  0
   42.1563   29.5334   42.0202 H   0  0  0  0  0  0  0  0  0  0  0  0
   36.5273   31.2612   47.8989 H   0  0  0  0  0  0  0  0  0  0  0  0
   34.6988   31.0867   47.8711 H   0  0  0  0  0  0  0  0  0  0  0  0
   34.9898   29.7285   49.5003 H   0  0  0  0  0  0  0  0  0  0  0  0
   35.5412   28.5855   48.1563 H   0  0  0  0  0  0  0  0  0  0  0  0
   38.7984   30.0877   48.6720 H   0  0  0  0  0  0  0  0  0  0  0  0
   37.4020   31.2022   48.5771 H   0  0  0  0  0  0  0  0  0  0  0  0
   39.2792   30.7360   50.7833 H   0  0  0  0  0  0  0  0  0  0  0  0
   38.1387   32.0619   50.5753 H   0  0  0  0  0  0  0  0  0  0  0  0
   37.7754   30.0585   52.4424 H   0  0  0  0  0  0  0  0  0  0  0  0
   36.3992   30.8667   51.7295 H   0  0  0  0  0  0  0  0  0  0  0  0
   35.9679   28.6344   51.0309 H   0  0  0  0  0  0  0  0  0  0  0  0
   37.6887   28.2037   50.9855 H   0  0  0  0  0  0  0  0  0  0  0  0
  2  1  1  0
  2  7  2  0
  3  2  1  0
  4  3  2  0
  4  5  1  0
  5  6  2  0
  6  7  1  0
  7 15  1  0
  8 13  2  0
  9  8  1  0
  9 10  2  0
 10 11  1  0
 11 12  2  0
 12  3  1  0
 13 12  1  0
 14 10  1  0
 15 16  1  0
 16 17  1  0
 17 21  1  0
 18 17  1  0
 18 19  1  0
 19 20  1  0
 21 20  1  0
  4 22  1  0
  5 23  1  0
  6 24  1  0
  8 25  1  0
  9 26  1  0
 14 27  1  0
 14 28  1  0
 15 29  1  0
 15 30  1  0
 16 31  1  0
 16 32  1  0
 18 33  1  0
 18 34  1  0
 19 35  1  0
 19 36  1  0
 20 37  1  0
 20 38  1  0
 21 39  1  0
 21 40  1  0
M  ISO  8  22  14  23  14  24  14  25  14  26  14  29   8  30   8  31   8
M  ISO  8  32   8  33  13  34  13  35  13  36  13  37  13  38  13  39  13
M  ISO  1  40  13
M  END
>  <minimizedAffinity>  (1) 
-5.28202105

>  <minimizedRMSD>  (1) 
2.98802328

$$$$
