
     RDKit          3D

 35 38  0  0  0  0  0  0  0  0999 V2000
   36.0110   29.3140   49.6600 C   0  0  0  0  0  0  0  0  0  0  0  0
   35.9470   30.3230   48.6990 C   0  0  0  0  0  0  0  0  0  0  0  0
   34.9180   30.3670   47.7930 C   0  0  0  0  0  0  0  0  0  0  0  0
   33.9140   29.4020   47.8130 C   0  0  0  0  0  0  0  0  0  0  0  0
   32.8110   29.2030   47.0610 N   0  0  0  0  0  0  0  0  0  0  0  0
   32.2520   28.0790   47.5990 C   0  0  0  0  0  0  0  0  0  0  0  0
   32.9750   27.6190   48.6200 N   0  0  0  0  0  0  0  0  0  0  0  0
   34.0330   28.4250   48.7900 C   0  0  0  0  0  0  0  0  0  0  0  0
   35.0330   28.3350   49.7130 C   0  0  0  0  0  0  0  0  0  0  0  0
   38.0900   33.1640   49.6270 C   0  0  0  0  0  0  0  0  0  0  0  0
   38.9870   33.2440   48.5420 C   0  0  0  0  0  0  0  0  0  0  0  0
   38.8170   32.2970   47.5110 C   0  0  0  0  0  0  0  0  0  0  0  0
   37.8280   31.3890   47.6180 N   0  0  0  0  0  0  0  0  0  0  0  0
   36.9910   31.3410   48.6660 C   0  0  0  0  0  0  0  0  0  0  0  0
   37.1250   32.2220   49.6580 N   0  0  0  0  0  0  0  0  0  0  0  0
   39.6570   32.2910   46.3890 N   0  0  0  0  0  0  0  0  0  0  0  0
   40.3160   31.1800   45.7150 C   0  0  0  0  0  0  0  0  0  0  0  0
   40.1800   31.4820   44.2270 C   0  0  0  0  0  0  0  0  0  0  0  0
   39.9720   32.9730   44.1550 C   0  0  0  0  0  0  0  0  0  0  0  0
   40.0970   33.4160   45.5900 C   0  0  0  0  0  0  0  0  0  0  0  0
   36.8428   29.2959   50.3796 H   0  0  0  0  0  0  0  0  0  0  0  0
   34.8855   31.1718   47.0438 H   0  0  0  0  0  0  0  0  0  0  0  0
   32.4710   29.7660   46.2683 H   0  0  0  0  0  0  0  0  0  0  0  0
   31.3240   27.6130   47.2362 H   0  0  0  0  0  0  0  0  0  0  0  0
   35.0612   27.5278   50.4597 H   0  0  0  0  0  0  0  0  0  0  0  0
   38.1783   33.8787   50.4585 H   0  0  0  0  0  0  0  0  0  0  0  0
   39.7790   34.0063   48.5018 H   0  0  0  0  0  0  0  0  0  0  0  0
   41.3763   31.1275   46.0032 H   0  0  0  0  0  0  0  0  0  0  0  0
   39.8679   30.2115   45.9819 H   0  0  0  0  0  0  0  0  0  0  0  0
   41.0935   31.1916   43.6874 H   0  0  0  0  0  0  0  0  0  0  0  0
   39.3528   30.9242   43.7637 H   0  0  0  0  0  0  0  0  0  0  0  0
   40.7418   33.4475   43.5287 H   0  0  0  0  0  0  0  0  0  0  0  0
   39.0076   33.2495   43.7040 H   0  0  0  0  0  0  0  0  0  0  0  0
   41.1422   33.6668   45.8240 H   0  0  0  0  0  0  0  0  0  0  0  0
   39.4959   34.3152   45.7904 H   0  0  0  0  0  0  0  0  0  0  0  0
  1  9  2  0
  2  1  1  0
  3  4  1  0
  3  2  2  0
  4  8  2  0
  5  6  1  0
  5  4  1  0
  6  7  2  0
  7  8  1  0
  8  9  1  0
 10 15  2  0
 11 10  1  0
 12 13  1  0
 12 11  2  0
 13 14  2  0
 14  2  1  0
 14 15  1  0
 16 12  1  0
 17 16  1  0
 18 17  1  0
 19 18  1  0
 19 20  1  0
 20 16  1  0
  1 21  1  0
  3 22  1  0
  5 23  1  0
  6 24  1  0
  9 25  1  0
 10 26  1  0
 11 27  1  0
 17 28  1  0
 17 29  1  0
 18 30  1  0
 18 31  1  0
 19 32  1  0
 19 33  1  0
 20 34  1  0
 20 35  1  0
M  ISO  8  21  14  22  14  23   9  24  14  25  14  26  14  27  14  28  13
M  ISO  7  29  13  30  13  31  13  32  13  33  13  34  13  35  13
M  END
>  <minimizedAffinity>  (1) 
-7.25433969

>  <minimizedRMSD>  (1) 
2.16481853

$$$$
