
     RDKit          3D

 42 46  0  0  0  0  0  0  0  0999 V2000
   34.7490   28.9880   48.9690 C   0  0  0  0  0  0  0  0  0  0  0  0
   34.6990   28.4030   47.7020 C   0  0  0  0  0  0  0  0  0  0  0  0
   33.4370   27.9030   47.5120 C   0  0  0  0  0  0  0  0  0  0  0  0
   32.7340   28.1910   48.6670 N   0  0  0  0  0  0  0  0  0  0  0  0
   33.5500   28.8300   49.4940 N   0  0  0  0  0  0  0  0  0  0  0  0
   30.5390   27.4910   47.8030 N   0  0  0  0  0  0  0  0  0  0  0  0
   31.3700   27.8160   48.8300 C   0  0  0  0  0  0  0  0  0  0  0  0
   30.6500   27.7060   49.9530 N   0  0  0  0  0  0  0  0  0  0  0  0
   29.3900   27.3230   49.6780 C   0  0  0  0  0  0  0  0  0  0  0  0
   28.2390   27.0540   50.3680 C   0  0  0  0  0  0  0  0  0  0  0  0
   27.1290   26.6800   49.7010 N   0  0  0  0  0  0  0  0  0  0  0  0
   27.1070   26.5600   48.3540 C   0  0  0  0  0  0  0  0  0  0  0  0
   28.2160   26.8160   47.6490 N   0  0  0  0  0  0  0  0  0  0  0  0
   29.3270   27.1890   48.3040 C   0  0  0  0  0  0  0  0  0  0  0  0
   37.5090   29.7640   51.2460 C   0  0  0  0  0  0  0  0  0  0  0  0
   38.1400   30.8630   50.5990 C   0  0  0  0  0  0  0  0  0  0  0  0
   37.5930   31.2950   49.4060 C   0  0  0  0  0  0  0  0  0  0  0  0
   36.5020   30.6830   48.8920 N   0  0  0  0  0  0  0  0  0  0  0  0
   35.9170   29.6270   49.5390 C   0  0  0  0  0  0  0  0  0  0  0  0
   36.4290   29.1910   50.6950 N   0  0  0  0  0  0  0  0  0  0  0  0
   38.1600   32.3810   48.7030 N   0  0  0  0  0  0  0  0  0  0  0  0
   38.7060   32.4100   47.3670 C   0  0  0  0  0  0  0  0  0  0  0  0
   39.8620   33.3890   47.4010 C   0  0  0  0  0  0  0  0  0  0  0  0
   39.6870   34.2020   48.6620 C   0  0  0  0  0  0  0  0  0  0  0  0
   38.3320   33.7330   49.1550 C   0  0  0  0  0  0  0  0  0  0  0  0
   28.2870   27.1880   51.7830 N   0  0  0  0  0  0  0  0  0  0  0  0
   35.5285   28.3522   46.9814 H   0  0  0  0  0  0  0  0  0  0  0  0
   33.0601   27.3790   46.6213 H   0  0  0  0  0  0  0  0  0  0  0  0
   30.7954   27.4782   46.8055 H   0  0  0  0  0  0  0  0  0  0  0  0
   26.1835   26.2539   47.8408 H   0  0  0  0  0  0  0  0  0  0  0  0
   37.9072   29.3843   52.1985 H   0  0  0  0  0  0  0  0  0  0  0  0
   39.0272   31.3489   51.0310 H   0  0  0  0  0  0  0  0  0  0  0  0
   37.9423   32.7472   46.6507 H   0  0  0  0  0  0  0  0  0  0  0  0
   39.0378   31.4106   47.0490 H   0  0  0  0  0  0  0  0  0  0  0  0
   40.8195   32.8481   47.4256 H   0  0  0  0  0  0  0  0  0  0  0  0
   39.8709   34.0308   46.5077 H   0  0  0  0  0  0  0  0  0  0  0  0
   40.4774   33.9793   49.3939 H   0  0  0  0  0  0  0  0  0  0  0  0
   39.7483   35.2884   48.5009 H   0  0  0  0  0  0  0  0  0  0  0  0
   37.5384   34.3725   48.7412 H   0  0  0  0  0  0  0  0  0  0  0  0
   38.2754   33.7879   50.2522 H   0  0  0  0  0  0  0  0  0  0  0  0
   27.4468   26.9968   52.3472 H   0  0  0  0  0  0  0  0  0  0  0  0
   29.1620   27.4763   52.2436 H   0  0  0  0  0  0  0  0  0  0  0  0
  1  5  2  0
  1 19  1  0
  2  1  1  0
  3  2  2  0
  3  4  1  0
  4  7  1  0
  4  5  1  0
  6 14  1  0
  6  7  1  0
  7  8  2  0
  9  8  1  0
  9 10  2  0
 10 26  1  0
 11 10  1  0
 12 11  2  0
 13 14  2  0
 13 12  1  0
 14  9  1  0
 16 15  2  0
 17 16  1  0
 18 17  2  0
 18 19  1  0
 19 20  2  0
 20 15  1  0
 21 25  1  0
 21 17  1  0
 22 23  1  0
 22 21  1  0
 23 24  1  0
 24 25  1  0
  2 27  1  0
  3 28  1  0
  6 29  1  0
 12 30  1  0
 15 31  1  0
 16 32  1  0
 22 33  1  0
 22 34  1  0
 23 35  1  0
 23 36  1  0
 24 37  1  0
 24 38  1  0
 25 39  1  0
 25 40  1  0
 26 41  1  0
 26 42  1  0
M  ISO  8  27  14  28  14  29   9  30  14  31  14  32  14  33  13  34  13
M  ISO  6  35  13  36  13  37  13  38  13  39  13  40  13
M  END
>  <minimizedAffinity>  (1) 
-7.77196455

>  <minimizedRMSD>  (1) 
0.51815933

$$$$
