
     RDKit          3D

 41 43  0  0  1  0  0  0  0  0999 V2000
   33.1890   27.2840   45.8750 C   0  0  1  0  0  0  0  0  0  0  0  0
   33.9100   27.4540   47.2310 C   0  0  2  0  0  0  0  0  0  0  0  0
   33.7520   26.2380   47.8200 O   0  0  0  0  0  0  0  0  0  0  0  0
   34.0540   25.3270   46.8150 C   0  0  0  0  0  0  0  0  0  0  0  0
   33.5760   25.8890   45.5070 C   0  0  2  0  0  0  0  0  0  0  0  0
   31.8320   27.4980   46.0190 O   0  0  0  0  0  0  0  0  0  0  0  0
   33.2870   28.5140   47.8210 O   0  0  0  0  0  0  0  0  0  0  0  0
   35.3470   29.7940   46.7820 O   0  0  0  0  0  0  0  0  0  0  0  0
   34.0850   29.9800   47.6130 P   0  0  1  0  0  0  0  0  0  0  0  0
   33.1190   31.0460   46.7160 O   0  0  0  0  0  0  0  0  0  0  0  0
   34.3870   30.6150   49.1710 O   0  0  0  0  0  0  0  0  0  0  0  0
   35.6190   30.4950   49.7840 C   0  0  0  0  0  0  0  0  0  0  0  0
   35.9650   29.4770   50.7040 C   0  0  0  0  0  0  0  0  0  0  0  0
   37.2460   29.4900   51.2370 C   0  0  0  0  0  0  0  0  0  0  0  0
   38.1080   30.4810   50.8480 N   0  0  0  0  0  0  0  0  0  0  0  0
   37.7460   31.4480   49.9620 C   0  0  0  0  0  0  0  0  0  0  0  0
   36.4920   31.4490   49.4290 N   0  0  0  0  0  0  0  0  0  0  0  0
   34.5930   25.8860   44.5760 O   0  0  0  0  0  0  0  0  0  0  0  0
   34.6180   24.6050   42.6810 N   0  0  0  0  0  0  0  0  0  0  0  0
   35.7490   25.1400   41.9530 C   0  0  0  0  0  0  0  0  0  0  0  0
   36.8610   25.3570   42.9750 C   0  0  0  0  0  0  0  0  0  0  0  0
   36.4240   24.4130   44.0780 C   0  0  0  0  0  0  0  0  0  0  0  0
   34.9310   24.6540   44.0750 C   0  0  1  0  0  0  0  0  0  0  0  0
   33.4640   28.0006   45.0871 H   0  0  0  0  0  0  0  0  0  0  0  0
   34.9847   27.6883   47.2434 H   0  0  0  0  0  0  0  0  0  0  0  0
   35.1413   25.1651   46.7747 H   0  0  0  0  0  0  0  0  0  0  0  0
   33.5603   24.3648   47.0161 H   0  0  0  0  0  0  0  0  0  0  0  0
   32.7555   25.3149   45.0517 H   0  0  0  0  0  0  0  0  0  0  0  0
   31.6039   27.5340   46.9817 H   0  0  0  0  0  0  0  0  0  0  0  0
   32.5993   31.6194   47.3334 H   0  0  0  0  0  0  0  0  0  0  0  0
   35.2407   28.6993   50.9879 H   0  0  0  0  0  0  0  0  0  0  0  0
   37.5627   28.7208   51.9567 H   0  0  0  0  0  0  0  0  0  0  0  0
   38.4658   32.2291   49.6759 H   0  0  0  0  0  0  0  0  0  0  0  0
   34.4465   23.6306   42.3947 H   0  0  0  0  0  0  0  0  0  0  0  0
   36.0759   24.4269   41.1819 H   0  0  0  0  0  0  0  0  0  0  0  0
   35.4863   26.0804   41.4464 H   0  0  0  0  0  0  0  0  0  0  0  0
   37.8441   25.0769   42.5687 H   0  0  0  0  0  0  0  0  0  0  0  0
   36.9874   26.4020   43.2944 H   0  0  0  0  0  0  0  0  0  0  0  0
   36.6667   23.3675   43.8370 H   0  0  0  0  0  0  0  0  0  0  0  0
   36.9132   24.5853   45.0480 H   0  0  0  0  0  0  0  0  0  0  0  0
   34.3928   23.9279   44.7020 H   0  0  0  0  0  0  0  0  0  0  0  0
  1  6  1  0
  1  2  1  0
  2  3  1  0
  2  7  1  0
  4  3  1  0
  5  1  1  0
  5  4  1  0
  9  8  2  0
  9  7  1  0
  9 11  1  0
 10  9  1  0
 11 12  1  0
 12 13  2  0
 13 14  1  0
 15 14  2  0
 16 15  1  0
 17 12  1  0
 17 16  2  0
 18  5  1  0
 19 23  1  0
 20 19  1  0
 20 21  1  0
 21 22  1  0
 23 22  1  0
 23 18  1  0
  1 24  1  6
  2 25  1  6
  4 26  1  0
  4 27  1  0
  5 28  1  6
  6 29  1  0
 10 30  1  0
 13 31  1  0
 14 32  1  0
 16 33  1  0
 19 34  1  0
 20 35  1  0
 20 36  1  0
 21 37  1  0
 21 38  1  0
 22 39  1  0
 22 40  1  0
 23 41  1  1
M  ISO  8  24  13  25  13  26  13  27  13  28  13  29   3  30   3  31  14
M  ISO  8  32  14  33  14  34   5  35  13  36  13  37  13  38  13  39  13
M  ISO  2  40  13  41  13
M  END
>  <minimizedAffinity>  (1) 
-4.1605792

>  <minimizedRMSD>  (1) 
1.44220412

$$$$
