
     RDKit          3D

 36 38  0  0  1  0  0  0  0  0999 V2000
   32.3790   28.3480   47.5500 C   0  0  2  0  0  0  0  0  0  0  0  0
   33.5870   28.4030   48.4690 C   0  0  1  0  0  0  0  0  0  0  0  0
   34.2110   27.1920   48.4290 O   0  0  0  0  0  0  0  0  0  0  0  0
   33.6430   26.4110   47.4450 C   0  0  0  0  0  0  0  0  0  0  0  0
   32.9300   27.3870   46.5100 C   0  0  1  0  0  0  0  0  0  0  0  0
   32.0890   29.5990   47.0100 O   0  0  0  0  0  0  0  0  0  0  0  0
   34.7330   29.6290   47.7250 S   0  0  0  0  0  0  0  0  0  0  0  0
   37.4160   29.3340   50.6250 C   0  0  0  0  0  0  0  0  0  0  0  0
   37.9210   30.6130   50.7970 C   0  0  0  0  0  0  0  0  0  0  0  0
   37.4060   31.6300   49.9700 C   0  0  0  0  0  0  0  0  0  0  0  0
   36.4550   31.3010   49.0640 N   0  0  0  0  0  0  0  0  0  0  0  0
   35.9920   30.0380   48.9320 C   0  0  0  0  0  0  0  0  0  0  0  0
   36.4600   29.0390   49.7040 N   0  0  0  0  0  0  0  0  0  0  0  0
   31.9170   26.7430   45.8070 O   0  0  0  0  0  0  0  0  0  0  0  0
   31.1510   28.2790   44.1630 N   0  0  0  0  0  0  0  0  0  0  0  0
   31.7180   28.7070   42.8970 C   0  0  0  0  0  0  0  0  0  0  0  0
   33.1870   28.7960   43.1910 C   0  0  0  0  0  0  0  0  0  0  0  0
   33.4140   27.7580   44.2520 C   0  0  0  0  0  0  0  0  0  0  0  0
   32.0300   27.1760   44.4870 C   0  0  1  0  0  0  0  0  0  0  0  0
   31.4297   28.0464   48.0168 H   0  0  0  0  0  0  0  0  0  0  0  0
   33.3025   28.6579   49.5005 H   0  0  0  0  0  0  0  0  0  0  0  0
   34.4195   25.8542   46.9000 H   0  0  0  0  0  0  0  0  0  0  0  0
   32.9497   25.6669   47.8640 H   0  0  0  0  0  0  0  0  0  0  0  0
   33.5478   27.8513   45.7272 H   0  0  0  0  0  0  0  0  0  0  0  0
   31.9386   30.2478   47.7425 H   0  0  0  0  0  0  0  0  0  0  0  0
   37.8045   28.5239   51.2597 H   0  0  0  0  0  0  0  0  0  0  0  0
   38.6940   30.8256   51.5502 H   0  0  0  0  0  0  0  0  0  0  0  0
   37.7671   32.6653   50.0578 H   0  0  0  0  0  0  0  0  0  0  0  0
   30.1747   27.9685   44.0567 H   0  0  0  0  0  0  0  0  0  0  0  0
   31.3162   29.6856   42.5957 H   0  0  0  0  0  0  0  0  0  0  0  0
   31.4850   28.0235   42.0672 H   0  0  0  0  0  0  0  0  0  0  0  0
   33.7792   28.5707   42.2918 H   0  0  0  0  0  0  0  0  0  0  0  0
   33.4918   29.8023   43.5141 H   0  0  0  0  0  0  0  0  0  0  0  0
   34.1110   26.9831   43.9002 H   0  0  0  0  0  0  0  0  0  0  0  0
   33.8631   28.1734   45.1662 H   0  0  0  0  0  0  0  0  0  0  0  0
   31.7936   26.2882   43.8821 H   0  0  0  0  0  0  0  0  0  0  0  0
  1  2  1  0
  3  2  1  0
  4  3  1  0
  5  4  1  0
  5  1  1  0
  6  1  1  0
  7  2  1  0
  7 12  1  0
  8  9  2  0
 10  9  1  0
 11 10  2  0
 12 11  1  0
 12 13  2  0
 13  8  1  0
 14  5  1  0
 15 19  1  0
 16 17  1  0
 16 15  1  0
 17 18  1  0
 18 19  1  0
 19 14  1  0
  1 20  1  1
  2 21  1  1
  4 22  1  0
  4 23  1  0
  5 24  1  6
  6 25  1  0
  8 26  1  0
  9 27  1  0
 10 28  1  0
 15 29  1  0
 16 30  1  0
 16 31  1  0
 17 32  1  0
 17 33  1  0
 18 34  1  0
 18 35  1  0
 19 36  1  6
M  ISO  8  20  13  21  13  22  13  23  13  24  13  25   3  26  14  27  14
M  ISO  8  28  14  29   5  30  13  31  13  32  13  33  13  34  13  35  13
M  ISO  1  36  13
M  END
>  <minimizedAffinity>  (1) 
-3.79342818

>  <minimizedRMSD>  (1) 
0.361840278

$$$$
