
     RDKit          3D

 34 36  0  0  1  0  0  0  0  0999 V2000
   39.0120   32.2700   47.7020 C   0  0  2  0  0  0  0  0  0  0  0  0
   38.0240   32.6950   48.8100 C   0  0  2  0  0  0  0  0  0  0  0  0
   38.9010   33.5390   49.6400 C   0  0  0  0  0  0  0  0  0  0  0  0
   39.7140   34.2470   48.7630 O   0  0  0  0  0  0  0  0  0  0  0  0
   39.7180   33.6250   47.5580 C   0  0  0  0  0  0  0  0  0  0  0  0
   37.3760   29.7490   51.0780 C   0  0  0  0  0  0  0  0  0  0  0  0
   38.0510   30.8550   50.5020 C   0  0  0  0  0  0  0  0  0  0  0  0
   37.3980   31.5650   49.4620 C   0  0  0  0  0  0  0  0  0  0  0  0
   36.1470   31.1370   49.0730 N   0  0  0  0  0  0  0  0  0  0  0  0
   35.5490   30.0880   49.6450 C   0  0  0  0  0  0  0  0  0  0  0  0
   36.1460   29.3910   50.6390 N   0  0  0  0  0  0  0  0  0  0  0  0
   38.3190   31.9630   46.5520 O   0  0  0  0  0  0  0  0  0  0  0  0
   39.7870   31.4680   44.7440 N   0  0  0  0  0  0  0  0  0  0  0  0
   39.8240   31.9810   43.3640 C   0  0  0  0  0  0  0  0  0  0  0  0
   38.3910   32.2190   43.0250 C   0  0  0  0  0  0  0  0  0  0  0  0
   37.7390   32.4020   44.3580 C   0  0  0  0  0  0  0  0  0  0  0  0
   38.8950   32.3830   45.3740 C   0  0  1  0  0  0  0  0  0  0  0  0
   39.6502   31.3961   47.8994 H   0  0  0  0  0  0  0  0  0  0  0  0
   37.1256   33.2360   48.4781 H   0  0  0  0  0  0  0  0  0  0  0  0
   38.2988   34.2334   50.2443 H   0  0  0  0  0  0  0  0  0  0  0  0
   39.4998   32.9293   50.3326 H   0  0  0  0  0  0  0  0  0  0  0  0
   40.7548   33.4688   47.2254 H   0  0  0  0  0  0  0  0  0  0  0  0
   39.1939   34.2438   46.8148 H   0  0  0  0  0  0  0  0  0  0  0  0
   37.8548   29.1779   51.8870 H   0  0  0  0  0  0  0  0  0  0  0  0
   39.0506   31.1533   50.8510 H   0  0  0  0  0  0  0  0  0  0  0  0
   34.5495   29.7845   49.3002 H   0  0  0  0  0  0  0  0  0  0  0  0
   40.7203   31.4951   45.1789 H   0  0  0  0  0  0  0  0  0  0  0  0
   40.3984   32.9176   43.3110 H   0  0  0  0  0  0  0  0  0  0  0  0
   40.3120   31.2834   42.6675 H   0  0  0  0  0  0  0  0  0  0  0  0
   38.2787   33.1213   42.4059 H   0  0  0  0  0  0  0  0  0  0  0  0
   37.9481   31.3980   42.4421 H   0  0  0  0  0  0  0  0  0  0  0  0
   37.2049   33.3628   44.3983 H   0  0  0  0  0  0  0  0  0  0  0  0
   36.9950   31.6186   44.5646 H   0  0  0  0  0  0  0  0  0  0  0  0
   39.4338   33.3102   45.6187 H   0  0  0  0  0  0  0  0  0  0  0  0
  1  2  1  0
  2  8  1  0
  2  3  1  0
  4  3  1  0
  5  1  1  0
  5  4  1  0
  7  6  2  0
  8  7  1  0
  9  8  2  0
  9 10  1  0
 10 11  2  0
 11  6  1  0
 12  1  1  0
 13 17  1  0
 14 13  1  0
 15 14  1  0
 15 16  1  0
 16 17  1  0
 17 12  1  0
  1 18  1  1
  2 19  1  6
  3 20  1  0
  3 21  1  0
  5 22  1  0
  5 23  1  0
  6 24  1  0
  7 25  1  0
 10 26  1  0
 13 27  1  0
 14 28  1  0
 14 29  1  0
 15 30  1  0
 15 31  1  0
 16 32  1  0
 16 33  1  0
 17 34  1  1
M  ISO  8  18  13  19  13  20  13  21  13  22  13  23  13  24  14  25  14
M  ISO  8  26  14  27   5  28  13  29  13  30  13  31  13  32  13  33  13
M  ISO  1  34  13
M  END
>  <minimizedAffinity>  (1) 
-5.1200304

>  <minimizedRMSD>  (1) 
2.91665101

$$$$
