
     RDKit          3D

 36 38  0  0  1  0  0  0  0  0999 V2000
   32.8530   30.6880   46.3420 Cl  0  0  0  0  0  0  0  0  0  0  0  0
   32.9660   29.0350   46.9180 C   0  0  0  0  0  0  0  0  0  0  0  0
   34.0290   28.6520   47.7450 C   0  0  0  0  0  0  0  0  0  0  0  0
   34.1380   27.3500   48.2110 C   0  0  0  0  0  0  0  0  0  0  0  0
   33.1710   26.4300   47.8420 C   0  0  0  0  0  0  0  0  0  0  0  0
   32.1070   26.7860   47.0230 C   0  0  0  0  0  0  0  0  0  0  0  0
   30.9110   25.5990   46.5820 Cl  0  0  0  0  0  0  0  0  0  0  0  0
   32.0200   28.0900   46.5700 C   0  0  0  0  0  0  0  0  0  0  0  0
   35.9920   31.0280   49.7460 C   0  0  0  0  0  0  0  0  0  0  0  0
   36.9770   31.4420   48.8170 C   0  0  0  0  0  0  0  0  0  0  0  0
   36.9390   30.8970   47.5340 C   0  0  0  0  0  0  0  0  0  0  0  0
   35.9550   29.9970   47.2490 N   0  0  0  0  0  0  0  0  0  0  0  0
   35.0400   29.6170   48.1300 C   0  0  0  0  0  0  0  0  0  0  0  0
   35.0580   30.1280   49.3700 N   0  0  0  0  0  0  0  0  0  0  0  0
   37.9930   32.4360   49.2640 C   0  0  0  0  0  0  0  0  0  0  0  0
   38.7490   32.8690   48.1570 F   0  0  0  0  0  0  0  0  0  0  0  0
   37.3480   33.5230   49.7810 F   0  0  0  0  0  0  0  0  0  0  0  0
   38.8650   31.9250   50.2070 F   0  0  0  0  0  0  0  0  0  0  0  0
   30.1850   29.7220   46.2020 C   0  0  1  0  0  0  0  0  0  0  0  0
   30.9020   28.5180   45.6930 C   0  0  1  0  0  0  0  0  0  0  0  0
   31.3550   28.9360   44.4410 O   0  0  0  0  0  0  0  0  0  0  0  0
   30.1540   29.4110   43.8730 C   0  0  0  0  0  0  0  0  0  0  0  0
   29.5280   30.2820   44.9580 C   0  0  2  0  0  0  0  0  0  0  0  0
   29.2600   29.4560   47.2030 O   0  0  0  0  0  0  0  0  0  0  0  0
   29.8350   31.6220   44.7430 O   0  0  0  0  0  0  0  0  0  0  0  0
   34.9753   27.0544   48.8603 H   0  0  0  0  0  0  0  0  0  0  0  0
   33.2471   25.3946   48.2054 H   0  0  0  0  0  0  0  0  0  0  0  0
   35.9876   31.4367   50.7672 H   0  0  0  0  0  0  0  0  0  0  0  0
   37.6808   31.1846   46.7744 H   0  0  0  0  0  0  0  0  0  0  0  0
   30.8748   30.4231   46.6946 H   0  0  0  0  0  0  0  0  0  0  0  0
   30.2542   27.6298   45.6548 H   0  0  0  0  0  0  0  0  0  0  0  0
   30.3604   30.0049   42.9704 H   0  0  0  0  0  0  0  0  0  0  0  0
   29.4887   28.5918   43.5627 H   0  0  0  0  0  0  0  0  0  0  0  0
   28.4292   30.2590   45.0035 H   0  0  0  0  0  0  0  0  0  0  0  0
   29.6868   29.5787   48.0878 H   0  0  0  0  0  0  0  0  0  0  0  0
   29.9400   32.0804   45.6142 H   0  0  0  0  0  0  0  0  0  0  0  0
  1  2  1  0
  2  3  2  0
  3 13  1  0
  3  4  1  0
  5  4  2  0
  6  5  1  0
  7  6  1  0
  8  2  1  0
  8  6  2  0
 10 15  1  0
 10  9  2  0
 11 10  1  0
 12 11  2  0
 12 13  1  0
 13 14  2  0
 14  9  1  0
 15 17  1  0
 15 18  1  0
 16 15  1  0
 19 24  1  0
 20 19  1  0
 20  8  1  0
 21 20  1  0
 22 21  1  0
 22 23  1  0
 23 25  1  0
 23 19  1  0
  4 26  1  0
  5 27  1  0
  9 28  1  0
 11 29  1  0
 19 30  1  1
 20 31  1  6
 22 32  1  0
 22 33  1  0
 23 34  1  1
 24 35  1  0
 25 36  1  0
M  ISO  8  26  14  27  14  28  14  29  14  30  13  31  13  32  13  33  13
M  ISO  3  34  13  35   3  36   3
M  END
>  <minimizedAffinity>  (1) 
-5.9229641

>  <minimizedRMSD>  (1) 
1.65387893

$$$$
