
     RDKit          3D

 49 52  0  0  1  0  0  0  0  0999 V2000
   35.2180   28.8390   48.8820 C   0  0  0  0  0  0  0  0  0  0  0  0
   33.9610   28.6230   48.0730 C   0  0  0  0  0  0  0  0  0  0  0  0
   33.9800   28.8910   46.6490 C   0  0  0  0  0  0  0  0  0  0  0  0
   32.3160   28.4870   46.2170 S   0  0  0  0  0  0  0  0  0  0  0  0
   31.8040   28.0130   47.9730 C   0  0  0  0  0  0  0  0  0  0  0  0
   32.8270   28.2040   48.5470 N   0  0  0  0  0  0  0  0  0  0  0  0
   30.5390   27.5470   48.4980 N   0  0  0  0  0  0  0  0  0  0  0  0
   29.7160   26.7840   47.6190 C   0  0  0  0  0  0  0  0  0  0  0  0
   28.2860   26.7030   48.0370 C   0  0  0  0  0  0  0  0  0  0  0  0
   27.9610   27.5360   49.1960 N   0  0  0  0  0  0  0  0  0  0  0  0
   28.9130   27.1900   50.2290 C   0  0  0  0  0  0  0  0  0  0  0  0
   30.1970   27.8830   49.8630 C   0  0  0  0  0  0  0  0  0  0  0  0
   35.2050   30.1370   49.5870 C   0  0  0  0  0  0  0  0  0  0  0  0
   37.8890   32.7040   49.4340 C   0  0  0  0  0  0  0  0  0  0  0  0
   38.4630   32.4890   48.1780 C   0  0  0  0  0  0  0  0  0  0  0  0
   37.9130   31.4650   47.4110 C   0  0  0  0  0  0  0  0  0  0  0  0
   36.8720   30.7490   47.9190 N   0  0  0  0  0  0  0  0  0  0  0  0
   36.3580   31.0020   49.1400 C   0  0  0  0  0  0  0  0  0  0  0  0
   36.8580   31.9680   49.8930 N   0  0  0  0  0  0  0  0  0  0  0  0
   38.3250   32.3190   45.1100 C   0  0  1  0  0  0  0  0  0  0  0  0
   38.4320   31.1480   46.0800 C   0  0  1  0  0  0  0  0  0  0  0  0
   39.7740   30.8520   46.0160 O   0  0  0  0  0  0  0  0  0  0  0  0
   39.9900   30.7360   44.6380 C   0  0  0  0  0  0  0  0  0  0  0  0
   39.1140   31.7240   43.9400 C   0  0  2  0  0  0  0  0  0  0  0  0
   36.9960   32.5270   44.7640 O   0  0  0  0  0  0  0  0  0  0  0  0
   39.7790   32.6880   43.2110 O   0  0  0  0  0  0  0  0  0  0  0  0
   36.0851   28.8107   48.2057 H   0  0  0  0  0  0  0  0  0  0  0  0
   35.2773   28.0420   49.6378 H   0  0  0  0  0  0  0  0  0  0  0  0
   34.8035   29.2476   46.0128 H   0  0  0  0  0  0  0  0  0  0  0  0
   30.1193   25.7618   47.5691 H   0  0  0  0  0  0  0  0  0  0  0  0
   29.7325   27.2964   46.6458 H   0  0  0  0  0  0  0  0  0  0  0  0
   27.6590   27.0244   47.1922 H   0  0  0  0  0  0  0  0  0  0  0  0
   28.0963   25.6596   48.3292 H   0  0  0  0  0  0  0  0  0  0  0  0
   28.0463   28.5332   48.9528 H   0  0  0  0  0  0  0  0  0  0  0  0
   28.5565   27.5397   51.2091 H   0  0  0  0  0  0  0  0  0  0  0  0
   29.0505   26.1009   50.2999 H   0  0  0  0  0  0  0  0  0  0  0  0
   31.0005   27.5515   50.5372 H   0  0  0  0  0  0  0  0  0  0  0  0
   30.0729   28.9718   49.9586 H   0  0  0  0  0  0  0  0  0  0  0  0
   34.2597   30.6558   49.3697 H   0  0  0  0  0  0  0  0  0  0  0  0
   35.3013   29.9522   50.6671 H   0  0  0  0  0  0  0  0  0  0  0  0
   38.2940   33.5038   50.0715 H   0  0  0  0  0  0  0  0  0  0  0  0
   39.3048   33.0966   47.8144 H   0  0  0  0  0  0  0  0  0  0  0  0
   38.6842   33.2928   45.4743 H   0  0  0  0  0  0  0  0  0  0  0  0
   37.8096   30.2780   45.8238 H   0  0  0  0  0  0  0  0  0  0  0  0
   41.0448   30.9468   44.4080 H   0  0  0  0  0  0  0  0  0  0  0  0
   39.7523   29.7158   44.3022 H   0  0  0  0  0  0  0  0  0  0  0  0
   38.4996   31.2512   43.1596 H   0  0  0  0  0  0  0  0  0  0  0  0
   36.4505   32.6124   45.5858 H   0  0  0  0  0  0  0  0  0  0  0  0
   40.2182   33.3246   43.8290 H   0  0  0  0  0  0  0  0  0  0  0  0
  1 13  1  0
  2  6  1  0
  2  1  1  0
  3  2  2  0
  4  3  1  0
  4  5  1  0
  5  7  1  0
  5  6  2  0
  7 12  1  0
  8  9  1  0
  8  7  1  0
  9 10  1  0
 10 11  1  0
 12 11  1  0
 14 19  2  0
 15 14  1  0
 16 17  1  0
 16 15  2  0
 17 18  2  0
 18 13  1  0
 18 19  1  0
 20 25  1  0
 20 21  1  0
 21 16  1  0
 22 21  1  0
 23 22  1  0
 24 26  1  0
 24 23  1  0
 24 20  1  0
  1 27  1  0
  1 28  1  0
  3 29  1  0
  8 30  1  0
  8 31  1  0
  9 32  1  0
  9 33  1  0
 10 34  1  0
 11 35  1  0
 11 36  1  0
 12 37  1  0
 12 38  1  0
 13 39  1  0
 13 40  1  0
 14 41  1  0
 15 42  1  0
 20 43  1  1
 21 44  1  6
 23 45  1  0
 23 46  1  0
 24 47  1  6
 25 48  1  0
 26 49  1  0
M  ISO  8  27   8  28   8  29  14  30  13  31  13  32  13  33  13  34   5
M  ISO  8  35  13  36  13  37  13  38  13  39   8  40   8  41  14  42  14
M  ISO  7  43  13  44  13  45  13  46  13  47  13  48   3  49   3
M  END
>  <minimizedAffinity>  (1) 
-6.87504148

>  <minimizedRMSD>  (1) 
1.27000999

$$$$
