
     RDKit          3D

 51 55  0  0  1  0  0  0  0  0999 V2000
   37.9640   31.2050   47.5910 C   0  0  0  0  0  0  0  0  0  0  0  0
   37.1160   31.2540   48.6860 C   0  0  0  0  0  0  0  0  0  0  0  0
   37.3470   32.3610   49.5220 C   0  0  0  0  0  0  0  0  0  0  0  0
   38.3410   33.3000   49.2480 C   0  0  0  0  0  0  0  0  0  0  0  0
   39.1440   33.1410   48.0980 C   0  0  0  0  0  0  0  0  0  0  0  0
   38.9400   32.0680   47.2610 C   0  0  0  0  0  0  0  0  0  0  0  0
   34.9120   30.3110   48.2490 C   0  0  0  0  0  0  0  0  0  0  0  0
   36.1020   30.2970   48.9680 C   0  0  0  0  0  0  0  0  0  0  0  0
   36.2510   29.3160   49.9630 C   0  0  0  0  0  0  0  0  0  0  0  0
   35.2320   28.4440   50.1640 N   0  0  0  0  0  0  0  0  0  0  0  0
   34.0860   28.4990   49.4330 C   0  0  0  0  0  0  0  0  0  0  0  0
   33.9280   29.4250   48.4830 N   0  0  0  0  0  0  0  0  0  0  0  0
   37.5060   29.2570   50.7620 C   0  0  0  0  0  0  0  0  0  0  0  0
   37.8100   30.1260   46.6900 O   0  0  0  0  0  0  0  0  0  0  0  0
   39.7560   31.9700   46.1590 O   0  0  0  0  0  0  0  0  0  0  0  0
   39.9680   31.2420   43.7860 C   0  0  0  0  0  0  0  0  0  0  0  0
   39.3670   31.8950   44.8540 C   0  0  0  0  0  0  0  0  0  0  0  0
   38.1950   32.5920   44.6290 C   0  0  0  0  0  0  0  0  0  0  0  0
   37.6170   32.6410   43.3430 C   0  0  0  0  0  0  0  0  0  0  0  0
   36.5200   33.2170   42.8230 N   0  0  0  0  0  0  0  0  0  0  0  0
   36.4340   32.9440   41.5050 C   0  0  0  0  0  0  0  0  0  0  0  0
   37.5140   32.1750   41.2090 N   0  0  0  0  0  0  0  0  0  0  0  0
   38.2460   31.9820   42.3220 C   0  0  0  0  0  0  0  0  0  0  0  0
   39.4090   31.2850   42.5210 C   0  0  0  0  0  0  0  0  0  0  0  0
   41.1870   29.6220   41.9520 C   0  0  2  0  0  0  0  0  0  0  0  0
   40.1380   30.5470   41.4410 C   0  0  1  0  0  0  0  0  0  0  0  0
   39.2100   29.8600   40.7080 O   0  0  0  0  0  0  0  0  0  0  0  0
   39.6500   28.5540   40.5550 C   0  0  0  0  0  0  0  0  0  0  0  0
   40.5880   28.2580   41.6790 C   0  0  2  0  0  0  0  0  0  0  0  0
   41.4670   29.7980   43.3040 O   0  0  0  0  0  0  0  0  0  0  0  0
   39.9850   27.6980   42.8010 O   0  0  0  0  0  0  0  0  0  0  0  0
   36.7245   32.4902   50.4197 H   0  0  0  0  0  0  0  0  0  0  0  0
   38.4977   34.1558   49.9211 H   0  0  0  0  0  0  0  0  0  0  0  0
   39.9321   33.8741   47.8712 H   0  0  0  0  0  0  0  0  0  0  0  0
   34.7713   31.0698   47.4651 H   0  0  0  0  0  0  0  0  0  0  0  0
   33.2816   27.7740   49.6260 H   0  0  0  0  0  0  0  0  0  0  0  0
   37.2591   29.2686   51.8339 H   0  0  0  0  0  0  0  0  0  0  0  0
   38.0508   28.3322   50.5212 H   0  0  0  0  0  0  0  0  0  0  0  0
   38.1352   30.1266   50.5212 H   0  0  0  0  0  0  0  0  0  0  0  0
   38.3971   30.0565   45.8959 H   0  0  0  0  0  0  0  0  0  0  0  0
   40.9013   30.6828   43.9479 H   0  0  0  0  0  0  0  0  0  0  0  0
   37.7063   33.1156   45.4639 H   0  0  0  0  0  0  0  0  0  0  0  0
   35.8435   33.7842   43.3535 H   0  0  0  0  0  0  0  0  0  0  0  0
   35.6485   33.2766   40.8105 H   0  0  0  0  0  0  0  0  0  0  0  0
   42.1603   29.7876   41.4670 H   0  0  0  0  0  0  0  0  0  0  0  0
   40.6755   31.2827   40.8247 H   0  0  0  0  0  0  0  0  0  0  0  0
   38.7943   27.8636   40.5891 H   0  0  0  0  0  0  0  0  0  0  0  0
   40.1562   28.4282   39.5865 H   0  0  0  0  0  0  0  0  0  0  0  0
   41.3268   27.4855   41.4193 H   0  0  0  0  0  0  0  0  0  0  0  0
   40.7658   29.3572   43.8463 H   0  0  0  0  0  0  0  0  0  0  0  0
   40.3935   28.0774   43.6191 H   0  0  0  0  0  0  0  0  0  0  0  0
  1  2  2  0
  2  8  1  0
  2  3  1  0
  4  3  2  0
  5  4  1  0
  6  1  1  0
  6  5  2  0
  7 12  2  0
  7  8  1  0
  8  9  2  0
  9 10  1  0
  9 13  1  0
 11 10  2  0
 12 11  1  0
 14  1  1  0
 15  6  1  0
 16 17  2  0
 17 15  1  0
 18 17  1  0
 19 18  2  0
 20 19  1  0
 21 20  1  0
 22 21  2  0
 22 23  1  0
 23 24  2  0
 23 19  1  0
 24 16  1  0
 25 30  1  0
 26 25  1  0
 26 24  1  0
 27 26  1  0
 28 27  1  0
 28 29  1  0
 29 25  1  0
 29 31  1  0
  3 32  1  0
  4 33  1  0
  5 34  1  0
  7 35  1  0
 11 36  1  0
 13 37  1  0
 13 38  1  0
 13 39  1  0
 14 40  1  0
 16 41  1  0
 18 42  1  0
 20 43  1  0
 21 44  1  0
 25 45  1  6
 26 46  1  6
 28 47  1  0
 28 48  1  0
 29 49  1  6
 30 50  1  0
 31 51  1  0
M  ISO  8  32  14  33  14  34  14  35  14  36  14  37   8  38   8  39   8
M  ISO  8  40   3  41  14  42  14  43   9  44  14  45  13  46  13  47  13
M  ISO  4  48  13  49  13  50   3  51   3
M  END
>  <minimizedAffinity>  (1) 
-7.98764181

>  <minimizedRMSD>  (1) 
0.744205117

$$$$
