
     RDKit          3D

 53 57  0  0  1  0  0  0  0  0999 V2000
   40.4030   31.0370   43.8660 C   0  0  0  0  0  0  0  0  0  0  0  0
   39.4640   28.8160   43.3100 C   0  0  0  0  0  0  0  0  0  0  0  0
   40.3200   29.8550   42.9500 C   0  0  0  0  0  0  0  0  0  0  0  0
   41.0560   29.7600   41.7730 C   0  0  0  0  0  0  0  0  0  0  0  0
   40.9530   28.6520   40.9520 C   0  0  0  0  0  0  0  0  0  0  0  0
   41.5530   28.3460   39.7880 N   0  0  0  0  0  0  0  0  0  0  0  0
   41.0870   27.1430   39.4250 C   0  0  0  0  0  0  0  0  0  0  0  0
   40.1750   26.6420   40.3440 C   0  0  0  0  0  0  0  0  0  0  0  0
   40.1060   27.6280   41.3120 C   0  0  0  0  0  0  0  0  0  0  0  0
   39.3770   27.7090   42.4680 C   0  0  0  0  0  0  0  0  0  0  0  0
   37.4620   26.2380   41.8080 C   0  0  1  0  0  0  0  0  0  0  0  0
   38.4560   26.5890   42.8620 C   0  0  1  0  0  0  0  0  0  0  0  0
   39.2250   25.4940   43.1560 O   0  0  0  0  0  0  0  0  0  0  0  0
   38.4420   24.3620   42.9550 C   0  0  0  0  0  0  0  0  0  0  0  0
   37.4010   24.7140   41.9330 C   0  0  1  0  0  0  0  0  0  0  0  0
   36.1930   26.7820   42.0300 O   0  0  0  0  0  0  0  0  0  0  0  0
   36.1490   24.3540   42.4790 O   0  0  0  0  0  0  0  0  0  0  0  0
   39.5670   30.7270   45.0950 C   0  0  0  0  0  0  0  0  0  0  0  0
   38.7650   32.2630   46.9290 C   0  0  1  0  0  0  0  0  0  0  0  0
   39.8830   33.0330   46.2630 C   0  0  0  0  0  0  0  0  0  0  0  0
   39.8870   31.5580   46.2850 C   0  0  2  0  0  0  0  0  0  0  0  0
   38.7010   32.4030   48.4280 C   0  0  0  0  0  0  0  0  0  0  0  0
   37.4380   30.0180   51.0110 C   0  0  0  0  0  0  0  0  0  0  0  0
   38.1500   31.0860   50.3790 C   0  0  0  0  0  0  0  0  0  0  0  0
   37.9540   31.2970   49.0480 C   0  0  0  0  0  0  0  0  0  0  0  0
   37.1030   30.4920   48.3970 N   0  0  0  0  0  0  0  0  0  0  0  0
   36.4360   29.4930   48.9840 C   0  0  0  0  0  0  0  0  0  0  0  0
   36.6160   29.2710   50.2870 N   0  0  0  0  0  0  0  0  0  0  0  0
   40.0092   31.9312   43.3606 H   0  0  0  0  0  0  0  0  0  0  0  0
   41.4477   31.2326   44.1495 H   0  0  0  0  0  0  0  0  0  0  0  0
   38.8719   28.8683   44.2355 H   0  0  0  0  0  0  0  0  0  0  0  0
   41.7317   30.5808   41.4906 H   0  0  0  0  0  0  0  0  0  0  0  0
   42.2361   28.9226   39.2763 H   0  0  0  0  0  0  0  0  0  0  0  0
   41.3908   26.6157   38.5086 H   0  0  0  0  0  0  0  0  0  0  0  0
   39.6338   25.6849   40.3104 H   0  0  0  0  0  0  0  0  0  0  0  0
   37.7543   26.6250   40.8207 H   0  0  0  0  0  0  0  0  0  0  0  0
   37.8711   26.9226   43.7318 H   0  0  0  0  0  0  0  0  0  0  0  0
   39.0654   23.5337   42.5872 H   0  0  0  0  0  0  0  0  0  0  0  0
   37.9708   24.0427   43.8963 H   0  0  0  0  0  0  0  0  0  0  0  0
   37.5512   24.2161   40.9637 H   0  0  0  0  0  0  0  0  0  0  0  0
   36.0297   26.8520   43.0039 H   0  0  0  0  0  0  0  0  0  0  0  0
   36.2032   24.3696   43.4674 H   0  0  0  0  0  0  0  0  0  0  0  0
   38.5089   30.8860   44.8396 H   0  0  0  0  0  0  0  0  0  0  0  0
   39.7917   29.6862   45.3712 H   0  0  0  0  0  0  0  0  0  0  0  0
   37.6724   32.1704   46.8412 H   0  0  0  0  0  0  0  0  0  0  0  0
   40.6050   33.5966   46.8722 H   0  0  0  0  0  0  0  0  0  0  0  0
   39.9452   33.8047   45.4816 H   0  0  0  0  0  0  0  0  0  0  0  0
   40.6591   30.8335   46.5833 H   0  0  0  0  0  0  0  0  0  0  0  0
   39.7252   32.4101   48.8291 H   0  0  0  0  0  0  0  0  0  0  0  0
   38.1787   33.3424   48.6620 H   0  0  0  0  0  0  0  0  0  0  0  0
   37.5710   29.8190   52.0847 H   0  0  0  0  0  0  0  0  0  0  0  0
   38.8392   31.7215   50.9544 H   0  0  0  0  0  0  0  0  0  0  0  0
   35.7484   28.8629   48.4007 H   0  0  0  0  0  0  0  0  0  0  0  0
  1 18  1  0
  3  2  2  0
  3  1  1  0
  4  3  1  0
  5  9  1  0
  5  4  2  0
  6  5  1  0
  7  6  1  0
  7  8  2  0
  8  9  1  0
  9 10  2  0
 10  2  1  0
 11 15  1  0
 11 16  1  0
 11 12  1  0
 12 10  1  0
 12 13  1  0
 14 13  1  0
 15 17  1  0
 15 14  1  0
 18 21  1  0
 19 22  1  0
 20 21  1  0
 20 19  1  0
 21 19  1  0
 22 25  1  0
 24 23  2  0
 25 24  1  0
 26 27  1  0
 26 25  2  0
 27 28  2  0
 28 23  1  0
  1 29  1  0
  1 30  1  0
  2 31  1  0
  4 32  1  0
  6 33  1  0
  7 34  1  0
  8 35  1  0
 11 36  1  6
 12 37  1  1
 14 38  1  0
 14 39  1  0
 15 40  1  6
 16 41  1  0
 17 42  1  0
 18 43  1  0
 18 44  1  0
 19 45  1  6
 20 46  1  0
 20 47  1  0
 21 48  1  1
 22 49  1  0
 22 50  1  0
 23 51  1  0
 24 52  1  0
 27 53  1  0
M  ISO  8  29   8  30   8  31  14  32  14  33   9  34  14  35  14  36  13
M  ISO  8  37  13  38  13  39  13  40  13  41   3  42   3  43   8  44   8
M  ISO  8  45  13  46  13  47  13  48  13  49   8  50   8  51  14  52  14
M  ISO  1  53  14
M  END
>  <minimizedAffinity>  (1) 
-5.95466948

>  <minimizedRMSD>  (1) 
0.349287748

$$$$
