
     RDKit          3D

 24 25  0  0  1  0  0  0  0  0999 V2000
   37.4020   29.8990   50.9640 C   0  0  0  0  0  0  0  0  0  0  0  0
   37.9700   30.9840   50.2950 C   0  0  0  0  0  0  0  0  0  0  0  0
   37.5320   31.2610   49.0040 C   0  0  0  0  0  0  0  0  0  0  0  0
   36.5790   30.4620   48.4640 N   0  0  0  0  0  0  0  0  0  0  0  0
   36.0440   29.4090   49.1410 C   0  0  0  0  0  0  0  0  0  0  0  0
   36.4610   29.1430   50.3730 N   0  0  0  0  0  0  0  0  0  0  0  0
   34.2140   29.3180   47.4390 C   0  0  1  0  0  0  0  0  0  0  0  0
   35.0160   28.5870   48.4960 C   0  0  2  0  0  0  0  0  0  0  0  0
   34.0980   28.0150   49.3660 O   0  0  0  0  0  0  0  0  0  0  0  0
   32.8370   28.0990   48.7930 C   0  0  0  0  0  0  0  0  0  0  0  0
   33.0900   28.2800   47.2890 C   0  0  2  0  0  0  0  0  0  0  0  0
   33.6020   30.4590   47.9140 O   0  0  0  0  0  0  0  0  0  0  0  0
   33.5700   27.0700   46.8220 O   0  0  0  0  0  0  0  0  0  0  0  0
   37.9360   29.7420   52.2470 O   0  0  0  0  0  0  0  0  0  0  0  0
   38.7424   31.6029   50.7750 H   0  0  0  0  0  0  0  0  0  0  0  0
   37.9480   32.1062   48.4361 H   0  0  0  0  0  0  0  0  0  0  0  0
   34.8102   29.6232   46.5665 H   0  0  0  0  0  0  0  0  0  0  0  0
   35.6278   27.7978   48.0346 H   0  0  0  0  0  0  0  0  0  0  0  0
   32.2660   27.1776   48.9801 H   0  0  0  0  0  0  0  0  0  0  0  0
   32.2483   28.9275   49.2137 H   0  0  0  0  0  0  0  0  0  0  0  0
   32.2645   28.5670   46.6210 H   0  0  0  0  0  0  0  0  0  0  0  0
   33.6075   30.4487   48.9039 H   0  0  0  0  0  0  0  0  0  0  0  0
   33.8008   26.4883   47.5891 H   0  0  0  0  0  0  0  0  0  0  0  0
   37.6181   29.0069   52.8290 H   0  0  0  0  0  0  0  0  0  0  0  0
  1 14  1  0
  2  1  2  0
  3  2  1  0
  4  3  2  0
  4  5  1  0
  5  6  2  0
  6  1  1  0
  7 12  1  0
  7  8  1  0
  8  5  1  0
  8  9  1  0
 10  9  1  0
 11 13  1  0
 11  7  1  0
 11 10  1  0
  2 15  1  0
  3 16  1  0
  7 17  1  6
  8 18  1  6
 10 19  1  0
 10 20  1  0
 11 21  1  6
 12 22  1  0
 13 23  1  0
 14 24  1  0
M  ISO  8  15  14  16  14  17  13  18  13  19  13  20  13  21  13  22   3
M  ISO  2  23   3  24   3
M  END
>  <minimizedAffinity>  (1) 
-4.86812115

>  <minimizedRMSD>  (1) 
1.58524895

$$$$
