
     RDKit          3D

 30 32  0  0  1  0  0  0  0  0999 V2000
   36.3580   30.1980   48.2330 C   0  0  0  0  0  0  0  0  0  0  0  0
   35.0640   29.5560   48.2410 C   0  0  0  0  0  0  0  0  0  0  0  0
   35.1840   30.8960   48.8800 C   0  0  0  0  0  0  0  0  0  0  0  0
   38.3920   32.3480   46.0170 C   0  0  0  0  0  0  0  0  0  0  0  0
   37.9110   32.0230   44.7470 C   0  0  0  0  0  0  0  0  0  0  0  0
   36.8980   31.0640   44.6230 C   0  0  0  0  0  0  0  0  0  0  0  0
   36.4470   30.5100   45.7620 N   0  0  0  0  0  0  0  0  0  0  0  0
   36.9250   30.8350   47.0000 C   0  0  0  0  0  0  0  0  0  0  0  0
   37.9070   31.7630   47.1230 N   0  0  0  0  0  0  0  0  0  0  0  0
   37.6090   30.7240   50.3580 C   0  0  1  0  0  0  0  0  0  0  0  0
   37.3830   29.7160   49.2610 C   0  0  1  0  0  0  0  0  0  0  0  0
   36.8620   28.5780   49.8720 O   0  0  0  0  0  0  0  0  0  0  0  0
   37.4580   28.4730   51.1120 C   0  0  0  0  0  0  0  0  0  0  0  0
   37.7150   29.8770   51.5850 C   0  0  2  0  0  0  0  0  0  0  0  0
   38.8730   31.3150   50.1430 O   0  0  0  0  0  0  0  0  0  0  0  0
   36.8620   30.2890   52.6040 O   0  0  0  0  0  0  0  0  0  0  0  0
   34.5033   29.4495   47.3007 H   0  0  0  0  0  0  0  0  0  0  0  0
   34.6973   28.5759   48.5800 H   0  0  0  0  0  0  0  0  0  0  0  0
   35.1308   30.9978   49.9740 H   0  0  0  0  0  0  0  0  0  0  0  0
   34.6861   31.8712   48.7744 H   0  0  0  0  0  0  0  0  0  0  0  0
   39.1875   33.1016   46.1131 H   0  0  0  0  0  0  0  0  0  0  0  0
   38.3233   32.5149   43.8537 H   0  0  0  0  0  0  0  0  0  0  0  0
   36.4912   30.7780   43.6418 H   0  0  0  0  0  0  0  0  0  0  0  0
   36.8326   31.5012   50.4145 H   0  0  0  0  0  0  0  0  0  0  0  0
   38.3329   29.5386   48.7355 H   0  0  0  0  0  0  0  0  0  0  0  0
   36.7879   27.9531   51.8125 H   0  0  0  0  0  0  0  0  0  0  0  0
   38.3928   27.8959   51.0554 H   0  0  0  0  0  0  0  0  0  0  0  0
   38.7072   29.9593   52.0528 H   0  0  0  0  0  0  0  0  0  0  0  0
   39.2972   31.5133   51.0152 H   0  0  0  0  0  0  0  0  0  0  0  0
   37.2753   30.0894   53.4812 H   0  0  0  0  0  0  0  0  0  0  0  0
  1  2  1  0
  1  3  1  0
  2  3  1  0
  4  9  2  0
  5  4  1  0
  6  5  2  0
  6  7  1  0
  7  8  2  0
  8  9  1  0
  8  1  1  0
 10 15  1  0
 10 14  1  0
 11  1  1  0
 11 12  1  0
 11 10  1  0
 12 13  1  0
 13 14  1  0
 14 16  1  0
  2 17  1  0
  2 18  1  0
  3 19  1  0
  3 20  1  0
  4 21  1  0
  5 22  1  0
  6 23  1  0
 10 24  1  1
 11 25  1  6
 13 26  1  0
 13 27  1  0
 14 28  1  1
 15 29  1  0
 16 30  1  0
M  ISO  8  17  13  18  13  19  13  20  13  21  14  22  14  23  14  24  13
M  ISO  6  25  13  26  13  27  13  28  13  29   3  30   3
M  END
>  <minimizedAffinity>  (1) 
-3.75820541

>  <minimizedRMSD>  (1) 
2.82335377

$$$$
