
     RDKit          3D

 24 25  0  0  1  0  0  0  0  0999 V2000
   36.8380   30.8970   49.4270 C   0  0  0  0  0  0  0  0  0  0  0  0
   35.7290   30.3020   48.7970 C   0  0  0  0  0  0  0  0  0  0  0  0
   35.0110   29.3340   49.5090 C   0  0  0  0  0  0  0  0  0  0  0  0
   35.4230   29.0210   50.7660 N   0  0  0  0  0  0  0  0  0  0  0  0
   36.5050   29.6160   51.3540 C   0  0  0  0  0  0  0  0  0  0  0  0
   37.2000   30.5420   50.6860 N   0  0  0  0  0  0  0  0  0  0  0  0
   33.9350   30.0400   47.0810 C   0  0  2  0  0  0  0  0  0  0  0  0
   35.2610   30.6160   47.4450 C   0  0  2  0  0  0  0  0  0  0  0  0
   36.2000   30.1970   46.5270 O   0  0  0  0  0  0  0  0  0  0  0  0
   35.5460   29.8470   45.3650 C   0  0  0  0  0  0  0  0  0  0  0  0
   34.1630   29.3870   45.7420 C   0  0  1  0  0  0  0  0  0  0  0  0
   32.9850   31.0450   46.8960 O   0  0  0  0  0  0  0  0  0  0  0  0
   34.1540   28.0030   45.8750 O   0  0  0  0  0  0  0  0  0  0  0  0
   37.4490   31.8340   48.6010 O   0  0  0  0  0  0  0  0  0  0  0  0
   34.1358   28.8393   49.0627 H   0  0  0  0  0  0  0  0  0  0  0  0
   36.8027   29.3331   52.3745 H   0  0  0  0  0  0  0  0  0  0  0  0
   33.5716   29.3600   47.8656 H   0  0  0  0  0  0  0  0  0  0  0  0
   35.1267   31.7077   47.4295 H   0  0  0  0  0  0  0  0  0  0  0  0
   36.0874   29.0332   44.8604 H   0  0  0  0  0  0  0  0  0  0  0  0
   35.4941   30.7043   44.6777 H   0  0  0  0  0  0  0  0  0  0  0  0
   33.3935   29.6465   45.0000 H   0  0  0  0  0  0  0  0  0  0  0  0
   32.6753   31.3726   47.7774 H   0  0  0  0  0  0  0  0  0  0  0  0
   34.1524   27.7638   46.8357 H   0  0  0  0  0  0  0  0  0  0  0  0
   37.0878   32.0057   47.6954 H   0  0  0  0  0  0  0  0  0  0  0  0
  1  6  2  0
  2  1  1  0
  2  3  2  0
  3  4  1  0
  4  5  2  0
  6  5  1  0
  7 12  1  0
  7  8  1  0
  8  2  1  0
  9  8  1  0
 10 11  1  0
 10  9  1  0
 11 13  1  0
 11  7  1  0
 14  1  1  0
  3 15  1  0
  5 16  1  0
  7 17  1  1
  8 18  1  1
 10 19  1  0
 10 20  1  0
 11 21  1  6
 12 22  1  0
 13 23  1  0
 14 24  1  0
M  ISO  8  15  14  16  14  17  13  18  13  19  13  20  13  21  13  22   3
M  ISO  2  23   3  24   3
M  END
>  <minimizedAffinity>  (1) 
-4.08955479

>  <minimizedRMSD>  (1) 
6.04846001

$$$$
