
     RDKit          3D

 36 39  0  0  1  0  0  0  0  0999 V2000
   37.9780   32.7350   49.3480 C   0  0  0  0  0  0  0  0  0  0  0  0
   38.8070   32.7860   48.2020 C   0  0  0  0  0  0  0  0  0  0  0  0
   38.5070   31.8790   47.1710 C   0  0  0  0  0  0  0  0  0  0  0  0
   37.4650   31.0170   47.3090 N   0  0  0  0  0  0  0  0  0  0  0  0
   36.7000   31.0020   48.4160 C   0  0  0  0  0  0  0  0  0  0  0  0
   36.9640   31.8560   49.4140 N   0  0  0  0  0  0  0  0  0  0  0  0
   35.6360   29.0650   49.4870 C   0  0  0  0  0  0  0  0  0  0  0  0
   35.6010   30.0590   48.5040 C   0  0  0  0  0  0  0  0  0  0  0  0
   34.5400   30.1420   47.6330 C   0  0  0  0  0  0  0  0  0  0  0  0
   33.4960   29.2440   47.7200 C   0  0  0  0  0  0  0  0  0  0  0  0
   32.3540   29.1130   46.9940 N   0  0  0  0  0  0  0  0  0  0  0  0
   31.7350   28.0400   47.5650 C   0  0  0  0  0  0  0  0  0  0  0  0
   32.4620   27.5480   48.5800 N   0  0  0  0  0  0  0  0  0  0  0  0
   33.5770   28.2840   48.7030 C   0  0  0  0  0  0  0  0  0  0  0  0
   34.6000   28.1530   49.5930 C   0  0  0  0  0  0  0  0  0  0  0  0
   38.6090   32.1570   44.7080 C   0  0  2  0  0  0  0  0  0  0  0  0
   39.3730   31.9270   45.9700 C   0  0  1  0  0  0  0  0  0  0  0  0
   40.2920   32.9710   46.0840 O   0  0  0  0  0  0  0  0  0  0  0  0
   40.7250   33.1720   44.7580 C   0  0  0  0  0  0  0  0  0  0  0  0
   39.4030   33.2510   44.0260 C   0  0  1  0  0  0  0  0  0  0  0  0
   37.2860   32.5160   44.9120 O   0  0  0  0  0  0  0  0  0  0  0  0
   39.5470   32.9510   42.6730 O   0  0  0  0  0  0  0  0  0  0  0  0
   38.1649   33.4187   50.1892 H   0  0  0  0  0  0  0  0  0  0  0  0
   39.6419   33.4978   48.1224 H   0  0  0  0  0  0  0  0  0  0  0  0
   36.4897   29.0076   50.1784 H   0  0  0  0  0  0  0  0  0  0  0  0
   34.5235   30.9278   46.8635 H   0  0  0  0  0  0  0  0  0  0  0  0
   32.0328   29.6872   46.2016 H   0  0  0  0  0  0  0  0  0  0  0  0
   30.7677   27.6319   47.2368 H   0  0  0  0  0  0  0  0  0  0  0  0
   34.6027   27.3622   50.3576 H   0  0  0  0  0  0  0  0  0  0  0  0
   38.5186   31.2399   44.1074 H   0  0  0  0  0  0  0  0  0  0  0  0
   39.8669   30.9456   45.9168 H   0  0  0  0  0  0  0  0  0  0  0  0
   41.2976   34.1059   44.6581 H   0  0  0  0  0  0  0  0  0  0  0  0
   41.4036   32.3924   44.3816 H   0  0  0  0  0  0  0  0  0  0  0  0
   38.9459   34.2509   44.0632 H   0  0  0  0  0  0  0  0  0  0  0  0
   37.1036   32.5655   45.8838 H   0  0  0  0  0  0  0  0  0  0  0  0
   39.9733   32.0628   42.5755 H   0  0  0  0  0  0  0  0  0  0  0  0
  1  6  2  0
  2  1  1  0
  3  4  1  0
  3  2  2  0
  4  5  2  0
  5  8  1  0
  5  6  1  0
  7 15  2  0
  8  7  1  0
  9 10  1  0
  9  8  2  0
 10 14  2  0
 11 12  1  0
 11 10  1  0
 12 13  2  0
 13 14  1  0
 14 15  1  0
 16 21  1  0
 16 17  1  0
 17 18  1  0
 17  3  1  0
 19 18  1  0
 20 22  1  0
 20 16  1  0
 20 19  1  0
  1 23  1  0
  2 24  1  0
  7 25  1  0
  9 26  1  0
 11 27  1  0
 12 28  1  0
 15 29  1  0
 16 30  1  6
 17 31  1  6
 19 32  1  0
 19 33  1  0
 20 34  1  6
 21 35  1  0
 22 36  1  0
M  ISO  8  23  14  24  14  25  14  26  14  27   9  28  14  29  14  30  13
M  ISO  6  31  13  32  13  33  13  34  13  35   3  36   3
M  END
>  <minimizedAffinity>  (1) 
-7.05099869

>  <minimizedRMSD>  (1) 
2.16002536

$$$$
