
     RDKit          3D

 30 32  0  0  1  0  0  0  0  0999 V2000
   36.0180   30.1300   48.8380 C   0  0  0  0  0  0  0  0  0  0  0  0
   35.9730   29.1480   49.8120 C   0  0  0  0  0  0  0  0  0  0  0  0
   34.8650   28.3690   49.6120 C   0  0  0  0  0  0  0  0  0  0  0  0
   34.2480   28.8810   48.5200 N   0  0  0  0  0  0  0  0  0  0  0  0
   34.9460   29.9330   48.0680 N   0  0  0  0  0  0  0  0  0  0  0  0
   38.0410   33.1410   49.4090 C   0  0  0  0  0  0  0  0  0  0  0  0
   38.9800   33.0650   48.3560 C   0  0  0  0  0  0  0  0  0  0  0  0
   38.9050   31.9860   47.4700 C   0  0  0  0  0  0  0  0  0  0  0  0
   37.9300   31.0630   47.6680 N   0  0  0  0  0  0  0  0  0  0  0  0
   37.0360   31.1630   48.6950 C   0  0  0  0  0  0  0  0  0  0  0  0
   37.1090   32.1880   49.5330 N   0  0  0  0  0  0  0  0  0  0  0  0
   32.5640   28.9350   46.7230 C   0  0  1  0  0  0  0  0  0  0  0  0
   33.0240   28.3030   48.0040 C   0  0  1  0  0  0  0  0  0  0  0  0
   33.1480   26.9320   47.7890 O   0  0  0  0  0  0  0  0  0  0  0  0
   33.6870   26.8990   46.4860 C   0  0  0  0  0  0  0  0  0  0  0  0
   32.6240   27.7400   45.7680 C   0  0  2  0  0  0  0  0  0  0  0  0
   31.2410   29.4060   46.8000 O   0  0  0  0  0  0  0  0  0  0  0  0
   32.9940   28.0970   44.4920 O   0  0  0  0  0  0  0  0  0  0  0  0
   36.7096   29.0146   50.6180 H   0  0  0  0  0  0  0  0  0  0  0  0
   34.5426   27.5062   50.2134 H   0  0  0  0  0  0  0  0  0  0  0  0
   38.0755   33.9777   50.1222 H   0  0  0  0  0  0  0  0  0  0  0  0
   39.7533   33.8380   48.2359 H   0  0  0  0  0  0  0  0  0  0  0  0
   39.6159   31.8880   46.6363 H   0  0  0  0  0  0  0  0  0  0  0  0
   33.1648   29.8104   46.4356 H   0  0  0  0  0  0  0  0  0  0  0  0
   32.2733   28.4991   48.7838 H   0  0  0  0  0  0  0  0  0  0  0  0
   34.6826   27.3644   46.4391 H   0  0  0  0  0  0  0  0  0  0  0  0
   33.8586   25.8955   46.0693 H   0  0  0  0  0  0  0  0  0  0  0  0
   31.6650   27.2289   45.5972 H   0  0  0  0  0  0  0  0  0  0  0  0
   30.9787   29.4994   47.7500 H   0  0  0  0  0  0  0  0  0  0  0  0
   33.7058   28.7838   44.5348 H   0  0  0  0  0  0  0  0  0  0  0  0
  1  2  1  0
  3  2  2  0
  4  3  1  0
  5  4  1  0
  5  1  2  0
  6 11  2  0
  7  6  1  0
  8  9  1  0
  8  7  2  0
  9 10  2  0
 10  1  1  0
 10 11  1  0
 12 17  1  0
 12 13  1  0
 13  4  1  0
 14 13  1  0
 15 14  1  0
 16 18  1  0
 16 15  1  0
 16 12  1  0
  2 19  1  0
  3 20  1  0
  6 21  1  0
  7 22  1  0
  8 23  1  0
 12 24  1  6
 13 25  1  1
 15 26  1  0
 15 27  1  0
 16 28  1  6
 17 29  1  0
 18 30  1  0
M  ISO  8  19  14  20  14  21  14  22  14  23  14  24  13  25  13  26  13
M  ISO  4  27  13  28  13  29   3  30   3
M  END
>  <minimizedAffinity>  (1) 
-5.05058384

>  <minimizedRMSD>  (1) 
2.31773949

$$$$
