
     RDKit          3D

 45 48  0  0  1  0  0  0  0  0999 V2000
   37.6650   30.4020   51.0560 C   0  0  0  0  0  0  0  0  0  0  0  0
   38.2100   30.8510   49.8420 C   0  0  0  0  0  0  0  0  0  0  0  0
   37.5790   30.4670   48.6810 C   0  0  0  0  0  0  0  0  0  0  0  0
   36.4880   29.6930   48.7820 N   0  0  0  0  0  0  0  0  0  0  0  0
   35.9730   29.2680   49.9460 C   0  0  0  0  0  0  0  0  0  0  0  0
   36.5630   29.6240   51.0850 N   0  0  0  0  0  0  0  0  0  0  0  0
   38.0260   30.8720   47.3610 C   0  0  0  0  0  0  0  0  0  0  0  0
   37.4870   30.3070   46.2090 C   0  0  0  0  0  0  0  0  0  0  0  0
   37.8720   30.6660   44.9500 C   0  0  0  0  0  0  0  0  0  0  0  0
   38.8270   31.6200   44.8010 N   0  0  0  0  0  0  0  0  0  0  0  0
   39.3370   32.1540   45.9120 C   0  0  0  0  0  0  0  0  0  0  0  0
   38.9750   31.8180   47.1620 N   0  0  0  0  0  0  0  0  0  0  0  0
   40.3840   33.2020   45.7780 C   0  0  0  0  0  0  0  0  0  0  0  0
   40.3790   33.9530   46.9640 F   0  0  0  0  0  0  0  0  0  0  0  0
   41.6080   32.6590   45.5420 F   0  0  0  0  0  0  0  0  0  0  0  0
   40.0740   34.1170   44.7860 F   0  0  0  0  0  0  0  0  0  0  0  0
   34.8350   28.4700   49.8740 O   0  0  0  0  0  0  0  0  0  0  0  0
   33.5970   26.8790   46.8040 N   0  0  0  0  0  0  0  0  0  0  0  0
   34.1830   26.9620   48.0070 C   0  0  0  0  0  0  0  0  0  0  0  0
   34.2760   28.1730   48.6500 C   0  0  0  0  0  0  0  0  0  0  0  0
   33.7480   29.2800   48.0140 C   0  0  0  0  0  0  0  0  0  0  0  0
   33.7100   30.4840   48.4140 O   0  0  0  0  0  0  0  0  0  0  0  0
   33.1670   29.1710   46.8040 N   0  0  0  0  0  0  0  0  0  0  0  0
   33.0890   27.9460   46.1890 C   0  0  0  0  0  0  0  0  0  0  0  0
   32.5540   27.7650   45.0570 O   0  0  0  0  0  0  0  0  0  0  0  0
   33.0910   30.4930   44.6870 C   0  0  1  0  0  0  0  0  0  0  0  0
   32.5890   30.2310   46.0420 C   0  0  1  0  0  0  0  0  0  0  0  0
   31.2270   30.0940   45.8290 O   0  0  0  0  0  0  0  0  0  0  0  0
   30.8810   31.1170   44.9860 C   0  0  0  0  0  0  0  0  0  0  0  0
   32.1680   31.6950   44.3830 C   0  0  2  0  0  0  0  0  0  0  0  0
   34.4220   30.8830   44.6030 O   0  0  0  0  0  0  0  0  0  0  0  0
   32.0290   31.8560   42.9990 O   0  0  0  0  0  0  0  0  0  0  0  0
   38.1462   30.6904   52.0022 H   0  0  0  0  0  0  0  0  0  0  0  0
   39.1079   31.4860   49.8201 H   0  0  0  0  0  0  0  0  0  0  0  0
   36.7128   29.5333   46.3187 H   0  0  0  0  0  0  0  0  0  0  0  0
   37.4159   30.1900   44.0694 H   0  0  0  0  0  0  0  0  0  0  0  0
   33.5377   25.9611   46.3405 H   0  0  0  0  0  0  0  0  0  0  0  0
   34.5910   26.0572   48.4812 H   0  0  0  0  0  0  0  0  0  0  0  0
   33.0721   29.6158   44.0235 H   0  0  0  0  0  0  0  0  0  0  0  0
   32.8817   31.0515   46.7137 H   0  0  0  0  0  0  0  0  0  0  0  0
   30.2321   30.7356   44.1838 H   0  0  0  0  0  0  0  0  0  0  0  0
   30.3354   31.8968   45.5376 H   0  0  0  0  0  0  0  0  0  0  0  0
   32.4901   32.6770   44.7597 H   0  0  0  0  0  0  0  0  0  0  0  0
   34.7923   30.9915   45.5147 H   0  0  0  0  0  0  0  0  0  0  0  0
   31.3934   32.5922   42.8146 H   0  0  0  0  0  0  0  0  0  0  0  0
  1  6  2  0
  2  1  1  0
  3  4  1  0
  3  2  2  0
  4  5  2  0
  5  6  1  0
  7  3  1  0
  8  7  2  0
  9  8  1  0
 10  9  2  0
 10 11  1  0
 11 12  2  0
 12  7  1  0
 13 11  1  0
 13 14  1  0
 15 13  1  0
 16 13  1  0
 17  5  1  0
 18 19  1  0
 19 20  2  0
 20 17  1  0
 21 22  2  0
 21 20  1  0
 23 21  1  0
 24 18  1  0
 24 23  1  0
 25 24  2  0
 26 31  1  0
 26 27  1  0
 27 23  1  0
 28 27  1  0
 29 28  1  0
 30 32  1  0
 30 26  1  0
 30 29  1  0
  1 33  1  0
  2 34  1  0
  8 35  1  0
  9 36  1  0
 18 37  1  0
 19 38  1  0
 26 39  1  6
 27 40  1  1
 29 41  1  0
 29 42  1  0
 30 43  1  1
 31 44  1  0
 32 45  1  0
M  ISO  8  33  14  34  14  35  14  36  14  37   9  38  14  39  13  40  13
M  ISO  5  41  13  42  13  43  13  44   3  45   3
M  END
>  <minimizedAffinity>  (1) 
-6.76273394

>  <minimizedRMSD>  (1) 
1.17605495

$$$$
