
     RDKit          3D

 43 46  0  0  1  0  0  0  0  0999 V2000
   33.7900   28.9490   47.2880 C   0  0  2  0  0  0  0  0  0  0  0  0
   34.5650   28.1440   48.3190 C   0  0  2  0  0  0  0  0  0  0  0  0
   33.6970   27.9260   49.3450 O   0  0  0  0  0  0  0  0  0  0  0  0
   32.4100   27.9990   48.9140 C   0  0  0  0  0  0  0  0  0  0  0  0
   32.4230   28.2710   47.4250 C   0  0  1  0  0  0  0  0  0  0  0  0
   35.6480   30.3850   49.0190 C   0  0  1  0  0  0  0  0  0  0  0  0
   35.7380   28.9730   48.7360 C   0  0  1  0  0  0  0  0  0  0  0  0
   35.9360   29.3910   50.1550 C   0  0  0  0  0  0  0  0  0  0  0  0
   36.8260   31.3140   48.7770 C   0  0  0  0  0  0  0  0  0  0  0  0
   37.0790   32.3050   49.7270 C   0  0  0  0  0  0  0  0  0  0  0  0
   38.1440   33.1350   49.4510 C   0  0  0  0  0  0  0  0  0  0  0  0
   38.8870   32.9740   48.3090 N   0  0  0  0  0  0  0  0  0  0  0  0
   38.6080   32.0000   47.4080 C   0  0  0  0  0  0  0  0  0  0  0  0
   37.5630   31.1590   47.6470 N   0  0  0  0  0  0  0  0  0  0  0  0
   34.2850   28.8400   46.0040 O   0  0  0  0  0  0  0  0  0  0  0  0
   31.4080   29.0720   46.9830 O   0  0  0  0  0  0  0  0  0  0  0  0
   29.2360   28.2320   47.3140 C   0  0  2  0  0  0  0  0  0  0  0  0
   30.3800   28.3980   46.3560 C   0  0  1  0  0  0  0  0  0  0  0  0
   29.9320   29.1790   45.3040 O   0  0  0  0  0  0  0  0  0  0  0  0
   28.5670   29.1220   45.2630 C   0  0  0  0  0  0  0  0  0  0  0  0
   28.0590   28.2440   46.3600 C   0  0  2  0  0  0  0  0  0  0  0  0
   29.1340   29.2720   48.2300 O   0  0  0  0  0  0  0  0  0  0  0  0
   26.9070   28.7320   46.9670 O   0  0  0  0  0  0  0  0  0  0  0  0
   33.8148   30.0358   47.4562 H   0  0  0  0  0  0  0  0  0  0  0  0
   34.9440   27.1798   47.9492 H   0  0  0  0  0  0  0  0  0  0  0  0
   31.8961   27.0472   49.1139 H   0  0  0  0  0  0  0  0  0  0  0  0
   31.8782   28.8042   49.4421 H   0  0  0  0  0  0  0  0  0  0  0  0
   32.2729   27.3667   46.8170 H   0  0  0  0  0  0  0  0  0  0  0  0
   34.8924   31.1326   48.7360 H   0  0  0  0  0  0  0  0  0  0  0  0
   36.3301   28.3889   48.0161 H   0  0  0  0  0  0  0  0  0  0  0  0
   36.9332   29.3445   50.6169 H   0  0  0  0  0  0  0  0  0  0  0  0
   35.4868   29.1425   51.1278 H   0  0  0  0  0  0  0  0  0  0  0  0
   36.4689   32.4161   50.6355 H   0  0  0  0  0  0  0  0  0  0  0  0
   38.4021   33.9383   50.1567 H   0  0  0  0  0  0  0  0  0  0  0  0
   39.2161   31.8904   46.4979 H   0  0  0  0  0  0  0  0  0  0  0  0
   35.2512   28.6272   46.0398 H   0  0  0  0  0  0  0  0  0  0  0  0
   29.3273   27.3348   47.9438 H   0  0  0  0  0  0  0  0  0  0  0  0
   30.7349   27.4163   46.0092 H   0  0  0  0  0  0  0  0  0  0  0  0
   28.1562   30.1348   45.3873 H   0  0  0  0  0  0  0  0  0  0  0  0
   28.2519   28.7079   44.2939 H   0  0  0  0  0  0  0  0  0  0  0  0
   27.7508   27.2494   46.0053 H   0  0  0  0  0  0  0  0  0  0  0  0
   29.1698   28.9067   49.1494 H   0  0  0  0  0  0  0  0  0  0  0  0
   27.0088   28.6889   47.9508 H   0  0  0  0  0  0  0  0  0  0  0  0
  1  5  1  0
  1  2  1  0
  2  7  1  0
  2  3  1  0
  4  3  1  0
  5  4  1  0
  6  8  1  0
  7  6  1  0
  7  8  1  0
  9  6  1  0
  9 10  2  0
 11 10  1  0
 12 11  2  0
 13 14  2  0
 13 12  1  0
 14  9  1  0
 15  1  1  0
 16  5  1  0
 17 22  1  0
 18 16  1  0
 18 17  1  0
 19 18  1  0
 20 19  1  0
 20 21  1  0
 21 23  1  0
 21 17  1  0
  1 24  1  1
  2 25  1  6
  4 26  1  0
  4 27  1  0
  5 28  1  6
  6 29  1  1
  7 30  1  6
  8 31  1  0
  8 32  1  0
 10 33  1  0
 11 34  1  0
 13 35  1  0
 15 36  1  0
 17 37  1  1
 18 38  1  6
 20 39  1  0
 20 40  1  0
 21 41  1  6
 22 42  1  0
 23 43  1  0
M  ISO  8  24  13  25  13  26  13  27  13  28  13  29  13  30  13  31  13
M  ISO  8  32  13  33  14  34  14  35  14  36   3  37  13  38  13  39  13
M  ISO  4  40  13  41  13  42   3  43   3
M  END
>  <minimizedAffinity>  (1) 
-5.5028162

>  <minimizedRMSD>  (1) 
1.02790451

$$$$
