
     RDKit          3D

 37 39  0  0  1  0  0  0  0  0999 V2000
   32.3860   28.2950   47.5990 C   0  0  2  0  0  0  0  0  0  0  0  0
   33.6710   28.3200   48.3990 C   0  0  1  0  0  0  0  0  0  0  0  0
   34.2390   27.0770   48.3230 O   0  0  0  0  0  0  0  0  0  0  0  0
   33.5560   26.3280   47.3920 C   0  0  0  0  0  0  0  0  0  0  0  0
   32.7910   27.3110   46.5260 C   0  0  1  0  0  0  0  0  0  0  0  0
   32.0780   29.5520   47.0990 O   0  0  0  0  0  0  0  0  0  0  0  0
   34.7830   29.5020   47.5560 S   0  0  0  0  0  0  0  0  0  0  0  0
   37.3940   29.4860   50.5380 C   0  0  0  0  0  0  0  0  0  0  0  0
   38.0050   30.7460   50.4880 C   0  0  0  0  0  0  0  0  0  0  0  0
   37.5890   31.6270   49.4930 C   0  0  0  0  0  0  0  0  0  0  0  0
   36.6240   31.2450   48.6200 N   0  0  0  0  0  0  0  0  0  0  0  0
   36.0560   30.0100   48.7040 C   0  0  0  0  0  0  0  0  0  0  0  0
   36.4350   29.1390   49.6530 N   0  0  0  0  0  0  0  0  0  0  0  0
   31.6980   26.7110   45.9180 O   0  0  0  0  0  0  0  0  0  0  0  0
   30.1070   27.8620   44.5240 C   0  0  2  0  0  0  0  0  0  0  0  0
   31.4730   27.1830   44.6340 C   0  0  2  0  0  0  0  0  0  0  0  0
   31.4870   26.1630   43.7220 O   0  0  0  0  0  0  0  0  0  0  0  0
   30.4180   26.2960   42.8530 C   0  0  0  0  0  0  0  0  0  0  0  0
   29.9200   27.7320   43.0110 C   0  0  1  0  0  0  0  0  0  0  0  0
   30.1890   29.2040   44.8840 O   0  0  0  0  0  0  0  0  0  0  0  0
   28.6220   27.9090   42.6160 O   0  0  0  0  0  0  0  0  0  0  0  0
   31.4753   28.0188   48.1506 H   0  0  0  0  0  0  0  0  0  0  0  0
   33.4960   28.5995   49.4484 H   0  0  0  0  0  0  0  0  0  0  0  0
   34.2618   25.7496   46.7777 H   0  0  0  0  0  0  0  0  0  0  0  0
   32.8760   25.6129   47.8780 H   0  0  0  0  0  0  0  0  0  0  0  0
   33.3453   27.7424   45.6794 H   0  0  0  0  0  0  0  0  0  0  0  0
   31.9247   30.1777   47.8507 H   0  0  0  0  0  0  0  0  0  0  0  0
   37.7010   28.7669   51.3118 H   0  0  0  0  0  0  0  0  0  0  0  0
   38.7857   31.0292   51.2093 H   0  0  0  0  0  0  0  0  0  0  0  0
   38.0405   32.6271   49.4156 H   0  0  0  0  0  0  0  0  0  0  0  0
   29.3099   27.4439   45.1563 H   0  0  0  0  0  0  0  0  0  0  0  0
   32.2793   27.9012   44.4240 H   0  0  0  0  0  0  0  0  0  0  0  0
   29.6214   25.5845   43.1160 H   0  0  0  0  0  0  0  0  0  0  0  0
   30.7151   26.0855   41.8150 H   0  0  0  0  0  0  0  0  0  0  0  0
   30.4373   28.4817   42.3942 H   0  0  0  0  0  0  0  0  0  0  0  0
   30.1937   29.2812   45.8710 H   0  0  0  0  0  0  0  0  0  0  0  0
   28.0420   27.9881   43.4144 H   0  0  0  0  0  0  0  0  0  0  0  0
  1  2  1  0
  3  2  1  0
  4  3  1  0
  5  4  1  0
  5  1  1  0
  6  1  1  0
  7  2  1  0
  7 12  1  0
  9  8  2  0
 10  9  1  0
 11 12  1  0
 11 10  2  0
 12 13  2  0
 13  8  1  0
 14  5  1  0
 15 16  1  0
 15 20  1  0
 16 14  1  0
 17 16  1  0
 18 19  1  0
 18 17  1  0
 19 21  1  0
 19 15  1  0
  1 22  1  1
  2 23  1  1
  4 24  1  0
  4 25  1  0
  5 26  1  6
  6 27  1  0
  8 28  1  0
  9 29  1  0
 10 30  1  0
 15 31  1  1
 16 32  1  6
 18 33  1  0
 18 34  1  0
 19 35  1  6
 20 36  1  0
 21 37  1  0
M  ISO  8  22  13  23  13  24  13  25  13  26  13  27   3  28  14  29  14
M  ISO  8  30  14  31  13  32  13  33  13  34  13  35  13  36   3  37   3
M  END
>  <minimizedAffinity>  (1) 
-3.8350513

>  <minimizedRMSD>  (1) 
0.737808824

$$$$
