
     RDKit          3D

 41 44  0  0  1  0  0  0  0  0999 V2000
   35.8530   29.1610   49.8180 C   0  0  0  0  0  0  0  0  0  0  0  0
   34.8320   29.6470   50.6060 C   0  0  0  0  0  0  0  0  0  0  0  0
   33.6330   29.1040   50.1200 C   0  0  0  0  0  0  0  0  0  0  0  0
   34.0070   28.3130   49.0570 C   0  0  0  0  0  0  0  0  0  0  0  0
   35.3130   28.3780   48.9160 O   0  0  0  0  0  0  0  0  0  0  0  0
   37.2420   29.5240   50.0430 C   0  0  0  0  0  0  0  0  0  0  0  0
   37.8870   28.9380   50.9250 O   0  0  0  0  0  0  0  0  0  0  0  0
   37.7890   30.5590   49.2110 C   0  0  0  0  0  0  0  0  0  0  0  0
   38.1390   31.7460   49.8310 C   0  0  0  0  0  0  0  0  0  0  0  0
   38.6740   32.7760   49.0510 C   0  0  0  0  0  0  0  0  0  0  0  0
   38.8230   32.5520   47.7040 N   0  0  0  0  0  0  0  0  0  0  0  0
   38.4760   31.3940   47.1400 C   0  0  0  0  0  0  0  0  0  0  0  0
   37.9610   30.3990   47.8800 N   0  0  0  0  0  0  0  0  0  0  0  0
   33.1040   27.5250   48.2180 C   0  0  0  0  0  0  0  0  0  0  0  0
   31.8760   27.4520   48.5560 O   0  0  0  0  0  0  0  0  0  0  0  0
   33.6180   26.8170   47.0000 C   0  0  1  0  0  0  0  0  0  0  0  0
   33.8160   25.2810   47.3180 C   0  0  0  0  0  0  0  0  0  0  0  0
   32.8210   25.7810   46.3390 C   0  0  2  0  0  0  0  0  0  0  0  0
   34.5440   25.5990   44.5600 C   0  0  2  0  0  0  0  0  0  0  0  0
   33.0390   25.6030   44.8590 C   0  0  2  0  0  0  0  0  0  0  0  0
   32.6430   26.6910   44.1110 O   0  0  0  0  0  0  0  0  0  0  0  0
   33.2340   26.5410   42.8780 C   0  0  0  0  0  0  0  0  0  0  0  0
   34.4430   25.6410   43.0300 C   0  0  1  0  0  0  0  0  0  0  0  0
   35.1810   24.4740   45.0150 O   0  0  0  0  0  0  0  0  0  0  0  0
   35.5810   26.1170   42.4280 O   0  0  0  0  0  0  0  0  0  0  0  0
   34.9376   30.3339   51.4587 H   0  0  0  0  0  0  0  0  0  0  0  0
   32.6163   29.2733   50.5043 H   0  0  0  0  0  0  0  0  0  0  0  0
   37.9993   31.8763   50.9143 H   0  0  0  0  0  0  0  0  0  0  0  0
   38.9664   33.7357   49.5021 H   0  0  0  0  0  0  0  0  0  0  0  0
   38.6132   31.2528   46.0578 H   0  0  0  0  0  0  0  0  0  0  0  0
   34.1643   27.6825   46.5969 H   0  0  0  0  0  0  0  0  0  0  0  0
   34.7180   24.7521   46.9764 H   0  0  0  0  0  0  0  0  0  0  0  0
   33.7978   24.6464   48.2163 H   0  0  0  0  0  0  0  0  0  0  0  0
   31.7441   25.5815   46.2367 H   0  0  0  0  0  0  0  0  0  0  0  0
   35.1319   26.3980   45.0354 H   0  0  0  0  0  0  0  0  0  0  0  0
   32.4832   24.6867   44.6110 H   0  0  0  0  0  0  0  0  0  0  0  0
   33.5485   27.5232   42.4955 H   0  0  0  0  0  0  0  0  0  0  0  0
   32.5198   26.0958   42.1697 H   0  0  0  0  0  0  0  0  0  0  0  0
   34.3393   24.6623   42.5387 H   0  0  0  0  0  0  0  0  0  0  0  0
   35.1817   24.4728   46.0050 H   0  0  0  0  0  0  0  0  0  0  0  0
   36.2323   26.3894   43.1221 H   0  0  0  0  0  0  0  0  0  0  0  0
  1  6  1  0
  1  2  2  0
  3  2  1  0
  4  3  2  0
  5  4  1  0
  5  1  1  0
  6  7  2  0
  8  9  2  0
  8  6  1  0
 10  9  1  0
 11 10  2  0
 12 11  1  0
 12 13  2  0
 13  8  1  0
 14 15  2  0
 14  4  1  0
 16 17  1  0
 16 14  1  0
 18 16  1  0
 18 17  1  0
 19 20  1  0
 19 24  1  0
 20 21  1  0
 20 18  1  0
 22 23  1  0
 22 21  1  0
 23 25  1  0
 23 19  1  0
  2 26  1  0
  3 27  1  0
  9 28  1  0
 10 29  1  0
 12 30  1  0
 16 31  1  6
 17 32  1  0
 17 33  1  0
 18 34  1  1
 19 35  1  1
 20 36  1  6
 22 37  1  0
 22 38  1  0
 23 39  1  6
 24 40  1  0
 25 41  1  0
M  ISO  8  26  14  27  14  28  14  29  14  30  14  31  13  32  13  33  13
M  ISO  8  34  13  35  13  36  13  37  13  38  13  39  13  40   3  41   3
M  END
>  <minimizedAffinity>  (1) 
-5.00106382

>  <minimizedRMSD>  (1) 
0.485842675

$$$$
