
     RDKit          3D

 35 37  0  0  1  0  0  0  0  0999 V2000
   37.8050   31.0050   45.7970 C   0  0  0  0  0  0  0  0  0  0  0  0
   39.0320   30.4160   45.6640 C   0  0  0  0  0  0  0  0  0  0  0  0
   39.5740   30.9970   44.5290 C   0  0  0  0  0  0  0  0  0  0  0  0
   38.7100   31.8840   44.0190 N   0  0  0  0  0  0  0  0  0  0  0  0
   37.6310   31.8870   44.7940 N   0  0  0  0  0  0  0  0  0  0  0  0
   39.7930   32.1400   41.8930 N   0  0  0  0  0  0  0  0  0  0  0  0
   38.8600   32.7230   42.8360 C   0  0  1  0  0  0  0  0  0  0  0  0
   37.5350   32.9110   42.1310 C   0  0  0  0  0  0  0  0  0  0  0  0
   36.9470   31.5930   42.0140 N   0  0  0  0  0  0  0  0  0  0  0  0
   37.8580   30.6830   41.3880 C   0  0  0  0  0  0  0  0  0  0  0  0
   39.1470   31.2950   40.9240 C   0  0  0  0  0  0  0  0  0  0  0  0
   36.1830   30.5690   49.1520 C   0  0  0  0  0  0  0  0  0  0  0  0
   37.1570   30.8470   48.1880 C   0  0  0  0  0  0  0  0  0  0  0  0
   36.8400   30.7300   46.8470 C   0  0  0  0  0  0  0  0  0  0  0  0
   35.5820   30.3450   46.5250 N   0  0  0  0  0  0  0  0  0  0  0  0
   34.6520   30.0800   47.4850 C   0  0  0  0  0  0  0  0  0  0  0  0
   34.9390   30.1870   48.7740 N   0  0  0  0  0  0  0  0  0  0  0  0
   36.6490   30.7310   50.4460 O   0  0  0  0  0  0  0  0  0  0  0  0
   36.7860   29.6810   51.3670 C   0  0  0  0  0  0  0  0  0  0  0  0
   35.5710   29.1490   51.7390 F   0  0  0  0  0  0  0  0  0  0  0  0
   37.4690   30.1420   52.4670 F   0  0  0  0  0  0  0  0  0  0  0  0
   37.5500   28.6870   50.7800 F   0  0  0  0  0  0  0  0  0  0  0  0
   39.4865   29.6525   46.3124 H   0  0  0  0  0  0  0  0  0  0  0  0
   40.5643   30.7648   44.1101 H   0  0  0  0  0  0  0  0  0  0  0  0
   40.2778   32.9007   41.3959 H   0  0  0  0  0  0  0  0  0  0  0  0
   39.2413   33.6945   43.1837 H   0  0  0  0  0  0  0  0  0  0  0  0
   36.8799   33.5695   42.7203 H   0  0  0  0  0  0  0  0  0  0  0  0
   37.6696   33.3781   41.1442 H   0  0  0  0  0  0  0  0  0  0  0  0
   36.7129   31.2431   42.9540 H   0  0  0  0  0  0  0  0  0  0  0  0
   38.0978   29.8891   42.1106 H   0  0  0  0  0  0  0  0  0  0  0  0
   37.3508   30.3128   40.4848 H   0  0  0  0  0  0  0  0  0  0  0  0
   39.8391   30.4806   40.6636 H   0  0  0  0  0  0  0  0  0  0  0  0
   38.8957   31.9386   40.0681 H   0  0  0  0  0  0  0  0  0  0  0  0
   38.1673   31.1563   48.4939 H   0  0  0  0  0  0  0  0  0  0  0  0
   33.6406   29.7704   47.1831 H   0  0  0  0  0  0  0  0  0  0  0  0
  1 14  1  0
  2  1  1  0
  3  2  2  0
  4  3  1  0
  4  5  1  0
  5  1  2  0
  6  7  1  0
  7  4  1  0
  8  7  1  0
  9  8  1  0
 10  9  1  0
 11 10  1  0
 11  6  1  0
 12 18  1  0
 13 12  2  0
 14 13  1  0
 15 14  2  0
 15 16  1  0
 16 17  2  0
 17 12  1  0
 18 19  1  0
 19 20  1  0
 19 21  1  0
 22 19  1  0
  2 23  1  0
  3 24  1  0
  6 25  1  0
  7 26  1  1
  8 27  1  0
  8 28  1  0
  9 29  1  0
 10 30  1  0
 10 31  1  0
 11 32  1  0
 11 33  1  0
 13 34  1  0
 16 35  1  0
M  ISO  8  23  14  24  14  25   5  26  13  27  13  28  13  29   5  30  13
M  ISO  5  31  13  32  13  33  13  34  14  35  14
M  END
>  <minimizedAffinity>  (1) 
-5.71785593

>  <minimizedRMSD>  (1) 
2.57234311

$$$$
