
     RDKit          3D

 51 55  0  0  1  0  0  0  0  0999 V2000
   39.5260   33.6410   43.4960 O   0  0  0  0  0  0  0  0  0  0  0  0
   36.2080   30.2490   47.0050 C   0  0  0  0  0  0  0  0  0  0  0  0
   37.0630   30.7640   47.9750 C   0  0  0  0  0  0  0  0  0  0  0  0
   38.0790   31.6600   47.6360 C   0  0  0  0  0  0  0  0  0  0  0  0
   38.1740   31.9940   46.2930 C   0  0  0  0  0  0  0  0  0  0  0  0
   39.0820   32.8480   45.7170 N   0  0  0  0  0  0  0  0  0  0  0  0
   38.8010   32.8700   44.4060 C   0  0  0  0  0  0  0  0  0  0  0  0
   37.7770   32.0780   44.1570 N   0  0  0  0  0  0  0  0  0  0  0  0
   37.3540   31.5110   45.3000 C   0  0  0  0  0  0  0  0  0  0  0  0
   36.3450   30.6150   45.6710 C   0  0  0  0  0  0  0  0  0  0  0  0
   37.4110   30.0730   51.6480 C   0  0  0  0  0  0  0  0  0  0  0  0
   37.7530   30.5460   50.3830 C   0  0  0  0  0  0  0  0  0  0  0  0
   36.8620   30.3390   49.3440 C   0  0  0  0  0  0  0  0  0  0  0  0
   35.6990   29.6770   49.6370 N   0  0  0  0  0  0  0  0  0  0  0  0
   35.3880   29.2290   50.8660 C   0  0  0  0  0  0  0  0  0  0  0  0
   36.2420   29.4300   51.8530 N   0  0  0  0  0  0  0  0  0  0  0  0
   39.6060   31.7030   42.2480 N   0  0  0  0  0  0  0  0  0  0  0  0
   39.5600   33.1550   42.1620 C   0  0  1  0  0  0  0  0  0  0  0  0
   38.3800   33.5830   41.4270 C   0  0  0  0  0  0  0  0  0  0  0  0
   38.4700   33.0960   40.1120 O   0  0  0  0  0  0  0  0  0  0  0  0
   38.6520   31.7490   39.9950 C   0  0  0  0  0  0  0  0  0  0  0  0
   39.7820   31.2660   40.8860 C   0  0  2  0  0  0  0  0  0  0  0  0
   40.0810   29.8860   40.7460 N   0  0  0  0  0  0  0  0  0  0  0  0
   40.8900   29.5890   39.5750 C   0  0  0  0  0  0  0  0  0  0  0  0
   41.5030   28.2220   39.7500 C   0  0  0  0  0  0  0  0  0  0  0  0
   40.6100   27.2970   40.4180 N   0  0  0  0  0  0  0  0  0  0  0  0
   40.2730   27.7430   41.7380 C   0  0  0  0  0  0  0  0  0  0  0  0
   40.6470   29.2260   41.8720 C   0  0  0  0  0  0  0  0  0  0  0  0
   35.4152   29.5447   47.2972 H   0  0  0  0  0  0  0  0  0  0  0  0
   38.7637   32.0764   48.3895 H   0  0  0  0  0  0  0  0  0  0  0  0
   39.8303   33.3684   46.1967 H   0  0  0  0  0  0  0  0  0  0  0  0
   35.6644   30.2028   44.9115 H   0  0  0  0  0  0  0  0  0  0  0  0
   38.1021   30.2254   52.4901 H   0  0  0  0  0  0  0  0  0  0  0  0
   38.7054   31.0699   50.2144 H   0  0  0  0  0  0  0  0  0  0  0  0
   34.4383   28.7040   51.0462 H   0  0  0  0  0  0  0  0  0  0  0  0
   40.3967   31.3979   42.8333 H   0  0  0  0  0  0  0  0  0  0  0  0
   40.4355   33.5486   41.6248 H   0  0  0  0  0  0  0  0  0  0  0  0
   37.4768   33.1816   41.9099 H   0  0  0  0  0  0  0  0  0  0  0  0
   38.3208   34.6814   41.4178 H   0  0  0  0  0  0  0  0  0  0  0  0
   37.7232   31.2354   40.2840 H   0  0  0  0  0  0  0  0  0  0  0  0
   38.9125   31.5232   38.9504 H   0  0  0  0  0  0  0  0  0  0  0  0
   40.6977   31.7562   40.5238 H   0  0  0  0  0  0  0  0  0  0  0  0
   41.6854   30.3419   39.4731 H   0  0  0  0  0  0  0  0  0  0  0  0
   40.2644   29.6082   38.6704 H   0  0  0  0  0  0  0  0  0  0  0  0
   41.7530   27.8175   38.7581 H   0  0  0  0  0  0  0  0  0  0  0  0
   42.3995   28.3346   40.3774 H   0  0  0  0  0  0  0  0  0  0  0  0
   39.7457   27.2094   39.8647 H   0  0  0  0  0  0  0  0  0  0  0  0
   39.1931   27.6178   41.9057 H   0  0  0  0  0  0  0  0  0  0  0  0
   40.8237   27.1507   42.4836 H   0  0  0  0  0  0  0  0  0  0  0  0
   41.7406   29.3441   41.8722 H   0  0  0  0  0  0  0  0  0  0  0  0
   40.2687   29.6492   42.8142 H   0  0  0  0  0  0  0  0  0  0  0  0
  1  7  1  0
  2  3  2  0
  3 13  1  0
  4  3  1  0
  5  4  2  0
  6  5  1  0
  7  6  1  0
  8  7  2  0
  8  9  1  0
  9 10  2  0
  9  5  1  0
 10  2  1  0
 11 16  2  0
 12 11  1  0
 13 14  1  0
 13 12  2  0
 14 15  2  0
 15 16  1  0
 18 17  1  0
 18  1  1  0
 19 18  1  0
 20 19  1  0
 21 20  1  0
 21 22  1  0
 22 17  1  0
 23 22  1  0
 23 28  1  0
 24 25  1  0
 24 23  1  0
 25 26  1  0
 26 27  1  0
 27 28  1  0
  2 29  1  0
  4 30  1  0
  6 31  1  0
 10 32  1  0
 11 33  1  0
 12 34  1  0
 15 35  1  0
 17 36  1  0
 18 37  1  6
 19 38  1  0
 19 39  1  0
 21 40  1  0
 21 41  1  0
 22 42  1  6
 24 43  1  0
 24 44  1  0
 25 45  1  0
 25 46  1  0
 26 47  1  0
 27 48  1  0
 27 49  1  0
 28 50  1  0
 28 51  1  0
M  ISO  8  29  14  30  14  31   9  32  14  33  14  34  14  35  14  36   5
M  ISO  8  37  13  38  13  39  13  40  13  41  13  42  13  43  13  44  13
M  ISO  7  45  13  46  13  47   5  48  13  49  13  50  13  51  13
M  END
>  <minimizedAffinity>  (1) 
-6.14069939

>  <minimizedRMSD>  (1) 
0.737749159

$$$$
