
     RDKit          3D

 38 40  0  0  1  0  0  0  0  0999 V2000
   35.2550   29.5730   47.9140 C   0  0  0  0  0  0  0  0  0  0  0  0
   35.2330   29.9710   46.5720 C   0  0  0  0  0  0  0  0  0  0  0  0
   34.1030   29.6560   45.8270 C   0  0  0  0  0  0  0  0  0  0  0  0
   33.1000   28.9770   46.4770 N   0  0  0  0  0  0  0  0  0  0  0  0
   33.1500   28.6130   47.7490 C   0  0  0  0  0  0  0  0  0  0  0  0
   34.2310   28.9080   48.4830 N   0  0  0  0  0  0  0  0  0  0  0  0
   36.4350   29.9080   48.6680 N   0  0  0  0  0  0  0  0  0  0  0  0
   37.5640   30.6610   48.2110 C   0  0  0  0  0  0  0  0  0  0  0  0
   38.0780   31.3000   49.5010 C   0  0  2  0  0  0  0  0  0  0  0  0
   37.0790   30.9080   50.5790 C   0  0  0  0  0  0  0  0  0  0  0  0
   36.6910   29.5410   50.0380 C   0  0  0  0  0  0  0  0  0  0  0  0
   38.2520   32.7770   49.3910 C   0  0  0  0  0  0  0  0  0  0  0  0
   37.0990   33.3550   49.8890 F   0  0  0  0  0  0  0  0  0  0  0  0
   38.3030   33.0760   48.0410 F   0  0  0  0  0  0  0  0  0  0  0  0
   39.3660   33.2490   50.0250 F   0  0  0  0  0  0  0  0  0  0  0  0
   31.8100   27.7330   48.5310 S   0  0  0  0  0  0  0  0  0  0  0  0
   29.5700   26.4590   48.0090 N   0  0  0  0  0  0  0  0  0  0  0  0
   30.4200   27.4820   47.4240 C   0  0  1  0  0  0  0  0  0  0  0  0
   29.5780   28.7270   47.4170 C   0  0  0  0  0  0  0  0  0  0  0  0
   29.2280   29.1470   48.7400 N   0  0  0  0  0  0  0  0  0  0  0  0
   29.3770   28.1870   49.7790 C   0  0  0  0  0  0  0  0  0  0  0  0
   29.4270   26.7670   49.3930 C   0  0  0  0  0  0  0  0  0  0  0  0
   36.0788   30.5130   46.1239 H   0  0  0  0  0  0  0  0  0  0  0  0
   34.0153   29.9368   44.7671 H   0  0  0  0  0  0  0  0  0  0  0  0
   38.3242   30.0050   47.7618 H   0  0  0  0  0  0  0  0  0  0  0  0
   37.3160   31.3921   47.4275 H   0  0  0  0  0  0  0  0  0  0  0  0
   39.0881   30.9373   49.7419 H   0  0  0  0  0  0  0  0  0  0  0  0
   37.5455   30.8435   51.5731 H   0  0  0  0  0  0  0  0  0  0  0  0
   36.2491   31.6116   50.7406 H   0  0  0  0  0  0  0  0  0  0  0  0
   35.7938   29.1406   50.5327 H   0  0  0  0  0  0  0  0  0  0  0  0
   37.4354   28.7445   50.1843 H   0  0  0  0  0  0  0  0  0  0  0  0
   29.1489   25.6594   47.5149 H   0  0  0  0  0  0  0  0  0  0  0  0
   30.7866   27.2207   46.4203 H   0  0  0  0  0  0  0  0  0  0  0  0
   30.1418   29.5339   46.9261 H   0  0  0  0  0  0  0  0  0  0  0  0
   28.6473   28.5038   46.8748 H   0  0  0  0  0  0  0  0  0  0  0  0
   28.8846   30.0992   48.9305 H   0  0  0  0  0  0  0  0  0  0  0  0
   29.4521   28.4943   50.8325 H   0  0  0  0  0  0  0  0  0  0  0  0
   29.3563   25.9702   50.1480 H   0  0  0  0  0  0  0  0  0  0  0  0
  1  6  1  0
  1  7  1  0
  2  1  2  0
  3  4  2  0
  3  2  1  0
  4  5  1  0
  5  6  2  0
  5 16  1  0
  7 11  1  0
  8  7  1  0
  8  9  1  0
  9 10  1  0
 11 10  1  0
 12  9  1  0
 12 13  1  0
 12 15  1  0
 14 12  1  0
 17 22  1  0
 18 17  1  0
 18 16  1  0
 19 18  1  0
 19 20  1  0
 20 21  1  0
 22 21  2  0
  2 23  1  0
  3 24  1  0
  8 25  1  0
  8 26  1  0
  9 27  1  1
 10 28  1  0
 10 29  1  0
 11 30  1  0
 11 31  1  0
 17 32  1  0
 18 33  1  6
 19 34  1  0
 19 35  1  0
 20 36  1  0
 21 37  1  0
 22 38  1  0
M  ISO  8  23  14  24  14  25  13  26  13  27  13  28  13  29  13  30  13
M  ISO  6  31  13  33  13  34  13  35  13  37  13  38  13
M  END
>  <minimizedAffinity>  (1) 
-6.04852486

>  <minimizedRMSD>  (1) 
1.62940443

$$$$
