
     RDKit          3D

 27 28  0  0  0  0  0  0  0  0999 V2000
   35.3890   29.2230   50.4030 C   0  0  0  0  0  0  0  0  0  0  0  0
   36.1740   30.1940   49.7470 C   0  0  0  0  0  0  0  0  0  0  0  0
   35.8370   30.5620   48.4370 C   0  0  0  0  0  0  0  0  0  0  0  0
   34.7530   29.9480   47.8700 N   0  0  0  0  0  0  0  0  0  0  0  0
   34.0300   29.0320   48.5200 C   0  0  0  0  0  0  0  0  0  0  0  0
   34.3230   28.6600   49.7630 N   0  0  0  0  0  0  0  0  0  0  0  0
   32.9230   28.4520   47.8430 N   0  0  0  0  0  0  0  0  0  0  0  0
   32.7490   28.5750   46.4090 C   0  0  0  0  0  0  0  0  0  0  0  0
   31.4910   29.3950   46.2140 C   0  0  0  0  0  0  0  0  0  0  0  0
   30.3920   28.9330   46.9960 N   0  0  0  0  0  0  0  0  0  0  0  0
   30.5900   27.7230   47.7230 C   0  0  0  0  0  0  0  0  0  0  0  0
   31.8790   27.6970   48.5100 C   0  0  0  0  0  0  0  0  0  0  0  0
   37.3390   30.7850   50.4970 C   0  0  0  0  0  0  0  0  0  0  0  0
   38.5420   30.3510   49.9500 F   0  0  0  0  0  0  0  0  0  0  0  0
   37.2880   32.1570   50.3260 F   0  0  0  0  0  0  0  0  0  0  0  0
   37.3100   30.4970   51.8270 F   0  0  0  0  0  0  0  0  0  0  0  0
   35.6360   28.9193   51.4310 H   0  0  0  0  0  0  0  0  0  0  0  0
   36.4207   31.3145   47.8865 H   0  0  0  0  0  0  0  0  0  0  0  0
   33.6132   29.0872   45.9610 H   0  0  0  0  0  0  0  0  0  0  0  0
   32.6690   27.5903   45.9253 H   0  0  0  0  0  0  0  0  0  0  0  0
   31.7059   30.4368   46.4943 H   0  0  0  0  0  0  0  0  0  0  0  0
   31.2014   29.3026   45.1568 H   0  0  0  0  0  0  0  0  0  0  0  0
   30.1597   29.6714   47.6755 H   0  0  0  0  0  0  0  0  0  0  0  0
   29.7516   27.5967   48.4238 H   0  0  0  0  0  0  0  0  0  0  0  0
   30.6443   26.9080   46.9862 H   0  0  0  0  0  0  0  0  0  0  0  0
   32.2084   26.6535   48.6225 H   0  0  0  0  0  0  0  0  0  0  0  0
   31.6938   28.1565   49.4921 H   0  0  0  0  0  0  0  0  0  0  0  0
  2  1  2  0
  2 13  1  0
  3  2  1  0
  4  3  2  0
  4  5  1  0
  5  6  2  0
  6  1  1  0
  7 12  1  0
  7  5  1  0
  8  7  1  0
  9  8  1  0
  9 10  1  0
 10 11  1  0
 11 12  1  0
 13 16  1  0
 14 13  1  0
 15 13  1  0
  1 17  1  0
  3 18  1  0
  8 19  1  0
  8 20  1  0
  9 21  1  0
  9 22  1  0
 10 23  1  0
 11 24  1  0
 11 25  1  0
 12 26  1  0
 12 27  1  0
M  ISO  8  17  14  18  14  19  13  20  13  21  13  22  13  23   5  24  13
M  ISO  3  25  13  26  13  27  13
M  END
>  <minimizedAffinity>  (1) 
-5.44480467

>  <minimizedRMSD>  (1) 
0.826547265

$$$$
