
     RDKit          3D

 33 35  0  0  0  0  0  0  0  0999 V2000
   35.9250   30.2350   48.5580 C   0  0  0  0  0  0  0  0  0  0  0  0
   35.9500   29.2500   49.5140 C   0  0  0  0  0  0  0  0  0  0  0  0
   34.9660   28.2840   49.6000 C   0  0  0  0  0  0  0  0  0  0  0  0
   33.9540   28.3720   48.6600 C   0  0  0  0  0  0  0  0  0  0  0  0
   33.8970   29.3540   47.6800 C   0  0  0  0  0  0  0  0  0  0  0  0
   34.9130   30.2530   47.6860 N   0  0  0  0  0  0  0  0  0  0  0  0
   32.8290   29.3980   46.7350 N   0  0  0  0  0  0  0  0  0  0  0  0
   32.0300   28.1910   46.6560 C   0  0  0  0  0  0  0  0  0  0  0  0
   30.8970   28.3160   45.6840 C   0  0  0  0  0  0  0  0  0  0  0  0
   31.0770   29.3760   44.7070 N   0  0  0  0  0  0  0  0  0  0  0  0
   31.3110   30.6540   45.3400 C   0  0  0  0  0  0  0  0  0  0  0  0
   32.6700   30.6260   45.9770 C   0  0  0  0  0  0  0  0  0  0  0  0
   38.0890   33.0390   49.4700 C   0  0  0  0  0  0  0  0  0  0  0  0
   38.9630   33.1340   48.3880 C   0  0  0  0  0  0  0  0  0  0  0  0
   38.7950   32.2210   47.3450 C   0  0  0  0  0  0  0  0  0  0  0  0
   37.7960   31.2950   47.4400 N   0  0  0  0  0  0  0  0  0  0  0  0
   36.9760   31.2360   48.4960 C   0  0  0  0  0  0  0  0  0  0  0  0
   37.1250   32.1090   49.5080 N   0  0  0  0  0  0  0  0  0  0  0  0
   36.7805   29.2292   50.2350 H   0  0  0  0  0  0  0  0  0  0  0  0
   34.9856   27.4954   50.3666 H   0  0  0  0  0  0  0  0  0  0  0  0
   33.1499   27.6221   48.6910 H   0  0  0  0  0  0  0  0  0  0  0  0
   32.6769   27.3598   46.3388 H   0  0  0  0  0  0  0  0  0  0  0  0
   31.5982   28.0101   47.6514 H   0  0  0  0  0  0  0  0  0  0  0  0
   30.7948   27.3621   45.1459 H   0  0  0  0  0  0  0  0  0  0  0  0
   29.9998   28.5679   46.2684 H   0  0  0  0  0  0  0  0  0  0  0  0
   30.2290   29.4418   44.1261 H   0  0  0  0  0  0  0  0  0  0  0  0
   31.2703   31.4546   44.5867 H   0  0  0  0  0  0  0  0  0  0  0  0
   30.5407   30.8450   46.1016 H   0  0  0  0  0  0  0  0  0  0  0  0
   33.4418   30.6755   45.1947 H   0  0  0  0  0  0  0  0  0  0  0  0
   32.7738   31.4877   46.6528 H   0  0  0  0  0  0  0  0  0  0  0  0
   38.1929   33.7419   50.3097 H   0  0  0  0  0  0  0  0  0  0  0  0
   39.7537   33.8981   48.3572 H   0  0  0  0  0  0  0  0  0  0  0  0
   39.4540   32.2472   46.4647 H   0  0  0  0  0  0  0  0  0  0  0  0
  1  2  2  0
  2  3  1  0
  4  3  2  0
  5  6  2  0
  5  4  1  0
  6  1  1  0
  7  5  1  0
  8  7  1  0
  9  8  1  0
 10 11  1  0
 10  9  1  0
 11 12  1  0
 12  7  1  0
 13 18  2  0
 14 13  1  0
 15 16  1  0
 15 14  2  0
 16 17  2  0
 17  1  1  0
 17 18  1  0
  2 19  1  0
  3 20  1  0
  4 21  1  0
  8 22  1  0
  8 23  1  0
  9 24  1  0
  9 25  1  0
 10 26  1  0
 11 27  1  0
 11 28  1  0
 12 29  1  0
 12 30  1  0
 13 31  1  0
 14 32  1  0
 15 33  1  0
M  ISO  8  19  14  20  14  21  14  22  13  23  13  24  13  25  13  26   5
M  ISO  7  27  13  28  13  29  13  30  13  31  14  32  14  33  14
M  END
>  <minimizedAffinity>  (1) 
-5.59958315

>  <minimizedRMSD>  (1) 
0.13817963

$$$$
