
     RDKit          3D

 44 47  0  0  1  0  0  0  0  0999 V2000
   38.3680   31.8870   44.4790 C   0  0  0  0  0  0  0  0  0  0  0  0
   37.2670   32.4620   44.3780 O   0  0  0  0  0  0  0  0  0  0  0  0
   38.9360   31.5900   45.7780 N   0  0  0  0  0  0  0  0  0  0  0  0
   39.1590   31.4750   43.2860 C   0  0  0  0  0  0  0  0  0  0  0  0
   40.1850   30.5810   43.4470 C   0  0  0  0  0  0  0  0  0  0  0  0
   40.8990   30.2290   42.3160 C   0  0  0  0  0  0  0  0  0  0  0  0
   40.5390   30.7910   41.1140 C   0  0  0  0  0  0  0  0  0  0  0  0
   39.5030   31.6930   40.9520 C   0  0  0  0  0  0  0  0  0  0  0  0
   38.8430   32.0010   42.0800 N   0  0  0  0  0  0  0  0  0  0  0  0
   39.0910   32.2960   39.7590 N   0  0  0  0  0  0  0  0  0  0  0  0
   38.4860   33.6170   39.6950 C   0  0  0  0  0  0  0  0  0  0  0  0
   38.6820   34.1880   38.3230 C   0  0  0  0  0  0  0  0  0  0  0  0
   39.9720   33.8970   37.7400 N   0  0  0  0  0  0  0  0  0  0  0  0
   40.2410   32.4810   37.6380 C   0  0  0  0  0  0  0  0  0  0  0  0
   39.2070   31.6960   38.4440 C   0  0  0  0  0  0  0  0  0  0  0  0
   38.4360   31.1060   48.1660 C   0  0  2  0  0  0  0  0  0  0  0  0
   38.7110   32.5500   48.0800 C   0  0  0  0  0  0  0  0  0  0  0  0
   38.0580   31.7430   46.9280 C   0  0  1  0  0  0  0  0  0  0  0  0
   35.0890   30.2380   49.5030 C   0  0  0  0  0  0  0  0  0  0  0  0
   35.4160   29.5540   50.7180 C   0  0  0  0  0  0  0  0  0  0  0  0
   36.8160   29.4170   51.0500 C   0  0  0  0  0  0  0  0  0  0  0  0
   37.7470   29.9360   50.2050 N   0  0  0  0  0  0  0  0  0  0  0  0
   37.3580   30.5750   49.0660 C   0  0  0  0  0  0  0  0  0  0  0  0
   36.0410   30.7420   48.6880 N   0  0  0  0  0  0  0  0  0  0  0  0
   39.9143   31.2852   45.8825 H   0  0  0  0  0  0  0  0  0  0  0  0
   40.4303   30.1612   44.4337 H   0  0  0  0  0  0  0  0  0  0  0  0
   41.7348   29.5165   42.3767 H   0  0  0  0  0  0  0  0  0  0  0  0
   41.1136   30.5040   40.2210 H   0  0  0  0  0  0  0  0  0  0  0  0
   37.4100   33.5387   39.9097 H   0  0  0  0  0  0  0  0  0  0  0  0
   38.9602   34.2749   40.4382 H   0  0  0  0  0  0  0  0  0  0  0  0
   37.9042   33.7759   37.6633 H   0  0  0  0  0  0  0  0  0  0  0  0
   38.6194   35.2816   38.4234 H   0  0  0  0  0  0  0  0  0  0  0  0
   40.0046   34.3058   36.7952 H   0  0  0  0  0  0  0  0  0  0  0  0
   40.1897   32.1751   36.5826 H   0  0  0  0  0  0  0  0  0  0  0  0
   41.2449   32.2733   38.0369 H   0  0  0  0  0  0  0  0  0  0  0  0
   38.2336   31.7326   37.9330 H   0  0  0  0  0  0  0  0  0  0  0  0
   39.5220   30.6462   38.5370 H   0  0  0  0  0  0  0  0  0  0  0  0
   39.0738   30.2468   48.4209 H   0  0  0  0  0  0  0  0  0  0  0  0
   38.1172   33.2673   48.6656 H   0  0  0  0  0  0  0  0  0  0  0  0
   39.5903   33.2005   48.1965 H   0  0  0  0  0  0  0  0  0  0  0  0
   37.1275   31.7620   46.3417 H   0  0  0  0  0  0  0  0  0  0  0  0
   34.0313   30.3564   49.2253 H   0  0  0  0  0  0  0  0  0  0  0  0
   34.6314   29.1483   51.3737 H   0  0  0  0  0  0  0  0  0  0  0  0
   37.1237   28.9011   51.9715 H   0  0  0  0  0  0  0  0  0  0  0  0
  1  3  1  0
  2  1  2  0
  3 18  1  0
  4  5  2  0
  4  1  1  0
  6  5  1  0
  7  6  2  0
  8  7  1  0
  8  9  2  0
  9  4  1  0
 10  8  1  0
 11 10  1  0
 12 11  1  0
 13 12  1  0
 14 13  1  0
 14 15  1  0
 15 10  1  0
 16 23  1  0
 17 16  1  0
 18 17  1  0
 18 16  1  0
 19 20  2  0
 20 21  1  0
 22 21  2  0
 23 22  1  0
 24 23  2  0
 24 19  1  0
  3 25  1  0
  5 26  1  0
  6 27  1  0
  7 28  1  0
 11 29  1  0
 11 30  1  0
 12 31  1  0
 12 32  1  0
 13 33  1  0
 14 34  1  0
 14 35  1  0
 15 36  1  0
 15 37  1  0
 16 38  1  6
 17 39  1  0
 17 40  1  0
 18 41  1  6
 19 42  1  0
 20 43  1  0
 21 44  1  0
M  ISO  8  26  14  27  14  28  14  29  13  30  13  31  13  32  13  33   5
M  ISO  8  34  13  35  13  36  13  37  13  38  13  39  13  40  13  41  13
M  ISO  3  42  14  43  14  44  14
M  END
>  <minimizedAffinity>  (1) 
-5.53344202

>  <minimizedRMSD>  (1) 
0.173616007

$$$$
