
     RDKit          3D

 54 58  0  0  1  0  0  0  0  0999 V2000
   40.3790   30.9950   43.8180 C   0  0  0  0  0  0  0  0  0  0  0  0
   39.4270   28.8080   43.1510 C   0  0  0  0  0  0  0  0  0  0  0  0
   40.3140   29.8320   42.8790 C   0  0  0  0  0  0  0  0  0  0  0  0
   41.1080   29.7400   41.7420 C   0  0  0  0  0  0  0  0  0  0  0  0
   41.0230   28.6530   40.8910 C   0  0  0  0  0  0  0  0  0  0  0  0
   41.6820   28.3660   39.7550 N   0  0  0  0  0  0  0  0  0  0  0  0
   41.2050   27.1780   39.3350 C   0  0  0  0  0  0  0  0  0  0  0  0
   40.2420   26.6790   40.1780 C   0  0  0  0  0  0  0  0  0  0  0  0
   40.1350   27.6420   41.1790 C   0  0  0  0  0  0  0  0  0  0  0  0
   39.3520   27.7320   42.3000 C   0  0  0  0  0  0  0  0  0  0  0  0
   38.4480   26.6300   42.5290 N   0  0  0  0  0  0  0  0  0  0  0  0
   37.1290   26.4200   41.9990 C   0  0  0  0  0  0  0  0  0  0  0  0
   36.2910   25.8370   43.1050 C   0  0  0  0  0  0  0  0  0  0  0  0
   36.7970   24.5970   43.6070 N   0  0  0  0  0  0  0  0  0  0  0  0
   38.2040   24.4710   43.7180 C   0  0  0  0  0  0  0  0  0  0  0  0
   39.0330   25.6610   43.4180 C   0  0  0  0  0  0  0  0  0  0  0  0
   39.6120   30.6000   45.0750 C   0  0  0  0  0  0  0  0  0  0  0  0
   38.7370   32.0810   46.9250 C   0  0  1  0  0  0  0  0  0  0  0  0
   39.8000   32.9180   46.2480 C   0  0  0  0  0  0  0  0  0  0  0  0
   39.8890   31.4450   46.2620 C   0  0  2  0  0  0  0  0  0  0  0  0
   38.6500   32.2310   48.4150 C   0  0  0  0  0  0  0  0  0  0  0  0
   37.3340   29.8460   50.9800 C   0  0  0  0  0  0  0  0  0  0  0  0
   38.0710   30.9010   50.3580 C   0  0  0  0  0  0  0  0  0  0  0  0
   37.8770   31.1380   49.0290 C   0  0  0  0  0  0  0  0  0  0  0  0
   37.0000   30.3650   48.3720 N   0  0  0  0  0  0  0  0  0  0  0  0
   36.3090   29.3760   48.9530 C   0  0  0  0  0  0  0  0  0  0  0  0
   36.4870   29.1320   50.2520 N   0  0  0  0  0  0  0  0  0  0  0  0
   39.9161   31.8794   43.3558 H   0  0  0  0  0  0  0  0  0  0  0  0
   41.4226   31.2458   44.0589 H   0  0  0  0  0  0  0  0  0  0  0  0
   38.7851   28.8540   44.0431 H   0  0  0  0  0  0  0  0  0  0  0  0
   41.8186   30.5482   41.5143 H   0  0  0  0  0  0  0  0  0  0  0  0
   42.4057   28.9388   39.2978 H   0  0  0  0  0  0  0  0  0  0  0  0
   41.5470   26.6670   38.4229 H   0  0  0  0  0  0  0  0  0  0  0  0
   39.6837   25.7359   40.0842 H   0  0  0  0  0  0  0  0  0  0  0  0
   36.7002   27.3767   41.6659 H   0  0  0  0  0  0  0  0  0  0  0  0
   37.1599   25.7412   41.1340 H   0  0  0  0  0  0  0  0  0  0  0  0
   36.2549   26.5599   43.9333 H   0  0  0  0  0  0  0  0  0  0  0  0
   35.2942   25.6354   42.6857 H   0  0  0  0  0  0  0  0  0  0  0  0
   36.3980   24.4566   44.5461 H   0  0  0  0  0  0  0  0  0  0  0  0
   38.4252   24.1703   44.7527 H   0  0  0  0  0  0  0  0  0  0  0  0
   38.4774   23.7419   42.9410 H   0  0  0  0  0  0  0  0  0  0  0  0
   39.9718   25.3112   42.9638 H   0  0  0  0  0  0  0  0  0  0  0  0
   39.1638   26.1809   44.3785 H   0  0  0  0  0  0  0  0  0  0  0  0
   38.5363   30.6624   44.8537 H   0  0  0  0  0  0  0  0  0  0  0  0
   39.9427   29.5833   45.3338 H   0  0  0  0  0  0  0  0  0  0  0  0
   37.6524   31.9125   46.8521 H   0  0  0  0  0  0  0  0  0  0  0  0
   40.4966   33.5194   46.8505 H   0  0  0  0  0  0  0  0  0  0  0  0
   39.8070   33.6958   45.4702 H   0  0  0  0  0  0  0  0  0  0  0  0
   40.7041   30.7636   46.5471 H   0  0  0  0  0  0  0  0  0  0  0  0
   39.6672   32.2269   48.8336 H   0  0  0  0  0  0  0  0  0  0  0  0
   38.1368   33.1789   48.6345 H   0  0  0  0  0  0  0  0  0  0  0  0
   37.4681   29.6292   52.0500 H   0  0  0  0  0  0  0  0  0  0  0  0
   38.7799   31.5091   50.9391 H   0  0  0  0  0  0  0  0  0  0  0  0
   35.6024   28.7715   48.3654 H   0  0  0  0  0  0  0  0  0  0  0  0
  1 17  1  0
  3  2  2  0
  3  1  1  0
  4  3  1  0
  5  9  1  0
  5  4  2  0
  6  5  1  0
  7  6  1  0
  7  8  2  0
  8  9  1  0
  9 10  2  0
 10 11  1  0
 10  2  1  0
 11 16  1  0
 12 11  1  0
 12 13  1  0
 13 14  1  0
 14 15  1  0
 16 15  1  0
 17 20  1  0
 18 21  1  0
 19 20  1  0
 19 18  1  0
 20 18  1  0
 21 24  1  0
 23 22  2  0
 24 23  1  0
 25 26  1  0
 25 24  2  0
 26 27  2  0
 27 22  1  0
  1 28  1  0
  1 29  1  0
  2 30  1  0
  4 31  1  0
  6 32  1  0
  7 33  1  0
  8 34  1  0
 12 35  1  0
 12 36  1  0
 13 37  1  0
 13 38  1  0
 14 39  1  0
 15 40  1  0
 15 41  1  0
 16 42  1  0
 16 43  1  0
 17 44  1  0
 17 45  1  0
 18 46  1  6
 19 47  1  0
 19 48  1  0
 20 49  1  1
 21 50  1  0
 21 51  1  0
 22 52  1  0
 23 53  1  0
 26 54  1  0
M  ISO  8  28   8  29   8  30  14  31  14  32   9  33  14  34  14  35  13
M  ISO  8  36  13  37  13  38  13  39   5  40  13  41  13  42  13  43  13
M  ISO  8  44   8  45   8  46  13  47  13  48  13  49  13  50   8  51   8
M  ISO  3  52  14  53  14  54  14
M  END
>  <minimizedAffinity>  (1) 
-5.98364115

>  <minimizedRMSD>  (1) 
0.117476836

$$$$
