
     RDKit          3D

 46 49  0  0  1  0  0  0  0  0999 V2000
   38.9570   32.4970   47.7240 C   0  0  2  0  0  0  0  0  0  0  0  0
   37.9890   32.6650   48.9430 C   0  0  2  0  0  0  0  0  0  0  0  0
   38.8650   33.3390   49.8890 C   0  0  0  0  0  0  0  0  0  0  0  0
   39.6560   34.2250   49.1740 O   0  0  0  0  0  0  0  0  0  0  0  0
   39.5880   33.9090   47.8550 C   0  0  0  0  0  0  0  0  0  0  0  0
   37.3490   29.3640   50.6320 C   0  0  0  0  0  0  0  0  0  0  0  0
   37.9880   30.5860   50.2920 C   0  0  0  0  0  0  0  0  0  0  0  0
   37.3760   31.4200   49.3290 C   0  0  0  0  0  0  0  0  0  0  0  0
   36.1910   31.0160   48.7600 N   0  0  0  0  0  0  0  0  0  0  0  0
   35.6190   29.8560   49.1070 C   0  0  0  0  0  0  0  0  0  0  0  0
   36.1770   29.0260   50.0300 N   0  0  0  0  0  0  0  0  0  0  0  0
   38.2860   32.4260   46.5460 O   0  0  0  0  0  0  0  0  0  0  0  0
   40.7040   32.4280   44.6340 Cl  0  0  0  0  0  0  0  0  0  0  0  0
   39.2560   31.4730   44.4360 C   0  0  0  0  0  0  0  0  0  0  0  0
   38.3140   31.6600   45.4380 C   0  0  0  0  0  0  0  0  0  0  0  0
   37.1550   30.9160   45.2910 C   0  0  0  0  0  0  0  0  0  0  0  0
   36.9380   30.0510   44.2330 C   0  0  0  0  0  0  0  0  0  0  0  0
   37.9280   29.9200   43.2730 C   0  0  0  0  0  0  0  0  0  0  0  0
   39.1060   30.6380   43.3700 C   0  0  0  0  0  0  0  0  0  0  0  0
   40.0890   30.4430   42.3650 N   0  0  0  0  0  0  0  0  0  0  0  0
   40.1880   31.2120   41.1460 C   0  0  0  0  0  0  0  0  0  0  0  0
   39.8490   30.2560   40.0240 C   0  0  0  0  0  0  0  0  0  0  0  0
   40.9070   29.3060   39.9000 N   0  0  0  0  0  0  0  0  0  0  0  0
   41.7750   29.2470   41.0220 C   0  0  0  0  0  0  0  0  0  0  0  0
   41.1220   29.4580   42.3670 C   0  0  0  0  0  0  0  0  0  0  0  0
   39.6066   31.6093   47.7284 H   0  0  0  0  0  0  0  0  0  0  0  0
   37.0723   33.2513   48.7820 H   0  0  0  0  0  0  0  0  0  0  0  0
   38.2649   33.8869   50.6304 H   0  0  0  0  0  0  0  0  0  0  0  0
   39.4907   32.6083   50.4225 H   0  0  0  0  0  0  0  0  0  0  0  0
   40.5986   33.9066   47.4205 H   0  0  0  0  0  0  0  0  0  0  0  0
   38.9755   34.6490   47.3191 H   0  0  0  0  0  0  0  0  0  0  0  0
   37.7999   28.6939   51.3788 H   0  0  0  0  0  0  0  0  0  0  0  0
   38.9367   30.8764   50.7669 H   0  0  0  0  0  0  0  0  0  0  0  0
   34.6703   29.5655   48.6321 H   0  0  0  0  0  0  0  0  0  0  0  0
   36.3682   31.0178   46.0530 H   0  0  0  0  0  0  0  0  0  0  0  0
   36.0007   29.4804   44.1560 H   0  0  0  0  0  0  0  0  0  0  0  0
   37.7755   29.2373   42.4241 H   0  0  0  0  0  0  0  0  0  0  0  0
   39.4754   32.0498   41.1632 H   0  0  0  0  0  0  0  0  0  0  0  0
   41.1926   31.6422   41.0204 H   0  0  0  0  0  0  0  0  0  0  0  0
   38.9078   29.7347   40.2530 H   0  0  0  0  0  0  0  0  0  0  0  0
   39.7291   30.8102   39.0814 H   0  0  0  0  0  0  0  0  0  0  0  0
   40.4894   28.3740   39.7661 H   0  0  0  0  0  0  0  0  0  0  0  0
   42.2510   28.2553   41.0293 H   0  0  0  0  0  0  0  0  0  0  0  0
   42.4822   30.0804   40.8981 H   0  0  0  0  0  0  0  0  0  0  0  0
   41.8970   29.7716   43.0819 H   0  0  0  0  0  0  0  0  0  0  0  0
   40.6499   28.5037   42.6437 H   0  0  0  0  0  0  0  0  0  0  0  0
  1  5  1  0
  1  2  1  0
  2  8  1  0
  2  3  1  0
  4  3  1  0
  5  4  1  0
  7  6  2  0
  8  7  1  0
  9 10  1  0
  9  8  2  0
 10 11  2  0
 11  6  1  0
 12  1  1  0
 14 13  1  0
 14 15  2  0
 15 12  1  0
 16 15  1  0
 17 16  2  0
 18 19  2  0
 18 17  1  0
 19 14  1  0
 20 25  1  0
 20 19  1  0
 21 20  1  0
 22 21  1  0
 23 22  1  0
 23 24  1  0
 24 25  1  0
  1 26  1  1
  2 27  1  6
  3 28  1  0
  3 29  1  0
  5 30  1  0
  5 31  1  0
  6 32  1  0
  7 33  1  0
 10 34  1  0
 16 35  1  0
 17 36  1  0
 18 37  1  0
 21 38  1  0
 21 39  1  0
 22 40  1  0
 22 41  1  0
 23 42  1  0
 24 43  1  0
 24 44  1  0
 25 45  1  0
 25 46  1  0
M  ISO  8  26  13  27  13  28  13  29  13  30  13  31  13  32  14  33  14
M  ISO  8  34  14  35  14  36  14  37  14  38  13  39  13  40  13  41  13
M  ISO  5  42   5  43  13  44  13  45  13  46  13
M  END
>  <minimizedAffinity>  (1) 
-6.13670778

>  <minimizedRMSD>  (1) 
1.03018928

$$$$
