
     RDKit          3D

 24 26  0  0  0  0  0  0  0  0999 V2000
   37.8840   31.1490   47.2850 C   0  0  0  0  0  0  0  0  0  0  0  0
   36.6210   30.6290   47.1470 C   0  0  0  0  0  0  0  0  0  0  0  0
   36.1090   30.3680   48.3930 C   0  0  0  0  0  0  0  0  0  0  0  0
   37.0640   30.7300   49.2830 N   0  0  0  0  0  0  0  0  0  0  0  0
   38.1090   31.1920   48.5980 N   0  0  0  0  0  0  0  0  0  0  0  0
   40.8450   31.4930   45.1470 C   0  0  0  0  0  0  0  0  0  0  0  0
   40.3960   32.4050   44.1630 C   0  0  0  0  0  0  0  0  0  0  0  0
   39.0900   32.8800   44.2530 C   0  0  0  0  0  0  0  0  0  0  0  0
   38.3180   32.4490   45.2760 N   0  0  0  0  0  0  0  0  0  0  0  0
   38.7800   31.5640   46.2170 C   0  0  0  0  0  0  0  0  0  0  0  0
   40.0240   31.1070   46.1360 N   0  0  0  0  0  0  0  0  0  0  0  0
   36.8890   30.6010   50.7170 C   0  0  0  0  0  0  0  0  0  0  0  0
   37.5250   29.3430   51.3520 C   0  0  0  0  0  0  0  0  0  0  0  0
   36.0260   29.5260   51.2700 C   0  0  0  0  0  0  0  0  0  0  0  0
   36.1036   30.4506   46.1928 H   0  0  0  0  0  0  0  0  0  0  0  0
   35.1189   29.9479   48.6236 H   0  0  0  0  0  0  0  0  0  0  0  0
   41.8709   31.0988   45.1013 H   0  0  0  0  0  0  0  0  0  0  0  0
   41.0605   32.7301   43.3489 H   0  0  0  0  0  0  0  0  0  0  0  0
   38.6959   33.5887   43.5098 H   0  0  0  0  0  0  0  0  0  0  0  0
   36.9258   31.6895   50.8716 H   0  0  0  0  0  0  0  0  0  0  0  0
   38.0286   28.5964   50.7203 H   0  0  0  0  0  0  0  0  0  0  0  0
   38.2530   29.1458   52.1527 H   0  0  0  0  0  0  0  0  0  0  0  0
   35.4492   29.7097   52.1885 H   0  0  0  0  0  0  0  0  0  0  0  0
   35.2022   28.9208   50.8636 H   0  0  0  0  0  0  0  0  0  0  0  0
  1  5  2  0
  2  1  1  0
  2  3  2  0
  3  4  1  0
  4 12  1  0
  5  4  1  0
  6 11  2  0
  7  8  2  0
  7  6  1  0
  8  9  1  0
  9 10  2  0
 10  1  1  0
 11 10  1  0
 12 14  1  0
 12 13  1  0
 14 13  1  0
  2 15  1  0
  3 16  1  0
  6 17  1  0
  7 18  1  0
  8 19  1  0
 12 20  1  0
 13 21  1  0
 13 22  1  0
 14 23  1  0
 14 24  1  0
M  ISO  8  15  14  16  14  17  14  18  14  19  14  20  13  21  13  22  13
M  ISO  2  23  13  24  13
M  END
>  <minimizedAffinity>  (1) 
-4.83635712

>  <minimizedRMSD>  (1) 
3.99990845

$$$$
