
     RDKit          3D

 31 33  0  0  0  0  0  0  0  0999 V2000
   37.3420   31.4020   49.3070 C   0  0  0  0  0  0  0  0  0  0  0  0
   38.2860   32.3970   49.4930 C   0  0  0  0  0  0  0  0  0  0  0  0
   38.8680   32.8650   48.3260 C   0  0  0  0  0  0  0  0  0  0  0  0
   38.5140   32.3610   47.1150 N   0  0  0  0  0  0  0  0  0  0  0  0
   37.5880   31.3900   46.9770 C   0  0  0  0  0  0  0  0  0  0  0  0
   36.9920   30.9000   48.1070 N   0  0  0  0  0  0  0  0  0  0  0  0
   36.6470   30.8660   50.5340 C   0  0  0  0  0  0  0  0  0  0  0  0
   35.9790   29.6080   50.5580 C   0  0  0  0  0  0  0  0  0  0  0  0
   37.3910   29.6490   51.1280 C   0  0  0  0  0  0  0  0  0  0  0  0
   37.1890   30.8470   45.6860 C   0  0  0  0  0  0  0  0  0  0  0  0
   38.0720   32.0590   43.6870 C   0  0  0  0  0  0  0  0  0  0  0  0
   36.9700   32.6650   43.4520 O   0  0  0  0  0  0  0  0  0  0  0  0
   38.2610   31.1390   44.7490 N   0  0  0  0  0  0  0  0  0  0  0  0
   39.1940   32.3690   42.7630 C   0  0  0  0  0  0  0  0  0  0  0  0
   40.2060   31.3170   42.4260 C   0  0  0  0  0  0  0  0  0  0  0  0
   39.2230   31.7330   41.3980 C   0  0  0  0  0  0  0  0  0  0  0  0
   38.5527   32.7849   50.4872 H   0  0  0  0  0  0  0  0  0  0  0  0
   39.6290   33.6574   48.3808 H   0  0  0  0  0  0  0  0  0  0  0  0
   36.2898   31.8588   50.8450 H   0  0  0  0  0  0  0  0  0  0  0  0
   35.1256   29.4613   51.2364 H   0  0  0  0  0  0  0  0  0  0  0  0
   35.4888   28.9941   49.7880 H   0  0  0  0  0  0  0  0  0  0  0  0
   38.2292   29.1839   50.5884 H   0  0  0  0  0  0  0  0  0  0  0  0
   37.8826   29.3921   52.0779 H   0  0  0  0  0  0  0  0  0  0  0  0
   37.0415   29.7597   45.7634 H   0  0  0  0  0  0  0  0  0  0  0  0
   36.2423   31.2944   45.3491 H   0  0  0  0  0  0  0  0  0  0  0  0
   39.1717   30.6705   44.8582 H   0  0  0  0  0  0  0  0  0  0  0  0
   39.2404   33.3956   43.1554 H   0  0  0  0  0  0  0  0  0  0  0  0
   41.2653   31.5915   42.3141 H   0  0  0  0  0  0  0  0  0  0  0  0
   40.4994   30.3549   42.8713 H   0  0  0  0  0  0  0  0  0  0  0  0
   39.5533   32.3172   40.5265 H   0  0  0  0  0  0  0  0  0  0  0  0
   38.4879   31.2093   40.7692 H   0  0  0  0  0  0  0  0  0  0  0  0
  1  2  2  0
  1  7  1  0
  3  2  1  0
  4  3  2  0
  5  4  1  0
  5  6  2  0
  6  1  1  0
  7  8  1  0
  7  9  1  0
  8  9  1  0
 10  5  1  0
 11 13  1  0
 12 11  2  0
 13 10  1  0
 14 11  1  0
 15 14  1  0
 16 15  1  0
 16 14  1  0
  2 17  1  0
  3 18  1  0
  7 19  1  0
  8 20  1  0
  8 21  1  0
  9 22  1  0
  9 23  1  0
 10 24  1  0
 10 25  1  0
 13 26  1  0
 14 27  1  0
 15 28  1  0
 15 29  1  0
 16 30  1  0
 16 31  1  0
M  ISO  8  17  14  18  14  19  13  20  13  21  13  22  13  23  13  24   8
M  ISO  6  25   8  27  13  28  13  29  13  30  13  31  13
M  END
>  <minimizedAffinity>  (1) 
-4.75853968

>  <minimizedRMSD>  (1) 
2.67518187

$$$$
