
     RDKit          3D

 43 46  0  0  1  0  0  0  0  0999 V2000
   34.5680   30.1600   47.0920 C   0  0  0  0  0  0  0  0  0  0  0  0
   35.9330   30.5720   47.1050 C   0  0  0  0  0  0  0  0  0  0  0  0
   36.5690   30.7220   45.8640 C   0  0  0  0  0  0  0  0  0  0  0  0
   35.8640   30.4690   44.7320 N   0  0  0  0  0  0  0  0  0  0  0  0
   34.5790   30.0820   44.7600 C   0  0  0  0  0  0  0  0  0  0  0  0
   33.9400   29.9300   45.9280 N   0  0  0  0  0  0  0  0  0  0  0  0
   36.5020   30.7790   48.4000 N   0  0  0  0  0  0  0  0  0  0  0  0
   36.9460   31.9000   49.2170 C   0  0  0  0  0  0  0  0  0  0  0  0
   38.3360   31.4100   49.6550 C   0  0  0  0  0  0  0  0  0  0  0  0
   38.1820   29.8980   49.7700 C   0  0  0  0  0  0  0  0  0  0  0  0
   36.7900   29.6340   49.2940 C   0  0  1  0  0  0  0  0  0  0  0  0
   34.7570   28.8810   50.5230 C   0  0  0  0  0  0  0  0  0  0  0  0
   34.3620   28.0700   49.6350 O   0  0  0  0  0  0  0  0  0  0  0  0
   35.8920   29.7450   50.4360 N   0  0  0  0  0  0  0  0  0  0  0  0
   37.9340   31.1370   45.7630 C   0  0  0  0  0  0  0  0  0  0  0  0
   38.3350   32.2920   46.3990 C   0  0  0  0  0  0  0  0  0  0  0  0
   39.6210   32.7780   46.3700 C   0  0  0  0  0  0  0  0  0  0  0  0
   40.5410   32.0450   45.6550 C   0  0  0  0  0  0  0  0  0  0  0  0
   40.2230   30.8790   44.9900 C   0  0  0  0  0  0  0  0  0  0  0  0
   38.8990   30.4630   45.0740 C   0  0  0  0  0  0  0  0  0  0  0  0
   38.5520   29.2060   44.3540 C   0  0  0  0  0  0  0  0  0  0  0  0
   38.2300   29.3360   42.8740 C   0  0  0  0  0  0  0  0  0  0  0  0
   39.4720   28.6250   43.3550 C   0  0  0  0  0  0  0  0  0  0  0  0
   34.0267   30.0299   48.0407 H   0  0  0  0  0  0  0  0  0  0  0  0
   34.0466   29.8882   43.8172 H   0  0  0  0  0  0  0  0  0  0  0  0
   37.0111   32.8276   48.6293 H   0  0  0  0  0  0  0  0  0  0  0  0
   36.2707   32.1514   50.0481 H   0  0  0  0  0  0  0  0  0  0  0  0
   39.0955   31.6684   48.9024 H   0  0  0  0  0  0  0  0  0  0  0  0
   38.6675   31.8720   50.5966 H   0  0  0  0  0  0  0  0  0  0  0  0
   38.9162   29.3816   49.1342 H   0  0  0  0  0  0  0  0  0  0  0  0
   38.3535   29.5337   50.7936 H   0  0  0  0  0  0  0  0  0  0  0  0
   36.6744   28.6501   48.8159 H   0  0  0  0  0  0  0  0  0  0  0  0
   34.1695   28.9250   51.4519 H   0  0  0  0  0  0  0  0  0  0  0  0
   36.0736   30.4401   51.1741 H   0  0  0  0  0  0  0  0  0  0  0  0
   37.5808   32.8594   46.9640 H   0  0  0  0  0  0  0  0  0  0  0  0
   39.9004   33.7053   46.8916 H   0  0  0  0  0  0  0  0  0  0  0  0
   41.5791   32.4062   45.6119 H   0  0  0  0  0  0  0  0  0  0  0  0
   40.9754   30.3097   44.4245 H   0  0  0  0  0  0  0  0  0  0  0  0
   38.0588   28.7954   45.2474 H   0  0  0  0  0  0  0  0  0  0  0  0
   38.3087   30.3121   42.3730 H   0  0  0  0  0  0  0  0  0  0  0  0
   37.3767   29.0807   42.2285 H   0  0  0  0  0  0  0  0  0  0  0  0
   39.5502   27.5324   43.2541 H   0  0  0  0  0  0  0  0  0  0  0  0
   40.5474   28.7259   43.1469 H   0  0  0  0  0  0  0  0  0  0  0  0
  1  2  2  0
  2  7  1  0
  3  2  1  0
  4  5  1  0
  4  3  2  0
  5  6  2  0
  6  1  1  0
  7  8  1  0
  7 11  1  0
  8  9  1  0
  9 10  1  0
 11 10  1  0
 11 14  1  0
 13 12  2  0
 14 12  1  0
 15  3  1  0
 15 16  2  0
 17 16  1  0
 18 17  2  0
 19 20  2  0
 19 18  1  0
 20 15  1  0
 21 20  1  0
 22 23  1  0
 22 21  1  0
 23 21  1  0
  1 24  1  0
  5 25  1  0
  8 26  1  0
  8 27  1  0
  9 28  1  0
  9 29  1  0
 10 30  1  0
 10 31  1  0
 11 32  1  6
 12 33  1  0
 14 34  1  0
 16 35  1  0
 17 36  1  0
 18 37  1  0
 19 38  1  0
 21 39  1  0
 22 40  1  0
 22 41  1  0
 23 42  1  0
 23 43  1  0
M  ISO  8  24  14  25  14  26  13  27  13  28  13  29  13  30  13  31  13
M  ISO  8  32  13  33   6  35  14  36  14  37  14  38  14  39  13  40  13
M  ISO  3  41  13  42  13  43  13
M  END
>  <minimizedAffinity>  (1) 
-5.43148088

>  <minimizedRMSD>  (1) 
1.14171648

$$$$
