
     RDKit          3D

 30 32  0  0  0  0  0  0  0  0999 V2000
   37.4090   31.1110   47.0860 N   0  0  0  0  0  0  0  0  0  0  0  0
   36.7810   30.7820   45.9230 C   0  0  0  0  0  0  0  0  0  0  0  0
   37.2210   31.2580   44.6950 C   0  0  0  0  0  0  0  0  0  0  0  0
   38.3410   32.0950   44.6950 C   0  0  0  0  0  0  0  0  0  0  0  0
   38.7830   32.5550   43.6060 O   0  0  0  0  0  0  0  0  0  0  0  0
   38.9660   32.4200   45.8630 N   0  0  0  0  0  0  0  0  0  0  0  0
   38.4540   31.9030   46.9860 C   0  0  0  0  0  0  0  0  0  0  0  0
   39.0490   32.2230   48.0350 O   0  0  0  0  0  0  0  0  0  0  0  0
   37.3330   29.5770   50.4700 C   0  0  0  0  0  0  0  0  0  0  0  0
   37.8060   30.0560   49.2330 C   0  0  0  0  0  0  0  0  0  0  0  0
   36.9550   30.6240   48.3190 C   0  0  0  0  0  0  0  0  0  0  0  0
   35.6420   30.7010   48.6590 N   0  0  0  0  0  0  0  0  0  0  0  0
   35.1530   30.2500   49.8380 C   0  0  0  0  0  0  0  0  0  0  0  0
   35.9980   29.6870   50.7440 N   0  0  0  0  0  0  0  0  0  0  0  0
   40.1330   33.2880   45.8650 C   0  0  0  0  0  0  0  0  0  0  0  0
   40.0090   34.2370   44.9030 F   0  0  0  0  0  0  0  0  0  0  0  0
   41.3080   32.6060   45.5860 F   0  0  0  0  0  0  0  0  0  0  0  0
   40.2260   33.9230   47.0960 F   0  0  0  0  0  0  0  0  0  0  0  0
   36.5420   30.9060   43.4170 C   0  0  0  0  0  0  0  0  0  0  0  0
   35.0710   30.6070   43.4900 C   0  0  0  0  0  0  0  0  0  0  0  0
   35.5910   31.8180   42.7860 C   0  0  0  0  0  0  0  0  0  0  0  0
   35.9019   30.1217   45.9575 H   0  0  0  0  0  0  0  0  0  0  0  0
   38.0217   29.1248   51.1989 H   0  0  0  0  0  0  0  0  0  0  0  0
   38.8768   29.9732   48.9954 H   0  0  0  0  0  0  0  0  0  0  0  0
   34.0797   30.3380   50.0622 H   0  0  0  0  0  0  0  0  0  0  0  0
   37.4458   30.3966   43.0515 H   0  0  0  0  0  0  0  0  0  0  0  0
   34.6458   29.7711   42.9151 H   0  0  0  0  0  0  0  0  0  0  0  0
   34.3456   30.4145   44.2942 H   0  0  0  0  0  0  0  0  0  0  0  0
   35.4219   32.8159   43.2169 H   0  0  0  0  0  0  0  0  0  0  0  0
   35.4743   32.2307   41.7731 H   0  0  0  0  0  0  0  0  0  0  0  0
  1 11  1  0
  2  1  1  0
  3  4  1  0
  3  2  2  0
  4  6  1  0
  5  4  2  0
  6 15  1  0
  6  7  1  0
  7  1  1  0
  7  8  2  0
  9 14  2  0
 10  9  1  0
 11 12  1  0
 11 10  2  0
 12 13  2  0
 13 14  1  0
 15 18  1  0
 16 15  1  0
 17 15  1  0
 19 20  1  0
 19  3  1  0
 21 19  1  0
 21 20  1  0
  2 22  1  0
  9 23  1  0
 10 24  1  0
 13 25  1  0
 19 26  1  0
 20 27  1  0
 20 28  1  0
 21 29  1  0
 21 30  1  0
M  ISO  8  22  14  23  14  24  14  25  14  26  13  27  13  28  13  29  13
M  ISO  1  30  13
M  END
>  <minimizedAffinity>  (1) 
-5.93970299

>  <minimizedRMSD>  (1) 
0.155106068

$$$$
