
     RDKit          3D

 30 32  0  0  0  0  0  0  0  0999 V2000
   35.6320   30.2310   48.0150 C   0  0  0  0  0  0  0  0  0  0  0  0
   36.8940   30.6400   47.5670 C   0  0  0  0  0  0  0  0  0  0  0  0
   36.9830   30.6620   46.1960 C   0  0  0  0  0  0  0  0  0  0  0  0
   35.9570   30.3230   45.3890 N   0  0  0  0  0  0  0  0  0  0  0  0
   34.7710   29.9370   45.8460 C   0  0  0  0  0  0  0  0  0  0  0  0
   34.6040   29.8890   47.1660 N   0  0  0  0  0  0  0  0  0  0  0  0
   35.4050   30.2680   49.5230 C   0  0  0  0  0  0  0  0  0  0  0  0
   34.2730   29.6700   50.1250 C   0  0  0  0  0  0  0  0  0  0  0  0
   35.5080   28.7900   50.0630 C   0  0  0  0  0  0  0  0  0  0  0  0
   37.9810   30.9710   48.4820 C   0  0  0  0  0  0  0  0  0  0  0  0
   38.8160   32.1280   48.0880 C   0  0  0  0  0  0  0  0  0  0  0  0
   38.5840   33.3770   48.8390 C   0  0  0  0  0  0  0  0  0  0  0  0
   39.6900   34.4360   48.5880 C   0  0  0  0  0  0  0  0  0  0  0  0
   39.4200   33.8400   49.9570 C   0  0  0  0  0  0  0  0  0  0  0  0
   37.9336   30.9699   45.7361 H   0  0  0  0  0  0  0  0  0  0  0  0
   33.9560   29.6667   45.1585 H   0  0  0  0  0  0  0  0  0  0  0  0
   35.8293   31.2702   49.6827 H   0  0  0  0  0  0  0  0  0  0  0  0
   33.9273   30.0400   51.1015 H   0  0  0  0  0  0  0  0  0  0  0  0
   33.2355   29.5269   49.7886 H   0  0  0  0  0  0  0  0  0  0  0  0
   35.5601   27.9376   49.3697 H   0  0  0  0  0  0  0  0  0  0  0  0
   36.1377   28.2281   50.7685 H   0  0  0  0  0  0  0  0  0  0  0  0
   37.5408   31.1903   49.4659 H   0  0  0  0  0  0  0  0  0  0  0  0
   38.6525   30.0998   48.4807 H   0  0  0  0  0  0  0  0  0  0  0  0
   39.8701   31.8443   48.2235 H   0  0  0  0  0  0  0  0  0  0  0  0
   38.5413   32.3519   47.0467 H   0  0  0  0  0  0  0  0  0  0  0  0
   37.4921   33.2624   48.7711 H   0  0  0  0  0  0  0  0  0  0  0  0
   40.6019   34.1690   48.0338 H   0  0  0  0  0  0  0  0  0  0  0  0
   39.7374   35.4474   48.1581 H   0  0  0  0  0  0  0  0  0  0  0  0
   38.9754   34.4670   50.7439 H   0  0  0  0  0  0  0  0  0  0  0  0
   40.0463   33.3293   50.7033 H   0  0  0  0  0  0  0  0  0  0  0  0
  1  7  1  0
  2  1  1  0
  2 10  1  0
  3  2  2  0
  4  5  2  0
  4  3  1  0
  5  6  1  0
  6  1  2  0
  7  9  1  0
  7  8  1  0
  9  8  1  0
 11 10  1  0
 11 12  1  0
 12 14  1  0
 13 12  1  0
 13 14  1  0
  3 15  1  0
  5 16  1  0
  7 17  1  0
  8 18  1  0
  8 19  1  0
  9 20  1  0
  9 21  1  0
 10 22  1  0
 10 23  1  0
 11 24  1  0
 11 25  1  0
 12 26  1  0
 13 27  1  0
 13 28  1  0
 14 29  1  0
 14 30  1  0
M  ISO  8  15  14  16  14  17  13  18  13  19  13  20  13  21  13  22   8
M  ISO  8  23   8  24   8  25   8  26  13  27  13  28  13  29  13  30  13
M  END
>  <minimizedAffinity>  (1) 
-4.73250914

>  <minimizedRMSD>  (1) 
2.24664235

$$$$
