
     RDKit          3D

 38 40  0  0  1  0  0  0  0  0999 V2000
   33.2810   27.1260   48.3250 C   0  0  1  0  0  0  0  0  0  0  0  0
   33.7030   28.5040   48.7650 C   0  0  2  0  0  0  0  0  0  0  0  0
   33.4620   29.4440   47.6360 C   0  0  0  0  0  0  0  0  0  0  0  0
   32.9590   28.8210   46.5050 O   0  0  0  0  0  0  0  0  0  0  0  0
   31.7390   28.1730   46.7620 C   0  0  0  0  0  0  0  0  0  0  0  0
   31.8140   27.2270   47.9210 C   0  0  2  0  0  0  0  0  0  0  0  0
   33.9890   26.7260   47.1950 O   0  0  0  0  0  0  0  0  0  0  0  0
   35.4230   28.5590   49.3100 S   0  0  0  0  0  0  0  0  0  0  0  0
   35.6430   29.8340   50.5650 C   0  0  0  0  0  0  0  0  0  0  0  0
   37.3540   30.2560   50.8690 S   0  0  0  0  0  0  0  0  0  0  0  0
   37.9950   31.1080   49.4330 C   0  0  0  0  0  0  0  0  0  0  0  0
   38.3710   32.4140   49.6610 C   0  0  0  0  0  0  0  0  0  0  0  0
   38.8830   33.1560   48.5910 C   0  0  0  0  0  0  0  0  0  0  0  0
   38.9810   32.5310   47.3700 N   0  0  0  0  0  0  0  0  0  0  0  0
   38.5960   31.2510   47.2100 C   0  0  0  0  0  0  0  0  0  0  0  0
   38.1120   30.5560   48.2290 N   0  0  0  0  0  0  0  0  0  0  0  0
   31.1580   27.7500   49.0240 O   0  0  0  0  0  0  0  0  0  0  0  0
   29.8480   27.3750   49.1500 C   0  0  0  0  0  0  0  0  0  0  0  0
   29.2080   27.0700   50.4370 C   0  0  0  0  0  0  0  0  0  0  0  0
   28.9790   28.4390   49.8470 C   0  0  0  0  0  0  0  0  0  0  0  0
   33.4607   26.4073   49.1382 H   0  0  0  0  0  0  0  0  0  0  0  0
   33.1056   28.7994   49.6401 H   0  0  0  0  0  0  0  0  0  0  0  0
   32.7413   30.2074   47.9644 H   0  0  0  0  0  0  0  0  0  0  0  0
   34.4330   29.8829   47.3630 H   0  0  0  0  0  0  0  0  0  0  0  0
   30.9760   28.9349   46.9797 H   0  0  0  0  0  0  0  0  0  0  0  0
   31.4848   27.5821   45.8697 H   0  0  0  0  0  0  0  0  0  0  0  0
   31.3668   26.2656   47.6282 H   0  0  0  0  0  0  0  0  0  0  0  0
   34.8164   26.2585   47.4723 H   0  0  0  0  0  0  0  0  0  0  0  0
   35.1150   30.7408   50.2350 H   0  0  0  0  0  0  0  0  0  0  0  0
   35.2390   29.4320   51.5059 H   0  0  0  0  0  0  0  0  0  0  0  0
   38.2710   32.8625   50.6604 H   0  0  0  0  0  0  0  0  0  0  0  0
   39.1961   34.2024   48.7218 H   0  0  0  0  0  0  0  0  0  0  0  0
   38.6843   30.7764   46.2216 H   0  0  0  0  0  0  0  0  0  0  0  0
   29.8801   26.8007   48.2123 H   0  0  0  0  0  0  0  0  0  0  0  0
   28.3786   26.3484   50.4741 H   0  0  0  0  0  0  0  0  0  0  0  0
   29.5782   26.7085   51.4077 H   0  0  0  0  0  0  0  0  0  0  0  0
   29.4437   29.3260   50.3023 H   0  0  0  0  0  0  0  0  0  0  0  0
   28.1039   29.0478   49.5759 H   0  0  0  0  0  0  0  0  0  0  0  0
  1  2  1  0
  2  8  1  0
  3  2  1  0
  4  5  1  0
  4  3  1  0
  5  6  1  0
  6  1  1  0
  6 17  1  0
  7  1  1  0
  8  9  1  0
  9 10  1  0
 11 12  2  0
 11 10  1  0
 13 12  1  0
 14 13  2  0
 15 14  1  0
 15 16  2  0
 16 11  1  0
 17 18  1  0
 18 20  1  0
 18 19  1  0
 20 19  1  0
  1 21  1  1
  2 22  1  1
  3 23  1  0
  3 24  1  0
  5 25  1  0
  5 26  1  0
  6 27  1  6
  7 28  1  0
  9 29  1  0
  9 30  1  0
 12 31  1  0
 13 32  1  0
 15 33  1  0
 18 34  1  0
 19 35  1  0
 19 36  1  0
 20 37  1  0
 20 38  1  0
M  ISO  8  21  13  22  13  23  13  24  13  25  13  26  13  27  13  28   3
M  ISO  8  29   8  30   8  31  14  32  14  33  14  34  13  35  13  36  13
M  ISO  2  37  13  38  13
M  END
>  <minimizedAffinity>  (1) 
-4.71271086

>  <minimizedRMSD>  (1) 
0.941408396

$$$$
