
     RDKit          3D

 25 27  0  0  1  0  0  0  0  0999 V2000
   36.8910   30.8590   50.6590 C   0  0  1  0  0  0  0  0  0  0  0  0
   36.1780   29.6020   50.6920 C   0  0  2  0  0  0  0  0  0  0  0  0
   37.5410   29.6500   51.3360 C   0  0  0  0  0  0  0  0  0  0  0  0
   37.6610   31.2880   49.4240 C   0  0  0  0  0  0  0  0  0  0  0  0
   38.2090   32.5700   49.4570 C   0  0  0  0  0  0  0  0  0  0  0  0
   38.8880   32.9460   48.3090 C   0  0  0  0  0  0  0  0  0  0  0  0
   38.9970   32.0990   47.2290 N   0  0  0  0  0  0  0  0  0  0  0  0
   38.4350   30.8530   47.2590 C   0  0  0  0  0  0  0  0  0  0  0  0
   37.7610   30.4450   48.3700 N   0  0  0  0  0  0  0  0  0  0  0  0
   36.0750   28.8400   49.5180 O   0  0  0  0  0  0  0  0  0  0  0  0
   34.7100   28.7770   49.2240 C   0  0  0  0  0  0  0  0  0  0  0  0
   34.1360   27.6360   48.4910 C   0  0  0  0  0  0  0  0  0  0  0  0
   34.4500   28.8760   47.7230 C   0  0  0  0  0  0  0  0  0  0  0  0
   36.5662   31.8778   50.9171 H   0  0  0  0  0  0  0  0  0  0  0  0
   35.1654   29.3278   51.0228 H   0  0  0  0  0  0  0  0  0  0  0  0
   38.3977   29.1419   50.8691 H   0  0  0  0  0  0  0  0  0  0  0  0
   37.9619   29.4232   52.3267 H   0  0  0  0  0  0  0  0  0  0  0  0
   38.1097   33.2331   50.3290 H   0  0  0  0  0  0  0  0  0  0  0  0
   39.3500   33.9430   48.2595 H   0  0  0  0  0  0  0  0  0  0  0  0
   38.5267   30.1838   46.3908 H   0  0  0  0  0  0  0  0  0  0  0  0
   34.4032   29.2667   50.1600 H   0  0  0  0  0  0  0  0  0  0  0  0
   34.7403   26.7304   48.3336 H   0  0  0  0  0  0  0  0  0  0  0  0
   33.2327   27.0210   48.6168 H   0  0  0  0  0  0  0  0  0  0  0  0
   35.2912   28.8912   47.0144 H   0  0  0  0  0  0  0  0  0  0  0  0
   33.8909   29.5567   47.0642 H   0  0  0  0  0  0  0  0  0  0  0  0
  1  2  1  0
  1  3  1  0
  2  3  1  0
  4  5  2  0
  4  1  1  0
  6  5  1  0
  7  8  1  0
  7  6  2  0
  8  9  2  0
  9  4  1  0
 10  2  1  0
 11 10  1  0
 12 11  1  0
 13 12  1  0
 13 11  1  0
  1 14  1  1
  2 15  1  1
  3 16  1  0
  3 17  1  0
  5 18  1  0
  6 19  1  0
  8 20  1  0
 11 21  1  0
 12 22  1  0
 12 23  1  0
 13 24  1  0
 13 25  1  0
M  ISO  8  14  13  15  13  16  13  17  13  18  14  19  14  20  14  21  13
M  ISO  4  22  13  23  13  24  13  25  13
M  END
>  <minimizedAffinity>  (1) 
-4.83332729

>  <minimizedRMSD>  (1) 
0.589889526

$$$$
