
     RDKit          3D

 27 29  0  0  0  0  0  0  0  0999 V2000
   40.2850   32.8370   45.9150 C   0  0  0  0  0  0  0  0  0  0  0  0
   40.1050   33.2700   44.5880 C   0  0  0  0  0  0  0  0  0  0  0  0
   38.8710   32.9870   43.9570 C   0  0  0  0  0  0  0  0  0  0  0  0
   37.9370   32.3150   44.6790 N   0  0  0  0  0  0  0  0  0  0  0  0
   38.1610   31.9200   45.9570 C   0  0  0  0  0  0  0  0  0  0  0  0
   39.3210   32.1760   46.5730 N   0  0  0  0  0  0  0  0  0  0  0  0
   37.1760   31.2170   46.7020 N   0  0  0  0  0  0  0  0  0  0  0  0
   36.2360   30.5150   46.0530 C   0  0  0  0  0  0  0  0  0  0  0  0
   35.3250   29.8680   46.8620 C   0  0  0  0  0  0  0  0  0  0  0  0
   35.3410   29.9110   48.2440 C   0  0  0  0  0  0  0  0  0  0  0  0
   34.4950   29.3080   48.9480 O   0  0  0  0  0  0  0  0  0  0  0  0
   36.3160   30.6390   48.8610 N   0  0  0  0  0  0  0  0  0  0  0  0
   37.2030   31.2690   48.0540 C   0  0  0  0  0  0  0  0  0  0  0  0
   38.1320   31.9600   48.5860 O   0  0  0  0  0  0  0  0  0  0  0  0
   36.4330   30.7570   50.2850 C   0  0  0  0  0  0  0  0  0  0  0  0
   37.6830   30.3700   51.0080 C   0  0  0  0  0  0  0  0  0  0  0  0
   36.3780   29.5630   51.1680 C   0  0  0  0  0  0  0  0  0  0  0  0
   41.2376   33.0453   46.4240 H   0  0  0  0  0  0  0  0  0  0  0  0
   40.9008   33.8128   44.0569 H   0  0  0  0  0  0  0  0  0  0  0  0
   38.6751   33.2994   42.9206 H   0  0  0  0  0  0  0  0  0  0  0  0
   36.1942   30.4590   44.9552 H   0  0  0  0  0  0  0  0  0  0  0  0
   34.5335   29.2790   46.3756 H   0  0  0  0  0  0  0  0  0  0  0  0
   35.8499   31.6872   50.2163 H   0  0  0  0  0  0  0  0  0  0  0  0
   38.5334   29.9442   50.4553 H   0  0  0  0  0  0  0  0  0  0  0  0
   38.3849   30.8730   51.6894 H   0  0  0  0  0  0  0  0  0  0  0  0
   35.8176   29.6007   52.1138 H   0  0  0  0  0  0  0  0  0  0  0  0
   36.0888   28.5091   51.0426 H   0  0  0  0  0  0  0  0  0  0  0  0
  1  6  2  0
  2  1  1  0
  3  2  2  0
  3  4  1  0
  4  5  2  0
  5  6  1  0
  5  7  1  0
  7 13  1  0
  8  7  1  0
  8  9  2  0
  9 10  1  0
 10 12  1  0
 10 11  2  0
 12 15  1  0
 13 14  2  0
 13 12  1  0
 15 16  1  0
 15 17  1  0
 16 17  1  0
  1 18  1  0
  2 19  1  0
  3 20  1  0
  8 21  1  0
  9 22  1  0
 15 23  1  0
 16 24  1  0
 16 25  1  0
 17 26  1  0
 17 27  1  0
M  ISO  8  18  14  19  14  20  14  21  14  22  14  23  13  24  13  25  13
M  ISO  2  26  13  27  13
M  END
>  <minimizedAffinity>  (1) 
-5.71446371

>  <minimizedRMSD>  (1) 
4.43626308

$$$$
