
     RDKit          3D

 31 33  0  0  0  0  0  0  0  0999 V2000
   35.7130   29.9120   50.0250 C   0  0  0  0  0  0  0  0  0  0  0  0
   35.8340   30.5330   48.7630 C   0  0  0  0  0  0  0  0  0  0  0  0
   34.9160   30.2150   47.7560 C   0  0  0  0  0  0  0  0  0  0  0  0
   33.9460   29.3150   48.0520 N   0  0  0  0  0  0  0  0  0  0  0  0
   33.8330   28.7310   49.2340 C   0  0  0  0  0  0  0  0  0  0  0  0
   34.7100   29.0280   50.2110 N   0  0  0  0  0  0  0  0  0  0  0  0
   36.9090   31.4670   48.5890 N   0  0  0  0  0  0  0  0  0  0  0  0
   37.2640   32.3450   49.5200 C   0  0  0  0  0  0  0  0  0  0  0  0
   38.3250   33.2190   49.2780 C   0  0  0  0  0  0  0  0  0  0  0  0
   38.9160   33.0810   48.0600 C   0  0  0  0  0  0  0  0  0  0  0  0
   39.8800   33.8940   47.8730 O   0  0  0  0  0  0  0  0  0  0  0  0
   38.5970   32.2210   47.1000 N   0  0  0  0  0  0  0  0  0  0  0  0
   37.5630   31.4000   47.3900 C   0  0  0  0  0  0  0  0  0  0  0  0
   37.2370   30.5630   46.4810 O   0  0  0  0  0  0  0  0  0  0  0  0
   39.2840   32.1420   45.8280 C   0  0  0  0  0  0  0  0  0  0  0  0
   40.6480   32.7100   45.6480 C   0  0  0  0  0  0  0  0  0  0  0  0
   40.4650   31.2320   45.6480 C   0  0  0  0  0  0  0  0  0  0  0  0
   37.6240   29.4050   51.7130 C   0  0  0  0  0  0  0  0  0  0  0  0
   37.9960   28.3030   51.2520 O   0  0  0  0  0  0  0  0  0  0  0  0
   36.5750   30.1730   51.1100 N   0  0  0  0  0  0  0  0  0  0  0  0
   34.9790   30.6783   46.7603 H   0  0  0  0  0  0  0  0  0  0  0  0
   33.0261   28.0062   49.4173 H   0  0  0  0  0  0  0  0  0  0  0  0
   36.7242   32.3833   50.4777 H   0  0  0  0  0  0  0  0  0  0  0  0
   38.6583   33.9633   50.0162 H   0  0  0  0  0  0  0  0  0  0  0  0
   38.3150   32.2759   45.3249 H   0  0  0  0  0  0  0  0  0  0  0  0
   40.9064   33.2306   44.7141 H   0  0  0  0  0  0  0  0  0  0  0  0
   41.2754   33.4127   46.2160 H   0  0  0  0  0  0  0  0  0  0  0  0
   40.5842   30.6622   44.7147 H   0  0  0  0  0  0  0  0  0  0  0  0
   40.8962   30.3930   46.2138 H   0  0  0  0  0  0  0  0  0  0  0  0
   38.1196   29.7983   52.6129 H   0  0  0  0  0  0  0  0  0  0  0  0
   36.4215   31.0899   51.5534 H   0  0  0  0  0  0  0  0  0  0  0  0
  1  6  2  0
  1 20  1  0
  2  1  1  0
  3  4  1  0
  3  2  2  0
  4  5  2  0
  5  6  1  0
  7  2  1  0
  7  8  1  0
  9  8  2  0
 10  9  1  0
 11 10  2  0
 12 13  1  0
 12 10  1  0
 13  7  1  0
 14 13  2  0
 15 12  1  0
 16 15  1  0
 17 16  1  0
 17 15  1  0
 19 18  2  0
 20 18  1  0
  3 21  1  0
  5 22  1  0
  8 23  1  0
  9 24  1  0
 15 25  1  0
 16 26  1  0
 16 27  1  0
 17 28  1  0
 17 29  1  0
 18 30  1  0
 20 31  1  0
M  ISO  8  21  14  22  14  23  14  24  14  25  13  26  13  27  13  28  13
M  ISO  2  29  13  30   6
M  END
>  <minimizedAffinity>  (1) 
-5.68166351

>  <minimizedRMSD>  (1) 
1.21670091

$$$$
