
     RDKit          3D

 37 40  0  0  1  0  0  0  0  0999 V2000
   35.6010   30.3660   49.0060 C   0  0  1  0  0  0  0  0  0  0  0  0
   35.6800   28.9470   48.7460 C   0  0  1  0  0  0  0  0  0  0  0  0
   35.8480   29.3840   50.1640 C   0  0  0  0  0  0  0  0  0  0  0  0
   33.7990   28.9110   47.2140 C   0  0  2  0  0  0  0  0  0  0  0  0
   34.5110   28.1290   48.3100 C   0  0  2  0  0  0  0  0  0  0  0  0
   33.5950   27.9700   49.3070 O   0  0  0  0  0  0  0  0  0  0  0  0
   32.3270   28.0590   48.8130 C   0  0  0  0  0  0  0  0  0  0  0  0
   32.4150   28.2610   47.3150 C   0  0  1  0  0  0  0  0  0  0  0  0
   34.3560   28.7220   45.9600 O   0  0  0  0  0  0  0  0  0  0  0  0
   31.4370   29.0540   46.7860 O   0  0  0  0  0  0  0  0  0  0  0  0
   30.1880   28.4590   46.7580 C   0  0  0  0  0  0  0  0  0  0  0  0
   29.0200   29.0650   47.4200 C   0  0  0  0  0  0  0  0  0  0  0  0
   29.0990   29.0050   45.9110 C   0  0  0  0  0  0  0  0  0  0  0  0
   36.7930   31.2790   48.7790 C   0  0  0  0  0  0  0  0  0  0  0  0
   37.0450   32.2680   49.7280 C   0  0  0  0  0  0  0  0  0  0  0  0
   38.1320   33.0830   49.4580 C   0  0  0  0  0  0  0  0  0  0  0  0
   38.8860   32.9100   48.3380 N   0  0  0  0  0  0  0  0  0  0  0  0
   38.6060   31.9280   47.4330 C   0  0  0  0  0  0  0  0  0  0  0  0
   37.5450   31.1070   47.6640 N   0  0  0  0  0  0  0  0  0  0  0  0
   34.8623   31.1188   48.6934 H   0  0  0  0  0  0  0  0  0  0  0  0
   36.2825   28.3439   48.0509 H   0  0  0  0  0  0  0  0  0  0  0  0
   36.8327   29.3318   50.6515 H   0  0  0  0  0  0  0  0  0  0  0  0
   35.3714   29.1555   51.1287 H   0  0  0  0  0  0  0  0  0  0  0  0
   33.8331   30.0037   47.3359 H   0  0  0  0  0  0  0  0  0  0  0  0
   34.8822   27.1433   47.9929 H   0  0  0  0  0  0  0  0  0  0  0  0
   31.7764   27.1322   49.0319 H   0  0  0  0  0  0  0  0  0  0  0  0
   31.7963   28.9022   49.2792 H   0  0  0  0  0  0  0  0  0  0  0  0
   32.2775   27.3315   46.7431 H   0  0  0  0  0  0  0  0  0  0  0  0
   35.2889   28.4054   46.0576 H   0  0  0  0  0  0  0  0  0  0  0  0
   30.6912   27.4842   46.8396 H   0  0  0  0  0  0  0  0  0  0  0  0
   28.3018   28.4305   47.9600 H   0  0  0  0  0  0  0  0  0  0  0  0
   28.8708   29.8629   48.1624 H   0  0  0  0  0  0  0  0  0  0  0  0
   29.2594   29.9243   45.3286 H   0  0  0  0  0  0  0  0  0  0  0  0
   28.4589   28.6125   45.1071 H   0  0  0  0  0  0  0  0  0  0  0  0
   36.4246   32.3926   50.6278 H   0  0  0  0  0  0  0  0  0  0  0  0
   38.3912   33.8865   50.1631 H   0  0  0  0  0  0  0  0  0  0  0  0
   39.2262   31.8021   46.5333 H   0  0  0  0  0  0  0  0  0  0  0  0
  1  3  1  0
  2  1  1  0
  2  3  1  0
  4  8  1  0
  4  5  1  0
  5  2  1  0
  5  6  1  0
  7  6  1  0
  8  7  1  0
  9  4  1  0
 10  8  1  0
 11 10  1  0
 11 12  1  0
 13 11  1  0
 13 12  1  0
 14  1  1  0
 14 15  2  0
 16 15  1  0
 17 16  2  0
 18 19  2  0
 18 17  1  0
 19 14  1  0
  1 20  1  1
  2 21  1  6
  3 22  1  0
  3 23  1  0
  4 24  1  1
  5 25  1  6
  7 26  1  0
  7 27  1  0
  8 28  1  6
  9 29  1  0
 11 30  1  0
 12 31  1  0
 12 32  1  0
 13 33  1  0
 13 34  1  0
 15 35  1  0
 16 36  1  0
 18 37  1  0
M  ISO  8  20  13  21  13  22  13  23  13  24  13  25  13  26  13  27  13
M  ISO  8  28  13  29   3  30  13  31  13  32  13  33  13  34  13  35  14
M  ISO  2  36  14  37  14
M  END
>  <minimizedAffinity>  (1) 
-4.84171438

>  <minimizedRMSD>  (1) 
0.553667367

$$$$
