
     RDKit          3D

 27 29  0  0  0  0  0  0  0  0999 V2000
   37.1980   31.1580   48.3930 C   0  0  0  0  0  0  0  0  0  0  0  0
   38.2020   32.0310   48.6760 C   0  0  0  0  0  0  0  0  0  0  0  0
   38.9590   32.6730   47.7140 C   0  0  0  0  0  0  0  0  0  0  0  0
   38.7130   32.4390   46.3740 C   0  0  0  0  0  0  0  0  0  0  0  0
   37.6940   31.5510   46.1230 C   0  0  0  0  0  0  0  0  0  0  0  0
   36.9670   30.9370   47.0720 N   0  0  0  0  0  0  0  0  0  0  0  0
   36.9110   30.0060   50.6130 C   0  0  0  0  0  0  0  0  0  0  0  0
   36.4010   30.4790   49.4070 C   0  0  0  0  0  0  0  0  0  0  0  0
   35.0580   30.2860   49.1660 C   0  0  0  0  0  0  0  0  0  0  0  0
   34.2960   29.6500   50.1020 N   0  0  0  0  0  0  0  0  0  0  0  0
   34.8450   29.2100   51.2610 C   0  0  0  0  0  0  0  0  0  0  0  0
   36.1640   29.3840   51.5310 N   0  0  0  0  0  0  0  0  0  0  0  0
   39.3930   33.0120   45.3230 O   0  0  0  0  0  0  0  0  0  0  0  0
   40.5190   32.5390   44.6650 C   0  0  0  0  0  0  0  0  0  0  0  0
   41.3000   31.3930   45.3890 C   0  0  0  0  0  0  0  0  0  0  0  0
   40.5710   31.1810   44.0690 C   0  0  0  0  0  0  0  0  0  0  0  0
   38.4247   32.2384   49.7331 H   0  0  0  0  0  0  0  0  0  0  0  0
   39.7560   33.3691   48.0143 H   0  0  0  0  0  0  0  0  0  0  0  0
   37.4572   31.3275   45.0723 H   0  0  0  0  0  0  0  0  0  0  0  0
   37.9814   30.1512   50.8209 H   0  0  0  0  0  0  0  0  0  0  0  0
   34.6050   30.6411   48.2286 H   0  0  0  0  0  0  0  0  0  0  0  0
   34.2076   28.7008   51.9988 H   0  0  0  0  0  0  0  0  0  0  0  0
   40.7310   33.5378   44.2557 H   0  0  0  0  0  0  0  0  0  0  0  0
   42.3994   31.4032   45.4227 H   0  0  0  0  0  0  0  0  0  0  0  0
   41.2835   30.9302   46.3867 H   0  0  0  0  0  0  0  0  0  0  0  0
   39.6607   30.5639   44.0451 H   0  0  0  0  0  0  0  0  0  0  0  0
   40.8737   30.7919   43.0857 H   0  0  0  0  0  0  0  0  0  0  0  0
  1  2  2  0
  1  8  1  0
  3  2  1  0
  4  3  2  0
  5  4  1  0
  5  6  2  0
  6  1  1  0
  7 12  2  0
  8  7  1  0
  9  8  2  0
  9 10  1  0
 10 11  2  0
 11 12  1  0
 13  4  1  0
 14 13  1  0
 14 15  1  0
 16 14  1  0
 16 15  1  0
  2 17  1  0
  3 18  1  0
  5 19  1  0
  7 20  1  0
  9 21  1  0
 11 22  1  0
 14 23  1  0
 15 24  1  0
 15 25  1  0
 16 26  1  0
 16 27  1  0
M  ISO  8  17  14  18  14  19  14  20  14  21  14  22  14  23  13  24  13
M  ISO  3  25  13  26  13  27  13
M  END
>  <minimizedAffinity>  (1) 
-4.95854092

>  <minimizedRMSD>  (1) 
1.26296234

$$$$
