
     RDKit          3D

 45 48  0  0  0  0  0  0  0  0999 V2000
   34.6330   29.3400   49.0310 O   0  0  0  0  0  0  0  0  0  0  0  0
   37.3150   30.1180   51.3320 C   0  0  0  0  0  0  0  0  0  0  0  0
   38.1810   30.8220   50.4630 C   0  0  0  0  0  0  0  0  0  0  0  0
   37.7890   30.9860   49.1440 C   0  0  0  0  0  0  0  0  0  0  0  0
   36.5780   30.4390   48.8010 N   0  0  0  0  0  0  0  0  0  0  0  0
   35.7780   29.7790   49.6320 C   0  0  0  0  0  0  0  0  0  0  0  0
   36.1610   29.6220   50.9170 N   0  0  0  0  0  0  0  0  0  0  0  0
   38.8940   33.6610   49.2300 F   0  0  0  0  0  0  0  0  0  0  0  0
   39.0610   32.9240   48.1500 C   0  0  0  0  0  0  0  0  0  0  0  0
   38.5400   31.6730   48.1190 C   0  0  0  0  0  0  0  0  0  0  0  0
   38.7700   30.9780   46.9350 C   0  0  0  0  0  0  0  0  0  0  0  0
   39.4750   31.5300   45.8880 C   0  0  0  0  0  0  0  0  0  0  0  0
   39.9840   32.8000   45.9630 C   0  0  0  0  0  0  0  0  0  0  0  0
   39.7690   33.4970   47.1120 C   0  0  0  0  0  0  0  0  0  0  0  0
   34.1280   30.0460   47.9110 C   0  0  0  0  0  0  0  0  0  0  0  0
   33.7270   29.1000   46.8120 C   0  0  0  0  0  0  0  0  0  0  0  0
   32.9030   27.9650   47.3320 C   0  0  0  0  0  0  0  0  0  0  0  0
   33.3050   26.6830   47.0130 C   0  0  0  0  0  0  0  0  0  0  0  0
   32.6220   25.5740   47.4370 C   0  0  0  0  0  0  0  0  0  0  0  0
   31.5370   25.7300   48.1810 N   0  0  0  0  0  0  0  0  0  0  0  0
   31.1450   26.9900   48.4930 C   0  0  0  0  0  0  0  0  0  0  0  0
   31.8000   28.0960   48.0860 N   0  0  0  0  0  0  0  0  0  0  0  0
   29.9120   27.1550   49.3370 C   0  0  0  0  0  0  0  0  0  0  0  0
   29.0550   28.2820   48.8620 C   0  0  0  0  0  0  0  0  0  0  0  0
   27.5560   28.0610   49.1530 C   0  0  0  0  0  0  0  0  0  0  0  0
   28.3290   29.1870   49.7620 C   0  0  0  0  0  0  0  0  0  0  0  0
   37.6095   29.9790   52.3827 H   0  0  0  0  0  0  0  0  0  0  0  0
   39.1378   31.2275   50.8237 H   0  0  0  0  0  0  0  0  0  0  0  0
   38.3765   29.9560   46.8322 H   0  0  0  0  0  0  0  0  0  0  0  0
   39.6325   30.9394   44.9735 H   0  0  0  0  0  0  0  0  0  0  0  0
   40.5455   33.2398   45.1256 H   0  0  0  0  0  0  0  0  0  0  0  0
   40.1604   34.5199   47.2142 H   0  0  0  0  0  0  0  0  0  0  0  0
   33.2491   30.6304   48.2208 H   0  0  0  0  0  0  0  0  0  0  0  0
   34.9182   30.7098   47.5304 H   0  0  0  0  0  0  0  0  0  0  0  0
   34.6350   28.6950   46.3414 H   0  0  0  0  0  0  0  0  0  0  0  0
   33.1207   29.6582   46.0834 H   0  0  0  0  0  0  0  0  0  0  0  0
   34.2058   26.5476   46.3964 H   0  0  0  0  0  0  0  0  0  0  0  0
   32.9699   24.5670   47.1633 H   0  0  0  0  0  0  0  0  0  0  0  0
   29.3278   26.2238   49.2979 H   0  0  0  0  0  0  0  0  0  0  0  0
   30.2319   27.3815   50.3648 H   0  0  0  0  0  0  0  0  0  0  0  0
   29.7276   28.4943   48.0179 H   0  0  0  0  0  0  0  0  0  0  0  0
   26.8035   28.2595   48.3756 H   0  0  0  0  0  0  0  0  0  0  0  0
   26.9372   27.2327   49.5285 H   0  0  0  0  0  0  0  0  0  0  0  0
   28.5501   29.1727   50.8395 H   0  0  0  0  0  0  0  0  0  0  0  0
   28.1882   30.2775   49.7941 H   0  0  0  0  0  0  0  0  0  0  0  0
  1  6  1  0
  3  2  2  0
  4  3  1  0
  5  4  2  0
  5  6  1  0
  6  7  2  0
  7  2  1  0
  9  8  1  0
 10  9  2  0
 10  4  1  0
 11 10  1  0
 12 13  1  0
 12 11  2  0
 13 14  2  0
 14  9  1  0
 15  1  1  0
 16 17  1  0
 16 15  1  0
 17 22  1  0
 18 17  2  0
 18 19  1  0
 19 20  2  0
 20 21  1  0
 21 23  1  0
 22 21  2  0
 24 25  1  0
 24 23  1  0
 24 26  1  0
 25 26  1  0
  2 27  1  0
  3 28  1  0
 11 29  1  0
 12 30  1  0
 13 31  1  0
 14 32  1  0
 15 33  1  0
 15 34  1  0
 16 35  1  0
 16 36  1  0
 18 37  1  0
 19 38  1  0
 23 39  1  0
 23 40  1  0
 24 41  1  0
 25 42  1  0
 25 43  1  0
 26 44  1  0
 26 45  1  0
M  ISO  8  27  14  28  14  29  14  30  14  31  14  32  14  33   8  34   8
M  ISO  8  35   8  36   8  37  14  38  14  39   8  40   8  41  13  42  13
M  ISO  3  43  13  44  13  45  13
M  END
>  <minimizedAffinity>  (1) 
-6.34579325

>  <minimizedRMSD>  (1) 
2.58678508

$$$$
