
     RDKit          3D

 43 47  0  0  0  0  0  0  0  0999 V2000
   35.8190   29.4420   49.9530 C   0  0  0  0  0  0  0  0  0  0  0  0
   36.5220   30.0920   48.9180 C   0  0  0  0  0  0  0  0  0  0  0  0
   35.9800   29.9600   47.6680 C   0  0  0  0  0  0  0  0  0  0  0  0
   34.8860   29.2550   47.5690 N   0  0  0  0  0  0  0  0  0  0  0  0
   34.1940   28.6370   48.4640 C   0  0  0  0  0  0  0  0  0  0  0  0
   34.7200   28.7700   49.6640 N   0  0  0  0  0  0  0  0  0  0  0  0
   32.9760   27.8250   48.4720 C   0  0  0  0  0  0  0  0  0  0  0  0
   31.8510   28.2020   49.1530 N   0  0  0  0  0  0  0  0  0  0  0  0
   30.7550   27.4600   49.1660 C   0  0  0  0  0  0  0  0  0  0  0  0
   30.6400   26.2790   48.5220 N   0  0  0  0  0  0  0  0  0  0  0  0
   31.7070   25.8530   47.8370 C   0  0  0  0  0  0  0  0  0  0  0  0
   31.6130   24.6550   47.1750 C   0  0  0  0  0  0  0  0  0  0  0  0
   32.6970   24.1720   46.4470 C   0  0  0  0  0  0  0  0  0  0  0  0
   33.8370   24.9470   46.4340 C   0  0  0  0  0  0  0  0  0  0  0  0
   33.8860   26.1440   47.1150 C   0  0  0  0  0  0  0  0  0  0  0  0
   32.8490   26.6390   47.8290 C   0  0  0  0  0  0  0  0  0  0  0  0
   38.5320   31.5740   48.3550 Cl  0  0  0  0  0  0  0  0  0  0  0  0
   37.8170   31.3960   46.7610 C   0  0  0  0  0  0  0  0  0  0  0  0
   36.6680   30.6360   46.5990 C   0  0  0  0  0  0  0  0  0  0  0  0
   36.2450   30.5890   45.3030 C   0  0  0  0  0  0  0  0  0  0  0  0
   36.9040   31.2370   44.2780 C   0  0  0  0  0  0  0  0  0  0  0  0
   38.0310   31.9740   44.4760 C   0  0  0  0  0  0  0  0  0  0  0  0
   38.4910   32.0510   45.7530 C   0  0  0  0  0  0  0  0  0  0  0  0
   39.7250   32.8550   45.9980 C   0  0  0  0  0  0  0  0  0  0  0  0
   40.2120   33.7630   44.9200 C   0  0  0  0  0  0  0  0  0  0  0  0
   40.9750   32.5550   45.3040 C   0  0  0  0  0  0  0  0  0  0  0  0
   36.2820   29.4940   51.3410 N   0  0  0  0  0  0  0  0  0  0  0  0
   37.4424   30.6655   49.1023 H   0  0  0  0  0  0  0  0  0  0  0  0
   29.8876   27.8268   49.7344 H   0  0  0  0  0  0  0  0  0  0  0  0
   30.6794   24.0750   47.2195 H   0  0  0  0  0  0  0  0  0  0  0  0
   32.6461   23.2152   45.9066 H   0  0  0  0  0  0  0  0  0  0  0  0
   34.7192   24.6054   45.8726 H   0  0  0  0  0  0  0  0  0  0  0  0
   34.8175   26.7278   47.0760 H   0  0  0  0  0  0  0  0  0  0  0  0
   35.3404   30.0102   45.0648 H   0  0  0  0  0  0  0  0  0  0  0  0
   36.5013   31.1543   43.2577 H   0  0  0  0  0  0  0  0  0  0  0  0
   38.5434   32.4814   43.6453 H   0  0  0  0  0  0  0  0  0  0  0  0
   39.4483   32.9600   47.0574 H   0  0  0  0  0  0  0  0  0  0  0  0
   40.5963   34.7627   45.1707 H   0  0  0  0  0  0  0  0  0  0  0  0
   39.7954   34.1626   43.9836 H   0  0  0  0  0  0  0  0  0  0  0  0
   41.0270   31.6986   44.6156 H   0  0  0  0  0  0  0  0  0  0  0  0
   42.0099   32.3648   45.6247 H   0  0  0  0  0  0  0  0  0  0  0  0
   35.7509   29.0108   52.0795 H   0  0  0  0  0  0  0  0  0  0  0  0
   37.1388   30.0138   51.5790 H   0  0  0  0  0  0  0  0  0  0  0  0
  1 27  1  0
  2  1  2  0
  3  2  1  0
  4  3  2  0
  4  5  1  0
  5  7  1  0
  5  6  2  0
  6  1  1  0
  7  8  2  0
  8  9  1  0
 10  9  2  0
 11 10  1  0
 12 11  2  0
 13 12  1  0
 14 13  2  0
 14 15  1  0
 15 16  2  0
 16 11  1  0
 16  7  1  0
 18 17  1  0
 19 18  2  0
 19  3  1  0
 20 19  1  0
 21 22  1  0
 21 20  2  0
 22 23  2  0
 23 24  1  0
 23 18  1  0
 25 26  1  0
 25 24  1  0
 26 24  1  0
  2 28  1  0
  9 29  1  0
 12 30  1  0
 13 31  1  0
 14 32  1  0
 15 33  1  0
 20 34  1  0
 21 35  1  0
 22 36  1  0
 24 37  1  0
 25 38  1  0
 25 39  1  0
 26 40  1  0
 26 41  1  0
 27 42  1  0
 27 43  1  0
M  ISO  8  28  14  29  14  30  14  31  14  32  14  33  14  34  14  35  14
M  ISO  6  36  14  37  13  38  13  39  13  40  13  41  13
M  END
>  <minimizedAffinity>  (1) 
-6.7342844

>  <minimizedRMSD>  (1) 
2.88296676

$$$$
