
     RDKit          3D

 29 31  0  0  1  0  0  0  0  0999 V2000
   36.5840   29.4900   49.3630 N   0  0  0  0  0  0  0  0  0  0  0  0
   37.7190   30.1630   48.7910 C   0  0  0  0  0  0  0  0  0  0  0  0
   38.3600   30.8210   50.0050 C   0  0  2  0  0  0  0  0  0  0  0  0
   37.4590   30.5260   51.1780 C   0  0  0  0  0  0  0  0  0  0  0  0
   36.9450   29.1510   50.7390 C   0  0  0  0  0  0  0  0  0  0  0  0
   35.3400   29.1960   48.7440 C   0  0  0  0  0  0  0  0  0  0  0  0
   34.9740   29.9940   47.6640 C   0  0  0  0  0  0  0  0  0  0  0  0
   33.7560   29.7490   47.0160 C   0  0  0  0  0  0  0  0  0  0  0  0
   32.9940   28.7120   47.5030 N   0  0  0  0  0  0  0  0  0  0  0  0
   33.3890   27.9580   48.5600 C   0  0  0  0  0  0  0  0  0  0  0  0
   34.5610   28.2010   49.1790 N   0  0  0  0  0  0  0  0  0  0  0  0
   38.6450   32.2650   49.7970 C   0  0  0  0  0  0  0  0  0  0  0  0
   37.5620   33.1880   49.3980 C   0  0  0  0  0  0  0  0  0  0  0  0
   38.7490   32.9020   48.4810 C   0  0  0  0  0  0  0  0  0  0  0  0
   38.4074   29.4480   48.3169 H   0  0  0  0  0  0  0  0  0  0  0  0
   37.4512   30.8756   47.9970 H   0  0  0  0  0  0  0  0  0  0  0  0
   39.3600   30.4054   50.1981 H   0  0  0  0  0  0  0  0  0  0  0  0
   38.0165   30.4758   52.1249 H   0  0  0  0  0  0  0  0  0  0  0  0
   36.6842   31.2794   51.3830 H   0  0  0  0  0  0  0  0  0  0  0  0
   36.0753   28.8251   51.3284 H   0  0  0  0  0  0  0  0  0  0  0  0
   37.6498   28.3149   50.8581 H   0  0  0  0  0  0  0  0  0  0  0  0
   35.6325   30.8067   47.3235 H   0  0  0  0  0  0  0  0  0  0  0  0
   33.4253   30.3558   46.1602 H   0  0  0  0  0  0  0  0  0  0  0  0
   32.7455   27.1397   48.9153 H   0  0  0  0  0  0  0  0  0  0  0  0
   39.3462   32.1929   50.6414 H   0  0  0  0  0  0  0  0  0  0  0  0
   36.5637   32.7976   49.1509 H   0  0  0  0  0  0  0  0  0  0  0  0
   37.0970   34.0882   49.8264 H   0  0  0  0  0  0  0  0  0  0  0  0
   38.6097   32.3066   47.5666 H   0  0  0  0  0  0  0  0  0  0  0  0
   39.5041   33.5127   47.9644 H   0  0  0  0  0  0  0  0  0  0  0  0
  1  5  1  0
  2  1  1  0
  2  3  1  0
  3  4  1  0
  5  4  1  0
  6 11  1  0
  6  1  1  0
  7  6  2  0
  8  9  2  0
  8  7  1  0
  9 10  1  0
 10 11  2  0
 12  3  1  0
 13 12  1  0
 14 13  1  0
 14 12  1  0
  2 15  1  0
  2 16  1  0
  3 17  1  1
  4 18  1  0
  4 19  1  0
  5 20  1  0
  5 21  1  0
  7 22  1  0
  8 23  1  0
 10 24  1  0
 12 25  1  0
 13 26  1  0
 13 27  1  0
 14 28  1  0
 14 29  1  0
M  ISO  8  15  13  16  13  17  13  18  13  19  13  20  13  21  13  22  14
M  ISO  7  23  14  24  14  25  13  26  13  27  13  28  13  29  13
M  END
>  <minimizedAffinity>  (1) 
-5.17091513

>  <minimizedRMSD>  (1) 
0.40941292

$$$$
