
     RDKit          3D

 37 40  0  0  0  0  0  0  0  0999 V2000
   33.9080   30.2130   48.0620 F   0  0  0  0  0  0  0  0  0  0  0  0
   34.4860   29.9440   46.8570 C   0  0  0  0  0  0  0  0  0  0  0  0
   33.7520   29.4670   45.7850 C   0  0  0  0  0  0  0  0  0  0  0  0
   34.3900   29.2690   44.5740 C   0  0  0  0  0  0  0  0  0  0  0  0
   35.7550   29.5520   44.4360 C   0  0  0  0  0  0  0  0  0  0  0  0
   36.4220   30.0260   45.5460 C   0  0  0  0  0  0  0  0  0  0  0  0
   35.8340   30.2270   46.7510 C   0  0  0  0  0  0  0  0  0  0  0  0
   38.1460   32.2660   46.1910 Br  0  0  0  0  0  0  0  0  0  0  0  0
   37.6470   31.6070   47.9010 C   0  0  0  0  0  0  0  0  0  0  0  0
   36.6240   30.6750   47.8850 C   0  0  0  0  0  0  0  0  0  0  0  0
   36.2370   30.0740   49.0890 C   0  0  0  0  0  0  0  0  0  0  0  0
   36.8610   30.4100   50.2460 C   0  0  0  0  0  0  0  0  0  0  0  0
   37.8780   31.3510   50.2130 C   0  0  0  0  0  0  0  0  0  0  0  0
   38.2940   31.9740   49.0270 C   0  0  0  0  0  0  0  0  0  0  0  0
   39.3730   32.9880   48.9230 C   0  0  0  0  0  0  0  0  0  0  0  0
   39.6210   33.9050   50.0880 C   0  0  0  0  0  0  0  0  0  0  0  0
   39.0480   34.4120   48.7950 C   0  0  0  0  0  0  0  0  0  0  0  0
   32.0160   28.0150   46.5630 C   0  0  0  0  0  0  0  0  0  0  0  0
   32.3570   29.2530   46.0260 C   0  0  0  0  0  0  0  0  0  0  0  0
   31.3310   30.1430   45.8000 C   0  0  0  0  0  0  0  0  0  0  0  0
   30.0540   29.7910   46.1020 N   0  0  0  0  0  0  0  0  0  0  0  0
   29.7570   28.6070   46.6110 C   0  0  0  0  0  0  0  0  0  0  0  0
   30.7250   27.7180   46.8440 N   0  0  0  0  0  0  0  0  0  0  0  0
   33.8217   28.8867   43.7133 H   0  0  0  0  0  0  0  0  0  0  0  0
   36.2751   29.4018   43.4784 H   0  0  0  0  0  0  0  0  0  0  0  0
   37.4936   30.2543   45.4481 H   0  0  0  0  0  0  0  0  0  0  0  0
   35.4272   29.3296   49.0968 H   0  0  0  0  0  0  0  0  0  0  0  0
   36.5641   29.9424   51.1963 H   0  0  0  0  0  0  0  0  0  0  0  0
   38.3790   31.6201   51.1546 H   0  0  0  0  0  0  0  0  0  0  0  0
   39.9833   32.2885   48.3328 H   0  0  0  0  0  0  0  0  0  0  0  0
   38.9903   33.8422   50.9870 H   0  0  0  0  0  0  0  0  0  0  0  0
   40.4850   34.1594   50.7195 H   0  0  0  0  0  0  0  0  0  0  0  0
   39.6554   35.0558   48.1419 H   0  0  0  0  0  0  0  0  0  0  0  0
   38.1457   34.9770   48.5183 H   0  0  0  0  0  0  0  0  0  0  0  0
   32.8020   27.2714   46.7609 H   0  0  0  0  0  0  0  0  0  0  0  0
   31.5445   31.1355   45.3764 H   0  0  0  0  0  0  0  0  0  0  0  0
   28.7116   28.3547   46.8425 H   0  0  0  0  0  0  0  0  0  0  0  0
  2  1  1  0
  3 19  1  0
  3  2  2  0
  4  3  1  0
  5  4  2  0
  5  6  1  0
  6  7  2  0
  7  2  1  0
  7 10  1  0
  8  9  1  0
  9 14  2  0
 10  9  1  0
 10 11  2  0
 11 12  1  0
 13 12  2  0
 14 13  1  0
 15 14  1  0
 15 16  1  0
 17 15  1  0
 17 16  1  0
 18 23  2  0
 19 18  1  0
 20 19  2  0
 20 21  1  0
 21 22  2  0
 22 23  1  0
  4 24  1  0
  5 25  1  0
  6 26  1  0
 11 27  1  0
 12 28  1  0
 13 29  1  0
 15 30  1  0
 16 31  1  0
 16 32  1  0
 17 33  1  0
 17 34  1  0
 18 35  1  0
 20 36  1  0
 22 37  1  0
M  ISO  8  24  14  25  14  26  14  27  14  28  14  29  14  30  13  31  13
M  ISO  6  32  13  33  13  34  13  35  14  36  14  37  14
M  END
>  <minimizedAffinity>  (1) 
-5.31077385

>  <minimizedRMSD>  (1) 
3.20874214

$$$$
