
     RDKit          3D

 34 37  0  0  1  0  0  0  0  0999 V2000
   36.8250   31.1830   50.2240 C   0  0  1  0  0  0  0  0  0  0  0  0
   36.5220   29.7870   50.1960 C   0  0  1  0  0  0  0  0  0  0  0  0
   37.5580   30.2350   51.1950 C   0  0  0  0  0  0  0  0  0  0  0  0
   37.7860   31.8080   49.2290 C   0  0  0  0  0  0  0  0  0  0  0  0
   38.2450   33.0720   49.5600 C   0  0  0  0  0  0  0  0  0  0  0  0
   39.1180   33.6490   48.6120 C   0  0  0  0  0  0  0  0  0  0  0  0
   39.4480   32.9830   47.4870 N   0  0  0  0  0  0  0  0  0  0  0  0
   38.9650   31.7320   47.2060 C   0  0  0  0  0  0  0  0  0  0  0  0
   38.1140   31.1340   48.1020 N   0  0  0  0  0  0  0  0  0  0  0  0
   35.1670   29.3140   50.6140 C   0  0  0  0  0  0  0  0  0  0  0  0
   34.2680   29.0550   49.4530 C   0  0  0  0  0  0  0  0  0  0  0  0
   34.2660   29.8540   48.3230 C   0  0  0  0  0  0  0  0  0  0  0  0
   33.3800   29.4320   47.4160 N   0  0  0  0  0  0  0  0  0  0  0  0
   32.8100   28.3410   47.9880 C   0  0  0  0  0  0  0  0  0  0  0  0
   33.3450   28.1170   49.2110 N   0  0  0  0  0  0  0  0  0  0  0  0
   31.7520   27.5450   47.3180 C   0  0  0  0  0  0  0  0  0  0  0  0
   30.9630   26.5320   48.0310 C   0  0  0  0  0  0  0  0  0  0  0  0
   30.3510   27.8760   47.8510 C   0  0  0  0  0  0  0  0  0  0  0  0
   36.1600   32.0585   50.2578 H   0  0  0  0  0  0  0  0  0  0  0  0
   36.5277   29.0109   49.4165 H   0  0  0  0  0  0  0  0  0  0  0  0
   38.6209   29.9932   51.0478 H   0  0  0  0  0  0  0  0  0  0  0  0
   37.7076   30.1606   52.2822 H   0  0  0  0  0  0  0  0  0  0  0  0
   37.9527   33.5857   50.4877 H   0  0  0  0  0  0  0  0  0  0  0  0
   39.5329   34.6515   48.7930 H   0  0  0  0  0  0  0  0  0  0  0  0
   39.2541   31.2158   46.2786 H   0  0  0  0  0  0  0  0  0  0  0  0
   35.2802   28.3819   51.1870 H   0  0  0  0  0  0  0  0  0  0  0  0
   34.7084   30.1090   51.2203 H   0  0  0  0  0  0  0  0  0  0  0  0
   34.9158   30.7312   48.1877 H   0  0  0  0  0  0  0  0  0  0  0  0
   33.1761   29.8414   46.4931 H   0  0  0  0  0  0  0  0  0  0  0  0
   32.2990   27.4987   46.3648 H   0  0  0  0  0  0  0  0  0  0  0  0
   30.5569   25.6722   47.4780 H   0  0  0  0  0  0  0  0  0  0  0  0
   31.1548   25.8924   48.9052 H   0  0  0  0  0  0  0  0  0  0  0  0
   30.2294   28.5504   48.7115 H   0  0  0  0  0  0  0  0  0  0  0  0
   29.4159   28.2659   47.4225 H   0  0  0  0  0  0  0  0  0  0  0  0
  1  3  1  0
  2  1  1  0
  2 10  1  0
  2  3  1  0
  4  5  2  0
  4  1  1  0
  6  5  1  0
  7  6  2  0
  8  7  1  0
  8  9  2  0
  9  4  1  0
 11 10  1  0
 12 11  2  0
 13 14  1  0
 13 12  1  0
 14 15  2  0
 15 11  1  0
 16 18  1  0
 16 14  1  0
 16 17  1  0
 18 17  1  0
  1 19  1  1
  2 20  1  6
  3 21  1  0
  3 22  1  0
  5 23  1  0
  6 24  1  0
  8 25  1  0
 10 26  1  0
 10 27  1  0
 12 28  1  0
 13 29  1  0
 16 30  1  0
 17 31  1  0
 17 32  1  0
 18 33  1  0
 18 34  1  0
M  ISO  8  19  13  20  13  21  13  22  13  23  14  24  14  25  14  26   8
M  ISO  8  27   8  28  14  29   9  30  13  31  13  32  13  33  13  34  13
M  END
>  <minimizedAffinity>  (1) 
-5.51721287

>  <minimizedRMSD>  (1) 
0.137634397

$$$$
