
     RDKit          3D

 24 25  0  0  0  0  0  0  0  0999 V2000
   34.8550   28.2950   49.6450 O   0  0  0  0  0  0  0  0  0  0  0  0
   37.3400   30.2380   51.4180 C   0  0  0  0  0  0  0  0  0  0  0  0
   38.0780   30.7180   50.3400 C   0  0  0  0  0  0  0  0  0  0  0  0
   37.6930   30.3560   49.0530 C   0  0  0  0  0  0  0  0  0  0  0  0
   36.5940   29.5370   48.9530 N   0  0  0  0  0  0  0  0  0  0  0  0
   35.9060   29.0930   50.0050 C   0  0  0  0  0  0  0  0  0  0  0  0
   36.2820   29.4470   51.2540 N   0  0  0  0  0  0  0  0  0  0  0  0
   34.4260   28.3210   48.2880 C   0  0  0  0  0  0  0  0  0  0  0  0
   33.4470   27.2020   48.0460 C   0  0  0  0  0  0  0  0  0  0  0  0
   32.1050   27.6850   48.6010 C   0  0  0  0  0  0  0  0  0  0  0  0
   30.9870   27.9230   47.6610 C   0  0  0  0  0  0  0  0  0  0  0  0
   30.9450   26.7040   48.5260 C   0  0  0  0  0  0  0  0  0  0  0  0
   37.6405   30.5212   52.4376 H   0  0  0  0  0  0  0  0  0  0  0  0
   38.9484   31.3707   50.5024 H   0  0  0  0  0  0  0  0  0  0  0  0
   38.2384   30.7061   48.1642 H   0  0  0  0  0  0  0  0  0  0  0  0
   33.9400   29.2848   48.0761 H   0  0  0  0  0  0  0  0  0  0  0  0
   35.2963   28.1943   47.6273 H   0  0  0  0  0  0  0  0  0  0  0  0
   33.3625   26.9949   46.9690 H   0  0  0  0  0  0  0  0  0  0  0  0
   33.7720   26.2711   48.5336 H   0  0  0  0  0  0  0  0  0  0  0  0
   32.5864   28.2853   49.3871 H   0  0  0  0  0  0  0  0  0  0  0  0
   31.1524   27.8187   46.5785 H   0  0  0  0  0  0  0  0  0  0  0  0
   30.2991   28.7623   47.4811 H   0  0  0  0  0  0  0  0  0  0  0  0
   30.2227   26.6368   49.3529 H   0  0  0  0  0  0  0  0  0  0  0  0
   30.8413   25.6225   48.3540 H   0  0  0  0  0  0  0  0  0  0  0  0
  1  6  1  0
  3  2  2  0
  4  3  1  0
  5  4  2  0
  5  6  1  0
  6  7  2  0
  7  2  1  0
  8  1  1  0
  9  8  1  0
  9 10  1  0
 11 12  1  0
 11 10  1  0
 12 10  1  0
  2 13  1  0
  3 14  1  0
  4 15  1  0
  8 16  1  0
  8 17  1  0
  9 18  1  0
  9 19  1  0
 10 20  1  0
 11 21  1  0
 11 22  1  0
 12 23  1  0
 12 24  1  0
M  ISO  8  13  14  14  14  15  14  16   8  17   8  18   8  19   8  20  13
M  ISO  4  21  13  22  13  23  13  24  13
M  END
>  <minimizedAffinity>  (1) 
-3.89691186

>  <minimizedRMSD>  (1) 
1.2377677

$$$$
