
     RDKit          3D

 43 46  0  0  1  0  0  0  0  0999 V2000
   34.6410   30.3040   48.5240 C   0  0  1  0  0  0  0  0  0  0  0  0
   33.6780   30.4990   47.4690 C   0  0  0  0  0  0  0  0  0  0  0  0
   33.5030   29.3480   46.4980 C   0  0  0  0  0  0  0  0  0  0  0  0
   33.4870   28.0170   47.0580 C   0  0  2  0  0  0  0  0  0  0  0  0
   34.4730   27.7630   48.2190 C   0  0  0  0  0  0  0  0  0  0  0  0
   34.5010   28.9350   49.1550 C   0  0  0  0  0  0  0  0  0  0  0  0
   33.9140   27.0410   46.0100 C   0  0  0  0  0  0  0  0  0  0  0  0
   34.4480   27.5860   44.8200 C   0  0  0  0  0  0  0  0  0  0  0  0
   34.8240   26.7770   43.7690 C   0  0  0  0  0  0  0  0  0  0  0  0
   34.6670   25.4470   43.9080 C   0  0  0  0  0  0  0  0  0  0  0  0
   34.1500   24.8970   45.0470 C   0  0  0  0  0  0  0  0  0  0  0  0
   33.7670   25.6980   46.1100 C   0  0  0  0  0  0  0  0  0  0  0  0
   33.2210   25.0400   47.2820 C   0  0  0  0  0  0  0  0  0  0  0  0
   31.8720   25.1510   47.8180 C   0  0  0  0  0  0  0  0  0  0  0  0
   32.0770   24.0370   46.8990 C   0  0  0  0  0  0  0  0  0  0  0  0
   36.6080   30.5920   47.0100 C   0  0  0  0  0  0  0  0  0  0  0  0
   36.0430   30.6700   48.2780 C   0  0  0  0  0  0  0  0  0  0  0  0
   36.8620   31.1120   49.3180 C   0  0  0  0  0  0  0  0  0  0  0  0
   38.1600   31.4420   49.0390 N   0  0  0  0  0  0  0  0  0  0  0  0
   38.6700   31.3520   47.7930 C   0  0  0  0  0  0  0  0  0  0  0  0
   37.8810   30.9210   46.7680 N   0  0  0  0  0  0  0  0  0  0  0  0
   34.3515   31.0820   49.2457 H   0  0  0  0  0  0  0  0  0  0  0  0
   32.7021   30.6933   47.9378 H   0  0  0  0  0  0  0  0  0  0  0  0
   34.0671   31.3336   46.8674 H   0  0  0  0  0  0  0  0  0  0  0  0
   34.3308   29.3944   45.7751 H   0  0  0  0  0  0  0  0  0  0  0  0
   32.5019   29.4885   46.0644 H   0  0  0  0  0  0  0  0  0  0  0  0
   32.4578   27.9025   47.4291 H   0  0  0  0  0  0  0  0  0  0  0  0
   34.1567   26.8663   48.7721 H   0  0  0  0  0  0  0  0  0  0  0  0
   35.4808   27.6180   47.8026 H   0  0  0  0  0  0  0  0  0  0  0  0
   35.3504   28.7948   49.8398 H   0  0  0  0  0  0  0  0  0  0  0  0
   33.5149   28.9401   49.6425 H   0  0  0  0  0  0  0  0  0  0  0  0
   34.5657   28.6761   44.7310 H   0  0  0  0  0  0  0  0  0  0  0  0
   35.2397   27.2051   42.8449 H   0  0  0  0  0  0  0  0  0  0  0  0
   34.9633   24.7845   43.0814 H   0  0  0  0  0  0  0  0  0  0  0  0
   34.0367   23.8053   45.1205 H   0  0  0  0  0  0  0  0  0  0  0  0
   34.1884   25.1228   47.7990 H   0  0  0  0  0  0  0  0  0  0  0  0
   31.7007   24.9408   48.8841 H   0  0  0  0  0  0  0  0  0  0  0  0
   31.1436   25.9750   47.8412 H   0  0  0  0  0  0  0  0  0  0  0  0
   31.6332   24.0559   45.8927 H   0  0  0  0  0  0  0  0  0  0  0  0
   31.9349   22.9467   46.9302 H   0  0  0  0  0  0  0  0  0  0  0  0
   35.9832   30.2461   46.1733 H   0  0  0  0  0  0  0  0  0  0  0  0
   36.4711   31.1935   50.3430 H   0  0  0  0  0  0  0  0  0  0  0  0
   39.7187   31.6254   47.6049 H   0  0  0  0  0  0  0  0  0  0  0  0
  1  6  1  0
  2  1  1  0
  3  4  1  0
  3  2  1  0
  4  5  1  0
  5  6  1  0
  7 12  1  0
  7  4  1  0
  8  7  2  0
  9 10  2  0
  9  8  1  0
 10 11  1  0
 11 12  2  0
 12 13  1  0
 13 14  1  0
 15 13  1  0
 15 14  1  0
 16 17  2  0
 17  1  1  0
 17 18  1  0
 19 18  2  0
 20 19  1  0
 21 16  1  0
 21 20  2  0
  1 22  1  1
  2 23  1  0
  2 24  1  0
  3 25  1  0
  3 26  1  0
  4 27  1  1
  5 28  1  0
  5 29  1  0
  6 30  1  0
  6 31  1  0
  8 32  1  0
  9 33  1  0
 10 34  1  0
 11 35  1  0
 13 36  1  0
 14 37  1  0
 14 38  1  0
 15 39  1  0
 15 40  1  0
 16 41  1  0
 18 42  1  0
 20 43  1  0
M  ISO  8  22  13  23  13  24  13  25  13  26  13  27  13  28  13  29  13
M  ISO  8  30  13  31  13  32  14  33  14  34  14  35  14  36  13  37  13
M  ISO  6  38  13  39  13  40  13  41  14  42  14  43  14
M  END
>  <minimizedAffinity>  (1) 
-4.37213326

>  <minimizedRMSD>  (1) 
1.14911938

$$$$
