
     RDKit          3D

 33 35  0  0  1  0  0  0  0  0999 V2000
   35.3580   29.9250   49.9920 C   0  0  2  0  0  0  0  0  0  0  0  0
   35.8910   31.2130   49.4320 C   0  0  0  0  0  0  0  0  0  0  0  0
   37.3780   31.2670   49.2990 C   0  0  1  0  0  0  0  0  0  0  0  0
   38.0870   30.9210   50.5740 C   0  0  0  0  0  0  0  0  0  0  0  0
   37.5210   29.7120   51.2640 C   0  0  0  0  0  0  0  0  0  0  0  0
   36.4280   29.0280   50.5020 C   0  0  0  0  0  0  0  0  0  0  0  0
   34.6160   29.1860   48.9260 C   0  0  0  0  0  0  0  0  0  0  0  0
   34.2170   29.9490   47.8120 C   0  0  0  0  0  0  0  0  0  0  0  0
   33.5060   29.2680   46.8110 C   0  0  0  0  0  0  0  0  0  0  0  0
   33.2440   27.9290   46.9620 N   0  0  0  0  0  0  0  0  0  0  0  0
   33.6510   27.2310   48.0600 C   0  0  0  0  0  0  0  0  0  0  0  0
   34.3300   27.8660   49.0250 N   0  0  0  0  0  0  0  0  0  0  0  0
   37.9090   30.6410   48.0620 C   0  0  0  0  0  0  0  0  0  0  0  0
   37.5300   31.3590   46.7500 C   0  0  0  0  0  0  0  0  0  0  0  0
   38.9390   31.2410   47.1850 C   0  0  0  0  0  0  0  0  0  0  0  0
   34.7036   30.1973   50.8332 H   0  0  0  0  0  0  0  0  0  0  0  0
   35.4520   31.3607   48.4343 H   0  0  0  0  0  0  0  0  0  0  0  0
   35.6139   32.0014   50.1473 H   0  0  0  0  0  0  0  0  0  0  0  0
   37.6312   32.3250   49.1359 H   0  0  0  0  0  0  0  0  0  0  0  0
   39.1448   30.7269   50.3429 H   0  0  0  0  0  0  0  0  0  0  0  0
   37.9596   31.7735   51.2574 H   0  0  0  0  0  0  0  0  0  0  0  0
   38.3364   28.9905   51.4208 H   0  0  0  0  0  0  0  0  0  0  0  0
   37.0775   30.0640   52.2071 H   0  0  0  0  0  0  0  0  0  0  0  0
   35.9622   28.2857   51.1668 H   0  0  0  0  0  0  0  0  0  0  0  0
   36.9042   28.5843   49.6152 H   0  0  0  0  0  0  0  0  0  0  0  0
   34.4498   31.0210   47.7303 H   0  0  0  0  0  0  0  0  0  0  0  0
   33.1619   29.8028   45.9135 H   0  0  0  0  0  0  0  0  0  0  0  0
   33.4245   26.1586   48.1527 H   0  0  0  0  0  0  0  0  0  0  0  0
   37.8378   29.6482   48.5304 H   0  0  0  0  0  0  0  0  0  0  0  0
   37.0211   32.3338   46.7791 H   0  0  0  0  0  0  0  0  0  0  0  0
   36.9619   31.0956   45.8456 H   0  0  0  0  0  0  0  0  0  0  0  0
   39.6251   30.5859   46.6281 H   0  0  0  0  0  0  0  0  0  0  0  0
   39.7479   31.9682   47.3490 H   0  0  0  0  0  0  0  0  0  0  0  0
  1  6  1  0
  2  1  1  0
  3  2  1  0
  3  4  1  0
  4  5  1  0
  6  5  1  0
  7 12  1  0
  7  1  1  0
  8  7  2  0
  9 10  2  0
  9  8  1  0
 10 11  1  0
 11 12  2  0
 13  3  1  0
 14 15  1  0
 14 13  1  0
 15 13  1  0
  1 16  1  1
  2 17  1  0
  2 18  1  0
  3 19  1  6
  4 20  1  0
  4 21  1  0
  5 22  1  0
  5 23  1  0
  6 24  1  0
  6 25  1  0
  8 26  1  0
  9 27  1  0
 11 28  1  0
 13 29  1  0
 14 30  1  0
 14 31  1  0
 15 32  1  0
 15 33  1  0
M  ISO  8  16  13  17  13  18  13  19  13  20  13  21  13  22  13  23  13
M  ISO  8  24  13  25  13  26  14  27  14  28  14  29  13  30  13  31  13
M  ISO  2  32  13  33  13
M  END
>  <minimizedAffinity>  (1) 
-5.46993685

>  <minimizedRMSD>  (1) 
1.0815469

$$$$
