
     RDKit          3D

 39 42  0  0  1  0  0  0  0  0999 V2000
   35.1460   29.9720   46.6240 C   0  0  0  0  0  0  0  0  0  0  0  0
   36.4300   30.5850   46.6890 C   0  0  0  0  0  0  0  0  0  0  0  0
   37.1310   30.7120   45.4800 C   0  0  0  0  0  0  0  0  0  0  0  0
   36.5580   30.2540   44.3360 N   0  0  0  0  0  0  0  0  0  0  0  0
   35.3410   29.6810   44.3220 C   0  0  0  0  0  0  0  0  0  0  0  0
   34.6430   29.5430   45.4620 N   0  0  0  0  0  0  0  0  0  0  0  0
   36.8540   30.9950   47.9770 N   0  0  0  0  0  0  0  0  0  0  0  0
   37.3370   32.2210   48.6230 C   0  0  0  0  0  0  0  0  0  0  0  0
   38.5870   31.7290   49.3360 C   0  0  0  0  0  0  0  0  0  0  0  0
   38.2560   30.3010   49.7380 C   0  0  0  0  0  0  0  0  0  0  0  0
   36.8900   30.0760   49.1010 C   0  0  1  0  0  0  0  0  0  0  0  0
   35.8750   30.3540   50.1560 C   0  0  0  0  0  0  0  0  0  0  0  0
   35.1090   29.0930   50.5790 C   0  0  0  0  0  0  0  0  0  0  0  0
   34.4090   30.2270   49.9000 C   0  0  0  0  0  0  0  0  0  0  0  0
   38.4320   31.3130   45.4220 C   0  0  0  0  0  0  0  0  0  0  0  0
   38.5420   32.6170   45.0210 C   0  0  0  0  0  0  0  0  0  0  0  0
   39.7400   33.2920   44.9300 C   0  0  0  0  0  0  0  0  0  0  0  0
   40.8900   32.5660   45.2760 C   0  0  0  0  0  0  0  0  0  0  0  0
   40.8640   31.2380   45.6930 C   0  0  0  0  0  0  0  0  0  0  0  0
   39.5970   30.6430   45.7520 C   0  0  0  0  0  0  0  0  0  0  0  0
   34.5582   29.8495   47.5457 H   0  0  0  0  0  0  0  0  0  0  0  0
   34.9151   29.3237   43.3728 H   0  0  0  0  0  0  0  0  0  0  0  0
   37.5788   32.9958   47.8805 H   0  0  0  0  0  0  0  0  0  0  0  0
   36.6003   32.6909   49.2912 H   0  0  0  0  0  0  0  0  0  0  0  0
   39.4548   31.7519   48.6605 H   0  0  0  0  0  0  0  0  0  0  0  0
   38.8515   32.3569   50.1996 H   0  0  0  0  0  0  0  0  0  0  0  0
   38.9996   29.5952   49.3394 H   0  0  0  0  0  0  0  0  0  0  0  0
   38.2587   30.1445   50.8268 H   0  0  0  0  0  0  0  0  0  0  0  0
   36.6898   29.0596   48.7310 H   0  0  0  0  0  0  0  0  0  0  0  0
   36.4681   31.1650   50.6039 H   0  0  0  0  0  0  0  0  0  0  0  0
   35.2695   28.1441   50.0462 H   0  0  0  0  0  0  0  0  0  0  0  0
   34.9720   28.5379   51.5187 H   0  0  0  0  0  0  0  0  0  0  0  0
   33.7008   30.8485   50.4676 H   0  0  0  0  0  0  0  0  0  0  0  0
   33.7765   30.3119   49.0040 H   0  0  0  0  0  0  0  0  0  0  0  0
   37.6212   33.1573   44.7561 H   0  0  0  0  0  0  0  0  0  0  0  0
   39.7919   34.3414   44.6043 H   0  0  0  0  0  0  0  0  0  0  0  0
   41.8641   33.0733   45.2144 H   0  0  0  0  0  0  0  0  0  0  0  0
   41.7802   30.6906   45.9593 H   0  0  0  0  0  0  0  0  0  0  0  0
   39.5249   29.5942   46.0758 H   0  0  0  0  0  0  0  0  0  0  0  0
  1  2  2  0
  2  7  1  0
  3  2  1  0
  4  3  2  0
  5  4  1  0
  5  6  2  0
  6  1  1  0
  7  8  1  0
  7 11  1  0
  8  9  1  0
  9 10  1  0
 11 10  1  0
 11 12  1  0
 12 13  1  0
 14 12  1  0
 14 13  1  0
 15  3  1  0
 15 20  1  0
 16 15  2  0
 17 16  1  0
 17 18  2  0
 18 19  1  0
 19 20  2  0
  1 21  1  0
  5 22  1  0
  8 23  1  0
  8 24  1  0
  9 25  1  0
  9 26  1  0
 10 27  1  0
 10 28  1  0
 11 29  1  6
 12 30  1  0
 13 31  1  0
 13 32  1  0
 14 33  1  0
 14 34  1  0
 16 35  1  0
 17 36  1  0
 18 37  1  0
 19 38  1  0
 20 39  1  0
M  ISO  8  21  14  22  14  23  13  24  13  25  13  26  13  27  13  28  13
M  ISO  8  29  13  30  13  31  13  32  13  33  13  34  13  35  14  36  14
M  ISO  3  37  14  38  14  39  14
M  END
>  <minimizedAffinity>  (1) 
-6.00002241

>  <minimizedRMSD>  (1) 
1.16531909

$$$$
