
     RDKit          3D

 33 35  0  0  1  0  0  0  0  0999 V2000
   37.8830   30.4760   47.4520 C   0  0  1  0  0  0  0  0  0  0  0  0
   37.1510   31.0290   46.2970 C   0  0  0  0  0  0  0  0  0  0  0  0
   38.0160   30.9270   45.0760 C   0  0  0  0  0  0  0  0  0  0  0  0
   39.4410   31.1990   45.3890 C   0  0  0  0  0  0  0  0  0  0  0  0
   39.7100   31.9680   46.6240 C   0  0  0  0  0  0  0  0  0  0  0  0
   38.9210   31.5470   47.8400 C   0  0  1  0  0  0  0  0  0  0  0  0
   36.9650   29.4260   50.9090 C   0  0  0  0  0  0  0  0  0  0  0  0
   37.7530   29.6940   49.7540 C   0  0  0  0  0  0  0  0  0  0  0  0
   37.0850   30.2050   48.6460 C   0  0  0  0  0  0  0  0  0  0  0  0
   35.7260   30.4250   48.7140 N   0  0  0  0  0  0  0  0  0  0  0  0
   35.0170   30.1600   49.8220 C   0  0  0  0  0  0  0  0  0  0  0  0
   35.6340   29.6590   50.9250 N   0  0  0  0  0  0  0  0  0  0  0  0
   38.2960   32.7390   48.5020 C   0  0  0  0  0  0  0  0  0  0  0  0
   39.1050   33.9740   48.6350 C   0  0  0  0  0  0  0  0  0  0  0  0
   38.7450   33.1620   49.8580 C   0  0  0  0  0  0  0  0  0  0  0  0
   38.2887   29.5030   47.1377 H   0  0  0  0  0  0  0  0  0  0  0  0
   36.2236   30.4584   46.1406 H   0  0  0  0  0  0  0  0  0  0  0  0
   36.8990   32.0828   46.4868 H   0  0  0  0  0  0  0  0  0  0  0  0
   37.6688   31.6580   44.3310 H   0  0  0  0  0  0  0  0  0  0  0  0
   37.9401   29.9011   44.6865 H   0  0  0  0  0  0  0  0  0  0  0  0
   39.9541   30.2303   45.4800 H   0  0  0  0  0  0  0  0  0  0  0  0
   39.8042   31.8326   44.5664 H   0  0  0  0  0  0  0  0  0  0  0  0
   40.7790   31.8636   46.8615 H   0  0  0  0  0  0  0  0  0  0  0  0
   39.4009   33.0014   46.4080 H   0  0  0  0  0  0  0  0  0  0  0  0
   39.6001   31.0938   48.5772 H   0  0  0  0  0  0  0  0  0  0  0  0
   37.4506   29.0201   51.8087 H   0  0  0  0  0  0  0  0  0  0  0  0
   38.8367   29.5062   49.7385 H   0  0  0  0  0  0  0  0  0  0  0  0
   33.9334   30.3487   49.8379 H   0  0  0  0  0  0  0  0  0  0  0  0
   37.3162   32.4891   48.0689 H   0  0  0  0  0  0  0  0  0  0  0  0
   40.1436   33.9939   48.2731 H   0  0  0  0  0  0  0  0  0  0  0  0
   38.9806   35.0241   48.3319 H   0  0  0  0  0  0  0  0  0  0  0  0
   38.0165   33.5512   50.5845 H   0  0  0  0  0  0  0  0  0  0  0  0
   39.3070   32.6917   50.6783 H   0  0  0  0  0  0  0  0  0  0  0  0
  1  6  1  0
  1  9  1  0
  2  1  1  0
  3  4  1  0
  3  2  1  0
  4  5  1  0
  5  6  1  0
  6 13  1  0
  7 12  2  0
  8  7  1  0
  9 10  1  0
  9  8  2  0
 10 11  2  0
 11 12  1  0
 13 14  1  0
 13 15  1  0
 14 15  1  0
  1 16  1  6
  2 17  1  0
  2 18  1  0
  3 19  1  0
  3 20  1  0
  4 21  1  0
  4 22  1  0
  5 23  1  0
  5 24  1  0
  6 25  1  1
  7 26  1  0
  8 27  1  0
 11 28  1  0
 13 29  1  0
 14 30  1  0
 14 31  1  0
 15 32  1  0
 15 33  1  0
M  ISO  8  16  13  17  13  18  13  19  13  20  13  21  13  22  13  23  13
M  ISO  8  24  13  25  13  26  14  27  14  28  14  29  13  30  13  31  13
M  ISO  2  32  13  33  13
M  END
>  <minimizedAffinity>  (1) 
-5.17680359

>  <minimizedRMSD>  (1) 
1.34430599

$$$$
