
     RDKit          3D

 27 29  0  0  0  0  0  0  0  0999 V2000
   38.0770   33.3280   49.5970 Cl  0  0  0  0  0  0  0  0  0  0  0  0
   38.5000   32.4820   48.1380 C   0  0  0  0  0  0  0  0  0  0  0  0
   38.0570   31.1830   47.9180 C   0  0  0  0  0  0  0  0  0  0  0  0
   38.4290   30.5780   46.7480 C   0  0  0  0  0  0  0  0  0  0  0  0
   39.2080   31.1950   45.8050 C   0  0  0  0  0  0  0  0  0  0  0  0
   39.6360   32.4940   46.0550 C   0  0  0  0  0  0  0  0  0  0  0  0
   40.6280   33.2700   44.8430 Cl  0  0  0  0  0  0  0  0  0  0  0  0
   39.2890   33.1490   47.2170 C   0  0  0  0  0  0  0  0  0  0  0  0
   36.9980   29.3710   51.0700 C   0  0  0  0  0  0  0  0  0  0  0  0
   37.7880   29.9530   50.0700 C   0  0  0  0  0  0  0  0  0  0  0  0
   37.2300   30.5780   48.9580 C   0  0  0  0  0  0  0  0  0  0  0  0
   35.8690   30.5890   48.9020 N   0  0  0  0  0  0  0  0  0  0  0  0
   35.1270   30.0250   49.8730 C   0  0  0  0  0  0  0  0  0  0  0  0
   35.6690   29.4290   50.9340 N   0  0  0  0  0  0  0  0  0  0  0  0
   39.6050   30.5250   44.5390 C   0  0  0  0  0  0  0  0  0  0  0  0
   38.7680   30.5780   43.3300 C   0  0  0  0  0  0  0  0  0  0  0  0
   38.8730   29.2880   44.1120 C   0  0  0  0  0  0  0  0  0  0  0  0
   38.0871   29.5502   46.5563 H   0  0  0  0  0  0  0  0  0  0  0  0
   39.6309   34.1770   47.4078 H   0  0  0  0  0  0  0  0  0  0  0  0
   37.4573   28.8809   51.9411 H   0  0  0  0  0  0  0  0  0  0  0  0
   38.8831   29.9150   50.1664 H   0  0  0  0  0  0  0  0  0  0  0  0
   34.0308   30.0574   49.7872 H   0  0  0  0  0  0  0  0  0  0  0  0
   40.6527   30.7926   44.7405 H   0  0  0  0  0  0  0  0  0  0  0  0
   39.2389   30.6594   42.3392 H   0  0  0  0  0  0  0  0  0  0  0  0
   37.9372   31.2130   42.9887 H   0  0  0  0  0  0  0  0  0  0  0  0
   38.0153   28.9224   44.6956 H   0  0  0  0  0  0  0  0  0  0  0  0
   39.1517   28.2491   43.8818 H   0  0  0  0  0  0  0  0  0  0  0  0
  2  1  1  0
  3  2  2  0
  3 11  1  0
  4  3  1  0
  5  6  1  0
  5  4  2  0
  6  8  2  0
  7  6  1  0
  8  2  1  0
 10  9  2  0
 11 10  1  0
 12 11  2  0
 12 13  1  0
 13 14  2  0
 14  9  1  0
 15  5  1  0
 16 17  1  0
 16 15  1  0
 17 15  1  0
  4 18  1  0
  8 19  1  0
  9 20  1  0
 10 21  1  0
 13 22  1  0
 15 23  1  0
 16 24  1  0
 16 25  1  0
 17 26  1  0
 17 27  1  0
M  ISO  8  18  14  19  14  20  14  21  14  22  14  23  13  24  13  25  13
M  ISO  2  26  13  27  13
M  END
>  <minimizedAffinity>  (1) 
-5.87464762

>  <minimizedRMSD>  (1) 
0.507466018

$$$$
