
     RDKit          3D

 27 29  0  0  0  0  0  0  0  0999 V2000
   38.2500   30.4780   46.9040 Cl  0  0  0  0  0  0  0  0  0  0  0  0
   38.7040   31.9410   47.7650 C   0  0  0  0  0  0  0  0  0  0  0  0
   38.2220   32.1370   49.0320 C   0  0  0  0  0  0  0  0  0  0  0  0
   38.6210   33.3120   49.6530 C   0  0  0  0  0  0  0  0  0  0  0  0
   39.4610   34.2100   48.9940 C   0  0  0  0  0  0  0  0  0  0  0  0
   39.9170   33.9670   47.7240 C   0  0  0  0  0  0  0  0  0  0  0  0
   39.5260   32.8040   47.1020 C   0  0  0  0  0  0  0  0  0  0  0  0
   37.8140   30.4650   50.8380 C   0  0  0  0  0  0  0  0  0  0  0  0
   37.3390   31.1970   49.7310 C   0  0  0  0  0  0  0  0  0  0  0  0
   36.0260   31.0080   49.3200 C   0  0  0  0  0  0  0  0  0  0  0  0
   35.2600   30.1230   50.0110 N   0  0  0  0  0  0  0  0  0  0  0  0
   35.7220   29.4310   51.0640 C   0  0  0  0  0  0  0  0  0  0  0  0
   37.0010   29.6030   51.4760 N   0  0  0  0  0  0  0  0  0  0  0  0
   40.0110   32.5220   45.7200 C   0  0  0  0  0  0  0  0  0  0  0  0
   40.1900   33.8070   44.8910 C   0  0  0  0  0  0  0  0  0  0  0  0
   39.1400   32.8100   44.5550 C   0  0  0  0  0  0  0  0  0  0  0  0
   38.2726   33.5369   50.6718 H   0  0  0  0  0  0  0  0  0  0  0  0
   39.7648   35.1352   49.5056 H   0  0  0  0  0  0  0  0  0  0  0  0
   40.5786   34.6837   47.2155 H   0  0  0  0  0  0  0  0  0  0  0  0
   38.8506   30.5985   51.1809 H   0  0  0  0  0  0  0  0  0  0  0  0
   35.6176   31.5588   48.4598 H   0  0  0  0  0  0  0  0  0  0  0  0
   35.0633   28.7254   51.5916 H   0  0  0  0  0  0  0  0  0  0  0  0
   40.5917   31.6339   46.0099 H   0  0  0  0  0  0  0  0  0  0  0  0
   39.9114   34.7829   45.3152 H   0  0  0  0  0  0  0  0  0  0  0  0
   41.0213   34.2846   44.3517 H   0  0  0  0  0  0  0  0  0  0  0  0
   38.0813   33.0607   44.7173 H   0  0  0  0  0  0  0  0  0  0  0  0
   38.8790   32.2551   43.6418 H   0  0  0  0  0  0  0  0  0  0  0  0
  1  2  1  0
  2  3  2  0
  3  4  1  0
  3  9  1  0
  5  4  2  0
  6  5  1  0
  7  6  2  0
  7  2  1  0
  8 13  2  0
  9  8  1  0
 10  9  2  0
 10 11  1  0
 11 12  2  0
 12 13  1  0
 14  7  1  0
 15 14  1  0
 16 15  1  0
 16 14  1  0
  4 17  1  0
  5 18  1  0
  6 19  1  0
  8 20  1  0
 10 21  1  0
 12 22  1  0
 14 23  1  0
 15 24  1  0
 15 25  1  0
 16 26  1  0
 16 27  1  0
M  ISO  8  17  14  18  14  19  14  20  14  21  14  22  14  23  13  24  13
M  ISO  3  25  13  26  13  27  13
M  END
>  <minimizedAffinity>  (1) 
-6.1594553

>  <minimizedRMSD>  (1) 
0.194134116

$$$$
