
     RDKit          3D

 27 29  0  0  0  0  0  0  0  0999 V2000
   37.0200   29.7920   49.1280 C   0  0  0  0  0  0  0  0  0  0  0  0
   37.4650   30.2470   50.3590 C   0  0  0  0  0  0  0  0  0  0  0  0
   38.3120   31.3610   50.3010 C   0  0  0  0  0  0  0  0  0  0  0  0
   38.6420   31.9150   49.1070 N   0  0  0  0  0  0  0  0  0  0  0  0
   38.1740   31.4210   47.9590 C   0  0  0  0  0  0  0  0  0  0  0  0
   37.3430   30.3380   47.9230 N   0  0  0  0  0  0  0  0  0  0  0  0
   38.5180   32.0040   46.6650 C   0  0  0  0  0  0  0  0  0  0  0  0
   39.7050   32.6480   46.4530 C   0  0  0  0  0  0  0  0  0  0  0  0
   40.1210   33.2280   45.2770 C   0  0  0  0  0  0  0  0  0  0  0  0
   39.2460   33.1370   44.2390 N   0  0  0  0  0  0  0  0  0  0  0  0
   38.0600   32.5070   44.4100 C   0  0  0  0  0  0  0  0  0  0  0  0
   37.6910   31.9490   45.5900 N   0  0  0  0  0  0  0  0  0  0  0  0
   37.1650   32.4550   43.2240 C   0  0  0  0  0  0  0  0  0  0  0  0
   37.6740   32.5910   41.8610 C   0  0  0  0  0  0  0  0  0  0  0  0
   37.4020   31.2150   42.3820 C   0  0  0  0  0  0  0  0  0  0  0  0
   37.0650   29.6010   51.5440 N   0  0  0  0  0  0  0  0  0  0  0  0
   36.3513   28.9186   49.1239 H   0  0  0  0  0  0  0  0  0  0  0  0
   38.7130   31.7903   51.2310 H   0  0  0  0  0  0  0  0  0  0  0  0
   40.3957   32.7084   47.3070 H   0  0  0  0  0  0  0  0  0  0  0  0
   41.0946   33.7310   45.1823 H   0  0  0  0  0  0  0  0  0  0  0  0
   36.3397   32.9690   43.7385 H   0  0  0  0  0  0  0  0  0  0  0  0
   38.7118   32.9164   41.6966 H   0  0  0  0  0  0  0  0  0  0  0  0
   37.3496   33.1535   40.9731 H   0  0  0  0  0  0  0  0  0  0  0  0
   36.5510   30.6337   41.9975 H   0  0  0  0  0  0  0  0  0  0  0  0
   37.9781   30.2844   42.4920 H   0  0  0  0  0  0  0  0  0  0  0  0
   37.3994   29.9442   52.4558 H   0  0  0  0  0  0  0  0  0  0  0  0
   36.4380   28.7851   51.4993 H   0  0  0  0  0  0  0  0  0  0  0  0
  1  2  2  0
  2 16  1  0
  3  2  1  0
  4  3  2  0
  5  4  1  0
  6  5  2  0
  6  1  1  0
  7  5  1  0
  8  7  2  0
  9  8  1  0
 10 11  1  0
 10  9  2  0
 11 12  2  0
 12  7  1  0
 13 11  1  0
 14 15  1  0
 14 13  1  0
 15 13  1  0
  1 17  1  0
  3 18  1  0
  8 19  1  0
  9 20  1  0
 13 21  1  0
 14 22  1  0
 14 23  1  0
 15 24  1  0
 15 25  1  0
 16 26  1  0
 16 27  1  0
M  ISO  8  17  14  18  14  19  14  20  14  21  13  22  13  23  13  24  13
M  ISO  1  25  13
M  END
>  <minimizedAffinity>  (1) 
-4.93965054

>  <minimizedRMSD>  (1) 
1.56175256

$$$$
