
     RDKit          3D

 27 29  0  0  0  0  0  0  0  0999 V2000
   38.5370   31.9930   48.3170 F   0  0  0  0  0  0  0  0  0  0  0  0
   37.9210   31.5890   47.1550 C   0  0  0  0  0  0  0  0  0  0  0  0
   36.8270   30.7470   47.1590 C   0  0  0  0  0  0  0  0  0  0  0  0
   36.2420   30.3680   45.9590 C   0  0  0  0  0  0  0  0  0  0  0  0
   36.7490   30.8320   44.7490 C   0  0  0  0  0  0  0  0  0  0  0  0
   37.8460   31.6720   44.8010 C   0  0  0  0  0  0  0  0  0  0  0  0
   38.4490   32.0680   45.9580 C   0  0  0  0  0  0  0  0  0  0  0  0
   37.3300   29.6730   49.2330 C   0  0  0  0  0  0  0  0  0  0  0  0
   36.3630   30.3110   48.4450 C   0  0  0  0  0  0  0  0  0  0  0  0
   35.0800   30.4510   48.9820 C   0  0  0  0  0  0  0  0  0  0  0  0
   34.8430   29.9600   50.2420 N   0  0  0  0  0  0  0  0  0  0  0  0
   35.8060   29.3560   50.9590 C   0  0  0  0  0  0  0  0  0  0  0  0
   37.0380   29.2120   50.4640 N   0  0  0  0  0  0  0  0  0  0  0  0
   39.6230   32.9700   45.9980 C   0  0  0  0  0  0  0  0  0  0  0  0
   40.1690   33.6530   44.8230 C   0  0  0  0  0  0  0  0  0  0  0  0
   40.8500   32.4280   45.2980 C   0  0  0  0  0  0  0  0  0  0  0  0
   35.3712   29.6959   45.9643 H   0  0  0  0  0  0  0  0  0  0  0  0
   36.2953   30.5422   43.7898 H   0  0  0  0  0  0  0  0  0  0  0  0
   38.2574   32.0435   43.8509 H   0  0  0  0  0  0  0  0  0  0  0  0
   38.3487   29.5461   48.8379 H   0  0  0  0  0  0  0  0  0  0  0  0
   34.2799   30.9425   48.4091 H   0  0  0  0  0  0  0  0  0  0  0  0
   35.5767   28.9758   51.9654 H   0  0  0  0  0  0  0  0  0  0  0  0
   39.3242   33.3527   46.9850 H   0  0  0  0  0  0  0  0  0  0  0  0
   40.6607   34.6300   44.9402 H   0  0  0  0  0  0  0  0  0  0  0  0
   39.7494   33.9717   43.8574 H   0  0  0  0  0  0  0  0  0  0  0  0
   40.7888   31.4982   44.7134 H   0  0  0  0  0  0  0  0  0  0  0  0
   41.8748   32.1648   45.5990 H   0  0  0  0  0  0  0  0  0  0  0  0
  2  3  2  0
  2  1  1  0
  3  9  1  0
  4  3  1  0
  5  6  1  0
  5  4  2  0
  6  7  2  0
  7 14  1  0
  7  2  1  0
  8 13  2  0
  9 10  2  0
  9  8  1  0
 10 11  1  0
 11 12  2  0
 13 12  1  0
 15 16  1  0
 15 14  1  0
 16 14  1  0
  4 17  1  0
  5 18  1  0
  6 19  1  0
  8 20  1  0
 10 21  1  0
 12 22  1  0
 14 23  1  0
 15 24  1  0
 15 25  1  0
 16 26  1  0
 16 27  1  0
M  ISO  8  17  14  18  14  19  14  20  14  21  14  22  14  23  13  24  13
M  ISO  3  25  13  26  13  27  13
M  END
>  <minimizedAffinity>  (1) 
-5.35524797

>  <minimizedRMSD>  (1) 
3.51711249

$$$$
