
     RDKit          3D

 24 26  0  0  0  0  0  0  0  0999 V2000
   36.3860   30.3260   48.8720 C   0  0  0  0  0  0  0  0  0  0  0  0
   37.2820   31.0020   48.0090 C   0  0  0  0  0  0  0  0  0  0  0  0
   36.9510   30.9540   46.6690 C   0  0  0  0  0  0  0  0  0  0  0  0
   35.8410   30.2990   46.2630 N   0  0  0  0  0  0  0  0  0  0  0  0
   35.0030   29.6630   47.1090 C   0  0  0  0  0  0  0  0  0  0  0  0
   35.2810   29.6790   48.4240 N   0  0  0  0  0  0  0  0  0  0  0  0
   36.7100   30.4350   50.3500 C   0  0  0  0  0  0  0  0  0  0  0  0
   36.0770   29.5560   51.3050 C   0  0  0  0  0  0  0  0  0  0  0  0
   37.4640   29.1870   50.8340 C   0  0  0  0  0  0  0  0  0  0  0  0
   38.4760   31.6940   48.5600 C   0  0  0  0  0  0  0  0  0  0  0  0
   38.3880   33.1120   48.9840 C   0  0  0  0  0  0  0  0  0  0  0  0
   39.1360   32.7570   47.7410 C   0  0  0  0  0  0  0  0  0  0  0  0
   37.5943   31.4516   45.9284 H   0  0  0  0  0  0  0  0  0  0  0  0
   34.1111   29.1425   46.7300 H   0  0  0  0  0  0  0  0  0  0  0  0
   36.8280   31.5286   50.3485 H   0  0  0  0  0  0  0  0  0  0  0  0
   35.9282   29.8965   52.3403 H   0  0  0  0  0  0  0  0  0  0  0  0
   35.1142   29.0246   51.3302 H   0  0  0  0  0  0  0  0  0  0  0  0
   37.6167   28.3300   50.1615 H   0  0  0  0  0  0  0  0  0  0  0  0
   38.4356   28.9747   51.3041 H   0  0  0  0  0  0  0  0  0  0  0  0
   38.8021   30.7644   49.0494 H   0  0  0  0  0  0  0  0  0  0  0  0
   37.4297   33.6475   48.9141 H   0  0  0  0  0  0  0  0  0  0  0  0
   38.6303   33.6630   49.9047 H   0  0  0  0  0  0  0  0  0  0  0  0
   40.2331   32.8330   47.7169 H   0  0  0  0  0  0  0  0  0  0  0  0
   39.0932   33.0704   46.6875 H   0  0  0  0  0  0  0  0  0  0  0  0
  1  7  1  0
  2 10  1  0
  2  1  1  0
  3  2  2  0
  4  3  1  0
  4  5  2  0
  5  6  1  0
  6  1  2  0
  7  9  1  0
  7  8  1  0
  9  8  1  0
 10 11  1  0
 12 10  1  0
 12 11  1  0
  3 13  1  0
  5 14  1  0
  7 15  1  0
  8 16  1  0
  8 17  1  0
  9 18  1  0
  9 19  1  0
 10 20  1  0
 11 21  1  0
 11 22  1  0
 12 23  1  0
 12 24  1  0
M  ISO  8  13  14  14  14  15  13  16  13  17  13  18  13  19  13  20  13
M  ISO  4  21  13  22  13  23  13  24  13
M  END
>  <minimizedAffinity>  (1) 
-4.57796097

>  <minimizedRMSD>  (1) 
2.96060133

$$$$
