
     RDKit          3D

 21 22  0  0  0  0  0  0  0  0999 V2000
   37.5520   31.4610   49.3340 C   0  0  0  0  0  0  0  0  0  0  0  0
   38.0360   32.7230   49.6850 C   0  0  0  0  0  0  0  0  0  0  0  0
   38.8540   33.3340   48.7650 C   0  0  0  0  0  0  0  0  0  0  0  0
   39.1500   32.6990   47.5810 N   0  0  0  0  0  0  0  0  0  0  0  0
   38.6480   31.4590   47.2820 C   0  0  0  0  0  0  0  0  0  0  0  0
   37.8300   30.8300   48.1880 N   0  0  0  0  0  0  0  0  0  0  0  0
   36.6260   30.7720   50.3010 C   0  0  0  0  0  0  0  0  0  0  0  0
   36.5070   29.3400   50.3870 C   0  0  0  0  0  0  0  0  0  0  0  0
   37.3690   30.0330   51.4210 C   0  0  0  0  0  0  0  0  0  0  0  0
   38.9330   30.7740   46.0280 C   0  0  0  0  0  0  0  0  0  0  0  0
   38.4100   31.8380   44.6400 S   0  0  0  0  0  0  0  0  0  0  0  0
   37.7777   33.2001   50.6419 H   0  0  0  0  0  0  0  0  0  0  0  0
   39.2716   34.3297   48.9751 H   0  0  0  0  0  0  0  0  0  0  0  0
   35.8531   31.5466   50.1887 H   0  0  0  0  0  0  0  0  0  0  0  0
   35.5493   28.8921   50.6906 H   0  0  0  0  0  0  0  0  0  0  0  0
   36.6793   28.5164   49.6785 H   0  0  0  0  0  0  0  0  0  0  0  0
   38.4641   29.9327   51.3950 H   0  0  0  0  0  0  0  0  0  0  0  0
   37.4135   30.0842   52.5189 H   0  0  0  0  0  0  0  0  0  0  0  0
   40.0121   30.5740   45.9536 H   0  0  0  0  0  0  0  0  0  0  0  0
   38.3867   29.8199   45.9923 H   0  0  0  0  0  0  0  0  0  0  0  0
   37.8459   32.9856   45.1317 H   0  0  0  0  0  0  0  0  0  0  0  0
  1  2  2  0
  1  7  1  0
  3  2  1  0
  4  3  2  0
  5  4  1  0
  5  6  2  0
  6  1  1  0
  7  8  1  0
  7  9  1  0
  8  9  1  0
 10  5  1  0
 11 10  1  0
  2 12  1  0
  3 13  1  0
  7 14  1  0
  8 15  1  0
  8 16  1  0
  9 17  1  0
  9 18  1  0
 10 19  1  0
 10 20  1  0
 11 21  1  0
M  ISO  8  12  14  13  14  14  13  15  13  16  13  17  13  18  13  19   8
M  ISO  2  20   8  21  11
M  END
>  <minimizedAffinity>  (1) 
-4.38897181

>  <minimizedRMSD>  (1) 
0.372814596

$$$$
