
     RDKit          3D

 39 41  0  0  0  0  0  0  0  0999 V2000
   35.0020   28.3540   49.4530 O   0  0  0  0  0  0  0  0  0  0  0  0
   37.3460   30.1870   51.5110 C   0  0  0  0  0  0  0  0  0  0  0  0
   38.0710   30.8680   50.5170 C   0  0  0  0  0  0  0  0  0  0  0  0
   37.7120   30.6560   49.1930 C   0  0  0  0  0  0  0  0  0  0  0  0
   36.6680   29.7900   48.9830 N   0  0  0  0  0  0  0  0  0  0  0  0
   35.9920   29.1560   49.9300 C   0  0  0  0  0  0  0  0  0  0  0  0
   36.3430   29.3620   51.2280 N   0  0  0  0  0  0  0  0  0  0  0  0
   38.9420   33.2700   49.0040 F   0  0  0  0  0  0  0  0  0  0  0  0
   38.9170   32.4770   47.9390 C   0  0  0  0  0  0  0  0  0  0  0  0
   38.3400   31.2640   48.0490 C   0  0  0  0  0  0  0  0  0  0  0  0
   38.3740   30.5230   46.8700 C   0  0  0  0  0  0  0  0  0  0  0  0
   38.9370   30.9800   45.7150 C   0  0  0  0  0  0  0  0  0  0  0  0
   39.5150   32.2260   45.6540 C   0  0  0  0  0  0  0  0  0  0  0  0
   39.4980   32.9720   46.7850 C   0  0  0  0  0  0  0  0  0  0  0  0
   34.4560   28.6400   48.1770 C   0  0  0  0  0  0  0  0  0  0  0  0
   33.5790   27.5230   47.7070 C   0  0  0  0  0  0  0  0  0  0  0  0
   32.1360   27.8730   47.7370 C   0  0  0  0  0  0  0  0  0  0  0  0
   31.3770   27.4210   48.8060 C   0  0  0  0  0  0  0  0  0  0  0  0
   30.0430   27.6980   48.9090 C   0  0  0  0  0  0  0  0  0  0  0  0
   29.4490   28.4240   47.9600 N   0  0  0  0  0  0  0  0  0  0  0  0
   30.2000   28.8680   46.9100 C   0  0  0  0  0  0  0  0  0  0  0  0
   31.5110   28.6070   46.7880 N   0  0  0  0  0  0  0  0  0  0  0  0
   29.5040   29.6780   45.8660 C   0  0  0  0  0  0  0  0  0  0  0  0
   28.7320   28.5270   44.6660 S   0  0  0  0  0  0  0  0  0  0  0  0
   37.6199   30.3433   52.5648 H   0  0  0  0  0  0  0  0  0  0  0  0
   38.8958   31.5466   50.7801 H   0  0  0  0  0  0  0  0  0  0  0  0
   37.9243   29.5191   46.8706 H   0  0  0  0  0  0  0  0  0  0  0  0
   38.9285   30.3422   44.8188 H   0  0  0  0  0  0  0  0  0  0  0  0
   39.9718   32.6013   44.7264 H   0  0  0  0  0  0  0  0  0  0  0  0
   39.9481   33.9757   46.7857 H   0  0  0  0  0  0  0  0  0  0  0  0
   33.8609   29.5630   48.2390 H   0  0  0  0  0  0  0  0  0  0  0  0
   35.2824   28.7619   47.4613 H   0  0  0  0  0  0  0  0  0  0  0  0
   33.7426   26.6505   48.3565 H   0  0  0  0  0  0  0  0  0  0  0  0
   33.8464   27.3092   46.6616 H   0  0  0  0  0  0  0  0  0  0  0  0
   31.8619   26.8235   49.5920 H   0  0  0  0  0  0  0  0  0  0  0  0
   29.4637   27.3257   49.7668 H   0  0  0  0  0  0  0  0  0  0  0  0
   28.7288   30.3021   46.3346 H   0  0  0  0  0  0  0  0  0  0  0  0
   30.2226   30.3346   45.3536 H   0  0  0  0  0  0  0  0  0  0  0  0
   28.0687   27.5381   45.3436 H   0  0  0  0  0  0  0  0  0  0  0  0
  1  6  1  0
  3  2  2  0
  4  3  1  0
  5  4  2  0
  5  6  1  0
  6  7  2  0
  7  2  1  0
  9 10  2  0
  9  8  1  0
 10  4  1  0
 11 10  1  0
 12 11  2  0
 13 12  1  0
 13 14  2  0
 14  9  1  0
 15  1  1  0
 16 17  1  0
 16 15  1  0
 17 18  2  0
 18 19  1  0
 20 19  2  0
 21 20  1  0
 22 21  2  0
 22 17  1  0
 23 21  1  0
 24 23  1  0
  2 25  1  0
  3 26  1  0
 11 27  1  0
 12 28  1  0
 13 29  1  0
 14 30  1  0
 15 31  1  0
 15 32  1  0
 16 33  1  0
 16 34  1  0
 18 35  1  0
 19 36  1  0
 23 37  1  0
 23 38  1  0
 24 39  1  0
M  ISO  8  25  14  26  14  27  14  28  14  29  14  30  14  31   8  32   8
M  ISO  7  33   8  34   8  35  14  36  14  37   8  38   8  39  11
M  END
>  <minimizedAffinity>  (1) 
-6.17440939

>  <minimizedRMSD>  (1) 
0.0410026684

$$$$
