
     RDKit          3D

 29 30  0  0  0  0  0  0  0  0999 V2000
   37.3640   29.8890   51.2770 C   0  0  0  0  0  0  0  0  0  0  0  0
   38.0190   30.8870   50.5150 C   0  0  0  0  0  0  0  0  0  0  0  0
   37.2950   31.4460   49.4480 C   0  0  0  0  0  0  0  0  0  0  0  0
   36.0350   31.0190   49.1980 N   0  0  0  0  0  0  0  0  0  0  0  0
   35.4540   30.0620   49.9550 C   0  0  0  0  0  0  0  0  0  0  0  0
   36.1250   29.5060   50.9880 N   0  0  0  0  0  0  0  0  0  0  0  0
   37.9890   32.4900   48.6550 C   0  0  0  0  0  0  0  0  0  0  0  0
   39.0000   31.9600   47.6880 C   0  0  0  0  0  0  0  0  0  0  0  0
   39.7140   33.1760   47.1100 C   0  0  0  0  0  0  0  0  0  0  0  0
   40.2240   32.9010   45.7200 C   0  0  0  0  0  0  0  0  0  0  0  0
   39.0260   32.7750   44.8030 C   0  0  0  0  0  0  0  0  0  0  0  0
   37.9240   31.9560   45.4230 C   0  0  0  0  0  0  0  0  0  0  0  0
   38.4180   31.1200   46.5850 C   0  0  0  0  0  0  0  0  0  0  0  0
   37.8903   29.4227   52.1230 H   0  0  0  0  0  0  0  0  0  0  0  0
   39.0449   31.2091   50.7471 H   0  0  0  0  0  0  0  0  0  0  0  0
   34.4288   29.7336   49.7290 H   0  0  0  0  0  0  0  0  0  0  0  0
   37.2320   33.0518   48.0882 H   0  0  0  0  0  0  0  0  0  0  0  0
   38.5388   33.1165   49.3728 H   0  0  0  0  0  0  0  0  0  0  0  0
   39.6805   31.2805   48.2220 H   0  0  0  0  0  0  0  0  0  0  0  0
   39.0104   34.0207   47.0730 H   0  0  0  0  0  0  0  0  0  0  0  0
   40.5731   33.4133   47.7546 H   0  0  0  0  0  0  0  0  0  0  0  0
   40.8651   33.7301   45.3860 H   0  0  0  0  0  0  0  0  0  0  0  0
   40.8178   31.9752   45.7052 H   0  0  0  0  0  0  0  0  0  0  0  0
   39.3442   32.2918   43.8675 H   0  0  0  0  0  0  0  0  0  0  0  0
   38.6339   33.7855   44.6157 H   0  0  0  0  0  0  0  0  0  0  0  0
   37.1378   32.6354   45.7842 H   0  0  0  0  0  0  0  0  0  0  0  0
   37.5382   31.2709   44.6537 H   0  0  0  0  0  0  0  0  0  0  0  0
   37.5736   30.5422   46.9888 H   0  0  0  0  0  0  0  0  0  0  0  0
   39.2143   30.4605   46.2095 H   0  0  0  0  0  0  0  0  0  0  0  0
  2  1  2  0
  3  2  1  0
  4  3  2  0
  4  5  1  0
  5  6  2  0
  6  1  1  0
  7  3  1  0
  8  7  1  0
  9  8  1  0
 10  9  1  0
 11 12  1  0
 11 10  1  0
 12 13  1  0
 13  8  1  0
  1 14  1  0
  2 15  1  0
  5 16  1  0
  7 17  1  0
  7 18  1  0
  8 19  1  0
  9 20  1  0
  9 21  1  0
 10 22  1  0
 10 23  1  0
 11 24  1  0
 11 25  1  0
 12 26  1  0
 12 27  1  0
 13 28  1  0
 13 29  1  0
M  ISO  8  14  14  15  14  16  14  17   8  18   8  19  13  20  13  21  13
M  ISO  8  22  13  23  13  24  13  25  13  26  13  27  13  28  13  29  13
M  END
>  <minimizedAffinity>  (1) 
-4.96208096

>  <minimizedRMSD>  (1) 
1.91773689

$$$$
