
     RDKit          3D

 47 49  0  0  1  0  0  0  0  0999 V2000
   31.9870   26.6960   48.1840 C   0  0  1  0  0  0  0  0  0  0  0  0
   32.5860   28.0800   48.2980 C   0  0  2  0  0  0  0  0  0  0  0  0
   32.4500   28.7510   46.9710 C   0  0  0  0  0  0  0  0  0  0  0  0
   31.8510   27.9570   46.0170 O   0  0  0  0  0  0  0  0  0  0  0  0
   30.5760   27.5600   46.3920 C   0  0  0  0  0  0  0  0  0  0  0  0
   30.5630   26.8750   47.7320 C   0  0  2  0  0  0  0  0  0  0  0  0
   32.6350   25.9690   47.1800 O   0  0  0  0  0  0  0  0  0  0  0  0
   34.3010   28.0430   48.8630 S   0  0  0  0  0  0  0  0  0  0  0  0
   34.5860   29.3680   50.0720 C   0  0  0  0  0  0  0  0  0  0  0  0
   36.2900   29.4790   50.6150 S   0  0  0  0  0  0  0  0  0  0  0  0
   37.1510   30.6250   49.5530 C   0  0  0  0  0  0  0  0  0  0  0  0
   37.2130   31.9220   50.0180 C   0  0  0  0  0  0  0  0  0  0  0  0
   37.8710   32.8850   49.2470 C   0  0  0  0  0  0  0  0  0  0  0  0
   38.4190   32.4860   48.0680 N   0  0  0  0  0  0  0  0  0  0  0  0
   38.3310   31.2050   47.6580 C   0  0  0  0  0  0  0  0  0  0  0  0
   37.7150   30.3030   48.3800 N   0  0  0  0  0  0  0  0  0  0  0  0
   29.9620   27.7130   48.6890 O   0  0  0  0  0  0  0  0  0  0  0  0
   28.8310   27.1310   49.2430 C   0  0  0  0  0  0  0  0  0  0  0  0
   29.0140   27.1280   50.7420 C   0  0  0  0  0  0  0  0  0  0  0  0
   27.7060   26.9910   51.4820 C   0  0  0  0  0  0  0  0  0  0  0  0
   26.6880   28.0280   51.1090 C   0  0  0  0  0  0  0  0  0  0  0  0
   27.2390   28.9030   50.0110 C   0  0  0  0  0  0  0  0  0  0  0  0
   27.6410   27.9750   48.8580 C   0  0  0  0  0  0  0  0  0  0  0  0
   32.0758   26.1709   49.1465 H   0  0  0  0  0  0  0  0  0  0  0  0
   32.0420   28.6520   49.0641 H   0  0  0  0  0  0  0  0  0  0  0  0
   31.8435   29.6596   47.0998 H   0  0  0  0  0  0  0  0  0  0  0  0
   33.4659   28.9775   46.6150 H   0  0  0  0  0  0  0  0  0  0  0  0
   29.9292   28.4483   46.4424 H   0  0  0  0  0  0  0  0  0  0  0  0
   30.2129   26.8412   45.6427 H   0  0  0  0  0  0  0  0  0  0  0  0
   30.0228   25.9213   47.6396 H   0  0  0  0  0  0  0  0  0  0  0  0
   33.2337   25.2973   47.5930 H   0  0  0  0  0  0  0  0  0  0  0  0
   34.3030   30.3265   49.6124 H   0  0  0  0  0  0  0  0  0  0  0  0
   33.9765   29.1367   50.9580 H   0  0  0  0  0  0  0  0  0  0  0  0
   36.7525   32.1942   50.9792 H   0  0  0  0  0  0  0  0  0  0  0  0
   37.9430   33.9301   49.5827 H   0  0  0  0  0  0  0  0  0  0  0  0
   38.7848   30.9122   46.6997 H   0  0  0  0  0  0  0  0  0  0  0  0
   28.6754   26.1020   48.8868 H   0  0  0  0  0  0  0  0  0  0  0  0
   29.6649   26.2849   51.0165 H   0  0  0  0  0  0  0  0  0  0  0  0
   29.4606   28.0921   51.0268 H   0  0  0  0  0  0  0  0  0  0  0  0
   27.2860   25.9982   51.2631 H   0  0  0  0  0  0  0  0  0  0  0  0
   27.9266   27.1284   52.5509 H   0  0  0  0  0  0  0  0  0  0  0  0
   25.7715   27.5319   50.7571 H   0  0  0  0  0  0  0  0  0  0  0  0
   26.4562   28.6466   51.9886 H   0  0  0  0  0  0  0  0  0  0  0  0
   26.4709   29.6143   49.6733 H   0  0  0  0  0  0  0  0  0  0  0  0
   28.1027   29.4834   50.3675 H   0  0  0  0  0  0  0  0  0  0  0  0
   27.8989   28.5829   47.9783 H   0  0  0  0  0  0  0  0  0  0  0  0
   26.7954   27.3101   48.6278 H   0  0  0  0  0  0  0  0  0  0  0  0
  1  2  1  0
  2  8  1  0
  3  2  1  0
  4  5  1  0
  4  3  1  0
  5  6  1  0
  6  1  1  0
  6 17  1  0
  7  1  1  0
  8  9  1  0
  9 10  1  0
 11 12  2  0
 11 10  1  0
 13 12  1  0
 14 13  2  0
 15 14  1  0
 15 16  2  0
 16 11  1  0
 17 18  1  0
 18 19  1  0
 19 20  1  0
 21 20  1  0
 22 21  1  0
 23 18  1  0
 23 22  1  0
  1 24  1  1
  2 25  1  1
  3 26  1  0
  3 27  1  0
  5 28  1  0
  5 29  1  0
  6 30  1  6
  7 31  1  0
  9 32  1  0
  9 33  1  0
 12 34  1  0
 13 35  1  0
 15 36  1  0
 18 37  1  0
 19 38  1  0
 19 39  1  0
 20 40  1  0
 20 41  1  0
 21 42  1  0
 21 43  1  0
 22 44  1  0
 22 45  1  0
 23 46  1  0
 23 47  1  0
M  ISO  8  24  13  25  13  26  13  27  13  28  13  29  13  30  13  31   3
M  ISO  8  32   8  33   8  34  14  35  14  36  14  37  13  38  13  39  13
M  ISO  8  40  13  41  13  42  13  43  13  44  13  45  13  46  13  47  13
M  END
>  <minimizedAffinity>  (1) 
-5.76039267

>  <minimizedRMSD>  (1) 
1.49638116

$$$$
