
     RDKit          3D

 32 33  0  0  0  0  0  0  0  0999 V2000
   37.1410   33.6200   49.6850 O   0  0  0  0  0  0  0  0  0  0  0  0
   38.4010   32.9250   49.1480 P   0  0  1  0  0  0  0  0  0  0  0  0
   39.7490   33.8250   49.7010 O   0  0  0  0  0  0  0  0  0  0  0  0
   38.4990   31.4140   49.9090 O   0  0  0  0  0  0  0  0  0  0  0  0
   37.0480   30.2090   51.3630 C   0  0  0  0  0  0  0  0  0  0  0  0
   37.5040   30.4910   50.0640 C   0  0  0  0  0  0  0  0  0  0  0  0
   36.8950   29.7970   49.0210 C   0  0  0  0  0  0  0  0  0  0  0  0
   35.9100   28.8990   49.3100 N   0  0  0  0  0  0  0  0  0  0  0  0
   35.5090   28.6640   50.5660 C   0  0  0  0  0  0  0  0  0  0  0  0
   36.0800   29.3240   51.6130 N   0  0  0  0  0  0  0  0  0  0  0  0
   38.2890   32.8890   47.4970 O   0  0  0  0  0  0  0  0  0  0  0  0
   39.4430   32.2910   46.9820 C   0  0  0  0  0  0  0  0  0  0  0  0
   39.0160   30.9670   46.3940 C   0  0  0  0  0  0  0  0  0  0  0  0
   38.8710   31.1640   44.8990 C   0  0  0  0  0  0  0  0  0  0  0  0
   40.2570   31.2980   44.3450 C   0  0  0  0  0  0  0  0  0  0  0  0
   40.9830   32.4070   45.0330 C   0  0  0  0  0  0  0  0  0  0  0  0
   40.1680   33.1810   46.0200 C   0  0  0  0  0  0  0  0  0  0  0  0
   39.7581   33.8311   50.6909 H   0  0  0  0  0  0  0  0  0  0  0  0
   37.5080   30.7398   52.2096 H   0  0  0  0  0  0  0  0  0  0  0  0
   37.2040   29.9707   47.9797 H   0  0  0  0  0  0  0  0  0  0  0  0
   34.7108   27.9310   50.7546 H   0  0  0  0  0  0  0  0  0  0  0  0
   40.1874   32.1177   47.7731 H   0  0  0  0  0  0  0  0  0  0  0  0
   39.7773   30.2003   46.6006 H   0  0  0  0  0  0  0  0  0  0  0  0
   38.0662   30.6324   46.8367 H   0  0  0  0  0  0  0  0  0  0  0  0
   38.3656   30.2964   44.4497 H   0  0  0  0  0  0  0  0  0  0  0  0
   38.2676   32.0559   44.6745 H   0  0  0  0  0  0  0  0  0  0  0  0
   40.8027   30.3556   44.4998 H   0  0  0  0  0  0  0  0  0  0  0  0
   40.1935   31.5233   43.2702 H   0  0  0  0  0  0  0  0  0  0  0  0
   41.8421   31.9733   45.5657 H   0  0  0  0  0  0  0  0  0  0  0  0
   41.2707   33.1200   44.2463 H   0  0  0  0  0  0  0  0  0  0  0  0
   40.8368   33.8447   46.5876 H   0  0  0  0  0  0  0  0  0  0  0  0
   39.4149   33.7534   45.4586 H   0  0  0  0  0  0  0  0  0  0  0  0
  2  1  2  0
  2  3  1  0
  2  4  1  0
  4  6  1  0
  5 10  2  0
  6  5  1  0
  7  8  1  0
  7  6  2  0
  8  9  2  0
  9 10  1  0
 11  2  1  0
 12 11  1  0
 13 12  1  0
 14 13  1  0
 15 14  1  0
 15 16  1  0
 16 17  1  0
 17 12  1  0
  3 18  1  0
  5 19  1  0
  7 20  1  0
  9 21  1  0
 12 22  1  0
 13 23  1  0
 13 24  1  0
 14 25  1  0
 14 26  1  0
 15 27  1  0
 15 28  1  0
 16 29  1  0
 16 30  1  0
 17 31  1  0
 17 32  1  0
M  ISO  8  18   3  19  14  20  14  21  14  22  13  23  13  24  13  25  13
M  ISO  7  26  13  27  13  28  13  29  13  30  13  31  13  32  13
M  END
>  <minimizedAffinity>  (1) 
-4.89931393

>  <minimizedRMSD>  (1) 
1.20300663

$$$$
