
     RDKit          3D

 45 48  0  0  0  0  0  0  0  0999 V2000
   36.8740   30.7710   47.2230 C   0  0  0  0  0  0  0  0  0  0  0  0
   37.8110   31.7120   47.3380 C   0  0  0  0  0  0  0  0  0  0  0  0
   38.3390   32.2550   46.2320 C   0  0  0  0  0  0  0  0  0  0  0  0
   37.8820   31.8060   45.0160 C   0  0  0  0  0  0  0  0  0  0  0  0
   36.6410   30.5530   45.5150 S   0  0  0  0  0  0  0  0  0  0  0  0
   40.6780   31.0110   44.0940 Cl  0  0  0  0  0  0  0  0  0  0  0  0
   39.4300   31.8030   43.1630 C   0  0  0  0  0  0  0  0  0  0  0  0
   38.1930   32.1320   43.6440 C   0  0  0  0  0  0  0  0  0  0  0  0
   37.2100   32.7380   42.9670 C   0  0  0  0  0  0  0  0  0  0  0  0
   37.4480   33.0810   41.6260 C   0  0  0  0  0  0  0  0  0  0  0  0
   38.6540   32.7880   41.0760 C   0  0  0  0  0  0  0  0  0  0  0  0
   39.0020   33.1930   39.4100 Cl  0  0  0  0  0  0  0  0  0  0  0  0
   39.6440   32.1550   41.8250 C   0  0  0  0  0  0  0  0  0  0  0  0
   35.6380   29.4040   50.5140 C   0  0  0  0  0  0  0  0  0  0  0  0
   36.3900   30.1660   49.6070 C   0  0  0  0  0  0  0  0  0  0  0  0
   36.1190   30.0020   48.2340 C   0  0  0  0  0  0  0  0  0  0  0  0
   35.1780   29.1460   47.8710 N   0  0  0  0  0  0  0  0  0  0  0  0
   34.4700   28.4280   48.7500 C   0  0  0  0  0  0  0  0  0  0  0  0
   34.7010   28.5600   50.0560 N   0  0  0  0  0  0  0  0  0  0  0  0
   33.4590   27.5170   48.2430 C   0  0  0  0  0  0  0  0  0  0  0  0
   33.7840   26.3670   47.8730 O   0  0  0  0  0  0  0  0  0  0  0  0
   32.0430   27.9650   48.1700 C   0  0  0  0  0  0  0  0  0  0  0  0
   31.6540   28.2740   46.7280 C   0  0  0  0  0  0  0  0  0  0  0  0
   30.2650   28.9160   46.8290 C   0  0  0  0  0  0  0  0  0  0  0  0
   29.3370   27.8190   47.2610 C   0  0  0  0  0  0  0  0  0  0  0  0
   29.7030   27.1560   48.5480 C   0  0  0  0  0  0  0  0  0  0  0  0
   31.1620   26.8740   48.7240 C   0  0  0  0  0  0  0  0  0  0  0  0
   38.1482   32.0403   48.3323 H   0  0  0  0  0  0  0  0  0  0  0  0
   39.1127   33.0344   46.2955 H   0  0  0  0  0  0  0  0  0  0  0  0
   36.2453   32.9605   43.4463 H   0  0  0  0  0  0  0  0  0  0  0  0
   36.6690   33.5795   41.0305 H   0  0  0  0  0  0  0  0  0  0  0  0
   40.6125   31.9275   41.3558 H   0  0  0  0  0  0  0  0  0  0  0  0
   35.8158   29.4982   51.5954 H   0  0  0  0  0  0  0  0  0  0  0  0
   37.1634   30.8663   49.9553 H   0  0  0  0  0  0  0  0  0  0  0  0
   31.9168   28.8840   48.7612 H   0  0  0  0  0  0  0  0  0  0  0  0
   31.6123   27.3510   46.1311 H   0  0  0  0  0  0  0  0  0  0  0  0
   32.3822   28.9329   46.2324 H   0  0  0  0  0  0  0  0  0  0  0  0
   30.2712   29.7271   47.5721 H   0  0  0  0  0  0  0  0  0  0  0  0
   29.9523   29.3564   45.8707 H   0  0  0  0  0  0  0  0  0  0  0  0
   28.3298   28.2473   47.3716 H   0  0  0  0  0  0  0  0  0  0  0  0
   29.3968   27.0412   46.4855 H   0  0  0  0  0  0  0  0  0  0  0  0
   29.3804   27.8096   49.3719 H   0  0  0  0  0  0  0  0  0  0  0  0
   29.2002   26.1776   48.5425 H   0  0  0  0  0  0  0  0  0  0  0  0
   31.4021   25.9331   48.2073 H   0  0  0  0  0  0  0  0  0  0  0  0
   31.3571   26.8099   49.8047 H   0  0  0  0  0  0  0  0  0  0  0  0
  1  2  2  0
  1 16  1  0
  3  2  1  0
  4  5  1  0
  4  3  2  0
  5  1  1  0
  7  8  2  0
  7  6  1  0
  8  4  1  0
  9  8  1  0
 10  9  2  0
 11 10  1  0
 11 13  2  0
 12 11  1  0
 13  7  1  0
 15 14  2  0
 16 15  1  0
 17 16  2  0
 17 18  1  0
 18 19  2  0
 19 14  1  0
 20 18  1  0
 21 20  2  0
 22 20  1  0
 22 27  1  0
 23 24  1  0
 23 22  1  0
 24 25  1  0
 25 26  1  0
 26 27  1  0
  2 28  1  0
  3 29  1  0
  9 30  1  0
 10 31  1  0
 13 32  1  0
 14 33  1  0
 15 34  1  0
 22 35  1  0
 23 36  1  0
 23 37  1  0
 24 38  1  0
 24 39  1  0
 25 40  1  0
 25 41  1  0
 26 42  1  0
 26 43  1  0
 27 44  1  0
 27 45  1  0
M  ISO  8  28  14  29  14  30  14  31  14  32  14  33  14  34  14  35  13
M  ISO  8  36  13  37  13  38  13  39  13  40  13  41  13  42  13  43  13
M  ISO  2  44  13  45  13
M  END
>  <minimizedAffinity>  (1) 
-5.86667252

>  <minimizedRMSD>  (1) 
2.72288656

$$$$
