
     RDKit          3D

 47 50  0  0  0  0  0  0  0  0999 V2000
   34.6640   29.0920   48.4100 C   0  0  0  0  0  0  0  0  0  0  0  0
   34.3630   27.8030   48.8120 C   0  0  0  0  0  0  0  0  0  0  0  0
   33.2910   27.2560   48.1670 C   0  0  0  0  0  0  0  0  0  0  0  0
   32.5720   27.9220   47.2040 C   0  0  0  0  0  0  0  0  0  0  0  0
   32.9350   29.1960   46.8640 C   0  0  0  0  0  0  0  0  0  0  0  0
   33.9880   29.7720   47.4770 N   0  0  0  0  0  0  0  0  0  0  0  0
   29.9180   29.0900   47.0160 Cl  0  0  0  0  0  0  0  0  0  0  0  0
   30.8350   29.9710   45.8350 C   0  0  0  0  0  0  0  0  0  0  0  0
   32.2120   29.9500   45.8600 C   0  0  0  0  0  0  0  0  0  0  0  0
   32.8120   30.7010   44.8570 C   0  0  0  0  0  0  0  0  0  0  0  0
   32.1240   31.4140   43.9100 C   0  0  0  0  0  0  0  0  0  0  0  0
   30.7520   31.4060   43.9230 C   0  0  0  0  0  0  0  0  0  0  0  0
   29.8300   32.2970   42.7400 Cl  0  0  0  0  0  0  0  0  0  0  0  0
   30.1140   30.6750   44.8990 C   0  0  0  0  0  0  0  0  0  0  0  0
   37.2720   30.0690   50.8090 C   0  0  0  0  0  0  0  0  0  0  0  0
   37.9490   31.0880   50.1430 C   0  0  0  0  0  0  0  0  0  0  0  0
   37.5070   31.4330   48.8790 C   0  0  0  0  0  0  0  0  0  0  0  0
   36.4490   30.7590   48.3770 N   0  0  0  0  0  0  0  0  0  0  0  0
   35.8050   29.7810   49.0270 C   0  0  0  0  0  0  0  0  0  0  0  0
   36.2330   29.4460   50.2520 N   0  0  0  0  0  0  0  0  0  0  0  0
   38.1560   32.4910   48.1050 C   0  0  0  0  0  0  0  0  0  0  0  0
   38.7580   33.5770   48.9680 C   0  0  0  0  0  0  0  0  0  0  0  0
   40.0000   34.1880   48.4070 C   0  0  0  0  0  0  0  0  0  0  0  0
   40.1030   34.1610   46.9150 C   0  0  0  0  0  0  0  0  0  0  0  0
   39.7280   32.8610   46.2840 C   0  0  0  0  0  0  0  0  0  0  0  0
   39.2530   31.8410   47.2710 C   0  0  0  0  0  0  0  0  0  0  0  0
   37.6500   29.6280   52.1330 N   0  0  0  0  0  0  0  0  0  0  0  0
   34.9361   27.2666   49.5825 H   0  0  0  0  0  0  0  0  0  0  0  0
   32.9882   26.2321   48.4313 H   0  0  0  0  0  0  0  0  0  0  0  0
   31.7156   27.4368   46.7129 H   0  0  0  0  0  0  0  0  0  0  0  0
   33.9111   30.7250   44.8205 H   0  0  0  0  0  0  0  0  0  0  0  0
   32.6676   31.9883   43.1454 H   0  0  0  0  0  0  0  0  0  0  0  0
   29.0147   30.6535   44.9309 H   0  0  0  0  0  0  0  0  0  0  0  0
   38.8051   31.6003   50.6063 H   0  0  0  0  0  0  0  0  0  0  0  0
   37.3934   32.9791   47.4803 H   0  0  0  0  0  0  0  0  0  0  0  0
   38.0088   34.3725   49.0937 H   0  0  0  0  0  0  0  0  0  0  0  0
   39.0412   33.1034   49.9196 H   0  0  0  0  0  0  0  0  0  0  0  0
   40.0400   35.2380   48.7323 H   0  0  0  0  0  0  0  0  0  0  0  0
   40.8366   33.5805   48.7826 H   0  0  0  0  0  0  0  0  0  0  0  0
   39.4397   34.9406   46.5122 H   0  0  0  0  0  0  0  0  0  0  0  0
   41.1637   34.3265   46.6752 H   0  0  0  0  0  0  0  0  0  0  0  0
   38.9234   33.0448   45.5568 H   0  0  0  0  0  0  0  0  0  0  0  0
   40.6328   32.4568   45.8065 H   0  0  0  0  0  0  0  0  0  0  0  0
   38.8531   30.9634   46.7419 H   0  0  0  0  0  0  0  0  0  0  0  0
   40.0814   31.5055   47.9122 H   0  0  0  0  0  0  0  0  0  0  0  0
   37.1246   28.8710   52.5932 H   0  0  0  0  0  0  0  0  0  0  0  0
   38.4446   30.0709   52.6160 H   0  0  0  0  0  0  0  0  0  0  0  0
  1  2  2  0
  1 19  1  0
  3  2  1  0
  4  3  2  0
  5  4  1  0
  5  6  2  0
  6  1  1  0
  8  9  2  0
  8  7  1  0
  9  5  1  0
 10  9  1  0
 11 12  1  0
 11 10  2  0
 12 14  2  0
 13 12  1  0
 14  8  1  0
 15 27  1  0
 16 15  2  0
 17 16  1  0
 18 17  2  0
 18 19  1  0
 19 20  2  0
 20 15  1  0
 21 17  1  0
 21 22  1  0
 23 22  1  0
 24 23  1  0
 25 24  1  0
 25 26  1  0
 26 21  1  0
  2 28  1  0
  3 29  1  0
  4 30  1  0
 10 31  1  0
 11 32  1  0
 14 33  1  0
 16 34  1  0
 21 35  1  0
 22 36  1  0
 22 37  1  0
 23 38  1  0
 23 39  1  0
 24 40  1  0
 24 41  1  0
 25 42  1  0
 25 43  1  0
 26 44  1  0
 26 45  1  0
 27 46  1  0
 27 47  1  0
M  END
>  <minimizedAffinity>  (1) 
-7.13915205

>  <minimizedRMSD>  (1) 
0.227804407

$$$$
