
     RDKit          3D

 29 30  0  0  0  0  0  0  0  0999 V2000
   37.2000   30.5340   49.4500 C   0  0  0  0  0  0  0  0  0  0  0  0
   37.0440   31.7270   50.1680 C   0  0  0  0  0  0  0  0  0  0  0  0
   37.5900   32.9000   49.6210 C   0  0  0  0  0  0  0  0  0  0  0  0
   38.2350   32.8060   48.4280 N   0  0  0  0  0  0  0  0  0  0  0  0
   38.3610   31.6340   47.7710 C   0  0  0  0  0  0  0  0  0  0  0  0
   37.8440   30.5200   48.2900 N   0  0  0  0  0  0  0  0  0  0  0  0
   39.0670   31.5540   46.4730 C   0  0  0  0  0  0  0  0  0  0  0  0
   39.9270   32.8050   46.2810 C   0  0  0  0  0  0  0  0  0  0  0  0
   40.7690   32.5220   45.0430 C   0  0  0  0  0  0  0  0  0  0  0  0
   39.8200   32.5930   43.8590 C   0  0  0  0  0  0  0  0  0  0  0  0
   38.3740   32.4850   44.2520 C   0  0  0  0  0  0  0  0  0  0  0  0
   38.1600   31.3930   45.3000 C   0  0  0  0  0  0  0  0  0  0  0  0
   36.6170   29.2810   50.0370 C   0  0  0  0  0  0  0  0  0  0  0  0
   35.9630   28.5680   49.0500 F   0  0  0  0  0  0  0  0  0  0  0  0
   37.6470   28.5820   50.6240 F   0  0  0  0  0  0  0  0  0  0  0  0
   35.6650   29.6670   50.9700 F   0  0  0  0  0  0  0  0  0  0  0  0
   36.5107   31.7445   51.1299 H   0  0  0  0  0  0  0  0  0  0  0  0
   37.4985   33.8646   50.1418 H   0  0  0  0  0  0  0  0  0  0  0  0
   39.6883   30.6472   46.5143 H   0  0  0  0  0  0  0  0  0  0  0  0
   39.2923   33.6893   46.1224 H   0  0  0  0  0  0  0  0  0  0  0  0
   40.5493   33.0166   47.1630 H   0  0  0  0  0  0  0  0  0  0  0  0
   41.5628   33.2767   44.9411 H   0  0  0  0  0  0  0  0  0  0  0  0
   41.2571   31.5383   45.1068 H   0  0  0  0  0  0  0  0  0  0  0  0
   40.0577   31.7686   43.1706 H   0  0  0  0  0  0  0  0  0  0  0  0
   39.9580   33.5775   43.3881 H   0  0  0  0  0  0  0  0  0  0  0  0
   38.0431   33.4486   44.6667 H   0  0  0  0  0  0  0  0  0  0  0  0
   37.7908   32.2240   43.3566 H   0  0  0  0  0  0  0  0  0  0  0  0
   37.1178   31.4362   45.6492 H   0  0  0  0  0  0  0  0  0  0  0  0
   38.3841   30.4242   44.8296 H   0  0  0  0  0  0  0  0  0  0  0  0
  1 13  1  0
  1  2  2  0
  3  2  1  0
  4  3  2  0
  5  6  2  0
  5  4  1  0
  6  1  1  0
  7  5  1  0
  8  7  1  0
  9  8  1  0
 10 11  1  0
 10  9  1  0
 11 12  1  0
 12  7  1  0
 13 15  1  0
 13 16  1  0
 14 13  1  0
  2 17  1  0
  3 18  1  0
  7 19  1  0
  8 20  1  0
  8 21  1  0
  9 22  1  0
  9 23  1  0
 10 24  1  0
 10 25  1  0
 11 26  1  0
 11 27  1  0
 12 28  1  0
 12 29  1  0
M  ISO  8  17  14  18  14  19  13  20  13  21  13  22  13  23  13  24  13
M  ISO  5  25  13  26  13  27  13  28  13  29  13
M  END
>  <minimizedAffinity>  (1) 
-5.9771471

>  <minimizedRMSD>  (1) 
2.75017667

$$$$
