
     RDKit          3D

 39 41  0  0  0  0  0  0  0  0999 V2000
   38.0660   30.7640   44.8790 C   0  0  0  0  0  0  0  0  0  0  0  0
   38.8870   30.4810   43.8250 C   0  0  0  0  0  0  0  0  0  0  0  0
   40.2660   30.5800   43.8470 C   0  0  0  0  0  0  0  0  0  0  0  0
   40.8800   30.9990   45.0370 C   0  0  0  0  0  0  0  0  0  0  0  0
   40.0380   31.2920   46.1250 C   0  0  0  0  0  0  0  0  0  0  0  0
   38.6660   31.1840   46.0710 C   0  0  0  0  0  0  0  0  0  0  0  0
   36.0040   29.5550   45.3910 C   0  0  0  0  0  0  0  0  0  0  0  0
   36.6480   30.6050   44.6720 C   0  0  0  0  0  0  0  0  0  0  0  0
   35.8520   31.3810   43.8340 C   0  0  0  0  0  0  0  0  0  0  0  0
   34.5260   31.1030   43.7470 N   0  0  0  0  0  0  0  0  0  0  0  0
   33.9420   30.0900   44.4510 C   0  0  0  0  0  0  0  0  0  0  0  0
   34.6920   29.3180   45.2730 N   0  0  0  0  0  0  0  0  0  0  0  0
   36.3810   32.4940   43.0330 C   0  0  0  0  0  0  0  0  0  0  0  0
   35.3630   33.4020   42.7210 F   0  0  0  0  0  0  0  0  0  0  0  0
   37.4380   33.1710   43.5460 F   0  0  0  0  0  0  0  0  0  0  0  0
   36.7600   32.0280   41.7560 F   0  0  0  0  0  0  0  0  0  0  0  0
   37.7990   31.4950   47.2090 C   0  0  0  0  0  0  0  0  0  0  0  0
   38.3490   32.6520   48.0480 C   0  0  0  0  0  0  0  0  0  0  0  0
   37.7250   32.6740   49.3970 C   0  0  0  0  0  0  0  0  0  0  0  0
   36.5340   31.7720   49.5840 C   0  0  0  0  0  0  0  0  0  0  0  0
   36.7700   30.3690   49.1380 C   0  0  0  0  0  0  0  0  0  0  0  0
   37.8800   30.2700   48.1270 C   0  0  0  0  0  0  0  0  0  0  0  0
   38.4158   30.1493   42.8880 H   0  0  0  0  0  0  0  0  0  0  0  0
   40.8647   30.3371   42.9568 H   0  0  0  0  0  0  0  0  0  0  0  0
   41.9730   31.0943   45.1157 H   0  0  0  0  0  0  0  0  0  0  0  0
   40.4988   31.6243   47.0669 H   0  0  0  0  0  0  0  0  0  0  0  0
   36.6029   28.9216   46.0619 H   0  0  0  0  0  0  0  0  0  0  0  0
   32.8630   29.9008   44.3508 H   0  0  0  0  0  0  0  0  0  0  0  0
   36.7950   31.7510   46.8396 H   0  0  0  0  0  0  0  0  0  0  0  0
   39.4371   32.5324   48.1566 H   0  0  0  0  0  0  0  0  0  0  0  0
   38.1149   33.5979   47.5376 H   0  0  0  0  0  0  0  0  0  0  0  0
   38.4913   32.3767   50.1280 H   0  0  0  0  0  0  0  0  0  0  0  0
   37.3480   33.6982   49.5346 H   0  0  0  0  0  0  0  0  0  0  0  0
   36.2733   31.7577   50.6526 H   0  0  0  0  0  0  0  0  0  0  0  0
   35.7231   32.1760   48.9601 H   0  0  0  0  0  0  0  0  0  0  0  0
   37.0343   29.7590   50.0144 H   0  0  0  0  0  0  0  0  0  0  0  0
   35.8470   30.0080   48.6607 H   0  0  0  0  0  0  0  0  0  0  0  0
   37.7630   29.3511   47.5337 H   0  0  0  0  0  0  0  0  0  0  0  0
   38.8556   30.2378   48.6342 H   0  0  0  0  0  0  0  0  0  0  0  0
  1  6  2  0
  2  3  2  0
  2  1  1  0
  3  4  1  0
  4  5  2  0
  6  5  1  0
  6 17  1  0
  8  1  1  0
  8  7  2  0
  9  8  1  0
 10  9  2  0
 10 11  1  0
 11 12  2  0
 12  7  1  0
 13 15  1  0
 13  9  1  0
 14 13  1  0
 16 13  1  0
 17 18  1  0
 17 22  1  0
 18 19  1  0
 19 20  1  0
 21 20  1  0
 22 21  1  0
  2 23  1  0
  3 24  1  0
  4 25  1  0
  5 26  1  0
  7 27  1  0
 11 28  1  0
 17 29  1  0
 18 30  1  0
 18 31  1  0
 19 32  1  0
 19 33  1  0
 20 34  1  0
 20 35  1  0
 21 36  1  0
 21 37  1  0
 22 38  1  0
 22 39  1  0
M  ISO  8  23  14  24  14  25  14  26  14  27  14  28  14  29  13  30  13
M  ISO  8  31  13  32  13  33  13  34  13  35  13  36  13  37  13  38  13
M  ISO  1  39  13
M  END
>  <minimizedAffinity>  (1) 
-4.99055767

>  <minimizedRMSD>  (1) 
4.68050718

$$$$
