
     RDKit          3D

 27 28  0  0  0  0  0  0  0  0999 V2000
   36.6200   29.4840   50.6590 C   0  0  0  0  0  0  0  0  0  0  0  0
   36.7550   30.2690   49.5150 C   0  0  0  0  0  0  0  0  0  0  0  0
   35.6140   30.6260   48.8040 C   0  0  0  0  0  0  0  0  0  0  0  0
   34.4060   30.1750   49.2760 N   0  0  0  0  0  0  0  0  0  0  0  0
   34.3050   29.4130   50.3910 C   0  0  0  0  0  0  0  0  0  0  0  0
   35.4130   29.0740   51.0720 N   0  0  0  0  0  0  0  0  0  0  0  0
   38.0440   30.7800   48.9680 C   0  0  0  0  0  0  0  0  0  0  0  0
   37.9580   30.7700   47.4920 C   0  0  0  0  0  0  0  0  0  0  0  0
   38.6610   31.8640   46.7640 C   0  0  0  0  0  0  0  0  0  0  0  0
   39.4340   32.8130   47.6400 C   0  0  0  0  0  0  0  0  0  0  0  0
   38.4550   33.2440   48.7310 C   0  0  0  0  0  0  0  0  0  0  0  0
   38.3770   32.0500   49.6530 C   0  0  0  0  0  0  0  0  0  0  0  0
   37.8460   29.2260   51.2380 O   0  0  0  0  0  0  0  0  0  0  0  0
   35.6770   31.2463   47.8977 H   0  0  0  0  0  0  0  0  0  0  0  0
   33.3185   29.0723   50.7385 H   0  0  0  0  0  0  0  0  0  0  0  0
   38.9169   30.1448   49.1790 H   0  0  0  0  0  0  0  0  0  0  0  0
   38.3782   29.8156   47.1420 H   0  0  0  0  0  0  0  0  0  0  0  0
   36.8913   30.9184   47.2679 H   0  0  0  0  0  0  0  0  0  0  0  0
   39.3642   31.4049   46.0536 H   0  0  0  0  0  0  0  0  0  0  0  0
   37.8780   32.4628   46.2759 H   0  0  0  0  0  0  0  0  0  0  0  0
   40.3048   32.3066   48.0820 H   0  0  0  0  0  0  0  0  0  0  0  0
   39.8196   33.6728   47.0725 H   0  0  0  0  0  0  0  0  0  0  0  0
   38.8329   34.1269   49.2674 H   0  0  0  0  0  0  0  0  0  0  0  0
   37.4724   33.5284   48.3265 H   0  0  0  0  0  0  0  0  0  0  0  0
   37.6038   32.2476   50.4100 H   0  0  0  0  0  0  0  0  0  0  0  0
   39.3773   31.9216   50.0922 H   0  0  0  0  0  0  0  0  0  0  0  0
   38.6719   29.5903   50.8314 H   0  0  0  0  0  0  0  0  0  0  0  0
  1  6  2  0
  1 13  1  0
  2  1  1  0
  3  4  1  0
  3  2  2  0
  4  5  2  0
  5  6  1  0
  7  2  1  0
  7 12  1  0
  8  7  1  0
  9  8  1  0
  9 10  1  0
 10 11  1  0
 11 12  1  0
  3 14  1  0
  5 15  1  0
  7 16  1  0
  8 17  1  0
  8 18  1  0
  9 19  1  0
  9 20  1  0
 10 21  1  0
 10 22  1  0
 11 23  1  0
 11 24  1  0
 12 25  1  0
 12 26  1  0
 13 27  1  0
M  ISO  8  14  14  15  14  16  13  17  13  18  13  19  13  20  13  21  13
M  ISO  6  22  13  23  13  24  13  25  13  26  13  27   3
M  END
>  <minimizedAffinity>  (1) 
-5.41600084

>  <minimizedRMSD>  (1) 
2.32038808

$$$$
