
     RDKit          3D

 50 53  0  0  1  0  0  0  0  0999 V2000
   34.6460   29.8990   46.6390 N   0  0  0  0  0  0  0  0  0  0  0  0
   33.1980   30.0720   46.7050 C   0  0  0  0  0  0  0  0  0  0  0  0
   32.4360   29.1240   45.8920 C   0  0  2  0  0  0  0  0  0  0  0  0
   33.0270   28.9290   44.5390 N   0  0  0  0  0  0  0  0  0  0  0  0
   34.4390   28.5540   44.7330 C   0  0  0  0  0  0  0  0  0  0  0  0
   35.0650   29.8130   45.2850 C   0  0  0  0  0  0  0  0  0  0  0  0
   30.5000   28.0050   47.8540 Cl  0  0  0  0  0  0  0  0  0  0  0  0
   30.0770   29.1710   46.6060 C   0  0  0  0  0  0  0  0  0  0  0  0
   31.0610   29.5750   45.7460 C   0  0  0  0  0  0  0  0  0  0  0  0
   30.8700   30.4920   44.7010 C   0  0  0  0  0  0  0  0  0  0  0  0
   29.5610   30.9870   44.5790 C   0  0  0  0  0  0  0  0  0  0  0  0
   28.5500   30.5790   45.4500 C   0  0  0  0  0  0  0  0  0  0  0  0
   28.8210   29.6850   46.4420 C   0  0  0  0  0  0  0  0  0  0  0  0
   27.7860   29.2170   47.3990 C   0  0  0  0  0  0  0  0  0  0  0  0
   27.5960   27.7340   47.1280 C   0  0  0  0  0  0  0  0  0  0  0  0
   26.9790   27.0030   48.2860 C   0  0  0  0  0  0  0  0  0  0  0  0
   26.1050   27.9630   49.0340 C   0  0  0  0  0  0  0  0  0  0  0  0
   26.9150   29.0650   49.6520 C   0  0  0  0  0  0  0  0  0  0  0  0
   28.1520   29.4250   48.8350 C   0  0  0  0  0  0  0  0  0  0  0  0
   35.4640   29.8450   47.7980 C   0  0  0  0  0  0  0  0  0  0  0  0
   36.6940   30.5020   47.8720 C   0  0  0  0  0  0  0  0  0  0  0  0
   37.4310   30.4000   49.0390 C   0  0  0  0  0  0  0  0  0  0  0  0
   36.9100   29.6490   50.0800 N   0  0  0  0  0  0  0  0  0  0  0  0
   35.7120   29.0330   49.9570 C   0  0  0  0  0  0  0  0  0  0  0  0
   34.9960   29.1200   48.8490 N   0  0  0  0  0  0  0  0  0  0  0  0
   32.8854   29.9546   47.7531 H   0  0  0  0  0  0  0  0  0  0  0  0
   32.9838   31.0727   46.3017 H   0  0  0  0  0  0  0  0  0  0  0  0
   32.4683   28.1597   46.4203 H   0  0  0  0  0  0  0  0  0  0  0  0
   32.9647   29.8026   43.9970 H   0  0  0  0  0  0  0  0  0  0  0  0
   34.5306   27.7231   45.4480 H   0  0  0  0  0  0  0  0  0  0  0  0
   34.9211   28.2058   43.8076 H   0  0  0  0  0  0  0  0  0  0  0  0
   36.1618   29.7510   45.2278 H   0  0  0  0  0  0  0  0  0  0  0  0
   34.7575   30.6999   44.7116 H   0  0  0  0  0  0  0  0  0  0  0  0
   31.6839   30.7999   44.0282 H   0  0  0  0  0  0  0  0  0  0  0  0
   29.3288   31.7093   43.7825 H   0  0  0  0  0  0  0  0  0  0  0  0
   27.5321   30.9799   45.3355 H   0  0  0  0  0  0  0  0  0  0  0  0
   26.8683   29.8037   47.2451 H   0  0  0  0  0  0  0  0  0  0  0  0
   26.9420   27.6183   46.2511 H   0  0  0  0  0  0  0  0  0  0  0  0
   28.5918   27.2995   46.9559 H   0  0  0  0  0  0  0  0  0  0  0  0
   26.3756   26.1610   47.9159 H   0  0  0  0  0  0  0  0  0  0  0  0
   27.7640   26.6090   48.9482 H   0  0  0  0  0  0  0  0  0  0  0  0
   25.3751   28.4013   48.3375 H   0  0  0  0  0  0  0  0  0  0  0  0
   25.5925   27.4142   49.8378 H   0  0  0  0  0  0  0  0  0  0  0  0
   26.2806   29.9593   49.7403 H   0  0  0  0  0  0  0  0  0  0  0  0
   27.2609   28.7087   50.6335 H   0  0  0  0  0  0  0  0  0  0  0  0
   28.9934   28.7726   49.1114 H   0  0  0  0  0  0  0  0  0  0  0  0
   28.4637   30.4635   49.0204 H   0  0  0  0  0  0  0  0  0  0  0  0
   37.0694   31.0884   47.0204 H   0  0  0  0  0  0  0  0  0  0  0  0
   38.4048   30.9020   49.1373 H   0  0  0  0  0  0  0  0  0  0  0  0
   35.3233   28.4443   50.8010 H   0  0  0  0  0  0  0  0  0  0  0  0
  1  2  1  0
  1 20  1  0
  3  2  1  0
  4  5  1  0
  4  3  1  0
  5  6  1  0
  6  1  1  0
  8  7  1  0
  9  3  1  0
  9  8  2  0
 10  9  1  0
 11 10  2  0
 11 12  1  0
 12 13  2  0
 13  8  1  0
 13 14  1  0
 14 19  1  0
 15 14  1  0
 15 16  1  0
 16 17  1  0
 17 18  1  0
 19 18  1  0
 20 21  2  0
 20 25  1  0
 21 22  1  0
 22 23  2  0
 24 23  1  0
 25 24  2  0
  2 26  1  0
  2 27  1  0
  3 28  1  1
  4 29  1  0
  5 30  1  0
  5 31  1  0
  6 32  1  0
  6 33  1  0
 10 34  1  0
 11 35  1  0
 12 36  1  0
 14 37  1  0
 15 38  1  0
 15 39  1  0
 16 40  1  0
 16 41  1  0
 17 42  1  0
 17 43  1  0
 18 44  1  0
 18 45  1  0
 19 46  1  0
 19 47  1  0
 21 48  1  0
 22 49  1  0
 24 50  1  0
M  ISO  8  26  13  27  13  28  13  29   5  30  13  31  13  32  13  33  13
M  ISO  8  34  14  35  14  36  14  37  13  38  13  39  13  40  13  41  13
M  ISO  8  42  13  43  13  44  13  45  13  46  13  47  13  48  14  49  14
M  ISO  1  50  14
M  END
>  <minimizedAffinity>  (1) 
-5.64473867

>  <minimizedRMSD>  (1) 
8.92622471

$$$$
