
     RDKit          3D

 53 57  0  0  1  0  0  0  0  0999 V2000
   36.2390   30.2120   46.9230 C   0  0  0  0  0  0  0  0  0  0  0  0
   37.0740   30.7840   47.8810 C   0  0  0  0  0  0  0  0  0  0  0  0
   38.0670   31.6990   47.5280 C   0  0  0  0  0  0  0  0  0  0  0  0
   38.1670   31.9990   46.1760 C   0  0  0  0  0  0  0  0  0  0  0  0
   39.0560   32.8570   45.5880 N   0  0  0  0  0  0  0  0  0  0  0  0
   38.7850   32.8260   44.2710 C   0  0  0  0  0  0  0  0  0  0  0  0
   37.7890   32.0050   44.0220 N   0  0  0  0  0  0  0  0  0  0  0  0
   37.3640   31.4580   45.1930 C   0  0  0  0  0  0  0  0  0  0  0  0
   36.3780   30.5440   45.5800 C   0  0  0  0  0  0  0  0  0  0  0  0
   37.4390   30.1340   51.5490 C   0  0  0  0  0  0  0  0  0  0  0  0
   37.7690   30.5970   50.2930 C   0  0  0  0  0  0  0  0  0  0  0  0
   36.8670   30.3670   49.2600 C   0  0  0  0  0  0  0  0  0  0  0  0
   35.7190   29.7010   49.5590 N   0  0  0  0  0  0  0  0  0  0  0  0
   35.4130   29.2560   50.7910 C   0  0  0  0  0  0  0  0  0  0  0  0
   36.2790   29.4790   51.7740 N   0  0  0  0  0  0  0  0  0  0  0  0
   39.5160   33.6010   43.3560 O   0  0  0  0  0  0  0  0  0  0  0  0
   39.6780   31.8730   41.8710 N   0  0  0  0  0  0  0  0  0  0  0  0
   39.3090   33.3010   41.9800 C   0  0  1  0  0  0  0  0  0  0  0  0
   37.9130   33.4510   41.5870 C   0  0  0  0  0  0  0  0  0  0  0  0
   37.7930   33.1190   40.2250 O   0  0  0  0  0  0  0  0  0  0  0  0
   38.2510   31.8800   39.8850 C   0  0  0  0  0  0  0  0  0  0  0  0
   39.6100   31.5700   40.4590 C   0  0  2  0  0  0  0  0  0  0  0  0
   39.8700   30.0830   40.3050 C   0  0  0  0  0  0  0  0  0  0  0  0
   41.0740   29.6320   41.0870 C   0  0  0  0  0  0  0  0  0  0  0  0
   40.7920   28.4900   42.0320 C   0  0  0  0  0  0  0  0  0  0  0  0
   40.1610   27.3060   41.3390 C   0  0  0  0  0  0  0  0  0  0  0  0
   39.0230   27.8050   40.4800 C   0  0  0  0  0  0  0  0  0  0  0  0
   38.7040   29.2570   40.7750 C   0  0  0  0  0  0  0  0  0  0  0  0
   35.4652   29.4935   47.2312 H   0  0  0  0  0  0  0  0  0  0  0  0
   38.7312   32.1555   48.2766 H   0  0  0  0  0  0  0  0  0  0  0  0
   39.7843   33.4132   46.0582 H   0  0  0  0  0  0  0  0  0  0  0  0
   35.7169   30.0909   44.8266 H   0  0  0  0  0  0  0  0  0  0  0  0
   38.1343   30.3013   52.3848 H   0  0  0  0  0  0  0  0  0  0  0  0
   38.7142   31.1305   50.1141 H   0  0  0  0  0  0  0  0  0  0  0  0
   34.4704   28.7214   50.9799 H   0  0  0  0  0  0  0  0  0  0  0  0
   40.6317   31.7182   42.2280 H   0  0  0  0  0  0  0  0  0  0  0  0
   39.8911   33.9756   41.3349 H   0  0  0  0  0  0  0  0  0  0  0  0
   37.2840   32.7790   42.1893 H   0  0  0  0  0  0  0  0  0  0  0  0
   37.5851   34.4880   41.7518 H   0  0  0  0  0  0  0  0  0  0  0  0
   37.5363   31.1298   40.2543 H   0  0  0  0  0  0  0  0  0  0  0  0
   38.3463   31.8565   38.7894 H   0  0  0  0  0  0  0  0  0  0  0  0
   40.3504   32.1821   39.9231 H   0  0  0  0  0  0  0  0  0  0  0  0
   40.0388   29.9318   39.2286 H   0  0  0  0  0  0  0  0  0  0  0  0
   41.8493   29.3107   40.3759 H   0  0  0  0  0  0  0  0  0  0  0  0
   41.3954   30.4855   41.7019 H   0  0  0  0  0  0  0  0  0  0  0  0
   41.7397   28.1676   42.4879 H   0  0  0  0  0  0  0  0  0  0  0  0
   40.0804   28.8515   42.7889 H   0  0  0  0  0  0  0  0  0  0  0  0
   40.9090   26.8029   40.7086 H   0  0  0  0  0  0  0  0  0  0  0  0
   39.7851   26.5892   42.0839 H   0  0  0  0  0  0  0  0  0  0  0  0
   38.1298   27.1946   40.6791 H   0  0  0  0  0  0  0  0  0  0  0  0
   39.3237   27.7237   39.4250 H   0  0  0  0  0  0  0  0  0  0  0  0
   38.5569   29.3966   41.8561 H   0  0  0  0  0  0  0  0  0  0  0  0
   37.7814   29.5624   40.2597 H   0  0  0  0  0  0  0  0  0  0  0  0
  1  2  2  0
  2 12  1  0
  3  2  1  0
  4  3  2  0
  5  4  1  0
  6  5  1  0
  7  6  2  0
  7  8  1  0
  8  9  2  0
  8  4  1  0
  9  1  1  0
 10 15  2  0
 11 10  1  0
 12 13  1  0
 12 11  2  0
 13 14  2  0
 14 15  1  0
 16  6  1  0
 17 18  1  0
 18 16  1  0
 19 18  1  0
 20 19  1  0
 21 20  1  0
 21 22  1  0
 22 17  1  0
 23 22  1  0
 23 28  1  0
 23 24  1  0
 24 25  1  0
 26 25  1  0
 27 28  1  0
 27 26  1  0
  1 29  1  0
  3 30  1  0
  5 31  1  0
  9 32  1  0
 10 33  1  0
 11 34  1  0
 14 35  1  0
 17 36  1  0
 18 37  1  6
 19 38  1  0
 19 39  1  0
 21 40  1  0
 21 41  1  0
 22 42  1  6
 23 43  1  0
 24 44  1  0
 24 45  1  0
 25 46  1  0
 25 47  1  0
 26 48  1  0
 26 49  1  0
 27 50  1  0
 27 51  1  0
 28 52  1  0
 28 53  1  0
M  ISO  8  29  14  30  14  31   9  32  14  33  14  34  14  35  14  36   5
M  ISO  8  37  13  38  13  39  13  40  13  41  13  42  13  43  13  44  13
M  ISO  8  45  13  46  13  47  13  48  13  49  13  50  13  51  13  52  13
M  ISO  1  53  13
M  END
>  <minimizedAffinity>  (1) 
-6.20770597

>  <minimizedRMSD>  (1) 
0.307699353

$$$$
