
     RDKit          3D

 53 56  0  0  1  0  0  0  0  0999 V2000
   35.2860   30.1530   49.6320 C   0  0  2  0  0  0  0  0  0  0  0  0
   36.1810   31.0620   48.8680 C   0  0  0  0  0  0  0  0  0  0  0  0
   37.6450   30.6240   48.8970 C   0  0  2  0  0  0  0  0  0  0  0  0
   38.1190   30.6780   50.3250 C   0  0  0  0  0  0  0  0  0  0  0  0
   37.1830   29.9360   51.2650 C   0  0  0  0  0  0  0  0  0  0  0  0
   36.0900   29.2200   50.5150 C   0  0  0  0  0  0  0  0  0  0  0  0
   38.4740   31.3550   47.9330 C   0  0  2  0  0  0  0  0  0  0  0  0
   38.9510   32.7240   48.3530 C   0  0  0  0  0  0  0  0  0  0  0  0
   39.5320   33.1600   46.9940 C   0  0  0  0  0  0  0  0  0  0  0  0
   38.6180   32.7180   46.0660 O   0  0  0  0  0  0  0  0  0  0  0  0
   37.8700   31.6770   46.6160 C   0  0  1  0  0  0  0  0  0  0  0  0
   37.8590   30.5750   45.6020 C   0  0  0  0  0  0  0  0  0  0  0  0
   36.6970   30.8110   44.6740 C   0  0  0  0  0  0  0  0  0  0  0  0
   36.7790   30.0960   43.3680 C   0  0  0  0  0  0  0  0  0  0  0  0
   37.6750   28.8930   43.3680 C   0  0  0  0  0  0  0  0  0  0  0  0
   39.0020   29.1230   44.0260 C   0  0  0  0  0  0  0  0  0  0  0  0
   39.0900   30.4230   44.7770 C   0  0  0  0  0  0  0  0  0  0  0  0
   34.4410   29.3110   48.7580 C   0  0  0  0  0  0  0  0  0  0  0  0
   34.5210   29.5840   47.3920 C   0  0  0  0  0  0  0  0  0  0  0  0
   33.7700   28.8190   46.5250 C   0  0  0  0  0  0  0  0  0  0  0  0
   32.9670   27.8100   47.0460 N   0  0  0  0  0  0  0  0  0  0  0  0
   32.9190   27.5790   48.3880 C   0  0  0  0  0  0  0  0  0  0  0  0
   33.6500   28.3270   49.2040 N   0  0  0  0  0  0  0  0  0  0  0  0
   34.6414   30.8122   50.2320 H   0  0  0  0  0  0  0  0  0  0  0  0
   36.1085   32.0705   49.3012 H   0  0  0  0  0  0  0  0  0  0  0  0
   35.8525   31.0406   47.8184 H   0  0  0  0  0  0  0  0  0  0  0  0
   37.7435   29.5841   48.5522 H   0  0  0  0  0  0  0  0  0  0  0  0
   39.1178   30.2211   50.3850 H   0  0  0  0  0  0  0  0  0  0  0  0
   38.1444   31.7333   50.6345 H   0  0  0  0  0  0  0  0  0  0  0  0
   37.7644   29.1983   51.8375 H   0  0  0  0  0  0  0  0  0  0  0  0
   36.7135   30.6733   51.9328 H   0  0  0  0  0  0  0  0  0  0  0  0
   35.4115   28.7508   51.2427 H   0  0  0  0  0  0  0  0  0  0  0  0
   36.5656   28.4710   49.8648 H   0  0  0  0  0  0  0  0  0  0  0  0
   39.2691   30.5971   47.8745 H   0  0  0  0  0  0  0  0  0  0  0  0
   38.1257   33.3721   48.6829 H   0  0  0  0  0  0  0  0  0  0  0  0
   39.6385   32.7588   49.2110 H   0  0  0  0  0  0  0  0  0  0  0  0
   39.6330   34.2544   46.9484 H   0  0  0  0  0  0  0  0  0  0  0  0
   40.5363   32.7469   46.8187 H   0  0  0  0  0  0  0  0  0  0  0  0
   36.8151   31.9098   46.8235 H   0  0  0  0  0  0  0  0  0  0  0  0
   37.7860   29.6437   46.1828 H   0  0  0  0  0  0  0  0  0  0  0  0
   35.7798   30.4836   45.1854 H   0  0  0  0  0  0  0  0  0  0  0  0
   36.7052   31.8853   44.4377 H   0  0  0  0  0  0  0  0  0  0  0  0
   37.1541   30.8028   42.6132 H   0  0  0  0  0  0  0  0  0  0  0  0
   35.7652   29.7287   43.1503 H   0  0  0  0  0  0  0  0  0  0  0  0
   37.1613   28.0787   43.9000 H   0  0  0  0  0  0  0  0  0  0  0  0
   37.8793   28.6475   42.3154 H   0  0  0  0  0  0  0  0  0  0  0  0
   39.1855   28.3008   44.7333 H   0  0  0  0  0  0  0  0  0  0  0  0
   39.7541   29.1646   43.2244 H   0  0  0  0  0  0  0  0  0  0  0  0
   39.9756   30.4157   45.4294 H   0  0  0  0  0  0  0  0  0  0  0  0
   39.1770   31.2618   44.0707 H   0  0  0  0  0  0  0  0  0  0  0  0
   35.1678   30.3903   47.0158 H   0  0  0  0  0  0  0  0  0  0  0  0
   33.8053   29.0033   45.4411 H   0  0  0  0  0  0  0  0  0  0  0  0
   32.2799   26.7796   48.7911 H   0  0  0  0  0  0  0  0  0  0  0  0
  1  6  1  0
  2  3  1  0
  2  1  1  0
  3  4  1  0
  4  5  1  0
  6  5  1  0
  7  8  1  0
  7  3  1  0
  9  8  1  0
 10 11  1  0
 10  9  1  0
 11  7  1  0
 12 11  1  0
 13 12  1  0
 14 15  1  0
 14 13  1  0
 15 16  1  0
 16 17  1  0
 17 12  1  0
 18 23  1  0
 18  1  1  0
 19 18  2  0
 20 21  2  0
 20 19  1  0
 21 22  1  0
 22 23  2  0
  1 24  1  1
  2 25  1  0
  2 26  1  0
  3 27  1  6
  4 28  1  0
  4 29  1  0
  5 30  1  0
  5 31  1  0
  6 32  1  0
  6 33  1  0
  7 34  1  6
  8 35  1  0
  8 36  1  0
  9 37  1  0
  9 38  1  0
 11 39  1  1
 12 40  1  0
 13 41  1  0
 13 42  1  0
 14 43  1  0
 14 44  1  0
 15 45  1  0
 15 46  1  0
 16 47  1  0
 16 48  1  0
 17 49  1  0
 17 50  1  0
 19 51  1  0
 20 52  1  0
 22 53  1  0
M  ISO  8  24  13  25  13  26  13  27  13  28  13  29  13  30  13  31  13
M  ISO  8  32  13  33  13  34  13  35  13  36  13  37  13  38  13  39  13
M  ISO  8  40  13  41  13  42  13  43  13  44  13  45  13  46  13  47  13
M  ISO  6  48  13  49  13  50  13  51  14  52  14  53  14
M  END
>  <minimizedAffinity>  (1) 
-6.93920231

>  <minimizedRMSD>  (1) 
1.19616055

$$$$
