
     RDKit          3D

 46 50  0  0  0  0  0  0  0  0999 V2000
   34.7020   28.6410   49.2350 C   0  0  0  0  0  0  0  0  0  0  0  0
   34.7270   27.6440   48.2600 C   0  0  0  0  0  0  0  0  0  0  0  0
   33.4400   27.2130   48.0550 C   0  0  0  0  0  0  0  0  0  0  0  0
   32.6440   27.9520   48.9080 N   0  0  0  0  0  0  0  0  0  0  0  0
   33.4340   28.7800   49.5830 N   0  0  0  0  0  0  0  0  0  0  0  0
   30.5000   27.1630   48.0040 N   0  0  0  0  0  0  0  0  0  0  0  0
   31.2440   27.7710   48.9670 C   0  0  0  0  0  0  0  0  0  0  0  0
   30.3730   28.1380   49.9340 N   0  0  0  0  0  0  0  0  0  0  0  0
   29.1140   27.7800   49.6070 C   0  0  0  0  0  0  0  0  0  0  0  0
   27.8660   27.8730   50.1540 C   0  0  0  0  0  0  0  0  0  0  0  0
   26.8110   27.3730   49.4920 N   0  0  0  0  0  0  0  0  0  0  0  0
   26.9380   26.7760   48.2930 C   0  0  0  0  0  0  0  0  0  0  0  0
   28.1450   26.6640   47.7240 N   0  0  0  0  0  0  0  0  0  0  0  0
   29.2030   27.1590   48.3760 C   0  0  0  0  0  0  0  0  0  0  0  0
   37.1840   30.0440   51.5430 C   0  0  0  0  0  0  0  0  0  0  0  0
   38.0850   30.6920   50.6300 C   0  0  0  0  0  0  0  0  0  0  0  0
   37.8170   30.6270   49.2740 C   0  0  0  0  0  0  0  0  0  0  0  0
   36.7130   29.9560   48.8640 N   0  0  0  0  0  0  0  0  0  0  0  0
   35.8720   29.3490   49.7300 C   0  0  0  0  0  0  0  0  0  0  0  0
   36.1150   29.3990   51.0500 N   0  0  0  0  0  0  0  0  0  0  0  0
   38.7410   31.2930   48.3300 C   0  0  0  0  0  0  0  0  0  0  0  0
   38.5980   30.8680   46.9100 C   0  0  0  0  0  0  0  0  0  0  0  0
   38.3100   32.1170   46.0720 C   0  0  0  0  0  0  0  0  0  0  0  0
   39.4610   33.0710   46.2460 C   0  0  0  0  0  0  0  0  0  0  0  0
   39.6460   33.4470   47.6850 C   0  0  0  0  0  0  0  0  0  0  0  0
   38.5730   32.7860   48.5160 C   0  0  0  0  0  0  0  0  0  0  0  0
   27.7620   28.5110   51.4220 N   0  0  0  0  0  0  0  0  0  0  0  0
   35.6231   27.2681   47.7445 H   0  0  0  0  0  0  0  0  0  0  0  0
   33.1088   26.4346   47.3519 H   0  0  0  0  0  0  0  0  0  0  0  0
   30.8692   26.7674   47.1276 H   0  0  0  0  0  0  0  0  0  0  0  0
   26.0496   26.3796   47.7797 H   0  0  0  0  0  0  0  0  0  0  0  0
   37.3672   30.0760   52.6272 H   0  0  0  0  0  0  0  0  0  0  0  0
   38.9701   31.2290   51.0017 H   0  0  0  0  0  0  0  0  0  0  0  0
   39.7692   30.9831   48.5681 H   0  0  0  0  0  0  0  0  0  0  0  0
   39.5290   30.3937   46.5662 H   0  0  0  0  0  0  0  0  0  0  0  0
   37.7790   30.1408   46.8081 H   0  0  0  0  0  0  0  0  0  0  0  0
   37.3782   32.5900   46.4155 H   0  0  0  0  0  0  0  0  0  0  0  0
   38.1951   31.8471   45.0119 H   0  0  0  0  0  0  0  0  0  0  0  0
   40.3812   32.5923   45.8799 H   0  0  0  0  0  0  0  0  0  0  0  0
   39.2428   33.9851   45.6743 H   0  0  0  0  0  0  0  0  0  0  0  0
   40.6356   33.1109   48.0282 H   0  0  0  0  0  0  0  0  0  0  0  0
   39.5742   34.5394   47.7923 H   0  0  0  0  0  0  0  0  0  0  0  0
   37.5773   33.1019   48.1713 H   0  0  0  0  0  0  0  0  0  0  0  0
   38.6626   33.0665   49.5758 H   0  0  0  0  0  0  0  0  0  0  0  0
   26.8427   28.6062   51.8767 H   0  0  0  0  0  0  0  0  0  0  0  0
   28.6060   28.8775   51.8849 H   0  0  0  0  0  0  0  0  0  0  0  0
  1  5  2  0
  1 19  1  0
  2  1  1  0
  3  2  2  0
  3  4  1  0
  4  7  1  0
  4  5  1  0
  6 14  1  0
  6  7  1  0
  7  8  2  0
  9  8  1  0
  9 10  2  0
 10 27  1  0
 11 10  1  0
 12 11  2  0
 13 12  1  0
 13 14  2  0
 14  9  1  0
 16 15  2  0
 17 16  1  0
 18 17  2  0
 18 19  1  0
 19 20  2  0
 20 15  1  0
 21 26  1  0
 21 17  1  0
 22 21  1  0
 23 24  1  0
 23 22  1  0
 24 25  1  0
 25 26  1  0
  2 28  1  0
  3 29  1  0
  6 30  1  0
 12 31  1  0
 15 32  1  0
 16 33  1  0
 21 34  1  0
 22 35  1  0
 22 36  1  0
 23 37  1  0
 23 38  1  0
 24 39  1  0
 24 40  1  0
 25 41  1  0
 25 42  1  0
 26 43  1  0
 26 44  1  0
 27 45  1  0
 27 46  1  0
M  ISO  8  28  14  29  14  30   9  31  14  32  14  33  14  34  13  35  13
M  ISO  8  36  13  37  13  38  13  39  13  40  13  41  13  42  13  43  13
M  ISO  1  44  13
M  END
>  <minimizedAffinity>  (1) 
-8.02685547

>  <minimizedRMSD>  (1) 
1.58023393

$$$$
