
     RDKit          3D

 39 42  0  0  0  0  0  0  0  0999 V2000
   37.9230   31.4510   47.8590 C   0  0  0  0  0  0  0  0  0  0  0  0
   37.1250   31.0730   46.7920 C   0  0  0  0  0  0  0  0  0  0  0  0
   37.4960   31.5590   45.5630 C   0  0  0  0  0  0  0  0  0  0  0  0
   38.6180   32.3800   45.4430 C   0  0  0  0  0  0  0  0  0  0  0  0
   39.1940   32.9810   44.3810 N   0  0  0  0  0  0  0  0  0  0  0  0
   40.2670   33.6730   44.7870 C   0  0  0  0  0  0  0  0  0  0  0  0
   40.3920   33.5190   46.1390 N   0  0  0  0  0  0  0  0  0  0  0  0
   39.3810   32.7270   46.5390 C   0  0  0  0  0  0  0  0  0  0  0  0
   39.0320   32.2590   47.7610 C   0  0  0  0  0  0  0  0  0  0  0  0
   35.9150   29.7120   48.3630 C   0  0  0  0  0  0  0  0  0  0  0  0
   35.9900   30.2180   47.0490 C   0  0  0  0  0  0  0  0  0  0  0  0
   34.9870   29.8430   46.1730 C   0  0  0  0  0  0  0  0  0  0  0  0
   34.0010   29.0250   46.6140 N   0  0  0  0  0  0  0  0  0  0  0  0
   33.9520   28.5540   47.8780 C   0  0  0  0  0  0  0  0  0  0  0  0
   34.9110   28.9050   48.7370 N   0  0  0  0  0  0  0  0  0  0  0  0
   32.8500   27.6590   48.3140 C   0  0  0  0  0  0  0  0  0  0  0  0
   31.4990   28.1320   47.8210 C   0  0  0  0  0  0  0  0  0  0  0  0
   30.4480   27.2930   48.5140 C   0  0  0  0  0  0  0  0  0  0  0  0
   30.7780   25.8120   48.4290 C   0  0  0  0  0  0  0  0  0  0  0  0
   31.8020   25.6020   47.3310 C   0  0  0  0  0  0  0  0  0  0  0  0
   33.1000   26.2920   47.6840 C   0  0  0  0  0  0  0  0  0  0  0  0
   37.6502   31.0781   48.8572 H   0  0  0  0  0  0  0  0  0  0  0  0
   36.9073   31.3006   44.6704 H   0  0  0  0  0  0  0  0  0  0  0  0
   38.8604   32.9176   43.4086 H   0  0  0  0  0  0  0  0  0  0  0  0
   40.9336   34.2643   44.1420 H   0  0  0  0  0  0  0  0  0  0  0  0
   39.6208   32.5186   48.6532 H   0  0  0  0  0  0  0  0  0  0  0  0
   36.6920   29.9833   49.0928 H   0  0  0  0  0  0  0  0  0  0  0  0
   34.9900   30.2036   45.1338 H   0  0  0  0  0  0  0  0  0  0  0  0
   32.8356   27.6386   49.4137 H   0  0  0  0  0  0  0  0  0  0  0  0
   31.3578   29.1939   48.0708 H   0  0  0  0  0  0  0  0  0  0  0  0
   31.4241   28.0257   46.7287 H   0  0  0  0  0  0  0  0  0  0  0  0
   30.3949   27.5879   49.5724 H   0  0  0  0  0  0  0  0  0  0  0  0
   29.4833   27.4626   48.0134 H   0  0  0  0  0  0  0  0  0  0  0  0
   31.1903   25.4694   49.3895 H   0  0  0  0  0  0  0  0  0  0  0  0
   29.8666   25.2382   48.2049 H   0  0  0  0  0  0  0  0  0  0  0  0
   31.4145   26.0180   46.3893 H   0  0  0  0  0  0  0  0  0  0  0  0
   31.9894   24.5239   47.2184 H   0  0  0  0  0  0  0  0  0  0  0  0
   33.6560   25.6655   48.3970 H   0  0  0  0  0  0  0  0  0  0  0  0
   33.6777   26.4373   46.7592 H   0  0  0  0  0  0  0  0  0  0  0  0
  2 11  1  0
  2  1  2  0
  3  2  1  0
  4  3  2  0
  4  8  1  0
  5  6  1  0
  5  4  1  0
  6  7  2  0
  7  8  1  0
  8  9  2  0
  9  1  1  0
 10 15  2  0
 11 10  1  0
 12 13  1  0
 12 11  2  0
 13 14  2  0
 14 16  1  0
 14 15  1  0
 17 16  1  0
 17 18  1  0
 19 18  1  0
 20 21  1  0
 20 19  1  0
 21 16  1  0
  1 22  1  0
  3 23  1  0
  5 24  1  0
  6 25  1  0
  9 26  1  0
 10 27  1  0
 12 28  1  0
 16 29  1  0
 17 30  1  0
 17 31  1  0
 18 32  1  0
 18 33  1  0
 19 34  1  0
 19 35  1  0
 20 36  1  0
 20 37  1  0
 21 38  1  0
 21 39  1  0
M  ISO  8  22  14  23  14  24   9  25  14  26  14  27  14  28  14  29  13
M  ISO  8  30  13  31  13  32  13  33  13  34  13  35  13  36  13  37  13
M  ISO  2  38  13  39  13
M  END
>  <minimizedAffinity>  (1) 
-5.21226645

>  <minimizedRMSD>  (1) 
1.42973423

$$$$
