
     RDKit          3D

 28 29  0  0  0  0  0  0  0  0999 V2000
   37.4380   30.2900   51.2290 C   0  0  0  0  0  0  0  0  0  0  0  0
   38.3680   30.8630   50.3430 C   0  0  0  0  0  0  0  0  0  0  0  0
   37.9710   31.0680   49.0250 C   0  0  0  0  0  0  0  0  0  0  0  0
   36.7170   30.7070   48.6660 N   0  0  0  0  0  0  0  0  0  0  0  0
   35.8470   30.1580   49.5460 C   0  0  0  0  0  0  0  0  0  0  0  0
   36.2100   29.9540   50.8110 N   0  0  0  0  0  0  0  0  0  0  0  0
   38.9220   31.6440   48.1620 N   0  0  0  0  0  0  0  0  0  0  0  0
   34.4610   29.7710   49.0990 C   0  0  0  0  0  0  0  0  0  0  0  0
   34.1970   30.2590   47.7330 C   0  0  0  0  0  0  0  0  0  0  0  0
   33.7150   29.2730   46.7260 C   0  0  0  0  0  0  0  0  0  0  0  0
   34.1130   27.8540   47.0150 C   0  0  0  0  0  0  0  0  0  0  0  0
   33.5000   27.5400   48.3840 C   0  0  0  0  0  0  0  0  0  0  0  0
   34.2730   28.3270   49.3820 C   0  0  0  0  0  0  0  0  0  0  0  0
   37.7220   30.1157   52.2773 H   0  0  0  0  0  0  0  0  0  0  0  0
   39.3773   31.1404   50.6812 H   0  0  0  0  0  0  0  0  0  0  0  0
   38.6831   31.8187   47.1754 H   0  0  0  0  0  0  0  0  0  0  0  0
   39.8569   31.8908   48.5170 H   0  0  0  0  0  0  0  0  0  0  0  0
   33.6642   30.2714   49.6688 H   0  0  0  0  0  0  0  0  0  0  0  0
   33.4364   31.0501   47.8082 H   0  0  0  0  0  0  0  0  0  0  0  0
   35.1798   30.5808   47.3582 H   0  0  0  0  0  0  0  0  0  0  0  0
   34.1253   29.5534   45.7447 H   0  0  0  0  0  0  0  0  0  0  0  0
   32.6158   29.3050   46.7530 H   0  0  0  0  0  0  0  0  0  0  0  0
   33.7117   27.1761   46.2473 H   0  0  0  0  0  0  0  0  0  0  0  0
   35.2051   27.7228   47.0119 H   0  0  0  0  0  0  0  0  0  0  0  0
   32.4410   27.8367   48.4035 H   0  0  0  0  0  0  0  0  0  0  0  0
   33.5463   26.4631   48.6036 H   0  0  0  0  0  0  0  0  0  0  0  0
   35.2711   27.8717   49.4631 H   0  0  0  0  0  0  0  0  0  0  0  0
   33.6720   28.2914   50.3026 H   0  0  0  0  0  0  0  0  0  0  0  0
  2  1  2  0
  3  2  1  0
  4  3  2  0
  4  5  1  0
  5  6  2  0
  6  1  1  0
  7  3  1  0
  8 13  1  0
  8  5  1  0
  9  8  1  0
 10 11  1  0
 10  9  1  0
 11 12  1  0
 12 13  1  0
  1 14  1  0
  2 15  1  0
  7 16  1  0
  7 17  1  0
  8 18  1  0
  9 19  1  0
  9 20  1  0
 10 21  1  0
 10 22  1  0
 11 23  1  0
 11 24  1  0
 12 25  1  0
 12 26  1  0
 13 27  1  0
 13 28  1  0
M  ISO  8  14  14  15  14  18  13  19  13  20  13  21  13  22  13  23  13
M  ISO  5  24  13  25  13  26  13  27  13  28  13
M  END
>  <minimizedAffinity>  (1) 
-4.93939638

>  <minimizedRMSD>  (1) 
1.52950668

$$$$
