
     RDKit          3D

 51 54  0  0  0  0  0  0  0  0999 V2000
   35.0470   28.3590   49.0600 O   0  0  0  0  0  0  0  0  0  0  0  0
   37.2530   30.1400   51.2920 C   0  0  0  0  0  0  0  0  0  0  0  0
   38.0290   30.8610   50.3520 C   0  0  0  0  0  0  0  0  0  0  0  0
   37.7410   30.6850   49.0090 C   0  0  0  0  0  0  0  0  0  0  0  0
   36.7250   29.8240   48.7100 N   0  0  0  0  0  0  0  0  0  0  0  0
   36.0050   29.1560   49.6150 C   0  0  0  0  0  0  0  0  0  0  0  0
   36.2830   29.3240   50.9230 N   0  0  0  0  0  0  0  0  0  0  0  0
   38.9330   33.3210   48.9470 F   0  0  0  0  0  0  0  0  0  0  0  0
   38.9870   32.5560   47.8540 C   0  0  0  0  0  0  0  0  0  0  0  0
   38.4230   31.3310   47.9130 C   0  0  0  0  0  0  0  0  0  0  0  0
   38.5320   30.6090   46.7190 C   0  0  0  0  0  0  0  0  0  0  0  0
   39.1590   31.1180   45.6060 C   0  0  0  0  0  0  0  0  0  0  0  0
   39.7130   32.3710   45.6090 C   0  0  0  0  0  0  0  0  0  0  0  0
   39.6180   33.0930   46.7610 C   0  0  0  0  0  0  0  0  0  0  0  0
   34.2830   28.8630   47.9730 C   0  0  0  0  0  0  0  0  0  0  0  0
   33.3870   27.7960   47.4150 C   0  0  0  0  0  0  0  0  0  0  0  0
   31.9590   28.0000   47.7810 C   0  0  0  0  0  0  0  0  0  0  0  0
   31.5570   27.5940   49.0540 C   0  0  0  0  0  0  0  0  0  0  0  0
   30.2650   27.7380   49.4900 C   0  0  0  0  0  0  0  0  0  0  0  0
   29.3700   28.2750   48.6860 N   0  0  0  0  0  0  0  0  0  0  0  0
   29.7660   28.6740   47.4340 C   0  0  0  0  0  0  0  0  0  0  0  0
   31.0270   28.5470   46.9760 N   0  0  0  0  0  0  0  0  0  0  0  0
   28.7810   29.2850   46.5010 C   0  0  0  0  0  0  0  0  0  0  0  0
   27.4300   29.2270   47.1800 C   0  0  0  0  0  0  0  0  0  0  0  0
   26.7080   27.9970   46.6770 C   0  0  0  0  0  0  0  0  0  0  0  0
   26.2980   28.2970   45.2490 C   0  0  0  0  0  0  0  0  0  0  0  0
   27.4690   28.7690   44.4490 C   0  0  0  0  0  0  0  0  0  0  0  0
   28.7960   28.6160   45.1500 C   0  0  0  0  0  0  0  0  0  0  0  0
   37.4653   30.2639   52.3642 H   0  0  0  0  0  0  0  0  0  0  0  0
   38.8329   31.5376   50.6775 H   0  0  0  0  0  0  0  0  0  0  0  0
   38.1007   29.5983   46.6691 H   0  0  0  0  0  0  0  0  0  0  0  0
   39.2170   30.5060   44.6938 H   0  0  0  0  0  0  0  0  0  0  0  0
   40.2140   32.7776   44.7181 H   0  0  0  0  0  0  0  0  0  0  0  0
   40.0466   34.1047   46.8141 H   0  0  0  0  0  0  0  0  0  0  0  0
   33.6675   29.7045   48.3237 H   0  0  0  0  0  0  0  0  0  0  0  0
   34.9706   29.1969   47.1820 H   0  0  0  0  0  0  0  0  0  0  0  0
   33.7149   26.8210   47.8047 H   0  0  0  0  0  0  0  0  0  0  0  0
   33.4597   27.8393   46.3183 H   0  0  0  0  0  0  0  0  0  0  0  0
   32.3000   27.1442   49.7290 H   0  0  0  0  0  0  0  0  0  0  0  0
   29.9789   27.4088   50.4999 H   0  0  0  0  0  0  0  0  0  0  0  0
   29.0403   30.3330   46.2901 H   0  0  0  0  0  0  0  0  0  0  0  0
   27.5623   29.1628   48.2701 H   0  0  0  0  0  0  0  0  0  0  0  0
   26.8481   30.1322   46.9522 H   0  0  0  0  0  0  0  0  0  0  0  0
   27.3772   27.1245   46.7056 H   0  0  0  0  0  0  0  0  0  0  0  0
   25.8340   27.7633   47.3026 H   0  0  0  0  0  0  0  0  0  0  0  0
   25.8928   27.3829   44.7905 H   0  0  0  0  0  0  0  0  0  0  0  0
   25.5357   29.0899   45.2600 H   0  0  0  0  0  0  0  0  0  0  0  0
   27.3219   29.8341   44.2167 H   0  0  0  0  0  0  0  0  0  0  0  0
   27.5119   28.1395   43.5480 H   0  0  0  0  0  0  0  0  0  0  0  0
   29.0101   27.5452   45.2825 H   0  0  0  0  0  0  0  0  0  0  0  0
   29.5718   29.0941   44.5339 H   0  0  0  0  0  0  0  0  0  0  0  0
  1  6  1  0
  3  2  2  0
  4  3  1  0
  5  4  2  0
  5  6  1  0
  6  7  2  0
  7  2  1  0
  9 10  2  0
  9  8  1  0
 10  4  1  0
 11 10  1  0
 12 13  1  0
 12 11  2  0
 13 14  2  0
 14  9  1  0
 15  1  1  0
 16 17  1  0
 16 15  1  0
 17 18  2  0
 18 19  1  0
 20 19  2  0
 21 20  1  0
 22 21  2  0
 22 17  1  0
 23 24  1  0
 23 21  1  0
 25 24  1  0
 26 25  1  0
 27 28  1  0
 27 26  1  0
 28 23  1  0
  2 29  1  0
  3 30  1  0
 11 31  1  0
 12 32  1  0
 13 33  1  0
 14 34  1  0
 15 35  1  0
 15 36  1  0
 16 37  1  0
 16 38  1  0
 18 39  1  0
 19 40  1  0
 23 41  1  0
 24 42  1  0
 24 43  1  0
 25 44  1  0
 25 45  1  0
 26 46  1  0
 26 47  1  0
 27 48  1  0
 27 49  1  0
 28 50  1  0
 28 51  1  0
M  ISO  8  29  14  30  14  31  14  32  14  33  14  34  14  35   8  36   8
M  ISO  8  37   8  38   8  39  14  40  14  41  13  42  13  43  13  44  13
M  ISO  7  45  13  46  13  47  13  48  13  49  13  50  13  51  13
M  END
>  <minimizedAffinity>  (1) 
-6.95394278

>  <minimizedRMSD>  (1) 
0.733730018

$$$$
