
     RDKit          3D

 19 20  0  0  0  0  0  0  0  0999 V2000
   37.5250   31.4810   49.7650 C   0  0  0  0  0  0  0  0  0  0  0  0
   36.2090   31.2060   49.3240 C   0  0  0  0  0  0  0  0  0  0  0  0
   35.5180   30.1580   49.9250 C   0  0  0  0  0  0  0  0  0  0  0  0
   36.1480   29.4530   50.9080 N   0  0  0  0  0  0  0  0  0  0  0  0
   37.3980   29.7460   51.2980 C   0  0  0  0  0  0  0  0  0  0  0  0
   38.0650   30.7460   50.7280 N   0  0  0  0  0  0  0  0  0  0  0  0
   38.2470   32.8500   48.8850 S   0  0  0  0  0  0  0  0  0  0  0  0
   39.0290   32.3450   47.3580 C   0  0  0  0  0  0  0  0  0  0  0  0
   38.7820   31.0710   46.8970 C   0  0  0  0  0  0  0  0  0  0  0  0
   39.3560   30.6210   45.7240 C   0  0  0  0  0  0  0  0  0  0  0  0
   40.1630   31.4240   45.0190 N   0  0  0  0  0  0  0  0  0  0  0  0
   40.4070   32.6890   45.4760 C   0  0  0  0  0  0  0  0  0  0  0  0
   39.8530   33.1500   46.6270 N   0  0  0  0  0  0  0  0  0  0  0  0
   35.7442   31.8049   48.5270 H   0  0  0  0  0  0  0  0  0  0  0  0
   34.4929   29.9055   49.6160 H   0  0  0  0  0  0  0  0  0  0  0  0
   37.8744   29.1554   52.0944 H   0  0  0  0  0  0  0  0  0  0  0  0
   38.1202   30.4043   47.4693 H   0  0  0  0  0  0  0  0  0  0  0  0
   39.1497   29.6008   45.3682 H   0  0  0  0  0  0  0  0  0  0  0  0
   41.0686   33.3501   44.8970 H   0  0  0  0  0  0  0  0  0  0  0  0
  1  6  1  0
  2  1  2  0
  2  3  1  0
  3  4  2  0
  4  5  1  0
  6  5  2  0
  7  1  1  0
  8  7  1  0
  9  8  2  0
 10  9  1  0
 11 12  1  0
 11 10  2  0
 12 13  2  0
 13  8  1  0
  2 14  1  0
  3 15  1  0
  5 16  1  0
  9 17  1  0
 10 18  1  0
 12 19  1  0
M  ISO  6  14  14  15  14  16  14  17  14  18  14  19  14
M  END
>  <minimizedAffinity>  (1) 
-4.64103317

>  <minimizedRMSD>  (1) 
6.01688099

$$$$
