
     RDKit          3D

 29 31  0  0  0  0  0  0  0  0999 V2000
   35.4120   28.7840   49.1590 C   0  0  0  0  0  0  0  0  0  0  0  0
   35.3100   29.9640   48.3960 C   0  0  0  0  0  0  0  0  0  0  0  0
   34.2090   30.1040   47.5750 C   0  0  0  0  0  0  0  0  0  0  0  0
   33.2780   29.1220   47.5260 N   0  0  0  0  0  0  0  0  0  0  0  0
   33.3950   28.0050   48.2620 C   0  0  0  0  0  0  0  0  0  0  0  0
   34.4590   27.8250   49.0820 N   0  0  0  0  0  0  0  0  0  0  0  0
   36.3540   30.9330   48.5280 N   0  0  0  0  0  0  0  0  0  0  0  0
   36.5540   31.6080   49.6770 C   0  0  0  0  0  0  0  0  0  0  0  0
   37.5840   32.5410   49.7540 C   0  0  0  0  0  0  0  0  0  0  0  0
   38.3190   32.6850   48.6070 C   0  0  0  0  0  0  0  0  0  0  0  0
   39.2610   33.5290   48.6540 O   0  0  0  0  0  0  0  0  0  0  0  0
   38.1370   32.0250   47.4540 N   0  0  0  0  0  0  0  0  0  0  0  0
   37.1200   31.1260   47.4300 C   0  0  0  0  0  0  0  0  0  0  0  0
   36.9420   30.5000   46.3470 O   0  0  0  0  0  0  0  0  0  0  0  0
   32.4650   26.9710   48.2450 O   0  0  0  0  0  0  0  0  0  0  0  0
   31.1090   27.1910   48.5140 C   0  0  0  0  0  0  0  0  0  0  0  0
   30.2030   26.7130   47.5900 C   0  0  0  0  0  0  0  0  0  0  0  0
   28.8830   26.9540   47.8980 C   0  0  0  0  0  0  0  0  0  0  0  0
   28.4650   27.6090   49.0170 N   0  0  0  0  0  0  0  0  0  0  0  0
   29.4040   28.0580   49.8910 C   0  0  0  0  0  0  0  0  0  0  0  0
   30.7110   27.8460   49.6340 N   0  0  0  0  0  0  0  0  0  0  0  0
   36.2756   28.6401   49.8249 H   0  0  0  0  0  0  0  0  0  0  0  0
   34.0885   31.0100   46.9629 H   0  0  0  0  0  0  0  0  0  0  0  0
   35.9079   31.4230   50.5478 H   0  0  0  0  0  0  0  0  0  0  0  0
   37.7920   33.1188   50.6666 H   0  0  0  0  0  0  0  0  0  0  0  0
   38.7355   32.1909   46.6323 H   0  0  0  0  0  0  0  0  0  0  0  0
   30.5113   26.1807   46.6781 H   0  0  0  0  0  0  0  0  0  0  0  0
   28.1166   26.5946   47.1955 H   0  0  0  0  0  0  0  0  0  0  0  0
   29.0996   28.5916   50.8034 H   0  0  0  0  0  0  0  0  0  0  0  0
  2  7  1  0
  2  1  2  0
  3  2  1  0
  4  3  2  0
  4  5  1  0
  5  6  2  0
  6  1  1  0
  7  8  1  0
  8  9  2  0
 10 11  2  0
 10  9  1  0
 12 10  1  0
 13 12  1  0
 13  7  1  0
 14 13  2  0
 15  5  1  0
 15 16  1  0
 16 21  2  0
 17 18  2  0
 17 16  1  0
 18 19  1  0
 19 20  2  0
 21 20  1  0
  1 22  1  0
  3 23  1  0
  8 24  1  0
  9 25  1  0
 12 26  1  0
 17 27  1  0
 18 28  1  0
 20 29  1  0
M  ISO  8  22  14  23  14  24  14  25  14  26   9  27  14  28  14  29  14
M  END
>  <minimizedAffinity>  (1) 
-5.7137742

>  <minimizedRMSD>  (1) 
1.50981903

$$$$
