
     RDKit          3D

 28 30  0  0  0  0  0  0  0  0999 V2000
   37.8560   30.5630   46.9720 F   0  0  0  0  0  0  0  0  0  0  0  0
   38.3520   31.6600   47.6110 C   0  0  0  0  0  0  0  0  0  0  0  0
   39.1620   32.5800   46.9520 C   0  0  0  0  0  0  0  0  0  0  0  0
   39.6440   33.6820   47.6350 C   0  0  0  0  0  0  0  0  0  0  0  0
   39.3250   33.8740   48.9760 C   0  0  0  0  0  0  0  0  0  0  0  0
   38.5180   32.9310   49.5820 C   0  0  0  0  0  0  0  0  0  0  0  0
   38.0200   31.8210   48.9310 C   0  0  0  0  0  0  0  0  0  0  0  0
   40.4550   31.3470   45.3600 C   0  0  0  0  0  0  0  0  0  0  0  0
   39.4450   32.3070   45.5770 C   0  0  0  0  0  0  0  0  0  0  0  0
   38.8570   32.8610   44.4520 C   0  0  0  0  0  0  0  0  0  0  0  0
   39.2550   32.4780   43.2050 N   0  0  0  0  0  0  0  0  0  0  0  0
   40.2300   31.5510   43.0550 C   0  0  0  0  0  0  0  0  0  0  0  0
   40.8330   30.9840   44.1200 N   0  0  0  0  0  0  0  0  0  0  0  0
   37.1940   30.9570   49.7500 C   0  0  0  0  0  0  0  0  0  0  0  0
   35.9200   30.5070   49.5140 C   0  0  0  0  0  0  0  0  0  0  0  0
   35.1720   29.6860   50.3210 C   0  0  0  0  0  0  0  0  0  0  0  0
   35.7330   29.2690   51.4740 N   0  0  0  0  0  0  0  0  0  0  0  0
   36.9970   29.6890   51.7560 C   0  0  0  0  0  0  0  0  0  0  0  0
   37.6670   30.4900   50.9180 N   0  0  0  0  0  0  0  0  0  0  0  0
   40.2832   34.4109   47.1152 H   0  0  0  0  0  0  0  0  0  0  0  0
   39.7017   34.7447   49.5328 H   0  0  0  0  0  0  0  0  0  0  0  0
   38.2581   33.0726   50.6414 H   0  0  0  0  0  0  0  0  0  0  0  0
   40.9471   30.8824   46.2272 H   0  0  0  0  0  0  0  0  0  0  0  0
   38.0639   33.6148   44.5650 H   0  0  0  0  0  0  0  0  0  0  0  0
   40.5375   31.2534   42.0416 H   0  0  0  0  0  0  0  0  0  0  0  0
   35.4471   30.8394   48.5781 H   0  0  0  0  0  0  0  0  0  0  0  0
   34.1540   29.3801   50.0378 H   0  0  0  0  0  0  0  0  0  0  0  0
   37.4773   29.3639   52.6907 H   0  0  0  0  0  0  0  0  0  0  0  0
  1  2  1  0
  2  7  2  0
  3  2  1  0
  3  4  2  0
  4  5  1  0
  5  6  2  0
  7  6  1  0
  7 14  1  0
  8  9  2  0
  9  3  1  0
 10  9  1  0
 11 10  2  0
 12 11  1  0
 12 13  2  0
 13  8  1  0
 14 19  1  0
 15 14  2  0
 15 16  1  0
 16 17  2  0
 17 18  1  0
 19 18  2  0
  4 20  1  0
  5 21  1  0
  6 22  1  0
  8 23  1  0
 10 24  1  0
 12 25  1  0
 15 26  1  0
 16 27  1  0
 18 28  1  0
M  ISO  8  20  14  21  14  22  14  23  14  24  14  25  14  26  14  27  14
M  ISO  1  28  14
M  END
>  <minimizedAffinity>  (1) 
-6.60713339

>  <minimizedRMSD>  (1) 
5.54792356

$$$$
