
     RDKit          3D

 39 43  0  0  0  0  0  0  0  0999 V2000
   38.0800   32.7010   49.6010 C   0  0  0  0  0  0  0  0  0  0  0  0
   38.8200   32.9010   48.4200 C   0  0  0  0  0  0  0  0  0  0  0  0
   38.4530   32.1250   47.3110 C   0  0  0  0  0  0  0  0  0  0  0  0
   37.4300   31.2420   47.4220 N   0  0  0  0  0  0  0  0  0  0  0  0
   36.7470   31.0840   48.5850 C   0  0  0  0  0  0  0  0  0  0  0  0
   37.0690   31.8100   49.6710 N   0  0  0  0  0  0  0  0  0  0  0  0
   35.7010   29.0990   49.5560 C   0  0  0  0  0  0  0  0  0  0  0  0
   35.6640   30.1160   48.6230 C   0  0  0  0  0  0  0  0  0  0  0  0
   34.6120   30.2090   47.7370 C   0  0  0  0  0  0  0  0  0  0  0  0
   33.5930   29.2900   47.7800 C   0  0  0  0  0  0  0  0  0  0  0  0
   32.4560   29.1380   47.0470 N   0  0  0  0  0  0  0  0  0  0  0  0
   31.8570   28.0430   47.5680 C   0  0  0  0  0  0  0  0  0  0  0  0
   32.5780   27.5320   48.5710 N   0  0  0  0  0  0  0  0  0  0  0  0
   33.6730   28.2950   48.7270 C   0  0  0  0  0  0  0  0  0  0  0  0
   34.6940   28.1560   49.6290 C   0  0  0  0  0  0  0  0  0  0  0  0
   39.1070   32.2020   46.0170 C   0  0  0  0  0  0  0  0  0  0  0  0
   39.5920   33.3670   45.4650 C   0  0  0  0  0  0  0  0  0  0  0  0
   40.2140   33.4730   44.2470 C   0  0  0  0  0  0  0  0  0  0  0  0
   40.3520   32.3430   43.5510 N   0  0  0  0  0  0  0  0  0  0  0  0
   39.8990   31.1880   44.0420 C   0  0  0  0  0  0  0  0  0  0  0  0
   39.3020   31.1280   45.2260 N   0  0  0  0  0  0  0  0  0  0  0  0
   40.0640   29.9620   43.2580 C   0  0  0  0  0  0  0  0  0  0  0  0
   39.1650   28.9100   43.4010 C   0  0  0  0  0  0  0  0  0  0  0  0
   39.3590   27.7740   42.6420 C   0  0  0  0  0  0  0  0  0  0  0  0
   40.3860   27.6480   41.7680 N   0  0  0  0  0  0  0  0  0  0  0  0
   41.2590   28.6870   41.6400 C   0  0  0  0  0  0  0  0  0  0  0  0
   41.0680   29.7920   42.3780 N   0  0  0  0  0  0  0  0  0  0  0  0
   38.3340   33.2897   50.4948 H   0  0  0  0  0  0  0  0  0  0  0  0
   39.6436   33.6285   48.3698 H   0  0  0  0  0  0  0  0  0  0  0  0
   36.5485   29.0384   50.2546 H   0  0  0  0  0  0  0  0  0  0  0  0
   34.5890   31.0205   46.9947 H   0  0  0  0  0  0  0  0  0  0  0  0
   32.1254   29.7261   46.2687 H   0  0  0  0  0  0  0  0  0  0  0  0
   30.9023   27.6276   47.2131 H   0  0  0  0  0  0  0  0  0  0  0  0
   34.7113   27.3415   50.3681 H   0  0  0  0  0  0  0  0  0  0  0  0
   39.4703   34.2904   46.0503 H   0  0  0  0  0  0  0  0  0  0  0  0
   40.5793   34.4376   43.8647 H   0  0  0  0  0  0  0  0  0  0  0  0
   38.3203   28.9820   44.1019 H   0  0  0  0  0  0  0  0  0  0  0  0
   38.6521   26.9383   42.7510 H   0  0  0  0  0  0  0  0  0  0  0  0
   42.1071   28.6210   40.9426 H   0  0  0  0  0  0  0  0  0  0  0  0
  1  6  2  0
  2  1  1  0
  3  4  1  0
  3  2  2  0
  4  5  2  0
  5  8  1  0
  5  6  1  0
  7 15  2  0
  8  7  1  0
  9 10  1  0
  9  8  2  0
 10 14  2  0
 11 12  1  0
 11 10  1  0
 12 13  2  0
 13 14  1  0
 14 15  1  0
 16  3  1  0
 17 16  2  0
 18 17  1  0
 19 20  1  0
 19 18  2  0
 20 21  2  0
 21 16  1  0
 22 23  2  0
 22 20  1  0
 24 23  1  0
 25 24  2  0
 26 25  1  0
 26 27  2  0
 27 22  1  0
  1 28  1  0
  2 29  1  0
  7 30  1  0
  9 31  1  0
 11 32  1  0
 12 33  1  0
 15 34  1  0
 17 35  1  0
 18 36  1  0
 23 37  1  0
 24 38  1  0
 26 39  1  0
M  ISO  8  28  14  29  14  30  14  31  14  32   9  33  14  34  14  35  14
M  ISO  4  36  14  37  14  38  14  39  14
M  END
>  <minimizedAffinity>  (1) 
-7.57604933

>  <minimizedRMSD>  (1) 
1.68691158

$$$$
