
     RDKit          3D

 28 30  0  0  0  0  0  0  0  0999 V2000
   36.6540   30.4210   45.9700 Cl  0  0  0  0  0  0  0  0  0  0  0  0
   36.9160   30.6470   47.6840 C   0  0  0  0  0  0  0  0  0  0  0  0
   38.0920   31.2560   48.0350 C   0  0  0  0  0  0  0  0  0  0  0  0
   38.3300   31.4500   49.4090 C   0  0  0  0  0  0  0  0  0  0  0  0
   37.3850   31.0270   50.3150 C   0  0  0  0  0  0  0  0  0  0  0  0
   36.2400   30.4310   49.8870 C   0  0  0  0  0  0  0  0  0  0  0  0
   35.9500   30.2130   48.5730 C   0  0  0  0  0  0  0  0  0  0  0  0
   40.2070   33.4640   46.0470 C   0  0  0  0  0  0  0  0  0  0  0  0
   40.8970   32.5840   45.1840 C   0  0  0  0  0  0  0  0  0  0  0  0
   40.6150   31.2230   45.3060 C   0  0  0  0  0  0  0  0  0  0  0  0
   39.7020   30.8240   46.2390 N   0  0  0  0  0  0  0  0  0  0  0  0
   39.0720   31.6900   47.0340 C   0  0  0  0  0  0  0  0  0  0  0  0
   39.3270   33.0050   46.9350 N   0  0  0  0  0  0  0  0  0  0  0  0
   34.7570   29.5880   48.0550 C   0  0  0  0  0  0  0  0  0  0  0  0
   34.4060   28.2920   48.3650 C   0  0  0  0  0  0  0  0  0  0  0  0
   33.2420   27.7190   47.8440 C   0  0  0  0  0  0  0  0  0  0  0  0
   32.4210   28.4130   47.0220 N   0  0  0  0  0  0  0  0  0  0  0  0
   32.7990   29.6860   46.7390 C   0  0  0  0  0  0  0  0  0  0  0  0
   33.9170   30.2270   47.2430 N   0  0  0  0  0  0  0  0  0  0  0  0
   39.2570   31.9322   49.7527 H   0  0  0  0  0  0  0  0  0  0  0  0
   37.5566   31.1717   51.3919 H   0  0  0  0  0  0  0  0  0  0  0  0
   35.5083   30.1073   50.6419 H   0  0  0  0  0  0  0  0  0  0  0  0
   40.3995   34.5452   45.9846 H   0  0  0  0  0  0  0  0  0  0  0  0
   41.6250   32.9555   44.4478 H   0  0  0  0  0  0  0  0  0  0  0  0
   41.1185   30.4861   44.6630 H   0  0  0  0  0  0  0  0  0  0  0  0
   35.0505   27.7001   49.0316 H   0  0  0  0  0  0  0  0  0  0  0  0
   32.9881   26.6818   48.1079 H   0  0  0  0  0  0  0  0  0  0  0  0
   32.1670   30.2933   46.0743 H   0  0  0  0  0  0  0  0  0  0  0  0
  1  2  1  0
  2  3  2  0
  2  7  1  0
  3  4  1  0
  4  5  2  0
  6  5  1  0
  7  6  2  0
  8 13  2  0
  9 10  2  0
  9  8  1  0
 10 11  1  0
 11 12  2  0
 12  3  1  0
 13 12  1  0
 14 15  2  0
 14  7  1  0
 16 15  1  0
 17 16  2  0
 18 17  1  0
 18 19  2  0
 19 14  1  0
  4 20  1  0
  5 21  1  0
  6 22  1  0
  8 23  1  0
  9 24  1  0
 10 25  1  0
 15 26  1  0
 16 27  1  0
 18 28  1  0
M  ISO  8  20  14  21  14  22  14  23  14  24  14  25  14  26  14  27  14
M  ISO  1  28  14
M  END
>  <minimizedAffinity>  (1) 
-6.23706198

>  <minimizedRMSD>  (1) 
0.542492032

$$$$
