
     RDKit          3D

 40 44  0  0  0  0  0  0  0  0999 V2000
   35.6790   29.1060   49.8620 C   0  0  0  0  0  0  0  0  0  0  0  0
   34.6450   29.6050   50.5720 C   0  0  0  0  0  0  0  0  0  0  0  0
   33.4830   29.0200   50.0550 C   0  0  0  0  0  0  0  0  0  0  0  0
   33.9080   28.1810   49.0350 C   0  0  0  0  0  0  0  0  0  0  0  0
   35.2070   28.2810   48.9790 O   0  0  0  0  0  0  0  0  0  0  0  0
   33.4080   26.4070   47.3560 C   0  0  0  0  0  0  0  0  0  0  0  0
   32.9850   27.3780   48.2360 C   0  0  0  0  0  0  0  0  0  0  0  0
   31.6330   27.6460   48.4100 C   0  0  0  0  0  0  0  0  0  0  0  0
   30.7310   26.9130   47.6770 C   0  0  0  0  0  0  0  0  0  0  0  0
   29.3870   26.9570   47.6410 N   0  0  0  0  0  0  0  0  0  0  0  0
   28.9830   26.0400   46.7660 N   0  0  0  0  0  0  0  0  0  0  0  0
   30.0480   25.4140   46.2440 C   0  0  0  0  0  0  0  0  0  0  0  0
   31.1890   25.9490   46.8060 C   0  0  0  0  0  0  0  0  0  0  0  0
   32.5360   25.6700   46.6230 C   0  0  0  0  0  0  0  0  0  0  0  0
   37.0550   29.4990   50.1310 C   0  0  0  0  0  0  0  0  0  0  0  0
   37.7320   28.8310   50.9490 O   0  0  0  0  0  0  0  0  0  0  0  0
   37.5710   30.6470   49.4330 C   0  0  0  0  0  0  0  0  0  0  0  0
   37.4460   31.8930   50.0530 C   0  0  0  0  0  0  0  0  0  0  0  0
   37.9320   33.0180   49.4090 C   0  0  0  0  0  0  0  0  0  0  0  0
   38.5100   32.8380   48.1890 N   0  0  0  0  0  0  0  0  0  0  0  0
   38.6200   31.6480   47.6110 C   0  0  0  0  0  0  0  0  0  0  0  0
   38.1530   30.5520   48.2290 N   0  0  0  0  0  0  0  0  0  0  0  0
   39.2520   31.5270   46.3010 C   0  0  0  0  0  0  0  0  0  0  0  0
   38.9690   30.4480   45.4870 C   0  0  0  0  0  0  0  0  0  0  0  0
   39.5180   30.2370   44.2170 C   0  0  0  0  0  0  0  0  0  0  0  0
   40.3870   31.1960   43.8060 N   0  0  0  0  0  0  0  0  0  0  0  0
   40.6780   32.2560   44.5810 C   0  0  0  0  0  0  0  0  0  0  0  0
   40.1310   32.4430   45.8170 N   0  0  0  0  0  0  0  0  0  0  0  0
   34.7040   30.3305   51.3967 H   0  0  0  0  0  0  0  0  0  0  0  0
   32.4485   29.1901   50.3881 H   0  0  0  0  0  0  0  0  0  0  0  0
   34.4867   26.2231   47.2438 H   0  0  0  0  0  0  0  0  0  0  0  0
   31.2948   28.4214   49.1132 H   0  0  0  0  0  0  0  0  0  0  0  0
   28.7823   27.5848   48.1897 H   0  0  0  0  0  0  0  0  0  0  0  0
   30.0171   24.6097   45.4943 H   0  0  0  0  0  0  0  0  0  0  0  0
   32.8779   24.8941   45.9223 H   0  0  0  0  0  0  0  0  0  0  0  0
   36.9677   31.9789   51.0398 H   0  0  0  0  0  0  0  0  0  0  0  0
   37.8545   34.0165   49.8641 H   0  0  0  0  0  0  0  0  0  0  0  0
   38.2587   29.6980   45.8652 H   0  0  0  0  0  0  0  0  0  0  0  0
   39.2652   29.3623   43.5998 H   0  0  0  0  0  0  0  0  0  0  0  0
   41.3884   33.0053   44.2017 H   0  0  0  0  0  0  0  0  0  0  0  0
  1 15  1  0
  1  2  2  0
  3  2  1  0
  4  3  2  0
  5  4  1  0
  5  1  1  0
  6  7  2  0
  7  8  1  0
  7  4  1  0
  9  8  2  0
 10  9  1  0
 11 10  1  0
 12 11  2  0
 12 13  1  0
 13  9  1  0
 14 13  2  0
 14  6  1  0
 15 16  2  0
 17 18  2  0
 17 15  1  0
 19 18  1  0
 20 19  2  0
 21 20  1  0
 21 22  2  0
 22 17  1  0
 23 21  1  0
 24 23  2  0
 25 24  1  0
 26 25  2  0
 26 27  1  0
 27 28  2  0
 28 23  1  0
  2 29  1  0
  3 30  1  0
  6 31  1  0
  8 32  1  0
 10 33  1  0
 12 34  1  0
 14 35  1  0
 18 36  1  0
 19 37  1  0
 24 38  1  0
 25 39  1  0
 27 40  1  0
M  ISO  8  29  14  30  14  31  14  32  14  33   9  34  14  35  14  36  14
M  ISO  4  37  14  38  14  39  14  40  14
M  END
>  <minimizedAffinity>  (1) 
-7.12162685

>  <minimizedRMSD>  (1) 
0.699431777

$$$$
