
     RDKit          3D

 29 31  0  0  0  0  0  0  0  0999 V2000
   36.7750   29.5570   49.4900 C   0  0  0  0  0  0  0  0  0  0  0  0
   37.4510   30.2660   48.4830 C   0  0  0  0  0  0  0  0  0  0  0  0
   36.7880   30.4810   47.2870 C   0  0  0  0  0  0  0  0  0  0  0  0
   35.5360   29.9960   47.1620 N   0  0  0  0  0  0  0  0  0  0  0  0
   34.9080   29.3210   48.1370 C   0  0  0  0  0  0  0  0  0  0  0  0
   35.5310   29.0980   49.3090 N   0  0  0  0  0  0  0  0  0  0  0  0
   37.3730   31.2000   46.1610 C   0  0  0  0  0  0  0  0  0  0  0  0
   36.8200   31.1480   44.8940 C   0  0  0  0  0  0  0  0  0  0  0  0
   37.3630   31.8260   43.8140 C   0  0  0  0  0  0  0  0  0  0  0  0
   38.4700   32.5680   43.9860 N   0  0  0  0  0  0  0  0  0  0  0  0
   38.9960   32.6090   45.2210 C   0  0  0  0  0  0  0  0  0  0  0  0
   38.4840   31.9600   46.2740 N   0  0  0  0  0  0  0  0  0  0  0  0
   40.2240   33.4200   45.4500 C   0  0  0  0  0  0  0  0  0  0  0  0
   40.2360   33.8240   46.7820 F   0  0  0  0  0  0  0  0  0  0  0  0
   41.3680   32.7000   45.1530 F   0  0  0  0  0  0  0  0  0  0  0  0
   40.2360   34.5540   44.6870 F   0  0  0  0  0  0  0  0  0  0  0  0
   33.5510   28.8250   47.9300 C   0  0  0  0  0  0  0  0  0  0  0  0
   32.9620   28.0090   48.8730 C   0  0  0  0  0  0  0  0  0  0  0  0
   31.6780   27.5770   48.6140 C   0  0  0  0  0  0  0  0  0  0  0  0
   30.9890   27.9180   47.4900 N   0  0  0  0  0  0  0  0  0  0  0  0
   31.6080   28.7230   46.5920 C   0  0  0  0  0  0  0  0  0  0  0  0
   32.8790   29.1710   46.8130 N   0  0  0  0  0  0  0  0  0  0  0  0
   37.2802   29.3748   50.4500 H   0  0  0  0  0  0  0  0  0  0  0  0
   38.4741   30.6383   48.6399 H   0  0  0  0  0  0  0  0  0  0  0  0
   35.9136   30.5448   44.7375 H   0  0  0  0  0  0  0  0  0  0  0  0
   36.8910   31.7572   42.8228 H   0  0  0  0  0  0  0  0  0  0  0  0
   33.4926   27.7157   49.7908 H   0  0  0  0  0  0  0  0  0  0  0  0
   31.1866   26.9252   49.3513 H   0  0  0  0  0  0  0  0  0  0  0  0
   31.0798   29.0191   45.6737 H   0  0  0  0  0  0  0  0  0  0  0  0
  2  1  2  0
  3  2  1  0
  4  3  2  0
  4  5  1  0
  5  6  2  0
  6  1  1  0
  7 12  1  0
  7  3  1  0
  8  7  2  0
  9 10  2  0
  9  8  1  0
 10 11  1  0
 11 13  1  0
 11 12  2  0
 13 14  1  0
 15 13  1  0
 16 13  1  0
 17  5  1  0
 17 18  2  0
 19 18  1  0
 20 19  2  0
 21 22  2  0
 21 20  1  0
 22 17  1  0
  1 23  1  0
  2 24  1  0
  8 25  1  0
  9 26  1  0
 18 27  1  0
 19 28  1  0
 21 29  1  0
M  ISO  7  23  14  24  14  25  14  26  14  27  14  28  14  29  14
M  END
>  <minimizedAffinity>  (1) 
-6.0362711

>  <minimizedRMSD>  (1) 
2.20035934

$$$$
