
     RDKit          3D

 21 22  0  0  0  0  0  0  0  0999 V2000
   36.8030   29.9000   49.4880 C   0  0  0  0  0  0  0  0  0  0  0  0
   37.8750   30.4540   48.7860 C   0  0  0  0  0  0  0  0  0  0  0  0
   37.6740   30.8010   47.4530 C   0  0  0  0  0  0  0  0  0  0  0  0
   36.4530   30.5880   46.8960 N   0  0  0  0  0  0  0  0  0  0  0  0
   35.4310   30.0470   47.6100 C   0  0  0  0  0  0  0  0  0  0  0  0
   35.6050   29.7040   48.9040 N   0  0  0  0  0  0  0  0  0  0  0  0
   38.7720   31.3780   46.6990 C   0  0  0  0  0  0  0  0  0  0  0  0
   39.4420   30.6160   45.7640 C   0  0  0  0  0  0  0  0  0  0  0  0
   40.4830   31.1850   45.0590 C   0  0  0  0  0  0  0  0  0  0  0  0
   40.7920   32.4860   45.3300 N   0  0  0  0  0  0  0  0  0  0  0  0
   40.1130   33.2030   46.2550 C   0  0  0  0  0  0  0  0  0  0  0  0
   39.0970   32.6550   46.9470 N   0  0  0  0  0  0  0  0  0  0  0  0
   36.9980   29.5210   50.9210 C   0  0  0  0  0  0  0  0  0  0  0  0
   35.7870   29.2750   51.5270 F   0  0  0  0  0  0  0  0  0  0  0  0
   37.8570   28.4430   50.9480 F   0  0  0  0  0  0  0  0  0  0  0  0
   37.5850   30.6080   51.5570 F   0  0  0  0  0  0  0  0  0  0  0  0
   38.8493   30.6116   49.2717 H   0  0  0  0  0  0  0  0  0  0  0  0
   34.4543   29.8874   47.1297 H   0  0  0  0  0  0  0  0  0  0  0  0
   39.1508   29.5708   45.5833 H   0  0  0  0  0  0  0  0  0  0  0  0
   41.0430   30.6108   44.3063 H   0  0  0  0  0  0  0  0  0  0  0  0
   40.3955   34.2491   46.4442 H   0  0  0  0  0  0  0  0  0  0  0  0
  1 13  1  0
  2  1  2  0
  3  2  1  0
  4  3  2  0
  4  5  1  0
  5  6  2  0
  6  1  1  0
  7 12  1  0
  7  3  1  0
  8  7  2  0
  9 10  2  0
  9  8  1  0
 10 11  1  0
 11 12  2  0
 13 15  1  0
 13 14  1  0
 13 16  1  0
  2 17  1  0
  5 18  1  0
  8 19  1  0
  9 20  1  0
 11 21  1  0
M  ISO  5  17  14  18  14  19  14  20  14  21  14
M  END
>  <minimizedAffinity>  (1) 
-5.77916861

>  <minimizedRMSD>  (1) 
2.56485391

$$$$
