
     RDKit          3D

 21 22  0  0  0  0  0  0  0  0999 V2000
   35.8730   29.5650   50.4110 C   0  0  0  0  0  0  0  0  0  0  0  0
   36.4550   30.4070   49.4370 C   0  0  0  0  0  0  0  0  0  0  0  0
   36.0060   30.3180   48.1210 C   0  0  0  0  0  0  0  0  0  0  0  0
   35.0230   29.4120   47.8520 N   0  0  0  0  0  0  0  0  0  0  0  0
   34.4860   28.6250   48.7900 C   0  0  0  0  0  0  0  0  0  0  0  0
   34.8930   28.6880   50.0560 N   0  0  0  0  0  0  0  0  0  0  0  0
   33.4370   27.6830   48.4240 C   0  0  0  0  0  0  0  0  0  0  0  0
   33.7240   26.5600   47.6660 C   0  0  0  0  0  0  0  0  0  0  0  0
   32.6690   25.7230   47.3650 C   0  0  0  0  0  0  0  0  0  0  0  0
   31.3780   25.9000   47.7470 N   0  0  0  0  0  0  0  0  0  0  0  0
   31.1660   27.0220   48.4910 C   0  0  0  0  0  0  0  0  0  0  0  0
   32.1550   27.8470   48.7960 N   0  0  0  0  0  0  0  0  0  0  0  0
   37.5290   31.3530   49.8860 C   0  0  0  0  0  0  0  0  0  0  0  0
   38.4140   31.6250   48.8350 F   0  0  0  0  0  0  0  0  0  0  0  0
   36.9110   32.5500   50.2220 F   0  0  0  0  0  0  0  0  0  0  0  0
   38.2440   30.8960   50.9590 F   0  0  0  0  0  0  0  0  0  0  0  0
   36.2114   29.6177   51.4563 H   0  0  0  0  0  0  0  0  0  0  0  0
   36.4283   30.9543   47.3293 H   0  0  0  0  0  0  0  0  0  0  0  0
   34.7458   26.3452   47.3199 H   0  0  0  0  0  0  0  0  0  0  0  0
   32.8942   24.8317   46.7609 H   0  0  0  0  0  0  0  0  0  0  0  0
   30.1496   27.2471   48.8462 H   0  0  0  0  0  0  0  0  0  0  0  0
  2 13  1  0
  2  1  2  0
  3  2  1  0
  4  3  2  0
  4  5  1  0
  5  6  2  0
  6  1  1  0
  7  5  1  0
  7 12  1  0
  8  7  2  0
  9  8  1  0
  9 10  2  0
 10 11  1  0
 11 12  2  0
 13 15  1  0
 13 16  1  0
 14 13  1  0
  1 17  1  0
  3 18  1  0
  8 19  1  0
  9 20  1  0
 11 21  1  0
M  ISO  5  17  14  18  14  19  14  20  14  21  14
M  END
>  <minimizedAffinity>  (1) 
-5.07271862

>  <minimizedRMSD>  (1) 
1.19359183

$$$$
