
     RDKit          3D

 32 34  0  0  0  0  0  0  0  0999 V2000
   36.6400   30.8300   45.3100 C   0  0  0  0  0  0  0  0  0  0  0  0
   35.4310   30.1860   44.9990 C   0  0  0  0  0  0  0  0  0  0  0  0
   34.6070   29.5580   45.8650 C   0  0  0  0  0  0  0  0  0  0  0  0
   34.9220   29.5120   47.1740 C   0  0  0  0  0  0  0  0  0  0  0  0
   36.0930   30.1320   47.4960 C   0  0  0  0  0  0  0  0  0  0  0  0
   36.8440   30.7220   46.5970 N   0  0  0  0  0  0  0  0  0  0  0  0
   36.5330   32.2730   43.4370 C   0  0  0  0  0  0  0  0  0  0  0  0
   37.4000   31.4970   44.2670 C   0  0  0  0  0  0  0  0  0  0  0  0
   38.7360   31.5320   43.9690 C   0  0  0  0  0  0  0  0  0  0  0  0
   39.1240   32.3090   42.9040 N   0  0  0  0  0  0  0  0  0  0  0  0
   38.3090   33.0240   42.1460 C   0  0  0  0  0  0  0  0  0  0  0  0
   36.9990   32.9960   42.4270 N   0  0  0  0  0  0  0  0  0  0  0  0
   38.9070   33.7730   41.1140 N   0  0  0  0  0  0  0  0  0  0  0  0
   39.6780   30.7630   44.7830 C   0  0  0  0  0  0  0  0  0  0  0  0
   39.2670   29.5160   44.8520 F   0  0  0  0  0  0  0  0  0  0  0  0
   40.9830   30.8010   44.3290 F   0  0  0  0  0  0  0  0  0  0  0  0
   39.7320   31.2780   46.1110 F   0  0  0  0  0  0  0  0  0  0  0  0
   36.5830   30.1690   48.9030 C   0  0  0  0  0  0  0  0  0  0  0  0
   37.7160   30.8430   49.3000 C   0  0  0  0  0  0  0  0  0  0  0  0
   38.1320   30.8490   50.6150 C   0  0  0  0  0  0  0  0  0  0  0  0
   37.4360   30.1900   51.5570 N   0  0  0  0  0  0  0  0  0  0  0  0
   36.3280   29.5300   51.1790 C   0  0  0  0  0  0  0  0  0  0  0  0
   35.9320   29.5310   49.8940 N   0  0  0  0  0  0  0  0  0  0  0  0
   35.1243   30.1941   43.9426 H   0  0  0  0  0  0  0  0  0  0  0  0
   33.6819   29.0857   45.5029 H   0  0  0  0  0  0  0  0  0  0  0  0
   34.2866   29.0150   47.9218 H   0  0  0  0  0  0  0  0  0  0  0  0
   35.4520   32.2707   43.6408 H   0  0  0  0  0  0  0  0  0  0  0  0
   39.9264   33.7322   40.9722 H   0  0  0  0  0  0  0  0  0  0  0  0
   38.3250   34.3616   40.5011 H   0  0  0  0  0  0  0  0  0  0  0  0
   38.3045   31.3907   48.5492 H   0  0  0  0  0  0  0  0  0  0  0  0
   39.0426   31.3987   50.8955 H   0  0  0  0  0  0  0  0  0  0  0  0
   35.7384   28.9828   51.9293 H   0  0  0  0  0  0  0  0  0  0  0  0
  1  6  1  0
  2  1  2  0
  2  3  1  0
  3  4  2  0
  4  5  1  0
  5 18  1  0
  6  5  2  0
  7  8  2  0
  8  1  1  0
  9  8  1  0
  9 14  1  0
 10  9  2  0
 11 12  2  0
 11 10  1  0
 12  7  1  0
 13 11  1  0
 14 15  1  0
 14 17  1  0
 16 14  1  0
 18 19  2  0
 18 23  1  0
 19 20  1  0
 20 21  2  0
 22 21  1  0
 23 22  2  0
  2 24  1  0
  3 25  1  0
  4 26  1  0
  7 27  1  0
 13 28  1  0
 13 29  1  0
 19 30  1  0
 20 31  1  0
 22 32  1  0
M  ISO  7  24  14  25  14  26  14  27  14  30  14  31  14  32  14
M  END
>  <minimizedAffinity>  (1) 
-5.83300495

>  <minimizedRMSD>  (1) 
4.38264418

$$$$
