
     RDKit          3D

 33 35  0  0  0  0  0  0  0  0999 V2000
   33.5770   29.6130   46.5830 N   0  0  0  0  0  0  0  0  0  0  0  0
   33.8470   29.3950   47.9760 C   0  0  0  0  0  0  0  0  0  0  0  0
   35.0890   29.9670   48.5340 C   0  0  0  0  0  0  0  0  0  0  0  0
   36.2500   30.0940   47.6170 C   0  0  0  0  0  0  0  0  0  0  0  0
   35.8790   30.2610   46.1800 C   0  0  0  0  0  0  0  0  0  0  0  0
   34.7600   29.2650   45.8410 C   0  0  0  0  0  0  0  0  0  0  0  0
   32.3590   30.0890   46.0340 C   0  0  0  0  0  0  0  0  0  0  0  0
   32.2330   31.2520   45.2710 C   0  0  0  0  0  0  0  0  0  0  0  0
   30.9690   31.6000   44.7940 C   0  0  0  0  0  0  0  0  0  0  0  0
   29.9150   30.7870   45.0940 N   0  0  0  0  0  0  0  0  0  0  0  0
   30.0820   29.6760   45.8320 C   0  0  0  0  0  0  0  0  0  0  0  0
   31.2900   29.3270   46.2980 N   0  0  0  0  0  0  0  0  0  0  0  0
   37.1210   31.2140   48.0660 C   0  0  0  0  0  0  0  0  0  0  0  0
   38.1540   31.6130   47.2160 C   0  0  0  0  0  0  0  0  0  0  0  0
   38.9400   32.6660   47.6850 C   0  0  0  0  0  0  0  0  0  0  0  0
   38.7750   33.3020   48.8610 N   0  0  0  0  0  0  0  0  0  0  0  0
   37.7540   32.8640   49.6370 C   0  0  0  0  0  0  0  0  0  0  0  0
   36.9430   31.8500   49.2610 N   0  0  0  0  0  0  0  0  0  0  0  0
   33.0060   29.8199   48.5437 H   0  0  0  0  0  0  0  0  0  0  0  0
   33.9783   28.3066   48.0659 H   0  0  0  0  0  0  0  0  0  0  0  0
   34.8508   30.9738   48.9076 H   0  0  0  0  0  0  0  0  0  0  0  0
   35.4118   29.2486   49.3019 H   0  0  0  0  0  0  0  0  0  0  0  0
   36.7951   29.1400   47.6696 H   0  0  0  0  0  0  0  0  0  0  0  0
   35.5256   31.2880   46.0060 H   0  0  0  0  0  0  0  0  0  0  0  0
   36.7551   30.0715   45.5424 H   0  0  0  0  0  0  0  0  0  0  0  0
   34.5441   29.3069   44.7632 H   0  0  0  0  0  0  0  0  0  0  0  0
   35.0779   28.2464   46.1082 H   0  0  0  0  0  0  0  0  0  0  0  0
   33.1098   31.8789   45.0513 H   0  0  0  0  0  0  0  0  0  0  0  0
   30.8255   32.5083   44.1903 H   0  0  0  0  0  0  0  0  0  0  0  0
   29.2121   29.0417   46.0577 H   0  0  0  0  0  0  0  0  0  0  0  0
   38.3356   31.1308   46.2442 H   0  0  0  0  0  0  0  0  0  0  0  0
   39.7639   33.0055   47.0401 H   0  0  0  0  0  0  0  0  0  0  0  0
   37.5789   33.3511   50.6076 H   0  0  0  0  0  0  0  0  0  0  0  0
  1  2  1  0
  2  3  1  0
  4 13  1  0
  4  3  1  0
  5  4  1  0
  6  5  1  0
  6  1  1  0
  7 12  1  0
  7  1  1  0
  8  7  2  0
  9 10  2  0
  9  8  1  0
 10 11  1  0
 11 12  2  0
 13 18  2  0
 14 15  2  0
 14 13  1  0
 15 16  1  0
 16 17  2  0
 18 17  1  0
  2 19  1  0
  2 20  1  0
  3 21  1  0
  3 22  1  0
  4 23  1  0
  5 24  1  0
  5 25  1  0
  6 26  1  0
  6 27  1  0
  8 28  1  0
  9 29  1  0
 11 30  1  0
 14 31  1  0
 15 32  1  0
 17 33  1  0
M  ISO  8  19  13  20  13  21  13  22  13  23  13  24  13  25  13  26  13
M  ISO  7  27  13  28  14  29  14  30  14  31  14  32  14  33  14
M  END
>  <minimizedAffinity>  (1) 
-4.51283836

>  <minimizedRMSD>  (1) 
3.86620641

$$$$
