
     RDKit          3D

 34 36  0  0  1  0  0  0  0  0999 V2000
   34.7030   30.4350   48.8630 C   0  0  1  0  0  0  0  0  0  0  0  0
   33.8050   30.4570   47.7160 C   0  0  0  0  0  0  0  0  0  0  0  0
   33.6130   29.1660   46.9670 C   0  0  0  0  0  0  0  0  0  0  0  0
   33.5600   27.9560   47.8240 C   0  0  2  0  0  0  0  0  0  0  0  0
   34.5050   27.8970   48.9750 C   0  0  0  0  0  0  0  0  0  0  0  0
   34.5220   29.1990   49.7100 C   0  0  0  0  0  0  0  0  0  0  0  0
   36.6900   30.6500   47.3140 C   0  0  0  0  0  0  0  0  0  0  0  0
   36.1260   30.7560   48.6040 C   0  0  0  0  0  0  0  0  0  0  0  0
   36.9480   31.1800   49.6300 C   0  0  0  0  0  0  0  0  0  0  0  0
   38.2610   31.4740   49.3480 N   0  0  0  0  0  0  0  0  0  0  0  0
   38.7620   31.3590   48.0910 C   0  0  0  0  0  0  0  0  0  0  0  0
   37.9660   30.9470   47.0890 N   0  0  0  0  0  0  0  0  0  0  0  0
   33.8000   26.7350   47.0130 C   0  0  0  0  0  0  0  0  0  0  0  0
   33.9490   26.8190   45.6410 C   0  0  0  0  0  0  0  0  0  0  0  0
   34.1730   25.6440   44.9180 C   0  0  0  0  0  0  0  0  0  0  0  0
   34.2360   24.4770   45.5900 N   0  0  0  0  0  0  0  0  0  0  0  0
   34.0940   24.3900   46.9070 C   0  0  0  0  0  0  0  0  0  0  0  0
   33.8800   25.5050   47.6000 N   0  0  0  0  0  0  0  0  0  0  0  0
   34.3723   31.3014   49.4546 H   0  0  0  0  0  0  0  0  0  0  0  0
   32.8171   30.7809   48.0755 H   0  0  0  0  0  0  0  0  0  0  0  0
   34.2843   31.1346   46.9941 H   0  0  0  0  0  0  0  0  0  0  0  0
   32.6683   29.2315   46.4072 H   0  0  0  0  0  0  0  0  0  0  0  0
   34.4928   29.0491   46.3172 H   0  0  0  0  0  0  0  0  0  0  0  0
   32.5481   28.0121   48.2517 H   0  0  0  0  0  0  0  0  0  0  0  0
   34.1884   27.0983   49.6619 H   0  0  0  0  0  0  0  0  0  0  0  0
   35.5161   27.6924   48.5932 H   0  0  0  0  0  0  0  0  0  0  0  0
   35.3476   29.1648   50.4360 H   0  0  0  0  0  0  0  0  0  0  0  0
   33.5254   29.2952   50.1656 H   0  0  0  0  0  0  0  0  0  0  0  0
   36.0599   30.3144   46.4771 H   0  0  0  0  0  0  0  0  0  0  0  0
   36.5591   31.2806   50.6540 H   0  0  0  0  0  0  0  0  0  0  0  0
   39.8164   31.6023   47.8932 H   0  0  0  0  0  0  0  0  0  0  0  0
   33.8924   27.7909   45.1289 H   0  0  0  0  0  0  0  0  0  0  0  0
   34.2952   25.6709   43.8251 H   0  0  0  0  0  0  0  0  0  0  0  0
   34.1521   23.4159   47.4147 H   0  0  0  0  0  0  0  0  0  0  0  0
  1  6  1  0
  2  1  1  0
  3  2  1  0
  3  4  1  0
  4  5  1  0
  5  6  1  0
  7  8  2  0
  8  1  1  0
  8  9  1  0
 10  9  2  0
 11 10  1  0
 12  7  1  0
 12 11  2  0
 13 18  1  0
 13  4  1  0
 14 13  2  0
 15 16  2  0
 15 14  1  0
 16 17  1  0
 17 18  2  0
  1 19  1  1
  2 20  1  0
  2 21  1  0
  3 22  1  0
  3 23  1  0
  4 24  1  1
  5 25  1  0
  5 26  1  0
  6 27  1  0
  6 28  1  0
  7 29  1  0
  9 30  1  0
 11 31  1  0
 14 32  1  0
 15 33  1  0
 17 34  1  0
M  ISO  8  19  13  20  13  21  13  22  13  23  13  24  13  25  13  26  13
M  ISO  8  27  13  28  13  29  14  30  14  31  14  32  14  33  14  34  14
M  END
>  <minimizedAffinity>  (1) 
-4.45739365

>  <minimizedRMSD>  (1) 
1.42141461

$$$$
