
     RDKit          3D

 37 39  0  0  1  0  0  0  0  0999 V2000
   38.8540   30.7230   45.9400 S   0  0  0  0  0  0  0  0  0  0  0  0
   38.3280   33.0010   44.5670 N   0  0  0  0  0  0  0  0  0  0  0  0
   37.8680   31.6570   44.7200 C   0  0  1  0  0  0  0  0  0  0  0  0
   38.0060   30.9190   43.4130 C   0  0  0  0  0  0  0  0  0  0  0  0
   39.4310   30.9430   43.0550 N   0  0  0  0  0  0  0  0  0  0  0  0
   39.7080   32.3450   42.7100 C   0  0  0  0  0  0  0  0  0  0  0  0
   39.6350   33.1200   44.0100 C   0  0  2  0  0  0  0  0  0  0  0  0
   40.6820   32.6440   44.8870 N   0  0  0  0  0  0  0  0  0  0  0  0
   38.4030   32.7870   49.4010 C   0  0  0  0  0  0  0  0  0  0  0  0
   38.7740   32.4900   48.1080 C   0  0  0  0  0  0  0  0  0  0  0  0
   38.4470   31.2500   47.5820 C   0  0  0  0  0  0  0  0  0  0  0  0
   37.7600   30.3680   48.3860 N   0  0  0  0  0  0  0  0  0  0  0  0
   37.4240   30.7120   49.6380 C   0  0  0  0  0  0  0  0  0  0  0  0
   37.7380   31.9040   50.1460 N   0  0  0  0  0  0  0  0  0  0  0  0
   36.7000   29.7710   50.4750 C   0  0  0  0  0  0  0  0  0  0  0  0
   37.1210   29.3560   51.5760 O   0  0  0  0  0  0  0  0  0  0  0  0
   35.4030   29.2550   50.0450 C   0  0  0  0  0  0  0  0  0  0  0  0
   35.3300   28.2650   49.0880 C   0  0  0  0  0  0  0  0  0  0  0  0
   34.1220   27.7330   48.6390 C   0  0  0  0  0  0  0  0  0  0  0  0
   32.9860   28.2430   49.1970 N   0  0  0  0  0  0  0  0  0  0  0  0
   33.0450   29.2040   50.1280 C   0  0  0  0  0  0  0  0  0  0  0  0
   34.2290   29.7210   50.5640 N   0  0  0  0  0  0  0  0  0  0  0  0
   37.6693   33.4980   43.9505 H   0  0  0  0  0  0  0  0  0  0  0  0
   36.8225   31.7234   45.0554 H   0  0  0  0  0  0  0  0  0  0  0  0
   37.6626   29.8803   43.5275 H   0  0  0  0  0  0  0  0  0  0  0  0
   37.3960   31.3914   42.6289 H   0  0  0  0  0  0  0  0  0  0  0  0
   40.0105   30.6442   43.8524 H   0  0  0  0  0  0  0  0  0  0  0  0
   40.7100   32.4380   42.2658 H   0  0  0  0  0  0  0  0  0  0  0  0
   38.9865   32.7276   41.9730 H   0  0  0  0  0  0  0  0  0  0  0  0
   39.8033   34.1949   43.8482 H   0  0  0  0  0  0  0  0  0  0  0  0
   40.3945   32.7747   45.8674 H   0  0  0  0  0  0  0  0  0  0  0  0
   40.8505   31.6436   44.7091 H   0  0  0  0  0  0  0  0  0  0  0  0
   38.6597   33.7688   49.8256 H   0  0  0  0  0  0  0  0  0  0  0  0
   39.3219   33.2263   47.5017 H   0  0  0  0  0  0  0  0  0  0  0  0
   36.2663   27.8778   48.6598 H   0  0  0  0  0  0  0  0  0  0  0  0
   34.0865   26.9430   47.8744 H   0  0  0  0  0  0  0  0  0  0  0  0
   32.1072   29.5890   50.5551 H   0  0  0  0  0  0  0  0  0  0  0  0
  1 11  1  0
  2  3  1  0
  3  1  1  0
  4  3  1  0
  5  4  1  0
  6  5  1  0
  6  7  1  0
  7  2  1  0
  7  8  1  0
  9 14  2  0
 10  9  1  0
 11 10  2  0
 11 12  1  0
 12 13  2  0
 13 14  1  0
 13 15  1  0
 15 16  2  0
 17 15  1  0
 17 22  1  0
 18 17  2  0
 19 18  1  0
 19 20  2  0
 20 21  1  0
 21 22  2  0
  2 23  1  0
  3 24  1  1
  4 25  1  0
  4 26  1  0
  5 27  1  0
  6 28  1  0
  6 29  1  0
  7 30  1  6
  8 31  1  0
  8 32  1  0
  9 33  1  0
 10 34  1  0
 18 35  1  0
 19 36  1  0
 21 37  1  0
M  ISO  8  23   5  24  13  25  13  26  13  27   5  28  13  29  13  30  13
M  ISO  7  31   5  32   5  33  14  34  14  35  14  36  14  37  14
M  END
>  <minimizedAffinity>  (1) 
-5.53198147

>  <minimizedRMSD>  (1) 
2.57024431

$$$$
