
     RDKit          3D

 38 40  0  0  1  0  0  0  0  0999 V2000
   36.3000   30.7290   48.9900 C   0  0  2  0  0  0  0  0  0  0  0  0
   37.2980   31.5830   49.7160 C   0  0  0  0  0  0  0  0  0  0  0  0
   38.1860   30.7840   50.6450 C   0  0  0  0  0  0  0  0  0  0  0  0
   37.3400   30.0190   51.6580 C   0  0  0  0  0  0  0  0  0  0  0  0
   36.0650   29.4500   51.0800 C   0  0  0  0  0  0  0  0  0  0  0  0
   36.2260   29.3470   49.5520 C   0  0  1  0  0  0  0  0  0  0  0  0
   36.6260   30.6400   47.5420 C   0  0  0  0  0  0  0  0  0  0  0  0
   37.9720   30.8960   47.2060 C   0  0  0  0  0  0  0  0  0  0  0  0
   38.2990   30.8120   45.8480 C   0  0  0  0  0  0  0  0  0  0  0  0
   37.3130   30.4910   44.9420 N   0  0  0  0  0  0  0  0  0  0  0  0
   36.0200   30.2520   45.3250 C   0  0  0  0  0  0  0  0  0  0  0  0
   35.6980   30.3320   46.6300 N   0  0  0  0  0  0  0  0  0  0  0  0
   33.9060   28.4010   49.1420 C   0  0  0  0  0  0  0  0  0  0  0  0
   33.1280   29.0960   49.8940 O   0  0  0  0  0  0  0  0  0  0  0  0
   35.3040   28.4860   48.9080 N   0  0  0  0  0  0  0  0  0  0  0  0
   33.1320   27.3480   48.4280 C   0  0  0  0  0  0  0  0  0  0  0  0
   33.6890   26.4010   47.6170 C   0  0  0  0  0  0  0  0  0  0  0  0
   33.0210   25.4250   46.9480 C   0  0  0  0  0  0  0  0  0  0  0  0
   31.6770   25.4050   47.1130 N   0  0  0  0  0  0  0  0  0  0  0  0
   31.1110   26.3270   47.9060 C   0  0  0  0  0  0  0  0  0  0  0  0
   31.8050   27.2710   48.5470 N   0  0  0  0  0  0  0  0  0  0  0  0
   35.3228   31.2161   49.1233 H   0  0  0  0  0  0  0  0  0  0  0  0
   37.9318   32.0910   48.9742 H   0  0  0  0  0  0  0  0  0  0  0  0
   36.7353   32.3008   50.3309 H   0  0  0  0  0  0  0  0  0  0  0  0
   38.7794   30.0701   50.0549 H   0  0  0  0  0  0  0  0  0  0  0  0
   38.8527   31.4735   51.1836 H   0  0  0  0  0  0  0  0  0  0  0  0
   37.9416   29.1885   52.0559 H   0  0  0  0  0  0  0  0  0  0  0  0
   37.0464   30.7368   52.4381 H   0  0  0  0  0  0  0  0  0  0  0  0
   35.8794   28.4512   51.5019 H   0  0  0  0  0  0  0  0  0  0  0  0
   35.2146   30.1026   51.3267 H   0  0  0  0  0  0  0  0  0  0  0  0
   37.1733   28.8315   49.3355 H   0  0  0  0  0  0  0  0  0  0  0  0
   38.7230   31.1477   47.9693 H   0  0  0  0  0  0  0  0  0  0  0  0
   39.3286   30.9996   45.5092 H   0  0  0  0  0  0  0  0  0  0  0  0
   35.2548   29.9981   44.5766 H   0  0  0  0  0  0  0  0  0  0  0  0
   35.6892   27.8531   48.1925 H   0  0  0  0  0  0  0  0  0  0  0  0
   34.7816   26.4311   47.4936 H   0  0  0  0  0  0  0  0  0  0  0  0
   33.5409   24.6947   46.3105 H   0  0  0  0  0  0  0  0  0  0  0  0
   30.0188   26.3044   48.0350 H   0  0  0  0  0  0  0  0  0  0  0  0
  1  6  1  0
  1  2  1  0
  2  3  1  0
  3  4  1  0
  5  4  1  0
  6  5  1  0
  7  1  1  0
  8  7  2  0
  9  8  1  0
 10 11  1  0
 10  9  2  0
 11 12  2  0
 12  7  1  0
 13 14  2  0
 15 13  1  0
 15  6  1  0
 16 21  1  0
 16 13  1  0
 17 16  2  0
 18 19  2  0
 18 17  1  0
 19 20  1  0
 20 21  2  0
  1 22  1  6
  2 23  1  0
  2 24  1  0
  3 25  1  0
  3 26  1  0
  4 27  1  0
  4 28  1  0
  5 29  1  0
  5 30  1  0
  6 31  1  1
  8 32  1  0
  9 33  1  0
 11 34  1  0
 15 35  1  0
 17 36  1  0
 18 37  1  0
 20 38  1  0
M  ISO  8  22  13  23  13  24  13  25  13  26  13  27  13  28  13  29  13
M  ISO  8  30  13  31  13  32  14  33  14  34  14  36  14  37  14  38  14
M  END
>  <minimizedAffinity>  (1) 
-6.00109482

>  <minimizedRMSD>  (1) 
0.401674241

$$$$
