
     RDKit          3D

 30 31  0  0  1  0  0  0  0  0999 V2000
   39.6580   32.8980   46.3010 N   0  0  0  0  0  0  0  0  0  0  0  0
   38.3430   32.3620   46.1250 C   0  0  1  0  0  0  0  0  0  0  0  0
   37.9570   32.4040   44.6770 C   0  0  0  0  0  0  0  0  0  0  0  0
   38.9400   31.6080   43.9450 N   0  0  0  0  0  0  0  0  0  0  0  0
   40.1770   32.3950   44.0070 C   0  0  0  0  0  0  0  0  0  0  0  0
   40.6480   32.3130   45.4570 C   0  0  2  0  0  0  0  0  0  0  0  0
   40.9250   30.9270   45.7660 N   0  0  0  0  0  0  0  0  0  0  0  0
   38.2390   30.6040   46.6300 S   0  0  0  0  0  0  0  0  0  0  0  0
   37.7040   30.7850   50.6520 C   0  0  0  0  0  0  0  0  0  0  0  0
   38.2930   30.9360   49.4040 C   0  0  0  0  0  0  0  0  0  0  0  0
   37.6190   30.4830   48.2870 C   0  0  0  0  0  0  0  0  0  0  0  0
   36.3780   29.8950   48.4710 N   0  0  0  0  0  0  0  0  0  0  0  0
   35.8740   29.7830   49.6950 C   0  0  0  0  0  0  0  0  0  0  0  0
   36.5060   30.2120   50.7840 N   0  0  0  0  0  0  0  0  0  0  0  0
   34.5570   29.1560   49.8500 C   0  0  0  0  0  0  0  0  0  0  0  0
   34.2750   28.0150   49.4310 O   0  0  0  0  0  0  0  0  0  0  0  0
   33.4810   29.7640   50.4790 O   0  0  0  0  0  0  0  0  0  0  0  0
   39.6233   33.9086   46.1051 H   0  0  0  0  0  0  0  0  0  0  0  0
   37.6770   32.9754   46.7497 H   0  0  0  0  0  0  0  0  0  0  0  0
   36.9517   31.9784   44.5424 H   0  0  0  0  0  0  0  0  0  0  0  0
   37.9396   33.4398   44.3072 H   0  0  0  0  0  0  0  0  0  0  0  0
   38.6435   31.4736   42.9678 H   0  0  0  0  0  0  0  0  0  0  0  0
   40.9356   31.9705   43.3330 H   0  0  0  0  0  0  0  0  0  0  0  0
   40.0115   33.4361   43.6926 H   0  0  0  0  0  0  0  0  0  0  0  0
   41.5767   32.8788   45.6224 H   0  0  0  0  0  0  0  0  0  0  0  0
   40.9501   30.8015   46.7880 H   0  0  0  0  0  0  0  0  0  0  0  0
   40.1864   30.3316   45.3650 H   0  0  0  0  0  0  0  0  0  0  0  0
   38.2336   31.1436   51.5470 H   0  0  0  0  0  0  0  0  0  0  0  0
   39.2812   31.4091   49.3064 H   0  0  0  0  0  0  0  0  0  0  0  0
   32.6163   29.2875   50.5517 H   0  0  0  0  0  0  0  0  0  0  0  0
  2  1  1  0
  2  8  1  0
  3  2  1  0
  4  5  1  0
  4  3  1  0
  5  6  1  0
  6  7  1  0
  6  1  1  0
  8 11  1  0
  9 14  2  0
 10  9  1  0
 11 12  1  0
 11 10  2  0
 12 13  2  0
 13 15  1  0
 13 14  1  0
 15 17  1  0
 16 15  2  0
  1 18  1  0
  2 19  1  1
  3 20  1  0
  3 21  1  0
  4 22  1  0
  5 23  1  0
  5 24  1  0
  6 25  1  6
  7 26  1  0
  7 27  1  0
  9 28  1  0
 10 29  1  0
 17 30  1  0
M  ISO  8  18   5  19  13  20  13  21  13  22   5  23  13  24  13  25  13
M  ISO  5  26   5  27   5  28  14  29  14  30   3
M  END
>  <minimizedAffinity>  (1) 
-5.72557306

>  <minimizedRMSD>  (1) 
0.346615046

$$$$
