
     RDKit          3D

 25 26  0  0  0  0  0  0  0  0999 V2000
   37.4340   31.5570   49.1630 C   0  0  0  0  0  0  0  0  0  0  0  0
   38.2720   32.6080   49.4880 C   0  0  0  0  0  0  0  0  0  0  0  0
   38.9920   33.1160   48.4310 C   0  0  0  0  0  0  0  0  0  0  0  0
   38.8620   32.5990   47.1720 N   0  0  0  0  0  0  0  0  0  0  0  0
   38.0290   31.5720   46.9020 C   0  0  0  0  0  0  0  0  0  0  0  0
   37.2990   31.0410   47.9260 N   0  0  0  0  0  0  0  0  0  0  0  0
   36.5890   30.9660   50.2680 C   0  0  0  0  0  0  0  0  0  0  0  0
   36.0970   29.6310   50.2460 C   0  0  0  0  0  0  0  0  0  0  0  0
   37.3550   29.8850   51.0630 C   0  0  0  0  0  0  0  0  0  0  0  0
   37.8800   31.0310   45.5610 C   0  0  0  0  0  0  0  0  0  0  0  0
   39.9450   30.8550   44.2000 C   0  0  0  0  0  0  0  0  0  0  0  0
   39.8020   31.9330   43.5610 O   0  0  0  0  0  0  0  0  0  0  0  0
   39.1110   30.3430   45.2200 N   0  0  0  0  0  0  0  0  0  0  0  0
   41.0960   30.1750   43.7580 O   0  0  0  0  0  0  0  0  0  0  0  0
   38.3563   33.0062   50.5099 H   0  0  0  0  0  0  0  0  0  0  0  0
   39.6847   33.9532   48.6021 H   0  0  0  0  0  0  0  0  0  0  0  0
   36.0522   31.9099   50.4437 H   0  0  0  0  0  0  0  0  0  0  0  0
   35.1554   29.3929   50.7625 H   0  0  0  0  0  0  0  0  0  0  0  0
   35.8466   28.9282   49.4377 H   0  0  0  0  0  0  0  0  0  0  0  0
   38.3335   29.5201   50.7174 H   0  0  0  0  0  0  0  0  0  0  0  0
   37.6843   29.7322   52.1014 H   0  0  0  0  0  0  0  0  0  0  0  0
   37.0370   30.3248   45.5341 H   0  0  0  0  0  0  0  0  0  0  0  0
   37.6796   31.8385   44.8414 H   0  0  0  0  0  0  0  0  0  0  0  0
   39.3768   29.4828   45.7204 H   0  0  0  0  0  0  0  0  0  0  0  0
   41.6564   30.5647   43.0409 H   0  0  0  0  0  0  0  0  0  0  0  0
  1  2  2  0
  1  7  1  0
  3  2  1  0
  4  3  2  0
  5  4  1  0
  5  6  2  0
  6  1  1  0
  7  9  1  0
  8  7  1  0
  8  9  1  0
 10  5  1  0
 11 13  1  0
 12 11  2  0
 13 10  1  0
 14 11  1  0
  2 15  1  0
  3 16  1  0
  7 17  1  0
  8 18  1  0
  8 19  1  0
  9 20  1  0
  9 21  1  0
 10 22  1  0
 10 23  1  0
 13 24  1  0
 14 25  1  0
M  ISO  8  15  14  16  14  17  13  18  13  19  13  20  13  21  13  22   8
M  ISO  2  23   8  25   3
M  END
>  <minimizedAffinity>  (1) 
-4.91500235

>  <minimizedRMSD>  (1) 
1.01344192

$$$$
