
     RDKit          3D

 33 35  0  0  1  0  0  0  0  0999 V2000
   38.3790   31.8990   44.5060 C   0  0  0  0  0  0  0  0  0  0  0  0
   37.2580   32.4520   44.4010 O   0  0  0  0  0  0  0  0  0  0  0  0
   38.9550   31.6370   45.8090 N   0  0  0  0  0  0  0  0  0  0  0  0
   39.1500   31.4980   43.3140 C   0  0  0  0  0  0  0  0  0  0  0  0
   40.1480   30.5760   43.4530 C   0  0  0  0  0  0  0  0  0  0  0  0
   40.8540   30.2210   42.3160 C   0  0  0  0  0  0  0  0  0  0  0  0
   40.5160   30.8090   41.1240 C   0  0  0  0  0  0  0  0  0  0  0  0
   39.5020   31.7480   40.9810 C   0  0  0  0  0  0  0  0  0  0  0  0
   38.8440   32.0610   42.1140 N   0  0  0  0  0  0  0  0  0  0  0  0
   39.1920   32.3360   39.6850 C   0  0  0  0  0  0  0  0  0  0  0  0
   38.8290   33.5360   39.6370 O   0  0  0  0  0  0  0  0  0  0  0  0
   39.2920   31.5970   38.5350 O   0  0  0  0  0  0  0  0  0  0  0  0
   38.4460   31.1090   48.1810 C   0  0  2  0  0  0  0  0  0  0  0  0
   38.6910   32.5740   48.1090 C   0  0  0  0  0  0  0  0  0  0  0  0
   38.0840   31.7350   46.9520 C   0  0  1  0  0  0  0  0  0  0  0  0
   35.0700   30.2440   49.4880 C   0  0  0  0  0  0  0  0  0  0  0  0
   35.4030   29.5530   50.7020 C   0  0  0  0  0  0  0  0  0  0  0  0
   36.8070   29.4120   51.0480 C   0  0  0  0  0  0  0  0  0  0  0  0
   37.7550   29.9340   50.2130 N   0  0  0  0  0  0  0  0  0  0  0  0
   37.3610   30.5700   49.0880 C   0  0  0  0  0  0  0  0  0  0  0  0
   36.0390   30.7430   48.6960 N   0  0  0  0  0  0  0  0  0  0  0  0
   39.9494   31.3901   45.9142 H   0  0  0  0  0  0  0  0  0  0  0  0
   40.3822   30.1320   44.4318 H   0  0  0  0  0  0  0  0  0  0  0  0
   41.6683   29.4833   42.3677 H   0  0  0  0  0  0  0  0  0  0  0  0
   41.0822   30.5196   40.2264 H   0  0  0  0  0  0  0  0  0  0  0  0
   39.0781   32.0100   37.6611 H   0  0  0  0  0  0  0  0  0  0  0  0
   39.0914   30.2538   48.4300 H   0  0  0  0  0  0  0  0  0  0  0  0
   38.0662   33.2761   48.6806 H   0  0  0  0  0  0  0  0  0  0  0  0
   39.5478   33.2505   48.2440 H   0  0  0  0  0  0  0  0  0  0  0  0
   37.1624   31.7104   46.3520 H   0  0  0  0  0  0  0  0  0  0  0  0
   34.0149   30.3669   49.2023 H   0  0  0  0  0  0  0  0  0  0  0  0
   34.6167   29.1418   51.3521 H   0  0  0  0  0  0  0  0  0  0  0  0
   37.1035   28.8915   51.9706 H   0  0  0  0  0  0  0  0  0  0  0  0
  1  3  1  0
  2  1  2  0
  3 15  1  0
  4  5  2  0
  4  1  1  0
  6  5  1  0
  7  6  2  0
  8  7  1  0
  8  9  2  0
  9  4  1  0
 10  8  1  0
 11 10  2  0
 12 10  1  0
 13 20  1  0
 14 13  1  0
 15 14  1  0
 15 13  1  0
 16 17  2  0
 17 18  1  0
 19 18  2  0
 20 19  1  0
 21 20  2  0
 21 16  1  0
  3 22  1  0
  5 23  1  0
  6 24  1  0
  7 25  1  0
 12 26  1  0
 13 27  1  6
 14 28  1  0
 14 29  1  0
 15 30  1  6
 16 31  1  0
 17 32  1  0
 18 33  1  0
M  ISO  8  23  14  24  14  25  14  26   3  27  13  28  13  29  13  30  13
M  ISO  3  31  14  32  14  33  14
M  END
>  <minimizedAffinity>  (1) 
-5.02612066

>  <minimizedRMSD>  (1) 
0.0194060691

$$$$
