
     RDKit          3D

 38 41  0  0  0  0  0  0  0  0999 V2000
   36.0950   30.1420   48.8810 C   0  0  0  0  0  0  0  0  0  0  0  0
   36.0350   29.1720   49.7920 C   0  0  0  0  0  0  0  0  0  0  0  0
   34.9650   28.2970   49.7710 C   0  0  0  0  0  0  0  0  0  0  0  0
   34.0400   28.5030   48.7970 C   0  0  0  0  0  0  0  0  0  0  0  0
   34.6920   29.9460   47.9070 S   0  0  0  0  0  0  0  0  0  0  0  0
   32.8110   27.7540   48.5160 C   0  0  0  0  0  0  0  0  0  0  0  0
   32.8410   26.7460   47.5960 C   0  0  0  0  0  0  0  0  0  0  0  0
   31.6590   26.0760   47.3720 C   0  0  0  0  0  0  0  0  0  0  0  0
   30.5120   26.3980   48.0310 N   0  0  0  0  0  0  0  0  0  0  0  0
   30.5940   27.4220   48.9290 C   0  0  0  0  0  0  0  0  0  0  0  0
   31.7150   28.1170   49.1950 N   0  0  0  0  0  0  0  0  0  0  0  0
   29.3810   27.7380   49.6040 N   0  0  0  0  0  0  0  0  0  0  0  0
   28.4770   28.7190   49.0340 C   0  0  0  0  0  0  0  0  0  0  0  0
   27.4110   29.0260   50.0620 C   0  0  0  0  0  0  0  0  0  0  0  0
   26.7950   27.7830   50.3260 O   0  0  0  0  0  0  0  0  0  0  0  0
   27.6150   27.1320   51.2140 C   0  0  0  0  0  0  0  0  0  0  0  0
   29.0580   27.0790   50.8550 C   0  0  0  0  0  0  0  0  0  0  0  0
   38.0560   33.1650   49.4240 C   0  0  0  0  0  0  0  0  0  0  0  0
   39.0000   33.1430   48.4050 C   0  0  0  0  0  0  0  0  0  0  0  0
   38.9590   32.0660   47.5130 C   0  0  0  0  0  0  0  0  0  0  0  0
   38.0040   31.0950   47.6820 N   0  0  0  0  0  0  0  0  0  0  0  0
   37.1210   31.1840   48.6960 C   0  0  0  0  0  0  0  0  0  0  0  0
   37.1180   32.1900   49.5720 N   0  0  0  0  0  0  0  0  0  0  0  0
   36.8254   29.0688   50.5500 H   0  0  0  0  0  0  0  0  0  0  0  0
   34.8678   27.4802   50.5014 H   0  0  0  0  0  0  0  0  0  0  0  0
   33.7644   26.4818   47.0597 H   0  0  0  0  0  0  0  0  0  0  0  0
   31.6410   25.2562   46.6388 H   0  0  0  0  0  0  0  0  0  0  0  0
   29.0306   29.6364   48.7851 H   0  0  0  0  0  0  0  0  0  0  0  0
   28.0187   28.3269   48.1141 H   0  0  0  0  0  0  0  0  0  0  0  0
   27.8623   29.4368   50.9772 H   0  0  0  0  0  0  0  0  0  0  0  0
   26.6923   29.7773   49.7029 H   0  0  0  0  0  0  0  0  0  0  0  0
   27.5289   27.6404   52.1857 H   0  0  0  0  0  0  0  0  0  0  0  0
   27.2734   26.0864   51.2195 H   0  0  0  0  0  0  0  0  0  0  0  0
   29.3560   26.0230   50.7763 H   0  0  0  0  0  0  0  0  0  0  0  0
   29.6019   27.6158   51.6462 H   0  0  0  0  0  0  0  0  0  0  0  0
   38.0671   34.0018   50.1380 H   0  0  0  0  0  0  0  0  0  0  0  0
   39.7502   33.9410   48.3035 H   0  0  0  0  0  0  0  0  0  0  0  0
   39.6826   31.9984   46.6872 H   0  0  0  0  0  0  0  0  0  0  0  0
  1  2  2  0
  3  2  1  0
  4  3  2  0
  5  4  1  0
  5  1  1  0
  6  4  1  0
  6 11  1  0
  7  6  2  0
  8  7  1  0
  8  9  2  0
  9 10  1  0
 10 11  2  0
 10 12  1  0
 12 17  1  0
 13 12  1  0
 13 14  1  0
 14 15  1  0
 15 16  1  0
 17 16  1  0
 18 23  2  0
 19 18  1  0
 20 21  1  0
 20 19  2  0
 21 22  2  0
 22  1  1  0
 22 23  1  0
  2 24  1  0
  3 25  1  0
  7 26  1  0
  8 27  1  0
 13 28  1  0
 13 29  1  0
 14 30  1  0
 14 31  1  0
 16 32  1  0
 16 33  1  0
 17 34  1  0
 17 35  1  0
 18 36  1  0
 19 37  1  0
 20 38  1  0
M  ISO  8  24  14  25  14  26  14  27  14  28  13  29  13  30  13  31  13
M  ISO  7  32  13  33  13  34  13  35  13  36  14  37  14  38  14
M  END
>  <minimizedAffinity>  (1) 
-7.3066597

>  <minimizedRMSD>  (1) 
0.675812602

$$$$
