
     RDKit          3D

 39 41  0  0  1  0  0  0  0  0999 V2000
   35.7790   29.5460   48.7900 N   0  0  0  0  0  0  0  0  0  0  0  0
   36.5110   28.8060   49.7970 C   0  0  0  0  0  0  0  0  0  0  0  0
   37.0350   29.5730   50.9430 C   0  0  0  0  0  0  0  0  0  0  0  0
   37.3130   31.0090   50.7640 C   0  0  0  0  0  0  0  0  0  0  0  0
   36.5650   31.6590   49.6190 C   0  0  0  0  0  0  0  0  0  0  0  0
   36.5490   30.7090   48.4340 C   0  0  1  0  0  0  0  0  0  0  0  0
   34.5060   29.1620   48.2570 C   0  0  0  0  0  0  0  0  0  0  0  0
   33.9760   29.6640   47.0710 C   0  0  0  0  0  0  0  0  0  0  0  0
   32.7290   29.2080   46.6650 C   0  0  0  0  0  0  0  0  0  0  0  0
   32.0950   28.2910   47.4570 N   0  0  0  0  0  0  0  0  0  0  0  0
   32.6370   27.8340   48.5900 C   0  0  0  0  0  0  0  0  0  0  0  0
   33.8430   28.2710   48.9880 N   0  0  0  0  0  0  0  0  0  0  0  0
   37.8970   30.3690   48.2050 O   0  0  0  0  0  0  0  0  0  0  0  0
   37.0730   31.2680   46.2340 N   0  0  0  0  0  0  0  0  0  0  0  0
   38.2370   30.6950   46.8830 C   0  0  1  0  0  0  0  0  0  0  0  0
   39.3880   31.6430   46.7830 C   0  0  0  0  0  0  0  0  0  0  0  0
   39.0250   32.7970   46.0530 O   0  0  0  0  0  0  0  0  0  0  0  0
   38.6630   32.4060   44.7700 C   0  0  0  0  0  0  0  0  0  0  0  0
   37.4360   31.5320   44.8340 C   0  0  0  0  0  0  0  0  0  0  0  0
   35.8378   28.0326   50.1953 H   0  0  0  0  0  0  0  0  0  0  0  0
   37.4021   28.4227   49.2784 H   0  0  0  0  0  0  0  0  0  0  0  0
   36.2993   29.4842   51.7559 H   0  0  0  0  0  0  0  0  0  0  0  0
   38.0242   29.1303   51.1316 H   0  0  0  0  0  0  0  0  0  0  0  0
   37.0379   31.5299   51.6929 H   0  0  0  0  0  0  0  0  0  0  0  0
   38.3832   31.0912   50.5233 H   0  0  0  0  0  0  0  0  0  0  0  0
   35.5328   31.8776   49.9300 H   0  0  0  0  0  0  0  0  0  0  0  0
   37.0638   32.5975   49.3353 H   0  0  0  0  0  0  0  0  0  0  0  0
   36.0985   31.1505   47.5328 H   0  0  0  0  0  0  0  0  0  0  0  0
   34.5302   30.4017   46.4722 H   0  0  0  0  0  0  0  0  0  0  0  0
   32.2660   29.5726   45.7362 H   0  0  0  0  0  0  0  0  0  0  0  0
   32.0931   27.0969   49.1990 H   0  0  0  0  0  0  0  0  0  0  0  0
   36.2854   30.6055   46.2746 H   0  0  0  0  0  0  0  0  0  0  0  0
   38.5564   29.7675   46.3853 H   0  0  0  0  0  0  0  0  0  0  0  0
   39.6999   31.9398   47.7953 H   0  0  0  0  0  0  0  0  0  0  0  0
   40.2147   31.1402   46.2599 H   0  0  0  0  0  0  0  0  0  0  0  0
   39.4897   31.8432   44.3120 H   0  0  0  0  0  0  0  0  0  0  0  0
   38.4445   33.2981   44.1646 H   0  0  0  0  0  0  0  0  0  0  0  0
   36.6004   32.0415   44.3319 H   0  0  0  0  0  0  0  0  0  0  0  0
   37.6494   30.5766   44.3323 H   0  0  0  0  0  0  0  0  0  0  0  0
  1  2  1  0
  2  3  1  0
  4  3  1  0
  5  4  1  0
  6  1  1  0
  6  5  1  0
  7  1  1  0
  7 12  1  0
  8  7  2  0
  9  8  1  0
  9 10  2  0
 10 11  1  0
 11 12  2  0
 13  6  1  0
 14 15  1  0
 15 13  1  0
 16 15  1  0
 17 16  1  0
 18 19  1  0
 18 17  1  0
 19 14  1  0
  2 20  1  0
  2 21  1  0
  3 22  1  0
  3 23  1  0
  4 24  1  0
  4 25  1  0
  5 26  1  0
  5 27  1  0
  6 28  1  6
  8 29  1  0
  9 30  1  0
 11 31  1  0
 14 32  1  0
 15 33  1  6
 16 34  1  0
 16 35  1  0
 18 36  1  0
 18 37  1  0
 19 38  1  0
 19 39  1  0
M  ISO  8  20  13  21  13  22  13  23  13  24  13  25  13  26  13  27  13
M  ISO  8  28  13  29  14  30  14  31  14  32   5  33  13  34  13  35  13
M  ISO  4  36  13  37  13  38  13  39  13
M  END
>  <minimizedAffinity>  (1) 
-5.61304617

>  <minimizedRMSD>  (1) 
0.493202686

$$$$
