
     RDKit          3D

 38 40  0  0  0  0  0  0  0  0999 V2000
   37.6890   31.7210   47.6950 C   0  0  0  0  0  0  0  0  0  0  0  0
   37.8950   32.4620   48.8760 C   0  0  0  0  0  0  0  0  0  0  0  0
   38.8960   33.3970   48.9440 C   0  0  0  0  0  0  0  0  0  0  0  0
   39.6670   33.5680   47.8240 C   0  0  0  0  0  0  0  0  0  0  0  0
   39.4570   32.8470   46.6920 C   0  0  0  0  0  0  0  0  0  0  0  0
   38.4740   31.9220   46.6090 N   0  0  0  0  0  0  0  0  0  0  0  0
   36.6200   30.7570   47.6950 C   0  0  0  0  0  0  0  0  0  0  0  0
   36.1400   30.3530   46.6350 O   0  0  0  0  0  0  0  0  0  0  0  0
   36.9290   29.6010   49.8490 C   0  0  0  0  0  0  0  0  0  0  0  0
   36.0570   30.2140   48.9260 C   0  0  0  0  0  0  0  0  0  0  0  0
   34.6940   30.2740   49.2320 C   0  0  0  0  0  0  0  0  0  0  0  0
   34.2470   29.7410   50.4080 N   0  0  0  0  0  0  0  0  0  0  0  0
   35.1300   29.1540   51.2750 C   0  0  0  0  0  0  0  0  0  0  0  0
   36.4330   29.0870   50.9990 N   0  0  0  0  0  0  0  0  0  0  0  0
   40.4730   33.0670   45.2060 S   0  0  0  0  0  0  0  0  0  0  0  0
   40.5200   31.4420   44.3990 C   0  0  0  0  0  0  0  0  0  0  0  0
   39.6020   31.3580   43.2780 N   0  0  0  0  0  0  0  0  0  0  0  0
   40.2830   30.8730   42.1280 C   0  0  0  0  0  0  0  0  0  0  0  0
   39.7700   31.3240   40.8080 C   0  0  0  0  0  0  0  0  0  0  0  0
   38.7530   32.2400   40.8190 O   0  0  0  0  0  0  0  0  0  0  0  0
   39.0640   33.1980   41.7860 C   0  0  0  0  0  0  0  0  0  0  0  0
   38.8030   32.5240   43.1180 C   0  0  0  0  0  0  0  0  0  0  0  0
   37.2486   32.2892   49.7491 H   0  0  0  0  0  0  0  0  0  0  0  0
   39.0723   33.9839   49.8575 H   0  0  0  0  0  0  0  0  0  0  0  0
   40.4788   34.3100   47.8422 H   0  0  0  0  0  0  0  0  0  0  0  0
   38.0065   29.5407   49.6358 H   0  0  0  0  0  0  0  0  0  0  0  0
   33.9882   30.7459   48.5326 H   0  0  0  0  0  0  0  0  0  0  0  0
   34.7567   28.7291   52.2184 H   0  0  0  0  0  0  0  0  0  0  0  0
   41.5413   31.2572   44.0347 H   0  0  0  0  0  0  0  0  0  0  0  0
   40.2160   30.6886   45.1406 H   0  0  0  0  0  0  0  0  0  0  0  0
   41.3332   31.1913   42.2037 H   0  0  0  0  0  0  0  0  0  0  0  0
   40.1307   29.7837   42.1402 H   0  0  0  0  0  0  0  0  0  0  0  0
   39.4104   30.4347   40.2697 H   0  0  0  0  0  0  0  0  0  0  0  0
   40.6166   31.8411   40.3328 H   0  0  0  0  0  0  0  0  0  0  0  0
   40.1196   33.4970   41.7062 H   0  0  0  0  0  0  0  0  0  0  0  0
   38.4635   34.1116   41.6650 H   0  0  0  0  0  0  0  0  0  0  0  0
   39.0361   33.2309   43.9280 H   0  0  0  0  0  0  0  0  0  0  0  0
   37.7451   32.2246   43.1517 H   0  0  0  0  0  0  0  0  0  0  0  0
  1  2  2  0
  2  3  1  0
  4  3  2  0
  5  4  1  0
  6  5  2  0
  6  1  1  0
  7  1  1  0
  7 10  1  0
  8  7  2  0
  9 14  2  0
 10 11  2  0
 10  9  1  0
 11 12  1  0
 12 13  2  0
 14 13  1  0
 15  5  1  0
 16 15  1  0
 17 16  1  0
 18 17  1  0
 19 20  1  0
 19 18  1  0
 20 21  1  0
 21 22  1  0
 22 17  1  0
  2 23  1  0
  3 24  1  0
  4 25  1  0
  9 26  1  0
 11 27  1  0
 13 28  1  0
 16 29  1  0
 16 30  1  0
 18 31  1  0
 18 32  1  0
 19 33  1  0
 19 34  1  0
 21 35  1  0
 21 36  1  0
 22 37  1  0
 22 38  1  0
M  ISO  8  23  14  24  14  25  14  26  14  27  14  28  14  29   8  30   8
M  ISO  8  31  13  32  13  33  13  34  13  35  13  36  13  37  13  38  13
M  END
>  <minimizedAffinity>  (1) 
-5.3009963

>  <minimizedRMSD>  (1) 
2.21100307

$$$$
