
     RDKit          3D

 33 35  0  0  0  0  0  0  0  0999 V2000
   38.1310   30.9820   47.8280 Br  0  0  0  0  0  0  0  0  0  0  0  0
   36.7220   30.4750   46.6300 C   0  0  0  0  0  0  0  0  0  0  0  0
   35.5680   29.9110   47.1350 C   0  0  0  0  0  0  0  0  0  0  0  0
   34.5750   29.5590   46.2340 C   0  0  0  0  0  0  0  0  0  0  0  0
   34.7540   29.7730   44.8860 C   0  0  0  0  0  0  0  0  0  0  0  0
   35.9230   30.3430   44.3770 C   0  0  0  0  0  0  0  0  0  0  0  0
   36.9060   30.6900   45.2860 C   0  0  0  0  0  0  0  0  0  0  0  0
   36.4630   29.1080   50.7250 C   0  0  0  0  0  0  0  0  0  0  0  0
   36.5510   29.2840   49.3460 C   0  0  0  0  0  0  0  0  0  0  0  0
   35.4780   29.7280   48.5740 C   0  0  0  0  0  0  0  0  0  0  0  0
   34.3450   29.9740   49.2750 N   0  0  0  0  0  0  0  0  0  0  0  0
   34.2590   29.8060   50.6050 C   0  0  0  0  0  0  0  0  0  0  0  0
   35.2990   29.3800   51.3210 N   0  0  0  0  0  0  0  0  0  0  0  0
   38.0830   31.2690   44.7310 N   0  0  0  0  0  0  0  0  0  0  0  0
   38.2400   32.6950   44.4940 C   0  0  0  0  0  0  0  0  0  0  0  0
   39.1260   32.8090   43.2910 C   0  0  0  0  0  0  0  0  0  0  0  0
   40.3550   32.2260   43.3930 O   0  0  0  0  0  0  0  0  0  0  0  0
   40.4420   31.0480   44.0770 C   0  0  0  0  0  0  0  0  0  0  0  0
   39.1570   30.3660   44.3990 C   0  0  0  0  0  0  0  0  0  0  0  0
   33.6404   29.1069   46.5976 H   0  0  0  0  0  0  0  0  0  0  0  0
   33.9526   29.4866   44.1891 H   0  0  0  0  0  0  0  0  0  0  0  0
   36.0564   30.5091   43.2978 H   0  0  0  0  0  0  0  0  0  0  0  0
   37.3274   28.7551   51.3065 H   0  0  0  0  0  0  0  0  0  0  0  0
   37.5056   29.0638   48.8458 H   0  0  0  0  0  0  0  0  0  0  0  0
   33.3090   30.0250   51.1144 H   0  0  0  0  0  0  0  0  0  0  0  0
   37.2634   33.1612   44.2970 H   0  0  0  0  0  0  0  0  0  0  0  0
   38.6711   33.2074   45.3667 H   0  0  0  0  0  0  0  0  0  0  0  0
   39.2777   33.8790   43.0856 H   0  0  0  0  0  0  0  0  0  0  0  0
   38.6064   32.2643   42.4889 H   0  0  0  0  0  0  0  0  0  0  0  0
   41.0451   30.3548   43.4721 H   0  0  0  0  0  0  0  0  0  0  0  0
   40.8826   31.3101   45.0502 H   0  0  0  0  0  0  0  0  0  0  0  0
   38.8520   29.7716   43.5251 H   0  0  0  0  0  0  0  0  0  0  0  0
   39.3392   29.7459   45.2891 H   0  0  0  0  0  0  0  0  0  0  0  0
  2  3  2  0
  2  1  1  0
  3 10  1  0
  4  3  1  0
  5  4  2  0
  6  5  1  0
  6  7  2  0
  7  2  1  0
  8 13  2  0
  9  8  1  0
 10 11  1  0
 10  9  2  0
 11 12  2  0
 12 13  1  0
 14  7  1  0
 15 14  1  0
 16 17  1  0
 16 15  1  0
 17 18  1  0
 18 19  1  0
 19 14  1  0
  4 20  1  0
  5 21  1  0
  6 22  1  0
  8 23  1  0
  9 24  1  0
 12 25  1  0
 15 26  1  0
 15 27  1  0
 16 28  1  0
 16 29  1  0
 18 30  1  0
 18 31  1  0
 19 32  1  0
 19 33  1  0
M  ISO  8  20  14  21  14  22  14  23  14  24  14  25  14  26  13  27  13
M  ISO  6  28  13  29  13  30  13  31  13  32  13  33  13
M  END
>  <minimizedAffinity>  (1) 
-4.96429586

>  <minimizedRMSD>  (1) 
4.0833559

$$$$
