
     RDKit          3D

 49 52  0  0  1  0  0  0  0  0999 V2000
   36.5330   30.2040   46.0310 C   0  0  1  0  0  0  0  0  0  0  0  0
   35.1390   30.2090   45.3470 C   0  0  0  0  0  0  0  0  0  0  0  0
   35.3590   29.3450   44.0880 C   0  0  0  0  0  0  0  0  0  0  0  0
   36.1840   30.1780   43.1650 C   0  0  0  0  0  0  0  0  0  0  0  0
   37.5170   30.4960   43.8000 C   0  0  0  0  0  0  0  0  0  0  0  0
   37.3730   31.0980   45.1690 C   0  0  2  0  0  0  0  0  0  0  0  0
   35.5740   30.1550   48.3500 C   0  0  0  0  0  0  0  0  0  0  0  0
   35.6060   30.5900   49.6680 C   0  0  0  0  0  0  0  0  0  0  0  0
   36.5460   31.5470   50.0740 C   0  0  0  0  0  0  0  0  0  0  0  0
   37.4240   32.0280   49.1190 C   0  0  0  0  0  0  0  0  0  0  0  0
   37.4000   31.6030   47.8160 C   0  0  0  0  0  0  0  0  0  0  0  0
   36.4470   30.6390   47.4250 C   0  0  0  0  0  0  0  0  0  0  0  0
   33.5800   26.9690   47.9760 C   0  0  0  0  0  0  0  0  0  0  0  0
   34.6550   27.8170   48.3080 C   0  0  0  0  0  0  0  0  0  0  0  0
   34.5440   29.1810   48.0470 C   0  0  0  0  0  0  0  0  0  0  0  0
   33.3930   29.5910   47.4830 N   0  0  0  0  0  0  0  0  0  0  0  0
   32.3680   28.7790   47.1650 C   0  0  0  0  0  0  0  0  0  0  0  0
   32.4690   27.4820   47.4130 N   0  0  0  0  0  0  0  0  0  0  0  0
   38.6380   31.4220   45.7210 N   0  0  0  0  0  0  0  0  0  0  0  0
   38.9440   32.8040   45.5570 C   0  0  0  0  0  0  0  0  0  0  0  0
   40.0260   33.0040   44.5220 C   0  0  0  0  0  0  0  0  0  0  0  0
   41.2090   32.4320   44.9690 O   0  0  0  0  0  0  0  0  0  0  0  0
   41.0550   31.1890   45.5410 C   0  0  0  0  0  0  0  0  0  0  0  0
   39.7120   30.5550   45.3280 C   0  0  0  0  0  0  0  0  0  0  0  0
   36.9767   29.1999   46.1010 H   0  0  0  0  0  0  0  0  0  0  0  0
   34.3766   29.7631   46.0027 H   0  0  0  0  0  0  0  0  0  0  0  0
   34.7760   31.2215   45.1165 H   0  0  0  0  0  0  0  0  0  0  0  0
   35.8915   28.4181   44.3473 H   0  0  0  0  0  0  0  0  0  0  0  0
   34.4051   29.0510   43.6259 H   0  0  0  0  0  0  0  0  0  0  0  0
   35.6517   31.1160   42.9484 H   0  0  0  0  0  0  0  0  0  0  0  0
   36.3547   29.6191   42.2330 H   0  0  0  0  0  0  0  0  0  0  0  0
   38.0990   29.5663   43.8829 H   0  0  0  0  0  0  0  0  0  0  0  0
   38.0237   31.2347   43.1616 H   0  0  0  0  0  0  0  0  0  0  0  0
   36.8388   32.0573   45.1027 H   0  0  0  0  0  0  0  0  0  0  0  0
   34.8904   30.1817   50.3969 H   0  0  0  0  0  0  0  0  0  0  0  0
   36.5843   31.9028   51.1142 H   0  0  0  0  0  0  0  0  0  0  0  0
   38.1696   32.7800   49.4166 H   0  0  0  0  0  0  0  0  0  0  0  0
   38.1146   32.0084   47.0846 H   0  0  0  0  0  0  0  0  0  0  0  0
   33.6479   25.8895   48.1763 H   0  0  0  0  0  0  0  0  0  0  0  0
   35.5678   27.4085   48.7662 H   0  0  0  0  0  0  0  0  0  0  0  0
   31.4567   29.1879   46.7043 H   0  0  0  0  0  0  0  0  0  0  0  0
   38.0369   33.3368   45.2356 H   0  0  0  0  0  0  0  0  0  0  0  0
   39.3044   33.1978   46.5188 H   0  0  0  0  0  0  0  0  0  0  0  0
   40.1796   34.0805   44.3562 H   0  0  0  0  0  0  0  0  0  0  0  0
   39.7225   32.5260   43.5790 H   0  0  0  0  0  0  0  0  0  0  0  0
   41.8189   30.5210   45.1165 H   0  0  0  0  0  0  0  0  0  0  0  0
   41.1572   31.3353   46.6264 H   0  0  0  0  0  0  0  0  0  0  0  0
   39.6576   29.6309   45.9222 H   0  0  0  0  0  0  0  0  0  0  0  0
   39.6026   30.3453   44.2537 H   0  0  0  0  0  0  0  0  0  0  0  0
  1 12  1  0
  2  1  1  0
  3  2  1  0
  4  5  1  0
  4  3  1  0
  5  6  1  0
  6 19  1  0
  6  1  1  0
  7  8  2  0
  8  9  1  0
 10  9  2  0
 11 10  1  0
 12 11  2  0
 12  7  1  0
 13 14  2  0
 15 14  1  0
 15  7  1  0
 16 15  2  0
 17 18  2  0
 17 16  1  0
 18 13  1  0
 19 24  1  0
 20 19  1  0
 21 22  1  0
 21 20  1  0
 22 23  1  0
 24 23  1  0
  1 25  1  1
  2 26  1  0
  2 27  1  0
  3 28  1  0
  3 29  1  0
  4 30  1  0
  4 31  1  0
  5 32  1  0
  5 33  1  0
  6 34  1  6
  8 35  1  0
  9 36  1  0
 10 37  1  0
 11 38  1  0
 13 39  1  0
 14 40  1  0
 17 41  1  0
 20 42  1  0
 20 43  1  0
 21 44  1  0
 21 45  1  0
 23 46  1  0
 23 47  1  0
 24 48  1  0
 24 49  1  0
M  ISO  8  25  13  26  13  27  13  28  13  29  13  30  13  31  13  32  13
M  ISO  8  33  13  34  13  35  14  36  14  37  14  38  14  39  14  40  14
M  ISO  8  41  14  42  13  43  13  44  13  45  13  46  13  47  13  48  13
M  ISO  1  49  13
M  END
>  <minimizedAffinity>  (1) 
-5.83841038

>  <minimizedRMSD>  (1) 
3.43596578

$$$$
