
     RDKit          3D

 55 59  0  0  1  0  0  0  0  0999 V2000
   39.1680   32.2120   42.5780 C   0  0  0  0  0  0  0  0  0  0  0  0
   39.7040   31.5220   43.6320 C   0  0  0  0  0  0  0  0  0  0  0  0
   40.6020   30.4980   43.4680 C   0  0  0  0  0  0  0  0  0  0  0  0
   40.9970   30.1330   42.1860 C   0  0  0  0  0  0  0  0  0  0  0  0
   41.8320   29.2030   41.7220 N   0  0  0  0  0  0  0  0  0  0  0  0
   41.8400   29.2870   40.4040 C   0  0  0  0  0  0  0  0  0  0  0  0
   41.0110   30.2680   40.0240 N   0  0  0  0  0  0  0  0  0  0  0  0
   40.4500   30.8370   41.1230 C   0  0  0  0  0  0  0  0  0  0  0  0
   39.5350   31.8790   41.2680 C   0  0  0  0  0  0  0  0  0  0  0  0
   39.2830   31.9110   44.9620 C   0  0  0  0  0  0  0  0  0  0  0  0
   38.1780   32.5560   45.0800 O   0  0  0  0  0  0  0  0  0  0  0  0
   39.9750   31.6500   46.1650 N   0  0  0  0  0  0  0  0  0  0  0  0
   38.1190   30.1530   47.4980 F   0  0  0  0  0  0  0  0  0  0  0  0
   38.3720   31.3960   47.9940 C   0  0  0  0  0  0  0  0  0  0  0  0
   37.7120   31.8390   49.1040 C   0  0  0  0  0  0  0  0  0  0  0  0
   38.0150   33.1000   49.5480 C   0  0  0  0  0  0  0  0  0  0  0  0
   38.9340   33.8990   48.9270 C   0  0  0  0  0  0  0  0  0  0  0  0
   39.5990   33.4300   47.7950 C   0  0  0  0  0  0  0  0  0  0  0  0
   39.3050   32.1600   47.3310 C   0  0  0  0  0  0  0  0  0  0  0  0
   36.0720   29.3470   51.4520 C   0  0  0  0  0  0  0  0  0  0  0  0
   37.0360   30.2120   50.8690 C   0  0  0  0  0  0  0  0  0  0  0  0
   36.7380   30.9390   49.7290 C   0  0  0  0  0  0  0  0  0  0  0  0
   35.4880   30.7870   49.2010 N   0  0  0  0  0  0  0  0  0  0  0  0
   34.5760   29.9680   49.7560 C   0  0  0  0  0  0  0  0  0  0  0  0
   34.8640   29.2680   50.8530 N   0  0  0  0  0  0  0  0  0  0  0  0
   39.0190   32.5490   40.2010 O   0  0  0  0  0  0  0  0  0  0  0  0
   37.8880   34.2510   38.9030 C   0  0  2  0  0  0  0  0  0  0  0  0
   37.8830   33.3050   40.1180 C   0  0  1  0  0  0  0  0  0  0  0  0
   36.7000   32.5510   40.1120 O   0  0  0  0  0  0  0  0  0  0  0  0
   36.3720   32.0660   38.8500 C   0  0  0  0  0  0  0  0  0  0  0  0
   35.9790   33.1730   37.9010 C   0  0  2  0  0  0  0  0  0  0  0  0
   36.4320   34.4770   38.5510 C   0  0  1  0  0  0  0  0  0  0  0  0
   38.4900   33.6590   37.7960 O   0  0  0  0  0  0  0  0  0  0  0  0
   34.6570   33.1700   37.5370 O   0  0  0  0  0  0  0  0  0  0  0  0
   35.6580   34.7720   39.6710 O   0  0  0  0  0  0  0  0  0  0  0  0
   38.4508   33.0260   42.7596 H   0  0  0  0  0  0  0  0  0  0  0  0
   41.0064   29.9698   44.3441 H   0  0  0  0  0  0  0  0  0  0  0  0
   42.3746   28.5372   42.2905 H   0  0  0  0  0  0  0  0  0  0  0  0
   42.4321   28.6534   39.7273 H   0  0  0  0  0  0  0  0  0  0  0  0
   40.8714   31.1441   46.2036 H   0  0  0  0  0  0  0  0  0  0  0  0
   37.4980   33.4843   50.4396 H   0  0  0  0  0  0  0  0  0  0  0  0
   39.1473   34.9049   49.3177 H   0  0  0  0  0  0  0  0  0  0  0  0
   40.3425   34.0570   47.2810 H   0  0  0  0  0  0  0  0  0  0  0  0
   36.3004   28.7640   52.3564 H   0  0  0  0  0  0  0  0  0  0  0  0
   38.0310   30.3054   51.3286 H   0  0  0  0  0  0  0  0  0  0  0  0
   33.5800   29.8750   49.2985 H   0  0  0  0  0  0  0  0  0  0  0  0
   38.4378   35.1713   39.1495 H   0  0  0  0  0  0  0  0  0  0  0  0
   37.8944   33.9044   41.0403 H   0  0  0  0  0  0  0  0  0  0  0  0
   37.2427   31.5364   38.4361 H   0  0  0  0  0  0  0  0  0  0  0  0
   35.5100   31.3916   38.9596 H   0  0  0  0  0  0  0  0  0  0  0  0
   36.4788   33.0264   36.9321 H   0  0  0  0  0  0  0  0  0  0  0  0
   36.3132   35.3432   37.8835 H   0  0  0  0  0  0  0  0  0  0  0  0
   39.1618   32.9983   38.0997 H   0  0  0  0  0  0  0  0  0  0  0  0
   34.0911   33.1687   38.3493 H   0  0  0  0  0  0  0  0  0  0  0  0
   36.1759   34.5746   40.4913 H   0  0  0  0  0  0  0  0  0  0  0  0
  1  2  2  0
  2 10  1  0
  3  2  1  0
  4  3  2  0
  5  4  1  0
  6  5  1  0
  7  6  2  0
  7  8  1  0
  8  9  2  0
  8  4  1  0
  9  1  1  0
 10 11  2  0
 10 12  1  0
 12 19  1  0
 13 14  1  0
 14 15  2  0
 15 16  1  0
 15 22  1  0
 17 16  2  0
 18 17  1  0
 19 18  2  0
 19 14  1  0
 21 20  2  0
 22 21  1  0
 23 22  2  0
 23 24  1  0
 24 25  2  0
 25 20  1  0
 26  9  1  0
 27 33  1  0
 27 28  1  0
 28 26  1  0
 29 28  1  0
 30 29  1  0
 31 34  1  0
 31 32  1  0
 31 30  1  0
 32 27  1  0
 32 35  1  0
  1 36  1  0
  3 37  1  0
  5 38  1  0
  6 39  1  0
 12 40  1  0
 16 41  1  0
 17 42  1  0
 18 43  1  0
 20 44  1  0
 21 45  1  0
 24 46  1  0
 27 47  1  1
 28 48  1  1
 30 49  1  0
 30 50  1  0
 31 51  1  6
 32 52  1  6
 33 53  1  0
 34 54  1  0
 35 55  1  0
M  ISO  8  36  14  37  14  38   9  39  14  41  14  42  14  43  14  44  14
M  ISO  8  45  14  46  14  47  13  48  13  49  13  50  13  51  13  52  13
M  ISO  3  53   3  54   3  55   3
M  END
>  <minimizedAffinity>  (1) 
-7.40042067

>  <minimizedRMSD>  (1) 
0.837146819

$$$$
