
     RDKit          3D

 33 34  0  0  1  0  0  0  0  0999 V2000
   38.8320   32.8290   47.9300 O   0  0  0  0  0  0  0  0  0  0  0  0
   38.5940   31.7100   46.9810 P   0  0  2  0  0  0  0  0  0  0  0  0
   37.5580   32.2100   45.7350 O   0  0  0  0  0  0  0  0  0  0  0  0
   38.0160   30.2860   47.6930 O   0  0  0  0  0  0  0  0  0  0  0  0
   37.3470   30.2430   51.3410 C   0  0  0  0  0  0  0  0  0  0  0  0
   38.0450   30.5390   50.1720 C   0  0  0  0  0  0  0  0  0  0  0  0
   37.5160   30.1130   48.9410 C   0  0  0  0  0  0  0  0  0  0  0  0
   36.3450   29.4300   48.9700 N   0  0  0  0  0  0  0  0  0  0  0  0
   35.6990   29.1630   50.1270 C   0  0  0  0  0  0  0  0  0  0  0  0
   36.2000   29.5690   51.3040 N   0  0  0  0  0  0  0  0  0  0  0  0
   40.0820   31.3560   46.2450 O   0  0  0  0  0  0  0  0  0  0  0  0
   39.7600   30.3850   44.1650 C   0  0  2  0  0  0  0  0  0  0  0  0
   40.0960   31.6760   44.8920 C   0  0  1  0  0  0  0  0  0  0  0  0
   39.0540   32.5660   44.6560 O   0  0  0  0  0  0  0  0  0  0  0  0
   39.0680   33.0650   43.3620 C   0  0  0  0  0  0  0  0  0  0  0  0
   39.7580   32.1420   42.3900 C   0  0  1  0  0  0  0  0  0  0  0  0
   39.5590   30.6920   42.7220 C   0  0  2  0  0  0  0  0  0  0  0  0
   38.5930   29.8680   44.7060 O   0  0  0  0  0  0  0  0  0  0  0  0
   39.1770   32.3430   41.1310 O   0  0  0  0  0  0  0  0  0  0  0  0
   38.3420   30.2190   42.3000 O   0  0  0  0  0  0  0  0  0  0  0  0
   36.7388   32.6054   46.1257 H   0  0  0  0  0  0  0  0  0  0  0  0
   37.7505   30.5717   52.3101 H   0  0  0  0  0  0  0  0  0  0  0  0
   38.9928   31.0959   50.2115 H   0  0  0  0  0  0  0  0  0  0  0  0
   34.7508   28.6060   50.1035 H   0  0  0  0  0  0  0  0  0  0  0  0
   40.5721   29.6509   44.2729 H   0  0  0  0  0  0  0  0  0  0  0  0
   41.0567   32.1070   44.5737 H   0  0  0  0  0  0  0  0  0  0  0  0
   38.0296   33.2126   43.0305 H   0  0  0  0  0  0  0  0  0  0  0  0
   39.6287   34.0113   43.3768 H   0  0  0  0  0  0  0  0  0  0  0  0
   40.8341   32.3674   42.4249 H   0  0  0  0  0  0  0  0  0  0  0  0
   40.3457   30.1645   42.1626 H   0  0  0  0  0  0  0  0  0  0  0  0
   38.6482   29.8925   45.6942 H   0  0  0  0  0  0  0  0  0  0  0  0
   38.2475   32.6646   41.2440 H   0  0  0  0  0  0  0  0  0  0  0  0
   37.7818   30.0013   43.0867 H   0  0  0  0  0  0  0  0  0  0  0  0
  2  4  1  0
  2  1  2  0
  3  2  1  0
  4  7  1  0
  6  5  2  0
  7  8  2  0
  7  6  1  0
  8  9  1  0
  9 10  2  0
 10  5  1  0
 11  2  1  0
 12 18  1  0
 12 13  1  0
 13 11  1  0
 14 13  1  0
 15 14  1  0
 16 19  1  0
 16 17  1  0
 16 15  1  0
 17 20  1  0
 17 12  1  0
  3 21  1  0
  5 22  1  0
  6 23  1  0
  9 24  1  0
 12 25  1  6
 13 26  1  6
 15 27  1  0
 15 28  1  0
 16 29  1  6
 17 30  1  6
 18 31  1  0
 19 32  1  0
 20 33  1  0
M  ISO  8  21   3  22  14  23  14  24  14  25  13  26  13  27  13  28  13
M  ISO  5  29  13  30  13  31   3  32   3  33   3
M  END
>  <minimizedAffinity>  (1) 
-5.57615995

>  <minimizedRMSD>  (1) 
1.85859489

$$$$
