
     RDKit          3D

 33 34  0  0  1  0  0  0  0  0999 V2000
   35.1780   29.9650   46.4210 O   0  0  0  0  0  0  0  0  0  0  0  0
   34.2610   29.4740   47.5180 P   0  0  1  0  0  0  0  0  0  0  0  0
   34.6140   27.8510   47.9060 O   0  0  0  0  0  0  0  0  0  0  0  0
   34.4470   30.3540   48.9680 O   0  0  0  0  0  0  0  0  0  0  0  0
   35.6260   30.3510   49.6960 C   0  0  0  0  0  0  0  0  0  0  0  0
   35.9210   29.4900   50.7590 C   0  0  0  0  0  0  0  0  0  0  0  0
   37.1490   29.6140   51.3860 C   0  0  0  0  0  0  0  0  0  0  0  0
   38.0300   30.5660   50.9510 N   0  0  0  0  0  0  0  0  0  0  0  0
   37.7130   31.3940   49.9080 C   0  0  0  0  0  0  0  0  0  0  0  0
   36.5110   31.2710   49.2980 N   0  0  0  0  0  0  0  0  0  0  0  0
   32.6880   29.6340   46.9440 O   0  0  0  0  0  0  0  0  0  0  0  0
   32.3130   27.6700   48.2880 C   0  0  2  0  0  0  0  0  0  0  0  0
   32.0870   28.3800   46.9700 C   0  0  2  0  0  0  0  0  0  0  0  0
   32.7250   27.6200   45.9990 O   0  0  0  0  0  0  0  0  0  0  0  0
   32.1000   26.4230   45.7380 C   0  0  0  0  0  0  0  0  0  0  0  0
   31.2750   25.8750   46.8440 C   0  0  2  0  0  0  0  0  0  0  0  0
   31.5290   26.3800   48.2080 C   0  0  2  0  0  0  0  0  0  0  0  0
   31.8750   28.4500   49.3670 O   0  0  0  0  0  0  0  0  0  0  0  0
   31.4570   24.4740   46.8680 O   0  0  0  0  0  0  0  0  0  0  0  0
   30.3280   26.6110   48.9150 O   0  0  0  0  0  0  0  0  0  0  0  0
   34.6372   27.7445   48.8900 H   0  0  0  0  0  0  0  0  0  0  0  0
   35.1944   28.7327   51.0885 H   0  0  0  0  0  0  0  0  0  0  0  0
   37.4136   28.9540   52.2252 H   0  0  0  0  0  0  0  0  0  0  0  0
   38.4309   32.1548   49.5676 H   0  0  0  0  0  0  0  0  0  0  0  0
   33.3838   27.4820   48.4558 H   0  0  0  0  0  0  0  0  0  0  0  0
   31.0050   28.4993   46.8116 H   0  0  0  0  0  0  0  0  0  0  0  0
   31.4448   26.5665   44.8662 H   0  0  0  0  0  0  0  0  0  0  0  0
   32.9059   25.6926   45.5736 H   0  0  0  0  0  0  0  0  0  0  0  0
   30.2534   26.2094   46.6104 H   0  0  0  0  0  0  0  0  0  0  0  0
   32.1312   25.5730   48.6509 H   0  0  0  0  0  0  0  0  0  0  0  0
   32.1237   28.0071   50.2168 H   0  0  0  0  0  0  0  0  0  0  0  0
   31.4975   24.1625   47.8069 H   0  0  0  0  0  0  0  0  0  0  0  0
   30.5062   26.5767   49.8882 H   0  0  0  0  0  0  0  0  0  0  0  0
  2  1  2  0
  2  3  1  0
  2  4  1  0
  4  5  1  0
  5  6  2  0
  6  7  1  0
  8  7  2  0
  9  8  1  0
 10  5  1  0
 10  9  2  0
 11  2  1  0
 12 18  1  0
 13 11  1  0
 13 12  1  0
 14 13  1  0
 15 14  1  0
 15 16  1  0
 16 19  1  0
 16 17  1  0
 17 12  1  0
 17 20  1  0
  3 21  1  0
  6 22  1  0
  7 23  1  0
  9 24  1  0
 12 25  1  1
 13 26  1  6
 15 27  1  0
 15 28  1  0
 16 29  1  6
 17 30  1  1
 18 31  1  0
 19 32  1  0
 20 33  1  0
M  ISO  8  21   3  22  14  23  14  24  14  25  13  26  13  27  13  28  13
M  ISO  5  29  13  30  13  31   3  32   3  33   3
M  END
>  <minimizedAffinity>  (1) 
-4.56575298

>  <minimizedRMSD>  (1) 
1.69422972

$$$$
