
     RDKit          3D

 28 29  0  0  1  0  0  0  0  0999 V2000
   33.3750   28.0620   49.0040 C   0  0  2  0  0  0  0  0  0  0  0  0
   34.4390   28.0570   47.9540 C   0  0  1  0  0  0  0  0  0  0  0  0
   34.0060   27.6090   46.7170 O   0  0  0  0  0  0  0  0  0  0  0  0
   32.8730   28.2390   46.2470 C   0  0  0  0  0  0  0  0  0  0  0  0
   31.6700   28.0440   47.1420 C   0  0  1  0  0  0  0  0  0  0  0  0
   32.0370   27.5440   48.4950 C   0  0  2  0  0  0  0  0  0  0  0  0
   33.2130   29.3320   49.5950 O   0  0  0  0  0  0  0  0  0  0  0  0
   30.9530   29.2500   47.2570 O   0  0  0  0  0  0  0  0  0  0  0  0
   31.0350   27.9370   49.3790 O   0  0  0  0  0  0  0  0  0  0  0  0
   35.0980   29.3090   47.7980 O   0  0  0  0  0  0  0  0  0  0  0  0
   37.5000   29.5720   50.5190 C   0  0  0  0  0  0  0  0  0  0  0  0
   37.9810   30.8750   50.3000 C   0  0  0  0  0  0  0  0  0  0  0  0
   37.4440   31.5950   49.2160 C   0  0  0  0  0  0  0  0  0  0  0  0
   36.4800   30.9860   48.4330 N   0  0  0  0  0  0  0  0  0  0  0  0
   36.0610   29.7350   48.6930 C   0  0  0  0  0  0  0  0  0  0  0  0
   36.5630   29.0290   49.7250 N   0  0  0  0  0  0  0  0  0  0  0  0
   33.7282   27.3643   49.7776 H   0  0  0  0  0  0  0  0  0  0  0  0
   35.1676   27.3309   48.3437 H   0  0  0  0  0  0  0  0  0  0  0  0
   33.0792   29.3166   46.1679 H   0  0  0  0  0  0  0  0  0  0  0  0
   32.6310   27.7926   45.2712 H   0  0  0  0  0  0  0  0  0  0  0  0
   31.0398   27.2756   46.6704 H   0  0  0  0  0  0  0  0  0  0  0  0
   32.1364   26.4506   48.4266 H   0  0  0  0  0  0  0  0  0  0  0  0
   33.2246   29.2412   50.5808 H   0  0  0  0  0  0  0  0  0  0  0  0
   30.8239   29.4672   48.2142 H   0  0  0  0  0  0  0  0  0  0  0  0
   31.3491   27.8138   50.3097 H   0  0  0  0  0  0  0  0  0  0  0  0
   37.8999   28.9848   51.3588 H   0  0  0  0  0  0  0  0  0  0  0  0
   38.7493   31.3159   50.9522 H   0  0  0  0  0  0  0  0  0  0  0  0
   37.7832   32.6182   48.9968 H   0  0  0  0  0  0  0  0  0  0  0  0
  1  7  1  0
  2 10  1  0
  2  1  1  0
  3  2  1  0
  4  3  1  0
  4  5  1  0
  5  8  1  0
  5  6  1  0
  6  1  1  0
  6  9  1  0
 10 15  1  0
 12 11  2  0
 13 12  1  0
 14 15  1  0
 14 13  2  0
 15 16  2  0
 16 11  1  0
  1 17  1  1
  2 18  1  1
  4 19  1  0
  4 20  1  0
  5 21  1  6
  6 22  1  6
  7 23  1  0
  8 24  1  0
  9 25  1  0
 11 26  1  0
 12 27  1  0
 13 28  1  0
M  ISO  8  17  13  18  13  19  13  20  13  21  13  22  13  23   3  24   3
M  ISO  4  25   3  26  14  27  14  28  14
M  END
>  <minimizedAffinity>  (1) 
-4.83288002

>  <minimizedRMSD>  (1) 
2.31876278

$$$$
