
     RDKit          3D

 42 44  0  0  1  0  0  0  0  0999 V2000
   36.3850   29.1840   49.8130 C   0  0  1  0  0  0  0  0  0  0  0  0
   35.2980   29.2770   50.7560 C   0  0  0  0  0  0  0  0  0  0  0  0
   35.0240   28.9770   49.3180 C   0  0  2  0  0  0  0  0  0  0  0  0
   37.1020   30.4140   49.3370 C   0  0  0  0  0  0  0  0  0  0  0  0
   36.8090   31.6110   50.0410 C   0  0  0  0  0  0  0  0  0  0  0  0
   37.4840   32.7180   49.5790 C   0  0  0  0  0  0  0  0  0  0  0  0
   38.3500   32.6130   48.5270 N   0  0  0  0  0  0  0  0  0  0  0  0
   38.5970   31.4470   47.8860 C   0  0  0  0  0  0  0  0  0  0  0  0
   37.9410   30.3310   48.3240 N   0  0  0  0  0  0  0  0  0  0  0  0
   39.4790   31.3450   46.8070 N   0  0  0  0  0  0  0  0  0  0  0  0
   34.6950   27.6400   49.0390 O   0  0  0  0  0  0  0  0  0  0  0  0
   32.8620   26.1940   47.9570 O   0  0  0  0  0  0  0  0  0  0  0  0
   33.4540   27.5650   47.9290 P   0  0  1  0  0  0  0  0  0  0  0  0
   32.1800   28.6270   48.4330 O   0  0  0  0  0  0  0  0  0  0  0  0
   34.0320   28.0340   46.4260 O   0  0  0  0  0  0  0  0  0  0  0  0
   32.1430   28.3250   45.0900 C   0  0  2  0  0  0  0  0  0  0  0  0
   33.2790   29.0050   45.8120 C   0  0  1  0  0  0  0  0  0  0  0  0
   32.8690   30.0100   46.6810 O   0  0  0  0  0  0  0  0  0  0  0  0
   32.2940   31.0040   45.8560 C   0  0  0  0  0  0  0  0  0  0  0  0
   30.9400   30.4080   45.4510 C   0  0  1  0  0  0  0  0  0  0  0  0
   31.3010   29.3580   44.3940 C   0  0  2  0  0  0  0  0  0  0  0  0
   31.2950   27.6620   45.9980 O   0  0  0  0  0  0  0  0  0  0  0  0
   30.4480   29.7080   46.5500 O   0  0  0  0  0  0  0  0  0  0  0  0
   30.1610   28.8220   43.8220 O   0  0  0  0  0  0  0  0  0  0  0  0
   37.3219   28.6076   49.8142 H   0  0  0  0  0  0  0  0  0  0  0  0
   35.1611   28.4951   51.5175 H   0  0  0  0  0  0  0  0  0  0  0  0
   34.9516   30.0352   51.4737 H   0  0  0  0  0  0  0  0  0  0  0  0
   34.3942   29.4134   48.5288 H   0  0  0  0  0  0  0  0  0  0  0  0
   36.1030   31.6507   50.8836 H   0  0  0  0  0  0  0  0  0  0  0  0
   37.3252   33.6944   50.0601 H   0  0  0  0  0  0  0  0  0  0  0  0
   39.9783   32.1802   46.4693 H   0  0  0  0  0  0  0  0  0  0  0  0
   39.6298   30.4346   46.3494 H   0  0  0  0  0  0  0  0  0  0  0  0
   32.1459   28.6554   49.4220 H   0  0  0  0  0  0  0  0  0  0  0  0
   32.5822   27.6084   44.3804 H   0  0  0  0  0  0  0  0  0  0  0  0
   33.8973   29.5430   45.0784 H   0  0  0  0  0  0  0  0  0  0  0  0
   32.1578   31.9434   46.4118 H   0  0  0  0  0  0  0  0  0  0  0  0
   32.9243   31.2535   44.9897 H   0  0  0  0  0  0  0  0  0  0  0  0
   30.2173   31.1628   45.1075 H   0  0  0  0  0  0  0  0  0  0  0  0
   31.8655   29.7983   43.5588 H   0  0  0  0  0  0  0  0  0  0  0  0
   31.5704   27.8773   46.9242 H   0  0  0  0  0  0  0  0  0  0  0  0
   30.7549   30.1447   47.3838 H   0  0  0  0  0  0  0  0  0  0  0  0
   29.5399   28.5300   44.5354 H   0  0  0  0  0  0  0  0  0  0  0  0
  1  2  1  0
  3  1  1  0
  3  2  1  0
  4  1  1  0
  4  5  2  0
  6  5  1  0
  7  6  2  0
  8  9  2  0
  8  7  1  0
  9  4  1  0
 10  8  1  0
 11  3  1  0
 13 12  2  0
 13 14  1  0
 13 11  1  0
 15 13  1  0
 16 17  1  0
 16 22  1  0
 17 15  1  0
 17 18  1  0
 19 18  1  0
 20 19  1  0
 20 23  1  0
 21 24  1  0
 21 16  1  0
 21 20  1  0
  1 25  1  1
  2 26  1  0
  2 27  1  0
  3 28  1  6
  5 29  1  0
  6 30  1  0
 10 31  1  0
 10 32  1  0
 14 33  1  0
 16 34  1  6
 17 35  1  6
 19 36  1  0
 19 37  1  0
 20 38  1  6
 21 39  1  6
 22 40  1  0
 23 41  1  0
 24 42  1  0
M  ISO  8  25  13  26  13  27  13  28  13  29  14  30  14  33   3  34  13
M  ISO  8  35  13  36  13  37  13  38  13  39  13  40   3  41   3  42   3
M  END
>  <minimizedAffinity>  (1) 
-5.67940617

>  <minimizedRMSD>  (1) 
2.82169819

$$$$
