
     RDKit          3D

 33 34  0  0  1  0  0  0  0  0999 V2000
   36.8830   30.8210   49.3750 C   0  0  0  0  0  0  0  0  0  0  0  0
   37.5500   30.6890   48.1580 C   0  0  0  0  0  0  0  0  0  0  0  0
   38.3020   31.7720   47.7060 C   0  0  0  0  0  0  0  0  0  0  0  0
   38.3500   32.9000   48.4690 N   0  0  0  0  0  0  0  0  0  0  0  0
   37.6900   32.9920   49.6470 C   0  0  0  0  0  0  0  0  0  0  0  0
   36.9580   31.9580   50.1030 N   0  0  0  0  0  0  0  0  0  0  0  0
   38.0270   31.5040   45.2510 C   0  0  2  0  0  0  0  0  0  0  0  0
   39.0020   31.6150   46.4130 C   0  0  1  0  0  0  0  0  0  0  0  0
   39.7770   32.7450   46.1000 O   0  0  0  0  0  0  0  0  0  0  0  0
   40.6840   32.3410   45.1440 C   0  0  0  0  0  0  0  0  0  0  0  0
   40.0980   31.7310   43.9270 C   0  0  1  0  0  0  0  0  0  0  0  0
   38.8420   30.9570   44.0980 C   0  0  2  0  0  0  0  0  0  0  0  0
   37.6250   32.7980   44.8830 O   0  0  0  0  0  0  0  0  0  0  0  0
   39.9560   32.6680   42.8770 O   0  0  0  0  0  0  0  0  0  0  0  0
   38.1260   30.9700   42.9050 O   0  0  0  0  0  0  0  0  0  0  0  0
   36.0900   29.8540   49.9850 O   0  0  0  0  0  0  0  0  0  0  0  0
   34.1930   30.1820   48.1210 O   0  0  0  0  0  0  0  0  0  0  0  0
   34.5440   29.4260   49.3960 P   0  0  0  0  0  0  0  0  0  0  0  0
   34.5730   27.7530   49.1430 O   0  0  0  0  0  0  0  0  0  0  0  0
   33.3710   29.8440   50.5460 O   0  0  0  0  0  0  0  0  0  0  0  0
   37.4849   29.7597   47.5730 H   0  0  0  0  0  0  0  0  0  0  0  0
   37.7521   33.9187   50.2364 H   0  0  0  0  0  0  0  0  0  0  0  0
   37.1539   30.8848   45.5047 H   0  0  0  0  0  0  0  0  0  0  0  0
   39.6121   30.7078   46.5347 H   0  0  0  0  0  0  0  0  0  0  0  0
   41.2660   33.2218   44.8351 H   0  0  0  0  0  0  0  0  0  0  0  0
   41.2895   31.5530   45.6156 H   0  0  0  0  0  0  0  0  0  0  0  0
   40.8513   30.9746   43.6617 H   0  0  0  0  0  0  0  0  0  0  0  0
   39.0845   29.9129   44.3451 H   0  0  0  0  0  0  0  0  0  0  0  0
   37.4579   33.3357   45.6973 H   0  0  0  0  0  0  0  0  0  0  0  0
   39.8191   33.5717   43.2574 H   0  0  0  0  0  0  0  0  0  0  0  0
   37.1560   30.9876   43.1024 H   0  0  0  0  0  0  0  0  0  0  0  0
   34.5811   27.2872   50.0166 H   0  0  0  0  0  0  0  0  0  0  0  0
   33.7391   29.7128   51.4556 H   0  0  0  0  0  0  0  0  0  0  0  0
  1 16  1  0
  1  6  2  0
  2  1  1  0
  3  2  2  0
  3  4  1  0
  4  5  2  0
  5  6  1  0
  7 13  1  0
  7  8  1  0
  8  3  1  0
  9  8  1  0
 10  9  1  0
 11 14  1  0
 11 12  1  0
 11 10  1  0
 12 15  1  0
 12  7  1  0
 17 18  2  0
 18 16  1  0
 18 20  1  0
 19 18  1  0
  2 21  1  0
  5 22  1  0
  7 23  1  1
  8 24  1  1
 10 25  1  0
 10 26  1  0
 11 27  1  6
 12 28  1  1
 13 29  1  0
 14 30  1  0
 15 31  1  0
 19 32  1  0
 20 33  1  0
M  ISO  8  21  14  22  14  23  13  24  13  25  13  26  13  27  13  28  13
M  ISO  5  29   3  30   3  31   3  32   3  33   3
M  END
>  <minimizedAffinity>  (1) 
-6.16643763

>  <minimizedRMSD>  (1) 
6.89206886

$$$$
