
     RDKit          3D

 37 39  0  0  1  0  0  0  0  0999 V2000
   35.9980   29.4720   49.1010 C   0  0  0  0  0  0  0  0  0  0  0  0
   36.1670   30.4660   48.1060 C   0  0  0  0  0  0  0  0  0  0  0  0
   35.3820   30.3830   46.9600 C   0  0  0  0  0  0  0  0  0  0  0  0
   34.4970   29.3550   46.8560 N   0  0  0  0  0  0  0  0  0  0  0  0
   34.3570   28.4300   47.8090 C   0  0  0  0  0  0  0  0  0  0  0  0
   35.0970   28.4760   48.9320 N   0  0  0  0  0  0  0  0  0  0  0  0
   37.1360   31.4910   48.3470 N   0  0  0  0  0  0  0  0  0  0  0  0
   37.2040   32.1360   49.5330 C   0  0  0  0  0  0  0  0  0  0  0  0
   38.1600   33.1310   49.7330 C   0  0  0  0  0  0  0  0  0  0  0  0
   38.9670   33.3470   48.6310 C   0  0  0  0  0  0  0  0  0  0  0  0
   39.8500   34.2570   48.7990 O   0  0  0  0  0  0  0  0  0  0  0  0
   38.9250   32.7290   47.4500 N   0  0  0  0  0  0  0  0  0  0  0  0
   37.9760   31.7750   47.3170 C   0  0  0  0  0  0  0  0  0  0  0  0
   37.9140   31.1750   46.2130 O   0  0  0  0  0  0  0  0  0  0  0  0
   31.9610   27.8470   47.9210 C   0  0  1  0  0  0  0  0  0  0  0  0
   33.3650   27.3120   47.6480 C   0  0  1  0  0  0  0  0  0  0  0  0
   33.4820   26.8660   46.3560 O   0  0  0  0  0  0  0  0  0  0  0  0
   32.6130   25.8720   45.9840 C   0  0  0  0  0  0  0  0  0  0  0  0
   31.4870   25.6570   46.9630 C   0  0  2  0  0  0  0  0  0  0  0  0
   30.8940   27.0130   47.2840 C   0  0  2  0  0  0  0  0  0  0  0  0
   31.7590   28.0510   49.2730 O   0  0  0  0  0  0  0  0  0  0  0  0
   31.8710   25.0330   48.1360 O   0  0  0  0  0  0  0  0  0  0  0  0
   30.5380   27.5930   46.0750 O   0  0  0  0  0  0  0  0  0  0  0  0
   36.6038   29.5098   50.0184 H   0  0  0  0  0  0  0  0  0  0  0  0
   35.4748   31.1301   46.1580 H   0  0  0  0  0  0  0  0  0  0  0  0
   36.5045   31.8756   50.3410 H   0  0  0  0  0  0  0  0  0  0  0  0
   38.2623   33.6895   50.6751 H   0  0  0  0  0  0  0  0  0  0  0  0
   39.5752   32.9638   46.6864 H   0  0  0  0  0  0  0  0  0  0  0  0
   31.8829   28.8316   47.4368 H   0  0  0  0  0  0  0  0  0  0  0  0
   33.5519   26.4873   48.3515 H   0  0  0  0  0  0  0  0  0  0  0  0
   32.1796   26.1363   45.0081 H   0  0  0  0  0  0  0  0  0  0  0  0
   33.1903   24.9365   45.9459 H   0  0  0  0  0  0  0  0  0  0  0  0
   30.7586   24.9817   46.4904 H   0  0  0  0  0  0  0  0  0  0  0  0
   30.0273   26.9313   47.9564 H   0  0  0  0  0  0  0  0  0  0  0  0
   32.3532   27.4509   49.7897 H   0  0  0  0  0  0  0  0  0  0  0  0
   31.5477   25.5583   48.9104 H   0  0  0  0  0  0  0  0  0  0  0  0
   30.0278   28.4242   46.2453 H   0  0  0  0  0  0  0  0  0  0  0  0
  2  7  1  0
  2  1  2  0
  3  2  1  0
  4  3  2  0
  4  5  1  0
  5  6  2  0
  6  1  1  0
  7  8  1  0
  8  9  2  0
 10 11  2  0
 10  9  1  0
 12 10  1  0
 13 12  1  0
 13  7  1  0
 14 13  2  0
 15 21  1  0
 16  5  1  0
 16 15  1  0
 17 16  1  0
 18 17  1  0
 18 19  1  0
 19 20  1  0
 19 22  1  0
 20 23  1  0
 20 15  1  0
  1 24  1  0
  3 25  1  0
  8 26  1  0
  9 27  1  0
 12 28  1  0
 15 29  1  6
 16 30  1  1
 18 31  1  0
 18 32  1  0
 19 33  1  6
 20 34  1  1
 21 35  1  0
 22 36  1  0
 23 37  1  0
M  ISO  8  24  14  25  14  26  14  27  14  28   9  29  13  30  13  31  13
M  ISO  6  32  13  33  13  34  13  35   3  36   3  37   3
M  END
>  <minimizedAffinity>  (1) 
-5.88077164

>  <minimizedRMSD>  (1) 
1.54029548

$$$$
