
     RDKit          3D

 54 59  0  0  1  0  0  0  0  0999 V2000
   33.1070   28.5870   47.0310 C   0  0  0  0  0  0  0  0  0  0  0  0
   33.6320   28.6260   45.7510 C   0  0  0  0  0  0  0  0  0  0  0  0
   34.7940   29.3290   45.8010 N   0  0  0  0  0  0  0  0  0  0  0  0
   35.0110   29.7300   47.0740 C   0  0  0  0  0  0  0  0  0  0  0  0
   33.9770   29.2710   47.8130 N   0  0  0  0  0  0  0  0  0  0  0  0
   31.5040   27.7390   48.8410 C   0  0  1  0  0  0  0  0  0  0  0  0
   31.8530   26.5100   47.9200 C   0  0  0  0  0  0  0  0  0  0  0  0
   31.8230   27.9240   47.4260 C   0  0  2  0  0  0  0  0  0  0  0  0
   28.0610   28.5730   49.4680 C   0  0  0  0  0  0  0  0  0  0  0  0
   28.2320   27.5140   50.3580 C   0  0  0  0  0  0  0  0  0  0  0  0
   29.5620   27.0580   50.2360 C   0  0  0  0  0  0  0  0  0  0  0  0
   30.1350   27.8320   49.3060 N   0  0  0  0  0  0  0  0  0  0  0  0
   29.2370   28.6920   48.8890 N   0  0  0  0  0  0  0  0  0  0  0  0
   25.5580   28.6920   49.5590 C   0  0  0  0  0  0  0  0  0  0  0  0
   26.8250   29.2820   49.3220 C   0  0  0  0  0  0  0  0  0  0  0  0
   26.8180   30.5990   48.9360 C   0  0  0  0  0  0  0  0  0  0  0  0
   25.6240   31.2450   48.8070 N   0  0  0  0  0  0  0  0  0  0  0  0
   24.4500   30.6430   49.0410 C   0  0  0  0  0  0  0  0  0  0  0  0
   24.4040   29.3430   49.4260 N   0  0  0  0  0  0  0  0  0  0  0  0
   36.1620   30.5350   47.5820 C   0  0  0  0  0  0  0  0  0  0  0  0
   36.2540   30.9000   48.9340 C   0  0  0  0  0  0  0  0  0  0  0  0
   37.8010   31.8620   48.9820 S   0  0  0  0  0  0  0  0  0  0  0  0
   38.0760   31.6070   47.1290 C   0  0  0  0  0  0  0  0  0  0  0  0
   37.1600   30.9820   46.8550 N   0  0  0  0  0  0  0  0  0  0  0  0
   39.0140   32.8970   45.2310 C   0  0  2  0  0  0  0  0  0  0  0  0
   39.2950   32.2200   46.5320 C   0  0  2  0  0  0  0  0  0  0  0  0
   40.3510   31.3130   46.4920 O   0  0  0  0  0  0  0  0  0  0  0  0
   41.0220   31.3140   45.2900 C   0  0  0  0  0  0  0  0  0  0  0  0
   40.1500   31.0750   44.0920 C   0  0  2  0  0  0  0  0  0  0  0  0
   38.9530   31.9740   44.0570 C   0  0  2  0  0  0  0  0  0  0  0  0
   39.8510   33.9850   45.0140 O   0  0  0  0  0  0  0  0  0  0  0  0
   39.7970   29.7260   43.9250 O   0  0  0  0  0  0  0  0  0  0  0  0
   38.9500   32.7820   42.9000 O   0  0  0  0  0  0  0  0  0  0  0  0
   33.1882   28.1697   44.8539 H   0  0  0  0  0  0  0  0  0  0  0  0
   35.4098   29.5247   44.9989 H   0  0  0  0  0  0  0  0  0  0  0  0
   31.8857   28.1845   49.7715 H   0  0  0  0  0  0  0  0  0  0  0  0
   32.8092   25.9787   48.0358 H   0  0  0  0  0  0  0  0  0  0  0  0
   31.3725   25.5597   47.6442 H   0  0  0  0  0  0  0  0  0  0  0  0
   31.2967   28.4254   46.6004 H   0  0  0  0  0  0  0  0  0  0  0  0
   27.4667   27.1063   51.0348 H   0  0  0  0  0  0  0  0  0  0  0  0
   30.0324   26.2338   50.7922 H   0  0  0  0  0  0  0  0  0  0  0  0
   25.5264   27.6374   49.8702 H   0  0  0  0  0  0  0  0  0  0  0  0
   27.7621   31.1260   48.7336 H   0  0  0  0  0  0  0  0  0  0  0  0
   23.5143   31.2085   48.9197 H   0  0  0  0  0  0  0  0  0  0  0  0
   35.5648   30.6644   49.7583 H   0  0  0  0  0  0  0  0  0  0  0  0
   37.9911   33.2900   45.3270 H   0  0  0  0  0  0  0  0  0  0  0  0
   39.6258   33.0317   47.1967 H   0  0  0  0  0  0  0  0  0  0  0  0
   41.5108   32.2921   45.1699 H   0  0  0  0  0  0  0  0  0  0  0  0
   41.7368   30.4788   45.3292 H   0  0  0  0  0  0  0  0  0  0  0  0
   40.7715   31.3409   43.2242 H   0  0  0  0  0  0  0  0  0  0  0  0
   38.0535   31.3410   44.0688 H   0  0  0  0  0  0  0  0  0  0  0  0
   40.1386   34.3589   45.8844 H   0  0  0  0  0  0  0  0  0  0  0  0
   39.6860   29.3016   44.8125 H   0  0  0  0  0  0  0  0  0  0  0  0
   38.9465   33.7362   43.1639 H   0  0  0  0  0  0  0  0  0  0  0  0
  1  8  1  0
  1  5  1  0
  2  3  1  0
  2  1  2  0
  3  4  1  0
  4 20  1  0
  4  5  2  0
  6 12  1  0
  7  6  1  0
  8  7  1  0
  8  6  1  0
  9 10  1  0
 11 10  2  0
 12 11  1  0
 13 12  1  0
 13  9  2  0
 15  9  1  0
 15 14  2  0
 16 15  1  0
 17 16  2  0
 17 18  1  0
 18 19  2  0
 19 14  1  0
 20 21  2  0
 21 22  1  0
 23 22  1  0
 24 23  2  0
 24 20  1  0
 25 31  1  0
 25 26  1  0
 26 23  1  0
 27 26  1  0
 28 27  1  0
 29 32  1  0
 29 28  1  0
 30 33  1  0
 30 29  1  0
 30 25  1  0
  2 34  1  0
  3 35  1  0
  6 36  1  1
  7 37  1  0
  7 38  1  0
  8 39  1  6
 10 40  1  0
 11 41  1  0
 14 42  1  0
 16 43  1  0
 18 44  1  0
 21 45  1  0
 25 46  1  1
 26 47  1  1
 28 48  1  0
 28 49  1  0
 29 50  1  6
 30 51  1  1
 31 52  1  0
 32 53  1  0
 33 54  1  0
M  END
>  <minimizedAffinity>  (1) 
-7.95618105

>  <minimizedRMSD>  (1) 
2.51927352

$$$$
