
     RDKit          3D

 38 40  0  0  1  0  0  0  0  0999 V2000
   38.1720   32.0580   46.4360 C   0  0  0  0  0  0  0  0  0  0  0  0
   37.7510   31.6810   45.1410 C   0  0  0  0  0  0  0  0  0  0  0  0
   36.7150   30.7740   45.0740 C   0  0  0  0  0  0  0  0  0  0  0  0
   36.1590   30.2910   46.2200 N   0  0  0  0  0  0  0  0  0  0  0  0
   36.5850   30.6710   47.4340 C   0  0  0  0  0  0  0  0  0  0  0  0
   37.6060   31.5670   47.5370 N   0  0  0  0  0  0  0  0  0  0  0  0
   38.3300   31.1700   49.9750 Br  0  0  0  0  0  0  0  0  0  0  0  0
   36.6480   30.3090   49.8740 C   0  0  0  0  0  0  0  0  0  0  0  0
   36.0010   30.1660   48.6690 C   0  0  0  0  0  0  0  0  0  0  0  0
   34.7710   29.5230   48.6760 C   0  0  0  0  0  0  0  0  0  0  0  0
   34.1700   29.0250   49.8110 C   0  0  0  0  0  0  0  0  0  0  0  0
   34.8520   29.1880   50.9970 C   0  0  0  0  0  0  0  0  0  0  0  0
   36.0940   29.8330   51.0190 C   0  0  0  0  0  0  0  0  0  0  0  0
   38.3790   32.2260   44.0600 O   0  0  0  0  0  0  0  0  0  0  0  0
   39.9420   30.3810   43.7170 C   0  0  1  0  0  0  0  0  0  0  0  0
   39.5860   31.8370   43.5000 C   0  0  1  0  0  0  0  0  0  0  0  0
   39.4970   32.1350   42.1220 O   0  0  0  0  0  0  0  0  0  0  0  0
   38.5350   31.3310   41.5130 C   0  0  0  0  0  0  0  0  0  0  0  0
   39.1950   29.9500   41.4170 C   0  0  1  0  0  0  0  0  0  0  0  0
   39.2230   29.4270   42.8310 C   0  0  1  0  0  0  0  0  0  0  0  0
   41.3220   30.2230   43.4670 O   0  0  0  0  0  0  0  0  0  0  0  0
   38.5410   29.1150   40.5480 O   0  0  0  0  0  0  0  0  0  0  0  0
   39.9310   28.2100   42.8630 O   0  0  0  0  0  0  0  0  0  0  0  0
   38.9946   32.7811   46.5382 H   0  0  0  0  0  0  0  0  0  0  0  0
   36.3376   30.4406   44.0960 H   0  0  0  0  0  0  0  0  0  0  0  0
   34.2445   29.4039   47.7176 H   0  0  0  0  0  0  0  0  0  0  0  0
   33.1928   28.5215   49.7724 H   0  0  0  0  0  0  0  0  0  0  0  0
   34.4172   28.8085   51.9334 H   0  0  0  0  0  0  0  0  0  0  0  0
   36.6269   29.9556   51.9735 H   0  0  0  0  0  0  0  0  0  0  0  0
   39.6493   30.1462   44.7510 H   0  0  0  0  0  0  0  0  0  0  0  0
   40.3996   32.3841   43.9987 H   0  0  0  0  0  0  0  0  0  0  0  0
   37.6226   31.2843   42.1256 H   0  0  0  0  0  0  0  0  0  0  0  0
   38.2278   31.7174   40.5300 H   0  0  0  0  0  0  0  0  0  0  0  0
   40.2102   30.0132   40.9983 H   0  0  0  0  0  0  0  0  0  0  0  0
   38.1861   29.2940   43.1732 H   0  0  0  0  0  0  0  0  0  0  0  0
   41.8089   30.1672   44.3272 H   0  0  0  0  0  0  0  0  0  0  0  0
   38.0188   28.4483   41.0609 H   0  0  0  0  0  0  0  0  0  0  0  0
   40.0862   27.9432   43.8036 H   0  0  0  0  0  0  0  0  0  0  0  0
  1  6  2  0
  2  1  1  0
  3  2  2  0
  3  4  1  0
  4  5  2  0
  5  6  1  0
  5  9  1  0
  8  7  1  0
  8 13  2  0
  9 10  2  0
  9  8  1  0
 10 11  1  0
 11 12  2  0
 12 13  1  0
 14  2  1  0
 15 21  1  0
 16 15  1  0
 16 14  1  0
 17 16  1  0
 18 17  1  0
 19 22  1  0
 19 18  1  0
 19 20  1  0
 20 23  1  0
 20 15  1  0
  1 24  1  0
  3 25  1  0
 10 26  1  0
 11 27  1  0
 12 28  1  0
 13 29  1  0
 15 30  1  1
 16 31  1  1
 18 32  1  0
 18 33  1  0
 19 34  1  6
 20 35  1  1
 21 36  1  0
 22 37  1  0
 23 38  1  0
M  ISO  8  24  14  25  14  26  14  27  14  28  14  29  14  30  13  31  13
M  ISO  7  32  13  33  13  34  13  35  13  36   3  37   3  38   3
M  END
>  <minimizedAffinity>  (1) 
-6.16035604

>  <minimizedRMSD>  (1) 
4.39118433

$$$$
