
     RDKit          3D

 53 56  0  0  1  0  0  0  0  0999 V2000
   35.2140   30.3770   49.8750 C   0  0  2  0  0  0  0  0  0  0  0  0
   36.1270   31.1970   49.0410 C   0  0  0  0  0  0  0  0  0  0  0  0
   37.5830   30.7090   49.1080 C   0  0  2  0  0  0  0  0  0  0  0  0
   38.1270   30.6310   50.4620 C   0  0  0  0  0  0  0  0  0  0  0  0
   37.1340   30.0970   51.4840 C   0  0  0  0  0  0  0  0  0  0  0  0
   35.9410   29.4630   50.8330 C   0  0  0  0  0  0  0  0  0  0  0  0
   37.6520   30.2060   46.2030 Cl  0  0  0  0  0  0  0  0  0  0  0  0
   38.4640   31.5770   46.9430 C   0  0  0  0  0  0  0  0  0  0  0  0
   38.3290   31.7300   48.3130 C   0  0  0  0  0  0  0  0  0  0  0  0
   38.9790   32.8450   48.7940 C   0  0  0  0  0  0  0  0  0  0  0  0
   39.6880   33.7120   47.9870 C   0  0  0  0  0  0  0  0  0  0  0  0
   39.7730   33.4850   46.6190 C   0  0  0  0  0  0  0  0  0  0  0  0
   39.1360   32.3750   46.0840 C   0  0  0  0  0  0  0  0  0  0  0  0
   40.0850   30.9340   44.3000 C   0  0  1  0  0  0  0  0  0  0  0  0
   39.2270   32.1330   44.6280 C   0  0  2  0  0  0  0  0  0  0  0  0
   39.6860   33.2650   43.9520 O   0  0  0  0  0  0  0  0  0  0  0  0
   39.3470   33.1920   42.6120 C   0  0  0  0  0  0  0  0  0  0  0  0
   39.6960   31.8500   42.0090 C   0  0  1  0  0  0  0  0  0  0  0  0
   40.6730   31.1440   42.9260 C   0  0  2  0  0  0  0  0  0  0  0  0
   41.1620   30.8100   45.1740 O   0  0  0  0  0  0  0  0  0  0  0  0
   38.5930   31.0340   41.8360 O   0  0  0  0  0  0  0  0  0  0  0  0
   41.0290   29.9280   42.3830 O   0  0  0  0  0  0  0  0  0  0  0  0
   34.3030   29.5410   49.0760 C   0  0  0  0  0  0  0  0  0  0  0  0
   34.3000   29.8110   47.7060 C   0  0  0  0  0  0  0  0  0  0  0  0
   33.4610   29.0310   46.8950 C   0  0  0  0  0  0  0  0  0  0  0  0
   32.6840   28.0420   47.4880 N   0  0  0  0  0  0  0  0  0  0  0  0
   32.7220   27.8210   48.8170 C   0  0  0  0  0  0  0  0  0  0  0  0
   33.5270   28.5740   49.5680 N   0  0  0  0  0  0  0  0  0  0  0  0
   34.6387   31.1239   50.4417 H   0  0  0  0  0  0  0  0  0  0  0  0
   36.0873   32.2382   49.3937 H   0  0  0  0  0  0  0  0  0  0  0  0
   35.7933   31.1109   47.9964 H   0  0  0  0  0  0  0  0  0  0  0  0
   37.6650   29.6803   48.7273 H   0  0  0  0  0  0  0  0  0  0  0  0
   39.0035   29.9665   50.4476 H   0  0  0  0  0  0  0  0  0  0  0  0
   38.3862   31.6557   50.7667 H   0  0  0  0  0  0  0  0  0  0  0  0
   37.6381   29.3455   52.1094 H   0  0  0  0  0  0  0  0  0  0  0  0
   36.7797   30.9455   52.0877 H   0  0  0  0  0  0  0  0  0  0  0  0
   35.2377   29.1559   51.6211 H   0  0  0  0  0  0  0  0  0  0  0  0
   36.3113   28.6103   50.2449 H   0  0  0  0  0  0  0  0  0  0  0  0
   38.9308   33.0546   49.8728 H   0  0  0  0  0  0  0  0  0  0  0  0
   40.1879   34.5865   48.4290 H   0  0  0  0  0  0  0  0  0  0  0  0
   40.3356   34.1735   45.9714 H   0  0  0  0  0  0  0  0  0  0  0  0
   39.4525   30.0368   44.3698 H   0  0  0  0  0  0  0  0  0  0  0  0
   38.2064   31.9123   44.2820 H   0  0  0  0  0  0  0  0  0  0  0  0
   38.2639   33.3554   42.5108 H   0  0  0  0  0  0  0  0  0  0  0  0
   39.9190   33.9633   42.0755 H   0  0  0  0  0  0  0  0  0  0  0  0
   40.1290   32.0406   41.0159 H   0  0  0  0  0  0  0  0  0  0  0  0
   41.5640   31.7810   43.0281 H   0  0  0  0  0  0  0  0  0  0  0  0
   40.8352   30.8476   46.1078 H   0  0  0  0  0  0  0  0  0  0  0  0
   38.2359   30.7698   42.7208 H   0  0  0  0  0  0  0  0  0  0  0  0
   41.2175   29.2840   43.1109 H   0  0  0  0  0  0  0  0  0  0  0  0
   34.9309   30.6044   47.2788 H   0  0  0  0  0  0  0  0  0  0  0  0
   33.4189   29.1992   45.8088 H   0  0  0  0  0  0  0  0  0  0  0  0
   32.1016   27.0355   49.2731 H   0  0  0  0  0  0  0  0  0  0  0  0
  1  6  1  0
  2  3  1  0
  2  1  1  0
  3  4  1  0
  4  5  1  0
  6  5  1  0
  7  8  1  0
  8  9  2  0
  9 10  1  0
  9  3  1  0
 11 10  2  0
 12 11  1  0
 13 12  2  0
 13  8  1  0
 14 15  1  0
 14 20  1  0
 15 13  1  0
 16 15  1  0
 17 16  1  0
 18 21  1  0
 18 17  1  0
 18 19  1  0
 19 22  1  0
 19 14  1  0
 23 28  1  0
 23  1  1  0
 24 23  2  0
 25 26  2  0
 25 24  1  0
 26 27  1  0
 27 28  2  0
  1 29  1  1
  2 30  1  0
  2 31  1  0
  3 32  1  6
  4 33  1  0
  4 34  1  0
  5 35  1  0
  5 36  1  0
  6 37  1  0
  6 38  1  0
 10 39  1  0
 11 40  1  0
 12 41  1  0
 14 42  1  6
 15 43  1  6
 17 44  1  0
 17 45  1  0
 18 46  1  6
 19 47  1  1
 20 48  1  0
 21 49  1  0
 22 50  1  0
 24 51  1  0
 25 52  1  0
 27 53  1  0
M  END
>  <minimizedAffinity>  (1) 
-8.20170021

>  <minimizedRMSD>  (1) 
1.11931932

$$$$
