
     RDKit          3D

 38 39  0  0  1  0  0  0  0  0999 V2000
   38.4250   32.2940   46.6060 C   0  0  0  0  0  0  0  0  0  0  0  0
   39.7670   32.5980   46.7440 C   0  0  0  0  0  0  0  0  0  0  0  0
   40.5290   32.9510   45.6160 C   0  0  0  0  0  0  0  0  0  0  0  0
   39.8550   32.9660   44.4220 N   0  0  0  0  0  0  0  0  0  0  0  0
   38.5430   32.6630   44.3210 C   0  0  0  0  0  0  0  0  0  0  0  0
   37.8590   32.3370   45.3930 N   0  0  0  0  0  0  0  0  0  0  0  0
   36.3710   32.5080   43.1240 C   0  0  2  0  0  0  0  0  0  0  0  0
   37.8610   32.6960   42.9900 C   0  0  2  0  0  0  0  0  0  0  0  0
   38.4510   31.8560   42.0590 O   0  0  0  0  0  0  0  0  0  0  0  0
   38.2850   30.5150   42.2970 C   0  0  0  0  0  0  0  0  0  0  0  0
   36.9180   30.1010   42.7320 C   0  0  1  0  0  0  0  0  0  0  0  0
   35.8910   31.1970   42.5570 C   0  0  2  0  0  0  0  0  0  0  0  0
   35.6260   33.5430   42.5780 O   0  0  0  0  0  0  0  0  0  0  0  0
   36.4530   28.9820   42.0070 O   0  0  0  0  0  0  0  0  0  0  0  0
   35.6330   31.3340   41.2040 O   0  0  0  0  0  0  0  0  0  0  0  0
   37.8330   31.9710   47.8110 O   0  0  0  0  0  0  0  0  0  0  0  0
   36.9210   30.9320   47.8000 C   0  0  0  0  0  0  0  0  0  0  0  0
   37.5250   30.1150   48.6880 C   0  0  0  0  0  0  0  0  0  0  0  0
   37.9930   30.7290   49.9680 C   0  0  0  0  0  0  0  0  0  0  0  0
   37.2550   29.9740   51.4160 S   0  0  0  0  0  0  0  0  0  0  0  0
   40.2389   32.5637   47.7371 H   0  0  0  0  0  0  0  0  0  0  0  0
   41.5982   33.1994   45.6870 H   0  0  0  0  0  0  0  0  0  0  0  0
   36.2031   32.5070   44.2111 H   0  0  0  0  0  0  0  0  0  0  0  0
   38.0039   33.7060   42.5784 H   0  0  0  0  0  0  0  0  0  0  0  0
   38.5229   29.9746   41.3689 H   0  0  0  0  0  0  0  0  0  0  0  0
   38.9537   30.2735   43.1363 H   0  0  0  0  0  0  0  0  0  0  0  0
   37.0257   29.8579   43.7994 H   0  0  0  0  0  0  0  0  0  0  0  0
   34.9771   30.9219   43.1039 H   0  0  0  0  0  0  0  0  0  0  0  0
   35.2342   34.0874   43.3062 H   0  0  0  0  0  0  0  0  0  0  0  0
   36.1604   28.2780   42.6385 H   0  0  0  0  0  0  0  0  0  0  0  0
   34.7657   31.7945   41.0784 H   0  0  0  0  0  0  0  0  0  0  0  0
   35.9263   31.2521   48.1436 H   0  0  0  0  0  0  0  0  0  0  0  0
   36.7163   30.4912   46.8132 H   0  0  0  0  0  0  0  0  0  0  0  0
   36.8113   29.3181   48.9440 H   0  0  0  0  0  0  0  0  0  0  0  0
   38.4412   29.7738   48.1839 H   0  0  0  0  0  0  0  0  0  0  0  0
   39.0854   30.6167   50.0321 H   0  0  0  0  0  0  0  0  0  0  0  0
   37.6895   31.7862   49.9567 H   0  0  0  0  0  0  0  0  0  0  0  0
   37.7965   30.5280   52.5460 H   0  0  0  0  0  0  0  0  0  0  0  0
  1  2  2  0
  1 16  1  0
  3  2  1  0
  4  3  2  0
  5  4  1  0
  5  6  2  0
  6  1  1  0
  7 13  1  0
  8  7  1  0
  8  5  1  0
  9 10  1  0
  9  8  1  0
 10 11  1  0
 11 14  1  0
 12 15  1  0
 12 11  1  0
 12  7  1  0
 17 16  1  0
 17 18  1  0
 18 19  1  0
 19 20  1  0
  2 21  1  0
  3 22  1  0
  7 23  1  1
  8 24  1  6
 10 25  1  0
 10 26  1  0
 11 27  1  1
 12 28  1  1
 13 29  1  0
 14 30  1  0
 15 31  1  0
 17 32  1  0
 17 33  1  0
 18 34  1  0
 18 35  1  0
 19 36  1  0
 19 37  1  0
 20 38  1  0
M  ISO  8  21  14  22  14  23  13  24  13  25  13  26  13  27  13  28  13
M  ISO  8  29   3  30   3  31   3  32   8  33   8  34   8  35   8  36   8
M  ISO  2  37   8  38  11
M  END
>  <minimizedAffinity>  (1) 
-4.56343317

>  <minimizedRMSD>  (1) 
1.74648058

$$$$
