
     RDKit          3D

 44 47  0  0  1  0  0  0  0  0999 V2000
   35.0930   29.1190   50.7120 C   0  0  0  0  0  0  0  0  0  0  0  0
   36.7410   30.9660   50.1800 C   0  0  1  0  0  0  0  0  0  0  0  0
   36.4350   29.5720   50.2400 C   0  0  1  0  0  0  0  0  0  0  0  0
   37.4850   30.0860   51.1940 C   0  0  0  0  0  0  0  0  0  0  0  0
   37.6780   31.5400   49.1340 C   0  0  0  0  0  0  0  0  0  0  0  0
   38.1610   32.8110   49.4090 C   0  0  0  0  0  0  0  0  0  0  0  0
   39.0120   33.3250   48.3990 C   0  0  0  0  0  0  0  0  0  0  0  0
   39.3000   32.6130   47.2880 N   0  0  0  0  0  0  0  0  0  0  0  0
   38.7880   31.3600   47.0770 C   0  0  0  0  0  0  0  0  0  0  0  0
   37.9570   30.8130   48.0250 N   0  0  0  0  0  0  0  0  0  0  0  0
   34.1940   28.7080   49.5940 C   0  0  0  0  0  0  0  0  0  0  0  0
   34.6280   28.6440   48.2840 C   0  0  0  0  0  0  0  0  0  0  0  0
   33.6580   28.2530   47.4520 N   0  0  0  0  0  0  0  0  0  0  0  0
   32.5890   28.0660   48.2530 C   0  0  0  0  0  0  0  0  0  0  0  0
   32.9040   28.3370   49.5380 N   0  0  0  0  0  0  0  0  0  0  0  0
   30.3420   28.7710   47.4730 C   0  0  2  0  0  0  0  0  0  0  0  0
   31.2640   27.6190   47.7250 C   0  0  2  0  0  0  0  0  0  0  0  0
   30.6600   26.6590   48.4960 O   0  0  0  0  0  0  0  0  0  0  0  0
   29.6200   27.1020   49.2880 C   0  0  0  0  0  0  0  0  0  0  0  0
   28.4530   27.6620   48.5150 C   0  0  2  0  0  0  0  0  0  0  0  0
   28.9680   28.1640   47.1890 C   0  0  1  0  0  0  0  0  0  0  0  0
   30.6980   29.5490   46.3980 O   0  0  0  0  0  0  0  0  0  0  0  0
   28.0070   28.7930   49.2140 O   0  0  0  0  0  0  0  0  0  0  0  0
   28.1170   29.0440   46.5530 O   0  0  0  0  0  0  0  0  0  0  0  0
   35.2292   28.2610   51.3868 H   0  0  0  0  0  0  0  0  0  0  0  0
   34.6178   29.9693   51.2230 H   0  0  0  0  0  0  0  0  0  0  0  0
   36.0762   31.8424   50.1702 H   0  0  0  0  0  0  0  0  0  0  0  0
   36.4259   28.7522   49.5066 H   0  0  0  0  0  0  0  0  0  0  0  0
   38.5462   29.8363   51.0476 H   0  0  0  0  0  0  0  0  0  0  0  0
   37.6496   30.0817   52.2816 H   0  0  0  0  0  0  0  0  0  0  0  0
   37.9076   33.3669   50.3238 H   0  0  0  0  0  0  0  0  0  0  0  0
   39.4481   34.3272   48.5228 H   0  0  0  0  0  0  0  0  0  0  0  0
   39.0380   30.8007   46.1634 H   0  0  0  0  0  0  0  0  0  0  0  0
   35.6519   28.8864   47.9633 H   0  0  0  0  0  0  0  0  0  0  0  0
   33.7140   28.1239   46.4317 H   0  0  0  0  0  0  0  0  0  0  0  0
   30.3681   29.4312   48.3525 H   0  0  0  0  0  0  0  0  0  0  0  0
   31.4838   27.1421   46.7585 H   0  0  0  0  0  0  0  0  0  0  0  0
   29.2604   26.2554   49.8914 H   0  0  0  0  0  0  0  0  0  0  0  0
   30.0169   27.9234   49.9026 H   0  0  0  0  0  0  0  0  0  0  0  0
   27.6662   26.9044   48.3846 H   0  0  0  0  0  0  0  0  0  0  0  0
   29.0385   27.3317   46.4733 H   0  0  0  0  0  0  0  0  0  0  0  0
   31.0874   30.4000   46.7210 H   0  0  0  0  0  0  0  0  0  0  0  0
   28.0727   28.6263   50.1877 H   0  0  0  0  0  0  0  0  0  0  0  0
   27.6143   29.5638   47.2291 H   0  0  0  0  0  0  0  0  0  0  0  0
  2  3  1  0
  2  4  1  0
  3  1  1  0
  3  4  1  0
  5  6  2  0
  5  2  1  0
  7  6  1  0
  8  7  2  0
  9  8  1  0
  9 10  2  0
 10  5  1  0
 11  1  1  0
 12 11  2  0
 13 14  1  0
 13 12  1  0
 14 15  2  0
 15 11  1  0
 16 22  1  0
 16 17  1  0
 17 14  1  0
 17 18  1  0
 18 19  1  0
 20 23  1  0
 20 19  1  0
 21 24  1  0
 21 16  1  0
 21 20  1  0
  1 25  1  0
  1 26  1  0
  2 27  1  1
  3 28  1  6
  4 29  1  0
  4 30  1  0
  6 31  1  0
  7 32  1  0
  9 33  1  0
 12 34  1  0
 13 35  1  0
 16 36  1  1
 17 37  1  6
 19 38  1  0
 19 39  1  0
 20 40  1  6
 21 41  1  6
 22 42  1  0
 23 43  1  0
 24 44  1  0
M  ISO  8  25   8  26   8  27  13  28  13  29  13  30  13  31  14  32  14
M  ISO  8  33  14  34  14  35   9  36  13  37  13  38  13  39  13  40  13
M  ISO  4  41  13  42   3  43   3  44   3
M  END
>  <minimizedAffinity>  (1) 
-6.41732597

>  <minimizedRMSD>  (1) 
1.59038544

$$$$
