
     RDKit          3D

 39 42  0  0  0  0  0  0  0  0999 V2000
   37.6670   30.2490   51.0180 C   0  0  0  0  0  0  0  0  0  0  0  0
   38.1350   30.8190   49.8160 C   0  0  0  0  0  0  0  0  0  0  0  0
   37.4330   30.5290   48.6550 C   0  0  0  0  0  0  0  0  0  0  0  0
   36.3640   29.7310   48.7580 N   0  0  0  0  0  0  0  0  0  0  0  0
   35.9240   29.1930   49.9050 C   0  0  0  0  0  0  0  0  0  0  0  0
   36.5760   29.4530   51.0370 N   0  0  0  0  0  0  0  0  0  0  0  0
   37.8100   31.0600   47.3710 C   0  0  0  0  0  0  0  0  0  0  0  0
   37.0750   30.7410   46.2320 C   0  0  0  0  0  0  0  0  0  0  0  0
   37.3820   31.2220   44.9830 C   0  0  0  0  0  0  0  0  0  0  0  0
   38.4430   32.0450   44.8370 N   0  0  0  0  0  0  0  0  0  0  0  0
   39.1410   32.3430   45.9460 C   0  0  0  0  0  0  0  0  0  0  0  0
   38.8640   31.8860   47.1860 N   0  0  0  0  0  0  0  0  0  0  0  0
   40.3120   33.2460   45.8150 C   0  0  0  0  0  0  0  0  0  0  0  0
   40.3960   33.9910   47.0130 F   0  0  0  0  0  0  0  0  0  0  0  0
   41.4580   32.5560   45.5660 F   0  0  0  0  0  0  0  0  0  0  0  0
   40.1120   34.2130   44.8440 F   0  0  0  0  0  0  0  0  0  0  0  0
   34.7970   28.3860   49.8350 O   0  0  0  0  0  0  0  0  0  0  0  0
   33.6010   26.7040   46.7850 N   0  0  0  0  0  0  0  0  0  0  0  0
   34.1560   26.8120   47.9990 C   0  0  0  0  0  0  0  0  0  0  0  0
   34.2600   28.0570   48.5970 C   0  0  0  0  0  0  0  0  0  0  0  0
   33.7830   29.1650   47.9130 C   0  0  0  0  0  0  0  0  0  0  0  0
   33.7760   30.3790   48.2680 O   0  0  0  0  0  0  0  0  0  0  0  0
   33.2310   29.0100   46.6930 N   0  0  0  0  0  0  0  0  0  0  0  0
   33.1370   27.7760   46.1210 C   0  0  0  0  0  0  0  0  0  0  0  0
   32.6290   27.5770   44.9810 O   0  0  0  0  0  0  0  0  0  0  0  0
   32.7090   30.0760   45.9000 C   0  0  0  0  0  0  0  0  0  0  0  0
   32.2730   29.7960   44.5990 C   0  0  0  0  0  0  0  0  0  0  0  0
   31.8310   31.0330   44.1130 C   0  0  0  0  0  0  0  0  0  0  0  0
   32.0000   31.9750   45.0750 N   0  0  0  0  0  0  0  0  0  0  0  0
   32.5340   31.3840   46.1550 N   0  0  0  0  0  0  0  0  0  0  0  0
   38.2003   30.4565   51.9574 H   0  0  0  0  0  0  0  0  0  0  0  0
   39.0226   31.4686   49.7996 H   0  0  0  0  0  0  0  0  0  0  0  0
   36.2079   30.0724   46.3378 H   0  0  0  0  0  0  0  0  0  0  0  0
   36.7715   30.9406   44.1123 H   0  0  0  0  0  0  0  0  0  0  0  0
   33.5279   25.7740   46.3485 H   0  0  0  0  0  0  0  0  0  0  0  0
   34.5274   25.9164   48.5186 H   0  0  0  0  0  0  0  0  0  0  0  0
   32.2768   28.8270   44.0783 H   0  0  0  0  0  0  0  0  0  0  0  0
   31.4135   31.2123   43.1112 H   0  0  0  0  0  0  0  0  0  0  0  0
   31.7595   32.9730   44.9907 H   0  0  0  0  0  0  0  0  0  0  0  0
  1  6  2  0
  2  1  1  0
  3  4  1  0
  3  2  2  0
  4  5  2  0
  5  6  1  0
  7  3  1  0
  8  7  2  0
  9  8  1  0
 10  9  2  0
 10 11  1  0
 11 12  2  0
 12  7  1  0
 13 11  1  0
 13 14  1  0
 15 13  1  0
 16 13  1  0
 17  5  1  0
 18 19  1  0
 19 20  2  0
 20 17  1  0
 21 22  2  0
 21 20  1  0
 23 21  1  0
 24 23  1  0
 24 18  1  0
 25 24  2  0
 26 30  2  0
 26 23  1  0
 27 26  1  0
 28 27  2  0
 28 29  1  0
 29 30  1  0
  1 31  1  0
  2 32  1  0
  8 33  1  0
  9 34  1  0
 18 35  1  0
 19 36  1  0
 27 37  1  0
 28 38  1  0
 29 39  1  0
M  ISO  8  31  14  32  14  33  14  34  14  35   9  36  14  37  14  38  14
M  ISO  1  39   9
M  END
>  <minimizedAffinity>  (1) 
-7.06763792

>  <minimizedRMSD>  (1) 
1.0198493

$$$$
