
     RDKit          3D

 34 37  0  0  0  0  0  0  0  0999 V2000
   33.7050   28.5150   48.8330 C   0  0  0  0  0  0  0  0  0  0  0  0
   33.8630   28.8220   50.1380 C   0  0  0  0  0  0  0  0  0  0  0  0
   34.9300   29.5280   50.6570 C   0  0  0  0  0  0  0  0  0  0  0  0
   35.9190   29.9650   49.8200 C   0  0  0  0  0  0  0  0  0  0  0  0
   35.7520   29.6440   48.4670 C   0  0  0  0  0  0  0  0  0  0  0  0
   34.6970   28.9560   48.0080 N   0  0  0  0  0  0  0  0  0  0  0  0
   31.3330   27.6660   48.9430 C   0  0  0  0  0  0  0  0  0  0  0  0
   32.5860   27.7780   48.3090 C   0  0  0  0  0  0  0  0  0  0  0  0
   32.7120   27.1160   47.0950 C   0  0  0  0  0  0  0  0  0  0  0  0
   31.6630   26.4110   46.5790 N   0  0  0  0  0  0  0  0  0  0  0  0
   30.4920   26.3460   47.2380 C   0  0  0  0  0  0  0  0  0  0  0  0
   30.3120   26.9680   48.4200 N   0  0  0  0  0  0  0  0  0  0  0  0
   37.0590   30.6850   50.1650 O   0  0  0  0  0  0  0  0  0  0  0  0
   37.8230   31.3470   49.2040 C   0  0  0  0  0  0  0  0  0  0  0  0
   38.1350   32.6630   49.5660 C   0  0  0  0  0  0  0  0  0  0  0  0
   38.8940   33.2200   48.5380 C   0  0  0  0  0  0  0  0  0  0  0  0
   39.0090   32.2490   47.6220 N   0  0  0  0  0  0  0  0  0  0  0  0
   38.3870   31.1640   48.0110 N   0  0  0  0  0  0  0  0  0  0  0  0
   39.6750   32.2440   46.3620 C   0  0  0  0  0  0  0  0  0  0  0  0
   39.9810   33.1240   45.3440 C   0  0  0  0  0  0  0  0  0  0  0  0
   40.6750   32.3870   44.4000 C   0  0  0  0  0  0  0  0  0  0  0  0
   40.7750   31.1140   44.8450 N   0  0  0  0  0  0  0  0  0  0  0  0
   40.1800   31.0260   46.0160 N   0  0  0  0  0  0  0  0  0  0  0  0
   33.0850   28.4852   50.8389 H   0  0  0  0  0  0  0  0  0  0  0  0
   34.9840   29.7373   51.7355 H   0  0  0  0  0  0  0  0  0  0  0  0
   36.5197   29.9705   47.7500 H   0  0  0  0  0  0  0  0  0  0  0  0
   31.1845   28.1722   49.9082 H   0  0  0  0  0  0  0  0  0  0  0  0
   33.6637   27.1599   46.5452 H   0  0  0  0  0  0  0  0  0  0  0  0
   29.6616   25.7715   46.8017 H   0  0  0  0  0  0  0  0  0  0  0  0
   37.8346   33.1676   50.4961 H   0  0  0  0  0  0  0  0  0  0  0  0
   39.3091   34.2375   48.4893 H   0  0  0  0  0  0  0  0  0  0  0  0
   39.7256   34.1927   45.2931 H   0  0  0  0  0  0  0  0  0  0  0  0
   41.0764   32.7710   43.4506 H   0  0  0  0  0  0  0  0  0  0  0  0
   41.2403   30.3403   44.3492 H   0  0  0  0  0  0  0  0  0  0  0  0
  1  2  2  0
  2  3  1  0
  4 13  1  0
  4  3  2  0
  5  4  1  0
  6  5  2  0
  6  1  1  0
  8  1  1  0
  8  7  2  0
  9  8  1  0
 10  9  2  0
 10 11  1  0
 11 12  2  0
 12  7  1  0
 14 15  1  0
 14 13  1  0
 16 15  2  0
 17 18  1  0
 17 16  1  0
 18 14  2  0
 19 17  1  0
 20 19  1  0
 21 22  1  0
 21 20  2  0
 22 23  1  0
 23 19  2  0
  2 24  1  0
  3 25  1  0
  5 26  1  0
  7 27  1  0
  9 28  1  0
 11 29  1  0
 15 30  1  0
 16 31  1  0
 20 32  1  0
 21 33  1  0
 22 34  1  0
M  ISO  8  24  14  25  14  26  14  27  14  28  14  29  14  30  14  31  14
M  ISO  3  32  14  33  14  34   9
M  END
>  <minimizedAffinity>  (1) 
-6.49999666

>  <minimizedRMSD>  (1) 
1.55799019

$$$$
