
     RDKit          3D

 41 43  0  0  1  0  0  0  0  0999 V2000
   37.5850   30.9640   44.5230 C   0  0  2  0  0  0  0  0  0  0  0  0
   39.0500   30.8010   44.4030 C   0  0  0  0  0  0  0  0  0  0  0  0
   39.7220   30.6090   45.7450 C   0  0  0  0  0  0  0  0  0  0  0  0
   39.4200   31.7100   46.7160 C   0  0  0  0  0  0  0  0  0  0  0  0
   38.0000   32.2010   46.6520 C   0  0  0  0  0  0  0  0  0  0  0  0
   37.1010   31.2150   45.9150 C   0  0  2  0  0  0  0  0  0  0  0  0
   36.8200   29.8330   43.9800 C   0  0  0  0  0  0  0  0  0  0  0  0
   37.5780   28.8960   43.2400 C   0  0  0  0  0  0  0  0  0  0  0  0
   36.8830   27.8000   42.7340 C   0  0  0  0  0  0  0  0  0  0  0  0
   35.5460   27.6830   42.9670 N   0  0  0  0  0  0  0  0  0  0  0  0
   34.8580   28.6100   43.6840 C   0  0  0  0  0  0  0  0  0  0  0  0
   35.5090   29.6400   44.1600 N   0  0  0  0  0  0  0  0  0  0  0  0
   36.9060   30.1350   46.7730 N   0  0  0  0  0  0  0  0  0  0  0  0
   35.4220   30.0480   47.5950 S   0  0  0  0  0  0  0  0  0  0  0  0
   34.4120   30.7950   46.7350 O   0  0  0  0  0  0  0  0  0  0  0  0
   34.9350   28.6430   47.7830 O   0  0  0  0  0  0  0  0  0  0  0  0
   35.4410   30.8250   49.0710 O   0  0  0  0  0  0  0  0  0  0  0  0
   36.3090   30.4460   50.0930 C   0  0  0  0  0  0  0  0  0  0  0  0
   36.3110   29.7390   51.2600 C   0  0  0  0  0  0  0  0  0  0  0  0
   37.5880   29.7630   51.8030 C   0  0  0  0  0  0  0  0  0  0  0  0
   38.3130   30.4870   50.9410 N   0  0  0  0  0  0  0  0  0  0  0  0
   37.5810   30.9040   49.9180 N   0  0  0  0  0  0  0  0  0  0  0  0
   37.4004   31.8629   43.9164 H   0  0  0  0  0  0  0  0  0  0  0  0
   39.2572   29.9217   43.7754 H   0  0  0  0  0  0  0  0  0  0  0  0
   39.4537   31.7209   43.9549 H   0  0  0  0  0  0  0  0  0  0  0  0
   39.3775   29.6575   46.1762 H   0  0  0  0  0  0  0  0  0  0  0  0
   40.8083   30.6130   45.5717 H   0  0  0  0  0  0  0  0  0  0  0  0
   39.6133   31.3385   47.7332 H   0  0  0  0  0  0  0  0  0  0  0  0
   40.0658   32.5595   46.4492 H   0  0  0  0  0  0  0  0  0  0  0  0
   37.6211   32.3336   47.6761 H   0  0  0  0  0  0  0  0  0  0  0  0
   37.9888   33.1547   46.1039 H   0  0  0  0  0  0  0  0  0  0  0  0
   36.0944   31.6006   45.6960 H   0  0  0  0  0  0  0  0  0  0  0  0
   38.6575   29.0256   43.0731 H   0  0  0  0  0  0  0  0  0  0  0  0
   37.4113   27.0327   42.1491 H   0  0  0  0  0  0  0  0  0  0  0  0
   33.7781   28.4968   43.8601 H   0  0  0  0  0  0  0  0  0  0  0  0
   37.0004   29.2752   46.2138 H   0  0  0  0  0  0  0  0  0  0  0  0
   33.7692   31.2705   47.3188 H   0  0  0  0  0  0  0  0  0  0  0  0
   34.8661   28.4443   48.7504 H   0  0  0  0  0  0  0  0  0  0  0  0
   35.4400   29.2313   51.7000 H   0  0  0  0  0  0  0  0  0  0  0  0
   37.9294   29.2911   52.7361 H   0  0  0  0  0  0  0  0  0  0  0  0
   39.3151   30.6941   51.0584 H   0  0  0  0  0  0  0  0  0  0  0  0
  1  6  1  0
  2  1  1  0
  2  3  1  0
  3  4  1  0
  5  4  1  0
  6  5  1  0
  6 13  1  0
  7 12  1  0
  7  1  1  0
  8  7  2  0
  9 10  2  0
  9  8  1  0
 10 11  1  0
 11 12  2  0
 13 14  1  0
 14 16  1  0
 14 17  1  0
 15 14  1  0
 17 18  1  0
 18 19  1  0
 19 20  2  0
 21 20  1  0
 22 18  2  0
 22 21  1  0
  1 23  1  6
  2 24  1  0
  2 25  1  0
  3 26  1  0
  3 27  1  0
  4 28  1  0
  4 29  1  0
  5 30  1  0
  5 31  1  0
  6 32  1  6
  8 33  1  0
  9 34  1  0
 11 35  1  0
 13 36  1  0
 15 37  1  0
 16 38  1  0
 19 39  1  0
 20 40  1  0
 21 41  1  0
M  ISO  8  23  13  24  13  25  13  26  13  27  13  28  13  29  13  30  13
M  ISO  8  31  13  32  13  33  14  34  14  35  14  36   5  37   3  38   3
M  ISO  3  39  14  40  14  41   9
M  END
>  <minimizedAffinity>  (1) 
-4.77016544

>  <minimizedRMSD>  (1) 
4.19133425

$$$$
