
     RDKit          3D

 34 36  0  0  1  0  0  0  0  0999 V2000
   39.7550   33.1710   45.9540 N   0  0  0  0  0  0  0  0  0  0  0  0
   38.5270   32.4880   46.1170 C   0  0  1  0  0  0  0  0  0  0  0  0
   37.8470   32.3240   44.7810 C   0  0  0  0  0  0  0  0  0  0  0  0
   38.7610   31.5740   43.9170 N   0  0  0  0  0  0  0  0  0  0  0  0
   39.8870   32.4770   43.6540 C   0  0  0  0  0  0  0  0  0  0  0  0
   40.6340   32.6080   44.9790 C   0  0  2  0  0  0  0  0  0  0  0  0
   41.1530   31.3000   45.3270 N   0  0  0  0  0  0  0  0  0  0  0  0
   38.7730   30.7750   46.7580 S   0  0  0  0  0  0  0  0  0  0  0  0
   37.2860   30.7390   50.5330 C   0  0  0  0  0  0  0  0  0  0  0  0
   38.1310   30.9830   49.4480 C   0  0  0  0  0  0  0  0  0  0  0  0
   37.7800   30.5260   48.2070 C   0  0  0  0  0  0  0  0  0  0  0  0
   36.5960   29.8430   48.0960 N   0  0  0  0  0  0  0  0  0  0  0  0
   35.8180   29.6300   49.1460 C   0  0  0  0  0  0  0  0  0  0  0  0
   36.1520   30.0730   50.3690 N   0  0  0  0  0  0  0  0  0  0  0  0
   34.5520   28.8870   48.9680 C   0  0  0  0  0  0  0  0  0  0  0  0
   34.0470   27.8950   48.1790 C   0  0  0  0  0  0  0  0  0  0  0  0
   32.7400   27.6970   48.5830 C   0  0  0  0  0  0  0  0  0  0  0  0
   32.4760   28.5520   49.5880 N   0  0  0  0  0  0  0  0  0  0  0  0
   33.5700   29.2790   49.8300 N   0  0  0  0  0  0  0  0  0  0  0  0
   39.5469   34.1403   45.6748 H   0  0  0  0  0  0  0  0  0  0  0  0
   37.9325   33.0864   46.8230 H   0  0  0  0  0  0  0  0  0  0  0  0
   36.9048   31.7697   44.9036 H   0  0  0  0  0  0  0  0  0  0  0  0
   37.6109   33.3041   44.3410 H   0  0  0  0  0  0  0  0  0  0  0  0
   39.0878   30.7214   44.3937 H   0  0  0  0  0  0  0  0  0  0  0  0
   40.5465   32.0522   42.8829 H   0  0  0  0  0  0  0  0  0  0  0  0
   39.5439   33.4546   43.2845 H   0  0  0  0  0  0  0  0  0  0  0  0
   41.4934   33.2917   44.9160 H   0  0  0  0  0  0  0  0  0  0  0  0
   41.1899   31.2069   46.3521 H   0  0  0  0  0  0  0  0  0  0  0  0
   40.5372   30.5717   44.9381 H   0  0  0  0  0  0  0  0  0  0  0  0
   37.5643   31.1030   51.5330 H   0  0  0  0  0  0  0  0  0  0  0  0
   39.0703   31.5376   49.5899 H   0  0  0  0  0  0  0  0  0  0  0  0
   34.5763   27.3579   47.3782 H   0  0  0  0  0  0  0  0  0  0  0  0
   32.0369   26.9664   48.1565 H   0  0  0  0  0  0  0  0  0  0  0  0
   31.5790   28.6325   50.0878 H   0  0  0  0  0  0  0  0  0  0  0  0
  1  2  1  0
  2  8  1  0
  3  2  1  0
  4  3  1  0
  5  4  1  0
  5  6  1  0
  6  7  1  0
  6  1  1  0
  8 11  1  0
 10  9  2  0
 11 10  1  0
 12 11  2  0
 12 13  1  0
 13 14  2  0
 14  9  1  0
 15 13  1  0
 15 19  2  0
 16 17  2  0
 16 15  1  0
 17 18  1  0
 18 19  1  0
  1 20  1  0
  2 21  1  1
  3 22  1  0
  3 23  1  0
  4 24  1  0
  5 25  1  0
  5 26  1  0
  6 27  1  6
  7 28  1  0
  7 29  1  0
  9 30  1  0
 10 31  1  0
 16 32  1  0
 17 33  1  0
 18 34  1  0
M  ISO  8  20   5  21  13  22  13  23  13  24   5  25  13  26  13  27  13
M  ISO  7  28   5  29   5  30  14  31  14  32  14  33  14  34   9
M  END
>  <minimizedAffinity>  (1) 
-5.67173958

>  <minimizedRMSD>  (1) 
1.07191622

$$$$
