
     RDKit          3D

 41 44  0  0  1  0  0  0  0  0999 V2000
   37.6630   31.3850   48.6480 N   0  0  0  0  0  0  0  0  0  0  0  0
   38.2110   31.5120   49.9730 C   0  0  0  0  0  0  0  0  0  0  0  0
   39.2320   32.5960   50.1050 C   0  0  0  0  0  0  0  0  0  0  0  0
   38.9450   33.7530   49.1730 C   0  0  0  0  0  0  0  0  0  0  0  0
   39.0630   33.2200   47.7770 C   0  0  0  0  0  0  0  0  0  0  0  0
   38.0830   32.1200   47.5010 C   0  0  1  0  0  0  0  0  0  0  0  0
   36.5280   29.3210   49.3160 C   0  0  0  0  0  0  0  0  0  0  0  0
   36.6130   30.4370   48.4920 C   0  0  0  0  0  0  0  0  0  0  0  0
   35.6260   30.5890   47.5120 C   0  0  0  0  0  0  0  0  0  0  0  0
   34.6490   29.6410   47.4250 N   0  0  0  0  0  0  0  0  0  0  0  0
   34.5910   28.5830   48.2250 C   0  0  0  0  0  0  0  0  0  0  0  0
   35.5390   28.4270   49.1750 N   0  0  0  0  0  0  0  0  0  0  0  0
   33.5380   27.5980   48.1100 C   0  0  0  0  0  0  0  0  0  0  0  0
   33.7450   26.3890   47.5220 C   0  0  0  0  0  0  0  0  0  0  0  0
   32.7690   25.4290   47.3970 C   0  0  0  0  0  0  0  0  0  0  0  0
   31.5410   25.7820   47.9170 C   0  0  0  0  0  0  0  0  0  0  0  0
   31.2610   27.0230   48.5420 C   0  0  0  0  0  0  0  0  0  0  0  0
   32.3100   27.8990   48.6090 N   0  0  0  0  0  0  0  0  0  0  0  0
   38.6450   31.2210   46.4340 C   0  0  0  0  0  0  0  0  0  0  0  0
   39.9680   31.5430   46.1150 C   0  0  0  0  0  0  0  0  0  0  0  0
   40.3940   30.6680   45.1260 C   0  0  0  0  0  0  0  0  0  0  0  0
   39.3320   29.8540   44.8790 N   0  0  0  0  0  0  0  0  0  0  0  0
   38.3060   30.1700   45.6390 N   0  0  0  0  0  0  0  0  0  0  0  0
   37.3869   31.7257   50.6696 H   0  0  0  0  0  0  0  0  0  0  0  0
   38.7207   30.5640   50.1999 H   0  0  0  0  0  0  0  0  0  0  0  0
   39.2288   32.9642   51.1415 H   0  0  0  0  0  0  0  0  0  0  0  0
   40.2133   32.1766   49.8382 H   0  0  0  0  0  0  0  0  0  0  0  0
   37.9293   34.1376   49.3475 H   0  0  0  0  0  0  0  0  0  0  0  0
   39.6490   34.5813   49.3415 H   0  0  0  0  0  0  0  0  0  0  0  0
   38.8808   34.0415   47.0686 H   0  0  0  0  0  0  0  0  0  0  0  0
   40.0750   32.8048   47.6608 H   0  0  0  0  0  0  0  0  0  0  0  0
   37.1577   32.5990   47.1483 H   0  0  0  0  0  0  0  0  0  0  0  0
   37.2862   29.1685   50.0982 H   0  0  0  0  0  0  0  0  0  0  0  0
   35.6376   31.4512   46.8290 H   0  0  0  0  0  0  0  0  0  0  0  0
   34.7468   26.1677   47.1253 H   0  0  0  0  0  0  0  0  0  0  0  0
   32.9529   24.4552   46.9195 H   0  0  0  0  0  0  0  0  0  0  0  0
   30.7231   25.0503   47.8414 H   0  0  0  0  0  0  0  0  0  0  0  0
   30.2671   27.2656   48.9461 H   0  0  0  0  0  0  0  0  0  0  0  0
   40.5654   32.3478   46.5681 H   0  0  0  0  0  0  0  0  0  0  0  0
   41.3820   30.6386   44.6433 H   0  0  0  0  0  0  0  0  0  0  0  0
   39.3316   29.0905   44.1876 H   0  0  0  0  0  0  0  0  0  0  0  0
  1  2  1  0
  2  3  1  0
  4  3  1  0
  5  4  1  0
  6  5  1  0
  6  1  1  0
  8  1  1  0
  8  7  2  0
  9  8  1  0
 10  9  2  0
 10 11  1  0
 11 12  2  0
 12  7  1  0
 13 11  1  0
 13 18  1  0
 14 13  2  0
 15 14  1  0
 15 16  2  0
 16 17  1  0
 17 18  2  0
 19  6  1  0
 20 19  1  0
 21 20  2  0
 22 21  1  0
 22 23  1  0
 23 19  2  0
  2 24  1  0
  2 25  1  0
  3 26  1  0
  3 27  1  0
  4 28  1  0
  4 29  1  0
  5 30  1  0
  5 31  1  0
  6 32  1  6
  7 33  1  0
  9 34  1  0
 14 35  1  0
 15 36  1  0
 16 37  1  0
 17 38  1  0
 20 39  1  0
 21 40  1  0
 22 41  1  0
M  ISO  8  24  13  25  13  26  13  27  13  28  13  29  13  30  13  31  13
M  ISO  8  32  13  33  14  34  14  35  14  36  14  37  14  38  14  39  14
M  ISO  2  40  14  41   9
M  END
>  <minimizedAffinity>  (1) 
-5.75291157

>  <minimizedRMSD>  (1) 
1.32926393

$$$$
