
     RDKit          3D

 41 44  0  0  0  0  0  0  0  0999 V2000
   33.0380   28.0050   48.1230 C   0  0  0  0  0  0  0  0  0  0  0  0
   33.4540   27.0080   47.1070 C   0  0  0  0  0  0  0  0  0  0  0  0
   33.6460   25.6620   47.4090 C   0  0  0  0  0  0  0  0  0  0  0  0
   34.0360   24.7400   46.4760 C   0  0  0  0  0  0  0  0  0  0  0  0
   34.2560   25.1260   45.1700 C   0  0  0  0  0  0  0  0  0  0  0  0
   34.0730   26.4280   44.8630 C   0  0  0  0  0  0  0  0  0  0  0  0
   33.6790   27.3690   45.7980 C   0  0  0  0  0  0  0  0  0  0  0  0
   33.5130   28.7420   45.3350 C   0  0  0  0  0  0  0  0  0  0  0  0
   32.3580   29.3220   44.8420 C   0  0  0  0  0  0  0  0  0  0  0  0
   32.5560   30.6420   44.4940 C   0  0  0  0  0  0  0  0  0  0  0  0
   33.8510   30.8550   44.7830 N   0  0  0  0  0  0  0  0  0  0  0  0
   34.3780   29.7660   45.2600 N   0  0  0  0  0  0  0  0  0  0  0  0
   35.1030   28.3060   49.4830 C   0  0  0  0  0  0  0  0  0  0  0  0
   34.1630   28.7660   48.6940 C   0  0  0  0  0  0  0  0  0  0  0  0
   37.4010   30.1930   51.5950 C   0  0  0  0  0  0  0  0  0  0  0  0
   38.0930   30.9730   50.6480 C   0  0  0  0  0  0  0  0  0  0  0  0
   37.7410   30.8210   49.2950 C   0  0  0  0  0  0  0  0  0  0  0  0
   36.7490   29.9270   48.9770 N   0  0  0  0  0  0  0  0  0  0  0  0
   36.1330   29.2160   49.9460 C   0  0  0  0  0  0  0  0  0  0  0  0
   36.4490   29.3430   51.2320 N   0  0  0  0  0  0  0  0  0  0  0  0
   38.3900   31.5800   48.2150 C   0  0  0  0  0  0  0  0  0  0  0  0
   38.5990   31.0470   46.9670 C   0  0  0  0  0  0  0  0  0  0  0  0
   39.2340   32.0390   46.1970 C   0  0  0  0  0  0  0  0  0  0  0  0
   39.3730   33.1130   47.0160 N   0  0  0  0  0  0  0  0  0  0  0  0
   38.8710   32.8360   48.2130 N   0  0  0  0  0  0  0  0  0  0  0  0
   32.5248   27.4765   48.9399 H   0  0  0  0  0  0  0  0  0  0  0  0
   32.3815   28.7282   47.6171 H   0  0  0  0  0  0  0  0  0  0  0  0
   33.4768   25.3254   48.4425 H   0  0  0  0  0  0  0  0  0  0  0  0
   34.1744   23.6886   46.7681 H   0  0  0  0  0  0  0  0  0  0  0  0
   34.5693   24.3991   44.4061 H   0  0  0  0  0  0  0  0  0  0  0  0
   34.2442   26.7543   43.8266 H   0  0  0  0  0  0  0  0  0  0  0  0
   31.3981   28.7946   44.7399 H   0  0  0  0  0  0  0  0  0  0  0  0
   31.8263   31.3524   44.0782 H   0  0  0  0  0  0  0  0  0  0  0  0
   34.3504   31.7456   44.6473 H   0  0  0  0  0  0  0  0  0  0  0  0
   35.1106   27.2493   49.7884 H   0  0  0  0  0  0  0  0  0  0  0  0
   34.2200   29.8324   48.4304 H   0  0  0  0  0  0  0  0  0  0  0  0
   37.6558   30.2908   52.6606 H   0  0  0  0  0  0  0  0  0  0  0  0
   38.8809   31.6762   50.9559 H   0  0  0  0  0  0  0  0  0  0  0  0
   38.3225   30.0362   46.6325 H   0  0  0  0  0  0  0  0  0  0  0  0
   39.5524   31.9605   45.1470 H   0  0  0  0  0  0  0  0  0  0  0  0
   39.8039   34.0094   46.7482 H   0  0  0  0  0  0  0  0  0  0  0  0
  1 14  1  0
  2  3  2  0
  2  1  1  0
  4  3  1  0
  5  4  2  0
  6  5  1  0
  6  7  2  0
  7  2  1  0
  8  7  1  0
  9  8  1  0
 10 11  1  0
 10  9  2  0
 11 12  1  0
 12  8  2  0
 13 19  1  0
 14 13  2  0
 16 15  2  0
 17 16  1  0
 18 17  2  0
 18 19  1  0
 19 20  2  0
 20 15  1  0
 21 17  1  0
 22 21  1  0
 23 22  2  0
 23 24  1  0
 24 25  1  0
 25 21  2  0
  1 26  1  0
  1 27  1  0
  3 28  1  0
  4 29  1  0
  5 30  1  0
  6 31  1  0
  9 32  1  0
 10 33  1  0
 11 34  1  0
 13 35  1  0
 14 36  1  0
 15 37  1  0
 16 38  1  0
 22 39  1  0
 23 40  1  0
 24 41  1  0
M  ISO  8  26   8  27   8  28  14  29  14  30  14  31  14  32  14  33  14
M  ISO  6  34   9  37  14  38  14  39  14  40  14  41   9
M  END
>  <minimizedAffinity>  (1) 
-6.39248943

>  <minimizedRMSD>  (1) 
0.374762088

$$$$
