
     RDKit          3D

 41 45  0  0  0  0  0  0  0  0999 V2000
   34.5420   28.2520   47.9900 C   0  0  0  0  0  0  0  0  0  0  0  0
   33.0650   28.3210   47.6990 C   0  0  0  0  0  0  0  0  0  0  0  0
   32.0830   27.5160   48.2420 C   0  0  0  0  0  0  0  0  0  0  0  0
   30.8480   27.8940   47.7220 C   0  0  0  0  0  0  0  0  0  0  0  0
   31.1300   28.9130   46.8820 N   0  0  0  0  0  0  0  0  0  0  0  0
   32.4320   29.1580   46.8740 N   0  0  0  0  0  0  0  0  0  0  0  0
   28.7410   29.2930   46.2620 N   0  0  0  0  0  0  0  0  0  0  0  0
   30.0560   29.5330   46.1770 C   0  0  0  0  0  0  0  0  0  0  0  0
   30.2070   30.5220   45.2580 N   0  0  0  0  0  0  0  0  0  0  0  0
   29.0160   30.8830   44.7870 C   0  0  0  0  0  0  0  0  0  0  0  0
   28.6800   31.8390   43.8450 C   0  0  0  0  0  0  0  0  0  0  0  0
   27.3970   32.0270   43.5280 N   0  0  0  0  0  0  0  0  0  0  0  0
   26.4510   31.2640   44.1470 C   0  0  0  0  0  0  0  0  0  0  0  0
   26.7620   30.3150   45.0790 N   0  0  0  0  0  0  0  0  0  0  0  0
   28.0630   30.1080   45.4160 C   0  0  0  0  0  0  0  0  0  0  0  0
   34.6600   28.2830   49.5050 C   0  0  0  0  0  0  0  0  0  0  0  0
   37.2190   30.0770   51.5060 C   0  0  0  0  0  0  0  0  0  0  0  0
   37.9050   30.8010   50.5240 C   0  0  0  0  0  0  0  0  0  0  0  0
   37.4750   30.6610   49.1920 C   0  0  0  0  0  0  0  0  0  0  0  0
   36.4390   29.8490   48.9150 N   0  0  0  0  0  0  0  0  0  0  0  0
   35.7940   29.1570   49.9030 C   0  0  0  0  0  0  0  0  0  0  0  0
   36.1990   29.2890   51.1600 N   0  0  0  0  0  0  0  0  0  0  0  0
   38.1910   31.4160   48.1780 C   0  0  0  0  0  0  0  0  0  0  0  0
   38.5660   30.9680   46.9280 C   0  0  0  0  0  0  0  0  0  0  0  0
   39.2190   32.0350   46.3260 C   0  0  0  0  0  0  0  0  0  0  0  0
   39.2140   33.0690   47.2160 N   0  0  0  0  0  0  0  0  0  0  0  0
   38.5870   32.6830   48.3390 N   0  0  0  0  0  0  0  0  0  0  0  0
   35.0618   29.1140   47.5463 H   0  0  0  0  0  0  0  0  0  0  0  0
   34.9998   27.3472   47.5637 H   0  0  0  0  0  0  0  0  0  0  0  0
   32.2497   26.7067   48.9682 H   0  0  0  0  0  0  0  0  0  0  0  0
   29.8625   27.4595   47.9455 H   0  0  0  0  0  0  0  0  0  0  0  0
   28.3078   28.5918   46.8797 H   0  0  0  0  0  0  0  0  0  0  0  0
   29.4642   32.4396   43.3609 H   0  0  0  0  0  0  0  0  0  0  0  0
   25.3940   31.4192   43.8849 H   0  0  0  0  0  0  0  0  0  0  0  0
   33.7273   28.6757   49.9361 H   0  0  0  0  0  0  0  0  0  0  0  0
   34.8391   27.2633   49.8766 H   0  0  0  0  0  0  0  0  0  0  0  0
   37.5200   30.1574   52.5610 H   0  0  0  0  0  0  0  0  0  0  0  0
   38.7497   31.4557   50.7844 H   0  0  0  0  0  0  0  0  0  0  0  0
   38.3851   29.9720   46.4977 H   0  0  0  0  0  0  0  0  0  0  0  0
   39.6590   32.0449   45.3179 H   0  0  0  0  0  0  0  0  0  0  0  0
   39.6260   33.9987   47.0524 H   0  0  0  0  0  0  0  0  0  0  0  0
  1 16  1  0
  2  1  1  0
  2  3  1  0
  4  3  2  0
  5  4  1  0
  6  5  1  0
  6  2  2  0
  8  7  1  0
  8  5  1  0
  9  8  2  0
 10  9  1  0
 10 15  2  0
 11 10  1  0
 12 11  2  0
 12 13  1  0
 13 14  2  0
 14 15  1  0
 15  7  1  0
 16 21  1  0
 18 17  2  0
 19 18  1  0
 20 19  2  0
 20 21  1  0
 21 22  2  0
 22 17  1  0
 23 27  2  0
 23 19  1  0
 24 23  1  0
 25 24  2  0
 25 26  1  0
 26 27  1  0
  1 28  1  0
  1 29  1  0
  3 30  1  0
  4 31  1  0
  7 32  1  0
 11 33  1  0
 13 34  1  0
 16 35  1  0
 16 36  1  0
 17 37  1  0
 18 38  1  0
 24 39  1  0
 25 40  1  0
 26 41  1  0
M  ISO  8  28   8  29   8  30  14  31  14  32   9  33  14  34  14  35   8
M  ISO  6  36   8  37  14  38  14  39  14  40  14  41   9
M  END
>  <minimizedAffinity>  (1) 
-6.84886026

>  <minimizedRMSD>  (1) 
0.463650674

$$$$
