
     RDKit          3D

 34 36  0  0  1  0  0  0  0  0999 V2000
   37.0520   31.1020   49.2220 C   0  0  0  0  0  0  0  0  0  0  0  0
   37.3090   32.3120   49.8880 C   0  0  0  0  0  0  0  0  0  0  0  0
   38.1080   33.2620   49.2390 C   0  0  0  0  0  0  0  0  0  0  0  0
   38.5950   32.9620   47.9880 N   0  0  0  0  0  0  0  0  0  0  0  0
   38.3160   31.7850   47.3990 C   0  0  0  0  0  0  0  0  0  0  0  0
   37.5640   30.8830   48.0060 N   0  0  0  0  0  0  0  0  0  0  0  0
   38.8680   31.5680   46.1080 N   0  0  0  0  0  0  0  0  0  0  0  0
   40.1820   30.9510   45.9900 C   0  0  0  0  0  0  0  0  0  0  0  0
   41.0300   31.6340   44.9370 C   0  0  0  0  0  0  0  0  0  0  0  0
   40.3260   31.9250   43.7370 N   0  0  0  0  0  0  0  0  0  0  0  0
   38.9720   31.4380   43.7120 C   0  0  0  0  0  0  0  0  0  0  0  0
   38.1570   31.9470   44.8820 C   0  0  1  0  0  0  0  0  0  0  0  0
   36.8350   31.2700   44.8140 C   0  0  0  0  0  0  0  0  0  0  0  0
   35.9410   31.2620   43.7640 C   0  0  0  0  0  0  0  0  0  0  0  0
   34.8190   30.5050   44.1170 C   0  0  0  0  0  0  0  0  0  0  0  0
   35.0820   30.0780   45.3840 N   0  0  0  0  0  0  0  0  0  0  0  0
   36.2430   30.5190   45.7880 N   0  0  0  0  0  0  0  0  0  0  0  0
   36.2070   30.0890   49.9020 C   0  0  0  0  0  0  0  0  0  0  0  0
   34.8680   30.4810   49.8560 F   0  0  0  0  0  0  0  0  0  0  0  0
   36.4420   28.8750   49.3190 F   0  0  0  0  0  0  0  0  0  0  0  0
   36.5720   30.0890   51.2560 F   0  0  0  0  0  0  0  0  0  0  0  0
   36.8955   32.5074   50.8884 H   0  0  0  0  0  0  0  0  0  0  0  0
   38.3404   34.2245   49.7181 H   0  0  0  0  0  0  0  0  0  0  0  0
   40.6958   31.0186   46.9603 H   0  0  0  0  0  0  0  0  0  0  0  0
   40.0422   29.9020   45.6898 H   0  0  0  0  0  0  0  0  0  0  0  0
   41.4089   32.5783   45.3551 H   0  0  0  0  0  0  0  0  0  0  0  0
   41.8392   30.9368   44.6740 H   0  0  0  0  0  0  0  0  0  0  0  0
   40.3033   32.9476   43.6162 H   0  0  0  0  0  0  0  0  0  0  0  0
   38.4944   31.7683   42.7778 H   0  0  0  0  0  0  0  0  0  0  0  0
   39.0076   30.3406   43.7786 H   0  0  0  0  0  0  0  0  0  0  0  0
   38.0179   33.0380   44.8642 H   0  0  0  0  0  0  0  0  0  0  0  0
   36.0873   31.7711   42.8000 H   0  0  0  0  0  0  0  0  0  0  0  0
   33.9256   30.3005   43.5088 H   0  0  0  0  0  0  0  0  0  0  0  0
   34.4516   29.4883   45.9460 H   0  0  0  0  0  0  0  0  0  0  0  0
  1  2  2  0
  1 18  1  0
  3  2  1  0
  4  3  2  0
  5  4  1  0
  5  6  2  0
  6  1  1  0
  7  5  1  0
  8  7  1  0
  9  8  1  0
 10  9  1  0
 11 10  1  0
 11 12  1  0
 12  7  1  0
 13 12  1  0
 13 17  2  0
 14 15  2  0
 14 13  1  0
 15 16  1  0
 16 17  1  0
 18 21  1  0
 19 18  1  0
 20 18  1  0
  2 22  1  0
  3 23  1  0
  8 24  1  0
  8 25  1  0
  9 26  1  0
  9 27  1  0
 10 28  1  0
 11 29  1  0
 11 30  1  0
 12 31  1  6
 14 32  1  0
 15 33  1  0
 16 34  1  0
M  ISO  8  22  14  23  14  24  13  25  13  26  13  27  13  28   5  29  13
M  ISO  5  30  13  31  13  32  14  33  14  34   9
M  END
>  <minimizedAffinity>  (1) 
-6.04984474

>  <minimizedRMSD>  (1) 
0.601869702

$$$$
