
     RDKit          3D

 41 44  0  0  0  0  0  0  0  0999 V2000
   33.5950   29.5320   46.5350 C   0  0  0  0  0  0  0  0  0  0  0  0
   33.0440   28.2850   46.9020 C   0  0  0  0  0  0  0  0  0  0  0  0
   33.4290   27.5310   47.9590 C   0  0  0  0  0  0  0  0  0  0  0  0
   34.4120   27.9430   48.7710 C   0  0  0  0  0  0  0  0  0  0  0  0
   34.9520   29.1390   48.4310 C   0  0  0  0  0  0  0  0  0  0  0  0
   34.5470   29.8470   47.3880 N   0  0  0  0  0  0  0  0  0  0  0  0
   31.7420   30.6920   45.6400 C   0  0  0  0  0  0  0  0  0  0  0  0
   33.0800   30.2470   45.3770 C   0  0  0  0  0  0  0  0  0  0  0  0
   33.6060   30.5650   44.1620 C   0  0  0  0  0  0  0  0  0  0  0  0
   32.8160   31.2800   43.2950 N   0  0  0  0  0  0  0  0  0  0  0  0
   31.5780   31.6840   43.5580 C   0  0  0  0  0  0  0  0  0  0  0  0
   31.0500   31.3820   44.7410 N   0  0  0  0  0  0  0  0  0  0  0  0
   30.9350   32.4110   42.5260 N   0  0  0  0  0  0  0  0  0  0  0  0
   34.9560   30.1390   43.8360 C   0  0  0  0  0  0  0  0  0  0  0  0
   35.0790   28.8400   44.0730 F   0  0  0  0  0  0  0  0  0  0  0  0
   35.3450   30.3850   42.5300 F   0  0  0  0  0  0  0  0  0  0  0  0
   35.9150   30.8180   44.6510 F   0  0  0  0  0  0  0  0  0  0  0  0
   36.5080   31.2280   47.5030 F   0  0  0  0  0  0  0  0  0  0  0  0
   36.8100   30.7670   48.7510 C   0  0  0  0  0  0  0  0  0  0  0  0
   36.0440   29.7270   49.2350 C   0  0  0  0  0  0  0  0  0  0  0  0
   36.3870   29.3040   50.4910 C   0  0  0  0  0  0  0  0  0  0  0  0
   37.4110   29.8680   51.2180 C   0  0  0  0  0  0  0  0  0  0  0  0
   38.1400   30.9060   50.6770 C   0  0  0  0  0  0  0  0  0  0  0  0
   37.8430   31.3730   49.4210 C   0  0  0  0  0  0  0  0  0  0  0  0
   38.5890   32.4650   48.8170 C   0  0  0  0  0  0  0  0  0  0  0  0
   38.9620   33.6310   49.4550 C   0  0  0  0  0  0  0  0  0  0  0  0
   39.6580   34.4390   48.5750 C   0  0  0  0  0  0  0  0  0  0  0  0
   39.6950   33.7490   47.4190 N   0  0  0  0  0  0  0  0  0  0  0  0
   39.0660   32.6040   47.5870 N   0  0  0  0  0  0  0  0  0  0  0  0
   32.2308   27.8914   46.2745 H   0  0  0  0  0  0  0  0  0  0  0  0
   32.9295   26.5703   48.1530 H   0  0  0  0  0  0  0  0  0  0  0  0
   34.7520   27.3602   49.6398 H   0  0  0  0  0  0  0  0  0  0  0  0
   31.2783   30.4561   46.6092 H   0  0  0  0  0  0  0  0  0  0  0  0
   29.9737   32.7555   42.6607 H   0  0  0  0  0  0  0  0  0  0  0  0
   31.4288   32.5951   41.6410 H   0  0  0  0  0  0  0  0  0  0  0  0
   35.8186   28.4759   50.9396 H   0  0  0  0  0  0  0  0  0  0  0  0
   37.6464   29.4927   52.2249 H   0  0  0  0  0  0  0  0  0  0  0  0
   38.9601   31.3601   51.2525 H   0  0  0  0  0  0  0  0  0  0  0  0
   38.7395   33.8793   50.5033 H   0  0  0  0  0  0  0  0  0  0  0  0
   40.0885   35.4311   48.7757 H   0  0  0  0  0  0  0  0  0  0  0  0
   40.1420   34.0649   46.5465 H   0  0  0  0  0  0  0  0  0  0  0  0
  1  2  2  0
  1  6  1  0
  2  3  1  0
  3  4  2  0
  5  4  1  0
  5 20  1  0
  6  5  2  0
  8  7  2  0
  8  1  1  0
  9  8  1  0
 10 11  1  0
 10  9  2  0
 11 12  2  0
 12  7  1  0
 13 11  1  0
 14 15  1  0
 14  9  1  0
 14 17  1  0
 16 14  1  0
 18 19  1  0
 19 20  2  0
 19 24  1  0
 20 21  1  0
 21 22  2  0
 23 22  1  0
 24 23  2  0
 25 24  1  0
 25 26  1  0
 27 26  2  0
 28 29  1  0
 28 27  1  0
 29 25  2  0
  2 30  1  0
  3 31  1  0
  4 32  1  0
  7 33  1  0
 13 34  1  0
 13 35  1  0
 21 36  1  0
 22 37  1  0
 23 38  1  0
 26 39  1  0
 27 40  1  0
 28 41  1  0
M  END
>  <minimizedAffinity>  (1) 
-7.53385019

>  <minimizedRMSD>  (1) 
2.63073707

$$$$
