
     RDKit          3D

 31 33  0  0  0  0  0  0  0  0999 V2000
   36.9710   30.8900   48.6830 C   0  0  0  0  0  0  0  0  0  0  0  0
   37.5040   31.5480   49.7990 C   0  0  0  0  0  0  0  0  0  0  0  0
   38.4470   32.5460   49.6110 C   0  0  0  0  0  0  0  0  0  0  0  0
   38.8170   32.8480   48.3360 N   0  0  0  0  0  0  0  0  0  0  0  0
   38.2830   32.1950   47.2760 C   0  0  0  0  0  0  0  0  0  0  0  0
   37.3770   31.2340   47.4440 N   0  0  0  0  0  0  0  0  0  0  0  0
   35.9950   29.8510   48.7920 N   0  0  0  0  0  0  0  0  0  0  0  0
   35.1780   29.4310   47.6620 C   0  0  0  0  0  0  0  0  0  0  0  0
   33.7360   29.2590   48.0030 C   0  0  0  0  0  0  0  0  0  0  0  0
   33.4470   28.7750   49.3020 N   0  0  0  0  0  0  0  0  0  0  0  0
   34.2540   29.4690   50.3280 C   0  0  0  0  0  0  0  0  0  0  0  0
   35.6880   29.1030   49.9570 C   0  0  0  0  0  0  0  0  0  0  0  0
   38.6600   32.4950   45.8930 C   0  0  0  0  0  0  0  0  0  0  0  0
   39.9670   32.9590   45.7580 C   0  0  0  0  0  0  0  0  0  0  0  0
   40.1850   33.2020   44.4050 C   0  0  0  0  0  0  0  0  0  0  0  0
   39.0210   32.8810   43.7890 N   0  0  0  0  0  0  0  0  0  0  0  0
   38.1070   32.4580   44.6670 N   0  0  0  0  0  0  0  0  0  0  0  0
   37.1776   31.2755   50.8135 H   0  0  0  0  0  0  0  0  0  0  0  0
   38.8843   33.0793   50.4679 H   0  0  0  0  0  0  0  0  0  0  0  0
   35.5650   28.4708   47.2901 H   0  0  0  0  0  0  0  0  0  0  0  0
   35.2392   30.2263   46.9046 H   0  0  0  0  0  0  0  0  0  0  0  0
   33.2480   30.2389   47.8953 H   0  0  0  0  0  0  0  0  0  0  0  0
   33.3646   28.4853   47.3149 H   0  0  0  0  0  0  0  0  0  0  0  0
   32.4481   28.9272   49.5018 H   0  0  0  0  0  0  0  0  0  0  0  0
   34.1005   30.5572   50.2799 H   0  0  0  0  0  0  0  0  0  0  0  0
   33.9878   29.1761   51.3543 H   0  0  0  0  0  0  0  0  0  0  0  0
   35.7659   28.0254   49.7505 H   0  0  0  0  0  0  0  0  0  0  0  0
   36.3859   29.3301   50.7763 H   0  0  0  0  0  0  0  0  0  0  0  0
   40.6930   33.1062   46.5712 H   0  0  0  0  0  0  0  0  0  0  0  0
   41.1068   33.5755   43.9351 H   0  0  0  0  0  0  0  0  0  0  0  0
   38.8615   32.9538   42.7740 H   0  0  0  0  0  0  0  0  0  0  0  0
  1  7  1  0
  1  2  2  0
  3  2  1  0
  4  3  2  0
  5  6  2  0
  5  4  1  0
  6  1  1  0
  7 12  1  0
  8  9  1  0
  8  7  1  0
  9 10  1  0
 10 11  1  0
 12 11  1  0
 13  5  1  0
 14 13  1  0
 15 14  2  0
 16 15  1  0
 16 17  1  0
 17 13  2  0
  2 18  1  0
  3 19  1  0
  8 20  1  0
  8 21  1  0
  9 22  1  0
  9 23  1  0
 10 24  1  0
 11 25  1  0
 11 26  1  0
 12 27  1  0
 12 28  1  0
 14 29  1  0
 15 30  1  0
 16 31  1  0
M  ISO  8  18  14  19  14  20  13  21  13  22  13  23  13  24   5  25  13
M  ISO  6  26  13  27  13  28  13  29  14  30  14  31   9
M  END
>  <minimizedAffinity>  (1) 
-5.50641537

>  <minimizedRMSD>  (1) 
7.21037483

$$$$
