
     RDKit          3D

 39 42  0  0  1  0  0  0  0  0999 V2000
   39.6770   33.1320   44.7300 C   0  0  0  0  0  0  0  0  0  0  0  0
   40.5760   32.1450   44.3400 C   0  0  0  0  0  0  0  0  0  0  0  0
   40.6460   31.0020   45.1050 C   0  0  0  0  0  0  0  0  0  0  0  0
   39.8390   30.9030   46.1910 N   0  0  0  0  0  0  0  0  0  0  0  0
   38.9670   31.8860   46.5500 C   0  0  0  0  0  0  0  0  0  0  0  0
   38.8870   32.9920   45.8260 N   0  0  0  0  0  0  0  0  0  0  0  0
   38.1430   31.6970   47.7270 N   0  0  0  0  0  0  0  0  0  0  0  0
   37.9860   32.7840   48.6550 C   0  0  0  0  0  0  0  0  0  0  0  0
   37.7650   32.3090   50.0730 C   0  0  0  0  0  0  0  0  0  0  0  0
   38.3070   30.9050   50.1790 C   0  0  0  0  0  0  0  0  0  0  0  0
   37.3630   30.0430   49.3700 C   0  0  0  0  0  0  0  0  0  0  0  0
   37.4980   30.3950   47.9320 C   0  0  1  0  0  0  0  0  0  0  0  0
   36.2380   30.2950   47.1810 C   0  0  0  0  0  0  0  0  0  0  0  0
   34.9310   30.2050   47.7090 C   0  0  0  0  0  0  0  0  0  0  0  0
   33.8960   30.1390   46.8310 C   0  0  0  0  0  0  0  0  0  0  0  0
   34.1830   30.1650   45.4270 C   0  0  0  0  0  0  0  0  0  0  0  0
   36.0670   30.2900   45.4650 S   0  0  0  0  0  0  0  0  0  0  0  0
   33.4740   30.1220   44.2430 C   0  0  0  0  0  0  0  0  0  0  0  0
   33.0200   29.0470   43.5570 C   0  0  0  0  0  0  0  0  0  0  0  0
   32.3640   29.5420   42.4220 C   0  0  0  0  0  0  0  0  0  0  0  0
   32.4540   30.9040   42.4790 N   0  0  0  0  0  0  0  0  0  0  0  0
   33.1320   31.2400   43.5910 N   0  0  0  0  0  0  0  0  0  0  0  0
   39.6036   34.0531   44.1333 H   0  0  0  0  0  0  0  0  0  0  0  0
   41.2099   32.2731   43.4502 H   0  0  0  0  0  0  0  0  0  0  0  0
   41.3391   30.1894   44.8420 H   0  0  0  0  0  0  0  0  0  0  0  0
   38.8942   33.4041   48.6285 H   0  0  0  0  0  0  0  0  0  0  0  0
   37.0962   33.3554   48.3521 H   0  0  0  0  0  0  0  0  0  0  0  0
   38.2952   32.9688   50.7755 H   0  0  0  0  0  0  0  0  0  0  0  0
   36.6936   32.3270   50.3216 H   0  0  0  0  0  0  0  0  0  0  0  0
   39.3246   30.8538   49.7644 H   0  0  0  0  0  0  0  0  0  0  0  0
   38.3690   30.5702   51.2250 H   0  0  0  0  0  0  0  0  0  0  0  0
   37.6159   28.9824   49.5154 H   0  0  0  0  0  0  0  0  0  0  0  0
   36.3277   30.2157   49.6992 H   0  0  0  0  0  0  0  0  0  0  0  0
   38.1672   29.6281   47.5149 H   0  0  0  0  0  0  0  0  0  0  0  0
   34.7568   30.1889   48.7950 H   0  0  0  0  0  0  0  0  0  0  0  0
   32.8589   30.0671   47.1905 H   0  0  0  0  0  0  0  0  0  0  0  0
   33.1423   27.9901   43.8363 H   0  0  0  0  0  0  0  0  0  0  0  0
   31.8719   28.9488   41.6372 H   0  0  0  0  0  0  0  0  0  0  0  0
   32.0679   31.5623   41.7873 H   0  0  0  0  0  0  0  0  0  0  0  0
  1  6  2  0
  2  1  1  0
  2  3  2  0
  3  4  1  0
  4  5  2  0
  5  7  1  0
  6  5  1  0
  7 12  1  0
  7  8  1  0
  8  9  1  0
  9 10  1  0
 11 10  1  0
 12 11  1  0
 13 14  2  0
 13 12  1  0
 15 14  1  0
 16 17  1  0
 16 15  2  0
 17 13  1  0
 18 16  1  0
 19 18  1  0
 20 21  1  0
 20 19  2  0
 21 22  1  0
 22 18  2  0
  1 23  1  0
  2 24  1  0
  3 25  1  0
  8 26  1  0
  8 27  1  0
  9 28  1  0
  9 29  1  0
 10 30  1  0
 10 31  1  0
 11 32  1  0
 11 33  1  0
 12 34  1  6
 14 35  1  0
 15 36  1  0
 19 37  1  0
 20 38  1  0
 21 39  1  0
M  ISO  8  23  14  24  14  25  14  26  13  27  13  28  13  29  13  30  13
M  ISO  8  31  13  32  13  33  13  34  13  35  14  36  14  37  14  38  14
M  ISO  1  39   9
M  END
>  <minimizedAffinity>  (1) 
-5.47690821

>  <minimizedRMSD>  (1) 
0.190525606

$$$$
