
     RDKit          3D

 44 47  0  0  0  0  0  0  0  0999 V2000
   35.5450   30.1600   46.5930 C   0  0  0  0  0  0  0  0  0  0  0  0
   34.2110   29.8080   46.7960 C   0  0  0  0  0  0  0  0  0  0  0  0
   33.4240   29.4780   45.7080 C   0  0  0  0  0  0  0  0  0  0  0  0
   33.8820   29.4740   44.4110 C   0  0  0  0  0  0  0  0  0  0  0  0
   35.2130   29.8260   44.1990 C   0  0  0  0  0  0  0  0  0  0  0  0
   35.9810   30.1530   45.3060 C   0  0  0  0  0  0  0  0  0  0  0  0
   37.3070   30.4840   44.9040 N   0  0  0  0  0  0  0  0  0  0  0  0
   38.5760   29.8340   44.7640 C   0  0  0  0  0  0  0  0  0  0  0  0
   39.5810   30.6190   45.5680 C   0  0  0  0  0  0  0  0  0  0  0  0
   39.7970   31.8750   44.8940 N   0  0  0  0  0  0  0  0  0  0  0  0
   38.7160   32.3040   44.0850 C   0  0  0  0  0  0  0  0  0  0  0  0
   37.3630   31.8720   44.5330 C   0  0  0  0  0  0  0  0  0  0  0  0
   37.1050   30.1310   49.8920 C   0  0  0  0  0  0  0  0  0  0  0  0
   37.9840   31.2290   49.8220 C   0  0  0  0  0  0  0  0  0  0  0  0
   38.0190   31.9590   48.6270 C   0  0  0  0  0  0  0  0  0  0  0  0
   37.2010   31.5480   47.6290 N   0  0  0  0  0  0  0  0  0  0  0  0
   36.3790   30.5100   47.7130 C   0  0  0  0  0  0  0  0  0  0  0  0
   36.3280   29.7910   48.8550 N   0  0  0  0  0  0  0  0  0  0  0  0
   38.9000   33.0970   48.5010 C   0  0  0  0  0  0  0  0  0  0  0  0
   39.2410   33.9670   49.4930 C   0  0  0  0  0  0  0  0  0  0  0  0
   40.1080   34.9440   49.0220 C   0  0  0  0  0  0  0  0  0  0  0  0
   40.2640   34.6210   47.7270 N   0  0  0  0  0  0  0  0  0  0  0  0
   39.5550   33.5440   47.4360 N   0  0  0  0  0  0  0  0  0  0  0  0
   37.0860   29.3690   51.1880 C   0  0  0  0  0  0  0  0  0  0  0  0
   35.7480   29.0320   51.4660 F   0  0  0  0  0  0  0  0  0  0  0  0
   37.8520   28.2780   51.0620 F   0  0  0  0  0  0  0  0  0  0  0  0
   37.4790   30.2120   52.1960 F   0  0  0  0  0  0  0  0  0  0  0  0
   33.7889   29.7930   47.8117 H   0  0  0  0  0  0  0  0  0  0  0  0
   32.3743   29.2037   45.8896 H   0  0  0  0  0  0  0  0  0  0  0  0
   33.2225   29.2032   43.5733 H   0  0  0  0  0  0  0  0  0  0  0  0
   35.6410   29.8439   43.1858 H   0  0  0  0  0  0  0  0  0  0  0  0
   38.5138   28.8037   45.1443 H   0  0  0  0  0  0  0  0  0  0  0  0
   38.8746   29.7931   43.7061 H   0  0  0  0  0  0  0  0  0  0  0  0
   39.1917   30.7995   46.5808 H   0  0  0  0  0  0  0  0  0  0  0  0
   40.5251   30.0611   45.6548 H   0  0  0  0  0  0  0  0  0  0  0  0
   39.9703   32.5970   45.6079 H   0  0  0  0  0  0  0  0  0  0  0  0
   38.8771   31.9119   43.0700 H   0  0  0  0  0  0  0  0  0  0  0  0
   38.7148   33.4024   44.1439 H   0  0  0  0  0  0  0  0  0  0  0  0
   37.0723   32.4788   45.4033 H   0  0  0  0  0  0  0  0  0  0  0  0
   36.6769   32.0122   43.6847 H   0  0  0  0  0  0  0  0  0  0  0  0
   38.6208   31.5038   50.6758 H   0  0  0  0  0  0  0  0  0  0  0  0
   38.8776   33.9037   50.5293 H   0  0  0  0  0  0  0  0  0  0  0  0
   40.5586   35.7809   49.5757 H   0  0  0  0  0  0  0  0  0  0  0  0
   40.8515   35.1382   47.0575 H   0  0  0  0  0  0  0  0  0  0  0  0
  1  2  2  0
  1 17  1  0
  3  2  1  0
  4  3  2  0
  5  4  1  0
  5  6  2  0
  6  1  1  0
  7  6  1  0
  8  7  1  0
  8  9  1  0
 10  9  1  0
 11 12  1  0
 11 10  1  0
 12  7  1  0
 13 24  1  0
 14 13  2  0
 15 14  1  0
 16 17  1  0
 16 15  2  0
 17 18  2  0
 18 13  1  0
 19 15  1  0
 19 20  1  0
 21 20  2  0
 22 21  1  0
 23 22  1  0
 23 19  2  0
 24 25  1  0
 24 27  1  0
 26 24  1  0
  2 28  1  0
  3 29  1  0
  4 30  1  0
  5 31  1  0
  8 32  1  0
  8 33  1  0
  9 34  1  0
  9 35  1  0
 10 36  1  0
 11 37  1  0
 11 38  1  0
 12 39  1  0
 12 40  1  0
 14 41  1  0
 20 42  1  0
 21 43  1  0
 22 44  1  0
M  ISO  8  28  14  29  14  30  14  31  14  32  13  33  13  34  13  35  13
M  ISO  8  36   5  37  13  38  13  39  13  40  13  41  14  42  14  43  14
M  ISO  1  44   9
M  END
>  <minimizedAffinity>  (1) 
-6.77203512

>  <minimizedRMSD>  (1) 
0.802885234

$$$$
