
     RDKit          3D

 30 32  0  0  0  0  0  0  0  0999 V2000
   37.6960   31.0930   48.0920 C   0  0  0  0  0  0  0  0  0  0  0  0
   37.0690   30.9320   46.8830 C   0  0  0  0  0  0  0  0  0  0  0  0
   37.7980   31.6010   45.9080 C   0  0  0  0  0  0  0  0  0  0  0  0
   38.8480   32.1480   46.5640 N   0  0  0  0  0  0  0  0  0  0  0  0
   38.7930   31.8480   47.8680 N   0  0  0  0  0  0  0  0  0  0  0  0
   37.2770   30.0390   51.6880 C   0  0  0  0  0  0  0  0  0  0  0  0
   37.8390   30.6270   50.5630 C   0  0  0  0  0  0  0  0  0  0  0  0
   37.1880   30.5150   49.3230 C   0  0  0  0  0  0  0  0  0  0  0  0
   36.0170   29.8190   49.3050 N   0  0  0  0  0  0  0  0  0  0  0  0
   35.4920   29.2580   50.4190 C   0  0  0  0  0  0  0  0  0  0  0  0
   36.1260   29.3740   51.5900 N   0  0  0  0  0  0  0  0  0  0  0  0
   39.8730   32.9460   45.8970 C   0  0  0  0  0  0  0  0  0  0  0  0
   40.8950   32.0330   45.2550 C   0  0  0  0  0  0  0  0  0  0  0  0
   40.4290   31.7500   43.8720 C   0  0  0  0  0  0  0  0  0  0  0  0
   40.6160   30.5210   43.2290 C   0  0  0  0  0  0  0  0  0  0  0  0
   40.0510   30.6310   41.9530 C   0  0  0  0  0  0  0  0  0  0  0  0
   39.5500   31.8860   41.8550 N   0  0  0  0  0  0  0  0  0  0  0  0
   39.7710   32.5560   42.9900 N   0  0  0  0  0  0  0  0  0  0  0  0
   36.1412   30.3660   46.7132 H   0  0  0  0  0  0  0  0  0  0  0  0
   37.5708   31.6711   44.8340 H   0  0  0  0  0  0  0  0  0  0  0  0
   37.7822   30.1220   52.6616 H   0  0  0  0  0  0  0  0  0  0  0  0
   38.7882   31.1772   50.6419 H   0  0  0  0  0  0  0  0  0  0  0  0
   34.5424   28.7059   50.3608 H   0  0  0  0  0  0  0  0  0  0  0  0
   39.4034   33.5705   45.1227 H   0  0  0  0  0  0  0  0  0  0  0  0
   40.3730   33.5878   46.6373 H   0  0  0  0  0  0  0  0  0  0  0  0
   41.8770   32.5279   45.2273 H   0  0  0  0  0  0  0  0  0  0  0  0
   40.9988   31.1005   45.8291 H   0  0  0  0  0  0  0  0  0  0  0  0
   41.1140   29.6342   43.6481 H   0  0  0  0  0  0  0  0  0  0  0  0
   40.0198   29.8496   41.1794 H   0  0  0  0  0  0  0  0  0  0  0  0
   39.0696   32.2675   41.0276 H   0  0  0  0  0  0  0  0  0  0  0  0
  1  8  1  0
  2  1  1  0
  3  4  1  0
  3  2  2  0
  4  5  1  0
  5  1  2  0
  7  6  2  0
  8  7  1  0
  9  8  2  0
  9 10  1  0
 10 11  2  0
 11  6  1  0
 12  4  1  0
 13 12  1  0
 14 13  1  0
 15 14  1  0
 16 15  2  0
 17 16  1  0
 17 18  1  0
 18 14  2  0
  2 19  1  0
  3 20  1  0
  6 21  1  0
  7 22  1  0
 10 23  1  0
 12 24  1  0
 12 25  1  0
 13 26  1  0
 13 27  1  0
 15 28  1  0
 16 29  1  0
 17 30  1  0
M  ISO  8  19  14  20  14  21  14  22  14  23  14  24   8  25   8  26   8
M  ISO  4  27   8  28  14  29  14  30   9
M  END
>  <minimizedAffinity>  (1) 
-5.39877272

>  <minimizedRMSD>  (1) 
2.33100915

$$$$
