
     RDKit          3D

 24 26  0  0  0  0  0  0  0  0999 V2000
   37.2440   31.3860   49.1500 C   0  0  0  0  0  0  0  0  0  0  0  0
   37.4840   32.6040   49.8100 C   0  0  0  0  0  0  0  0  0  0  0  0
   38.4280   33.4320   49.2270 C   0  0  0  0  0  0  0  0  0  0  0  0
   39.0550   33.0500   48.0870 N   0  0  0  0  0  0  0  0  0  0  0  0
   38.8010   31.8640   47.4690 C   0  0  0  0  0  0  0  0  0  0  0  0
   37.8790   31.0250   48.0160 N   0  0  0  0  0  0  0  0  0  0  0  0
   36.2050   30.4730   49.7580 C   0  0  0  0  0  0  0  0  0  0  0  0
   36.2410   29.0340   49.5230 C   0  0  0  0  0  0  0  0  0  0  0  0
   36.7850   29.5530   50.8230 C   0  0  0  0  0  0  0  0  0  0  0  0
   39.4720   31.4540   46.2470 C   0  0  0  0  0  0  0  0  0  0  0  0
   40.4910   32.0020   45.4890 C   0  0  0  0  0  0  0  0  0  0  0  0
   40.6610   31.1090   44.4400 C   0  0  0  0  0  0  0  0  0  0  0  0
   39.7970   30.0930   44.5660 N   0  0  0  0  0  0  0  0  0  0  0  0
   39.0810   30.2960   45.6500 N   0  0  0  0  0  0  0  0  0  0  0  0
   36.9542   32.8820   50.7330 H   0  0  0  0  0  0  0  0  0  0  0  0
   38.6696   34.4006   49.6890 H   0  0  0  0  0  0  0  0  0  0  0  0
   35.3918   31.2068   49.6568 H   0  0  0  0  0  0  0  0  0  0  0  0
   35.3029   28.4596   49.5156 H   0  0  0  0  0  0  0  0  0  0  0  0
   36.6456   28.3979   48.7220 H   0  0  0  0  0  0  0  0  0  0  0  0
   37.8676   29.5404   51.0177 H   0  0  0  0  0  0  0  0  0  0  0  0
   36.5998   29.3628   51.8905 H   0  0  0  0  0  0  0  0  0  0  0  0
   41.0425   32.9353   45.6755 H   0  0  0  0  0  0  0  0  0  0  0  0
   41.3946   31.2190   43.6277 H   0  0  0  0  0  0  0  0  0  0  0  0
   39.7089   29.2917   43.9249 H   0  0  0  0  0  0  0  0  0  0  0  0
  1  7  1  0
  1  2  2  0
  3  2  1  0
  4  3  2  0
  5  6  2  0
  5  4  1  0
  6  1  1  0
  7  9  1  0
  8  7  1  0
  8  9  1  0
 10  5  1  0
 11 10  1  0
 12 13  1  0
 12 11  2  0
 13 14  1  0
 14 10  2  0
  2 15  1  0
  3 16  1  0
  7 17  1  0
  8 18  1  0
  8 19  1  0
  9 20  1  0
  9 21  1  0
 11 22  1  0
 12 23  1  0
 13 24  1  0
M  ISO  8  15  14  16  14  17  13  18  13  19  13  20  13  21  13  22  14
M  ISO  2  23  14  24   9
M  END
>  <minimizedAffinity>  (1) 
-5.52414656

>  <minimizedRMSD>  (1) 
0.744892955

$$$$
