
     RDKit          3D

 25 27  0  0  0  0  0  0  0  0999 V2000
   35.9940   30.2650   48.6060 C   0  0  0  0  0  0  0  0  0  0  0  0
   36.0120   29.2460   49.5040 C   0  0  0  0  0  0  0  0  0  0  0  0
   35.0010   28.3220   49.5000 C   0  0  0  0  0  0  0  0  0  0  0  0
   33.9880   28.4240   48.6060 N   0  0  0  0  0  0  0  0  0  0  0  0
   33.9940   29.4390   47.7330 C   0  0  0  0  0  0  0  0  0  0  0  0
   34.9820   30.3560   47.7230 N   0  0  0  0  0  0  0  0  0  0  0  0
   38.1060   33.1370   49.4860 C   0  0  0  0  0  0  0  0  0  0  0  0
   39.0070   33.2000   48.4180 C   0  0  0  0  0  0  0  0  0  0  0  0
   38.8730   32.2290   47.3860 C   0  0  0  0  0  0  0  0  0  0  0  0
   37.8780   31.3050   47.5040 N   0  0  0  0  0  0  0  0  0  0  0  0
   37.0310   31.2820   48.5500 C   0  0  0  0  0  0  0  0  0  0  0  0
   37.1570   32.2020   49.5310 N   0  0  0  0  0  0  0  0  0  0  0  0
   32.9120   29.5670   46.7630 C   0  0  0  0  0  0  0  0  0  0  0  0
   32.6250   30.6510   45.9610 C   0  0  0  0  0  0  0  0  0  0  0  0
   31.5040   30.3440   45.1820 C   0  0  0  0  0  0  0  0  0  0  0  0
   31.1520   29.0810   45.5410 N   0  0  0  0  0  0  0  0  0  0  0  0
   31.9790   28.6530   46.4540 N   0  0  0  0  0  0  0  0  0  0  0  0
   36.8339   29.1634   50.2304 H   0  0  0  0  0  0  0  0  0  0  0  0
   35.0115   27.4946   50.2248 H   0  0  0  0  0  0  0  0  0  0  0  0
   38.1818   33.8708   50.3019 H   0  0  0  0  0  0  0  0  0  0  0  0
   39.7901   33.9714   48.3772 H   0  0  0  0  0  0  0  0  0  0  0  0
   39.5514   32.2244   46.5201 H   0  0  0  0  0  0  0  0  0  0  0  0
   33.1836   31.5983   45.9375 H   0  0  0  0  0  0  0  0  0  0  0  0
   31.0123   30.9875   44.4376 H   0  0  0  0  0  0  0  0  0  0  0  0
   30.3599   28.5481   45.1543 H   0  0  0  0  0  0  0  0  0  0  0  0
  1  2  2  0
  3  2  1  0
  4  3  2  0
  5  4  1  0
  6  5  2  0
  6  1  1  0
  7 12  2  0
  8  7  1  0
  9 10  1  0
  9  8  2  0
 10 11  2  0
 11  1  1  0
 11 12  1  0
 13  5  1  0
 14 13  1  0
 15 16  1  0
 15 14  2  0
 16 17  1  0
 17 13  2  0
  2 18  1  0
  3 19  1  0
  7 20  1  0
  8 21  1  0
  9 22  1  0
 14 23  1  0
 15 24  1  0
 16 25  1  0
M  ISO  8  18  14  19  14  20  14  21  14  22  14  23  14  24  14  25   9
M  END
>  <minimizedAffinity>  (1) 
-4.88254881

>  <minimizedRMSD>  (1) 
0.353912145

$$$$
