
     RDKit          3D

 27 29  0  0  0  0  0  0  0  0999 V2000
   37.3510   31.2300   49.2390 C   0  0  0  0  0  0  0  0  0  0  0  0
   38.2280   32.2590   49.5930 C   0  0  0  0  0  0  0  0  0  0  0  0
   38.8520   32.9200   48.5390 C   0  0  0  0  0  0  0  0  0  0  0  0
   38.5870   32.5460   47.2550 N   0  0  0  0  0  0  0  0  0  0  0  0
   37.7160   31.5260   46.9650 C   0  0  0  0  0  0  0  0  0  0  0  0
   37.0790   30.8460   47.9720 N   0  0  0  0  0  0  0  0  0  0  0  0
   36.6380   30.5240   50.3510 C   0  0  0  0  0  0  0  0  0  0  0  0
   36.0090   29.2370   50.1820 C   0  0  0  0  0  0  0  0  0  0  0  0
   37.3770   29.2730   50.8270 C   0  0  0  0  0  0  0  0  0  0  0  0
   37.4180   31.1410   45.5930 C   0  0  0  0  0  0  0  0  0  0  0  0
   38.6450   31.0720   44.7650 C   0  0  0  0  0  0  0  0  0  0  0  0
   38.9180   31.9100   43.7000 C   0  0  0  0  0  0  0  0  0  0  0  0
   40.1530   31.5320   43.1850 C   0  0  0  0  0  0  0  0  0  0  0  0
   40.5950   30.4880   43.9400 N   0  0  0  0  0  0  0  0  0  0  0  0
   39.6870   30.2270   44.8740 N   0  0  0  0  0  0  0  0  0  0  0  0
   38.4141   32.5304   50.6426 H   0  0  0  0  0  0  0  0  0  0  0  0
   39.5560   33.7407   48.7411 H   0  0  0  0  0  0  0  0  0  0  0  0
   36.2417   31.4624   50.7662 H   0  0  0  0  0  0  0  0  0  0  0  0
   35.1286   28.9783   50.7886 H   0  0  0  0  0  0  0  0  0  0  0  0
   35.5841   28.7012   49.3204 H   0  0  0  0  0  0  0  0  0  0  0  0
   38.2607   28.9053   50.2848 H   0  0  0  0  0  0  0  0  0  0  0  0
   37.8240   28.9210   51.7684 H   0  0  0  0  0  0  0  0  0  0  0  0
   36.9344   30.1530   45.5969 H   0  0  0  0  0  0  0  0  0  0  0  0
   36.7537   31.9030   45.1593 H   0  0  0  0  0  0  0  0  0  0  0  0
   38.2777   32.7240   43.3292 H   0  0  0  0  0  0  0  0  0  0  0  0
   40.6738   31.9890   42.3307 H   0  0  0  0  0  0  0  0  0  0  0  0
   41.4843   29.9851   43.8088 H   0  0  0  0  0  0  0  0  0  0  0  0
  1  2  2  0
  1  7  1  0
  3  2  1  0
  4  3  2  0
  5  4  1  0
  5  6  2  0
  6  1  1  0
  7  9  1  0
  8  7  1  0
  8  9  1  0
 10  5  1  0
 11 15  2  0
 11 10  1  0
 12 11  1  0
 13 12  2  0
 13 14  1  0
 14 15  1  0
  2 16  1  0
  3 17  1  0
  7 18  1  0
  8 19  1  0
  8 20  1  0
  9 21  1  0
  9 22  1  0
 10 23  1  0
 10 24  1  0
 12 25  1  0
 13 26  1  0
 14 27  1  0
M  ISO  8  16  14  17  14  18  13  19  13  20  13  21  13  22  13  23   8
M  ISO  4  24   8  25  14  26  14  27   9
M  END
>  <minimizedAffinity>  (1) 
-5.01067591

>  <minimizedRMSD>  (1) 
2.1933918

$$$$
