
     RDKit          3D

 41 44  0  0  1  0  0  0  0  0999 V2000
   31.2880   28.1820   47.3780 C   0  0  2  0  0  0  0  0  0  0  0  0
   32.4800   27.7530   48.1830 C   0  0  1  0  0  0  0  0  0  0  0  0
   32.5290   26.3900   48.1720 O   0  0  0  0  0  0  0  0  0  0  0  0
   31.6660   25.9110   47.1900 C   0  0  0  0  0  0  0  0  0  0  0  0
   31.3240   27.0660   46.2830 C   0  0  1  0  0  0  0  0  0  0  0  0
   31.5290   29.4290   46.7670 O   0  0  0  0  0  0  0  0  0  0  0  0
   33.9840   28.3860   47.3390 S   0  0  0  0  0  0  0  0  0  0  0  0
   35.8230   29.3540   50.7090 C   0  0  0  0  0  0  0  0  0  0  0  0
   36.5330   30.5200   50.4080 C   0  0  0  0  0  0  0  0  0  0  0  0
   36.4430   31.0260   49.1230 C   0  0  0  0  0  0  0  0  0  0  0  0
   35.6640   30.3640   48.2110 N   0  0  0  0  0  0  0  0  0  0  0  0
   34.9930   29.2420   48.5390 C   0  0  0  0  0  0  0  0  0  0  0  0
   35.0630   28.7200   49.7930 N   0  0  0  0  0  0  0  0  0  0  0  0
   30.0740   26.8660   45.7510 O   0  0  0  0  0  0  0  0  0  0  0  0
   29.4100   29.1990   44.1010 Cl  0  0  0  0  0  0  0  0  0  0  0  0
   28.5310   28.5500   45.4670 C   0  0  0  0  0  0  0  0  0  0  0  0
   28.9410   27.4330   46.1580 C   0  0  0  0  0  0  0  0  0  0  0  0
   28.1430   26.9850   47.2160 C   0  0  0  0  0  0  0  0  0  0  0  0
   26.9910   27.6460   47.5490 C   0  0  0  0  0  0  0  0  0  0  0  0
   26.5680   28.7710   46.8600 C   0  0  0  0  0  0  0  0  0  0  0  0
   27.3640   29.2270   45.7950 C   0  0  0  0  0  0  0  0  0  0  0  0
   26.8230   30.4070   45.1530 C   0  0  0  0  0  0  0  0  0  0  0  0
   26.7360   31.7290   45.5030 C   0  0  0  0  0  0  0  0  0  0  0  0
   26.1220   32.5160   44.5590 C   0  0  0  0  0  0  0  0  0  0  0  0
   25.8270   31.6230   43.6020 N   0  0  0  0  0  0  0  0  0  0  0  0
   26.2300   30.4210   43.9480 N   0  0  0  0  0  0  0  0  0  0  0  0
   30.3512   28.2907   47.9443 H   0  0  0  0  0  0  0  0  0  0  0  0
   32.4179   28.1319   49.2138 H   0  0  0  0  0  0  0  0  0  0  0  0
   32.1586   25.1141   46.6135 H   0  0  0  0  0  0  0  0  0  0  0  0
   30.7557   25.4935   47.6450 H   0  0  0  0  0  0  0  0  0  0  0  0
   31.9870   27.2518   45.4251 H   0  0  0  0  0  0  0  0  0  0  0  0
   31.6622   30.1183   47.4651 H   0  0  0  0  0  0  0  0  0  0  0  0
   35.8863   28.9402   51.7262 H   0  0  0  0  0  0  0  0  0  0  0  0
   37.1462   31.0214   51.1713 H   0  0  0  0  0  0  0  0  0  0  0  0
   36.9854   31.9402   48.8400 H   0  0  0  0  0  0  0  0  0  0  0  0
   28.4438   26.0934   47.7857 H   0  0  0  0  0  0  0  0  0  0  0  0
   26.3842   27.2732   48.3873 H   0  0  0  0  0  0  0  0  0  0  0  0
   25.6391   29.2907   47.1375 H   0  0  0  0  0  0  0  0  0  0  0  0
   27.1228   32.1244   46.4538 H   0  0  0  0  0  0  0  0  0  0  0  0
   25.9237   33.5977   44.5818 H   0  0  0  0  0  0  0  0  0  0  0  0
   25.3500   31.8487   42.7174 H   0  0  0  0  0  0  0  0  0  0  0  0
  1  2  1  0
  3  2  1  0
  4  3  1  0
  5  4  1  0
  5  1  1  0
  6  1  1  0
  7  2  1  0
  7 12  1  0
  9  8  2  0
 10  9  1  0
 11 12  1  0
 11 10  2  0
 12 13  2  0
 13  8  1  0
 14 17  1  0
 14  5  1  0
 15 16  1  0
 16 21  2  0
 16 17  1  0
 17 18  2  0
 18 19  1  0
 20 19  2  0
 21 20  1  0
 22 23  1  0
 22 21  1  0
 24 23  2  0
 25 26  1  0
 25 24  1  0
 26 22  2  0
  1 27  1  1
  2 28  1  1
  4 29  1  0
  4 30  1  0
  5 31  1  6
  6 32  1  0
  8 33  1  0
  9 34  1  0
 10 35  1  0
 18 36  1  0
 19 37  1  0
 20 38  1  0
 23 39  1  0
 24 40  1  0
 25 41  1  0
M  ISO  8  27  13  28  13  29  13  30  13  31  13  32   3  33  14  34  14
M  ISO  7  35  14  36  14  37  14  38  14  39  14  40  14  41   9
M  END
>  <minimizedAffinity>  (1) 
-5.29047823

>  <minimizedRMSD>  (1) 
1.35742319

$$$$
