
     RDKit          3D

 35 37  0  0  0  0  0  0  0  0999 V2000
   38.5010   31.7250   48.0820 Br  0  0  0  0  0  0  0  0  0  0  0  0
   37.3390   31.1060   46.7400 C   0  0  0  0  0  0  0  0  0  0  0  0
   36.2790   30.3710   47.1730 C   0  0  0  0  0  0  0  0  0  0  0  0
   35.3560   29.8660   46.2410 C   0  0  0  0  0  0  0  0  0  0  0  0
   35.5460   30.1280   44.8920 C   0  0  0  0  0  0  0  0  0  0  0  0
   36.6270   30.8680   44.5350 C   0  0  0  0  0  0  0  0  0  0  0  0
   37.5390   31.3700   45.4300 C   0  0  0  0  0  0  0  0  0  0  0  0
   36.8300   29.4440   49.4740 C   0  0  0  0  0  0  0  0  0  0  0  0
   35.9320   30.0050   48.5610 C   0  0  0  0  0  0  0  0  0  0  0  0
   34.6030   30.2370   49.0000 C   0  0  0  0  0  0  0  0  0  0  0  0
   34.3010   29.8890   50.2910 N   0  0  0  0  0  0  0  0  0  0  0  0
   35.2040   29.3560   51.1150 C   0  0  0  0  0  0  0  0  0  0  0  0
   36.4600   29.1310   50.7220 N   0  0  0  0  0  0  0  0  0  0  0  0
   38.6700   32.1420   45.0650 N   0  0  0  0  0  0  0  0  0  0  0  0
   40.2830   31.7430   44.7090 S   0  0  0  0  0  0  0  0  0  0  0  0
   40.7220   30.5210   45.4420 O   0  0  0  0  0  0  0  0  0  0  0  0
   41.1900   32.8840   45.1240 O   0  0  0  0  0  0  0  0  0  0  0  0
   40.4160   31.4810   43.0330 O   0  0  0  0  0  0  0  0  0  0  0  0
   39.4280   32.0620   42.2470 C   0  0  0  0  0  0  0  0  0  0  0  0
   38.6070   31.3620   41.3550 C   0  0  0  0  0  0  0  0  0  0  0  0
   37.8060   32.3270   40.8190 N   0  0  0  0  0  0  0  0  0  0  0  0
   38.0820   33.5450   41.3180 C   0  0  0  0  0  0  0  0  0  0  0  0
   39.0910   33.3630   42.2030 N   0  0  0  0  0  0  0  0  0  0  0  0
   34.4941   29.2707   46.5769 H   0  0  0  0  0  0  0  0  0  0  0  0
   34.8433   29.7483   44.1357 H   0  0  0  0  0  0  0  0  0  0  0  0
   36.7810   31.0775   43.4662 H   0  0  0  0  0  0  0  0  0  0  0  0
   37.8668   29.2550   49.1589 H   0  0  0  0  0  0  0  0  0  0  0  0
   33.8473   30.6773   48.3329 H   0  0  0  0  0  0  0  0  0  0  0  0
   34.9073   29.0958   52.1418 H   0  0  0  0  0  0  0  0  0  0  0  0
   38.4743   33.1513   45.0028 H   0  0  0  0  0  0  0  0  0  0  0  0
   40.6640   30.6824   46.4170 H   0  0  0  0  0  0  0  0  0  0  0  0
   41.2284   32.9324   46.1121 H   0  0  0  0  0  0  0  0  0  0  0  0
   38.6077   30.2838   41.1370 H   0  0  0  0  0  0  0  0  0  0  0  0
   37.0762   32.1446   40.1154 H   0  0  0  0  0  0  0  0  0  0  0  0
   37.5894   34.4942   41.0603 H   0  0  0  0  0  0  0  0  0  0  0  0
  2  3  2  0
  2  1  1  0
  3  9  1  0
  4  3  1  0
  5  4  2  0
  6  5  1  0
  6  7  2  0
  7  2  1  0
  8 13  2  0
  9 10  2  0
  9  8  1  0
 10 11  1  0
 11 12  2  0
 13 12  1  0
 14  7  1  0
 15 14  1  0
 15 17  1  0
 15 16  1  0
 18 15  1  0
 19 18  1  0
 20 19  2  0
 21 22  1  0
 21 20  1  0
 22 23  2  0
 23 19  1  0
  4 24  1  0
  5 25  1  0
  6 26  1  0
  8 27  1  0
 10 28  1  0
 12 29  1  0
 14 30  1  0
 16 31  1  0
 17 32  1  0
 20 33  1  0
 21 34  1  0
 22 35  1  0
M  ISO  8  24  14  25  14  26  14  27  14  28  14  29  14  31   3  32   3
M  ISO  3  33  14  34   9  35  14
M  END
>  <minimizedAffinity>  (1) 
-5.44785929

>  <minimizedRMSD>  (1) 
1.77037418

$$$$
