
     RDKit          3D

 23 24  0  0  0  0  0  0  0  0999 V2000
   39.0470   32.8100   48.1270 O   0  0  0  0  0  0  0  0  0  0  0  0
   38.6680   31.7900   47.1090 P   0  0  2  0  0  0  0  0  0  0  0  0
   37.6610   32.4790   45.9300 O   0  0  0  0  0  0  0  0  0  0  0  0
   37.9950   30.3850   47.7300 O   0  0  0  0  0  0  0  0  0  0  0  0
   37.3290   30.1930   51.3730 C   0  0  0  0  0  0  0  0  0  0  0  0
   38.0380   30.5520   50.2060 C   0  0  0  0  0  0  0  0  0  0  0  0
   37.5050   30.1610   48.9770 C   0  0  0  0  0  0  0  0  0  0  0  0
   36.3360   29.4610   48.9750 N   0  0  0  0  0  0  0  0  0  0  0  0
   35.6970   29.1410   50.1050 C   0  0  0  0  0  0  0  0  0  0  0  0
   36.1890   29.5040   51.3000 N   0  0  0  0  0  0  0  0  0  0  0  0
   40.1310   31.3850   46.3040 O   0  0  0  0  0  0  0  0  0  0  0  0
   39.9550   30.9120   44.9890 C   0  0  0  0  0  0  0  0  0  0  0  0
   39.2400   29.8350   44.4870 C   0  0  0  0  0  0  0  0  0  0  0  0
   39.3890   29.8060   43.1490 N   0  0  0  0  0  0  0  0  0  0  0  0
   40.1890   30.8550   42.8420 C   0  0  0  0  0  0  0  0  0  0  0  0
   40.5400   31.5350   43.9500 N   0  0  0  0  0  0  0  0  0  0  0  0
   36.9299   32.9793   46.3719 H   0  0  0  0  0  0  0  0  0  0  0  0
   37.7227   30.4859   52.3575 H   0  0  0  0  0  0  0  0  0  0  0  0
   38.9781   31.1203   50.2636 H   0  0  0  0  0  0  0  0  0  0  0  0
   34.7563   28.5731   50.0548 H   0  0  0  0  0  0  0  0  0  0  0  0
   38.6496   29.1231   45.0825 H   0  0  0  0  0  0  0  0  0  0  0  0
   38.9788   29.1257   42.4935 H   0  0  0  0  0  0  0  0  0  0  0  0
   40.5095   31.1167   41.8228 H   0  0  0  0  0  0  0  0  0  0  0  0
  2  4  1  0
  2  1  2  0
  3  2  1  0
  4  7  1  0
  6  5  2  0
  7  6  1  0
  8  7  2  0
  8  9  1  0
  9 10  2  0
 10  5  1  0
 11  2  1  0
 12 11  1  0
 13 12  2  0
 14 13  1  0
 15 14  1  0
 15 16  2  0
 16 12  1  0
  3 17  1  0
  5 18  1  0
  6 19  1  0
  9 20  1  0
 13 21  1  0
 14 22  1  0
 15 23  1  0
M  ISO  7  17   3  18  14  19  14  20  14  21  14  22   9  23  14
M  END
>  <minimizedAffinity>  (1) 
-5.11079693

>  <minimizedRMSD>  (1) 
1.93445075

$$$$
