
     RDKit          3D

 45 49  0  0  0  0  0  0  0  0999 V2000
   39.2640   31.7780   45.0860 C   0  0  0  0  0  0  0  0  0  0  0  0
   38.1670   32.4160   45.1560 O   0  0  0  0  0  0  0  0  0  0  0  0
   39.9350   31.5540   46.3290 N   0  0  0  0  0  0  0  0  0  0  0  0
   39.2950   32.0560   42.7050 C   0  0  0  0  0  0  0  0  0  0  0  0
   39.7530   31.3300   43.7970 C   0  0  0  0  0  0  0  0  0  0  0  0
   40.6020   30.2720   43.6770 C   0  0  0  0  0  0  0  0  0  0  0  0
   41.0400   29.8850   42.4240 C   0  0  0  0  0  0  0  0  0  0  0  0
   41.8590   28.9020   42.0180 N   0  0  0  0  0  0  0  0  0  0  0  0
   41.9400   28.9780   40.6870 C   0  0  0  0  0  0  0  0  0  0  0  0
   41.1770   30.0000   40.2580 N   0  0  0  0  0  0  0  0  0  0  0  0
   40.6010   30.5860   41.3360 C   0  0  0  0  0  0  0  0  0  0  0  0
   39.7300   31.6770   41.4250 C   0  0  0  0  0  0  0  0  0  0  0  0
   39.2820   32.3890   40.3360 O   0  0  0  0  0  0  0  0  0  0  0  0
   37.9510   32.7850   40.3170 C   0  0  0  0  0  0  0  0  0  0  0  0
   36.7590   32.1040   40.1400 C   0  0  0  0  0  0  0  0  0  0  0  0
   35.7210   32.9590   40.2100 N   0  0  0  0  0  0  0  0  0  0  0  0
   36.2390   34.2030   40.4320 C   0  0  0  0  0  0  0  0  0  0  0  0
   37.5650   34.0680   40.4910 N   0  0  0  0  0  0  0  0  0  0  0  0
   38.0670   30.0670   47.6530 F   0  0  0  0  0  0  0  0  0  0  0  0
   38.2950   31.3280   48.1130 C   0  0  0  0  0  0  0  0  0  0  0  0
   37.5950   31.7890   49.1970 C   0  0  0  0  0  0  0  0  0  0  0  0
   37.8680   33.0600   49.6140 C   0  0  0  0  0  0  0  0  0  0  0  0
   38.7950   33.8610   48.9920 C   0  0  0  0  0  0  0  0  0  0  0  0
   39.4970   33.3770   47.8930 C   0  0  0  0  0  0  0  0  0  0  0  0
   39.2300   32.0810   47.4560 C   0  0  0  0  0  0  0  0  0  0  0  0
   35.9480   29.2960   51.5300 C   0  0  0  0  0  0  0  0  0  0  0  0
   36.9100   30.1530   50.9430 C   0  0  0  0  0  0  0  0  0  0  0  0
   36.6200   30.8970   49.8220 C   0  0  0  0  0  0  0  0  0  0  0  0
   35.3640   30.7630   49.3110 N   0  0  0  0  0  0  0  0  0  0  0  0
   34.4410   29.9530   49.8590 C   0  0  0  0  0  0  0  0  0  0  0  0
   34.7310   29.2370   50.9430 N   0  0  0  0  0  0  0  0  0  0  0  0
   40.8366   31.0619   46.4049 H   0  0  0  0  0  0  0  0  0  0  0  0
   38.6094   32.9056   42.8395 H   0  0  0  0  0  0  0  0  0  0  0  0
   40.9376   29.7281   44.5723 H   0  0  0  0  0  0  0  0  0  0  0  0
   42.3362   28.2166   42.6208 H   0  0  0  0  0  0  0  0  0  0  0  0
   42.5349   28.3121   40.0446 H   0  0  0  0  0  0  0  0  0  0  0  0
   36.6722   31.0211   39.9672 H   0  0  0  0  0  0  0  0  0  0  0  0
   34.7238   32.7197   40.1141 H   0  0  0  0  0  0  0  0  0  0  0  0
   35.6709   35.1386   40.5414 H   0  0  0  0  0  0  0  0  0  0  0  0
   37.3239   33.4588   50.4829 H   0  0  0  0  0  0  0  0  0  0  0  0
   38.9811   34.8803   49.3614 H   0  0  0  0  0  0  0  0  0  0  0  0
   40.2442   34.0017   47.3817 H   0  0  0  0  0  0  0  0  0  0  0  0
   36.1808   28.7026   52.4265 H   0  0  0  0  0  0  0  0  0  0  0  0
   37.9112   30.2258   51.3928 H   0  0  0  0  0  0  0  0  0  0  0  0
   33.4400   29.8817   49.4086 H   0  0  0  0  0  0  0  0  0  0  0  0
  1  2  2  0
  1  3  1  0
  3 25  1  0
  4  5  2  0
  5  1  1  0
  6  5  1  0
  7  6  2  0
  8  7  1  0
  9  8  1  0
 10  9  2  0
 10 11  1  0
 11 12  2  0
 11  7  1  0
 12  4  1  0
 13 12  1  0
 14 13  1  0
 14 18  1  0
 15 16  1  0
 15 14  2  0
 16 17  1  0
 17 18  2  0
 19 20  1  0
 20 21  2  0
 21 22  1  0
 21 28  1  0
 23 22  2  0
 24 23  1  0
 25 24  2  0
 25 20  1  0
 27 26  2  0
 28 27  1  0
 29 28  2  0
 29 30  1  0
 30 31  2  0
 31 26  1  0
  3 32  1  0
  4 33  1  0
  6 34  1  0
  8 35  1  0
  9 36  1  0
 15 37  1  0
 16 38  1  0
 17 39  1  0
 22 40  1  0
 23 41  1  0
 24 42  1  0
 26 43  1  0
 27 44  1  0
 30 45  1  0
M  END
>  <minimizedAffinity>  (1) 
-7.34478664

>  <minimizedRMSD>  (1) 
1.24842715

$$$$
