
     RDKit          3D

 26 27  0  0  0  0  0  0  0  0999 V2000
   36.1100   30.9600   49.9800 O   0  0  0  0  0  0  0  0  0  0  0  0
   35.2090   29.9840   50.3210 C   0  0  0  0  0  0  0  0  0  0  0  0
   34.4150   29.4910   49.1680 C   0  0  0  0  0  0  0  0  0  0  0  0
   34.4040   30.2750   48.0190 C   0  0  0  0  0  0  0  0  0  0  0  0
   33.6560   29.8190   46.9220 C   0  0  0  0  0  0  0  0  0  0  0  0
   32.9910   28.6430   47.0540 N   0  0  0  0  0  0  0  0  0  0  0  0
   33.0150   27.9060   48.1710 C   0  0  0  0  0  0  0  0  0  0  0  0
   33.7260   28.3340   49.2210 N   0  0  0  0  0  0  0  0  0  0  0  0
   37.6140   28.8310   50.3100 O   0  0  0  0  0  0  0  0  0  0  0  0
   37.6050   30.2150   49.7150 P   0  0  2  0  0  0  0  0  0  0  0  0
   38.8330   31.1120   50.5000 O   0  0  0  0  0  0  0  0  0  0  0  0
   37.9400   30.1080   48.0580 O   0  0  0  0  0  0  0  0  0  0  0  0
   38.6130   31.1480   47.4160 C   0  0  0  0  0  0  0  0  0  0  0  0
   38.4380   32.4680   47.7790 C   0  0  0  0  0  0  0  0  0  0  0  0
   39.2050   33.2680   46.9970 N   0  0  0  0  0  0  0  0  0  0  0  0
   39.8640   32.4450   46.1400 C   0  0  0  0  0  0  0  0  0  0  0  0
   39.4960   31.1870   46.4070 N   0  0  0  0  0  0  0  0  0  0  0  0
   35.7597   29.1360   50.7541 H   0  0  0  0  0  0  0  0  0  0  0  0
   34.5025   30.4280   51.0378 H   0  0  0  0  0  0  0  0  0  0  0  0
   34.9630   31.2212   47.9715 H   0  0  0  0  0  0  0  0  0  0  0  0
   33.6103   30.3956   45.9864 H   0  0  0  0  0  0  0  0  0  0  0  0
   32.4569   26.9596   48.2254 H   0  0  0  0  0  0  0  0  0  0  0  0
   38.7241   31.0324   51.4808 H   0  0  0  0  0  0  0  0  0  0  0  0
   37.7748   32.8192   48.5833 H   0  0  0  0  0  0  0  0  0  0  0  0
   39.2741   34.2946   47.0436 H   0  0  0  0  0  0  0  0  0  0  0  0
   40.5759   32.7585   45.3623 H   0  0  0  0  0  0  0  0  0  0  0  0
  1  2  1  0
  3  8  1  0
  3  2  1  0
  4  3  2  0
  5  6  2  0
  5  4  1  0
  6  7  1  0
  7  8  2  0
 10  1  1  0
 10  9  2  0
 10 11  1  0
 12 10  1  0
 13 14  2  0
 13 12  1  0
 15 14  1  0
 16 17  2  0
 16 15  1  0
 17 13  1  0
  2 18  1  0
  2 19  1  0
  4 20  1  0
  5 21  1  0
  7 22  1  0
 11 23  1  0
 14 24  1  0
 15 25  1  0
 16 26  1  0
M  ISO  8  18   8  19   8  20  14  21  14  22  14  23   3  24  14  25   9
M  ISO  1  26  14
M  END
>  <minimizedAffinity>  (1) 
-4.65819454

>  <minimizedRMSD>  (1) 
3.36235905

$$$$
