
     RDKit          3D

 31 33  0  0  0  0  0  0  0  0999 V2000
   38.4160   32.0400   48.5580 C   0  0  0  0  0  0  0  0  0  0  0  0
   38.4800   33.1620   49.3720 C   0  0  0  0  0  0  0  0  0  0  0  0
   39.2810   34.2610   49.0690 C   0  0  0  0  0  0  0  0  0  0  0  0
   40.0600   34.2180   47.8790 C   0  0  0  0  0  0  0  0  0  0  0  0
   39.9690   33.0950   47.1070 C   0  0  0  0  0  0  0  0  0  0  0  0
   39.1850   32.0250   47.4000 C   0  0  0  0  0  0  0  0  0  0  0  0
   36.2980   30.8650   48.4860 C   0  0  0  0  0  0  0  0  0  0  0  0
   37.5790   30.9650   49.0500 C   0  0  0  0  0  0  0  0  0  0  0  0
   37.9150   30.0160   50.0280 C   0  0  0  0  0  0  0  0  0  0  0  0
   37.0280   29.0720   50.3810 N   0  0  0  0  0  0  0  0  0  0  0  0
   35.8080   28.9900   49.8320 C   0  0  0  0  0  0  0  0  0  0  0  0
   35.4560   29.8860   48.8910 N   0  0  0  0  0  0  0  0  0  0  0  0
   38.3100   31.1830   45.4010 C   0  0  0  0  0  0  0  0  0  0  0  0
   37.7600   32.3190   45.2820 O   0  0  0  0  0  0  0  0  0  0  0  0
   39.0810   30.8960   46.5840 N   0  0  0  0  0  0  0  0  0  0  0  0
   38.1710   30.1520   44.3440 C   0  0  0  0  0  0  0  0  0  0  0  0
   37.0610   29.9580   43.5740 C   0  0  0  0  0  0  0  0  0  0  0  0
   37.3990   28.9160   42.7590 N   0  0  0  0  0  0  0  0  0  0  0  0
   38.6690   28.4750   43.0070 C   0  0  0  0  0  0  0  0  0  0  0  0
   39.1320   29.2730   44.0120 N   0  0  0  0  0  0  0  0  0  0  0  0
   37.8757   33.1846   50.2909 H   0  0  0  0  0  0  0  0  0  0  0  0
   39.3104   35.1383   49.7319 H   0  0  0  0  0  0  0  0  0  0  0  0
   40.7106   35.0572   47.5918 H   0  0  0  0  0  0  0  0  0  0  0  0
   40.5705   33.0543   46.1869 H   0  0  0  0  0  0  0  0  0  0  0  0
   35.9785   31.5818   47.7153 H   0  0  0  0  0  0  0  0  0  0  0  0
   38.9055   30.0457   50.5055 H   0  0  0  0  0  0  0  0  0  0  0  0
   35.1058   28.2034   50.1453 H   0  0  0  0  0  0  0  0  0  0  0  0
   39.4998   29.9800   46.7994 H   0  0  0  0  0  0  0  0  0  0  0  0
   36.1120   30.5135   43.6033 H   0  0  0  0  0  0  0  0  0  0  0  0
   36.7748   28.5124   42.0460 H   0  0  0  0  0  0  0  0  0  0  0  0
   39.2022   27.6543   42.5049 H   0  0  0  0  0  0  0  0  0  0  0  0
  1  8  1  0
  1  2  2  0
  3  2  1  0
  4  3  2  0
  5  6  2  0
  5  4  1  0
  6  1  1  0
  7 12  2  0
  7  8  1  0
  8  9  2  0
  9 10  1  0
 11 10  2  0
 12 11  1  0
 13 15  1  0
 14 13  2  0
 15  6  1  0
 16 13  1  0
 17 16  2  0
 18 19  1  0
 18 17  1  0
 19 20  2  0
 20 16  1  0
  2 21  1  0
  3 22  1  0
  4 23  1  0
  5 24  1  0
  7 25  1  0
  9 26  1  0
 11 27  1  0
 15 28  1  0
 17 29  1  0
 18 30  1  0
 19 31  1  0
M  ISO  8  21  14  22  14  23  14  24  14  25  14  26  14  27  14  29  14
M  ISO  2  30   9  31  14
M  END
>  <minimizedAffinity>  (1) 
-5.78296375

>  <minimizedRMSD>  (1) 
5.77527857

$$$$
