
     RDKit          3D

 23 24  0  0  0  0  0  0  0  0999 V2000
   37.0060   30.4840   48.9740 C   0  0  0  0  0  0  0  0  0  0  0  0
   37.8580   30.5650   47.8540 C   0  0  0  0  0  0  0  0  0  0  0  0
   38.5310   31.7590   47.6590 C   0  0  0  0  0  0  0  0  0  0  0  0
   38.3580   32.7880   48.5250 N   0  0  0  0  0  0  0  0  0  0  0  0
   37.5190   32.6670   49.6030 C   0  0  0  0  0  0  0  0  0  0  0  0
   36.8400   31.5170   49.8330 N   0  0  0  0  0  0  0  0  0  0  0  0
   39.4210   31.8740   46.5080 C   0  0  0  0  0  0  0  0  0  0  0  0
   39.8930   30.8520   45.7110 C   0  0  0  0  0  0  0  0  0  0  0  0
   40.6920   31.4140   44.7570 N   0  0  0  0  0  0  0  0  0  0  0  0
   40.7060   32.7620   44.9720 C   0  0  0  0  0  0  0  0  0  0  0  0
   39.9180   33.0260   46.0550 N   0  0  0  0  0  0  0  0  0  0  0  0
   36.2580   29.3580   49.3130 O   0  0  0  0  0  0  0  0  0  0  0  0
   34.1690   30.0840   47.7960 O   0  0  0  0  0  0  0  0  0  0  0  0
   34.5900   29.2390   48.9830 P   0  0  0  0  0  0  0  0  0  0  0  0
   34.2890   27.5860   48.6940 O   0  0  0  0  0  0  0  0  0  0  0  0
   33.6860   29.7790   50.3040 O   0  0  0  0  0  0  0  0  0  0  0  0
   37.9827   29.7166   47.1650 H   0  0  0  0  0  0  0  0  0  0  0  0
   37.3953   33.5161   50.2913 H   0  0  0  0  0  0  0  0  0  0  0  0
   39.6673   29.7813   45.8233 H   0  0  0  0  0  0  0  0  0  0  0  0
   41.1933   30.9118   44.0104 H   0  0  0  0  0  0  0  0  0  0  0  0
   41.2561   33.5056   44.3766 H   0  0  0  0  0  0  0  0  0  0  0  0
   34.2024   27.1104   49.5579 H   0  0  0  0  0  0  0  0  0  0  0  0
   34.1360   29.5102   51.1438 H   0  0  0  0  0  0  0  0  0  0  0  0
  1 12  1  0
  1  6  2  0
  2  1  1  0
  3  2  2  0
  3  4  1  0
  4  5  2  0
  5  6  1  0
  7  3  1  0
  8  7  2  0
  9 10  1  0
  9  8  1  0
 10 11  2  0
 11  7  1  0
 13 14  2  0
 14 12  1  0
 14 16  1  0
 15 14  1  0
  2 17  1  0
  5 18  1  0
  8 19  1  0
  9 20  1  0
 10 21  1  0
 15 22  1  0
 16 23  1  0
M  ISO  7  17  14  18  14  19  14  20   9  21  14  22   3  23   3
M  END
>  <minimizedAffinity>  (1) 
-5.30166435

>  <minimizedRMSD>  (1) 
5.4878068

$$$$
