
     RDKit          3D

 29 31  0  0  1  0  0  0  0  0999 V2000
   37.7680   31.4640   49.5260 C   0  0  0  0  0  0  0  0  0  0  0  0
   38.0750   32.7750   49.8660 C   0  0  0  0  0  0  0  0  0  0  0  0
   38.7880   33.4780   48.8820 C   0  0  0  0  0  0  0  0  0  0  0  0
   39.1330   32.8830   47.6940 N   0  0  0  0  0  0  0  0  0  0  0  0
   38.8070   31.6000   47.4120 C   0  0  0  0  0  0  0  0  0  0  0  0
   38.1140   30.8820   48.3470 N   0  0  0  0  0  0  0  0  0  0  0  0
   39.1820   30.9830   46.1450 C   0  0  0  0  0  0  0  0  0  0  0  0
   40.4580   31.1080   45.6330 C   0  0  0  0  0  0  0  0  0  0  0  0
   40.4660   30.4220   44.4530 N   0  0  0  0  0  0  0  0  0  0  0  0
   39.2360   29.8850   44.2360 C   0  0  0  0  0  0  0  0  0  0  0  0
   38.4380   30.2310   45.2810 N   0  0  0  0  0  0  0  0  0  0  0  0
   36.9910   30.6860   50.5420 C   0  0  1  0  0  0  0  0  0  0  0  0
   36.1570   29.5460   50.1710 C   0  0  2  0  0  0  0  0  0  0  0  0
   37.5230   29.2460   50.7020 C   0  0  0  0  0  0  0  0  0  0  0  0
   35.9000   29.3630   48.8180 O   0  0  0  0  0  0  0  0  0  0  0  0
   34.7230   29.1320   48.1860 C   0  0  0  0  0  0  0  0  0  0  0  0
   34.3570   27.9860   47.8530 O   0  0  0  0  0  0  0  0  0  0  0  0
   34.0730   30.3530   48.0050 N   0  0  0  0  0  0  0  0  0  0  0  0
   37.7837   33.2252   50.8265 H   0  0  0  0  0  0  0  0  0  0  0  0
   39.0752   34.5238   49.0661 H   0  0  0  0  0  0  0  0  0  0  0  0
   41.3002   31.6519   46.0857 H   0  0  0  0  0  0  0  0  0  0  0  0
   41.2769   30.3262   43.8252 H   0  0  0  0  0  0  0  0  0  0  0  0
   38.9389   29.2778   43.3682 H   0  0  0  0  0  0  0  0  0  0  0  0
   36.7739   31.5718   51.1571 H   0  0  0  0  0  0  0  0  0  0  0  0
   35.1520   29.1992   50.4533 H   0  0  0  0  0  0  0  0  0  0  0  0
   38.3092   28.8651   50.0336 H   0  0  0  0  0  0  0  0  0  0  0  0
   37.9400   28.6414   51.5209 H   0  0  0  0  0  0  0  0  0  0  0  0
   33.1552   30.3837   47.5385 H   0  0  0  0  0  0  0  0  0  0  0  0
   34.5108   31.2238   48.3379 H   0  0  0  0  0  0  0  0  0  0  0  0
  1  2  2  0
  1 12  1  0
  3  2  1  0
  4  3  2  0
  5  4  1  0
  5  6  2  0
  6  1  1  0
  7  5  1  0
  8  7  2  0
  9  8  1  0
 10  9  1  0
 10 11  2  0
 11  7  1  0
 12 14  1  0
 13 12  1  0
 13 14  1  0
 15 13  1  0
 16 15  1  0
 17 16  2  0
 18 16  1  0
  2 19  1  0
  3 20  1  0
  8 21  1  0
  9 22  1  0
 10 23  1  0
 12 24  1  1
 13 25  1  1
 14 26  1  0
 14 27  1  0
 18 28  1  0
 18 29  1  0
M  ISO  8  19  14  20  14  21  14  22   9  23  14  24  13  25  13  26  13
M  ISO  1  27  13
M  END
>  <minimizedAffinity>  (1) 
-5.68103743

>  <minimizedRMSD>  (1) 
2.02067184

$$$$
