
     RDKit          3D

 42 45  0  0  0  0  0  0  0  0999 V2000
   34.2790   28.8830   47.9710 C   0  0  0  0  0  0  0  0  0  0  0  0
   33.4020   27.8150   47.3950 C   0  0  0  0  0  0  0  0  0  0  0  0
   31.9660   28.0040   47.7480 C   0  0  0  0  0  0  0  0  0  0  0  0
   31.5250   27.5250   48.9740 C   0  0  0  0  0  0  0  0  0  0  0  0
   30.2230   27.6520   49.3840 C   0  0  0  0  0  0  0  0  0  0  0  0
   29.3520   28.2520   48.5850 N   0  0  0  0  0  0  0  0  0  0  0  0
   29.7860   28.7270   47.3700 C   0  0  0  0  0  0  0  0  0  0  0  0
   31.0600   28.6120   46.9510 N   0  0  0  0  0  0  0  0  0  0  0  0
   28.8090   29.3870   46.5010 C   0  0  0  0  0  0  0  0  0  0  0  0
   27.6450   29.9300   47.0540 C   0  0  0  0  0  0  0  0  0  0  0  0
   26.8850   30.4900   46.0730 N   0  0  0  0  0  0  0  0  0  0  0  0
   27.5690   30.2950   44.9310 C   0  0  0  0  0  0  0  0  0  0  0  0
   28.7290   29.6330   45.1740 N   0  0  0  0  0  0  0  0  0  0  0  0
   35.0440   28.3770   49.0570 O   0  0  0  0  0  0  0  0  0  0  0  0
   37.2650   30.1340   51.2900 C   0  0  0  0  0  0  0  0  0  0  0  0
   38.0540   30.8600   50.3510 C   0  0  0  0  0  0  0  0  0  0  0  0
   37.7560   30.6880   49.0080 C   0  0  0  0  0  0  0  0  0  0  0  0
   36.7270   29.8310   48.7060 N   0  0  0  0  0  0  0  0  0  0  0  0
   36.0090   29.1650   49.6140 C   0  0  0  0  0  0  0  0  0  0  0  0
   36.2960   29.3300   50.9140 N   0  0  0  0  0  0  0  0  0  0  0  0
   38.9210   33.3310   48.9270 F   0  0  0  0  0  0  0  0  0  0  0  0
   38.9840   32.5640   47.8540 C   0  0  0  0  0  0  0  0  0  0  0  0
   38.4310   31.3280   47.9170 C   0  0  0  0  0  0  0  0  0  0  0  0
   38.5610   30.6080   46.7190 C   0  0  0  0  0  0  0  0  0  0  0  0
   39.1830   31.1020   45.5990 C   0  0  0  0  0  0  0  0  0  0  0  0
   39.7240   32.3510   45.5900 C   0  0  0  0  0  0  0  0  0  0  0  0
   39.6180   33.0930   46.7490 C   0  0  0  0  0  0  0  0  0  0  0  0
   33.6504   29.7121   48.3281 H   0  0  0  0  0  0  0  0  0  0  0  0
   34.9675   29.2340   47.1882 H   0  0  0  0  0  0  0  0  0  0  0  0
   33.7346   26.8397   47.7800 H   0  0  0  0  0  0  0  0  0  0  0  0
   33.4868   27.8675   46.2995 H   0  0  0  0  0  0  0  0  0  0  0  0
   32.2451   27.0263   49.6395 H   0  0  0  0  0  0  0  0  0  0  0  0
   29.9056   27.2615   50.3622 H   0  0  0  0  0  0  0  0  0  0  0  0
   27.3826   29.9080   48.1220 H   0  0  0  0  0  0  0  0  0  0  0  0
   25.9769   30.9636   46.1822 H   0  0  0  0  0  0  0  0  0  0  0  0
   27.2343   30.6264   43.9370 H   0  0  0  0  0  0  0  0  0  0  0  0
   37.4739   30.2504   52.3637 H   0  0  0  0  0  0  0  0  0  0  0  0
   38.8645   31.5280   50.6778 H   0  0  0  0  0  0  0  0  0  0  0  0
   38.1415   29.5921   46.6751 H   0  0  0  0  0  0  0  0  0  0  0  0
   39.2451   30.4786   44.6948 H   0  0  0  0  0  0  0  0  0  0  0  0
   40.2247   32.7522   44.6965 H   0  0  0  0  0  0  0  0  0  0  0  0
   40.0398   34.1080   46.7916 H   0  0  0  0  0  0  0  0  0  0  0  0
  1 14  1  0
  2  3  1  0
  2  1  1  0
  3  4  2  0
  4  5  1  0
  6  5  2  0
  7  6  1  0
  8  7  2  0
  8  3  1  0
  9 10  2  0
  9  7  1  0
 11 10  1  0
 12 13  2  0
 12 11  1  0
 13  9  1  0
 14 19  1  0
 16 15  2  0
 17 16  1  0
 18 17  2  0
 18 19  1  0
 19 20  2  0
 20 15  1  0
 22 23  2  0
 22 21  1  0
 23 17  1  0
 24 23  1  0
 25 24  2  0
 26 25  1  0
 26 27  2  0
 27 22  1  0
  1 28  1  0
  1 29  1  0
  2 30  1  0
  2 31  1  0
  4 32  1  0
  5 33  1  0
 10 34  1  0
 11 35  1  0
 12 36  1  0
 15 37  1  0
 16 38  1  0
 24 39  1  0
 25 40  1  0
 26 41  1  0
 27 42  1  0
M  ISO  8  28   8  29   8  30   8  31   8  32  14  33  14  34  14  35   9
M  ISO  7  36  14  37  14  38  14  39  14  40  14  41  14  42  14
M  END
>  <minimizedAffinity>  (1) 
-6.65052271

>  <minimizedRMSD>  (1) 
0.963593423

$$$$
