
     RDKit          3D

 42 46  0  0  0  0  0  0  0  0999 V2000
   38.3780   31.4530   46.7570 C   0  0  0  0  0  0  0  0  0  0  0  0
   38.7430   31.4310   45.4370 N   0  0  0  0  0  0  0  0  0  0  0  0
   39.5690   32.3930   44.9560 C   0  0  0  0  0  0  0  0  0  0  0  0
   40.0600   33.3850   45.7080 N   0  0  0  0  0  0  0  0  0  0  0  0
   39.7350   33.4550   47.0080 C   0  0  0  0  0  0  0  0  0  0  0  0
   40.2250   34.4830   47.7770 C   0  0  0  0  0  0  0  0  0  0  0  0
   39.8790   34.5730   49.1220 C   0  0  0  0  0  0  0  0  0  0  0  0
   39.0350   33.6060   49.6670 C   0  0  0  0  0  0  0  0  0  0  0  0
   38.5640   32.5760   48.8430 C   0  0  0  0  0  0  0  0  0  0  0  0
   38.8910   32.4800   47.5280 C   0  0  0  0  0  0  0  0  0  0  0  0
   37.7450   31.7200   49.6840 C   0  0  0  0  0  0  0  0  0  0  0  0
   36.3700   31.5460   49.8340 C   0  0  0  0  0  0  0  0  0  0  0  0
   36.0410   30.5490   50.6670 N   0  0  0  0  0  0  0  0  0  0  0  0
   37.2190   30.0560   51.0760 C   0  0  0  0  0  0  0  0  0  0  0  0
   38.1970   30.7370   50.5040 N   0  0  0  0  0  0  0  0  0  0  0  0
   37.2890   30.3130   47.5300 S   0  0  0  0  0  0  0  0  0  0  0  0
   34.9430   28.7740   48.3680 F   0  0  0  0  0  0  0  0  0  0  0  0
   34.8290   29.1900   47.0610 C   0  0  0  0  0  0  0  0  0  0  0  0
   33.7140   28.8750   46.3110 C   0  0  0  0  0  0  0  0  0  0  0  0
   33.6430   29.3170   44.9850 C   0  0  0  0  0  0  0  0  0  0  0  0
   34.6760   30.0620   44.4240 C   0  0  0  0  0  0  0  0  0  0  0  0
   35.7640   30.3410   45.2350 C   0  0  0  0  0  0  0  0  0  0  0  0
   35.8600   29.9210   46.5390 C   0  0  0  0  0  0  0  0  0  0  0  0
   33.0270   26.8010   47.2330 C   0  0  0  0  0  0  0  0  0  0  0  0
   32.6970   28.1110   46.9500 C   0  0  0  0  0  0  0  0  0  0  0  0
   31.4130   28.5450   47.3190 C   0  0  0  0  0  0  0  0  0  0  0  0
   30.5750   27.6580   47.9280 N   0  0  0  0  0  0  0  0  0  0  0  0
   30.9330   26.4120   48.1790 C   0  0  0  0  0  0  0  0  0  0  0  0
   32.1460   25.9690   47.8420 N   0  0  0  0  0  0  0  0  0  0  0  0
   39.8498   32.3560   43.8931 H   0  0  0  0  0  0  0  0  0  0  0  0
   40.8911   35.2352   47.3292 H   0  0  0  0  0  0  0  0  0  0  0  0
   40.2649   35.3934   49.7449 H   0  0  0  0  0  0  0  0  0  0  0  0
   38.7439   33.6514   50.7268 H   0  0  0  0  0  0  0  0  0  0  0  0
   35.6249   32.1686   49.3171 H   0  0  0  0  0  0  0  0  0  0  0  0
   35.0973   30.2331   50.9327 H   0  0  0  0  0  0  0  0  0  0  0  0
   37.3506   29.2180   51.7763 H   0  0  0  0  0  0  0  0  0  0  0  0
   32.7588   29.0723   44.3781 H   0  0  0  0  0  0  0  0  0  0  0  0
   34.6306   30.4138   43.3827 H   0  0  0  0  0  0  0  0  0  0  0  0
   36.5928   30.9286   44.8132 H   0  0  0  0  0  0  0  0  0  0  0  0
   34.0237   26.4246   46.9593 H   0  0  0  0  0  0  0  0  0  0  0  0
   31.0904   29.5778   47.1211 H   0  0  0  0  0  0  0  0  0  0  0  0
   30.2232   25.7312   48.6716 H   0  0  0  0  0  0  0  0  0  0  0  0
  1 10  1  0
  1 16  1  0
  2  1  2  0
  3  2  1  0
  3  4  2  0
  4  5  1  0
  5 10  2  0
  5  6  1  0
  6  7  2  0
  7  8  1  0
  9  8  2  0
  9 11  1  0
 10  9  1  0
 11 12  2  0
 11 15  1  0
 12 13  1  0
 13 14  1  0
 15 14  2  0
 18 17  1  0
 19 25  1  0
 19 18  2  0
 20 19  1  0
 21 20  2  0
 21 22  1  0
 22 23  2  0
 23 18  1  0
 23 16  1  0
 24 29  2  0
 25 24  1  0
 25 26  2  0
 26 27  1  0
 27 28  2  0
 29 28  1  0
  3 30  1  0
  6 31  1  0
  7 32  1  0
  8 33  1  0
 12 34  1  0
 13 35  1  0
 14 36  1  0
 20 37  1  0
 21 38  1  0
 22 39  1  0
 24 40  1  0
 26 41  1  0
 28 42  1  0
M  ISO  8  30  14  31  14  32  14  33  14  34  14  35   9  36  14  37  14
M  ISO  5  38  14  39  14  40  14  41  14  42  14
M  END
>  <minimizedAffinity>  (1) 
-6.19146395

>  <minimizedRMSD>  (1) 
1.10449195

$$$$
