
     RDKit          3D

 20 21  0  0  0  0  0  0  0  0999 V2000
   36.8200   29.9740   49.8460 C   0  0  0  0  0  0  0  0  0  0  0  0
   37.7650   30.9080   49.4320 C   0  0  0  0  0  0  0  0  0  0  0  0
   37.6760   31.3900   48.1160 C   0  0  0  0  0  0  0  0  0  0  0  0
   36.6750   30.9160   47.3270 N   0  0  0  0  0  0  0  0  0  0  0  0
   35.7790   30.0060   47.7760 C   0  0  0  0  0  0  0  0  0  0  0  0
   35.8630   29.5450   49.0330 N   0  0  0  0  0  0  0  0  0  0  0  0
   38.6230   32.3570   47.6300 C   0  0  0  0  0  0  0  0  0  0  0  0
   39.0750   33.4460   48.3330 C   0  0  0  0  0  0  0  0  0  0  0  0
   39.9440   34.0570   47.4760 N   0  0  0  0  0  0  0  0  0  0  0  0
   40.0320   33.3820   46.2940 C   0  0  0  0  0  0  0  0  0  0  0  0
   39.1940   32.3170   46.4130 N   0  0  0  0  0  0  0  0  0  0  0  0
   36.9080   29.4560   51.2480 C   0  0  0  0  0  0  0  0  0  0  0  0
   35.6320   29.1350   51.7090 F   0  0  0  0  0  0  0  0  0  0  0  0
   37.7840   28.4200   51.2860 F   0  0  0  0  0  0  0  0  0  0  0  0
   37.3600   30.5140   52.0470 F   0  0  0  0  0  0  0  0  0  0  0  0
   38.5553   31.2571   50.1129 H   0  0  0  0  0  0  0  0  0  0  0  0
   34.9818   29.6444   47.1099 H   0  0  0  0  0  0  0  0  0  0  0  0
   38.8001   33.7550   49.3523 H   0  0  0  0  0  0  0  0  0  0  0  0
   40.4664   34.9175   47.6939 H   0  0  0  0  0  0  0  0  0  0  0  0
   40.6523   33.6445   45.4244 H   0  0  0  0  0  0  0  0  0  0  0  0
  1 12  1  0
  2  1  2  0
  3  2  1  0
  4  5  1  0
  4  3  2  0
  5  6  2  0
  6  1  1  0
  7  3  1  0
  7  8  2  0
  9  8  1  0
 10 11  2  0
 10  9  1  0
 11  7  1  0
 12 14  1  0
 12 13  1  0
 12 15  1  0
  2 16  1  0
  5 17  1  0
  8 18  1  0
  9 19  1  0
 10 20  1  0
M  ISO  5  16  14  17  14  18  14  19   9  20  14
M  END
>  <minimizedAffinity>  (1) 
-5.43434429

>  <minimizedRMSD>  (1) 
1.46777773

$$$$
