
     RDKit          3D

 27 29  0  0  0  0  0  0  0  0999 V2000
   37.7910   30.5440   47.2670 F   0  0  0  0  0  0  0  0  0  0  0  0
   38.2920   31.6630   47.8630 C   0  0  0  0  0  0  0  0  0  0  0  0
   39.0940   32.5690   47.1800 C   0  0  0  0  0  0  0  0  0  0  0  0
   39.5770   33.6880   47.8280 C   0  0  0  0  0  0  0  0  0  0  0  0
   39.2700   33.9250   49.1670 C   0  0  0  0  0  0  0  0  0  0  0  0
   38.4650   32.9880   49.8010 C   0  0  0  0  0  0  0  0  0  0  0  0
   37.9730   31.8760   49.1910 C   0  0  0  0  0  0  0  0  0  0  0  0
   40.4780   31.4440   45.5950 C   0  0  0  0  0  0  0  0  0  0  0  0
   39.3670   32.2560   45.8050 C   0  0  0  0  0  0  0  0  0  0  0  0
   38.6530   32.6690   44.6770 C   0  0  0  0  0  0  0  0  0  0  0  0
   39.0610   32.2720   43.4440 N   0  0  0  0  0  0  0  0  0  0  0  0
   40.1440   31.4850   43.2840 C   0  0  0  0  0  0  0  0  0  0  0  0
   40.8370   31.0800   44.3450 N   0  0  0  0  0  0  0  0  0  0  0  0
   37.1280   30.9100   49.8860 C   0  0  0  0  0  0  0  0  0  0  0  0
   37.4440   30.2230   51.0390 C   0  0  0  0  0  0  0  0  0  0  0  0
   36.3840   29.4220   51.3530 N   0  0  0  0  0  0  0  0  0  0  0  0
   35.4290   29.6050   50.4220 C   0  0  0  0  0  0  0  0  0  0  0  0
   35.8830   30.5080   49.5340 N   0  0  0  0  0  0  0  0  0  0  0  0
   40.2116   34.4011   47.2814 H   0  0  0  0  0  0  0  0  0  0  0  0
   39.6476   34.8123   49.6962 H   0  0  0  0  0  0  0  0  0  0  0  0
   38.2103   33.1545   50.8581 H   0  0  0  0  0  0  0  0  0  0  0  0
   41.0689   31.0957   46.4550 H   0  0  0  0  0  0  0  0  0  0  0  0
   37.7667   33.3112   44.7870 H   0  0  0  0  0  0  0  0  0  0  0  0
   40.4550   31.1773   42.2747 H   0  0  0  0  0  0  0  0  0  0  0  0
   38.3834   30.3057   51.6053 H   0  0  0  0  0  0  0  0  0  0  0  0
   36.3251   28.7875   52.1622 H   0  0  0  0  0  0  0  0  0  0  0  0
   34.4499   29.1044   50.3925 H   0  0  0  0  0  0  0  0  0  0  0  0
  1  2  1  0
  2  7  2  0
  3  4  2  0
  3  2  1  0
  4  5  1  0
  5  6  2  0
  7  6  1  0
  7 14  1  0
  8  9  2  0
  9  3  1  0
 10  9  1  0
 11 10  2  0
 12 11  1  0
 12 13  2  0
 13  8  1  0
 14 15  2  0
 15 16  1  0
 17 16  1  0
 18 14  1  0
 18 17  2  0
  4 19  1  0
  5 20  1  0
  6 21  1  0
  8 22  1  0
 10 23  1  0
 12 24  1  0
 15 25  1  0
 16 26  1  0
 17 27  1  0
M  ISO  8  19  14  20  14  21  14  22  14  23  14  24  14  25  14  26   9
M  ISO  1  27  14
M  END
>  <minimizedAffinity>  (1) 
-6.26788759

>  <minimizedRMSD>  (1) 
5.25248671

$$$$
