
     RDKit          3D

 25 27  0  0  0  0  0  0  0  0999 V2000
   37.9350   31.8710   49.1230 C   0  0  0  0  0  0  0  0  0  0  0  0
   38.3750   33.0560   49.6640 C   0  0  0  0  0  0  0  0  0  0  0  0
   39.2280   33.9490   49.0050 C   0  0  0  0  0  0  0  0  0  0  0  0
   39.6320   33.6060   47.7570 N   0  0  0  0  0  0  0  0  0  0  0  0
   39.2010   32.4420   47.2190 C   0  0  0  0  0  0  0  0  0  0  0  0
   38.3870   31.6220   47.8890 N   0  0  0  0  0  0  0  0  0  0  0  0
   37.3690   30.3310   51.0200 C   0  0  0  0  0  0  0  0  0  0  0  0
   37.0630   30.9790   49.8240 C   0  0  0  0  0  0  0  0  0  0  0  0
   35.8020   30.7270   49.2840 C   0  0  0  0  0  0  0  0  0  0  0  0
   34.9570   29.8830   49.9300 N   0  0  0  0  0  0  0  0  0  0  0  0
   35.3060   29.2730   51.1030 C   0  0  0  0  0  0  0  0  0  0  0  0
   36.5200   29.5050   51.6410 N   0  0  0  0  0  0  0  0  0  0  0  0
   39.6820   32.1460   45.8710 C   0  0  0  0  0  0  0  0  0  0  0  0
   40.4880   31.0490   45.6370 C   0  0  0  0  0  0  0  0  0  0  0  0
   40.7900   31.0040   44.3200 N   0  0  0  0  0  0  0  0  0  0  0  0
   40.1810   32.0640   43.7220 C   0  0  0  0  0  0  0  0  0  0  0  0
   39.5040   32.7580   44.6790 N   0  0  0  0  0  0  0  0  0  0  0  0
   38.0358   33.3184   50.6770 H   0  0  0  0  0  0  0  0  0  0  0  0
   39.5557   34.8864   49.4781 H   0  0  0  0  0  0  0  0  0  0  0  0
   38.3552   30.5074   51.4742 H   0  0  0  0  0  0  0  0  0  0  0  0
   35.4948   31.2076   48.3434 H   0  0  0  0  0  0  0  0  0  0  0  0
   34.5993   28.5960   51.6053 H   0  0  0  0  0  0  0  0  0  0  0  0
   40.8282   30.3303   46.3971 H   0  0  0  0  0  0  0  0  0  0  0  0
   41.3749   30.2959   43.8538 H   0  0  0  0  0  0  0  0  0  0  0  0
   40.2273   32.3164   42.6524 H   0  0  0  0  0  0  0  0  0  0  0  0
  1  2  2  0
  1  8  1  0
  3  2  1  0
  4  3  2  0
  5  4  1  0
  5  6  2  0
  6  1  1  0
  7 12  2  0
  8  7  1  0
  9  8  2  0
  9 10  1  0
 10 11  2  0
 11 12  1  0
 13  5  1  0
 14 13  2  0
 15 14  1  0
 16 15  1  0
 16 17  2  0
 17 13  1  0
  2 18  1  0
  3 19  1  0
  7 20  1  0
  9 21  1  0
 11 22  1  0
 14 23  1  0
 15 24  1  0
 16 25  1  0
M  ISO  8  18  14  19  14  20  14  21  14  22  14  23  14  24   9  25  14
M  END
>  <minimizedAffinity>  (1) 
-5.77572584

>  <minimizedRMSD>  (1) 
0.597324014

$$$$
