
     RDKit          3D

 38 42  0  0  0  0  0  0  0  0999 V2000
   38.1870   32.6180   49.3900 C   0  0  0  0  0  0  0  0  0  0  0  0
   38.8830   32.7850   48.1820 C   0  0  0  0  0  0  0  0  0  0  0  0
   38.4620   32.0170   47.0970 C   0  0  0  0  0  0  0  0  0  0  0  0
   37.4240   31.1630   47.2560 N   0  0  0  0  0  0  0  0  0  0  0  0
   36.7780   31.0270   48.4340 C   0  0  0  0  0  0  0  0  0  0  0  0
   37.1630   31.7560   49.4970 N   0  0  0  0  0  0  0  0  0  0  0  0
   35.6940   29.1090   49.5150 C   0  0  0  0  0  0  0  0  0  0  0  0
   35.6680   30.0840   48.5230 C   0  0  0  0  0  0  0  0  0  0  0  0
   34.6130   30.1520   47.6460 C   0  0  0  0  0  0  0  0  0  0  0  0
   33.5690   29.2660   47.7300 C   0  0  0  0  0  0  0  0  0  0  0  0
   32.4360   29.1070   47.0190 N   0  0  0  0  0  0  0  0  0  0  0  0
   31.8070   28.0510   47.5900 C   0  0  0  0  0  0  0  0  0  0  0  0
   32.5310   27.5670   48.6270 N   0  0  0  0  0  0  0  0  0  0  0  0
   33.6360   28.3190   48.7250 C   0  0  0  0  0  0  0  0  0  0  0  0
   34.6620   28.2010   49.6290 C   0  0  0  0  0  0  0  0  0  0  0  0
   39.0670   32.0640   45.7770 C   0  0  0  0  0  0  0  0  0  0  0  0
   39.4330   33.2350   45.1420 C   0  0  0  0  0  0  0  0  0  0  0  0
   40.0080   33.3140   43.8930 C   0  0  0  0  0  0  0  0  0  0  0  0
   40.2200   32.1510   43.2570 N   0  0  0  0  0  0  0  0  0  0  0  0
   39.8810   30.9940   43.8360 C   0  0  0  0  0  0  0  0  0  0  0  0
   39.3280   30.9580   45.0460 N   0  0  0  0  0  0  0  0  0  0  0  0
   40.1280   29.7420   43.1130 C   0  0  0  0  0  0  0  0  0  0  0  0
   41.1840   29.4660   42.2670 C   0  0  0  0  0  0  0  0  0  0  0  0
   41.0470   28.1920   41.7970 N   0  0  0  0  0  0  0  0  0  0  0  0
   39.9180   27.6800   42.3460 C   0  0  0  0  0  0  0  0  0  0  0  0
   39.3710   28.6260   43.1380 N   0  0  0  0  0  0  0  0  0  0  0  0
   38.4876   33.2070   50.2691 H   0  0  0  0  0  0  0  0  0  0  0  0
   39.7228   33.4901   48.0955 H   0  0  0  0  0  0  0  0  0  0  0  0
   36.5430   29.0619   50.2129 H   0  0  0  0  0  0  0  0  0  0  0  0
   34.6051   30.9274   46.8658 H   0  0  0  0  0  0  0  0  0  0  0  0
   32.1168   29.6667   46.2154 H   0  0  0  0  0  0  0  0  0  0  0  0
   30.8412   27.6432   47.2569 H   0  0  0  0  0  0  0  0  0  0  0  0
   34.6613   27.4216   50.4053 H   0  0  0  0  0  0  0  0  0  0  0  0
   39.2508   34.1791   45.6763 H   0  0  0  0  0  0  0  0  0  0  0  0
   40.2792   34.2792   43.4405 H   0  0  0  0  0  0  0  0  0  0  0  0
   42.0004   30.1583   42.0138 H   0  0  0  0  0  0  0  0  0  0  0  0
   41.6830   27.7093   41.1463 H   0  0  0  0  0  0  0  0  0  0  0  0
   39.5177   26.6697   42.1756 H   0  0  0  0  0  0  0  0  0  0  0  0
  1  6  2  0
  2  1  1  0
  3  4  1  0
  3  2  2  0
  4  5  2  0
  5  8  1  0
  5  6  1  0
  7 15  2  0
  8  7  1  0
  9 10  1  0
  9  8  2  0
 10 14  2  0
 11 12  1  0
 11 10  1  0
 12 13  2  0
 13 14  1  0
 14 15  1  0
 16  3  1  0
 17 16  2  0
 18 17  1  0
 19 20  1  0
 19 18  2  0
 20 21  2  0
 21 16  1  0
 22 26  1  0
 22 20  1  0
 23 22  2  0
 24 23  1  0
 24 25  1  0
 25 26  2  0
  1 27  1  0
  2 28  1  0
  7 29  1  0
  9 30  1  0
 11 31  1  0
 12 32  1  0
 15 33  1  0
 17 34  1  0
 18 35  1  0
 23 36  1  0
 24 37  1  0
 25 38  1  0
M  ISO  8  27  14  28  14  29  14  30  14  31   9  32  14  33  14  34  14
M  ISO  4  35  14  36  14  37   9  38  14
M  END
>  <minimizedAffinity>  (1) 
-7.41100979

>  <minimizedRMSD>  (1) 
1.41572094

$$$$
