
     RDKit          3D

 27 29  0  0  0  0  0  0  0  0999 V2000
   39.1130   31.3120   47.2310 Cl  0  0  0  0  0  0  0  0  0  0  0  0
   37.5820   30.8410   46.5450 C   0  0  0  0  0  0  0  0  0  0  0  0
   36.6810   30.3720   47.4620 C   0  0  0  0  0  0  0  0  0  0  0  0
   35.4120   29.9640   47.0170 C   0  0  0  0  0  0  0  0  0  0  0  0
   35.0680   30.0270   45.7000 C   0  0  0  0  0  0  0  0  0  0  0  0
   35.9870   30.5020   44.7920 C   0  0  0  0  0  0  0  0  0  0  0  0
   35.5800   30.5970   43.0970 Cl  0  0  0  0  0  0  0  0  0  0  0  0
   37.2180   30.8980   45.2200 C   0  0  0  0  0  0  0  0  0  0  0  0
   37.8810   30.9130   49.5550 C   0  0  0  0  0  0  0  0  0  0  0  0
   36.8330   30.2160   48.9210 C   0  0  0  0  0  0  0  0  0  0  0  0
   35.9980   29.4150   49.7100 C   0  0  0  0  0  0  0  0  0  0  0  0
   36.2430   29.3540   51.0450 N   0  0  0  0  0  0  0  0  0  0  0  0
   37.2580   30.0370   51.6230 C   0  0  0  0  0  0  0  0  0  0  0  0
   38.0820   30.8200   50.8750 N   0  0  0  0  0  0  0  0  0  0  0  0
   38.2550   31.4150   44.3210 C   0  0  0  0  0  0  0  0  0  0  0  0
   38.5050   32.7180   43.9310 C   0  0  0  0  0  0  0  0  0  0  0  0
   39.5610   32.6640   43.1000 N   0  0  0  0  0  0  0  0  0  0  0  0
   39.9870   31.3850   42.9520 C   0  0  0  0  0  0  0  0  0  0  0  0
   39.1670   30.6330   43.7130 N   0  0  0  0  0  0  0  0  0  0  0  0
   34.6812   29.5859   47.7470 H   0  0  0  0  0  0  0  0  0  0  0  0
   34.0708   29.7031   45.3674 H   0  0  0  0  0  0  0  0  0  0  0  0
   38.5480   31.5469   48.9522 H   0  0  0  0  0  0  0  0  0  0  0  0
   35.1670   28.8510   49.2614 H   0  0  0  0  0  0  0  0  0  0  0  0
   37.4186   29.9585   52.7084 H   0  0  0  0  0  0  0  0  0  0  0  0
   37.9516   33.6175   44.2386 H   0  0  0  0  0  0  0  0  0  0  0  0
   39.9872   33.4809   42.6397 H   0  0  0  0  0  0  0  0  0  0  0  0
   40.8287   31.0335   42.3373 H   0  0  0  0  0  0  0  0  0  0  0  0
  2  1  1  0
  2  3  2  0
  3 10  1  0
  4  3  1  0
  5  4  2  0
  6  8  2  0
  6  5  1  0
  7  6  1  0
  8  2  1  0
  9 14  2  0
 10  9  1  0
 10 11  2  0
 11 12  1  0
 12 13  2  0
 14 13  1  0
 15  8  1  0
 16 15  2  0
 17 16  1  0
 18 17  1  0
 18 19  2  0
 19 15  1  0
  4 20  1  0
  5 21  1  0
  9 22  1  0
 11 23  1  0
 13 24  1  0
 16 25  1  0
 17 26  1  0
 18 27  1  0
M  ISO  8  20  14  21  14  22  14  23  14  24  14  25  14  26   9  27  14
M  END
>  <minimizedAffinity>  (1) 
-5.44766951

>  <minimizedRMSD>  (1) 
3.82752204

$$$$
