
     RDKit          3D

 51 55  0  0  1  0  0  0  0  0999 V2000
   39.3440   32.8610   43.7040 C   0  0  0  0  0  0  0  0  0  0  0  0
   39.3070   29.4990   42.5960 C   0  0  1  0  0  0  0  0  0  0  0  0
   39.1070   30.9370   42.1430 C   0  0  0  0  0  0  0  0  0  0  0  0
   40.0300   31.6630   43.0970 C   0  0  2  0  0  0  0  0  0  0  0  0
   40.4590   30.7780   44.0450 O   0  0  0  0  0  0  0  0  0  0  0  0
   39.5730   29.7110   44.0780 C   0  0  0  0  0  0  0  0  0  0  0  0
   38.1760   28.7350   42.3890 O   0  0  0  0  0  0  0  0  0  0  0  0
   36.6540   26.9970   42.7930 C   0  0  0  0  0  0  0  0  0  0  0  0
   37.9690   27.4340   42.7350 C   0  0  0  0  0  0  0  0  0  0  0  0
   38.9670   26.5270   43.0310 C   0  0  0  0  0  0  0  0  0  0  0  0
   38.7600   25.2020   43.3840 C   0  0  0  0  0  0  0  0  0  0  0  0
   39.5870   24.1920   43.7000 N   0  0  0  0  0  0  0  0  0  0  0  0
   38.8100   23.1030   43.9610 C   0  0  0  0  0  0  0  0  0  0  0  0
   37.4760   23.4610   43.8000 C   0  0  0  0  0  0  0  0  0  0  0  0
   37.4270   24.7900   43.4340 C   0  0  0  0  0  0  0  0  0  0  0  0
   36.4140   25.6680   43.1460 C   0  0  0  0  0  0  0  0  0  0  0  0
   40.3810   33.4490   45.0770 S   0  0  0  0  0  0  0  0  0  0  0  0
   37.7660   31.8160   47.5790 C   0  0  0  0  0  0  0  0  0  0  0  0
   37.9990   32.4680   48.8020 C   0  0  0  0  0  0  0  0  0  0  0  0
   38.9810   33.4430   48.8980 C   0  0  0  0  0  0  0  0  0  0  0  0
   39.6830   33.7180   47.7590 C   0  0  0  0  0  0  0  0  0  0  0  0
   39.4350   33.0710   46.5890 C   0  0  0  0  0  0  0  0  0  0  0  0
   38.4830   32.1160   46.4710 N   0  0  0  0  0  0  0  0  0  0  0  0
   36.7320   30.8160   47.5560 C   0  0  0  0  0  0  0  0  0  0  0  0
   36.2860   30.3840   46.4950 O   0  0  0  0  0  0  0  0  0  0  0  0
   37.0170   29.5920   49.6820 C   0  0  0  0  0  0  0  0  0  0  0  0
   36.1450   30.2510   48.7830 C   0  0  0  0  0  0  0  0  0  0  0  0
   34.7880   30.3360   49.0890 C   0  0  0  0  0  0  0  0  0  0  0  0
   34.3420   29.7770   50.2550 N   0  0  0  0  0  0  0  0  0  0  0  0
   35.1950   29.1530   51.0970 C   0  0  0  0  0  0  0  0  0  0  0  0
   36.5060   29.0630   50.8160 N   0  0  0  0  0  0  0  0  0  0  0  0
   38.3508   32.5743   44.0799 H   0  0  0  0  0  0  0  0  0  0  0  0
   39.2116   33.6531   42.9523 H   0  0  0  0  0  0  0  0  0  0  0  0
   40.0987   28.9566   42.0584 H   0  0  0  0  0  0  0  0  0  0  0  0
   39.4135   31.0784   41.0961 H   0  0  0  0  0  0  0  0  0  0  0  0
   38.0628   31.2820   42.1669 H   0  0  0  0  0  0  0  0  0  0  0  0
   40.9045   32.0512   42.5543 H   0  0  0  0  0  0  0  0  0  0  0  0
   38.6512   29.9696   44.6197 H   0  0  0  0  0  0  0  0  0  0  0  0
   39.9579   28.8216   44.5984 H   0  0  0  0  0  0  0  0  0  0  0  0
   35.8219   27.6799   42.5667 H   0  0  0  0  0  0  0  0  0  0  0  0
   40.0067   26.8829   42.9831 H   0  0  0  0  0  0  0  0  0  0  0  0
   40.6155   24.2327   43.7380 H   0  0  0  0  0  0  0  0  0  0  0  0
   39.1769   22.1073   44.2506 H   0  0  0  0  0  0  0  0  0  0  0  0
   36.6092   22.7985   43.9403 H   0  0  0  0  0  0  0  0  0  0  0  0
   35.3743   25.3121   43.1949 H   0  0  0  0  0  0  0  0  0  0  0  0
   37.4004   32.2042   49.6864 H   0  0  0  0  0  0  0  0  0  0  0  0
   39.1840   33.9679   49.8431 H   0  0  0  0  0  0  0  0  0  0  0  0
   40.4713   34.4846   47.7891 H   0  0  0  0  0  0  0  0  0  0  0  0
   38.0917   29.5117   49.4618 H   0  0  0  0  0  0  0  0  0  0  0  0
   34.0896   30.8425   48.4065 H   0  0  0  0  0  0  0  0  0  0  0  0
   34.8098   28.7114   52.0279 H   0  0  0  0  0  0  0  0  0  0  0  0
  1 17  1  0
  2  6  1  0
  3  2  1  0
  3  4  1  0
  4  1  1  0
  4  5  1  0
  5  6  1  0
  7  2  1  0
  7  9  1  0
  8 16  2  0
  9  8  1  0
  9 10  2  0
 10 11  1  0
 11 15  2  0
 11 12  1  0
 12 13  1  0
 14 13  2  0
 15 14  1  0
 16 15  1  0
 17 22  1  0
 18 19  2  0
 19 20  1  0
 21 20  2  0
 22 21  1  0
 23 22  2  0
 23 18  1  0
 24 18  1  0
 24 27  1  0
 25 24  2  0
 26 31  2  0
 27 28  2  0
 27 26  1  0
 28 29  1  0
 29 30  2  0
 31 30  1  0
  1 32  1  0
  1 33  1  0
  2 34  1  6
  3 35  1  0
  3 36  1  0
  4 37  1  6
  6 38  1  0
  6 39  1  0
  8 40  1  0
 10 41  1  0
 12 42  1  0
 13 43  1  0
 14 44  1  0
 16 45  1  0
 19 46  1  0
 20 47  1  0
 21 48  1  0
 26 49  1  0
 28 50  1  0
 30 51  1  0
M  ISO  8  32   8  33   8  34  13  35  13  36  13  37  13  38  13  39  13
M  ISO  8  40  14  41  14  42   9  43  14  44  14  45  14  46  14  47  14
M  ISO  4  48  14  49  14  50  14  51  14
M  END
>  <minimizedAffinity>  (1) 
-5.98627901

>  <minimizedRMSD>  (1) 
2.39218163

$$$$
