
     RDKit          3D

 34 37  0  0  0  0  0  0  0  0999 V2000
   37.3220   29.3390   51.0330 Br  0  0  0  0  0  0  0  0  0  0  0  0
   35.9670   29.3410   49.6720 C   0  0  0  0  0  0  0  0  0  0  0  0
   35.9980   30.2620   48.6490 C   0  0  0  0  0  0  0  0  0  0  0  0
   34.9880   30.1990   47.7070 C   0  0  0  0  0  0  0  0  0  0  0  0
   33.9660   29.2660   47.7500 C   0  0  0  0  0  0  0  0  0  0  0  0
   33.9720   28.3680   48.7810 C   0  0  0  0  0  0  0  0  0  0  0  0
   34.9710   28.4110   49.7360 C   0  0  0  0  0  0  0  0  0  0  0  0
   32.2670   28.0940   46.3360 C   0  0  0  0  0  0  0  0  0  0  0  0
   32.9300   29.2300   46.7520 C   0  0  0  0  0  0  0  0  0  0  0  0
   32.5220   30.3890   46.1250 C   0  0  0  0  0  0  0  0  0  0  0  0
   31.5480   30.5030   45.1570 C   0  0  0  0  0  0  0  0  0  0  0  0
   31.0550   31.5450   44.4690 N   0  0  0  0  0  0  0  0  0  0  0  0
   30.0990   31.0230   43.6470 C   0  0  0  0  0  0  0  0  0  0  0  0
   30.0100   29.6610   43.8340 C   0  0  0  0  0  0  0  0  0  0  0  0
   30.9290   29.3000   44.7970 C   0  0  0  0  0  0  0  0  0  0  0  0
   31.2780   28.1010   45.3760 C   0  0  0  0  0  0  0  0  0  0  0  0
   37.9990   33.2010   49.4600 C   0  0  0  0  0  0  0  0  0  0  0  0
   39.0200   33.1910   48.4850 C   0  0  0  0  0  0  0  0  0  0  0  0
   39.0050   32.1630   47.5550 C   0  0  0  0  0  0  0  0  0  0  0  0
   38.0210   31.2160   47.6130 N   0  0  0  0  0  0  0  0  0  0  0  0
   37.0550   31.2600   48.5680 C   0  0  0  0  0  0  0  0  0  0  0  0
   37.0530   32.2620   49.4900 N   0  0  0  0  0  0  0  0  0  0  0  0
   34.9968   30.9266   46.8820 H   0  0  0  0  0  0  0  0  0  0  0  0
   33.1793   27.6086   48.8510 H   0  0  0  0  0  0  0  0  0  0  0  0
   34.9625   27.6834   50.5609 H   0  0  0  0  0  0  0  0  0  0  0  0
   32.5419   27.1326   46.7943 H   0  0  0  0  0  0  0  0  0  0  0  0
   33.0262   31.3181   46.4292 H   0  0  0  0  0  0  0  0  0  0  0  0
   31.3390   32.5321   44.5456 H   0  0  0  0  0  0  0  0  0  0  0  0
   29.4893   31.6040   42.9394 H   0  0  0  0  0  0  0  0  0  0  0  0
   29.3253   28.9801   43.3071 H   0  0  0  0  0  0  0  0  0  0  0  0
   30.7778   27.1675   45.0786 H   0  0  0  0  0  0  0  0  0  0  0  0
   37.9836   34.0027   50.2130 H   0  0  0  0  0  0  0  0  0  0  0  0
   39.7974   33.9689   48.4641 H   0  0  0  0  0  0  0  0  0  0  0  0
   39.7796   32.1098   46.7758 H   0  0  0  0  0  0  0  0  0  0  0  0
  2  7  2  0
  2  1  1  0
  3  2  1  0
  4  5  1  0
  4  3  2  0
  5  6  2  0
  6  7  1  0
  8  9  2  0
  9  5  1  0
 10  9  1  0
 11 10  2  0
 12 11  1  0
 13 14  2  0
 13 12  1  0
 14 15  1  0
 15 11  1  0
 15 16  2  0
 16  8  1  0
 17 22  2  0
 18 17  1  0
 19 20  1  0
 19 18  2  0
 20 21  2  0
 21  3  1  0
 21 22  1  0
  4 23  1  0
  6 24  1  0
  7 25  1  0
  8 26  1  0
 10 27  1  0
 12 28  1  0
 13 29  1  0
 14 30  1  0
 16 31  1  0
 17 32  1  0
 18 33  1  0
 19 34  1  0
M  ISO  8  23  14  24  14  25  14  26  14  27  14  28   9  29  14  30  14
M  ISO  4  31  14  32  14  33  14  34  14
M  END
>  <minimizedAffinity>  (1) 
-6.22137547

>  <minimizedRMSD>  (1) 
0.177171975

$$$$
