
     RDKit          3D

 40 43  0  0  1  0  0  0  0  0999 V2000
   35.8410   29.6010   48.8910 N   0  0  0  0  0  0  0  0  0  0  0  0
   36.6250   28.8020   49.8110 C   0  0  0  0  0  0  0  0  0  0  0  0
   37.1390   29.4570   51.0050 C   0  0  0  0  0  0  0  0  0  0  0  0
   37.3380   30.9150   50.9960 C   0  0  0  0  0  0  0  0  0  0  0  0
   36.5330   31.6410   49.9600 C   0  0  0  0  0  0  0  0  0  0  0  0
   36.5410   30.8570   48.6430 C   0  0  1  0  0  0  0  0  0  0  0  0
   34.5930   29.2120   48.3270 C   0  0  0  0  0  0  0  0  0  0  0  0
   34.0870   29.7000   47.1260 C   0  0  0  0  0  0  0  0  0  0  0  0
   32.8550   29.2350   46.6830 C   0  0  0  0  0  0  0  0  0  0  0  0
   32.2020   28.3260   47.4440 N   0  0  0  0  0  0  0  0  0  0  0  0
   32.7250   27.8770   48.6020 C   0  0  0  0  0  0  0  0  0  0  0  0
   33.9180   28.3230   49.0370 N   0  0  0  0  0  0  0  0  0  0  0  0
   37.8850   30.6360   48.3730 O   0  0  0  0  0  0  0  0  0  0  0  0
   39.0760   32.2690   47.3740 C   0  0  0  0  0  0  0  0  0  0  0  0
   38.4410   31.0460   47.1820 C   0  0  0  0  0  0  0  0  0  0  0  0
   38.4740   30.5000   45.9320 C   0  0  0  0  0  0  0  0  0  0  0  0
   39.1180   31.1420   44.8970 C   0  0  0  0  0  0  0  0  0  0  0  0
   39.2260   30.7140   43.6160 N   0  0  0  0  0  0  0  0  0  0  0  0
   39.9390   31.6430   42.9160 C   0  0  0  0  0  0  0  0  0  0  0  0
   40.2710   32.6650   43.8070 C   0  0  0  0  0  0  0  0  0  0  0  0
   39.7640   32.3700   45.0570 C   0  0  0  0  0  0  0  0  0  0  0  0
   39.7290   32.9220   46.3230 C   0  0  0  0  0  0  0  0  0  0  0  0
   35.9921   27.9652   50.1416 H   0  0  0  0  0  0  0  0  0  0  0  0
   37.5218   28.5192   49.2402 H   0  0  0  0  0  0  0  0  0  0  0  0
   36.4364   29.2338   51.8214 H   0  0  0  0  0  0  0  0  0  0  0  0
   38.1580   29.0550   51.1051 H   0  0  0  0  0  0  0  0  0  0  0  0
   37.0598   31.3068   51.9855 H   0  0  0  0  0  0  0  0  0  0  0  0
   38.3963   31.0871   50.7503 H   0  0  0  0  0  0  0  0  0  0  0  0
   35.4969   31.7482   50.3135 H   0  0  0  0  0  0  0  0  0  0  0  0
   36.9750   32.6340   49.7909 H   0  0  0  0  0  0  0  0  0  0  0  0
   36.0537   31.3700   47.8007 H   0  0  0  0  0  0  0  0  0  0  0  0
   34.6514   30.4394   46.5389 H   0  0  0  0  0  0  0  0  0  0  0  0
   32.4217   29.5961   45.7386 H   0  0  0  0  0  0  0  0  0  0  0  0
   32.1705   27.1376   49.1985 H   0  0  0  0  0  0  0  0  0  0  0  0
   39.0644   32.7317   48.3719 H   0  0  0  0  0  0  0  0  0  0  0  0
   37.9799   29.5345   45.7482 H   0  0  0  0  0  0  0  0  0  0  0  0
   38.8372   29.8390   43.2364 H   0  0  0  0  0  0  0  0  0  0  0  0
   40.2029   31.5955   41.8492 H   0  0  0  0  0  0  0  0  0  0  0  0
   40.8477   33.5665   43.5525 H   0  0  0  0  0  0  0  0  0  0  0  0
   40.2213   33.8883   46.5072 H   0  0  0  0  0  0  0  0  0  0  0  0
  1  2  1  0
  2  3  1  0
  4  3  1  0
  5  4  1  0
  6  1  1  0
  6  5  1  0
  7  1  1  0
  7 12  1  0
  8  7  2  0
  9  8  1  0
  9 10  2  0
 10 11  1  0
 11 12  2  0
 13  6  1  0
 15 14  2  0
 15 13  1  0
 16 15  1  0
 17 21  1  0
 17 16  2  0
 18 17  1  0
 19 18  1  0
 19 20  2  0
 20 21  1  0
 21 22  2  0
 22 14  1  0
  2 23  1  0
  2 24  1  0
  3 25  1  0
  3 26  1  0
  4 27  1  0
  4 28  1  0
  5 29  1  0
  5 30  1  0
  6 31  1  6
  8 32  1  0
  9 33  1  0
 11 34  1  0
 14 35  1  0
 16 36  1  0
 18 37  1  0
 19 38  1  0
 20 39  1  0
 22 40  1  0
M  ISO  8  23  13  24  13  25  13  26  13  27  13  28  13  29  13  30  13
M  ISO  8  31  13  32  14  33  14  34  14  35  14  36  14  37   9  38  14
M  ISO  2  39  14  40  14
M  END
>  <minimizedAffinity>  (1) 
-6.40615034

>  <minimizedRMSD>  (1) 
0.925909877

$$$$
