
     RDKit          3D

 42 46  0  0  1  0  0  0  0  0999 V2000
   33.0420   27.6490   47.7890 C   0  0  0  0  0  0  0  0  0  0  0  0
   32.4730   26.5760   48.1570 O   0  0  0  0  0  0  0  0  0  0  0  0
   35.7240   29.1230   49.6370 C   0  0  0  0  0  0  0  0  0  0  0  0
   34.6760   29.5100   50.4420 C   0  0  0  0  0  0  0  0  0  0  0  0
   33.4970   29.0120   49.8670 C   0  0  0  0  0  0  0  0  0  0  0  0
   33.9110   28.3470   48.7310 C   0  0  0  0  0  0  0  0  0  0  0  0
   35.2210   28.4380   48.6380 O   0  0  0  0  0  0  0  0  0  0  0  0
   37.1030   29.4710   49.9380 C   0  0  0  0  0  0  0  0  0  0  0  0
   37.7000   28.8560   50.8340 O   0  0  0  0  0  0  0  0  0  0  0  0
   37.6960   30.5240   49.1630 C   0  0  0  0  0  0  0  0  0  0  0  0
   38.0110   31.6940   49.8340 C   0  0  0  0  0  0  0  0  0  0  0  0
   38.5890   32.7400   49.1060 C   0  0  0  0  0  0  0  0  0  0  0  0
   38.8130   32.5500   47.7600 N   0  0  0  0  0  0  0  0  0  0  0  0
   38.4940   31.4050   47.1520 C   0  0  0  0  0  0  0  0  0  0  0  0
   37.9410   30.3960   47.8420 N   0  0  0  0  0  0  0  0  0  0  0  0
   32.8270   28.1800   46.4130 C   0  0  1  0  0  0  0  0  0  0  0  0
   32.3250   27.0390   45.4410 C   0  0  0  0  0  0  0  0  0  0  0  0
   31.5100   28.2050   45.7710 C   0  0  1  0  0  0  0  0  0  0  0  0
   29.5210   26.8790   46.4200 C   0  0  0  0  0  0  0  0  0  0  0  0
   30.2320   28.0810   46.5210 C   0  0  0  0  0  0  0  0  0  0  0  0
   29.6440   29.0190   47.3420 C   0  0  0  0  0  0  0  0  0  0  0  0
   28.4640   28.7700   47.9920 C   0  0  0  0  0  0  0  0  0  0  0  0
   27.7760   29.5890   48.8210 N   0  0  0  0  0  0  0  0  0  0  0  0
   26.6630   28.9680   49.2530 C   0  0  0  0  0  0  0  0  0  0  0  0
   26.6570   27.7200   48.6730 C   0  0  0  0  0  0  0  0  0  0  0  0
   27.7930   27.5950   47.8770 C   0  0  0  0  0  0  0  0  0  0  0  0
   28.3340   26.6380   47.0780 C   0  0  0  0  0  0  0  0  0  0  0  0
   34.7496   30.1013   51.3666 H   0  0  0  0  0  0  0  0  0  0  0  0
   32.4685   29.1265   50.2399 H   0  0  0  0  0  0  0  0  0  0  0  0
   37.8121   31.7982   50.9108 H   0  0  0  0  0  0  0  0  0  0  0  0
   38.8572   33.6881   49.5951 H   0  0  0  0  0  0  0  0  0  0  0  0
   38.6864   31.2878   46.0753 H   0  0  0  0  0  0  0  0  0  0  0  0
   33.6060   28.9509   46.5073 H   0  0  0  0  0  0  0  0  0  0  0  0
   32.0628   26.0464   45.8359 H   0  0  0  0  0  0  0  0  0  0  0  0
   32.6929   26.5644   44.5193 H   0  0  0  0  0  0  0  0  0  0  0  0
   31.0028   28.9682   45.1626 H   0  0  0  0  0  0  0  0  0  0  0  0
   29.9321   26.0837   45.7808 H   0  0  0  0  0  0  0  0  0  0  0  0
   30.1353   29.9936   47.4790 H   0  0  0  0  0  0  0  0  0  0  0  0
   28.0612   30.5437   49.0820 H   0  0  0  0  0  0  0  0  0  0  0  0
   25.9053   29.3782   49.9368 H   0  0  0  0  0  0  0  0  0  0  0  0
   25.8843   26.9500   48.8144 H   0  0  0  0  0  0  0  0  0  0  0  0
   27.8245   25.6707   46.9563 H   0  0  0  0  0  0  0  0  0  0  0  0
  1  2  2  0
  1  6  1  0
  3  8  1  0
  3  4  2  0
  5  4  1  0
  6  5  2  0
  7  6  1  0
  7  3  1  0
  8  9  2  0
 10 11  2  0
 10  8  1  0
 12 11  1  0
 13 12  2  0
 14 13  1  0
 14 15  2  0
 15 10  1  0
 16  1  1  0
 17 18  1  0
 17 16  1  0
 18 16  1  0
 18 20  1  0
 19 20  2  0
 19 27  1  0
 20 21  1  0
 21 22  2  0
 22 23  1  0
 23 24  1  0
 25 24  2  0
 26 22  1  0
 26 25  1  0
 27 26  2  0
  4 28  1  0
  5 29  1  0
 11 30  1  0
 12 31  1  0
 14 32  1  0
 16 33  1  6
 17 34  1  0
 17 35  1  0
 18 36  1  6
 19 37  1  0
 21 38  1  0
 23 39  1  0
 24 40  1  0
 25 41  1  0
 27 42  1  0
M  ISO  8  28  14  29  14  30  14  31  14  32  14  33  13  34  13  35  13
M  ISO  7  36  13  37  14  38  14  39   9  40  14  41  14  42  14
M  END
>  <minimizedAffinity>  (1) 
-6.34042358

>  <minimizedRMSD>  (1) 
2.10861421

$$$$
