
     RDKit          3D

 52 57  0  0  1  0  0  0  0  0999 V2000
   33.0440   28.6580   46.5820 N   0  0  0  0  0  0  0  0  0  0  0  0
   33.5600   28.0450   47.7590 C   0  0  0  0  0  0  0  0  0  0  0  0
   34.6910   28.7340   48.4250 C   0  0  0  0  0  0  0  0  0  0  0  0
   35.6920   29.3560   47.5570 C   0  0  0  0  0  0  0  0  0  0  0  0
   35.0700   29.9360   46.2740 C   0  0  0  0  0  0  0  0  0  0  0  0
   34.1510   28.8490   45.6880 C   0  0  0  0  0  0  0  0  0  0  0  0
   36.0750   30.8510   49.4620 C   0  0  0  0  0  0  0  0  0  0  0  0
   36.4270   30.4880   48.1720 C   0  0  0  0  0  0  0  0  0  0  0  0
   37.3880   31.1250   47.4320 C   0  0  0  0  0  0  0  0  0  0  0  0
   38.0450   32.2020   48.0200 C   0  0  0  0  0  0  0  0  0  0  0  0
   37.7010   32.5710   49.3000 C   0  0  0  0  0  0  0  0  0  0  0  0
   36.7250   31.9230   50.0520 C   0  0  0  0  0  0  0  0  0  0  0  0
   38.4660   33.6690   49.7130 O   0  0  0  0  0  0  0  0  0  0  0  0
   39.5170   33.7530   48.7610 C   0  0  0  0  0  0  0  0  0  0  0  0
   39.0490   33.0850   47.6170 O   0  0  0  0  0  0  0  0  0  0  0  0
   31.6890   29.0270   46.3050 C   0  0  0  0  0  0  0  0  0  0  0  0
   31.2330   29.6320   45.1410 C   0  0  0  0  0  0  0  0  0  0  0  0
   29.8690   29.9120   45.0600 C   0  0  0  0  0  0  0  0  0  0  0  0
   29.0660   29.5860   46.1060 N   0  0  0  0  0  0  0  0  0  0  0  0
   29.5390   28.9990   47.2200 C   0  0  0  0  0  0  0  0  0  0  0  0
   30.8400   28.7270   47.3100 N   0  0  0  0  0  0  0  0  0  0  0  0
   27.2910   29.0210   48.2110 C   0  0  0  0  0  0  0  0  0  0  0  0
   28.6250   28.6720   48.3110 C   0  0  0  0  0  0  0  0  0  0  0  0
   29.1200   28.0190   49.4220 C   0  0  0  0  0  0  0  0  0  0  0  0
   28.2960   27.6920   50.4710 C   0  0  0  0  0  0  0  0  0  0  0  0
   28.5240   27.0710   51.6380 N   0  0  0  0  0  0  0  0  0  0  0  0
   27.3920   26.9730   52.3590 C   0  0  0  0  0  0  0  0  0  0  0  0
   26.4100   27.5770   51.5740 C   0  0  0  0  0  0  0  0  0  0  0  0
   26.9680   28.0310   50.3870 C   0  0  0  0  0  0  0  0  0  0  0  0
   26.4530   28.6880   49.2780 C   0  0  0  0  0  0  0  0  0  0  0  0
   32.7377   27.9739   48.4862 H   0  0  0  0  0  0  0  0  0  0  0  0
   33.9644   27.0769   47.4284 H   0  0  0  0  0  0  0  0  0  0  0  0
   34.2690   29.5235   49.0642 H   0  0  0  0  0  0  0  0  0  0  0  0
   35.2316   27.9419   48.9639 H   0  0  0  0  0  0  0  0  0  0  0  0
   36.3818   28.5235   47.3542 H   0  0  0  0  0  0  0  0  0  0  0  0
   34.4855   30.8371   46.5115 H   0  0  0  0  0  0  0  0  0  0  0  0
   35.8507   30.2204   45.5532 H   0  0  0  0  0  0  0  0  0  0  0  0
   33.7812   29.1676   44.7022 H   0  0  0  0  0  0  0  0  0  0  0  0
   34.7078   27.9076   45.5710 H   0  0  0  0  0  0  0  0  0  0  0  0
   35.2950   30.2991   50.0069 H   0  0  0  0  0  0  0  0  0  0  0  0
   37.6315   30.7973   46.4106 H   0  0  0  0  0  0  0  0  0  0  0  0
   36.4797   32.2489   51.0736 H   0  0  0  0  0  0  0  0  0  0  0  0
   39.7391   34.8046   48.5269 H   0  0  0  0  0  0  0  0  0  0  0  0
   40.4460   33.3035   49.1416 H   0  0  0  0  0  0  0  0  0  0  0  0
   31.9188   29.8800   44.3175 H   0  0  0  0  0  0  0  0  0  0  0  0
   29.4497   30.3898   44.1623 H   0  0  0  0  0  0  0  0  0  0  0  0
   26.9034   29.5421   47.3232 H   0  0  0  0  0  0  0  0  0  0  0  0
   30.1875   27.7574   49.4677 H   0  0  0  0  0  0  0  0  0  0  0  0
   29.4423   26.7167   51.9415 H   0  0  0  0  0  0  0  0  0  0  0  0
   27.2681   26.5158   53.3518 H   0  0  0  0  0  0  0  0  0  0  0  0
   25.3511   27.6784   51.8539 H   0  0  0  0  0  0  0  0  0  0  0  0
   25.3845   28.9466   49.2393 H   0  0  0  0  0  0  0  0  0  0  0  0
  1  2  1  0
  2  3  1  0
  4  8  1  0
  4  3  1  0
  5  4  1  0
  6  5  1  0
  6  1  1  0
  7 12  2  0
  8  7  1  0
  9 10  1  0
  9  8  2  0
 10 11  2  0
 11 13  1  0
 11 12  1  0
 14 13  1  0
 15 10  1  0
 15 14  1  0
 16  1  1  0
 16 21  1  0
 17 16  2  0
 18 17  1  0
 18 19  2  0
 19 20  1  0
 20 21  2  0
 20 23  1  0
 22 23  2  0
 22 30  1  0
 23 24  1  0
 24 25  2  0
 25 26  1  0
 26 27  1  0
 28 27  2  0
 29 25  1  0
 29 28  1  0
 30 29  2  0
  2 31  1  0
  2 32  1  0
  3 33  1  0
  3 34  1  0
  4 35  1  0
  5 36  1  0
  5 37  1  0
  6 38  1  0
  6 39  1  0
  7 40  1  0
  9 41  1  0
 12 42  1  0
 14 43  1  0
 14 44  1  0
 17 45  1  0
 18 46  1  0
 22 47  1  0
 24 48  1  0
 26 49  1  0
 27 50  1  0
 28 51  1  0
 30 52  1  0
M  ISO  8  31  13  32  13  33  13  34  13  35  13  36  13  37  13  38  13
M  ISO  8  39  13  40  14  41  14  42  14  43  13  44  13  45  14  46  14
M  ISO  6  47  14  48  14  49   9  50  14  51  14  52  14
M  END
>  <minimizedAffinity>  (1) 
-7.90235281

>  <minimizedRMSD>  (1) 
1.08690667

$$$$
