
     RDKit          3D

 51 56  0  0  1  0  0  0  0  0999 V2000
   39.7750   31.7570   42.3500 N   0  0  0  0  0  0  0  0  0  0  0  0
   39.6420   33.2160   42.2210 C   0  0  1  0  0  0  0  0  0  0  0  0
   38.4120   33.5150   41.4960 C   0  0  0  0  0  0  0  0  0  0  0  0
   38.5360   33.0180   40.1860 O   0  0  0  0  0  0  0  0  0  0  0  0
   38.8340   31.6940   40.0900 C   0  0  0  0  0  0  0  0  0  0  0  0
   39.9470   31.2540   41.0050 C   0  0  2  0  0  0  0  0  0  0  0  0
   39.7130   29.0370   39.9740 C   0  0  0  0  0  0  0  0  0  0  0  0
   39.7270   29.7670   41.1630 C   0  0  0  0  0  0  0  0  0  0  0  0
   39.5460   29.1100   42.3630 C   0  0  0  0  0  0  0  0  0  0  0  0
   39.3550   27.7370   42.3430 C   0  0  0  0  0  0  0  0  0  0  0  0
   39.1600   26.8740   43.3380 N   0  0  0  0  0  0  0  0  0  0  0  0
   39.0200   25.6280   42.8450 C   0  0  0  0  0  0  0  0  0  0  0  0
   39.1330   25.7030   41.4770 C   0  0  0  0  0  0  0  0  0  0  0  0
   39.3430   27.0300   41.1430 C   0  0  0  0  0  0  0  0  0  0  0  0
   39.5230   27.6660   39.9320 C   0  0  0  0  0  0  0  0  0  0  0  0
   39.5910   33.6720   43.5690 O   0  0  0  0  0  0  0  0  0  0  0  0
   36.2300   30.2500   47.0160 C   0  0  0  0  0  0  0  0  0  0  0  0
   37.0580   30.7860   48.0000 C   0  0  0  0  0  0  0  0  0  0  0  0
   38.0600   31.6900   47.6770 C   0  0  0  0  0  0  0  0  0  0  0  0
   38.1860   32.0220   46.3350 C   0  0  0  0  0  0  0  0  0  0  0  0
   39.0920   32.8820   45.7760 N   0  0  0  0  0  0  0  0  0  0  0  0
   38.8380   32.8860   44.4580 C   0  0  0  0  0  0  0  0  0  0  0  0
   37.8360   32.0830   44.1760 N   0  0  0  0  0  0  0  0  0  0  0  0
   37.3920   31.5170   45.3300 C   0  0  0  0  0  0  0  0  0  0  0  0
   36.3860   30.6060   45.6840 C   0  0  0  0  0  0  0  0  0  0  0  0
   37.3860   30.0560   51.6640 C   0  0  0  0  0  0  0  0  0  0  0  0
   37.7140   30.5310   50.4070 C   0  0  0  0  0  0  0  0  0  0  0  0
   36.8210   30.3400   49.3590 C   0  0  0  0  0  0  0  0  0  0  0  0
   35.6590   29.6840   49.6370 N   0  0  0  0  0  0  0  0  0  0  0  0
   35.3450   29.2250   50.8610 C   0  0  0  0  0  0  0  0  0  0  0  0
   36.2070   29.4140   51.8590 N   0  0  0  0  0  0  0  0  0  0  0  0
   40.5944   31.5217   42.9280 H   0  0  0  0  0  0  0  0  0  0  0  0
   40.4585   33.6994   41.6646 H   0  0  0  0  0  0  0  0  0  0  0  0
   37.5593   33.0333   41.9968 H   0  0  0  0  0  0  0  0  0  0  0  0
   38.2417   34.6015   41.4732 H   0  0  0  0  0  0  0  0  0  0  0  0
   37.9315   31.1163   40.3388 H   0  0  0  0  0  0  0  0  0  0  0  0
   39.1766   31.5163   39.0599 H   0  0  0  0  0  0  0  0  0  0  0  0
   40.9122   31.5849   40.5940 H   0  0  0  0  0  0  0  0  0  0  0  0
   39.8597   29.5755   39.0261 H   0  0  0  0  0  0  0  0  0  0  0  0
   39.5531   29.6631   43.3138 H   0  0  0  0  0  0  0  0  0  0  0  0
   39.1218   27.1223   44.3369 H   0  0  0  0  0  0  0  0  0  0  0  0
   38.8463   24.7141   43.4321 H   0  0  0  0  0  0  0  0  0  0  0  0
   39.0682   24.8597   40.7737 H   0  0  0  0  0  0  0  0  0  0  0  0
   39.5159   27.1122   38.9816 H   0  0  0  0  0  0  0  0  0  0  0  0
   35.4427   29.5356   47.2986 H   0  0  0  0  0  0  0  0  0  0  0  0
   38.7200   32.1210   48.4443 H   0  0  0  0  0  0  0  0  0  0  0  0
   39.8215   33.4180   46.2674 H   0  0  0  0  0  0  0  0  0  0  0  0
   35.7275   30.1782   44.9137 H   0  0  0  0  0  0  0  0  0  0  0  0
   38.0807   30.1987   52.5049 H   0  0  0  0  0  0  0  0  0  0  0  0
   38.6679   31.0524   50.2391 H   0  0  0  0  0  0  0  0  0  0  0  0
   34.3929   28.7025   51.0354 H   0  0  0  0  0  0  0  0  0  0  0  0
  2  1  1  0
  2 16  1  0
  3  2  1  0
  4  3  1  0
  5  4  1  0
  5  6  1  0
  6  8  1  0
  6  1  1  0
  7  8  2  0
  8  9  1  0
 10  9  2  0
 10 11  1  0
 12 11  1  0
 13 12  2  0
 14 13  1  0
 14 10  1  0
 15  7  1  0
 15 14  2  0
 16 22  1  0
 17 18  2  0
 18 28  1  0
 19 18  1  0
 20 19  2  0
 21 20  1  0
 22 21  1  0
 23 22  2  0
 23 24  1  0
 24 25  2  0
 24 20  1  0
 25 17  1  0
 26 31  2  0
 27 26  1  0
 28 29  1  0
 28 27  2  0
 29 30  2  0
 30 31  1  0
  1 32  1  0
  2 33  1  6
  3 34  1  0
  3 35  1  0
  5 36  1  0
  5 37  1  0
  6 38  1  6
  7 39  1  0
  9 40  1  0
 11 41  1  0
 12 42  1  0
 13 43  1  0
 15 44  1  0
 17 45  1  0
 19 46  1  0
 21 47  1  0
 25 48  1  0
 26 49  1  0
 27 50  1  0
 30 51  1  0
M  ISO  8  32   5  33  13  34  13  35  13  36  13  37  13  38  13  39  14
M  ISO  8  40  14  41   9  42  14  43  14  44  14  45  14  46  14  47   9
M  ISO  4  48  14  49  14  50  14  51  14
M  END
>  <minimizedAffinity>  (1) 
-6.42097187

>  <minimizedRMSD>  (1) 
0.76709491

$$$$
