
     RDKit          3D

 46 51  0  0  0  0  0  0  0  0999 V2000
   34.2190   29.3280   49.8580 C   0  0  0  0  0  0  0  0  0  0  0  0
   33.6280   29.6340   50.9120 O   0  0  0  0  0  0  0  0  0  0  0  0
   31.7660   27.2260   48.1710 C   0  0  0  0  0  0  0  0  0  0  0  0
   32.3050   27.0790   46.9020 C   0  0  0  0  0  0  0  0  0  0  0  0
   33.4980   27.6830   46.6020 C   0  0  0  0  0  0  0  0  0  0  0  0
   34.1110   28.4050   47.5520 N   0  0  0  0  0  0  0  0  0  0  0  0
   33.5760   28.5490   48.8040 C   0  0  0  0  0  0  0  0  0  0  0  0
   32.3990   27.9520   49.1020 N   0  0  0  0  0  0  0  0  0  0  0  0
   34.2280   26.3510   44.7040 C   0  0  0  0  0  0  0  0  0  0  0  0
   34.1460   27.5900   45.3000 C   0  0  0  0  0  0  0  0  0  0  0  0
   34.6870   28.6360   44.6110 C   0  0  0  0  0  0  0  0  0  0  0  0
   35.2960   28.5370   43.3850 C   0  0  0  0  0  0  0  0  0  0  0  0
   35.8690   29.4610   42.5890 N   0  0  0  0  0  0  0  0  0  0  0  0
   36.3250   28.8500   41.4830 C   0  0  0  0  0  0  0  0  0  0  0  0
   36.0260   27.5070   41.5930 C   0  0  0  0  0  0  0  0  0  0  0  0
   35.3700   27.2960   42.8020 C   0  0  0  0  0  0  0  0  0  0  0  0
   34.8370   26.2080   43.4610 C   0  0  0  0  0  0  0  0  0  0  0  0
   35.5940   29.7670   49.6870 C   0  0  0  0  0  0  0  0  0  0  0  0
   36.5650   29.6840   50.6870 C   0  0  0  0  0  0  0  0  0  0  0  0
   37.6960   30.2150   50.0670 C   0  0  0  0  0  0  0  0  0  0  0  0
   37.3770   30.5800   48.7830 C   0  0  0  0  0  0  0  0  0  0  0  0
   36.1100   30.2930   48.6020 O   0  0  0  0  0  0  0  0  0  0  0  0
   38.7540   32.4490   48.0020 C   0  0  0  0  0  0  0  0  0  0  0  0
   38.2630   31.1740   47.7930 C   0  0  0  0  0  0  0  0  0  0  0  0
   38.5970   30.4380   46.6550 C   0  0  0  0  0  0  0  0  0  0  0  0
   39.4430   30.9910   45.6990 C   0  0  0  0  0  0  0  0  0  0  0  0
   39.9370   30.5460   44.5280 N   0  0  0  0  0  0  0  0  0  0  0  0
   40.6990   31.5140   44.0430 N   0  0  0  0  0  0  0  0  0  0  0  0
   40.7050   32.5780   44.8840 C   0  0  0  0  0  0  0  0  0  0  0  0
   39.8930   32.2580   45.9680 C   0  0  0  0  0  0  0  0  0  0  0  0
   39.6090   33.0370   47.0620 C   0  0  0  0  0  0  0  0  0  0  0  0
   30.8091   26.7417   48.4157 H   0  0  0  0  0  0  0  0  0  0  0  0
   31.7792   26.4823   46.1421 H   0  0  0  0  0  0  0  0  0  0  0  0
   33.8100   25.4701   45.2132 H   0  0  0  0  0  0  0  0  0  0  0  0
   34.6309   29.6329   45.0725 H   0  0  0  0  0  0  0  0  0  0  0  0
   35.9447   30.4675   42.7943 H   0  0  0  0  0  0  0  0  0  0  0  0
   36.8432   29.3329   40.6414 H   0  0  0  0  0  0  0  0  0  0  0  0
   36.2661   26.7329   40.8493 H   0  0  0  0  0  0  0  0  0  0  0  0
   34.8942   25.2123   42.9971 H   0  0  0  0  0  0  0  0  0  0  0  0
   36.4631   29.2956   51.7111 H   0  0  0  0  0  0  0  0  0  0  0  0
   38.6864   30.3239   50.5331 H   0  0  0  0  0  0  0  0  0  0  0  0
   38.4722   33.0033   48.9094 H   0  0  0  0  0  0  0  0  0  0  0  0
   38.1928   29.4246   46.5146 H   0  0  0  0  0  0  0  0  0  0  0  0
   39.7569   29.6296   44.0936 H   0  0  0  0  0  0  0  0  0  0  0  0
   41.2516   33.5211   44.7363 H   0  0  0  0  0  0  0  0  0  0  0  0
   40.0225   34.0482   47.1906 H   0  0  0  0  0  0  0  0  0  0  0  0
  1  2  2  0
  3  8  2  0
  4  3  1  0
  5  4  2  0
  5  6  1  0
  6  7  2  0
  7  8  1  0
  7  1  1  0
  9 10  2  0
 10  5  1  0
 11 10  1  0
 12 11  2  0
 13 12  1  0
 14 15  2  0
 14 13  1  0
 15 16  1  0
 16 12  1  0
 16 17  2  0
 17  9  1  0
 18  1  1  0
 18 19  2  0
 20 19  1  0
 21 20  2  0
 22 21  1  0
 22 18  1  0
 24 23  2  0
 24 21  1  0
 25 24  1  0
 26 30  1  0
 26 25  2  0
 27 26  1  0
 28 27  1  0
 28 29  2  0
 29 30  1  0
 30 31  2  0
 31 23  1  0
  3 32  1  0
  4 33  1  0
  9 34  1  0
 11 35  1  0
 13 36  1  0
 14 37  1  0
 15 38  1  0
 17 39  1  0
 19 40  1  0
 20 41  1  0
 23 42  1  0
 25 43  1  0
 27 44  1  0
 29 45  1  0
 31 46  1  0
M  ISO  8  32  14  33  14  34  14  35  14  36   9  37  14  38  14  39  14
M  ISO  7  40  14  41  14  42  14  43  14  44   9  45  14  46  14
M  END
>  <minimizedAffinity>  (1) 
-6.87847948

>  <minimizedRMSD>  (1) 
2.35107636

$$$$
