
     RDKit          3D

 44 47  0  0  1  0  0  0  0  0999 V2000
   36.3650   30.7010   49.0270 C   0  0  2  0  0  0  0  0  0  0  0  0
   37.3430   31.4820   49.8510 C   0  0  0  0  0  0  0  0  0  0  0  0
   38.1270   30.6230   50.8140 C   0  0  0  0  0  0  0  0  0  0  0  0
   37.1970   29.8220   51.7200 C   0  0  0  0  0  0  0  0  0  0  0  0
   35.9290   29.3670   51.0490 C   0  0  0  0  0  0  0  0  0  0  0  0
   36.1900   29.3060   49.5320 C   0  0  1  0  0  0  0  0  0  0  0  0
   36.7870   30.6460   47.6030 C   0  0  0  0  0  0  0  0  0  0  0  0
   38.1560   30.8400   47.3690 C   0  0  0  0  0  0  0  0  0  0  0  0
   38.5820   30.7880   46.0360 C   0  0  0  0  0  0  0  0  0  0  0  0
   37.6500   30.5520   45.0520 N   0  0  0  0  0  0  0  0  0  0  0  0
   36.3210   30.3670   45.3360 C   0  0  0  0  0  0  0  0  0  0  0  0
   35.9120   30.4180   46.6170 N   0  0  0  0  0  0  0  0  0  0  0  0
   33.8830   28.3580   49.0310 C   0  0  0  0  0  0  0  0  0  0  0  0
   33.1080   28.9400   49.8800 O   0  0  0  0  0  0  0  0  0  0  0  0
   35.2690   28.5170   48.7990 N   0  0  0  0  0  0  0  0  0  0  0  0
   33.6230   26.3070   47.6360 C   0  0  0  0  0  0  0  0  0  0  0  0
   33.0750   27.4100   48.2520 C   0  0  0  0  0  0  0  0  0  0  0  0
   31.7260   27.5180   48.0550 C   0  0  0  0  0  0  0  0  0  0  0  0
   30.9580   26.6380   47.3260 C   0  0  0  0  0  0  0  0  0  0  0  0
   29.6540   26.5410   47.0040 N   0  0  0  0  0  0  0  0  0  0  0  0
   29.4230   25.4660   46.2520 C   0  0  0  0  0  0  0  0  0  0  0  0
   30.6110   24.8120   46.0590 C   0  0  0  0  0  0  0  0  0  0  0  0
   31.5480   25.5540   46.7310 C   0  0  0  0  0  0  0  0  0  0  0  0
   32.8950   25.3820   46.8850 C   0  0  0  0  0  0  0  0  0  0  0  0
   35.4033   31.2286   49.1094 H   0  0  0  0  0  0  0  0  0  0  0  0
   38.0502   31.9827   49.1733 H   0  0  0  0  0  0  0  0  0  0  0  0
   36.7655   32.2017   50.4497 H   0  0  0  0  0  0  0  0  0  0  0  0
   38.7582   29.9270   50.2421 H   0  0  0  0  0  0  0  0  0  0  0  0
   38.7460   31.2798   51.4428 H   0  0  0  0  0  0  0  0  0  0  0  0
   37.7397   28.9326   52.0728 H   0  0  0  0  0  0  0  0  0  0  0  0
   36.8996   30.4909   52.5410 H   0  0  0  0  0  0  0  0  0  0  0  0
   35.6470   28.3705   51.4198 H   0  0  0  0  0  0  0  0  0  0  0  0
   35.1082   30.0657   51.2682 H   0  0  0  0  0  0  0  0  0  0  0  0
   37.1244   28.7517   49.3598 H   0  0  0  0  0  0  0  0  0  0  0  0
   38.8613   31.0241   48.1928 H   0  0  0  0  0  0  0  0  0  0  0  0
   39.6420   30.9331   45.7805 H   0  0  0  0  0  0  0  0  0  0  0  0
   35.5991   30.1795   44.5275 H   0  0  0  0  0  0  0  0  0  0  0  0
   35.6563   27.9956   47.9996 H   0  0  0  0  0  0  0  0  0  0  0  0
   34.7056   26.1439   47.7426 H   0  0  0  0  0  0  0  0  0  0  0  0
   31.2140   28.3758   48.5154 H   0  0  0  0  0  0  0  0  0  0  0  0
   28.9297   27.2107   47.3005 H   0  0  0  0  0  0  0  0  0  0  0  0
   28.4454   25.1564   45.8540 H   0  0  0  0  0  0  0  0  0  0  0  0
   30.7779   23.8877   45.4864 H   0  0  0  0  0  0  0  0  0  0  0  0
   33.4012   24.5224   46.4214 H   0  0  0  0  0  0  0  0  0  0  0  0
  1  6  1  0
  1  2  1  0
  2  3  1  0
  3  4  1  0
  5  4  1  0
  6  5  1  0
  7  1  1  0
  8  7  2  0
  9  8  1  0
 10 11  1  0
 10  9  2  0
 11 12  2  0
 12  7  1  0
 13 14  2  0
 15 13  1  0
 15  6  1  0
 16 17  2  0
 17 13  1  0
 18 17  1  0
 19 18  2  0
 20 19  1  0
 21 20  1  0
 22 21  2  0
 22 23  1  0
 23 24  2  0
 23 19  1  0
 24 16  1  0
  1 25  1  6
  2 26  1  0
  2 27  1  0
  3 28  1  0
  3 29  1  0
  4 30  1  0
  4 31  1  0
  5 32  1  0
  5 33  1  0
  6 34  1  1
  8 35  1  0
  9 36  1  0
 11 37  1  0
 15 38  1  0
 16 39  1  0
 18 40  1  0
 20 41  1  0
 21 42  1  0
 22 43  1  0
 24 44  1  0
M  ISO  8  25  13  26  13  27  13  28  13  29  13  30  13  31  13  32  13
M  ISO  8  33  13  34  13  35  14  36  14  37  14  39  14  40  14  41   9
M  ISO  3  42  14  43  14  44  14
M  END
>  <minimizedAffinity>  (1) 
-6.51308632

>  <minimizedRMSD>  (1) 
1.04169893

$$$$
