
     RDKit          3D

 48 52  0  0  0  0  0  0  0  0999 V2000
   34.3480   27.8310   49.5800 Cl  0  0  0  0  0  0  0  0  0  0  0  0
   33.7290   28.6810   48.1900 C   0  0  0  0  0  0  0  0  0  0  0  0
   34.3290   29.8510   47.7940 C   0  0  0  0  0  0  0  0  0  0  0  0
   33.8650   30.5440   46.7020 C   0  0  0  0  0  0  0  0  0  0  0  0
   32.7770   30.0840   45.9700 C   0  0  0  0  0  0  0  0  0  0  0  0
   32.1690   28.9150   46.3560 C   0  0  0  0  0  0  0  0  0  0  0  0
   30.7940   28.2470   45.5060 Cl  0  0  0  0  0  0  0  0  0  0  0  0
   32.6610   28.2430   47.4580 C   0  0  0  0  0  0  0  0  0  0  0  0
   32.4130   30.4150   43.4980 C   0  0  0  0  0  0  0  0  0  0  0  0
   32.2840   30.8210   44.8100 C   0  0  0  0  0  0  0  0  0  0  0  0
   31.6300   32.0260   45.0110 C   0  0  0  0  0  0  0  0  0  0  0  0
   31.1230   32.8040   43.9870 C   0  0  0  0  0  0  0  0  0  0  0  0
   30.4710   33.9710   43.9110 N   0  0  0  0  0  0  0  0  0  0  0  0
   30.2120   34.2690   42.6260 C   0  0  0  0  0  0  0  0  0  0  0  0
   30.7100   33.2650   41.8220 C   0  0  0  0  0  0  0  0  0  0  0  0
   31.2750   32.3590   42.6870 C   0  0  0  0  0  0  0  0  0  0  0  0
   31.9230   31.1570   42.4440 C   0  0  0  0  0  0  0  0  0  0  0  0
   36.6570   30.6220   50.5220 C   0  0  0  0  0  0  0  0  0  0  0  0
   37.6630   31.3430   49.8900 C   0  0  0  0  0  0  0  0  0  0  0  0
   37.5240   31.5570   48.5150 C   0  0  0  0  0  0  0  0  0  0  0  0
   36.4280   31.0540   47.8850 N   0  0  0  0  0  0  0  0  0  0  0  0
   35.4770   30.3570   48.5490 C   0  0  0  0  0  0  0  0  0  0  0  0
   35.6100   30.1570   49.8470 N   0  0  0  0  0  0  0  0  0  0  0  0
   38.5120   32.3000   47.7330 C   0  0  0  0  0  0  0  0  0  0  0  0
   39.2110   33.3810   48.2150 C   0  0  0  0  0  0  0  0  0  0  0  0
   40.0560   33.8670   47.2660 N   0  0  0  0  0  0  0  0  0  0  0  0
   39.8830   33.0890   46.1940 C   0  0  0  0  0  0  0  0  0  0  0  0
   38.9580   32.1590   46.4920 N   0  0  0  0  0  0  0  0  0  0  0  0
   40.6130   31.8700   44.2150 C   0  0  0  0  0  0  0  0  0  0  0  0
   40.2030   30.8230   44.7420 O   0  0  0  0  0  0  0  0  0  0  0  0
   40.4850   33.1050   44.9060 N   0  0  0  0  0  0  0  0  0  0  0  0
   32.0040   26.9790   47.8780 C   0  0  0  0  0  0  0  0  0  0  0  0
   32.9380   25.9400   47.9370 F   0  0  0  0  0  0  0  0  0  0  0  0
   31.0930   26.5570   46.8970 F   0  0  0  0  0  0  0  0  0  0  0  0
   31.2950   27.1120   49.0470 F   0  0  0  0  0  0  0  0  0  0  0  0
   34.3628   31.4780   46.4024 H   0  0  0  0  0  0  0  0  0  0  0  0
   32.9252   29.4651   43.2849 H   0  0  0  0  0  0  0  0  0  0  0  0
   31.5073   32.3837   46.0439 H   0  0  0  0  0  0  0  0  0  0  0  0
   30.2069   34.5542   44.7179 H   0  0  0  0  0  0  0  0  0  0  0  0
   29.6873   35.1689   42.2725 H   0  0  0  0  0  0  0  0  0  0  0  0
   30.6646   33.2029   40.7247 H   0  0  0  0  0  0  0  0  0  0  0  0
   32.0459   30.7962   41.4122 H   0  0  0  0  0  0  0  0  0  0  0  0
   36.7283   30.4320   51.6031 H   0  0  0  0  0  0  0  0  0  0  0  0
   38.5301   31.7282   50.4466 H   0  0  0  0  0  0  0  0  0  0  0  0
   39.1022   33.7958   49.2280 H   0  0  0  0  0  0  0  0  0  0  0  0
   40.6964   34.6687   47.3555 H   0  0  0  0  0  0  0  0  0  0  0  0
   41.0737   31.8415   43.2166 H   0  0  0  0  0  0  0  0  0  0  0  0
   40.8181   33.9848   44.4867 H   0  0  0  0  0  0  0  0  0  0  0  0
  2  1  1  0
  3  2  2  0
  3 22  1  0
  4  3  1  0
  5  6  1  0
  5  4  2  0
  6  8  2  0
  7  6  1  0
  8 32  1  0
  8  2  1  0
  9 10  2  0
 10 11  1  0
 10  5  1  0
 12 11  2  0
 13 12  1  0
 14 13  1  0
 15 14  2  0
 15 16  1  0
 16 12  1  0
 17 16  2  0
 17  9  1  0
 19 18  2  0
 20 19  1  0
 21 20  2  0
 21 22  1  0
 22 23  2  0
 23 18  1  0
 24 25  2  0
 24 20  1  0
 26 25  1  0
 27 28  2  0
 27 26  1  0
 28 24  1  0
 29 30  2  0
 29 31  1  0
 31 27  1  0
 32 33  1  0
 32 35  1  0
 34 32  1  0
  4 36  1  0
  9 37  1  0
 11 38  1  0
 13 39  1  0
 14 40  1  0
 15 41  1  0
 17 42  1  0
 18 43  1  0
 19 44  1  0
 25 45  1  0
 26 46  1  0
 29 47  1  0
 31 48  1  0
M  END
>  <minimizedAffinity>  (1) 
-7.6042943

>  <minimizedRMSD>  (1) 
0.555452466

$$$$
