
     RDKit          3D

 49 54  0  0  0  0  0  0  0  0999 V2000
   38.5480   31.5390   46.1100 C   0  0  0  0  0  0  0  0  0  0  0  0
   38.9880   31.4920   44.8220 N   0  0  0  0  0  0  0  0  0  0  0  0
   39.8760   32.4110   44.3740 C   0  0  0  0  0  0  0  0  0  0  0  0
   40.3600   33.3950   45.1580 N   0  0  0  0  0  0  0  0  0  0  0  0
   39.9540   33.4790   46.4290 C   0  0  0  0  0  0  0  0  0  0  0  0
   40.4620   34.4800   47.2250 C   0  0  0  0  0  0  0  0  0  0  0  0
   40.0620   34.5800   48.5520 C   0  0  0  0  0  0  0  0  0  0  0  0
   39.1370   33.6510   49.0670 C   0  0  0  0  0  0  0  0  0  0  0  0
   38.6770   32.6820   48.2110 C   0  0  0  0  0  0  0  0  0  0  0  0
   39.0510   32.5580   46.9110 C   0  0  0  0  0  0  0  0  0  0  0  0
   36.2800   31.8860   48.9450 C   0  0  0  0  0  0  0  0  0  0  0  0
   37.6860   31.8980   48.9340 C   0  0  0  0  0  0  0  0  0  0  0  0
   38.3350   30.9840   49.7740 C   0  0  0  0  0  0  0  0  0  0  0  0
   37.6260   30.0980   50.5890 C   0  0  0  0  0  0  0  0  0  0  0  0
   37.9280   29.1380   51.4720 N   0  0  0  0  0  0  0  0  0  0  0  0
   36.8210   28.5800   51.9860 C   0  0  0  0  0  0  0  0  0  0  0  0
   35.7100   29.1970   51.4200 C   0  0  0  0  0  0  0  0  0  0  0  0
   36.2540   30.1270   50.5640 C   0  0  0  0  0  0  0  0  0  0  0  0
   35.5920   31.0150   49.7480 C   0  0  0  0  0  0  0  0  0  0  0  0
   37.4260   30.3930   46.8380 S   0  0  0  0  0  0  0  0  0  0  0  0
   34.9890   28.9530   47.5990 F   0  0  0  0  0  0  0  0  0  0  0  0
   34.8950   29.4420   46.3120 C   0  0  0  0  0  0  0  0  0  0  0  0
   33.7560   29.2270   45.5600 C   0  0  0  0  0  0  0  0  0  0  0  0
   33.7060   29.7460   44.2540 C   0  0  0  0  0  0  0  0  0  0  0  0
   34.7810   30.4620   43.7300 C   0  0  0  0  0  0  0  0  0  0  0  0
   35.8800   30.6300   44.5470 C   0  0  0  0  0  0  0  0  0  0  0  0
   35.9690   30.1390   45.8310 C   0  0  0  0  0  0  0  0  0  0  0  0
   32.8800   27.1110   46.1640 C   0  0  0  0  0  0  0  0  0  0  0  0
   32.6960   28.4910   46.1540 C   0  0  0  0  0  0  0  0  0  0  0  0
   31.5250   28.9700   46.7110 C   0  0  0  0  0  0  0  0  0  0  0  0
   30.6300   28.0960   47.2310 N   0  0  0  0  0  0  0  0  0  0  0  0
   30.8330   26.7920   47.2260 C   0  0  0  0  0  0  0  0  0  0  0  0
   31.9620   26.2640   46.6920 N   0  0  0  0  0  0  0  0  0  0  0  0
   40.2157   32.3522   43.3294 H   0  0  0  0  0  0  0  0  0  0  0  0
   41.1836   35.1999   46.8115 H   0  0  0  0  0  0  0  0  0  0  0  0
   40.4641   35.3773   49.1943 H   0  0  0  0  0  0  0  0  0  0  0  0
   38.7974   33.7002   50.1121 H   0  0  0  0  0  0  0  0  0  0  0  0
   35.7257   32.5845   48.3009 H   0  0  0  0  0  0  0  0  0  0  0  0
   39.4346   30.9632   49.7925 H   0  0  0  0  0  0  0  0  0  0  0  0
   38.8878   28.8627   51.7247 H   0  0  0  0  0  0  0  0  0  0  0  0
   36.7962   27.7704   52.7302 H   0  0  0  0  0  0  0  0  0  0  0  0
   34.6468   28.9901   51.6117 H   0  0  0  0  0  0  0  0  0  0  0  0
   34.4921   31.0258   49.7402 H   0  0  0  0  0  0  0  0  0  0  0  0
   32.8083   29.5851   43.6389 H   0  0  0  0  0  0  0  0  0  0  0  0
   34.7543   30.8746   42.7107 H   0  0  0  0  0  0  0  0  0  0  0  0
   36.7383   31.1907   44.1484 H   0  0  0  0  0  0  0  0  0  0  0  0
   33.8004   26.6940   45.7293 H   0  0  0  0  0  0  0  0  0  0  0  0
   31.3218   30.0509   46.7318 H   0  0  0  0  0  0  0  0  0  0  0  0
   30.0754   26.1238   47.6613 H   0  0  0  0  0  0  0  0  0  0  0  0
  1 20  1  0
  1 10  1  0
  2  1  2  0
  3  2  1  0
  3  4  2  0
  4  5  1  0
  5 10  2  0
  5  6  1  0
  6  7  2  0
  7  8  1  0
  9 12  1  0
  9  8  2  0
 10  9  1  0
 11 19  2  0
 12 11  1  0
 12 13  2  0
 13 14  1  0
 14 15  1  0
 15 16  1  0
 17 16  2  0
 18 14  2  0
 18 17  1  0
 19 18  1  0
 22 21  1  0
 23 29  1  0
 23 22  2  0
 24 23  1  0
 25 24  2  0
 25 26  1  0
 26 27  2  0
 27 22  1  0
 27 20  1  0
 28 33  2  0
 29 28  1  0
 29 30  2  0
 30 31  1  0
 32 31  2  0
 33 32  1  0
  3 34  1  0
  6 35  1  0
  7 36  1  0
  8 37  1  0
 11 38  1  0
 13 39  1  0
 15 40  1  0
 16 41  1  0
 17 42  1  0
 19 43  1  0
 24 44  1  0
 25 45  1  0
 26 46  1  0
 28 47  1  0
 30 48  1  0
 32 49  1  0
M  ISO  8  34  14  35  14  36  14  37  14  38  14  39  14  40   9  41  14
M  ISO  8  42  14  43  14  44  14  45  14  46  14  47  14  48  14  49  14
M  END
>  <minimizedAffinity>  (1) 
-5.51011562

>  <minimizedRMSD>  (1) 
1.49542379

$$$$
