
     RDKit          3D

 47 51  0  0  0  0  0  0  0  0999 V2000
   38.3460   31.6360   49.0150 C   0  0  0  0  0  0  0  0  0  0  0  0
   38.4810   32.8940   49.5610 C   0  0  0  0  0  0  0  0  0  0  0  0
   39.1440   33.6840   48.6260 C   0  0  0  0  0  0  0  0  0  0  0  0
   39.3880   32.9170   47.5680 N   0  0  0  0  0  0  0  0  0  0  0  0
   38.9190   31.7440   47.8160 N   0  0  0  0  0  0  0  0  0  0  0  0
   40.0710   33.2850   46.3590 C   0  0  0  0  0  0  0  0  0  0  0  0
   40.3630   32.0780   45.5420 C   0  0  0  0  0  0  0  0  0  0  0  0
   38.8920   30.2890   44.3400 C   0  0  0  0  0  0  0  0  0  0  0  0
   39.2480   31.5410   44.7710 C   0  0  0  0  0  0  0  0  0  0  0  0
   38.3300   32.5470   44.4340 C   0  0  0  0  0  0  0  0  0  0  0  0
   37.1580   32.3130   43.7300 C   0  0  0  0  0  0  0  0  0  0  0  0
   36.1370   33.0430   43.2840 N   0  0  0  0  0  0  0  0  0  0  0  0
   35.2410   32.2930   42.6430 C   0  0  0  0  0  0  0  0  0  0  0  0
   35.6700   30.9810   42.6470 C   0  0  0  0  0  0  0  0  0  0  0  0
   36.8660   31.0260   43.3310 C   0  0  0  0  0  0  0  0  0  0  0  0
   37.7390   30.0170   43.6410 C   0  0  0  0  0  0  0  0  0  0  0  0
   37.7070   30.7210   49.8220 O   0  0  0  0  0  0  0  0  0  0  0  0
   34.1780   28.9140   48.4140 C   0  0  0  0  0  0  0  0  0  0  0  0
   34.8770   28.3810   49.4560 C   0  0  0  0  0  0  0  0  0  0  0  0
   36.0350   28.9110   49.9730 C   0  0  0  0  0  0  0  0  0  0  0  0
   36.5630   30.0510   49.4380 C   0  0  0  0  0  0  0  0  0  0  0  0
   35.8570   30.6110   48.3680 C   0  0  0  0  0  0  0  0  0  0  0  0
   34.7200   30.0570   47.8900 N   0  0  0  0  0  0  0  0  0  0  0  0
   32.1440   27.4860   48.5670 C   0  0  0  0  0  0  0  0  0  0  0  0
   32.9750   28.3710   47.8640 C   0  0  0  0  0  0  0  0  0  0  0  0
   32.5880   28.7080   46.5890 C   0  0  0  0  0  0  0  0  0  0  0  0
   31.4400   28.1840   46.0630 N   0  0  0  0  0  0  0  0  0  0  0  0
   30.6700   27.3280   46.7910 C   0  0  0  0  0  0  0  0  0  0  0  0
   31.0120   26.9650   48.0590 N   0  0  0  0  0  0  0  0  0  0  0  0
   38.1297   33.2148   50.5528 H   0  0  0  0  0  0  0  0  0  0  0  0
   39.4151   34.7439   48.7410 H   0  0  0  0  0  0  0  0  0  0  0  0
   39.4366   33.9710   45.7785 H   0  0  0  0  0  0  0  0  0  0  0  0
   41.0192   33.7776   46.6202 H   0  0  0  0  0  0  0  0  0  0  0  0
   41.1664   32.3360   44.8363 H   0  0  0  0  0  0  0  0  0  0  0  0
   40.6308   31.2909   46.2623 H   0  0  0  0  0  0  0  0  0  0  0  0
   39.5689   29.4521   44.5668 H   0  0  0  0  0  0  0  0  0  0  0  0
   38.5520   33.5784   44.7453 H   0  0  0  0  0  0  0  0  0  0  0  0
   36.0507   34.0606   43.4179 H   0  0  0  0  0  0  0  0  0  0  0  0
   34.3106   32.6599   42.1851 H   0  0  0  0  0  0  0  0  0  0  0  0
   35.1732   30.1038   42.2069 H   0  0  0  0  0  0  0  0  0  0  0  0
   37.5172   28.9855   43.3298 H   0  0  0  0  0  0  0  0  0  0  0  0
   34.4864   27.4612   49.9158 H   0  0  0  0  0  0  0  0  0  0  0  0
   36.5366   28.4167   50.8180 H   0  0  0  0  0  0  0  0  0  0  0  0
   36.2388   31.5308   47.9009 H   0  0  0  0  0  0  0  0  0  0  0  0
   32.4336   27.2024   49.5896 H   0  0  0  0  0  0  0  0  0  0  0  0
   33.2015   29.3989   45.9921 H   0  0  0  0  0  0  0  0  0  0  0  0
   29.7509   26.9204   46.3449 H   0  0  0  0  0  0  0  0  0  0  0  0
  1  2  1  0
  1 17  1  0
  3  2  2  0
  4  5  1  0
  4  3  1  0
  5  1  2  0
  6  4  1  0
  7  6  1  0
  8  9  2  0
  9  7  1  0
 10  9  1  0
 11 10  2  0
 12 11  1  0
 13 14  2  0
 13 12  1  0
 14 15  1  0
 15 16  2  0
 15 11  1  0
 16  8  1  0
 18 19  2  0
 19 20  1  0
 21 17  1  0
 21 20  2  0
 22 21  1  0
 23 22  2  0
 23 18  1  0
 25 18  1  0
 25 24  2  0
 26 25  1  0
 27 26  2  0
 27 28  1  0
 28 29  2  0
 29 24  1  0
  2 30  1  0
  3 31  1  0
  6 32  1  0
  6 33  1  0
  7 34  1  0
  7 35  1  0
  8 36  1  0
 10 37  1  0
 12 38  1  0
 13 39  1  0
 14 40  1  0
 16 41  1  0
 19 42  1  0
 20 43  1  0
 22 44  1  0
 24 45  1  0
 26 46  1  0
 28 47  1  0
M  ISO  8  30  14  31  14  32   8  33   8  34   8  35   8  36  14  37  14
M  ISO  8  38   9  39  14  40  14  41  14  42  14  43  14  44  14  45  14
M  ISO  2  46  14  47  14
M  END
>  <minimizedAffinity>  (1) 
-6.83427525

>  <minimizedRMSD>  (1) 
1.32347953

$$$$
