
     RDKit          3D

 33 36  0  0  1  0  0  0  0  0999 V2000
   37.2790   31.6040   46.5980 C   0  0  2  0  0  0  0  0  0  0  0  0
   36.8420   30.3260   45.8830 C   0  0  0  0  0  0  0  0  0  0  0  0
   37.5940   31.4950   45.2430 C   0  0  2  0  0  0  0  0  0  0  0  0
   39.8830   31.4680   44.2990 C   0  0  0  0  0  0  0  0  0  0  0  0
   38.6090   30.9240   44.4050 C   0  0  0  0  0  0  0  0  0  0  0  0
   38.3520   29.7740   43.6430 C   0  0  0  0  0  0  0  0  0  0  0  0
   39.3030   29.1920   42.8200 C   0  0  0  0  0  0  0  0  0  0  0  0
   39.3040   28.1180   42.0100 N   0  0  0  0  0  0  0  0  0  0  0  0
   40.5090   27.9990   41.4320 C   0  0  0  0  0  0  0  0  0  0  0  0
   41.3230   29.0400   41.8860 C   0  0  0  0  0  0  0  0  0  0  0  0
   40.5270   29.7790   42.7650 C   0  0  0  0  0  0  0  0  0  0  0  0
   40.8360   30.8980   43.4830 C   0  0  0  0  0  0  0  0  0  0  0  0
   38.1070   31.3630   47.7920 C   0  0  0  0  0  0  0  0  0  0  0  0
   39.2970   31.7890   47.7060 O   0  0  0  0  0  0  0  0  0  0  0  0
   37.5330   30.3140   51.3180 C   0  0  0  0  0  0  0  0  0  0  0  0
   38.0310   30.9890   50.2210 C   0  0  0  0  0  0  0  0  0  0  0  0
   37.6110   30.6960   48.9550 C   0  0  0  0  0  0  0  0  0  0  0  0
   36.7040   29.7340   48.8330 N   0  0  0  0  0  0  0  0  0  0  0  0
   36.2060   29.0610   49.9130 C   0  0  0  0  0  0  0  0  0  0  0  0
   36.6120   29.3450   51.1380 N   0  0  0  0  0  0  0  0  0  0  0  0
   36.8684   32.4857   47.1118 H   0  0  0  0  0  0  0  0  0  0  0  0
   37.3468   29.3684   46.0782 H   0  0  0  0  0  0  0  0  0  0  0  0
   35.9063   29.7738   45.7111 H   0  0  0  0  0  0  0  0  0  0  0  0
   37.6019   32.3780   44.5870 H   0  0  0  0  0  0  0  0  0  0  0  0
   40.1354   32.3695   44.8766 H   0  0  0  0  0  0  0  0  0  0  0  0
   37.3539   29.3153   43.7014 H   0  0  0  0  0  0  0  0  0  0  0  0
   38.5050   27.4861   41.8574 H   0  0  0  0  0  0  0  0  0  0  0  0
   40.8060   27.2143   40.7207 H   0  0  0  0  0  0  0  0  0  0  0  0
   42.3695   29.2363   41.6097 H   0  0  0  0  0  0  0  0  0  0  0  0
   41.8398   31.3421   43.4107 H   0  0  0  0  0  0  0  0  0  0  0  0
   37.8843   30.5644   52.3299 H   0  0  0  0  0  0  0  0  0  0  0  0
   38.7816   31.7792   50.3700 H   0  0  0  0  0  0  0  0  0  0  0  0
   35.4559   28.2710   49.7603 H   0  0  0  0  0  0  0  0  0  0  0  0
  1 13  1  0
  2  1  1  0
  3  2  1  0
  3  1  1  0
  4  5  2  0
  5  3  1  0
  6  5  1  0
  7  6  2  0
  8  7  1  0
  9 10  2  0
  9  8  1  0
 10 11  1  0
 11  7  1  0
 11 12  2  0
 12  4  1  0
 13 17  1  0
 14 13  2  0
 16 15  2  0
 17 16  1  0
 18 17  2  0
 18 19  1  0
 19 20  2  0
 20 15  1  0
  1 21  1  6
  2 22  1  0
  2 23  1  0
  3 24  1  6
  4 25  1  0
  6 26  1  0
  8 27  1  0
  9 28  1  0
 10 29  1  0
 12 30  1  0
 15 31  1  0
 16 32  1  0
 19 33  1  0
M  ISO  8  21  13  22  13  23  13  24  13  25  14  26  14  27   9  28  14
M  ISO  5  29  14  30  14  31  14  32  14  33  14
M  END
>  <minimizedAffinity>  (1) 
-5.14641094

>  <minimizedRMSD>  (1) 
4.13128948

$$$$
