
     RDKit          3D

 33 36  0  0  0  0  0  0  0  0999 V2000
   38.3030   32.1250   49.0140 C   0  0  0  0  0  0  0  0  0  0  0  0
   38.8140   33.2800   49.5400 C   0  0  0  0  0  0  0  0  0  0  0  0
   39.5990   34.1720   48.8350 C   0  0  0  0  0  0  0  0  0  0  0  0
   39.8970   33.8950   47.5070 C   0  0  0  0  0  0  0  0  0  0  0  0
   39.3740   32.7330   47.0020 C   0  0  0  0  0  0  0  0  0  0  0  0
   38.6130   31.8880   47.7230 N   0  0  0  0  0  0  0  0  0  0  0  0
   39.2610   33.1860   44.5790 C   0  0  0  0  0  0  0  0  0  0  0  0
   39.6210   32.3380   45.6210 C   0  0  0  0  0  0  0  0  0  0  0  0
   40.2000   31.1590   45.2120 C   0  0  0  0  0  0  0  0  0  0  0  0
   40.4070   30.8400   43.8930 C   0  0  0  0  0  0  0  0  0  0  0  0
   40.9490   29.7530   43.2880 N   0  0  0  0  0  0  0  0  0  0  0  0
   40.9220   29.9280   41.9580 C   0  0  0  0  0  0  0  0  0  0  0  0
   40.3490   31.1560   41.6710 C   0  0  0  0  0  0  0  0  0  0  0  0
   40.0330   31.7120   42.8930 C   0  0  0  0  0  0  0  0  0  0  0  0
   39.4490   32.9090   43.2350 C   0  0  0  0  0  0  0  0  0  0  0  0
   37.8990   30.5660   50.9590 C   0  0  0  0  0  0  0  0  0  0  0  0
   37.4780   31.1920   49.7660 C   0  0  0  0  0  0  0  0  0  0  0  0
   36.2120   30.8910   49.2980 C   0  0  0  0  0  0  0  0  0  0  0  0
   35.4470   30.0110   50.0170 N   0  0  0  0  0  0  0  0  0  0  0  0
   35.8840   29.4390   51.1440 C   0  0  0  0  0  0  0  0  0  0  0  0
   37.0990   29.7090   51.6200 N   0  0  0  0  0  0  0  0  0  0  0  0
   38.5855   33.5132   50.5904 H   0  0  0  0  0  0  0  0  0  0  0  0
   39.9808   35.0844   49.3164 H   0  0  0  0  0  0  0  0  0  0  0  0
   40.5163   34.5685   46.8964 H   0  0  0  0  0  0  0  0  0  0  0  0
   38.7930   34.1463   44.8413 H   0  0  0  0  0  0  0  0  0  0  0  0
   40.5126   30.4361   45.9799 H   0  0  0  0  0  0  0  0  0  0  0  0
   41.3221   28.9245   43.7731 H   0  0  0  0  0  0  0  0  0  0  0  0
   41.2958   29.2099   41.2133 H   0  0  0  0  0  0  0  0  0  0  0  0
   40.1811   31.5957   40.6768 H   0  0  0  0  0  0  0  0  0  0  0  0
   39.1394   33.6275   42.4617 H   0  0  0  0  0  0  0  0  0  0  0  0
   38.9014   30.7830   51.3566 H   0  0  0  0  0  0  0  0  0  0  0  0
   35.8293   31.3463   48.3727 H   0  0  0  0  0  0  0  0  0  0  0  0
   35.2324   28.7369   51.6848 H   0  0  0  0  0  0  0  0  0  0  0  0
  1  2  2  0
  1 17  1  0
  3  2  1  0
  4  3  2  0
  5  4  1  0
  5  6  2  0
  6  1  1  0
  7  8  2  0
  8  5  1  0
  9  8  1  0
 10  9  2  0
 11 10  1  0
 12 11  1  0
 13 12  2  0
 13 14  1  0
 14 15  2  0
 14 10  1  0
 15  7  1  0
 16 21  2  0
 17 16  1  0
 18 17  2  0
 18 19  1  0
 19 20  2  0
 20 21  1  0
  2 22  1  0
  3 23  1  0
  4 24  1  0
  7 25  1  0
  9 26  1  0
 11 27  1  0
 12 28  1  0
 13 29  1  0
 15 30  1  0
 16 31  1  0
 18 32  1  0
 20 33  1  0
M  ISO  8  22  14  23  14  24  14  25  14  26  14  27   9  28  14  29  14
M  ISO  4  30  14  31  14  32  14  33  14
M  END
>  <minimizedAffinity>  (1) 
-7.24502277

>  <minimizedRMSD>  (1) 
0.87436235

$$$$
