
     RDKit          3D

 39 42  0  0  0  0  0  0  0  0999 V2000
   37.2850   30.1350   51.4070 C   0  0  0  0  0  0  0  0  0  0  0  0
   37.8190   30.7400   50.2580 C   0  0  0  0  0  0  0  0  0  0  0  0
   37.2040   30.5290   49.0450 C   0  0  0  0  0  0  0  0  0  0  0  0
   36.0930   29.7300   49.0310 N   0  0  0  0  0  0  0  0  0  0  0  0
   35.5960   29.1580   50.1440 C   0  0  0  0  0  0  0  0  0  0  0  0
   36.2060   29.3710   51.3320 N   0  0  0  0  0  0  0  0  0  0  0  0
   37.0400   30.6810   46.6350 C   0  0  0  0  0  0  0  0  0  0  0  0
   37.6650   31.1030   47.7850 C   0  0  0  0  0  0  0  0  0  0  0  0
   38.6660   32.0120   47.7430 C   0  0  0  0  0  0  0  0  0  0  0  0
   39.0970   32.5490   46.5550 C   0  0  0  0  0  0  0  0  0  0  0  0
   40.0480   33.4500   46.2210 N   0  0  0  0  0  0  0  0  0  0  0  0
   40.0940   33.6570   44.8960 C   0  0  0  0  0  0  0  0  0  0  0  0
   39.1240   32.8500   44.3380 C   0  0  0  0  0  0  0  0  0  0  0  0
   38.5030   32.1610   45.3590 C   0  0  0  0  0  0  0  0  0  0  0  0
   37.4760   31.2240   45.4330 C   0  0  0  0  0  0  0  0  0  0  0  0
   34.4810   28.3960   49.9210 O   0  0  0  0  0  0  0  0  0  0  0  0
   33.7500   28.6290   48.7170 C   0  0  0  0  0  0  0  0  0  0  0  0
   32.8480   27.4600   48.4220 C   0  0  0  0  0  0  0  0  0  0  0  0
   31.4130   27.8520   48.3850 C   0  0  0  0  0  0  0  0  0  0  0  0
   30.7020   27.7350   49.5530 C   0  0  0  0  0  0  0  0  0  0  0  0
   29.3650   28.0710   49.6290 C   0  0  0  0  0  0  0  0  0  0  0  0
   28.7410   28.5230   48.5400 N   0  0  0  0  0  0  0  0  0  0  0  0
   29.4410   28.6370   47.3960 C   0  0  0  0  0  0  0  0  0  0  0  0
   30.7430   28.3170   47.2940 N   0  0  0  0  0  0  0  0  0  0  0  0
   37.7689   30.2976   52.3814 H   0  0  0  0  0  0  0  0  0  0  0  0
   38.7158   31.3734   50.3263 H   0  0  0  0  0  0  0  0  0  0  0  0
   36.2260   29.9418   46.6658 H   0  0  0  0  0  0  0  0  0  0  0  0
   39.1453   32.3279   48.6813 H   0  0  0  0  0  0  0  0  0  0  0  0
   40.6624   33.9203   46.9008 H   0  0  0  0  0  0  0  0  0  0  0  0
   40.7723   34.3370   44.3597 H   0  0  0  0  0  0  0  0  0  0  0  0
   38.8873   32.7700   43.2667 H   0  0  0  0  0  0  0  0  0  0  0  0
   36.9896   30.9002   44.5010 H   0  0  0  0  0  0  0  0  0  0  0  0
   33.1411   29.5379   48.8317 H   0  0  0  0  0  0  0  0  0  0  0  0
   34.4588   28.7544   47.8852 H   0  0  0  0  0  0  0  0  0  0  0  0
   33.1248   27.0367   47.4452 H   0  0  0  0  0  0  0  0  0  0  0  0
   32.9759   26.7231   49.2286 H   0  0  0  0  0  0  0  0  0  0  0  0
   31.2117   27.3630   50.4540 H   0  0  0  0  0  0  0  0  0  0  0  0
   28.8195   27.9670   50.5785 H   0  0  0  0  0  0  0  0  0  0  0  0
   28.9225   29.0103   46.5006 H   0  0  0  0  0  0  0  0  0  0  0  0
  2  1  2  0
  3  2  1  0
  4  3  2  0
  4  5  1  0
  5  6  2  0
  6  1  1  0
  7  8  2  0
  8  3  1  0
  9  8  1  0
 10  9  2  0
 11 10  1  0
 12 11  1  0
 13 12  2  0
 13 14  1  0
 14 15  2  0
 14 10  1  0
 15  7  1  0
 16  5  1  0
 17 16  1  0
 18 17  1  0
 19 18  1  0
 19 20  2  0
 20 21  1  0
 22 21  2  0
 23 22  1  0
 24 23  2  0
 24 19  1  0
  1 25  1  0
  2 26  1  0
  7 27  1  0
  9 28  1  0
 11 29  1  0
 12 30  1  0
 13 31  1  0
 15 32  1  0
 17 33  1  0
 17 34  1  0
 18 35  1  0
 18 36  1  0
 20 37  1  0
 21 38  1  0
 23 39  1  0
M  ISO  8  25  14  26  14  27  14  28  14  29   9  30  14  31  14  32  14
M  ISO  7  33   8  34   8  35   8  36   8  37  14  38  14  39  14
M  END
>  <minimizedAffinity>  (1) 
-6.89447212

>  <minimizedRMSD>  (1) 
0.615033627

$$$$
