
     RDKit          3D

 24 26  0  0  0  0  0  0  0  0999 V2000
   36.2070   30.2130   48.9090 C   0  0  0  0  0  0  0  0  0  0  0  0
   36.0560   29.3540   49.9220 C   0  0  0  0  0  0  0  0  0  0  0  0
   35.0560   28.4220   49.9280 C   0  0  0  0  0  0  0  0  0  0  0  0
   34.2440   28.4450   48.8350 C   0  0  0  0  0  0  0  0  0  0  0  0
   34.9180   29.7860   47.8280 S   0  0  0  0  0  0  0  0  0  0  0  0
   38.0940   33.2780   49.4380 C   0  0  0  0  0  0  0  0  0  0  0  0
   39.0030   33.2800   48.3470 C   0  0  0  0  0  0  0  0  0  0  0  0
   38.9470   32.2090   47.4340 C   0  0  0  0  0  0  0  0  0  0  0  0
   38.0220   31.2340   47.6550 N   0  0  0  0  0  0  0  0  0  0  0  0
   37.1850   31.2710   48.6980 C   0  0  0  0  0  0  0  0  0  0  0  0
   37.2100   32.2700   49.5800 N   0  0  0  0  0  0  0  0  0  0  0  0
   33.1100   27.6730   48.4400 C   0  0  0  0  0  0  0  0  0  0  0  0
   31.8020   27.7370   48.6910 C   0  0  0  0  0  0  0  0  0  0  0  0
   30.9680   26.8130   48.1380 C   0  0  0  0  0  0  0  0  0  0  0  0
   31.5440   25.8100   47.3070 C   0  0  0  0  0  0  0  0  0  0  0  0
   33.3700   26.2630   47.3570 S   0  0  0  0  0  0  0  0  0  0  0  0
   36.7534   29.3982   50.7715 H   0  0  0  0  0  0  0  0  0  0  0  0
   34.9177   27.7077   50.7530 H   0  0  0  0  0  0  0  0  0  0  0  0
   38.1112   34.1003   50.1685 H   0  0  0  0  0  0  0  0  0  0  0  0
   39.7304   34.0951   48.2186 H   0  0  0  0  0  0  0  0  0  0  0  0
   39.6277   32.1616   46.5712 H   0  0  0  0  0  0  0  0  0  0  0  0
   31.3998   28.5295   49.3393 H   0  0  0  0  0  0  0  0  0  0  0  0
   29.8847   26.8406   48.3271 H   0  0  0  0  0  0  0  0  0  0  0  0
   31.0497   24.9844   46.7740 H   0  0  0  0  0  0  0  0  0  0  0  0
  1  2  2  0
  2  3  1  0
  4  3  2  0
  5  4  1  0
  5  1  1  0
  6 11  2  0
  7  6  1  0
  8  9  1  0
  8  7  2  0
  9 10  2  0
 10  1  1  0
 10 11  1  0
 12 13  2  0
 12  4  1  0
 14 13  1  0
 15 16  1  0
 15 14  2  0
 16 12  1  0
  2 17  1  0
  3 18  1  0
  6 19  1  0
  7 20  1  0
  8 21  1  0
 13 22  1  0
 14 23  1  0
 15 24  1  0
M  ISO  8  17  14  18  14  19  14  20  14  21  14  22  14  23  14  24  14
M  END
>  <minimizedAffinity>  (1) 
-5.10685921

>  <minimizedRMSD>  (1) 
0.559015095

$$$$
