
     RDKit          3D

 26 28  0  0  0  0  0  0  0  0999 V2000
   35.8340   30.1610   49.9550 C   0  0  0  0  0  0  0  0  0  0  0  0
   36.7020   29.8290   50.9650 C   0  0  0  0  0  0  0  0  0  0  0  0
   37.8160   30.6180   50.7120 C   0  0  0  0  0  0  0  0  0  0  0  0
   37.5740   31.3700   49.5900 C   0  0  0  0  0  0  0  0  0  0  0  0
   36.3840   31.0690   49.1690 O   0  0  0  0  0  0  0  0  0  0  0  0
   38.4030   32.3300   48.9260 C   0  0  0  0  0  0  0  0  0  0  0  0
   38.9110   33.5060   49.4150 C   0  0  0  0  0  0  0  0  0  0  0  0
   39.6920   34.3270   48.6600 C   0  0  0  0  0  0  0  0  0  0  0  0
   39.9580   33.8670   47.2820 C   0  0  0  0  0  0  0  0  0  0  0  0
   39.0160   32.2400   47.2190 S   0  0  0  0  0  0  0  0  0  0  0  0
   34.4890   29.5860   49.7790 C   0  0  0  0  0  0  0  0  0  0  0  0
   33.6730   29.7220   50.7190 O   0  0  0  0  0  0  0  0  0  0  0  0
   33.8380   26.8680   47.4680 C   0  0  0  0  0  0  0  0  0  0  0  0
   33.5350   27.5140   46.2680 C   0  0  0  0  0  0  0  0  0  0  0  0
   33.5510   28.8990   46.2460 C   0  0  0  0  0  0  0  0  0  0  0  0
   33.8620   29.5570   47.3930 N   0  0  0  0  0  0  0  0  0  0  0  0
   34.1520   28.8920   48.5400 C   0  0  0  0  0  0  0  0  0  0  0  0
   34.1390   27.5440   48.5750 N   0  0  0  0  0  0  0  0  0  0  0  0
   36.5508   29.1081   51.7819 H   0  0  0  0  0  0  0  0  0  0  0  0
   38.7385   30.6371   51.3109 H   0  0  0  0  0  0  0  0  0  0  0  0
   38.6801   33.7955   50.4508 H   0  0  0  0  0  0  0  0  0  0  0  0
   40.0984   35.2714   49.0510 H   0  0  0  0  0  0  0  0  0  0  0  0
   40.5540   34.3515   46.4946 H   0  0  0  0  0  0  0  0  0  0  0  0
   33.8278   25.7685   47.4999 H   0  0  0  0  0  0  0  0  0  0  0  0
   33.2899   26.9381   45.3634 H   0  0  0  0  0  0  0  0  0  0  0  0
   33.3180   29.4515   45.3238 H   0  0  0  0  0  0  0  0  0  0  0  0
  1  2  2  0
  3  2  1  0
  4  3  2  0
  5  4  1  0
  5  1  1  0
  6  7  2  0
  6  4  1  0
  8  7  1  0
  9  8  2  0
 10  9  1  0
 10  6  1  0
 11  1  1  0
 11 12  2  0
 13 18  2  0
 14 13  1  0
 15 14  2  0
 15 16  1  0
 16 17  2  0
 17 18  1  0
 17 11  1  0
  2 19  1  0
  3 20  1  0
  7 21  1  0
  8 22  1  0
  9 23  1  0
 13 24  1  0
 14 25  1  0
 15 26  1  0
M  ISO  8  19  14  20  14  21  14  22  14  23  14  24  14  25  14  26  14
M  END
>  <minimizedAffinity>  (1) 
-5.36975813

>  <minimizedRMSD>  (1) 
1.94121456

$$$$
