
     RDKit          3D

 41 44  0  0  0  0  0  0  0  0999 V2000
   36.6110   30.6280   50.5440 C   0  0  0  0  0  0  0  0  0  0  0  0
   37.6190   31.3500   49.9130 C   0  0  0  0  0  0  0  0  0  0  0  0
   37.4860   31.5490   48.5450 C   0  0  0  0  0  0  0  0  0  0  0  0
   36.4030   31.0410   47.8930 N   0  0  0  0  0  0  0  0  0  0  0  0
   35.4520   30.3480   48.5530 C   0  0  0  0  0  0  0  0  0  0  0  0
   35.5700   30.1500   49.8720 N   0  0  0  0  0  0  0  0  0  0  0  0
   38.4820   32.2960   47.7560 C   0  0  0  0  0  0  0  0  0  0  0  0
   39.1810   33.3780   48.2260 C   0  0  0  0  0  0  0  0  0  0  0  0
   40.0230   33.8580   47.2810 N   0  0  0  0  0  0  0  0  0  0  0  0
   39.8580   33.0790   46.2140 C   0  0  0  0  0  0  0  0  0  0  0  0
   38.9320   32.1500   46.5170 N   0  0  0  0  0  0  0  0  0  0  0  0
   40.6020   31.8360   44.2540 C   0  0  0  0  0  0  0  0  0  0  0  0
   40.2010   30.7860   44.7850 O   0  0  0  0  0  0  0  0  0  0  0  0
   40.4640   33.0950   44.9320 N   0  0  0  0  0  0  0  0  0  0  0  0
   34.4800   27.6910   49.4480 Cl  0  0  0  0  0  0  0  0  0  0  0  0
   33.7800   28.5980   48.1380 C   0  0  0  0  0  0  0  0  0  0  0  0
   34.3030   29.8210   47.7990 C   0  0  0  0  0  0  0  0  0  0  0  0
   33.7770   30.5600   46.7750 C   0  0  0  0  0  0  0  0  0  0  0  0
   32.7070   30.1030   46.0510 C   0  0  0  0  0  0  0  0  0  0  0  0
   32.1550   28.8850   46.3580 C   0  0  0  0  0  0  0  0  0  0  0  0
   30.7870   28.2010   45.5010 Cl  0  0  0  0  0  0  0  0  0  0  0  0
   32.7170   28.1700   47.3990 C   0  0  0  0  0  0  0  0  0  0  0  0
   32.1390   30.8590   44.9730 C   0  0  0  0  0  0  0  0  0  0  0  0
   31.2000   31.9060   45.0520 C   0  0  0  0  0  0  0  0  0  0  0  0
   30.8100   32.4730   43.8650 C   0  0  0  0  0  0  0  0  0  0  0  0
   31.3670   31.9730   42.6780 C   0  0  0  0  0  0  0  0  0  0  0  0
   32.4580   30.6810   43.2800 S   0  0  0  0  0  0  0  0  0  0  0  0
   32.1240   26.8410   47.7450 C   0  0  0  0  0  0  0  0  0  0  0  0
   33.1370   25.8770   47.8430 F   0  0  0  0  0  0  0  0  0  0  0  0
   31.3200   26.3800   46.6940 F   0  0  0  0  0  0  0  0  0  0  0  0
   31.3490   26.8760   48.8750 F   0  0  0  0  0  0  0  0  0  0  0  0
   36.6779   30.4485   51.6272 H   0  0  0  0  0  0  0  0  0  0  0  0
   38.4807   31.7446   50.4713 H   0  0  0  0  0  0  0  0  0  0  0  0
   39.0721   33.7997   49.2361 H   0  0  0  0  0  0  0  0  0  0  0  0
   40.6610   34.6617   47.3694 H   0  0  0  0  0  0  0  0  0  0  0  0
   41.0661   31.8009   43.2573 H   0  0  0  0  0  0  0  0  0  0  0  0
   40.7917   33.9730   44.5046 H   0  0  0  0  0  0  0  0  0  0  0  0
   34.2199   31.5364   46.5289 H   0  0  0  0  0  0  0  0  0  0  0  0
   30.7996   32.2516   46.0165 H   0  0  0  0  0  0  0  0  0  0  0  0
   30.0811   33.2965   43.8444 H   0  0  0  0  0  0  0  0  0  0  0  0
   31.1820   32.2919   41.6416 H   0  0  0  0  0  0  0  0  0  0  0  0
  2  1  2  0
  3  2  1  0
  4  3  2  0
  4  5  1  0
  5  6  2  0
  6  1  1  0
  7  8  2  0
  7  3  1  0
  9  8  1  0
 10 11  2  0
 10  9  1  0
 11  7  1  0
 12 13  2  0
 12 14  1  0
 14 10  1  0
 16 15  1  0
 17 16  2  0
 17  5  1  0
 18 17  1  0
 19 20  1  0
 19 18  2  0
 20 22  2  0
 21 20  1  0
 22 28  1  0
 22 16  1  0
 23 24  2  0
 23 19  1  0
 25 24  1  0
 26 27  1  0
 26 25  2  0
 27 23  1  0
 28 29  1  0
 28 31  1  0
 30 28  1  0
  1 32  1  0
  2 33  1  0
  8 34  1  0
  9 35  1  0
 12 36  1  0
 14 37  1  0
 18 38  1  0
 24 39  1  0
 25 40  1  0
 26 41  1  0
M  ISO  8  32  14  33  14  34  14  35   9  36   6  38  14  39  14  40  14
M  ISO  1  41  14
M  END
>  <minimizedAffinity>  (1) 
-6.77446318

>  <minimizedRMSD>  (1) 
0.274059087

$$$$
