
     RDKit          3D

 19 20  0  0  0  0  0  0  0  0999 V2000
   38.4430   32.6110   49.5600 C   0  0  0  0  0  0  0  0  0  0  0  0
   38.9200   32.9630   48.2910 C   0  0  0  0  0  0  0  0  0  0  0  0
   38.3630   32.3330   47.1810 C   0  0  0  0  0  0  0  0  0  0  0  0
   37.3790   31.4010   47.3840 N   0  0  0  0  0  0  0  0  0  0  0  0
   36.9580   31.0990   48.6180 C   0  0  0  0  0  0  0  0  0  0  0  0
   37.4730   31.6870   49.6940 N   0  0  0  0  0  0  0  0  0  0  0  0
   38.8590   32.7050   45.9120 N   0  0  0  0  0  0  0  0  0  0  0  0
   35.8640   30.0550   48.7460 C   0  0  0  0  0  0  0  0  0  0  0  0
   35.7760   29.0070   49.5670 C   0  0  0  0  0  0  0  0  0  0  0  0
   34.6890   28.2380   49.4680 C   0  0  0  0  0  0  0  0  0  0  0  0
   33.7600   28.5490   48.5670 C   0  0  0  0  0  0  0  0  0  0  0  0
   34.4040   30.0070   47.7820 S   0  0  0  0  0  0  0  0  0  0  0  0
   38.8643   33.0934   50.4543 H   0  0  0  0  0  0  0  0  0  0  0  0
   39.7129   33.7165   48.1744 H   0  0  0  0  0  0  0  0  0  0  0  0
   39.6015   33.4149   45.8371 H   0  0  0  0  0  0  0  0  0  0  0  0
   38.4782   32.2664   45.0614 H   0  0  0  0  0  0  0  0  0  0  0  0
   36.5683   28.7851   50.2971 H   0  0  0  0  0  0  0  0  0  0  0  0
   34.5633   27.3615   50.1206 H   0  0  0  0  0  0  0  0  0  0  0  0
   32.8152   28.0261   48.3575 H   0  0  0  0  0  0  0  0  0  0  0  0
  1  6  2  0
  2  1  1  0
  3  4  1  0
  3  2  2  0
  4  5  2  0
  5  8  1  0
  5  6  1  0
  7  3  1  0
  8  9  2  0
 10  9  1  0
 11 10  2  0
 12 11  1  0
 12  8  1  0
  1 13  1  0
  2 14  1  0
  7 15  1  0
  7 16  1  0
  9 17  1  0
 10 18  1  0
 11 19  1  0
M  ISO  5  13  14  14  14  17  14  18  14  19  14
M  END
>  <minimizedAffinity>  (1) 
-4.66514587

>  <minimizedRMSD>  (1) 
2.81681442

$$$$
