
     RDKit          3D

 45 48  0  0  1  0  0  0  0  0999 V2000
   35.2780   30.2090   49.4830 C   0  0  2  0  0  0  0  0  0  0  0  0
   36.2060   31.2770   49.1360 C   0  0  0  0  0  0  0  0  0  0  0  0
   37.6960   30.8130   49.1670 C   0  0  2  0  0  0  0  0  0  0  0  0
   38.1160   30.2890   50.4430 C   0  0  0  0  0  0  0  0  0  0  0  0
   37.0380   29.4660   51.1580 C   0  0  0  0  0  0  0  0  0  0  0  0
   35.9720   29.0370   50.1910 C   0  0  0  0  0  0  0  0  0  0  0  0
   38.5490   31.0420   46.3510 Cl  0  0  0  0  0  0  0  0  0  0  0  0
   38.9290   32.2550   47.5450 C   0  0  0  0  0  0  0  0  0  0  0  0
   38.4400   32.0620   48.8130 C   0  0  0  0  0  0  0  0  0  0  0  0
   38.7570   33.0900   49.6880 C   0  0  0  0  0  0  0  0  0  0  0  0
   39.4930   34.1990   49.3210 C   0  0  0  0  0  0  0  0  0  0  0  0
   39.9550   34.3190   48.0130 C   0  0  0  0  0  0  0  0  0  0  0  0
   39.6600   33.3090   47.0950 C   0  0  0  0  0  0  0  0  0  0  0  0
   40.1300   33.4310   45.7650 N   0  0  0  0  0  0  0  0  0  0  0  0
   34.5030   29.6350   48.3880 C   0  0  0  0  0  0  0  0  0  0  0  0
   35.1210   29.7210   47.1490 C   0  0  0  0  0  0  0  0  0  0  0  0
   34.4800   29.1790   46.0400 C   0  0  0  0  0  0  0  0  0  0  0  0
   33.2350   28.5720   46.2290 N   0  0  0  0  0  0  0  0  0  0  0  0
   32.6720   28.5120   47.4420 C   0  0  0  0  0  0  0  0  0  0  0  0
   33.3250   29.0440   48.4800 N   0  0  0  0  0  0  0  0  0  0  0  0
   31.3690   27.8750   47.6400 C   0  0  0  0  0  0  0  0  0  0  0  0
   30.9900   27.6800   48.8970 C   0  0  0  0  0  0  0  0  0  0  0  0
   29.8410   27.1160   49.3640 C   0  0  0  0  0  0  0  0  0  0  0  0
   29.0150   26.7230   48.1850 C   0  0  0  0  0  0  0  0  0  0  0  0
   30.0280   27.2290   46.6710 S   0  0  0  0  0  0  0  0  0  0  0  0
   34.5781   30.7405   50.1446 H   0  0  0  0  0  0  0  0  0  0  0  0
   36.0788   32.1009   49.8537 H   0  0  0  0  0  0  0  0  0  0  0  0
   35.9779   31.5948   48.1079 H   0  0  0  0  0  0  0  0  0  0  0  0
   37.8775   29.9731   48.4802 H   0  0  0  0  0  0  0  0  0  0  0  0
   38.9938   29.6459   50.2821 H   0  0  0  0  0  0  0  0  0  0  0  0
   38.3398   31.1526   51.0865 H   0  0  0  0  0  0  0  0  0  0  0  0
   37.5012   28.5738   51.6045 H   0  0  0  0  0  0  0  0  0  0  0  0
   36.5778   30.0878   51.9401 H   0  0  0  0  0  0  0  0  0  0  0  0
   35.2118   28.4644   50.7427 H   0  0  0  0  0  0  0  0  0  0  0  0
   36.4649   28.4358   49.4128 H   0  0  0  0  0  0  0  0  0  0  0  0
   38.4041   33.0183   50.7274 H   0  0  0  0  0  0  0  0  0  0  0  0
   39.7135   34.9845   50.0589 H   0  0  0  0  0  0  0  0  0  0  0  0
   40.5437   35.1965   47.7073 H   0  0  0  0  0  0  0  0  0  0  0  0
   40.6800   34.2562   45.4868 H   0  0  0  0  0  0  0  0  0  0  0  0
   39.9219   32.6945   45.0757 H   0  0  0  0  0  0  0  0  0  0  0  0
   36.1011   30.2095   47.0454 H   0  0  0  0  0  0  0  0  0  0  0  0
   34.9399   29.2267   45.0419 H   0  0  0  0  0  0  0  0  0  0  0  0
   31.6996   28.0197   49.6658 H   0  0  0  0  0  0  0  0  0  0  0  0
   29.5706   26.9755   50.4210 H   0  0  0  0  0  0  0  0  0  0  0  0
   28.0263   26.2410   48.1947 H   0  0  0  0  0  0  0  0  0  0  0  0
  1  6  1  0
  2  3  1  0
  2  1  1  0
  3  4  1  0
  4  5  1  0
  6  5  1  0
  7  8  1  0
  8  9  2  0
  9  3  1  0
  9 10  1  0
 11 10  2  0
 12 11  1  0
 13  8  1  0
 13 12  2  0
 14 13  1  0
 15 20  1  0
 15  1  1  0
 16 15  2  0
 17 18  2  0
 17 16  1  0
 18 19  1  0
 19 21  1  0
 19 20  2  0
 21 22  2  0
 22 23  1  0
 24 23  2  0
 25 21  1  0
 25 24  1  0
  1 26  1  1
  2 27  1  0
  2 28  1  0
  3 29  1  6
  4 30  1  0
  4 31  1  0
  5 32  1  0
  5 33  1  0
  6 34  1  0
  6 35  1  0
 10 36  1  0
 11 37  1  0
 12 38  1  0
 14 39  1  0
 14 40  1  0
 16 41  1  0
 17 42  1  0
 22 43  1  0
 23 44  1  0
 24 45  1  0
M  ISO  8  26  13  27  13  28  13  29  13  30  13  31  13  32  13  33  13
M  ISO  8  34  13  35  13  36  14  37  14  38  14  41  14  42  14  43  14
M  ISO  2  44  14  45  14
M  END
>  <minimizedAffinity>  (1) 
-7.56552172

>  <minimizedRMSD>  (1) 
1.21106839

$$$$
