
     RDKit          3D

 44 48  0  0  0  0  0  0  0  0999 V2000
   39.2530   31.9220   44.9590 C   0  0  0  0  0  0  0  0  0  0  0  0
   38.1610   32.5580   45.0940 O   0  0  0  0  0  0  0  0  0  0  0  0
   39.9360   31.6710   46.1730 N   0  0  0  0  0  0  0  0  0  0  0  0
   39.1540   32.2480   42.5800 C   0  0  0  0  0  0  0  0  0  0  0  0
   39.6890   31.5260   43.6440 C   0  0  0  0  0  0  0  0  0  0  0  0
   40.5850   30.4920   43.4810 C   0  0  0  0  0  0  0  0  0  0  0  0
   40.9700   30.1560   42.1920 C   0  0  0  0  0  0  0  0  0  0  0  0
   41.8100   29.2140   41.7260 N   0  0  0  0  0  0  0  0  0  0  0  0
   41.8260   29.3130   40.4030 C   0  0  0  0  0  0  0  0  0  0  0  0
   41.0100   30.3000   40.0370 N   0  0  0  0  0  0  0  0  0  0  0  0
   40.4410   30.8690   41.1350 C   0  0  0  0  0  0  0  0  0  0  0  0
   39.5510   31.8960   41.2980 C   0  0  0  0  0  0  0  0  0  0  0  0
   39.0310   32.6050   40.1610 C   0  0  0  0  0  0  0  0  0  0  0  0
   39.2700   32.5170   38.8450 C   0  0  0  0  0  0  0  0  0  0  0  0
   38.6520   33.3020   37.9500 C   0  0  0  0  0  0  0  0  0  0  0  0
   37.6980   34.2610   38.5440 C   0  0  0  0  0  0  0  0  0  0  0  0
   37.8160   33.8950   40.3950 S   0  0  0  0  0  0  0  0  0  0  0  0
   38.0940   30.1600   47.5040 F   0  0  0  0  0  0  0  0  0  0  0  0
   38.3570   31.3950   48.0030 C   0  0  0  0  0  0  0  0  0  0  0  0
   37.7060   31.8230   49.1270 C   0  0  0  0  0  0  0  0  0  0  0  0
   38.0190   33.0750   49.5760 C   0  0  0  0  0  0  0  0  0  0  0  0
   38.9360   33.8940   48.9580 C   0  0  0  0  0  0  0  0  0  0  0  0
   39.5760   33.4310   47.8270 C   0  0  0  0  0  0  0  0  0  0  0  0
   39.2840   32.1760   47.3500 C   0  0  0  0  0  0  0  0  0  0  0  0
   36.0750   29.3410   51.4590 C   0  0  0  0  0  0  0  0  0  0  0  0
   37.0390   30.1990   50.8830 C   0  0  0  0  0  0  0  0  0  0  0  0
   36.7400   30.9270   49.7530 C   0  0  0  0  0  0  0  0  0  0  0  0
   35.4880   30.7800   49.2280 N   0  0  0  0  0  0  0  0  0  0  0  0
   34.5780   29.9620   49.7820 C   0  0  0  0  0  0  0  0  0  0  0  0
   34.8640   29.2590   50.8710 N   0  0  0  0  0  0  0  0  0  0  0  0
   40.8323   31.1648   46.2101 H   0  0  0  0  0  0  0  0  0  0  0  0
   38.4416   33.0687   42.7501 H   0  0  0  0  0  0  0  0  0  0  0  0
   40.9840   29.9479   44.3498 H   0  0  0  0  0  0  0  0  0  0  0  0
   42.3433   28.5392   42.2928 H   0  0  0  0  0  0  0  0  0  0  0  0
   42.4161   28.6835   39.7207 H   0  0  0  0  0  0  0  0  0  0  0  0
   39.9985   31.7749   38.4864 H   0  0  0  0  0  0  0  0  0  0  0  0
   38.8392   33.2374   36.8680 H   0  0  0  0  0  0  0  0  0  0  0  0
   37.0712   35.0069   38.0333 H   0  0  0  0  0  0  0  0  0  0  0  0
   37.5117   33.4475   50.4782 H   0  0  0  0  0  0  0  0  0  0  0  0
   39.1539   34.8957   49.3570 H   0  0  0  0  0  0  0  0  0  0  0  0
   40.3146   34.0619   47.3109 H   0  0  0  0  0  0  0  0  0  0  0  0
   36.3059   28.7564   52.3617 H   0  0  0  0  0  0  0  0  0  0  0  0
   38.0355   30.2859   51.3407 H   0  0  0  0  0  0  0  0  0  0  0  0
   33.5807   29.8733   49.3264 H   0  0  0  0  0  0  0  0  0  0  0  0
  1  2  2  0
  1  3  1  0
  3 24  1  0
  4  5  2  0
  5  1  1  0
  6  5  1  0
  7  6  2  0
  8  7  1  0
  9  8  1  0
 10  9  2  0
 10 11  1  0
 11 12  2  0
 11  7  1  0
 12  4  1  0
 13 17  1  0
 13 12  1  0
 14 13  2  0
 15 16  2  0
 15 14  1  0
 16 17  1  0
 18 19  1  0
 19 20  2  0
 20 21  1  0
 20 27  1  0
 22 21  2  0
 23 22  1  0
 24 23  2  0
 24 19  1  0
 26 25  2  0
 27 26  1  0
 28 27  2  0
 28 29  1  0
 29 30  2  0
 30 25  1  0
  3 31  1  0
  4 32  1  0
  6 33  1  0
  8 34  1  0
  9 35  1  0
 14 36  1  0
 15 37  1  0
 16 38  1  0
 21 39  1  0
 22 40  1  0
 23 41  1  0
 25 42  1  0
 26 43  1  0
 29 44  1  0
M  ISO  8  32  14  33  14  34   9  35  14  36  14  37  14  38  14  39  14
M  ISO  5  40  14  41  14  42  14  43  14  44  14
M  END
>  <minimizedAffinity>  (1) 
-7.54570389

>  <minimizedRMSD>  (1) 
0.0650728866

$$$$
