
     RDKit          3D

 32 33  0  0  0  0  0  0  0  0999 V2000
   38.2140   32.4300   48.8250 C   0  0  0  0  0  0  0  0  0  0  0  0
   38.4160   31.5660   49.8520 C   0  0  0  0  0  0  0  0  0  0  0  0
   37.1900   31.0430   50.5210 C   0  0  0  0  0  0  0  0  0  0  0  0
   36.8600   29.3220   50.1970 S   0  0  0  0  0  0  0  0  0  0  0  0
   35.5430   28.9970   49.1270 C   0  0  0  0  0  0  0  0  0  0  0  0
   34.5490   28.0560   49.0950 C   0  0  0  0  0  0  0  0  0  0  0  0
   33.6220   28.0300   48.1140 C   0  0  0  0  0  0  0  0  0  0  0  0
   33.7240   29.0220   47.1180 C   0  0  0  0  0  0  0  0  0  0  0  0
   35.2350   30.0540   47.6120 S   0  0  0  0  0  0  0  0  0  0  0  0
   39.1160   31.9450   47.9290 O   0  0  0  0  0  0  0  0  0  0  0  0
   38.9840   32.2900   46.6060 C   0  0  0  0  0  0  0  0  0  0  0  0
   40.1500   32.7630   46.0690 C   0  0  0  0  0  0  0  0  0  0  0  0
   40.1780   33.1590   44.7200 C   0  0  0  0  0  0  0  0  0  0  0  0
   38.9940   33.0400   44.0100 N   0  0  0  0  0  0  0  0  0  0  0  0
   37.8540   32.5650   44.5800 C   0  0  0  0  0  0  0  0  0  0  0  0
   37.8740   32.2000   45.8660 N   0  0  0  0  0  0  0  0  0  0  0  0
   36.8870   32.8540   42.4200 C   0  0  0  0  0  0  0  0  0  0  0  0
   37.9900   33.2490   41.8970 O   0  0  0  0  0  0  0  0  0  0  0  0
   36.6960   32.4810   43.7710 N   0  0  0  0  0  0  0  0  0  0  0  0
   37.1851   32.3735   48.4401 H   0  0  0  0  0  0  0  0  0  0  0  0
   38.3398   33.4924   49.0810 H   0  0  0  0  0  0  0  0  0  0  0  0
   38.9786   30.7053   49.4612 H   0  0  0  0  0  0  0  0  0  0  0  0
   38.9494   32.1425   50.6222 H   0  0  0  0  0  0  0  0  0  0  0  0
   37.3071   31.1735   51.6069 H   0  0  0  0  0  0  0  0  0  0  0  0
   36.3404   31.6104   50.1132 H   0  0  0  0  0  0  0  0  0  0  0  0
   34.5045   27.2991   49.8919 H   0  0  0  0  0  0  0  0  0  0  0  0
   32.8257   27.2714   48.0930 H   0  0  0  0  0  0  0  0  0  0  0  0
   33.0700   29.1657   46.2453 H   0  0  0  0  0  0  0  0  0  0  0  0
   41.0574   32.8329   46.6869 H   0  0  0  0  0  0  0  0  0  0  0  0
   41.0953   33.5445   44.2511 H   0  0  0  0  0  0  0  0  0  0  0  0
   36.0104   32.8006   41.7577 H   0  0  0  0  0  0  0  0  0  0  0  0
   35.7844   32.1721   44.1376 H   0  0  0  0  0  0  0  0  0  0  0  0
  1  2  1  0
  2  3  1  0
  4  3  1  0
  5  4  1  0
  6  5  2  0
  7  6  1  0
  8  9  1  0
  8  7  2  0
  9  5  1  0
 10  1  1  0
 11 10  1  0
 12 11  2  0
 13 12  1  0
 14 15  1  0
 14 13  2  0
 15 16  2  0
 16 11  1  0
 17 19  1  0
 18 17  2  0
 19 15  1  0
  1 20  1  0
  1 21  1  0
  2 22  1  0
  2 23  1  0
  3 24  1  0
  3 25  1  0
  6 26  1  0
  7 27  1  0
  8 28  1  0
 12 29  1  0
 13 30  1  0
 17 31  1  0
 19 32  1  0
M  ISO  8  20   8  21   8  22   8  23   8  24   8  25   8  26  14  27  14
M  ISO  4  28  14  29  14  30  14  31   6
M  END
>  <minimizedAffinity>  (1) 
-5.4490962

>  <minimizedRMSD>  (1) 
2.1413002

$$$$
