
     RDKit          3D

 43 46  0  0  1  0  0  0  0  0999 V2000
   37.2690   29.2680   50.5530 C   0  0  0  0  0  0  0  0  0  0  0  0
   37.4100   30.6450   50.8420 C   0  0  0  0  0  0  0  0  0  0  0  0
   36.6510   31.5290   50.0880 C   0  0  0  0  0  0  0  0  0  0  0  0
   35.8280   31.0220   49.1290 N   0  0  0  0  0  0  0  0  0  0  0  0
   35.7280   29.7170   48.8920 C   0  0  0  0  0  0  0  0  0  0  0  0
   36.4430   28.8460   49.5990 N   0  0  0  0  0  0  0  0  0  0  0  0
   34.8500   29.2570   47.8780 N   0  0  0  0  0  0  0  0  0  0  0  0
   34.2320   27.9400   47.9460 C   0  0  0  0  0  0  0  0  0  0  0  0
   32.7520   28.0590   47.8020 C   0  0  0  0  0  0  0  0  0  0  0  0
   32.2700   29.2660   47.3330 N   0  0  0  0  0  0  0  0  0  0  0  0
   33.0860   30.1370   46.5310 C   0  0  0  0  0  0  0  0  0  0  0  0
   34.5230   30.0730   46.7220 C   0  0  2  0  0  0  0  0  0  0  0  0
   35.2570   29.5190   45.5950 N   0  0  0  0  0  0  0  0  0  0  0  0
   36.4060   30.3580   45.2490 C   0  0  0  0  0  0  0  0  0  0  0  0
   36.5460   30.3020   43.7400 C   0  0  0  0  0  0  0  0  0  0  0  0
   35.5730   29.2510   43.3490 C   0  0  0  0  0  0  0  0  0  0  0  0
   34.4730   29.3700   44.4260 C   0  0  1  0  0  0  0  0  0  0  0  0
   33.7690   28.0830   44.2810 C   0  0  0  0  0  0  0  0  0  0  0  0
   34.3340   26.8400   44.4940 C   0  0  0  0  0  0  0  0  0  0  0  0
   33.5190   25.7550   44.3000 C   0  0  0  0  0  0  0  0  0  0  0  0
   32.1980   25.9340   43.9070 C   0  0  0  0  0  0  0  0  0  0  0  0
   32.1130   27.7790   43.8090 S   0  0  0  0  0  0  0  0  0  0  0  0
   37.8523   28.5329   51.1269 H   0  0  0  0  0  0  0  0  0  0  0  0
   38.0911   30.9998   51.6295 H   0  0  0  0  0  0  0  0  0  0  0  0
   36.7128   32.6136   50.2610 H   0  0  0  0  0  0  0  0  0  0  0  0
   34.6268   27.3107   47.1348 H   0  0  0  0  0  0  0  0  0  0  0  0
   34.4630   27.4843   48.9201 H   0  0  0  0  0  0  0  0  0  0  0  0
   32.4205   27.2744   47.1059 H   0  0  0  0  0  0  0  0  0  0  0  0
   32.3534   27.9651   48.8229 H   0  0  0  0  0  0  0  0  0  0  0  0
   31.4362   29.0473   46.7692 H   0  0  0  0  0  0  0  0  0  0  0  0
   32.7713   31.1697   46.7418 H   0  0  0  0  0  0  0  0  0  0  0  0
   32.9255   29.7978   45.4970 H   0  0  0  0  0  0  0  0  0  0  0  0
   34.8272   31.1222   46.8509 H   0  0  0  0  0  0  0  0  0  0  0  0
   36.2314   31.3938   45.5756 H   0  0  0  0  0  0  0  0  0  0  0  0
   37.3207   30.0016   45.7453 H   0  0  0  0  0  0  0  0  0  0  0  0
   36.2873   31.2688   43.2835 H   0  0  0  0  0  0  0  0  0  0  0  0
   37.5724   30.0849   43.4093 H   0  0  0  0  0  0  0  0  0  0  0  0
   35.1653   29.4445   42.3458 H   0  0  0  0  0  0  0  0  0  0  0  0
   36.0198   28.2471   43.2979 H   0  0  0  0  0  0  0  0  0  0  0  0
   33.7226   30.1738   44.3974 H   0  0  0  0  0  0  0  0  0  0  0  0
   35.3836   26.7271   44.8033 H   0  0  0  0  0  0  0  0  0  0  0  0
   33.9118   24.7394   44.4559 H   0  0  0  0  0  0  0  0  0  0  0  0
   31.4176   25.1845   43.7088 H   0  0  0  0  0  0  0  0  0  0  0  0
  1  2  2  0
  3  2  1  0
  4  3  2  0
  5  4  1  0
  5  6  2  0
  6  1  1  0
  7  8  1  0
  7  5  1  0
  9  8  1  0
 10  9  1  0
 11 12  1  0
 11 10  1  0
 12  7  1  0
 13 14  1  0
 13 12  1  0
 15 14  1  0
 16 15  1  0
 16 17  1  0
 17 13  1  0
 18 17  1  0
 18 19  2  0
 20 19  1  0
 21 20  2  0
 22 21  1  0
 22 18  1  0
  1 23  1  0
  2 24  1  0
  3 25  1  0
  8 26  1  0
  8 27  1  0
  9 28  1  0
  9 29  1  0
 10 30  1  0
 11 31  1  0
 11 32  1  0
 12 33  1  1
 14 34  1  0
 14 35  1  0
 15 36  1  0
 15 37  1  0
 16 38  1  0
 16 39  1  0
 17 40  1  6
 19 41  1  0
 20 42  1  0
 21 43  1  0
M  ISO  8  23  14  24  14  25  14  26  13  27  13  28  13  29  13  30   5
M  ISO  8  31  13  32  13  33  13  34  13  35  13  36  13  37  13  38  13
M  ISO  5  39  13  40  13  41  14  42  14  43  14
M  END
>  <minimizedAffinity>  (1) 
-4.64807749

>  <minimizedRMSD>  (1) 
0.223790154

$$$$
