
     RDKit          3D

 29 31  0  0  1  0  0  0  0  0999 V2000
   38.6000   31.4600   47.7830 C   0  0  2  0  0  0  0  0  0  0  0  0
   37.6050   32.1230   48.7790 C   0  0  2  0  0  0  0  0  0  0  0  0
   38.5060   33.0970   49.4140 C   0  0  0  0  0  0  0  0  0  0  0  0
   39.3340   33.5970   48.4100 O   0  0  0  0  0  0  0  0  0  0  0  0
   39.2820   32.7580   47.3320 C   0  0  0  0  0  0  0  0  0  0  0  0
   36.9510   29.6650   51.5690 C   0  0  0  0  0  0  0  0  0  0  0  0
   37.6260   30.6270   50.7710 C   0  0  0  0  0  0  0  0  0  0  0  0
   36.9660   31.1550   49.6330 C   0  0  0  0  0  0  0  0  0  0  0  0
   35.6970   30.6950   49.3700 N   0  0  0  0  0  0  0  0  0  0  0  0
   35.0920   29.7880   50.1410 C   0  0  0  0  0  0  0  0  0  0  0  0
   35.6980   29.2680   51.2330 N   0  0  0  0  0  0  0  0  0  0  0  0
   37.9350   30.8890   46.7300 O   0  0  0  0  0  0  0  0  0  0  0  0
   38.2260   30.7030   45.4780 C   0  0  0  0  0  0  0  0  0  0  0  0
   37.0150   30.4900   44.6660 C   0  0  0  0  0  0  0  0  0  0  0  0
   37.2230   30.2880   43.3440 C   0  0  0  0  0  0  0  0  0  0  0  0
   38.5340   30.2710   42.7120 C   0  0  0  0  0  0  0  0  0  0  0  0
   39.6220   30.5870   44.2040 S   0  0  0  0  0  0  0  0  0  0  0  0
   39.2386   30.6570   48.1797 H   0  0  0  0  0  0  0  0  0  0  0  0
   36.7120   32.6046   48.3541 H   0  0  0  0  0  0  0  0  0  0  0  0
   37.9230   33.9135   49.8651 H   0  0  0  0  0  0  0  0  0  0  0  0
   39.0967   32.6246   50.2127 H   0  0  0  0  0  0  0  0  0  0  0  0
   40.3002   32.5420   46.9760 H   0  0  0  0  0  0  0  0  0  0  0  0
   38.7192   33.2228   46.5091 H   0  0  0  0  0  0  0  0  0  0  0  0
   37.4432   29.2428   52.4575 H   0  0  0  0  0  0  0  0  0  0  0  0
   38.6427   30.9563   51.0315 H   0  0  0  0  0  0  0  0  0  0  0  0
   34.0760   29.4555   49.8818 H   0  0  0  0  0  0  0  0  0  0  0  0
   36.0068   30.4949   45.1060 H   0  0  0  0  0  0  0  0  0  0  0  0
   36.3427   30.1259   42.7046 H   0  0  0  0  0  0  0  0  0  0  0  0
   38.8081   30.1165   41.6579 H   0  0  0  0  0  0  0  0  0  0  0  0
  1  2  1  0
  2  3  1  0
  2  8  1  0
  4  3  1  0
  5  1  1  0
  5  4  1  0
  7  6  2  0
  8  7  1  0
  9  8  2  0
  9 10  1  0
 10 11  2  0
 11  6  1  0
 12  1  1  0
 13 12  1  0
 14 13  2  0
 15 14  1  0
 16 15  2  0
 16 17  1  0
 17 13  1  0
  1 18  1  1
  2 19  1  6
  3 20  1  0
  3 21  1  0
  5 22  1  0
  5 23  1  0
  6 24  1  0
  7 25  1  0
 10 26  1  0
 14 27  1  0
 15 28  1  0
 16 29  1  0
M  ISO  8  18  13  19  13  20  13  21  13  22  13  23  13  24  14  25  14
M  ISO  4  26  14  27  14  28  14  29  14
M  END
>  <minimizedAffinity>  (1) 
-5.03804493

>  <minimizedRMSD>  (1) 
2.56632423

$$$$
