
     RDKit          3D

 20 21  0  0  0  0  0  0  0  0999 V2000
   38.1210   33.0930   49.5110 C   0  0  0  0  0  0  0  0  0  0  0  0
   38.8330   33.0010   48.2960 C   0  0  0  0  0  0  0  0  0  0  0  0
   38.4870   31.9600   47.4500 C   0  0  0  0  0  0  0  0  0  0  0  0
   37.5090   31.0960   47.8060 N   0  0  0  0  0  0  0  0  0  0  0  0
   36.8490   31.2190   48.9810 C   0  0  0  0  0  0  0  0  0  0  0  0
   37.1690   32.2170   49.8140 N   0  0  0  0  0  0  0  0  0  0  0  0
   39.1760   31.8070   46.1890 C   0  0  0  0  0  0  0  0  0  0  0  0
   40.3270   31.2290   45.7910 C   0  0  0  0  0  0  0  0  0  0  0  0
   40.7150   31.2520   44.5010 C   0  0  0  0  0  0  0  0  0  0  0  0
   39.8690   31.8980   43.6150 C   0  0  0  0  0  0  0  0  0  0  0  0
   38.4780   32.4810   44.7130 S   0  0  0  0  0  0  0  0  0  0  0  0
   35.7920   30.2350   49.3010 C   0  0  0  0  0  0  0  0  0  0  0  0
   36.1360   29.3990   50.3520 F   0  0  0  0  0  0  0  0  0  0  0  0
   34.6130   30.8610   49.6700 F   0  0  0  0  0  0  0  0  0  0  0  0
   35.4610   29.4360   48.2260 F   0  0  0  0  0  0  0  0  0  0  0  0
   38.3577   33.9020   50.2177 H   0  0  0  0  0  0  0  0  0  0  0  0
   39.6232   33.7199   48.0338 H   0  0  0  0  0  0  0  0  0  0  0  0
   40.9631   30.7278   46.5355 H   0  0  0  0  0  0  0  0  0  0  0  0
   41.6531   30.7830   44.1694 H   0  0  0  0  0  0  0  0  0  0  0  0
   39.9880   32.0340   42.5299 H   0  0  0  0  0  0  0  0  0  0  0  0
  1  6  2  0
  2  1  1  0
  3  4  1  0
  3  2  2  0
  4  5  2  0
  5 12  1  0
  5  6  1  0
  7  3  1  0
  8  7  2  0
  9  8  1  0
 10  9  2  0
 10 11  1  0
 11  7  1  0
 12 14  1  0
 12 13  1  0
 15 12  1  0
  1 16  1  0
  2 17  1  0
  8 18  1  0
  9 19  1  0
 10 20  1  0
M  ISO  5  16  14  17  14  18  14  19  14  20  14
M  END
>  <minimizedAffinity>  (1) 
-5.36991119

>  <minimizedRMSD>  (1) 
2.18202519

$$$$
