
     RDKit          3D

 24 25  0  0  0  0  0  0  0  0999 V2000
   38.6520   31.3330   48.2400 C   0  0  0  0  0  0  0  0  0  0  0  0
   38.7710   32.6410   48.1850 C   0  0  0  0  0  0  0  0  0  0  0  0
   37.2180   30.1420   51.4310 C   0  0  0  0  0  0  0  0  0  0  0  0
   38.0480   30.8480   50.5380 C   0  0  0  0  0  0  0  0  0  0  0  0
   37.8360   30.6410   49.1860 C   0  0  0  0  0  0  0  0  0  0  0  0
   36.8690   29.7920   48.7820 N   0  0  0  0  0  0  0  0  0  0  0  0
   36.0850   29.1260   49.6450 C   0  0  0  0  0  0  0  0  0  0  0  0
   36.2580   29.2990   50.9680 N   0  0  0  0  0  0  0  0  0  0  0  0
   39.6360   33.3160   47.1750 C   0  0  0  0  0  0  0  0  0  0  0  0
   39.7330   32.5480   45.9250 C   0  0  0  0  0  0  0  0  0  0  0  0
   40.7670   31.8090   45.3840 C   0  0  0  0  0  0  0  0  0  0  0  0
   40.5380   31.2090   44.1900 C   0  0  0  0  0  0  0  0  0  0  0  0
   39.3430   31.3410   43.5700 C   0  0  0  0  0  0  0  0  0  0  0  0
   38.4040   32.4100   44.7450 S   0  0  0  0  0  0  0  0  0  0  0  0
   39.2168   30.7334   47.5110 H   0  0  0  0  0  0  0  0  0  0  0  0
   38.2149   33.2572   48.9069 H   0  0  0  0  0  0  0  0  0  0  0  0
   37.3485   30.2746   52.5151 H   0  0  0  0  0  0  0  0  0  0  0  0
   38.8294   31.5329   50.8990 H   0  0  0  0  0  0  0  0  0  0  0  0
   35.3066   28.4436   49.2729 H   0  0  0  0  0  0  0  0  0  0  0  0
   39.2122   34.3060   46.9506 H   0  0  0  0  0  0  0  0  0  0  0  0
   40.6475   33.4004   47.5990 H   0  0  0  0  0  0  0  0  0  0  0  0
   41.7339   31.7116   45.8994 H   0  0  0  0  0  0  0  0  0  0  0  0
   41.3317   30.6090   43.7208 H   0  0  0  0  0  0  0  0  0  0  0  0
   39.0144   30.9183   42.6091 H   0  0  0  0  0  0  0  0  0  0  0  0
  1  5  1  0
  2  1  2  0
  4  3  2  0
  5  4  1  0
  6  5  2  0
  6  7  1  0
  7  8  2  0
  8  3  1  0
  9  2  1  0
 10  9  1  0
 11 10  2  0
 12 11  1  0
 13 12  2  0
 13 14  1  0
 14 10  1  0
  1 15  1  0
  2 16  1  0
  3 17  1  0
  4 18  1  0
  7 19  1  0
  9 20  1  0
  9 21  1  0
 11 22  1  0
 12 23  1  0
 13 24  1  0
M  ISO  8  17  14  18  14  19  14  20   8  21   8  22  14  23  14  24  14
M  END
>  <minimizedAffinity>  (1) 
-4.96026421

>  <minimizedRMSD>  (1) 
2.38682532

$$$$
