
     RDKit          3D

 32 34  0  0  0  0  0  0  0  0999 V2000
   33.5820   29.4980   46.5890 N   0  0  0  0  0  0  0  0  0  0  0  0
   33.8040   29.1170   47.9560 C   0  0  0  0  0  0  0  0  0  0  0  0
   35.0040   29.6440   48.6320 C   0  0  0  0  0  0  0  0  0  0  0  0
   36.1880   29.9600   47.7780 C   0  0  0  0  0  0  0  0  0  0  0  0
   35.8520   30.3030   46.3570 C   0  0  0  0  0  0  0  0  0  0  0  0
   34.8070   29.2790   45.8610 C   0  0  0  0  0  0  0  0  0  0  0  0
   32.3650   30.0070   46.0460 C   0  0  0  0  0  0  0  0  0  0  0  0
   32.2570   31.1610   45.2720 C   0  0  0  0  0  0  0  0  0  0  0  0
   30.9950   31.5160   44.8210 C   0  0  0  0  0  0  0  0  0  0  0  0
   29.9230   30.7420   45.1420 N   0  0  0  0  0  0  0  0  0  0  0  0
   30.0700   29.6330   45.8930 C   0  0  0  0  0  0  0  0  0  0  0  0
   31.2800   29.2840   46.3320 N   0  0  0  0  0  0  0  0  0  0  0  0
   36.8960   31.1140   48.3600 C   0  0  0  0  0  0  0  0  0  0  0  0
   36.7020   31.7370   49.5420 C   0  0  0  0  0  0  0  0  0  0  0  0
   37.4990   32.8080   49.8720 C   0  0  0  0  0  0  0  0  0  0  0  0
   38.4500   33.1840   48.9760 C   0  0  0  0  0  0  0  0  0  0  0  0
   38.2450   32.0000   47.5930 S   0  0  0  0  0  0  0  0  0  0  0  0
   32.9294   29.4487   48.5349 H   0  0  0  0  0  0  0  0  0  0  0  0
   33.9639   28.0294   47.9172 H   0  0  0  0  0  0  0  0  0  0  0  0
   34.7123   30.5704   49.1484 H   0  0  0  0  0  0  0  0  0  0  0  0
   35.3394   28.8280   49.2890 H   0  0  0  0  0  0  0  0  0  0  0  0
   36.8003   29.0464   47.7560 H   0  0  0  0  0  0  0  0  0  0  0  0
   35.4343   31.3193   46.3057 H   0  0  0  0  0  0  0  0  0  0  0  0
   36.7542   30.2679   45.7286 H   0  0  0  0  0  0  0  0  0  0  0  0
   34.6305   29.4187   44.7843 H   0  0  0  0  0  0  0  0  0  0  0  0
   35.1702   28.2541   46.0273 H   0  0  0  0  0  0  0  0  0  0  0  0
   33.1411   31.7682   45.0278 H   0  0  0  0  0  0  0  0  0  0  0  0
   30.8611   32.4187   44.2069 H   0  0  0  0  0  0  0  0  0  0  0  0
   29.1939   29.0168   46.1435 H   0  0  0  0  0  0  0  0  0  0  0  0
   35.9172   31.3926   50.2316 H   0  0  0  0  0  0  0  0  0  0  0  0
   37.3718   33.3409   50.8258 H   0  0  0  0  0  0  0  0  0  0  0  0
   39.1741   34.0076   49.0616 H   0  0  0  0  0  0  0  0  0  0  0  0
  1  2  1  0
  2  3  1  0
  4 13  1  0
  4  3  1  0
  5  4  1  0
  6  5  1  0
  6  1  1  0
  7 12  1  0
  7  1  1  0
  8  7  2  0
  9 10  2  0
  9  8  1  0
 10 11  1  0
 11 12  2  0
 13 14  2  0
 14 15  1  0
 16 15  2  0
 17 13  1  0
 17 16  1  0
  2 18  1  0
  2 19  1  0
  3 20  1  0
  3 21  1  0
  4 22  1  0
  5 23  1  0
  5 24  1  0
  6 25  1  0
  6 26  1  0
  8 27  1  0
  9 28  1  0
 11 29  1  0
 14 30  1  0
 15 31  1  0
 16 32  1  0
M  ISO  8  18  13  19  13  20  13  21  13  22  13  23  13  24  13  25  13
M  ISO  7  26  13  27  14  28  14  29  14  30  14  31  14  32  14
M  END
>  <minimizedAffinity>  (1) 
-4.39833641

>  <minimizedRMSD>  (1) 
3.72832274

$$$$
