
     RDKit          3D

 33 35  0  0  1  0  0  0  0  0999 V2000
   34.7140   30.5180   48.9850 C   0  0  1  0  0  0  0  0  0  0  0  0
   34.1740   30.3010   47.6420 C   0  0  0  0  0  0  0  0  0  0  0  0
   34.2280   28.9000   47.1020 C   0  0  0  0  0  0  0  0  0  0  0  0
   34.0200   27.8080   48.0780 C   0  0  1  0  0  0  0  0  0  0  0  0
   34.5570   28.0200   49.4540 C   0  0  0  0  0  0  0  0  0  0  0  0
   34.3560   29.4170   49.9410 C   0  0  0  0  0  0  0  0  0  0  0  0
   36.9030   31.2340   47.9070 C   0  0  0  0  0  0  0  0  0  0  0  0
   36.1450   30.9060   49.0570 C   0  0  0  0  0  0  0  0  0  0  0  0
   36.7960   30.9590   50.2750 C   0  0  0  0  0  0  0  0  0  0  0  0
   38.1090   31.3160   50.3270 N   0  0  0  0  0  0  0  0  0  0  0  0
   38.7960   31.6240   49.1950 C   0  0  0  0  0  0  0  0  0  0  0  0
   38.1820   31.5790   47.9880 N   0  0  0  0  0  0  0  0  0  0  0  0
   32.6000   27.3840   48.0320 C   0  0  0  0  0  0  0  0  0  0  0  0
   31.4970   27.5410   48.7470 C   0  0  0  0  0  0  0  0  0  0  0  0
   30.3010   26.9950   48.4230 C   0  0  0  0  0  0  0  0  0  0  0  0
   30.3550   26.2020   47.1810 C   0  0  0  0  0  0  0  0  0  0  0  0
   32.1610   26.3680   46.6570 S   0  0  0  0  0  0  0  0  0  0  0  0
   34.1924   31.4249   49.3248 H   0  0  0  0  0  0  0  0  0  0  0  0
   33.1187   30.6110   47.6549 H   0  0  0  0  0  0  0  0  0  0  0  0
   34.8225   30.8886   46.9756 H   0  0  0  0  0  0  0  0  0  0  0  0
   33.4508   28.8097   46.3288 H   0  0  0  0  0  0  0  0  0  0  0  0
   35.2563   28.7694   46.7337 H   0  0  0  0  0  0  0  0  0  0  0  0
   34.6610   26.9749   47.7537 H   0  0  0  0  0  0  0  0  0  0  0  0
   34.0456   27.3304   50.1417 H   0  0  0  0  0  0  0  0  0  0  0  0
   35.6403   27.8318   49.4210 H   0  0  0  0  0  0  0  0  0  0  0  0
   34.9689   29.5471   50.8451 H   0  0  0  0  0  0  0  0  0  0  0  0
   33.2727   29.5149   50.1052 H   0  0  0  0  0  0  0  0  0  0  0  0
   36.4188   31.2020   46.9198 H   0  0  0  0  0  0  0  0  0  0  0  0
   36.2546   30.7133   51.2005 H   0  0  0  0  0  0  0  0  0  0  0  0
   39.8559   31.9112   49.2593 H   0  0  0  0  0  0  0  0  0  0  0  0
   31.5556   28.1521   49.6597 H   0  0  0  0  0  0  0  0  0  0  0  0
   29.3878   27.1286   49.0216 H   0  0  0  0  0  0  0  0  0  0  0  0
   29.5439   25.6504   46.6832 H   0  0  0  0  0  0  0  0  0  0  0  0
  1  8  1  0
  1  6  1  0
  2  1  1  0
  3  2  1  0
  3  4  1  0
  4  5  1  0
  5  6  1  0
  7 12  2  0
  7  8  1  0
  8  9  2  0
  9 10  1  0
 11 10  2  0
 12 11  1  0
 13  4  1  0
 13 14  2  0
 15 14  1  0
 16 15  2  0
 17 16  1  0
 17 13  1  0
  1 18  1  1
  2 19  1  0
  2 20  1  0
  3 21  1  0
  3 22  1  0
  4 23  1  6
  5 24  1  0
  5 25  1  0
  6 26  1  0
  6 27  1  0
  7 28  1  0
  9 29  1  0
 11 30  1  0
 14 31  1  0
 15 32  1  0
 16 33  1  0
M  ISO  8  18  13  19  13  20  13  21  13  22  13  23  13  24  13  25  13
M  ISO  8  26  13  27  13  28  14  29  14  30  14  31  14  32  14  33  14
M  END
>  <minimizedAffinity>  (1) 
-5.08101225

>  <minimizedRMSD>  (1) 
1.39624321

$$$$
