
     RDKit          3D

 26 28  0  0  0  0  0  0  0  0999 V2000
   35.9570   29.6090   48.7870 C   0  0  0  0  0  0  0  0  0  0  0  0
   35.2430   30.4880   48.0370 C   0  0  0  0  0  0  0  0  0  0  0  0
   34.0900   29.8320   47.6150 C   0  0  0  0  0  0  0  0  0  0  0  0
   34.1830   28.5460   48.1570 C   0  0  0  0  0  0  0  0  0  0  0  0
   35.2980   28.4880   48.8280 O   0  0  0  0  0  0  0  0  0  0  0  0
   33.2430   27.4250   48.0350 C   0  0  0  0  0  0  0  0  0  0  0  0
   31.9660   27.3820   48.4370 C   0  0  0  0  0  0  0  0  0  0  0  0
   31.2230   26.2570   48.2490 C   0  0  0  0  0  0  0  0  0  0  0  0
   31.8760   25.1880   47.6240 C   0  0  0  0  0  0  0  0  0  0  0  0
   33.5850   25.8800   47.3290 S   0  0  0  0  0  0  0  0  0  0  0  0
   37.2270   29.9560   49.3940 C   0  0  0  0  0  0  0  0  0  0  0  0
   37.6320   29.3070   50.3840 O   0  0  0  0  0  0  0  0  0  0  0  0
   37.9720   31.0590   48.8070 C   0  0  0  0  0  0  0  0  0  0  0  0
   38.0620   32.2250   49.5700 C   0  0  0  0  0  0  0  0  0  0  0  0
   38.7720   33.3100   49.0340 C   0  0  0  0  0  0  0  0  0  0  0  0
   39.3310   33.1500   47.7930 N   0  0  0  0  0  0  0  0  0  0  0  0
   39.2210   32.0130   47.0910 C   0  0  0  0  0  0  0  0  0  0  0  0
   38.5440   30.9780   47.6000 N   0  0  0  0  0  0  0  0  0  0  0  0
   35.5239   31.5261   47.8059 H   0  0  0  0  0  0  0  0  0  0  0  0
   33.2806   30.2375   46.9902 H   0  0  0  0  0  0  0  0  0  0  0  0
   31.5152   28.2606   48.9217 H   0  0  0  0  0  0  0  0  0  0  0  0
   30.1726   26.1918   48.5690 H   0  0  0  0  0  0  0  0  0  0  0  0
   31.4821   24.1926   47.3708 H   0  0  0  0  0  0  0  0  0  0  0  0
   37.5904   32.2909   50.5616 H   0  0  0  0  0  0  0  0  0  0  0  0
   38.8761   34.2539   49.5892 H   0  0  0  0  0  0  0  0  0  0  0  0
   39.6869   31.9316   46.0979 H   0  0  0  0  0  0  0  0  0  0  0  0
  1  5  1  0
  1 11  1  0
  2  1  2  0
  3  2  1  0
  3  4  2  0
  4  5  1  0
  6  4  1  0
  6  7  2  0
  8  7  1  0
  9  8  2  0
 10  9  1  0
 10  6  1  0
 11 12  2  0
 13 11  1  0
 13 14  2  0
 15 14  1  0
 16 15  2  0
 17 18  2  0
 17 16  1  0
 18 13  1  0
  2 19  1  0
  3 20  1  0
  7 21  1  0
  8 22  1  0
  9 23  1  0
 14 24  1  0
 15 25  1  0
 17 26  1  0
M  ISO  8  19  14  20  14  21  14  22  14  23  14  24  14  25  14  26  14
M  END
>  <minimizedAffinity>  (1) 
-5.17122555

>  <minimizedRMSD>  (1) 
1.3759892

$$$$
