
     RDKit          3D

 32 34  0  0  0  0  0  0  0  0999 V2000
   34.5370   28.8710   46.6420 O   0  0  0  0  0  0  0  0  0  0  0  0
   34.0570   28.8190   48.0700 P   0  0  1  0  0  0  0  0  0  0  0  0
   34.7770   27.5390   48.9370 O   0  0  0  0  0  0  0  0  0  0  0  0
   34.4670   30.2360   48.9540 O   0  0  0  0  0  0  0  0  0  0  0  0
   35.7380   30.4610   49.4500 C   0  0  0  0  0  0  0  0  0  0  0  0
   36.1930   30.0500   50.7200 C   0  0  0  0  0  0  0  0  0  0  0  0
   37.5060   30.3610   51.0560 C   0  0  0  0  0  0  0  0  0  0  0  0
   38.2820   31.0380   50.1640 N   0  0  0  0  0  0  0  0  0  0  0  0
   37.8050   31.4150   48.9530 C   0  0  0  0  0  0  0  0  0  0  0  0
   36.5310   31.1230   48.6020 N   0  0  0  0  0  0  0  0  0  0  0  0
   32.3790   28.6310   48.0380 O   0  0  0  0  0  0  0  0  0  0  0  0
   31.7090   27.5570   47.4660 C   0  0  0  0  0  0  0  0  0  0  0  0
   31.9880   26.2100   47.5700 C   0  0  0  0  0  0  0  0  0  0  0  0
   31.2000   25.2870   46.9210 C   0  0  0  0  0  0  0  0  0  0  0  0
   30.1230   25.6650   46.1600 C   0  0  0  0  0  0  0  0  0  0  0  0
   29.8230   27.0020   46.0400 C   0  0  0  0  0  0  0  0  0  0  0  0
   28.7330   27.3360   45.2660 C   0  0  0  0  0  0  0  0  0  0  0  0
   28.3950   28.6520   45.1170 C   0  0  0  0  0  0  0  0  0  0  0  0
   29.1520   29.6200   45.7450 C   0  0  0  0  0  0  0  0  0  0  0  0
   30.2340   29.2410   46.5110 C   0  0  0  0  0  0  0  0  0  0  0  0
   30.6120   27.9270   46.6890 C   0  0  0  0  0  0  0  0  0  0  0  0
   34.6837   27.7049   49.9085 H   0  0  0  0  0  0  0  0  0  0  0  0
   35.5368   29.5063   51.4155 H   0  0  0  0  0  0  0  0  0  0  0  0
   37.9144   30.0632   52.0330 H   0  0  0  0  0  0  0  0  0  0  0  0
   38.4553   31.9601   48.2530 H   0  0  0  0  0  0  0  0  0  0  0  0
   32.8433   25.8725   48.1738 H   0  0  0  0  0  0  0  0  0  0  0  0
   31.4402   24.2177   47.0150 H   0  0  0  0  0  0  0  0  0  0  0  0
   29.5070   24.9083   45.6521 H   0  0  0  0  0  0  0  0  0  0  0  0
   28.1406   26.5512   44.7728 H   0  0  0  0  0  0  0  0  0  0  0  0
   27.5281   28.9367   44.5026 H   0  0  0  0  0  0  0  0  0  0  0  0
   28.8946   30.6838   45.6355 H   0  0  0  0  0  0  0  0  0  0  0  0
   30.8252   30.0262   47.0048 H   0  0  0  0  0  0  0  0  0  0  0  0
  2  1  2  0
  2  3  1  0
  2  4  1  0
  4  5  1  0
  5  6  2  0
  6  7  1  0
  8  7  2  0
  9  8  1  0
 10  9  2  0
 10  5  1  0
 11  2  1  0
 12 13  2  0
 12 11  1  0
 14 13  1  0
 15 14  2  0
 16 15  1  0
 16 21  2  0
 17 16  1  0
 18 17  2  0
 18 19  1  0
 19 20  2  0
 20 21  1  0
 21 12  1  0
  3 22  1  0
  6 23  1  0
  7 24  1  0
  9 25  1  0
 13 26  1  0
 14 27  1  0
 15 28  1  0
 17 29  1  0
 18 30  1  0
 19 31  1  0
 20 32  1  0
M  ISO  8  22   3  23  14  24  14  25  14  26  14  27  14  28  14  29  14
M  ISO  3  30  14  31  14  32  14
M  END
>  <minimizedAffinity>  (1) 
-4.06796646

>  <minimizedRMSD>  (1) 
5.19641304

$$$$
