
     RDKit          3D

 50 53  0  0  0  0  0  0  0  0999 V2000
   34.3980   29.1640   48.7830 C   0  0  0  0  0  0  0  0  0  0  0  0
   37.1240   30.2940   48.7170 Cl  0  0  0  0  0  0  0  0  0  0  0  0
   36.0950   30.1490   47.2900 C   0  0  0  0  0  0  0  0  0  0  0  0
   36.5630   30.5780   46.0840 C   0  0  0  0  0  0  0  0  0  0  0  0
   35.7760   30.4700   44.9710 C   0  0  0  0  0  0  0  0  0  0  0  0
   34.5140   29.9260   45.0980 C   0  0  0  0  0  0  0  0  0  0  0  0
   34.0800   29.5010   46.3570 C   0  0  0  0  0  0  0  0  0  0  0  0
   34.8460   29.5970   47.4810 C   0  0  0  0  0  0  0  0  0  0  0  0
   39.5420   32.7100   46.5210 C   0  0  0  0  0  0  0  0  0  0  0  0
   40.4620   32.0800   45.6110 C   0  0  0  0  0  0  0  0  0  0  0  0
   40.0130   30.9720   44.9080 C   0  0  0  0  0  0  0  0  0  0  0  0
   38.7430   30.5330   45.1030 N   0  0  0  0  0  0  0  0  0  0  0  0
   37.9000   31.1480   45.9670 C   0  0  0  0  0  0  0  0  0  0  0  0
   38.3070   32.2160   46.6570 N   0  0  0  0  0  0  0  0  0  0  0  0
   40.9380   30.3810   44.0280 N   0  0  0  0  0  0  0  0  0  0  0  0
   33.6460   27.9250   48.9000 C   0  0  0  0  0  0  0  0  0  0  0  0
   32.3420   28.1300   49.2830 O   0  0  0  0  0  0  0  0  0  0  0  0
   31.9500   26.6260   47.1620 O   0  0  0  0  0  0  0  0  0  0  0  0
   31.2730   27.5850   48.0740 P   0  0  2  0  0  0  0  0  0  0  0  0
   30.7670   29.0220   47.2840 O   0  0  0  0  0  0  0  0  0  0  0  0
   29.9370   26.8730   48.7310 O   0  0  0  0  0  0  0  0  0  0  0  0
   28.8530   27.2500   49.3460 C   0  0  0  0  0  0  0  0  0  0  0  0
   29.0870   26.8680   50.6900 C   0  0  0  0  0  0  0  0  0  0  0  0
   28.1510   27.0920   51.7200 C   0  0  0  0  0  0  0  0  0  0  0  0
   26.9640   27.7100   51.3760 C   0  0  0  0  0  0  0  0  0  0  0  0
   26.6560   28.1110   50.0990 C   0  0  0  0  0  0  0  0  0  0  0  0
   25.5060   28.7310   49.6650 C   0  0  0  0  0  0  0  0  0  0  0  0
   25.2960   29.0970   48.3510 C   0  0  0  0  0  0  0  0  0  0  0  0
   26.3070   28.8170   47.4260 C   0  0  0  0  0  0  0  0  0  0  0  0
   27.4490   28.1990   47.8680 C   0  0  0  0  0  0  0  0  0  0  0  0
   27.6340   27.8480   49.1750 C   0  0  0  0  0  0  0  0  0  0  0  0
   33.7615   29.9653   49.1864 H   0  0  0  0  0  0  0  0  0  0  0  0
   35.3325   28.9542   49.3241 H   0  0  0  0  0  0  0  0  0  0  0  0
   36.1424   30.8108   43.9914 H   0  0  0  0  0  0  0  0  0  0  0  0
   33.8584   29.8281   44.2202 H   0  0  0  0  0  0  0  0  0  0  0  0
   33.0725   29.0685   46.4452 H   0  0  0  0  0  0  0  0  0  0  0  0
   39.8527   33.5918   47.1006 H   0  0  0  0  0  0  0  0  0  0  0  0
   41.4844   32.4635   45.4779 H   0  0  0  0  0  0  0  0  0  0  0  0
   41.8854   30.7746   43.9361 H   0  0  0  0  0  0  0  0  0  0  0  0
   40.6678   29.5547   43.4756 H   0  0  0  0  0  0  0  0  0  0  0  0
   33.6505   27.4172   47.9242 H   0  0  0  0  0  0  0  0  0  0  0  0
   34.1289   27.3155   49.6781 H   0  0  0  0  0  0  0  0  0  0  0  0
   30.5270   29.7036   47.9607 H   0  0  0  0  0  0  0  0  0  0  0  0
   30.0386   26.3762   50.9402 H   0  0  0  0  0  0  0  0  0  0  0  0
   28.3574   26.7869   52.7565 H   0  0  0  0  0  0  0  0  0  0  0  0
   26.2241   27.8910   52.1696 H   0  0  0  0  0  0  0  0  0  0  0  0
   24.7167   28.9449   50.4007 H   0  0  0  0  0  0  0  0  0  0  0  0
   24.3641   29.5927   48.0414 H   0  0  0  0  0  0  0  0  0  0  0  0
   26.1888   29.0868   46.3662 H   0  0  0  0  0  0  0  0  0  0  0  0
   28.2458   27.9778   47.1426 H   0  0  0  0  0  0  0  0  0  0  0  0
  1 16  1  0
  3  8  2  0
  3  2  1  0
  4  3  1  0
  5  6  1  0
  5  4  2  0
  6  7  2  0
  7  8  1  0
  8  1  1  0
  9 14  2  0
 10  9  1  0
 11 12  1  0
 11 10  2  0
 12 13  2  0
 13  4  1  0
 13 14  1  0
 15 11  1  0
 16 17  1  0
 19 18  2  0
 19 21  1  0
 19 17  1  0
 20 19  1  0
 21 22  1  0
 22 23  2  0
 23 24  1  0
 25 24  2  0
 26 25  1  0
 27 26  2  0
 28 27  1  0
 29 30  1  0
 29 28  2  0
 30 31  2  0
 31 22  1  0
 31 26  1  0
  1 32  1  0
  1 33  1  0
  5 34  1  0
  6 35  1  0
  7 36  1  0
  9 37  1  0
 10 38  1  0
 15 39  1  0
 15 40  1  0
 16 41  1  0
 16 42  1  0
 20 43  1  0
 23 44  1  0
 24 45  1  0
 25 46  1  0
 27 47  1  0
 28 48  1  0
 29 49  1  0
 30 50  1  0
M  ISO  8  32   8  33   8  34  14  35  14  36  14  37  14  38  14  41   8
M  ISO  8  42   8  43   3  44  14  45  14  46  14  47  14  48  14  49  14
M  ISO  1  50  14
M  END
>  <minimizedAffinity>  (1) 
-7.55351305

>  <minimizedRMSD>  (1) 
2.82268286

$$$$
