
     RDKit          3D

 33 35  0  0  0  0  0  0  0  0999 V2000
   35.7750   29.3290   49.1440 C   0  0  0  0  0  0  0  0  0  0  0  0
   34.5970   29.9850   48.4770 C   0  0  0  0  0  0  0  0  0  0  0  0
   32.1980   27.0930   48.1580 C   0  0  0  0  0  0  0  0  0  0  0  0
   33.0900   27.9730   48.7490 C   0  0  0  0  0  0  0  0  0  0  0  0
   33.6370   28.9770   47.9860 C   0  0  0  0  0  0  0  0  0  0  0  0
   33.2570   29.0500   46.6620 N   0  0  0  0  0  0  0  0  0  0  0  0
   32.3910   28.1880   46.1030 C   0  0  0  0  0  0  0  0  0  0  0  0
   31.8640   27.2090   46.8630 N   0  0  0  0  0  0  0  0  0  0  0  0
   36.9980   30.5290   49.6880 S   0  0  0  0  0  0  0  0  0  0  0  0
   37.9280   31.0850   48.2520 C   0  0  0  0  0  0  0  0  0  0  0  0
   37.9130   30.3110   47.0930 C   0  0  0  0  0  0  0  0  0  0  0  0
   38.6290   30.7290   45.9720 C   0  0  0  0  0  0  0  0  0  0  0  0
   39.3560   31.9060   45.9960 C   0  0  0  0  0  0  0  0  0  0  0  0
   39.3680   32.6590   47.1310 C   0  0  0  0  0  0  0  0  0  0  0  0
   40.0880   33.8440   47.1840 C   0  0  0  0  0  0  0  0  0  0  0  0
   40.0740   34.5830   48.3590 C   0  0  0  0  0  0  0  0  0  0  0  0
   39.3680   34.1870   49.4910 C   0  0  0  0  0  0  0  0  0  0  0  0
   38.6520   33.0020   49.4270 C   0  0  0  0  0  0  0  0  0  0  0  0
   38.6630   32.2550   48.2450 C   0  0  0  0  0  0  0  0  0  0  0  0
   36.2482   28.6390   48.4299 H   0  0  0  0  0  0  0  0  0  0  0  0
   35.4071   28.7937   50.0318 H   0  0  0  0  0  0  0  0  0  0  0  0
   34.0916   30.6395   49.2024 H   0  0  0  0  0  0  0  0  0  0  0  0
   34.9611   30.5689   47.6188 H   0  0  0  0  0  0  0  0  0  0  0  0
   31.7559   26.2855   48.7601 H   0  0  0  0  0  0  0  0  0  0  0  0
   33.3561   27.8699   49.8113 H   0  0  0  0  0  0  0  0  0  0  0  0
   32.1169   28.2805   45.0417 H   0  0  0  0  0  0  0  0  0  0  0  0
   37.3383   29.3736   47.0628 H   0  0  0  0  0  0  0  0  0  0  0  0
   38.6158   30.1163   45.0585 H   0  0  0  0  0  0  0  0  0  0  0  0
   39.9183   32.2302   45.1079 H   0  0  0  0  0  0  0  0  0  0  0  0
   40.6595   34.1915   46.3107 H   0  0  0  0  0  0  0  0  0  0  0  0
   40.6456   35.5221   48.3970 H   0  0  0  0  0  0  0  0  0  0  0  0
   39.3779   34.7952   50.4075 H   0  0  0  0  0  0  0  0  0  0  0  0
   38.0798   32.6520   50.2989 H   0  0  0  0  0  0  0  0  0  0  0  0
  1  9  1  0
  2  1  1  0
  3  4  2  0
  5  2  1  0
  5  4  1  0
  6  5  2  0
  7  6  1  0
  7  8  2  0
  8  3  1  0
 10  9  1  0
 11 10  2  0
 12 13  2  0
 12 11  1  0
 13 14  1  0
 14 15  1  0
 14 19  2  0
 15 16  2  0
 16 17  1  0
 18 17  2  0
 19 10  1  0
 19 18  1  0
  1 20  1  0
  1 21  1  0
  2 22  1  0
  2 23  1  0
  3 24  1  0
  4 25  1  0
  7 26  1  0
 11 27  1  0
 12 28  1  0
 13 29  1  0
 15 30  1  0
 16 31  1  0
 17 32  1  0
 18 33  1  0
M  ISO  8  20   8  21   8  22   8  23   8  24  14  25  14  26  14  27  14
M  ISO  6  28  14  29  14  30  14  31  14  32  14  33  14
M  END
>  <minimizedAffinity>  (1) 
-5.18139029

>  <minimizedRMSD>  (1) 
4.7580514

$$$$
