
     RDKit          3D

 28 30  0  0  0  0  0  0  0  0999 V2000
   34.1840   29.4000   49.6090 C   0  0  0  0  0  0  0  0  0  0  0  0
   33.3500   29.7020   50.5190 O   0  0  0  0  0  0  0  0  0  0  0  0
   33.9590   28.5670   48.4290 C   0  0  0  0  0  0  0  0  0  0  0  0
   34.1870   27.1880   48.4460 C   0  0  0  0  0  0  0  0  0  0  0  0
   33.9970   26.3560   47.3660 C   0  0  0  0  0  0  0  0  0  0  0  0
   33.5530   26.9000   46.1830 C   0  0  0  0  0  0  0  0  0  0  0  0
   33.3110   28.2540   46.1080 C   0  0  0  0  0  0  0  0  0  0  0  0
   32.8650   28.7990   44.9240 C   0  0  0  0  0  0  0  0  0  0  0  0
   32.6000   30.1450   44.7760 C   0  0  0  0  0  0  0  0  0  0  0  0
   32.8110   30.9180   45.8900 C   0  0  0  0  0  0  0  0  0  0  0  0
   33.2580   30.3640   47.0730 C   0  0  0  0  0  0  0  0  0  0  0  0
   33.5160   29.0270   47.2070 C   0  0  0  0  0  0  0  0  0  0  0  0
   37.7100   29.5430   50.4520 C   0  0  0  0  0  0  0  0  0  0  0  0
   38.1920   30.6500   49.7450 C   0  0  0  0  0  0  0  0  0  0  0  0
   37.2810   31.3660   48.9600 C   0  0  0  0  0  0  0  0  0  0  0  0
   35.9960   30.9340   48.9400 N   0  0  0  0  0  0  0  0  0  0  0  0
   35.5560   29.8740   49.6220 C   0  0  0  0  0  0  0  0  0  0  0  0
   36.4110   29.1740   50.3820 N   0  0  0  0  0  0  0  0  0  0  0  0
   34.5418   26.7378   49.3848 H   0  0  0  0  0  0  0  0  0  0  0  0
   34.1963   25.2773   47.4473 H   0  0  0  0  0  0  0  0  0  0  0  0
   33.3925   26.2587   45.3038 H   0  0  0  0  0  0  0  0  0  0  0  0
   32.7139   28.1338   44.0611 H   0  0  0  0  0  0  0  0  0  0  0  0
   32.2428   30.5707   43.8267 H   0  0  0  0  0  0  0  0  0  0  0  0
   32.6203   32.0002   45.8395 H   0  0  0  0  0  0  0  0  0  0  0  0
   33.4126   31.0224   47.9406 H   0  0  0  0  0  0  0  0  0  0  0  0
   38.4022   28.9607   51.0779 H   0  0  0  0  0  0  0  0  0  0  0  0
   39.2495   30.9470   49.8040 H   0  0  0  0  0  0  0  0  0  0  0  0
   37.5958   32.2465   48.3808 H   0  0  0  0  0  0  0  0  0  0  0  0
  1 17  1  0
  1  2  2  0
  3  4  2  0
  3  1  1  0
  5  4  1  0
  6  5  2  0
  7  6  1  0
  7 12  2  0
  8  7  1  0
  9  8  2  0
  9 10  1  0
 10 11  2  0
 11 12  1  0
 12  3  1  0
 14 13  2  0
 15 14  1  0
 16 15  2  0
 16 17  1  0
 17 18  2  0
 18 13  1  0
  4 19  1  0
  5 20  1  0
  6 21  1  0
  8 22  1  0
  9 23  1  0
 10 24  1  0
 11 25  1  0
 13 26  1  0
 14 27  1  0
 15 28  1  0
M  ISO  8  19  14  20  14  21  14  22  14  23  14  24  14  25  14  26  14
M  ISO  2  27  14  28  14
M  END
>  <minimizedAffinity>  (1) 
-4.30906534

>  <minimizedRMSD>  (1) 
3.17067409

$$$$
