
     RDKit          3D

 40 43  0  0  0  0  0  0  0  0999 V2000
   33.9540   28.4200   45.3780 C   0  0  0  0  0  0  0  0  0  0  0  0
   34.0290   27.8550   44.1210 C   0  0  0  0  0  0  0  0  0  0  0  0
   34.9070   28.2320   43.1250 C   0  0  0  0  0  0  0  0  0  0  0  0
   35.8030   29.2800   43.4110 C   0  0  0  0  0  0  0  0  0  0  0  0
   35.7420   29.8630   44.6740 C   0  0  0  0  0  0  0  0  0  0  0  0
   34.8490   29.4540   45.6370 C   0  0  0  0  0  0  0  0  0  0  0  0
   33.3080   26.7100   46.9780 C   0  0  0  0  0  0  0  0  0  0  0  0
   32.9710   27.8900   46.2810 C   0  0  0  0  0  0  0  0  0  0  0  0
   31.7130   28.4410   46.5260 C   0  0  0  0  0  0  0  0  0  0  0  0
   30.8780   27.8320   47.4120 N   0  0  0  0  0  0  0  0  0  0  0  0
   31.2440   26.6840   48.0710 C   0  0  0  0  0  0  0  0  0  0  0  0
   32.4690   26.1260   47.8460 N   0  0  0  0  0  0  0  0  0  0  0  0
   31.2200   29.6880   45.8610 C   0  0  0  0  0  0  0  0  0  0  0  0
   29.8810   29.9070   46.2270 F   0  0  0  0  0  0  0  0  0  0  0  0
   31.9320   30.8110   46.0880 F   0  0  0  0  0  0  0  0  0  0  0  0
   31.1330   29.4630   44.4830 F   0  0  0  0  0  0  0  0  0  0  0  0
   34.7410   30.1710   47.2590 S   0  0  0  0  0  0  0  0  0  0  0  0
   36.3160   30.6900   47.8820 C   0  0  0  0  0  0  0  0  0  0  0  0
   37.2630   31.3660   47.1400 C   0  0  0  0  0  0  0  0  0  0  0  0
   38.4570   31.7070   47.7710 C   0  0  0  0  0  0  0  0  0  0  0  0
   38.7100   31.3920   49.0920 C   0  0  0  0  0  0  0  0  0  0  0  0
   37.7520   30.7130   49.8320 C   0  0  0  0  0  0  0  0  0  0  0  0
   38.0000   30.3960   51.1530 C   0  0  0  0  0  0  0  0  0  0  0  0
   37.0830   29.7300   51.9060 C   0  0  0  0  0  0  0  0  0  0  0  0
   35.8700   29.3660   51.3180 C   0  0  0  0  0  0  0  0  0  0  0  0
   35.6510   29.6960   49.9960 C   0  0  0  0  0  0  0  0  0  0  0  0
   36.5570   30.3700   49.2040 C   0  0  0  0  0  0  0  0  0  0  0  0
   33.3308   27.0359   43.8940 H   0  0  0  0  0  0  0  0  0  0  0  0
   34.9068   27.7327   42.1449 H   0  0  0  0  0  0  0  0  0  0  0  0
   36.5282   29.6271   42.6603 H   0  0  0  0  0  0  0  0  0  0  0  0
   36.4355   30.6833   44.9111 H   0  0  0  0  0  0  0  0  0  0  0  0
   34.2933   26.2533   46.8032 H   0  0  0  0  0  0  0  0  0  0  0  0
   30.5485   26.2134   48.7815 H   0  0  0  0  0  0  0  0  0  0  0  0
   37.0812   31.6265   46.0869 H   0  0  0  0  0  0  0  0  0  0  0  0
   39.2254   32.2460   47.1973 H   0  0  0  0  0  0  0  0  0  0  0  0
   39.6659   31.6779   49.5551 H   0  0  0  0  0  0  0  0  0  0  0  0
   38.9589   30.6880   51.6060 H   0  0  0  0  0  0  0  0  0  0  0  0
   37.2931   29.4832   52.9572 H   0  0  0  0  0  0  0  0  0  0  0  0
   35.1049   28.8274   51.8964 H   0  0  0  0  0  0  0  0  0  0  0  0
   34.6917   29.4025   49.5447 H   0  0  0  0  0  0  0  0  0  0  0  0
  1  6  1  0
  1  8  1  0
  2  1  2  0
  3  4  2  0
  3  2  1  0
  4  5  1  0
  5  6  2  0
  6 17  1  0
  7 12  2  0
  8  9  2  0
  8  7  1  0
  9 10  1  0
 10 11  2  0
 12 11  1  0
 13 15  1  0
 13 14  1  0
 13  9  1  0
 16 13  1  0
 17 18  1  0
 18 27  2  0
 19 20  2  0
 19 18  1  0
 20 21  1  0
 21 22  2  0
 22 23  1  0
 23 24  2  0
 25 24  1  0
 26 25  2  0
 27 22  1  0
 27 26  1  0
  2 28  1  0
  3 29  1  0
  4 30  1  0
  5 31  1  0
  7 32  1  0
 11 33  1  0
 19 34  1  0
 20 35  1  0
 21 36  1  0
 23 37  1  0
 24 38  1  0
 25 39  1  0
 26 40  1  0
M  ISO  8  28  14  29  14  30  14  31  14  32  14  33  14  34  14  35  14
M  ISO  5  36  14  37  14  38  14  39  14  40  14
M  END
>  <minimizedAffinity>  (1) 
-6.14778566

>  <minimizedRMSD>  (1) 
5.83632946

$$$$
