
     RDKit          3D

 38 41  0  0  0  0  0  0  0  0999 V2000
   38.7610   31.6380   47.6850 C   0  0  0  0  0  0  0  0  0  0  0  0
   38.3070   31.9660   48.9570 C   0  0  0  0  0  0  0  0  0  0  0  0
   38.6900   33.2370   49.3820 C   0  0  0  0  0  0  0  0  0  0  0  0
   39.4610   34.0890   48.5840 C   0  0  0  0  0  0  0  0  0  0  0  0
   39.8630   33.6610   47.3240 C   0  0  0  0  0  0  0  0  0  0  0  0
   39.5040   32.4050   46.8630 C   0  0  0  0  0  0  0  0  0  0  0  0
   36.1680   30.8680   49.4480 C   0  0  0  0  0  0  0  0  0  0  0  0
   37.5220   31.1090   49.7760 C   0  0  0  0  0  0  0  0  0  0  0  0
   38.0260   30.4830   50.9070 C   0  0  0  0  0  0  0  0  0  0  0  0
   37.1970   29.6760   51.6330 N   0  0  0  0  0  0  0  0  0  0  0  0
   35.8980   29.4760   51.2740 C   0  0  0  0  0  0  0  0  0  0  0  0
   35.3820   30.0730   50.1790 N   0  0  0  0  0  0  0  0  0  0  0  0
   38.4210   30.3640   47.1710 O   0  0  0  0  0  0  0  0  0  0  0  0
   39.9270   32.0330   45.6130 O   0  0  0  0  0  0  0  0  0  0  0  0
   39.0570   32.0270   44.5610 C   0  0  0  0  0  0  0  0  0  0  0  0
   37.8370   32.6370   44.3630 C   0  0  0  0  0  0  0  0  0  0  0  0
   37.1080   32.4970   43.2030 C   0  0  0  0  0  0  0  0  0  0  0  0
   37.5660   31.7240   42.1560 C   0  0  0  0  0  0  0  0  0  0  0  0
   38.7990   31.0960   42.3290 C   0  0  0  0  0  0  0  0  0  0  0  0
   39.2060   30.3410   41.2550 C   0  0  0  0  0  0  0  0  0  0  0  0
   40.4000   29.6850   41.3270 C   0  0  0  0  0  0  0  0  0  0  0  0
   41.1670   29.7910   42.4630 C   0  0  0  0  0  0  0  0  0  0  0  0
   40.7290   30.5540   43.5120 C   0  0  0  0  0  0  0  0  0  0  0  0
   39.5320   31.2420   43.5040 C   0  0  0  0  0  0  0  0  0  0  0  0
   38.3755   33.5817   50.3781 H   0  0  0  0  0  0  0  0  0  0  0  0
   39.7460   35.0866   48.9496 H   0  0  0  0  0  0  0  0  0  0  0  0
   40.4697   34.3236   46.6893 H   0  0  0  0  0  0  0  0  0  0  0  0
   35.7455   31.3540   48.5562 H   0  0  0  0  0  0  0  0  0  0  0  0
   39.0719   30.6335   51.2127 H   0  0  0  0  0  0  0  0  0  0  0  0
   35.2612   28.8192   51.8848 H   0  0  0  0  0  0  0  0  0  0  0  0
   38.7273   30.0966   46.2683 H   0  0  0  0  0  0  0  0  0  0  0  0
   37.4269   33.2643   45.1682 H   0  0  0  0  0  0  0  0  0  0  0  0
   36.1406   33.0121   43.1093 H   0  0  0  0  0  0  0  0  0  0  0  0
   36.9859   31.6085   41.2285 H   0  0  0  0  0  0  0  0  0  0  0  0
   38.5801   30.2670   40.3534 H   0  0  0  0  0  0  0  0  0  0  0  0
   40.7472   29.0744   40.4805 H   0  0  0  0  0  0  0  0  0  0  0  0
   42.1303   29.2640   42.5290 H   0  0  0  0  0  0  0  0  0  0  0  0
   41.3638   30.6224   44.4078 H   0  0  0  0  0  0  0  0  0  0  0  0
  1  2  2  0
  2  3  1  0
  2  8  1  0
  4  3  2  0
  5  4  1  0
  6  5  2  0
  6  1  1  0
  7  8  2  0
  7 12  1  0
  8  9  1  0
  9 10  2  0
 11 10  1  0
 12 11  2  0
 13  1  1  0
 14  6  1  0
 15 14  1  0
 16 15  2  0
 17 16  1  0
 18 19  1  0
 18 17  2  0
 19 24  2  0
 20 21  2  0
 20 19  1  0
 21 22  1  0
 22 23  2  0
 24 23  1  0
 24 15  1  0
  3 25  1  0
  4 26  1  0
  5 27  1  0
  7 28  1  0
  9 29  1  0
 11 30  1  0
 13 31  1  0
 16 32  1  0
 17 33  1  0
 18 34  1  0
 20 35  1  0
 21 36  1  0
 22 37  1  0
 23 38  1  0
M  ISO  8  25  14  26  14  27  14  28  14  29  14  30  14  31   3  32  14
M  ISO  6  33  14  34  14  35  14  36  14  37  14  38  14
M  END
>  <minimizedAffinity>  (1) 
-6.62001991

>  <minimizedRMSD>  (1) 
0.507452905

$$$$
