
     RDKit          3D

 43 47  0  0  0  0  0  0  0  0999 V2000
   38.8460   30.9010   45.8600 C   0  0  0  0  0  0  0  0  0  0  0  0
   40.0270   31.5870   46.1150 C   0  0  0  0  0  0  0  0  0  0  0  0
   40.8760   31.5390   45.0110 C   0  0  0  0  0  0  0  0  0  0  0  0
   40.1520   30.8100   44.1210 N   0  0  0  0  0  0  0  0  0  0  0  0
   38.9840   30.4390   44.6010 N   0  0  0  0  0  0  0  0  0  0  0  0
   37.7190   30.7320   46.7570 C   0  0  0  0  0  0  0  0  0  0  0  0
   37.9350   30.9260   48.1500 C   0  0  0  0  0  0  0  0  0  0  0  0
   36.8360   30.7580   48.9910 C   0  0  0  0  0  0  0  0  0  0  0  0
   35.6400   30.4230   48.4440 N   0  0  0  0  0  0  0  0  0  0  0  0
   35.4660   30.2460   47.1160 C   0  0  0  0  0  0  0  0  0  0  0  0
   36.5160   30.4040   46.2850 N   0  0  0  0  0  0  0  0  0  0  0  0
   37.0410   30.9570   50.4590 C   0  0  0  0  0  0  0  0  0  0  0  0
   36.5500   32.2090   50.7310 F   0  0  0  0  0  0  0  0  0  0  0  0
   36.3440   30.0160   51.2190 F   0  0  0  0  0  0  0  0  0  0  0  0
   38.3850   30.9220   50.8050 F   0  0  0  0  0  0  0  0  0  0  0  0
   40.5340   30.4400   42.7650 C   0  0  0  0  0  0  0  0  0  0  0  0
   40.1450   31.1910   41.6510 C   0  0  0  0  0  0  0  0  0  0  0  0
   40.5380   30.8070   40.4060 C   0  0  0  0  0  0  0  0  0  0  0  0
   41.3310   29.6560   40.2330 C   0  0  0  0  0  0  0  0  0  0  0  0
   41.5030   29.1240   41.9960 S   0  0  0  0  0  0  0  0  0  0  0  0
   41.9960   28.9160   39.2760 C   0  0  0  0  0  0  0  0  0  0  0  0
   41.5220   27.6270   38.9720 C   0  0  0  0  0  0  0  0  0  0  0  0
   42.0940   26.8010   38.0300 C   0  0  0  0  0  0  0  0  0  0  0  0
   43.1860   27.2430   37.3390 C   0  0  0  0  0  0  0  0  0  0  0  0
   43.7250   28.4850   37.5580 C   0  0  0  0  0  0  0  0  0  0  0  0
   44.8070   28.8980   36.8160 C   0  0  0  0  0  0  0  0  0  0  0  0
   45.3260   30.1610   37.0130 C   0  0  0  0  0  0  0  0  0  0  0  0
   44.6990   30.9400   37.9700 C   0  0  0  0  0  0  0  0  0  0  0  0
   43.6190   30.4790   38.6850 C   0  0  0  0  0  0  0  0  0  0  0  0
   43.0900   29.2320   38.5100 C   0  0  0  0  0  0  0  0  0  0  0  0
   40.2603   32.0987   47.0604 H   0  0  0  0  0  0  0  0  0  0  0  0
   41.8770   31.9789   44.8905 H   0  0  0  0  0  0  0  0  0  0  0  0
   38.9251   31.1965   48.5456 H   0  0  0  0  0  0  0  0  0  0  0  0
   34.4774   29.9756   46.7166 H   0  0  0  0  0  0  0  0  0  0  0  0
   39.5234   32.0892   41.7808 H   0  0  0  0  0  0  0  0  0  0  0  0
   40.2346   31.3989   39.5299 H   0  0  0  0  0  0  0  0  0  0  0  0
   40.6424   27.2568   39.5190 H   0  0  0  0  0  0  0  0  0  0  0  0
   41.6779   25.8011   37.8372 H   0  0  0  0  0  0  0  0  0  0  0  0
   43.6456   26.5852   36.5866 H   0  0  0  0  0  0  0  0  0  0  0  0
   45.2557   28.2254   36.0701 H   0  0  0  0  0  0  0  0  0  0  0  0
   46.1906   30.5287   36.4410 H   0  0  0  0  0  0  0  0  0  0  0  0
   45.0750   31.9554   38.1637 H   0  0  0  0  0  0  0  0  0  0  0  0
   43.1604   31.1442   39.4314 H   0  0  0  0  0  0  0  0  0  0  0  0
  1  2  1  0
  1  6  1  0
  3  2  2  0
  4  5  1  0
  4  3  1  0
  5  1  2  0
  6  7  2  0
  7  8  1  0
  8 12  1  0
  9  8  2  0
 10  9  1  0
 11  6  1  0
 11 10  2  0
 12 13  1  0
 12 15  1  0
 12 14  1  0
 16  4  1  0
 17 16  2  0
 18 17  1  0
 19 18  2  0
 19 20  1  0
 20 16  1  0
 21 19  1  0
 22 21  2  0
 23 22  1  0
 24 25  1  0
 24 23  2  0
 25 30  2  0
 26 27  2  0
 26 25  1  0
 27 28  1  0
 28 29  2  0
 30 29  1  0
 30 21  1  0
  2 31  1  0
  3 32  1  0
  7 33  1  0
 10 34  1  0
 17 35  1  0
 18 36  1  0
 22 37  1  0
 23 38  1  0
 24 39  1  0
 26 40  1  0
 27 41  1  0
 28 42  1  0
 29 43  1  0
M  ISO  8  31  14  32  14  33  14  34  14  35  14  36  14  37  14  38  14
M  ISO  5  39  14  40  14  41  14  42  14  43  14
M  END
>  <minimizedAffinity>  (1) 
-6.82521915

>  <minimizedRMSD>  (1) 
0.159675181

$$$$
