
     RDKit          3D

 36 39  0  0  0  0  0  0  0  0999 V2000
   38.4340   30.8250   47.3610 F   0  0  0  0  0  0  0  0  0  0  0  0
   37.1780   30.5340   46.8800 C   0  0  0  0  0  0  0  0  0  0  0  0
   36.1530   30.1280   47.7130 C   0  0  0  0  0  0  0  0  0  0  0  0
   34.9090   29.8470   47.1830 C   0  0  0  0  0  0  0  0  0  0  0  0
   34.6760   29.9710   45.8150 C   0  0  0  0  0  0  0  0  0  0  0  0
   35.7350   30.3800   45.0270 C   0  0  0  0  0  0  0  0  0  0  0  0
   36.9770   30.6650   45.5190 C   0  0  0  0  0  0  0  0  0  0  0  0
   38.1000   31.1030   44.6640 C   0  0  0  0  0  0  0  0  0  0  0  0
   38.3810   32.4590   44.6770 C   0  0  0  0  0  0  0  0  0  0  0  0
   39.4180   32.9850   43.9100 C   0  0  0  0  0  0  0  0  0  0  0  0
   40.1500   32.1050   43.1400 C   0  0  0  0  0  0  0  0  0  0  0  0
   39.8720   30.7560   43.1250 C   0  0  0  0  0  0  0  0  0  0  0  0
   40.6070   29.8630   42.3510 C   0  0  0  0  0  0  0  0  0  0  0  0
   40.2630   28.5260   42.3930 C   0  0  0  0  0  0  0  0  0  0  0  0
   39.2360   28.0100   43.1550 C   0  0  0  0  0  0  0  0  0  0  0  0
   38.4910   28.9000   43.9360 C   0  0  0  0  0  0  0  0  0  0  0  0
   38.8470   30.2310   43.8820 C   0  0  0  0  0  0  0  0  0  0  0  0
   37.5910   30.7750   49.5160 C   0  0  0  0  0  0  0  0  0  0  0  0
   36.4690   30.0240   49.1160 C   0  0  0  0  0  0  0  0  0  0  0  0
   35.8020   29.2830   50.0800 C   0  0  0  0  0  0  0  0  0  0  0  0
   36.2640   29.3160   51.3670 N   0  0  0  0  0  0  0  0  0  0  0  0
   37.3390   30.0430   51.7240 C   0  0  0  0  0  0  0  0  0  0  0  0
   38.0000   30.7690   50.8020 N   0  0  0  0  0  0  0  0  0  0  0  0
   34.0945   29.5222   47.8472 H   0  0  0  0  0  0  0  0  0  0  0  0
   33.6896   29.7523   45.3800 H   0  0  0  0  0  0  0  0  0  0  0  0
   35.5687   30.4816   43.9444 H   0  0  0  0  0  0  0  0  0  0  0  0
   37.7758   33.1313   45.3029 H   0  0  0  0  0  0  0  0  0  0  0  0
   39.6447   34.0614   43.9180 H   0  0  0  0  0  0  0  0  0  0  0  0
   40.9755   32.4899   42.5232 H   0  0  0  0  0  0  0  0  0  0  0  0
   41.4395   30.2126   41.7227 H   0  0  0  0  0  0  0  0  0  0  0  0
   40.8472   27.8261   41.7775 H   0  0  0  0  0  0  0  0  0  0  0  0
   39.0099   26.9335   43.1489 H   0  0  0  0  0  0  0  0  0  0  0  0
   37.6581   28.5533   44.5653 H   0  0  0  0  0  0  0  0  0  0  0  0
   38.1395   31.3724   48.7729 H   0  0  0  0  0  0  0  0  0  0  0  0
   34.9200   28.6814   49.8152 H   0  0  0  0  0  0  0  0  0  0  0  0
   37.6782   30.0442   52.7704 H   0  0  0  0  0  0  0  0  0  0  0  0
  2  1  1  0
  2  3  2  0
  3 19  1  0
  4  3  1  0
  5  4  2  0
  6  7  2  0
  6  5  1  0
  7  2  1  0
  8  9  2  0
  8  7  1  0
 10  9  1  0
 11 10  2  0
 12 11  1  0
 12 17  2  0
 13 14  2  0
 13 12  1  0
 14 15  1  0
 15 16  2  0
 17 16  1  0
 17  8  1  0
 18 23  2  0
 19 18  1  0
 19 20  2  0
 20 21  1  0
 21 22  2  0
 23 22  1  0
  4 24  1  0
  5 25  1  0
  6 26  1  0
  9 27  1  0
 10 28  1  0
 11 29  1  0
 13 30  1  0
 14 31  1  0
 15 32  1  0
 16 33  1  0
 18 34  1  0
 20 35  1  0
 22 36  1  0
M  ISO  8  24  14  25  14  26  14  27  14  28  14  29  14  30  14  31  14
M  ISO  5  32  14  33  14  34  14  35  14  36  14
M  END
>  <minimizedAffinity>  (1) 
-6.6178298

>  <minimizedRMSD>  (1) 
6.7083931

$$$$
