
     RDKit          3D

 29 31  0  0  0  0  0  0  0  0999 V2000
   37.9540   32.3410   49.3900 C   0  0  0  0  0  0  0  0  0  0  0  0
   38.9510   32.8590   48.5080 C   0  0  0  0  0  0  0  0  0  0  0  0
   38.8600   32.4820   47.1740 C   0  0  0  0  0  0  0  0  0  0  0  0
   37.8390   31.6660   46.8560 N   0  0  0  0  0  0  0  0  0  0  0  0
   36.9060   31.1790   47.6690 C   0  0  0  0  0  0  0  0  0  0  0  0
   36.9950   31.5410   48.9410 N   0  0  0  0  0  0  0  0  0  0  0  0
   35.9560   30.3260   46.9650 C   0  0  0  0  0  0  0  0  0  0  0  0
   35.9310   30.2250   45.5900 C   0  0  0  0  0  0  0  0  0  0  0  0
   35.0590   29.4390   44.8820 C   0  0  0  0  0  0  0  0  0  0  0  0
   34.1340   28.6850   45.5280 C   0  0  0  0  0  0  0  0  0  0  0  0
   34.1070   28.7420   46.8910 C   0  0  0  0  0  0  0  0  0  0  0  0
   33.1610   27.9690   47.5420 C   0  0  0  0  0  0  0  0  0  0  0  0
   33.0660   27.9660   48.9110 C   0  0  0  0  0  0  0  0  0  0  0  0
   33.9690   28.7780   49.6040 C   0  0  0  0  0  0  0  0  0  0  0  0
   34.8940   29.5300   48.9160 C   0  0  0  0  0  0  0  0  0  0  0  0
   34.9970   29.5420   47.5640 C   0  0  0  0  0  0  0  0  0  0  0  0
   39.8590   32.9760   46.1870 C   0  0  0  0  0  0  0  0  0  0  0  0
   40.4480   34.0600   46.8000 F   0  0  0  0  0  0  0  0  0  0  0  0
   40.8200   32.0530   45.8780 F   0  0  0  0  0  0  0  0  0  0  0  0
   39.2480   33.4030   45.0120 F   0  0  0  0  0  0  0  0  0  0  0  0
   37.9815   32.6090   50.4565 H   0  0  0  0  0  0  0  0  0  0  0  0
   39.7509   33.5232   48.8671 H   0  0  0  0  0  0  0  0  0  0  0  0
   36.6627   30.8171   45.0208 H   0  0  0  0  0  0  0  0  0  0  0  0
   35.1095   29.4194   43.7833 H   0  0  0  0  0  0  0  0  0  0  0  0
   33.4296   28.0492   44.9715 H   0  0  0  0  0  0  0  0  0  0  0  0
   32.4732   27.3460   46.9514 H   0  0  0  0  0  0  0  0  0  0  0  0
   32.3171   27.3555   49.4367 H   0  0  0  0  0  0  0  0  0  0  0  0
   33.9401   28.8160   50.7030 H   0  0  0  0  0  0  0  0  0  0  0  0
   35.5885   30.1562   49.4953 H   0  0  0  0  0  0  0  0  0  0  0  0
  2  1  2  0
  3  2  1  0
  4  3  2  0
  4  5  1  0
  5  6  2  0
  6  1  1  0
  7 16  1  0
  7  5  1  0
  8  7  2  0
  9 10  2  0
  9  8  1  0
 10 11  1  0
 11 12  1  0
 11 16  2  0
 12 13  2  0
 13 14  1  0
 15 14  2  0
 16 15  1  0
 17 18  1  0
 17  3  1  0
 19 17  1  0
 20 17  1  0
  1 21  1  0
  2 22  1  0
  8 23  1  0
  9 24  1  0
 10 25  1  0
 12 26  1  0
 13 27  1  0
 14 28  1  0
 15 29  1  0
M  ISO  8  21  14  22  14  23  14  24  14  25  14  26  14  27  14  28  14
M  ISO  1  29  14
M  END
>  <minimizedAffinity>  (1) 
-6.38007498

>  <minimizedRMSD>  (1) 
3.46777153

$$$$
