
     RDKit          3D

 41 44  0  0  0  0  0  0  0  0999 V2000
   36.8280   29.6510   51.6650 C   0  0  0  0  0  0  0  0  0  0  0  0
   37.6600   30.2870   50.7400 C   0  0  0  0  0  0  0  0  0  0  0  0
   37.2250   30.5080   49.4530 C   0  0  0  0  0  0  0  0  0  0  0  0
   35.9530   30.0580   49.1880 N   0  0  0  0  0  0  0  0  0  0  0  0
   35.1590   29.4550   50.0580 C   0  0  0  0  0  0  0  0  0  0  0  0
   35.6220   29.2630   51.2980 N   0  0  0  0  0  0  0  0  0  0  0  0
   37.9620   31.0770   48.3470 C   0  0  0  0  0  0  0  0  0  0  0  0
   37.9060   30.3380   47.1550 C   0  0  0  0  0  0  0  0  0  0  0  0
   38.5250   30.7070   45.9860 C   0  0  0  0  0  0  0  0  0  0  0  0
   39.2500   31.8580   45.9300 C   0  0  0  0  0  0  0  0  0  0  0  0
   39.3380   32.6200   47.0590 C   0  0  0  0  0  0  0  0  0  0  0  0
   40.0260   33.8070   47.0540 C   0  0  0  0  0  0  0  0  0  0  0  0
   40.1130   34.6300   48.1580 C   0  0  0  0  0  0  0  0  0  0  0  0
   39.4570   34.2020   49.3120 C   0  0  0  0  0  0  0  0  0  0  0  0
   38.7780   33.0160   49.2940 C   0  0  0  0  0  0  0  0  0  0  0  0
   38.7050   32.2100   48.1930 C   0  0  0  0  0  0  0  0  0  0  0  0
   33.9340   29.1020   49.5440 O   0  0  0  0  0  0  0  0  0  0  0  0
   33.8950   28.4570   48.2860 C   0  0  0  0  0  0  0  0  0  0  0  0
   32.9020   27.3400   48.2690 C   0  0  0  0  0  0  0  0  0  0  0  0
   31.4980   27.8250   48.1400 C   0  0  0  0  0  0  0  0  0  0  0  0
   30.6510   27.6340   49.2280 C   0  0  0  0  0  0  0  0  0  0  0  0
   29.3440   28.0410   49.2150 C   0  0  0  0  0  0  0  0  0  0  0  0
   28.8590   28.6450   48.1180 N   0  0  0  0  0  0  0  0  0  0  0  0
   29.6940   28.8300   47.0560 C   0  0  0  0  0  0  0  0  0  0  0  0
   30.9890   28.4330   47.0540 N   0  0  0  0  0  0  0  0  0  0  0  0
   37.1768   29.4749   52.6933 H   0  0  0  0  0  0  0  0  0  0  0  0
   38.6666   30.6123   51.0415 H   0  0  0  0  0  0  0  0  0  0  0  0
   37.3284   29.4019   47.1574 H   0  0  0  0  0  0  0  0  0  0  0  0
   38.4349   30.0712   45.0929 H   0  0  0  0  0  0  0  0  0  0  0  0
   39.7511   32.1655   45.0003 H   0  0  0  0  0  0  0  0  0  0  0  0
   40.5314   34.1167   46.1274 H   0  0  0  0  0  0  0  0  0  0  0  0
   40.6721   35.5769   48.1294 H   0  0  0  0  0  0  0  0  0  0  0  0
   39.4858   34.8123   50.2267 H   0  0  0  0  0  0  0  0  0  0  0  0
   38.2645   32.6941   50.2120 H   0  0  0  0  0  0  0  0  0  0  0  0
   33.6176   29.1925   47.5165 H   0  0  0  0  0  0  0  0  0  0  0  0
   34.8906   28.0343   48.0859 H   0  0  0  0  0  0  0  0  0  0  0  0
   33.1271   26.6811   47.4175 H   0  0  0  0  0  0  0  0  0  0  0  0
   32.9840   26.8058   49.2271 H   0  0  0  0  0  0  0  0  0  0  0  0
   31.0450   27.1396   50.1282 H   0  0  0  0  0  0  0  0  0  0  0  0
   28.6998   27.8755   50.0912 H   0  0  0  0  0  0  0  0  0  0  0  0
   29.2968   29.3254   46.1578 H   0  0  0  0  0  0  0  0  0  0  0  0
  2  1  2  0
  3  2  1  0
  4  3  2  0
  4  5  1  0
  5  6  2  0
  6  1  1  0
  7  3  1  0
  8  7  2  0
  9  8  1  0
 10  9  2  0
 10 11  1  0
 11 16  2  0
 12 11  1  0
 12 13  2  0
 13 14  1  0
 15 14  2  0
 16  7  1  0
 16 15  1  0
 17  5  1  0
 18 17  1  0
 19 18  1  0
 20 19  1  0
 20 21  2  0
 22 21  1  0
 23 22  2  0
 24 23  1  0
 25 24  2  0
 25 20  1  0
  1 26  1  0
  2 27  1  0
  8 28  1  0
  9 29  1  0
 10 30  1  0
 12 31  1  0
 13 32  1  0
 14 33  1  0
 15 34  1  0
 18 35  1  0
 18 36  1  0
 19 37  1  0
 19 38  1  0
 21 39  1  0
 22 40  1  0
 24 41  1  0
M  ISO  8  26  14  27  14  28  14  29  14  30  14  31  14  32  14  33  14
M  ISO  8  34  14  35   8  36   8  37   8  38   8  39  14  40  14  41  14
M  END
>  <minimizedAffinity>  (1) 
-7.06996584

>  <minimizedRMSD>  (1) 
1.19455636

$$$$
