
     RDKit          3D

 39 42  0  0  0  0  0  0  0  0999 V2000
   35.8580   30.2210   46.4490 C   0  0  0  0  0  0  0  0  0  0  0  0
   34.5790   29.7150   46.5450 C   0  0  0  0  0  0  0  0  0  0  0  0
   33.8930   29.2790   45.4370 C   0  0  0  0  0  0  0  0  0  0  0  0
   34.4420   29.3210   44.1650 C   0  0  0  0  0  0  0  0  0  0  0  0
   35.7160   29.8220   44.0490 C   0  0  0  0  0  0  0  0  0  0  0  0
   36.3810   30.2530   45.1820 C   0  0  0  0  0  0  0  0  0  0  0  0
   37.7320   30.7780   45.0140 C   0  0  0  0  0  0  0  0  0  0  0  0
   38.6810   30.2470   45.8880 C   0  0  0  0  0  0  0  0  0  0  0  0
   40.0060   30.6660   45.8290 C   0  0  0  0  0  0  0  0  0  0  0  0
   40.3550   31.6110   44.8920 C   0  0  0  0  0  0  0  0  0  0  0  0
   39.4330   32.1330   44.0370 C   0  0  0  0  0  0  0  0  0  0  0  0
   39.7670   33.0830   43.0910 C   0  0  0  0  0  0  0  0  0  0  0  0
   38.7630   33.5680   42.2520 C   0  0  0  0  0  0  0  0  0  0  0  0
   37.4720   33.1480   42.3210 C   0  0  0  0  0  0  0  0  0  0  0  0
   37.0990   32.2010   43.2540 C   0  0  0  0  0  0  0  0  0  0  0  0
   38.1100   31.7220   44.0880 C   0  0  0  0  0  0  0  0  0  0  0  0
   37.2450   30.4020   49.8240 C   0  0  0  0  0  0  0  0  0  0  0  0
   37.9320   31.6200   49.8150 C   0  0  0  0  0  0  0  0  0  0  0  0
   37.9060   32.3660   48.6340 C   0  0  0  0  0  0  0  0  0  0  0  0
   37.2180   31.8640   47.5760 N   0  0  0  0  0  0  0  0  0  0  0  0
   36.5640   30.6760   47.6270 C   0  0  0  0  0  0  0  0  0  0  0  0
   36.5820   29.9590   48.7410 N   0  0  0  0  0  0  0  0  0  0  0  0
   37.2730   29.6010   51.0900 C   0  0  0  0  0  0  0  0  0  0  0  0
   35.9730   29.4200   51.5520 F   0  0  0  0  0  0  0  0  0  0  0  0
   37.9040   28.4310   50.8370 F   0  0  0  0  0  0  0  0  0  0  0  0
   37.9140   30.3580   52.0630 F   0  0  0  0  0  0  0  0  0  0  0  0
   34.0963   29.6590   47.5319 H   0  0  0  0  0  0  0  0  0  0  0  0
   32.8744   28.8835   45.5638 H   0  0  0  0  0  0  0  0  0  0  0  0
   33.8819   28.9684   43.2864 H   0  0  0  0  0  0  0  0  0  0  0  0
   36.2024   29.8797   43.0641 H   0  0  0  0  0  0  0  0  0  0  0  0
   38.3793   29.4919   46.6288 H   0  0  0  0  0  0  0  0  0  0  0  0
   40.7581   30.2510   46.5162 H   0  0  0  0  0  0  0  0  0  0  0  0
   41.3993   31.9514   44.8325 H   0  0  0  0  0  0  0  0  0  0  0  0
   40.8006   33.4486   43.0013 H   0  0  0  0  0  0  0  0  0  0  0  0
   39.0286   34.3254   41.4998 H   0  0  0  0  0  0  0  0  0  0  0  0
   36.7224   33.5637   41.6316 H   0  0  0  0  0  0  0  0  0  0  0  0
   36.0618   31.8438   43.3354 H   0  0  0  0  0  0  0  0  0  0  0  0
   38.4724   31.9772   50.7040 H   0  0  0  0  0  0  0  0  0  0  0  0
   38.4276   33.3319   48.5631 H   0  0  0  0  0  0  0  0  0  0  0  0
  1  2  2  0
  1 21  1  0
  3  2  1  0
  4  3  2  0
  5  4  1  0
  5  6  2  0
  6  1  1  0
  7  6  1  0
  7  8  2  0
  9  8  1  0
 10  9  2  0
 11 16  2  0
 11 10  1  0
 12 11  1  0
 13 14  1  0
 13 12  2  0
 14 15  2  0
 15 16  1  0
 16  7  1  0
 17 23  1  0
 18 17  2  0
 19 18  1  0
 20 21  1  0
 20 19  2  0
 21 22  2  0
 22 17  1  0
 23 24  1  0
 23 26  1  0
 25 23  1  0
  2 27  1  0
  3 28  1  0
  4 29  1  0
  5 30  1  0
  8 31  1  0
  9 32  1  0
 10 33  1  0
 12 34  1  0
 13 35  1  0
 14 36  1  0
 15 37  1  0
 18 38  1  0
 19 39  1  0
M  ISO  8  27  14  28  14  29  14  30  14  31  14  32  14  33  14  34  14
M  ISO  5  35  14  36  14  37  14  38  14  39  14
M  END
>  <minimizedAffinity>  (1) 
-6.46934795

>  <minimizedRMSD>  (1) 
0.734069943

$$$$
