
     RDKit          3D

 54 59  0  0  1  0  0  0  0  0999 V2000
   32.1960   28.3030   47.1570 N   0  0  0  0  0  0  0  0  0  0  0  0
   32.5780   27.8470   48.4460 C   0  0  0  0  0  0  0  0  0  0  0  0
   33.8060   28.4390   49.0400 C   0  0  0  0  0  0  0  0  0  0  0  0
   34.9110   28.7110   48.1230 C   0  0  0  0  0  0  0  0  0  0  0  0
   34.4370   29.1210   46.7210 C   0  0  0  0  0  0  0  0  0  0  0  0
   33.3420   28.1340   46.2960 C   0  0  0  0  0  0  0  0  0  0  0  0
   35.9110   30.0580   49.9080 C   0  0  0  0  0  0  0  0  0  0  0  0
   35.8250   29.7990   48.5530 C   0  0  0  0  0  0  0  0  0  0  0  0
   36.5120   30.5030   47.5990 C   0  0  0  0  0  0  0  0  0  0  0  0
   37.3410   31.5350   48.0250 C   0  0  0  0  0  0  0  0  0  0  0  0
   37.4270   31.7930   49.3750 C   0  0  0  0  0  0  0  0  0  0  0  0
   36.7340   31.0830   50.3430 C   0  0  0  0  0  0  0  0  0  0  0  0
   38.3090   32.8680   49.6010 O   0  0  0  0  0  0  0  0  0  0  0  0
   39.0230   33.0090   48.3800 C   0  0  0  0  0  0  0  0  0  0  0  0
   38.1830   32.4590   47.3960 O   0  0  0  0  0  0  0  0  0  0  0  0
   30.9480   28.8270   46.7420 C   0  0  0  0  0  0  0  0  0  0  0  0
   30.6820   29.4670   45.5410 C   0  0  0  0  0  0  0  0  0  0  0  0
   29.3810   29.9110   45.3390 C   0  0  0  0  0  0  0  0  0  0  0  0
   28.4400   29.7040   46.3140 N   0  0  0  0  0  0  0  0  0  0  0  0
   28.7380   29.0790   47.4670 C   0  0  0  0  0  0  0  0  0  0  0  0
   29.9600   28.6810   47.6140 N   0  0  0  0  0  0  0  0  0  0  0  0
   27.5730   28.9880   48.3310 C   0  0  0  0  0  0  0  0  0  0  0  0
   26.3700   29.5730   47.9910 C   0  0  0  0  0  0  0  0  0  0  0  0
   25.2290   29.5240   48.7610 C   0  0  0  0  0  0  0  0  0  0  0  0
   25.2380   28.8570   49.9600 C   0  0  0  0  0  0  0  0  0  0  0  0
   26.4010   28.2590   50.3470 C   0  0  0  0  0  0  0  0  0  0  0  0
   26.3940   27.5920   51.5520 C   0  0  0  0  0  0  0  0  0  0  0  0
   27.5290   26.9560   52.0170 C   0  0  0  0  0  0  0  0  0  0  0  0
   28.6500   27.0330   51.2060 C   0  0  0  0  0  0  0  0  0  0  0  0
   28.6160   27.7050   50.0190 C   0  0  0  0  0  0  0  0  0  0  0  0
   27.5120   28.3390   49.5390 C   0  0  0  0  0  0  0  0  0  0  0  0
   31.7441   28.0572   49.1319 H   0  0  0  0  0  0  0  0  0  0  0  0
   32.8137   26.7810   48.3113 H   0  0  0  0  0  0  0  0  0  0  0  0
   33.5225   29.3910   49.5126 H   0  0  0  0  0  0  0  0  0  0  0  0
   34.1876   27.6775   49.7360 H   0  0  0  0  0  0  0  0  0  0  0  0
   35.4425   27.7479   48.1181 H   0  0  0  0  0  0  0  0  0  0  0  0
   34.0317   30.1433   46.7458 H   0  0  0  0  0  0  0  0  0  0  0  0
   35.2744   29.1003   46.0080 H   0  0  0  0  0  0  0  0  0  0  0  0
   33.0521   28.3315   45.2534 H   0  0  0  0  0  0  0  0  0  0  0  0
   33.7188   27.1038   46.3774 H   0  0  0  0  0  0  0  0  0  0  0  0
   35.3349   29.4595   50.6291 H   0  0  0  0  0  0  0  0  0  0  0  0
   36.4110   30.2597   46.5310 H   0  0  0  0  0  0  0  0  0  0  0  0
   36.8337   31.3237   51.4117 H   0  0  0  0  0  0  0  0  0  0  0  0
   39.2206   34.0703   48.1691 H   0  0  0  0  0  0  0  0  0  0  0  0
   40.0002   32.5051   48.4147 H   0  0  0  0  0  0  0  0  0  0  0  0
   31.4650   29.6163   44.7830 H   0  0  0  0  0  0  0  0  0  0  0  0
   29.1086   30.4241   44.4049 H   0  0  0  0  0  0  0  0  0  0  0  0
   26.3188   30.1175   47.0366 H   0  0  0  0  0  0  0  0  0  0  0  0
   24.3102   30.0198   48.4146 H   0  0  0  0  0  0  0  0  0  0  0  0
   24.3367   28.8063   50.5885 H   0  0  0  0  0  0  0  0  0  0  0  0
   25.4725   27.5653   52.1522 H   0  0  0  0  0  0  0  0  0  0  0  0
   27.5421   26.4188   52.9768 H   0  0  0  0  0  0  0  0  0  0  0  0
   29.5826   26.5443   51.5244 H   0  0  0  0  0  0  0  0  0  0  0  0
   29.5347   27.7360   49.4149 H   0  0  0  0  0  0  0  0  0  0  0  0
  1  2  1  0
  2  3  1  0
  4  8  1  0
  4  3  1  0
  5  4  1  0
  6  5  1  0
  6  1  1  0
  7 12  2  0
  8  7  1  0
  9 10  1  0
  9  8  2  0
 10 11  2  0
 11 13  1  0
 11 12  1  0
 14 13  1  0
 15 10  1  0
 15 14  1  0
 16  1  1  0
 16 21  1  0
 17 16  2  0
 18 17  1  0
 18 19  2  0
 19 20  1  0
 20 21  2  0
 20 22  1  0
 22 31  1  0
 23 22  2  0
 23 24  1  0
 24 25  2  0
 25 26  1  0
 26 27  2  0
 27 28  1  0
 29 28  2  0
 30 29  1  0
 31 30  2  0
 31 26  1  0
  2 32  1  0
  2 33  1  0
  3 34  1  0
  3 35  1  0
  4 36  1  0
  5 37  1  0
  5 38  1  0
  6 39  1  0
  6 40  1  0
  7 41  1  0
  9 42  1  0
 12 43  1  0
 14 44  1  0
 14 45  1  0
 17 46  1  0
 18 47  1  0
 23 48  1  0
 24 49  1  0
 25 50  1  0
 27 51  1  0
 28 52  1  0
 29 53  1  0
 30 54  1  0
M  ISO  8  32  13  33  13  34  13  35  13  36  13  37  13  38  13  39  13
M  ISO  8  40  13  41  14  42  14  43  14  44  13  45  13  46  14  47  14
M  ISO  7  48  14  49  14  50  14  51  14  52  14  53  14  54  14
M  END
>  <minimizedAffinity>  (1) 
-9.12114143

>  <minimizedRMSD>  (1) 
1.25144148

$$$$
