
     RDKit          3D

 37 40  0  0  0  0  0  0  0  0999 V2000
   37.0680   29.5910   49.9250 C   0  0  0  0  0  0  0  0  0  0  0  0
   37.6790   30.3240   48.9110 C   0  0  0  0  0  0  0  0  0  0  0  0
   36.9990   30.4330   47.7230 C   0  0  0  0  0  0  0  0  0  0  0  0
   35.8110   29.8240   47.6490 N   0  0  0  0  0  0  0  0  0  0  0  0
   35.2150   29.1160   48.6170 C   0  0  0  0  0  0  0  0  0  0  0  0
   35.8870   29.0150   49.7760 N   0  0  0  0  0  0  0  0  0  0  0  0
   33.9100   28.5710   48.2210 C   0  0  0  0  0  0  0  0  0  0  0  0
   32.9690   28.2610   49.1860 C   0  0  0  0  0  0  0  0  0  0  0  0
   31.7250   27.7460   48.8950 C   0  0  0  0  0  0  0  0  0  0  0  0
   31.3580   27.5120   47.6050 C   0  0  0  0  0  0  0  0  0  0  0  0
   32.2650   27.8060   46.6250 C   0  0  0  0  0  0  0  0  0  0  0  0
   31.8950   27.5680   45.3160 C   0  0  0  0  0  0  0  0  0  0  0  0
   32.7590   27.8390   44.2710 C   0  0  0  0  0  0  0  0  0  0  0  0
   34.0130   28.3610   44.6060 C   0  0  0  0  0  0  0  0  0  0  0  0
   34.3280   28.5790   45.9250 C   0  0  0  0  0  0  0  0  0  0  0  0
   33.4860   28.3160   46.9620 C   0  0  0  0  0  0  0  0  0  0  0  0
   37.4810   31.1600   46.5350 C   0  0  0  0  0  0  0  0  0  0  0  0
   36.8220   31.1030   45.3170 C   0  0  0  0  0  0  0  0  0  0  0  0
   37.2790   31.7840   44.2030 C   0  0  0  0  0  0  0  0  0  0  0  0
   38.4030   32.5300   44.2980 N   0  0  0  0  0  0  0  0  0  0  0  0
   39.0170   32.5660   45.4840 C   0  0  0  0  0  0  0  0  0  0  0  0
   38.5950   31.9160   46.5790 N   0  0  0  0  0  0  0  0  0  0  0  0
   40.2650   33.3820   45.6280 C   0  0  0  0  0  0  0  0  0  0  0  0
   40.2860   33.9290   46.8980 F   0  0  0  0  0  0  0  0  0  0  0  0
   41.4000   32.5880   45.3980 F   0  0  0  0  0  0  0  0  0  0  0  0
   40.2970   34.4100   44.7380 F   0  0  0  0  0  0  0  0  0  0  0  0
   37.5885   29.4869   50.8885 H   0  0  0  0  0  0  0  0  0  0  0  0
   38.6626   30.7948   49.0552 H   0  0  0  0  0  0  0  0  0  0  0  0
   33.2275   28.4348   50.2410 H   0  0  0  0  0  0  0  0  0  0  0  0
   31.0226   27.5220   49.7113 H   0  0  0  0  0  0  0  0  0  0  0  0
   30.3674   27.1012   47.3600 H   0  0  0  0  0  0  0  0  0  0  0  0
   30.8977   27.1565   45.1014 H   0  0  0  0  0  0  0  0  0  0  0  0
   32.4737   27.6528   43.2251 H   0  0  0  0  0  0  0  0  0  0  0  0
   34.7429   28.5956   43.8172 H   0  0  0  0  0  0  0  0  0  0  0  0
   35.3210   28.9912   46.1576 H   0  0  0  0  0  0  0  0  0  0  0  0
   35.9074   30.4976   45.2336 H   0  0  0  0  0  0  0  0  0  0  0  0
   36.7338   31.7194   43.2498 H   0  0  0  0  0  0  0  0  0  0  0  0
  2  1  2  0
  3  2  1  0
  4  3  2  0
  4  5  1  0
  5  6  2  0
  6  1  1  0
  7  5  1  0
  7  8  2  0
  9  8  1  0
 10  9  2  0
 11 16  2  0
 11 10  1  0
 12 11  1  0
 13 14  1  0
 13 12  2  0
 14 15  2  0
 15 16  1  0
 16  7  1  0
 17 22  1  0
 17  3  1  0
 18 17  2  0
 19 20  2  0
 19 18  1  0
 20 21  1  0
 21 23  1  0
 21 22  2  0
 23 24  1  0
 25 23  1  0
 26 23  1  0
  1 27  1  0
  2 28  1  0
  8 29  1  0
  9 30  1  0
 10 31  1  0
 12 32  1  0
 13 33  1  0
 14 34  1  0
 15 35  1  0
 18 36  1  0
 19 37  1  0
M  ISO  8  27  14  28  14  29  14  30  14  31  14  32  14  33  14  34  14
M  ISO  3  35  14  36  14  37  14
M  END
>  <minimizedAffinity>  (1) 
-6.52203369

>  <minimizedRMSD>  (1) 
2.20027685

$$$$
