
     RDKit          3D

 53 58  0  0  1  0  0  0  0  0999 V2000
   39.7000   31.8170   41.9140 N   0  0  0  0  0  0  0  0  0  0  0  0
   39.3380   33.2320   41.9990 C   0  0  1  0  0  0  0  0  0  0  0  0
   37.9640   33.4180   41.5560 C   0  0  0  0  0  0  0  0  0  0  0  0
   37.8630   33.0630   40.2010 O   0  0  0  0  0  0  0  0  0  0  0  0
   38.3140   31.7960   39.9010 C   0  0  0  0  0  0  0  0  0  0  0  0
   39.6870   31.5440   40.4920 C   0  0  2  0  0  0  0  0  0  0  0  0
   40.1070   30.1620   40.2810 C   0  0  0  0  0  0  0  0  0  0  0  0
   40.8480   29.6670   39.2430 C   0  0  0  0  0  0  0  0  0  0  0  0
   41.2290   28.3550   39.0590 C   0  0  0  0  0  0  0  0  0  0  0  0
   40.8440   27.4160   39.9920 C   0  0  0  0  0  0  0  0  0  0  0  0
   40.0950   27.8520   41.0650 C   0  0  0  0  0  0  0  0  0  0  0  0
   39.7390   26.8760   41.9690 C   0  0  0  0  0  0  0  0  0  0  0  0
   38.9910   27.2170   43.0770 C   0  0  0  0  0  0  0  0  0  0  0  0
   38.6130   28.5330   43.2570 C   0  0  0  0  0  0  0  0  0  0  0  0
   38.9970   29.4470   42.3250 C   0  0  0  0  0  0  0  0  0  0  0  0
   39.7420   29.1960   41.1930 C   0  0  0  0  0  0  0  0  0  0  0  0
   39.4900   33.6000   43.3600 O   0  0  0  0  0  0  0  0  0  0  0  0
   36.2130   30.2350   46.9300 C   0  0  0  0  0  0  0  0  0  0  0  0
   37.0680   30.7550   47.8840 C   0  0  0  0  0  0  0  0  0  0  0  0
   38.0860   31.6530   47.5310 C   0  0  0  0  0  0  0  0  0  0  0  0
   38.1670   31.9730   46.1810 C   0  0  0  0  0  0  0  0  0  0  0  0
   39.0680   32.8260   45.5930 N   0  0  0  0  0  0  0  0  0  0  0  0
   38.7740   32.8340   44.2810 C   0  0  0  0  0  0  0  0  0  0  0  0
   37.7540   32.0400   44.0510 N   0  0  0  0  0  0  0  0  0  0  0  0
   37.3410   31.4830   45.2010 C   0  0  0  0  0  0  0  0  0  0  0  0
   36.3370   30.5860   45.5930 C   0  0  0  0  0  0  0  0  0  0  0  0
   37.4610   30.1320   51.5750 C   0  0  0  0  0  0  0  0  0  0  0  0
   37.7720   30.5800   50.2940 C   0  0  0  0  0  0  0  0  0  0  0  0
   36.8930   30.3540   49.2660 C   0  0  0  0  0  0  0  0  0  0  0  0
   35.7270   29.6830   49.5700 N   0  0  0  0  0  0  0  0  0  0  0  0
   35.4340   29.2540   50.8140 C   0  0  0  0  0  0  0  0  0  0  0  0
   36.2890   29.4770   51.7940 N   0  0  0  0  0  0  0  0  0  0  0  0
   40.6362   31.6529   42.3109 H   0  0  0  0  0  0  0  0  0  0  0  0
   39.9736   33.8574   41.3548 H   0  0  0  0  0  0  0  0  0  0  0  0
   37.2954   32.7812   42.1539 H   0  0  0  0  0  0  0  0  0  0  0  0
   37.6740   34.4713   41.6844 H   0  0  0  0  0  0  0  0  0  0  0  0
   37.6075   31.0584   40.3095 H   0  0  0  0  0  0  0  0  0  0  0  0
   38.3853   31.7036   38.8072 H   0  0  0  0  0  0  0  0  0  0  0  0
   40.3848   32.2223   39.9791 H   0  0  0  0  0  0  0  0  0  0  0  0
   41.1724   30.3883   38.4785 H   0  0  0  0  0  0  0  0  0  0  0  0
   41.8288   28.0629   38.1844 H   0  0  0  0  0  0  0  0  0  0  0  0
   41.1239   26.3576   39.8847 H   0  0  0  0  0  0  0  0  0  0  0  0
   40.0486   25.8327   41.8089 H   0  0  0  0  0  0  0  0  0  0  0  0
   38.6990   26.4493   43.8087 H   0  0  0  0  0  0  0  0  0  0  0  0
   38.0170   28.8345   44.1310 H   0  0  0  0  0  0  0  0  0  0  0  0
   38.6821   30.4878   42.4913 H   0  0  0  0  0  0  0  0  0  0  0  0
   35.4230   29.5329   47.2351 H   0  0  0  0  0  0  0  0  0  0  0  0
   38.7762   32.0769   48.2752 H   0  0  0  0  0  0  0  0  0  0  0  0
   39.8179   33.3534   46.0623 H   0  0  0  0  0  0  0  0  0  0  0  0
   35.6511   30.1626   44.8445 H   0  0  0  0  0  0  0  0  0  0  0  0
   38.1598   30.3069   52.4063 H   0  0  0  0  0  0  0  0  0  0  0  0
   38.7167   31.1118   50.1077 H   0  0  0  0  0  0  0  0  0  0  0  0
   34.4909   28.7230   51.0103 H   0  0  0  0  0  0  0  0  0  0  0  0
  1  2  1  0
  2 17  1  0
  3  2  1  0
  4  3  1  0
  5  4  1  0
  5  6  1  0
  6  1  1  0
  7  6  1  0
  7 16  1  0
  8  7  2  0
  9  8  1  0
  9 10  2  0
 10 11  1  0
 11 16  2  0
 11 12  1  0
 12 13  2  0
 13 14  1  0
 15 14  2  0
 16 15  1  0
 17 23  1  0
 18 19  2  0
 19 29  1  0
 20 19  1  0
 21 20  2  0
 22 21  1  0
 23 22  1  0
 24 23  2  0
 24 25  1  0
 25 26  2  0
 25 21  1  0
 26 18  1  0
 27 32  2  0
 28 27  1  0
 29 30  1  0
 29 28  2  0
 30 31  2  0
 31 32  1  0
  1 33  1  0
  2 34  1  6
  3 35  1  0
  3 36  1  0
  5 37  1  0
  5 38  1  0
  6 39  1  6
  8 40  1  0
  9 41  1  0
 10 42  1  0
 12 43  1  0
 13 44  1  0
 14 45  1  0
 15 46  1  0
 18 47  1  0
 20 48  1  0
 22 49  1  0
 26 50  1  0
 27 51  1  0
 28 52  1  0
 31 53  1  0
M  ISO  8  33   5  34  13  35  13  36  13  37  13  38  13  39  13  40  14
M  ISO  8  41  14  42  14  43  14  44  14  45  14  46  14  47  14  48  14
M  ISO  5  49   9  50  14  51  14  52  14  53  14
M  END
>  <minimizedAffinity>  (1) 
-6.79295397

>  <minimizedRMSD>  (1) 
0.45655939

$$$$
