
     RDKit          3D

 41 45  0  0  0  0  0  0  0  0999 V2000
   32.8550   27.7120   48.5180 C   0  0  0  0  0  0  0  0  0  0  0  0
   32.8730   26.7180   47.6260 C   0  0  0  0  0  0  0  0  0  0  0  0
   31.6970   26.0390   47.4270 C   0  0  0  0  0  0  0  0  0  0  0  0
   30.5500   26.3480   48.0990 N   0  0  0  0  0  0  0  0  0  0  0  0
   30.6110   27.3740   48.9910 C   0  0  0  0  0  0  0  0  0  0  0  0
   31.7520   28.0110   49.1660 N   0  0  0  0  0  0  0  0  0  0  0  0
   29.3220   27.5930   49.6320 C   0  0  0  0  0  0  0  0  0  0  0  0
   28.9910   26.9610   50.8100 C   0  0  0  0  0  0  0  0  0  0  0  0
   27.8010   27.1120   51.4780 C   0  0  0  0  0  0  0  0  0  0  0  0
   26.8400   27.9450   50.9700 C   0  0  0  0  0  0  0  0  0  0  0  0
   27.1090   28.6060   49.7930 C   0  0  0  0  0  0  0  0  0  0  0  0
   26.1360   29.4390   49.2920 C   0  0  0  0  0  0  0  0  0  0  0  0
   26.3280   30.1280   48.1330 C   0  0  0  0  0  0  0  0  0  0  0  0
   27.5480   29.9510   47.4820 C   0  0  0  0  0  0  0  0  0  0  0  0
   28.4900   29.1060   48.0220 C   0  0  0  0  0  0  0  0  0  0  0  0
   28.3200   28.4030   49.1850 C   0  0  0  0  0  0  0  0  0  0  0  0
   36.0840   30.1660   48.8910 C   0  0  0  0  0  0  0  0  0  0  0  0
   36.0000   29.2470   49.8500 C   0  0  0  0  0  0  0  0  0  0  0  0
   34.9460   28.3560   49.8360 C   0  0  0  0  0  0  0  0  0  0  0  0
   34.0490   28.4920   48.8080 C   0  0  0  0  0  0  0  0  0  0  0  0
   34.7300   29.8920   47.8850 S   0  0  0  0  0  0  0  0  0  0  0  0
   38.0670   33.1780   49.3890 C   0  0  0  0  0  0  0  0  0  0  0  0
   39.0070   33.1310   48.3370 C   0  0  0  0  0  0  0  0  0  0  0  0
   38.9480   32.0370   47.4430 C   0  0  0  0  0  0  0  0  0  0  0  0
   37.9820   31.0900   47.6520 N   0  0  0  0  0  0  0  0  0  0  0  0
   37.1050   31.2060   48.6970 C   0  0  0  0  0  0  0  0  0  0  0  0
   37.1280   32.2190   49.5600 N   0  0  0  0  0  0  0  0  0  0  0  0
   33.7887   26.4555   47.0759 H   0  0  0  0  0  0  0  0  0  0  0  0
   31.6782   25.2149   46.6986 H   0  0  0  0  0  0  0  0  0  0  0  0
   29.7375   26.2831   51.2495 H   0  0  0  0  0  0  0  0  0  0  0  0
   27.6205   26.5668   52.4162 H   0  0  0  0  0  0  0  0  0  0  0  0
   25.8795   28.0821   51.4883 H   0  0  0  0  0  0  0  0  0  0  0  0
   25.1868   29.5506   49.8365 H   0  0  0  0  0  0  0  0  0  0  0  0
   25.5534   30.7957   47.7278 H   0  0  0  0  0  0  0  0  0  0  0  0
   27.7562   30.4837   46.5424 H   0  0  0  0  0  0  0  0  0  0  0  0
   29.4422   28.9873   47.4843 H   0  0  0  0  0  0  0  0  0  0  0  0
   36.7605   29.1982   50.6433 H   0  0  0  0  0  0  0  0  0  0  0  0
   34.8319   27.5797   50.6070 H   0  0  0  0  0  0  0  0  0  0  0  0
   38.0990   34.0224   50.0932 H   0  0  0  0  0  0  0  0  0  0  0  0
   39.7625   33.9214   48.2163 H   0  0  0  0  0  0  0  0  0  0  0  0
   39.6562   31.9497   46.6058 H   0  0  0  0  0  0  0  0  0  0  0  0
  1 20  1  0
  1  6  1  0
  2  1  2  0
  3  2  1  0
  3  4  2  0
  4  5  1  0
  5  6  2  0
  5  7  1  0
  7  8  2  0
  8  9  1  0
 10  9  2  0
 11 10  1  0
 12 11  2  0
 13 12  1  0
 14 15  1  0
 14 13  2  0
 15 16  2  0
 16  7  1  0
 16 11  1  0
 17 18  2  0
 19 18  1  0
 20 19  2  0
 21 20  1  0
 21 17  1  0
 22 27  2  0
 23 22  1  0
 24 25  1  0
 24 23  2  0
 25 26  2  0
 26 17  1  0
 26 27  1  0
  2 28  1  0
  3 29  1  0
  8 30  1  0
  9 31  1  0
 10 32  1  0
 12 33  1  0
 13 34  1  0
 14 35  1  0
 15 36  1  0
 18 37  1  0
 19 38  1  0
 22 39  1  0
 23 40  1  0
 24 41  1  0
M  ISO  8  28  14  29  14  30  14  31  14  32  14  33  14  34  14  35  14
M  ISO  6  36  14  37  14  38  14  39  14  40  14  41  14
M  END
>  <minimizedAffinity>  (1) 
-8.61961746

>  <minimizedRMSD>  (1) 
1.16744781

$$$$
