
     RDKit          3D

 33 36  0  0  0  0  0  0  0  0999 V2000
   36.1020   30.3460   48.8160 C   0  0  0  0  0  0  0  0  0  0  0  0
   35.9350   29.4280   49.7710 C   0  0  0  0  0  0  0  0  0  0  0  0
   34.8710   28.5740   49.7300 C   0  0  0  0  0  0  0  0  0  0  0  0
   34.0130   28.7170   48.6760 C   0  0  0  0  0  0  0  0  0  0  0  0
   34.7740   30.0830   47.7820 S   0  0  0  0  0  0  0  0  0  0  0  0
   32.8210   27.8400   48.5340 C   0  0  0  0  0  0  0  0  0  0  0  0
   31.6440   28.1370   49.1790 C   0  0  0  0  0  0  0  0  0  0  0  0
   30.5830   27.2950   49.0120 C   0  0  0  0  0  0  0  0  0  0  0  0
   30.5920   26.1540   48.2420 C   0  0  0  0  0  0  0  0  0  0  0  0
   31.7730   25.8810   47.6140 C   0  0  0  0  0  0  0  0  0  0  0  0
   31.8050   24.7440   46.8380 C   0  0  0  0  0  0  0  0  0  0  0  0
   32.9310   24.3630   46.1580 C   0  0  0  0  0  0  0  0  0  0  0  0
   34.0540   25.1850   46.2870 C   0  0  0  0  0  0  0  0  0  0  0  0
   33.9640   26.3010   47.0700 C   0  0  0  0  0  0  0  0  0  0  0  0
   32.8720   26.7110   47.7580 C   0  0  0  0  0  0  0  0  0  0  0  0
   38.1750   33.2710   49.4620 C   0  0  0  0  0  0  0  0  0  0  0  0
   39.0810   33.2600   48.3960 C   0  0  0  0  0  0  0  0  0  0  0  0
   38.9720   32.2330   47.4390 C   0  0  0  0  0  0  0  0  0  0  0  0
   37.9880   31.2890   47.5880 N   0  0  0  0  0  0  0  0  0  0  0  0
   37.1450   31.3560   48.6400 C   0  0  0  0  0  0  0  0  0  0  0  0
   37.2240   32.3140   49.5590 N   0  0  0  0  0  0  0  0  0  0  0  0
   36.6594   29.3595   50.5960 H   0  0  0  0  0  0  0  0  0  0  0  0
   34.7123   27.8101   50.5054 H   0  0  0  0  0  0  0  0  0  0  0  0
   31.5594   29.0312   49.8140 H   0  0  0  0  0  0  0  0  0  0  0  0
   29.6479   27.5478   49.5333 H   0  0  0  0  0  0  0  0  0  0  0  0
   29.7085   25.5068   48.1398 H   0  0  0  0  0  0  0  0  0  0  0  0
   30.8998   24.1237   46.7621 H   0  0  0  0  0  0  0  0  0  0  0  0
   32.9507   23.4534   45.5398 H   0  0  0  0  0  0  0  0  0  0  0  0
   34.9921   24.9382   45.7682 H   0  0  0  0  0  0  0  0  0  0  0  0
   34.8653   26.9267   47.1492 H   0  0  0  0  0  0  0  0  0  0  0  0
   38.2363   34.0614   50.2246 H   0  0  0  0  0  0  0  0  0  0  0  0
   39.8582   34.0335   48.3078 H   0  0  0  0  0  0  0  0  0  0  0  0
   39.6647   32.1884   46.5857 H   0  0  0  0  0  0  0  0  0  0  0  0
  1  2  2  0
  3  2  1  0
  4  3  2  0
  5  4  1  0
  5  1  1  0
  6  4  1  0
  6  7  2  0
  8  7  1  0
  9  8  2  0
 10 15  2  0
 10  9  1  0
 11 10  1  0
 12 13  1  0
 12 11  2  0
 13 14  2  0
 14 15  1  0
 15  6  1  0
 16 21  2  0
 17 16  1  0
 18 19  1  0
 18 17  2  0
 19 20  2  0
 20  1  1  0
 20 21  1  0
  2 22  1  0
  3 23  1  0
  7 24  1  0
  8 25  1  0
  9 26  1  0
 11 27  1  0
 12 28  1  0
 13 29  1  0
 14 30  1  0
 16 31  1  0
 17 32  1  0
 18 33  1  0
M  ISO  8  22  14  23  14  24  14  25  14  26  14  27  14  28  14  29  14
M  ISO  4  30  14  31  14  32  14  33  14
M  END
>  <minimizedAffinity>  (1) 
-5.92353487

>  <minimizedRMSD>  (1) 
1.59536397

$$$$
