
     RDKit          3D

 49 54  0  0  0  0  0  0  0  0999 V2000
   38.7450   31.5260   47.3540 C   0  0  0  0  0  0  0  0  0  0  0  0
   39.3390   32.7620   47.3150 C   0  0  0  0  0  0  0  0  0  0  0  0
   40.0920   33.2070   46.2520 C   0  0  0  0  0  0  0  0  0  0  0  0
   40.2780   32.4000   45.1660 C   0  0  0  0  0  0  0  0  0  0  0  0
   39.6730   31.1700   45.2350 C   0  0  0  0  0  0  0  0  0  0  0  0
   38.9420   30.7360   46.2640 N   0  0  0  0  0  0  0  0  0  0  0  0
   39.0100   29.1620   43.8610 C   0  0  0  0  0  0  0  0  0  0  0  0
   39.8230   30.2470   44.1130 C   0  0  0  0  0  0  0  0  0  0  0  0
   40.8300   30.3950   43.1770 C   0  0  0  0  0  0  0  0  0  0  0  0
   41.0350   29.5690   42.0930 C   0  0  0  0  0  0  0  0  0  0  0  0
   41.9400   29.5580   41.1000 N   0  0  0  0  0  0  0  0  0  0  0  0
   41.6760   28.5160   40.2990 C   0  0  0  0  0  0  0  0  0  0  0  0
   40.5850   27.8340   40.7690 C   0  0  0  0  0  0  0  0  0  0  0  0
   40.1850   28.5120   41.9110 C   0  0  0  0  0  0  0  0  0  0  0  0
   39.1630   28.3070   42.8040 C   0  0  0  0  0  0  0  0  0  0  0  0
   37.4080   30.7690   50.7880 C   0  0  0  0  0  0  0  0  0  0  0  0
   38.2850   31.2620   49.8110 C   0  0  0  0  0  0  0  0  0  0  0  0
   37.9440   31.0650   48.4820 C   0  0  0  0  0  0  0  0  0  0  0  0
   36.8040   30.4180   48.2470 N   0  0  0  0  0  0  0  0  0  0  0  0
   35.9510   29.9380   49.1880 C   0  0  0  0  0  0  0  0  0  0  0  0
   36.2850   30.1320   50.4480 N   0  0  0  0  0  0  0  0  0  0  0  0
   34.7810   29.2770   48.5970 C   0  0  0  0  0  0  0  0  0  0  0  0
   33.8810   28.5700   49.3880 C   0  0  0  0  0  0  0  0  0  0  0  0
   32.7720   27.9300   48.9160 C   0  0  0  0  0  0  0  0  0  0  0  0
   32.4840   27.9570   47.5790 C   0  0  0  0  0  0  0  0  0  0  0  0
   33.3410   28.6430   46.7480 C   0  0  0  0  0  0  0  0  0  0  0  0
   33.0520   28.6730   45.4090 C   0  0  0  0  0  0  0  0  0  0  0  0
   33.8780   29.3530   44.5100 C   0  0  0  0  0  0  0  0  0  0  0  0
   34.9840   29.9800   45.0530 C   0  0  0  0  0  0  0  0  0  0  0  0
   35.2300   29.9220   46.3950 C   0  0  0  0  0  0  0  0  0  0  0  0
   34.4290   29.2580   47.2900 C   0  0  0  0  0  0  0  0  0  0  0  0
   39.2068   33.4319   48.1774 H   0  0  0  0  0  0  0  0  0  0  0  0
   40.5428   34.2101   46.2772 H   0  0  0  0  0  0  0  0  0  0  0  0
   40.8722   32.7144   44.2953 H   0  0  0  0  0  0  0  0  0  0  0  0
   38.1810   28.9707   44.5582 H   0  0  0  0  0  0  0  0  0  0  0  0
   41.5227   31.2394   43.3081 H   0  0  0  0  0  0  0  0  0  0  0  0
   42.7062   30.2350   40.9754 H   0  0  0  0  0  0  0  0  0  0  0  0
   42.2495   28.2487   39.3992 H   0  0  0  0  0  0  0  0  0  0  0  0
   40.1228   26.9365   40.3322 H   0  0  0  0  0  0  0  0  0  0  0  0
   38.4721   27.4615   42.6708 H   0  0  0  0  0  0  0  0  0  0  0  0
   37.6493   30.9094   51.8520 H   0  0  0  0  0  0  0  0  0  0  0  0
   39.2109   31.7866   50.0895 H   0  0  0  0  0  0  0  0  0  0  0  0
   34.0770   28.5236   50.4694 H   0  0  0  0  0  0  0  0  0  0  0  0
   32.1097   27.3925   49.6106 H   0  0  0  0  0  0  0  0  0  0  0  0
   31.5951   27.4464   47.1801 H   0  0  0  0  0  0  0  0  0  0  0  0
   32.1566   28.1542   45.0362 H   0  0  0  0  0  0  0  0  0  0  0  0
   33.6607   29.3874   43.4322 H   0  0  0  0  0  0  0  0  0  0  0  0
   35.6734   30.5316   44.3969 H   0  0  0  0  0  0  0  0  0  0  0  0
   36.1219   30.4374   46.7810 H   0  0  0  0  0  0  0  0  0  0  0  0
  1 18  1  0
  2  1  2  0
  3  2  1  0
  4  5  1  0
  4  3  2  0
  5  6  2  0
  6  1  1  0
  7  8  2  0
  8  5  1  0
  9  8  1  0
 10  9  2  0
 11 10  1  0
 12 13  2  0
 12 11  1  0
 13 14  1  0
 14 10  1  0
 14 15  2  0
 15  7  1  0
 17 16  2  0
 18 17  1  0
 19 18  2  0
 19 20  1  0
 20 21  2  0
 21 16  1  0
 22 20  1  0
 22 23  2  0
 24 23  1  0
 25 24  2  0
 26 31  2  0
 26 25  1  0
 27 26  1  0
 28 29  1  0
 28 27  2  0
 29 30  2  0
 30 31  1  0
 31 22  1  0
  2 32  1  0
  3 33  1  0
  4 34  1  0
  7 35  1  0
  9 36  1  0
 11 37  1  0
 12 38  1  0
 13 39  1  0
 15 40  1  0
 16 41  1  0
 17 42  1  0
 23 43  1  0
 24 44  1  0
 25 45  1  0
 27 46  1  0
 28 47  1  0
 29 48  1  0
 30 49  1  0
M  END
>  <minimizedAffinity>  (1) 
-8.44919014

>  <minimizedRMSD>  (1) 
1.16058385

$$$$
