
     RDKit          3D

 45 49  0  0  1  0  0  0  0  0999 V2000
   35.7210   29.3820   50.6180 C   0  0  0  0  0  0  0  0  0  0  0  0
   36.4830   30.1110   49.7280 C   0  0  0  0  0  0  0  0  0  0  0  0
   36.1930   30.0400   48.3670 C   0  0  0  0  0  0  0  0  0  0  0  0
   35.1520   29.2390   47.9610 N   0  0  0  0  0  0  0  0  0  0  0  0
   34.4360   28.5450   48.8680 C   0  0  0  0  0  0  0  0  0  0  0  0
   34.7000   28.6030   50.1680 N   0  0  0  0  0  0  0  0  0  0  0  0
   36.5620   30.5230   46.0220 C   0  0  0  0  0  0  0  0  0  0  0  0
   36.9330   30.7630   47.3580 C   0  0  0  0  0  0  0  0  0  0  0  0
   37.9480   31.6410   47.6220 C   0  0  0  0  0  0  0  0  0  0  0  0
   38.5900   32.2730   46.5880 C   0  0  0  0  0  0  0  0  0  0  0  0
   39.6050   33.1620   46.6200 N   0  0  0  0  0  0  0  0  0  0  0  0
   39.8900   33.4920   45.3600 C   0  0  0  0  0  0  0  0  0  0  0  0
   39.0850   32.8400   44.5190 N   0  0  0  0  0  0  0  0  0  0  0  0
   38.2570   32.0670   45.2570 C   0  0  0  0  0  0  0  0  0  0  0  0
   37.2370   31.1850   44.9890 C   0  0  0  0  0  0  0  0  0  0  0  0
   33.3380   27.7140   48.3770 C   0  0  0  0  0  0  0  0  0  0  0  0
   33.5180   26.5660   47.9030 O   0  0  0  0  0  0  0  0  0  0  0  0
   31.9240   28.2730   48.4490 C   0  0  1  0  0  0  0  0  0  0  0  0
   31.2330   28.4240   47.0870 C   0  0  0  0  0  0  0  0  0  0  0  0
   30.8100   27.3910   48.0820 C   0  0  2  0  0  0  0  0  0  0  0  0
   28.2450   27.8230   48.4450 C   0  0  0  0  0  0  0  0  0  0  0  0
   29.5330   27.4930   48.7680 C   0  0  0  0  0  0  0  0  0  0  0  0
   29.7240   27.1280   50.0950 C   0  0  0  0  0  0  0  0  0  0  0  0
   28.6880   27.0940   51.0410 C   0  0  0  0  0  0  0  0  0  0  0  0
   27.3940   27.4430   50.6410 C   0  0  0  0  0  0  0  0  0  0  0  0
   27.1910   27.8070   49.3280 C   0  0  0  0  0  0  0  0  0  0  0  0
   28.0050   28.3100   46.7880 S   0  0  0  0  0  0  0  0  0  0  0  0
   28.0280   29.7870   46.6690 O   0  0  0  0  0  0  0  0  0  0  0  0
   26.6280   27.8620   46.3480 O   0  0  0  0  0  0  0  0  0  0  0  0
   35.9397   29.4308   51.6949 H   0  0  0  0  0  0  0  0  0  0  0  0
   37.3096   30.7407   50.0887 H   0  0  0  0  0  0  0  0  0  0  0  0
   35.7477   29.8205   45.7908 H   0  0  0  0  0  0  0  0  0  0  0  0
   38.2486   31.8397   48.6613 H   0  0  0  0  0  0  0  0  0  0  0  0
   40.0740   33.5203   47.4641 H   0  0  0  0  0  0  0  0  0  0  0  0
   40.6757   34.1999   45.0574 H   0  0  0  0  0  0  0  0  0  0  0  0
   36.9461   30.9961   43.9451 H   0  0  0  0  0  0  0  0  0  0  0  0
   32.1301   28.9124   49.3200 H   0  0  0  0  0  0  0  0  0  0  0  0
   31.7527   28.1267   46.1642 H   0  0  0  0  0  0  0  0  0  0  0  0
   30.7404   29.2396   46.5373 H   0  0  0  0  0  0  0  0  0  0  0  0
   30.6792   26.2997   48.0365 H   0  0  0  0  0  0  0  0  0  0  0  0
   30.7379   26.8519   50.4203 H   0  0  0  0  0  0  0  0  0  0  0  0
   28.8904   26.7975   52.0808 H   0  0  0  0  0  0  0  0  0  0  0  0
   26.5591   27.4272   51.3571 H   0  0  0  0  0  0  0  0  0  0  0  0
   26.1836   28.0855   48.9852 H   0  0  0  0  0  0  0  0  0  0  0  0
   28.9999   27.7560   46.0264 H   0  0  0  0  0  0  0  0  0  0  0  0
  2  1  2  0
  3  2  1  0
  4  3  2  0
  4  5  1  0
  5  6  2  0
  6  1  1  0
  7  8  2  0
  8  9  1  0
  8  3  1  0
 10 11  1  0
 10  9  2  0
 12 11  1  0
 13 14  1  0
 13 12  2  0
 14 10  1  0
 15 14  2  0
 15  7  1  0
 16 18  1  0
 16  5  1  0
 17 16  2  0
 19 20  1  0
 19 18  1  0
 20 18  1  0
 20 22  1  0
 21 22  2  0
 21 26  1  0
 22 23  1  0
 23 24  2  0
 25 24  1  0
 26 25  2  0
 27 21  1  0
 28 27  2  0
 29 27  2  0
  1 30  1  0
  2 31  1  0
  7 32  1  0
  9 33  1  0
 11 34  1  0
 12 35  1  0
 15 36  1  0
 18 37  1  1
 19 38  1  0
 19 39  1  0
 20 40  1  6
 23 41  1  0
 24 42  1  0
 25 43  1  0
 26 44  1  0
 27 45  1  0
M  ISO  8  30  14  31  14  32  14  33  14  34   9  35  14  36  14  37  13
M  ISO  8  38  13  39  13  40  13  41  14  42  14  43  14  44  14  45  11
M  END
>  <minimizedAffinity>  (1) 
-7.30297041

>  <minimizedRMSD>  (1) 
1.054353

$$$$
