
     RDKit          3D

 37 39  0  0  0  0  0  0  0  0999 V2000
   36.8240   31.1730   48.4400 C   0  0  0  0  0  0  0  0  0  0  0  0
   37.1460   32.0180   49.4860 C   0  0  0  0  0  0  0  0  0  0  0  0
   38.0630   33.0380   49.2830 C   0  0  0  0  0  0  0  0  0  0  0  0
   38.6450   33.1950   48.0320 C   0  0  0  0  0  0  0  0  0  0  0  0
   38.3100   32.3430   47.0100 C   0  0  0  0  0  0  0  0  0  0  0  0
   37.4230   31.3810   47.2650 N   0  0  0  0  0  0  0  0  0  0  0  0
   35.1610   28.3150   50.2120 C   0  0  0  0  0  0  0  0  0  0  0  0
   36.1350   29.2980   49.8710 C   0  0  0  0  0  0  0  0  0  0  0  0
   35.8530   30.1580   48.8160 C   0  0  0  0  0  0  0  0  0  0  0  0
   34.6620   30.0190   48.1620 N   0  0  0  0  0  0  0  0  0  0  0  0
   33.7620   29.0610   48.5270 C   0  0  0  0  0  0  0  0  0  0  0  0
   34.0020   28.2230   49.5320 N   0  0  0  0  0  0  0  0  0  0  0  0
   32.6090   29.1170   47.7050 N   0  0  0  0  0  0  0  0  0  0  0  0
   37.3970   29.3500   50.6610 C   0  0  0  0  0  0  0  0  0  0  0  0
   38.4580   29.7780   49.8890 F   0  0  0  0  0  0  0  0  0  0  0  0
   37.2200   30.2570   51.6830 F   0  0  0  0  0  0  0  0  0  0  0  0
   37.7420   28.1460   51.2210 F   0  0  0  0  0  0  0  0  0  0  0  0
   38.3830   31.7320   44.6260 C   0  0  0  0  0  0  0  0  0  0  0  0
   38.8900   32.4630   45.6790 C   0  0  0  0  0  0  0  0  0  0  0  0
   39.9570   33.2990   45.4190 C   0  0  0  0  0  0  0  0  0  0  0  0
   40.5270   33.4360   44.1770 C   0  0  0  0  0  0  0  0  0  0  0  0
   40.0430   32.7220   43.1120 C   0  0  0  0  0  0  0  0  0  0  0  0
   38.9780   31.8850   43.3670 C   0  0  0  0  0  0  0  0  0  0  0  0
   37.0410   30.6340   44.8010 S   0  0  0  0  0  0  0  0  0  0  0  0
   37.3540   29.3490   44.0480 O   0  0  0  0  0  0  0  0  0  0  0  0
   35.7680   31.1600   44.1990 O   0  0  0  0  0  0  0  0  0  0  0  0
   36.6780   31.8820   50.4722 H   0  0  0  0  0  0  0  0  0  0  0  0
   38.3274   33.7176   50.1065 H   0  0  0  0  0  0  0  0  0  0  0  0
   39.3735   34.0012   47.8606 H   0  0  0  0  0  0  0  0  0  0  0  0
   35.3587   27.6214   51.0426 H   0  0  0  0  0  0  0  0  0  0  0  0
   31.8353   28.4543   47.8572 H   0  0  0  0  0  0  0  0  0  0  0  0
   32.5446   29.8204   46.9554 H   0  0  0  0  0  0  0  0  0  0  0  0
   40.3729   33.8867   46.2506 H   0  0  0  0  0  0  0  0  0  0  0  0
   41.3756   34.1217   44.0364 H   0  0  0  0  0  0  0  0  0  0  0  0
   40.4812   32.8121   42.1071 H   0  0  0  0  0  0  0  0  0  0  0  0
   38.5696   31.3005   42.5294 H   0  0  0  0  0  0  0  0  0  0  0  0
   36.8668   30.4506   46.1474 H   0  0  0  0  0  0  0  0  0  0  0  0
  1  9  1  0
  1  2  2  0
  3  2  1  0
  4  3  2  0
  5  6  2  0
  5  4  1  0
  6  1  1  0
  8  7  2  0
  8 14  1  0
  9  8  1  0
 10 11  1  0
 10  9  2  0
 11 12  2  0
 12  7  1  0
 13 11  1  0
 14 17  1  0
 14 16  1  0
 15 14  1  0
 18 24  1  0
 18 19  2  0
 19  5  1  0
 20 19  1  0
 21 20  2  0
 22 23  2  0
 22 21  1  0
 23 18  1  0
 25 24  2  0
 26 24  2  0
  2 27  1  0
  3 28  1  0
  4 29  1  0
  7 30  1  0
 13 31  1  0
 13 32  1  0
 20 33  1  0
 21 34  1  0
 22 35  1  0
 23 36  1  0
 24 37  1  0
M  ISO  8  27  14  28  14  29  14  30  14  33  14  34  14  35  14  36  14
M  ISO  1  37  11
M  END
>  <minimizedAffinity>  (1) 
-6.5752182

>  <minimizedRMSD>  (1) 
1.33893383

$$$$
