
     RDKit          3D

 47 49  0  0  0  0  0  0  0  0999 V2000
   34.5220   29.1680   48.5310 C   0  0  0  0  0  0  0  0  0  0  0  0
   37.2920   30.2130   48.4150 Cl  0  0  0  0  0  0  0  0  0  0  0  0
   36.2030   30.1730   47.0270 C   0  0  0  0  0  0  0  0  0  0  0  0
   36.6390   30.6450   45.8260 C   0  0  0  0  0  0  0  0  0  0  0  0
   35.8040   30.6200   44.7440 C   0  0  0  0  0  0  0  0  0  0  0  0
   34.5270   30.1120   44.8910 C   0  0  0  0  0  0  0  0  0  0  0  0
   34.1320   29.6410   46.1470 C   0  0  0  0  0  0  0  0  0  0  0  0
   34.9500   29.6580   47.2390 C   0  0  0  0  0  0  0  0  0  0  0  0
   39.6790   32.7140   46.1650 C   0  0  0  0  0  0  0  0  0  0  0  0
   40.5710   32.0330   45.2860 C   0  0  0  0  0  0  0  0  0  0  0  0
   40.0940   30.8930   44.6140 C   0  0  0  0  0  0  0  0  0  0  0  0
   38.8130   30.5020   44.8370 N   0  0  0  0  0  0  0  0  0  0  0  0
   37.9900   31.1780   45.6840 C   0  0  0  0  0  0  0  0  0  0  0  0
   38.4270   32.2620   46.3300 N   0  0  0  0  0  0  0  0  0  0  0  0
   40.9960   30.2470   43.7570 N   0  0  0  0  0  0  0  0  0  0  0  0
   33.4890   28.1320   48.5970 C   0  0  0  0  0  0  0  0  0  0  0  0
   33.9820   26.9090   48.1850 O   0  0  0  0  0  0  0  0  0  0  0  0
   32.4950   26.6290   46.0260 O   0  0  0  0  0  0  0  0  0  0  0  0
   32.7920   26.0440   47.3850 P   0  0  2  0  0  0  0  0  0  0  0  0
   31.4010   26.0980   48.3900 O   0  0  0  0  0  0  0  0  0  0  0  0
   33.1820   24.4330   47.1930 O   0  0  0  0  0  0  0  0  0  0  0  0
   32.4150   22.3020   47.6090 C   0  0  0  0  0  0  0  0  0  0  0  0
   32.2260   23.4870   46.8940 C   0  0  0  0  0  0  0  0  0  0  0  0
   31.1680   23.5480   46.0290 C   0  0  0  0  0  0  0  0  0  0  0  0
   30.3110   22.4860   45.8640 C   0  0  0  0  0  0  0  0  0  0  0  0
   30.4770   21.2880   46.5670 C   0  0  0  0  0  0  0  0  0  0  0  0
   31.5480   21.2350   47.4370 C   0  0  0  0  0  0  0  0  0  0  0  0
   33.7270   22.0510   48.7630 S   0  0  0  0  0  0  0  0  0  0  0  0
   34.6040   20.9610   48.2040 O   0  0  0  0  0  0  0  0  0  0  0  0
   33.1910   21.5490   50.0810 O   0  0  0  0  0  0  0  0  0  0  0  0
   34.1445   30.0343   49.0941 H   0  0  0  0  0  0  0  0  0  0  0  0
   35.4174   28.6697   48.9310 H   0  0  0  0  0  0  0  0  0  0  0  0
   36.1439   30.9992   43.7690 H   0  0  0  0  0  0  0  0  0  0  0  0
   33.8349   30.0789   44.0366 H   0  0  0  0  0  0  0  0  0  0  0  0
   33.1147   29.2381   46.2599 H   0  0  0  0  0  0  0  0  0  0  0  0
   40.0171   33.6093   46.7074 H   0  0  0  0  0  0  0  0  0  0  0  0
   41.6014   32.3883   45.1377 H   0  0  0  0  0  0  0  0  0  0  0  0
   41.9527   30.6122   43.6461 H   0  0  0  0  0  0  0  0  0  0  0  0
   40.7020   29.4071   43.2382 H   0  0  0  0  0  0  0  0  0  0  0  0
   33.1338   28.0448   49.6344 H   0  0  0  0  0  0  0  0  0  0  0  0
   32.6643   28.4188   47.9279 H   0  0  0  0  0  0  0  0  0  0  0  0
   31.6796   26.0872   49.3399 H   0  0  0  0  0  0  0  0  0  0  0  0
   30.9990   24.4689   45.4517 H   0  0  0  0  0  0  0  0  0  0  0  0
   29.4714   22.5808   45.1597 H   0  0  0  0  0  0  0  0  0  0  0  0
   29.7932   20.4366   46.4343 H   0  0  0  0  0  0  0  0  0  0  0  0
   31.7188   20.3138   48.0134 H   0  0  0  0  0  0  0  0  0  0  0  0
   34.3940   23.2316   48.9583 H   0  0  0  0  0  0  0  0  0  0  0  0
  1 16  1  0
  3  8  2  0
  3  2  1  0
  4  3  1  0
  5  6  1  0
  5  4  2  0
  6  7  2  0
  7  8  1  0
  8  1  1  0
  9 14  2  0
 10  9  1  0
 11 12  1  0
 11 10  2  0
 12 13  2  0
 13  4  1  0
 13 14  1  0
 15 11  1  0
 17 16  1  0
 19 18  2  0
 19 17  1  0
 19 20  1  0
 21 19  1  0
 22 28  1  0
 23 21  1  0
 23 22  2  0
 24 23  1  0
 25 24  2  0
 25 26  1  0
 26 27  2  0
 27 22  1  0
 28 30  2  0
 29 28  2  0
  1 31  1  0
  1 32  1  0
  5 33  1  0
  6 34  1  0
  7 35  1  0
  9 36  1  0
 10 37  1  0
 15 38  1  0
 15 39  1  0
 16 40  1  0
 16 41  1  0
 20 42  1  0
 24 43  1  0
 25 44  1  0
 26 45  1  0
 27 46  1  0
 28 47  1  0
M  ISO  8  31   8  32   8  33  14  34  14  35  14  36  14  37  14  40   8
M  ISO  7  41   8  42   3  43  14  44  14  45  14  46  14  47  11
M  END
>  <minimizedAffinity>  (1) 
-4.91508865

>  <minimizedRMSD>  (1) 
2.72128153

$$$$
