
     RDKit          3D

 39 41  0  0  0  0  0  0  0  0999 V2000
   36.4150   30.0370   44.7840 F   0  0  0  0  0  0  0  0  0  0  0  0
   36.1060   31.0450   43.9160 C   0  0  0  0  0  0  0  0  0  0  0  0
   37.0240   32.0140   43.5270 C   0  0  0  0  0  0  0  0  0  0  0  0
   36.6170   32.9810   42.6550 C   0  0  0  0  0  0  0  0  0  0  0  0
   35.3420   33.0590   42.1270 C   0  0  0  0  0  0  0  0  0  0  0  0
   34.4440   32.0750   42.5350 C   0  0  0  0  0  0  0  0  0  0  0  0
   34.8190   31.0730   43.4220 C   0  0  0  0  0  0  0  0  0  0  0  0
   39.8620   32.7330   45.7100 C   0  0  0  0  0  0  0  0  0  0  0  0
   40.8900   31.9390   45.2090 C   0  0  0  0  0  0  0  0  0  0  0  0
   40.5990   31.1480   44.1070 C   0  0  0  0  0  0  0  0  0  0  0  0
   39.3470   31.1650   43.5530 N   0  0  0  0  0  0  0  0  0  0  0  0
   38.3750   31.9520   44.0720 C   0  0  0  0  0  0  0  0  0  0  0  0
   38.6460   32.7350   45.1550 N   0  0  0  0  0  0  0  0  0  0  0  0
   33.9150   30.1330   43.7920 O   0  0  0  0  0  0  0  0  0  0  0  0
   31.7680   29.2660   44.9300 O   0  0  0  0  0  0  0  0  0  0  0  0
   33.0960   29.9830   45.2530 P   0  0  2  0  0  0  0  0  0  0  0  0
   32.6880   31.4400   45.9700 O   0  0  0  0  0  0  0  0  0  0  0  0
   33.9210   28.9850   46.3170 O   0  0  0  0  0  0  0  0  0  0  0  0
   33.6830   28.6320   48.6280 C   0  0  0  0  0  0  0  0  0  0  0  0
   34.3800   29.1780   47.5670 C   0  0  0  0  0  0  0  0  0  0  0  0
   35.5340   29.9090   47.8480 C   0  0  0  0  0  0  0  0  0  0  0  0
   35.9480   30.0690   49.1550 C   0  0  0  0  0  0  0  0  0  0  0  0
   35.2430   29.5190   50.1850 C   0  0  0  0  0  0  0  0  0  0  0  0
   34.1180   28.8070   49.9190 C   0  0  0  0  0  0  0  0  0  0  0  0
   32.2220   27.7050   48.2950 S   0  0  0  0  0  0  0  0  0  0  0  0
   31.2650   27.8110   49.4240 O   0  0  0  0  0  0  0  0  0  0  0  0
   32.5010   26.2730   48.0160 O   0  0  0  0  0  0  0  0  0  0  0  0
   37.3483   33.7454   42.3536 H   0  0  0  0  0  0  0  0  0  0  0  0
   35.0524   33.8538   41.4238 H   0  0  0  0  0  0  0  0  0  0  0  0
   33.4151   32.0916   42.1463 H   0  0  0  0  0  0  0  0  0  0  0  0
   40.0550   33.3737   46.5831 H   0  0  0  0  0  0  0  0  0  0  0  0
   41.8900   31.9388   45.6672 H   0  0  0  0  0  0  0  0  0  0  0  0
   41.3789   30.5032   43.6757 H   0  0  0  0  0  0  0  0  0  0  0  0
   32.7154   31.3423   46.9548 H   0  0  0  0  0  0  0  0  0  0  0  0
   36.1141   30.3579   47.0283 H   0  0  0  0  0  0  0  0  0  0  0  0
   36.8587   30.6478   49.3688 H   0  0  0  0  0  0  0  0  0  0  0  0
   35.5831   29.6512   51.2227 H   0  0  0  0  0  0  0  0  0  0  0  0
   33.5472   28.3643   50.7486 H   0  0  0  0  0  0  0  0  0  0  0  0
   31.6703   28.2486   47.1649 H   0  0  0  0  0  0  0  0  0  0  0  0
  2  1  1  0
  3  2  2  0
  3 12  1  0
  4  3  1  0
  5  6  1  0
  5  4  2  0
  6  7  2  0
  7 14  1  0
  7  2  1  0
  9  8  2  0
 10  9  1  0
 11 12  1  0
 11 10  2  0
 12 13  2  0
 13  8  1  0
 14 16  1  0
 16 15  2  0
 16 17  1  0
 16 18  1  0
 18 20  1  0
 19 24  2  0
 20 21  2  0
 20 19  1  0
 21 22  1  0
 22 23  2  0
 24 23  1  0
 25 19  1  0
 25 26  2  0
 27 25  2  0
  4 28  1  0
  5 29  1  0
  6 30  1  0
  8 31  1  0
  9 32  1  0
 10 33  1  0
 17 34  1  0
 21 35  1  0
 22 36  1  0
 23 37  1  0
 24 38  1  0
 25 39  1  0
M  ISO  8  28  14  29  14  30  14  31  14  32  14  33  14  34   3  35  14
M  ISO  4  36  14  37  14  38  14  39  11
M  END
>  <minimizedAffinity>  (1) 
-5.48505306

>  <minimizedRMSD>  (1) 
4.77381897

$$$$
