
     RDKit          3D

 39 41  0  0  1  0  0  0  0  0999 V2000
   38.5370   32.3040   46.9890 C   0  0  1  0  0  0  0  0  0  0  0  0
   39.7930   33.0510   46.5150 C   0  0  0  0  0  0  0  0  0  0  0  0
   39.7530   31.5860   46.5670 C   0  0  2  0  0  0  0  0  0  0  0  0
   38.2320   32.5040   48.4570 C   0  0  0  0  0  0  0  0  0  0  0  0
   37.3820   29.8330   50.9390 C   0  0  0  0  0  0  0  0  0  0  0  0
   37.9750   30.9820   50.3340 C   0  0  0  0  0  0  0  0  0  0  0  0
   37.5950   31.3060   49.0510 C   0  0  0  0  0  0  0  0  0  0  0  0
   36.6840   30.5380   48.4150 N   0  0  0  0  0  0  0  0  0  0  0  0
   36.1340   29.4570   49.0010 C   0  0  0  0  0  0  0  0  0  0  0  0
   36.4840   29.1130   50.2550 N   0  0  0  0  0  0  0  0  0  0  0  0
   39.6030   30.7220   45.3420 C   0  0  0  0  0  0  0  0  0  0  0  0
   40.5990   31.0300   44.2600 C   0  0  0  0  0  0  0  0  0  0  0  0
   39.8150   30.6740   41.8990 C   0  0  0  0  0  0  0  0  0  0  0  0
   39.9650   31.4830   43.0200 C   0  0  0  0  0  0  0  0  0  0  0  0
   39.4530   32.7630   42.8480 C   0  0  0  0  0  0  0  0  0  0  0  0
   38.8380   33.3060   41.7430 C   0  0  0  0  0  0  0  0  0  0  0  0
   38.7210   32.4480   40.6620 C   0  0  0  0  0  0  0  0  0  0  0  0
   39.2020   31.1410   40.7300 C   0  0  0  0  0  0  0  0  0  0  0  0
   40.3840   29.0500   41.8990 S   0  0  0  0  0  0  0  0  0  0  0  0
   41.8980   28.9460   42.0170 O   0  0  0  0  0  0  0  0  0  0  0  0
   39.6970   28.1150   42.8160 O   0  0  0  0  0  0  0  0  0  0  0  0
   37.4767   32.2074   46.7126 H   0  0  0  0  0  0  0  0  0  0  0  0
   40.4066   33.6138   47.2339 H   0  0  0  0  0  0  0  0  0  0  0  0
   40.0149   33.8035   45.7440 H   0  0  0  0  0  0  0  0  0  0  0  0
   40.4591   30.8679   47.0094 H   0  0  0  0  0  0  0  0  0  0  0  0
   39.1709   32.7108   48.9915 H   0  0  0  0  0  0  0  0  0  0  0  0
   37.5319   33.3473   48.5506 H   0  0  0  0  0  0  0  0  0  0  0  0
   37.6614   29.5406   51.9620 H   0  0  0  0  0  0  0  0  0  0  0  0
   38.7135   31.5903   50.8767 H   0  0  0  0  0  0  0  0  0  0  0  0
   35.3960   28.8528   48.4530 H   0  0  0  0  0  0  0  0  0  0  0  0
   39.7288   29.6709   45.6409 H   0  0  0  0  0  0  0  0  0  0  0  0
   38.6046   30.9236   44.9267 H   0  0  0  0  0  0  0  0  0  0  0  0
   41.2750   31.8202   44.6186 H   0  0  0  0  0  0  0  0  0  0  0  0
   41.1426   30.1006   44.0347 H   0  0  0  0  0  0  0  0  0  0  0  0
   39.5528   33.4344   43.7136 H   0  0  0  0  0  0  0  0  0  0  0  0
   38.4679   34.3416   41.7201 H   0  0  0  0  0  0  0  0  0  0  0  0
   38.2421   32.8025   39.7373 H   0  0  0  0  0  0  0  0  0  0  0  0
   39.0994   30.4739   39.8614 H   0  0  0  0  0  0  0  0  0  0  0  0
   40.0269   28.6146   40.6501 H   0  0  0  0  0  0  0  0  0  0  0  0
  1  4  1  0
  2  3  1  0
  2  1  1  0
  3  1  1  0
  4  7  1  0
  6  5  2  0
  7  6  1  0
  8  9  1  0
  8  7  2  0
  9 10  2  0
 10  5  1  0
 11  3  1  0
 12 11  1  0
 13 19  1  0
 13 14  2  0
 14 12  1  0
 15 14  1  0
 16 15  2  0
 17 18  2  0
 17 16  1  0
 18 13  1  0
 19 20  2  0
 19 21  2  0
  1 22  1  6
  2 23  1  0
  2 24  1  0
  3 25  1  1
  4 26  1  0
  4 27  1  0
  5 28  1  0
  6 29  1  0
  9 30  1  0
 11 31  1  0
 11 32  1  0
 12 33  1  0
 12 34  1  0
 15 35  1  0
 16 36  1  0
 17 37  1  0
 18 38  1  0
 19 39  1  0
M  ISO  8  22  13  23  13  24  13  25  13  26   8  27   8  28  14  29  14
M  ISO  8  30  14  31   8  32   8  33   8  34   8  35  14  36  14  37  14
M  ISO  2  38  14  39  11
M  END
>  <minimizedAffinity>  (1) 
-5.44264793

>  <minimizedRMSD>  (1) 
1.91853333

$$$$
