
     RDKit          3D

 50 55  0  0  1  0  0  0  0  0999 V2000
   30.1040   28.7360   46.5460 C   0  0  0  0  0  0  0  0  0  0  0  0
   30.6170   27.6440   45.8670 C   0  0  0  0  0  0  0  0  0  0  0  0
   31.9270   27.5230   46.2120 N   0  0  0  0  0  0  0  0  0  0  0  0
   32.2410   28.5090   47.0840 C   0  0  0  0  0  0  0  0  0  0  0  0
   31.1270   29.2430   47.2830 N   0  0  0  0  0  0  0  0  0  0  0  0
   27.9040   29.4330   47.6570 C   0  0  1  0  0  0  0  0  0  0  0  0
   27.5650   28.2680   46.6520 C   0  0  0  0  0  0  0  0  0  0  0  0
   28.6910   29.2350   46.4410 C   0  0  2  0  0  0  0  0  0  0  0  0
   25.9180   32.4100   47.2720 C   0  0  0  0  0  0  0  0  0  0  0  0
   25.2840   31.8190   48.3570 C   0  0  0  0  0  0  0  0  0  0  0  0
   25.9530   30.6100   48.6470 C   0  0  0  0  0  0  0  0  0  0  0  0
   26.9460   30.5130   47.7510 N   0  0  0  0  0  0  0  0  0  0  0  0
   26.8910   31.5690   46.9770 N   0  0  0  0  0  0  0  0  0  0  0  0
   25.4090   34.8610   47.4660 C   0  0  0  0  0  0  0  0  0  0  0  0
   25.5100   33.6580   46.6950 C   0  0  0  0  0  0  0  0  0  0  0  0
   25.1960   33.7550   45.3730 C   0  0  0  0  0  0  0  0  0  0  0  0
   24.8120   34.9570   44.8610 N   0  0  0  0  0  0  0  0  0  0  0  0
   24.7310   36.0670   45.6220 C   0  0  0  0  0  0  0  0  0  0  0  0
   25.0310   36.0210   46.9400 N   0  0  0  0  0  0  0  0  0  0  0  0
   33.5720   28.7580   47.7130 C   0  0  0  0  0  0  0  0  0  0  0  0
   33.9320   28.1410   48.9270 C   0  0  0  0  0  0  0  0  0  0  0  0
   35.6160   28.8020   49.2140 S   0  0  0  0  0  0  0  0  0  0  0  0
   35.5420   29.8130   47.6210 C   0  0  0  0  0  0  0  0  0  0  0  0
   34.5140   29.5360   47.2530 N   0  0  0  0  0  0  0  0  0  0  0  0
   37.4100   31.3840   48.1300 C   0  0  0  0  0  0  0  0  0  0  0  0
   36.6770   30.6510   47.2200 C   0  0  0  0  0  0  0  0  0  0  0  0
   37.0520   30.7290   45.8790 C   0  0  0  0  0  0  0  0  0  0  0  0
   38.1040   31.4890   45.4130 C   0  0  0  0  0  0  0  0  0  0  0  0
   38.8090   32.2040   46.3510 C   0  0  0  0  0  0  0  0  0  0  0  0
   38.4650   32.1510   47.6850 C   0  0  0  0  0  0  0  0  0  0  0  0
   36.8670   31.2260   49.7830 S   0  0  0  0  0  0  0  0  0  0  0  0
   37.9990   30.8550   50.6980 O   0  0  0  0  0  0  0  0  0  0  0  0
   36.3790   32.5800   50.2740 O   0  0  0  0  0  0  0  0  0  0  0  0
   30.0650   26.9922   45.1739 H   0  0  0  0  0  0  0  0  0  0  0  0
   32.5738   26.7997   45.8664 H   0  0  0  0  0  0  0  0  0  0  0  0
   28.1611   29.5303   48.7221 H   0  0  0  0  0  0  0  0  0  0  0  0
   27.7702   27.2211   46.9202 H   0  0  0  0  0  0  0  0  0  0  0  0
   26.6826   27.9367   46.0848 H   0  0  0  0  0  0  0  0  0  0  0  0
   28.9681   29.9038   45.6128 H   0  0  0  0  0  0  0  0  0  0  0  0
   24.4137   32.2219   48.8957 H   0  0  0  0  0  0  0  0  0  0  0  0
   25.7093   29.8935   49.4453 H   0  0  0  0  0  0  0  0  0  0  0  0
   25.6545   34.8228   48.5376 H   0  0  0  0  0  0  0  0  0  0  0  0
   25.2522   32.8688   44.7238 H   0  0  0  0  0  0  0  0  0  0  0  0
   24.4182   37.0184   45.1670 H   0  0  0  0  0  0  0  0  0  0  0  0
   33.3504   27.4410   49.5449 H   0  0  0  0  0  0  0  0  0  0  0  0
   36.4721   30.1477   45.1470 H   0  0  0  0  0  0  0  0  0  0  0  0
   38.3654   31.5212   44.3450 H   0  0  0  0  0  0  0  0  0  0  0  0
   39.6585   32.8265   46.0335 H   0  0  0  0  0  0  0  0  0  0  0  0
   39.0472   32.7356   48.4125 H   0  0  0  0  0  0  0  0  0  0  0  0
   35.8920   30.2637   49.8015 H   0  0  0  0  0  0  0  0  0  0  0  0
  1  5  1  0
  2  3  1  0
  2  1  2  0
  3  4  1  0
  4  5  2  0
  4 20  1  0
  6 12  1  0
  7  6  1  0
  8  1  1  0
  8  7  1  0
  8  6  1  0
  9 10  1  0
 10 11  2  0
 12 11  1  0
 13  9  2  0
 13 12  1  0
 15  9  1  0
 15 14  2  0
 16 15  1  0
 17 16  2  0
 17 18  1  0
 18 19  2  0
 19 14  1  0
 20 21  2  0
 21 22  1  0
 23 22  1  0
 24 23  2  0
 24 20  1  0
 25 31  1  0
 26 23  1  0
 26 25  2  0
 27 26  1  0
 28 27  2  0
 28 29  1  0
 29 30  2  0
 30 25  1  0
 31 33  2  0
 31 32  2  0
  2 34  1  0
  3 35  1  0
  6 36  1  1
  7 37  1  0
  7 38  1  0
  8 39  1  6
 10 40  1  0
 11 41  1  0
 14 42  1  0
 16 43  1  0
 18 44  1  0
 21 45  1  0
 27 46  1  0
 28 47  1  0
 29 48  1  0
 30 49  1  0
 31 50  1  0
M  ISO  8  34  14  35   9  36  13  37  13  38  13  39  13  40  14  41  14
M  ISO  8  42  14  43  14  44  14  45  14  46  14  47  14  48  14  49  14
M  ISO  1  50  11
M  END
>  <minimizedAffinity>  (1) 
-7.48648882

>  <minimizedRMSD>  (1) 
4.97862864

$$$$
