
     RDKit          3D

 33 35  0  0  1  0  0  0  0  0999 V2000
   35.5570   30.3510   49.3500 C   0  0  1  0  0  0  0  0  0  0  0  0
   35.2120   29.1130   48.6860 C   0  0  1  0  0  0  0  0  0  0  0  0
   36.0120   29.0190   49.9420 C   0  0  0  0  0  0  0  0  0  0  0  0
   36.7350   31.1850   48.8730 C   0  0  0  0  0  0  0  0  0  0  0  0
   37.1850   32.1580   49.7660 C   0  0  0  0  0  0  0  0  0  0  0  0
   38.2560   32.9270   49.2980 C   0  0  0  0  0  0  0  0  0  0  0  0
   38.7940   32.7140   48.0600 N   0  0  0  0  0  0  0  0  0  0  0  0
   38.3050   31.7470   47.2400 C   0  0  0  0  0  0  0  0  0  0  0  0
   37.2610   30.9720   47.6550 N   0  0  0  0  0  0  0  0  0  0  0  0
   33.7500   28.7190   48.6590 C   0  0  0  0  0  0  0  0  0  0  0  0
   32.8510   27.9710   46.3740 C   0  0  0  0  0  0  0  0  0  0  0  0
   33.5120   27.7760   47.5500 C   0  0  0  0  0  0  0  0  0  0  0  0
   34.0200   26.4790   47.7300 C   0  0  0  0  0  0  0  0  0  0  0  0
   33.8950   25.4440   46.8350 C   0  0  0  0  0  0  0  0  0  0  0  0
   33.2250   25.6530   45.6520 C   0  0  0  0  0  0  0  0  0  0  0  0
   32.7240   26.9170   45.4630 C   0  0  0  0  0  0  0  0  0  0  0  0
   32.1810   29.5210   45.9750 S   0  0  0  0  0  0  0  0  0  0  0  0
   33.0290   30.6630   46.3920 O   0  0  0  0  0  0  0  0  0  0  0  0
   30.7710   29.5930   46.5080 O   0  0  0  0  0  0  0  0  0  0  0  0
   34.9431   31.2187   49.6333 H   0  0  0  0  0  0  0  0  0  0  0  0
   35.3616   28.6951   47.6795 H   0  0  0  0  0  0  0  0  0  0  0  0
   37.0718   28.7265   49.9073 H   0  0  0  0  0  0  0  0  0  0  0  0
   35.9127   28.5053   50.9096 H   0  0  0  0  0  0  0  0  0  0  0  0
   36.7341   32.3084   50.7580 H   0  0  0  0  0  0  0  0  0  0  0  0
   38.6729   33.7180   49.9387 H   0  0  0  0  0  0  0  0  0  0  0  0
   38.7487   31.5895   46.2459 H   0  0  0  0  0  0  0  0  0  0  0  0
   33.4827   28.2386   49.6118 H   0  0  0  0  0  0  0  0  0  0  0  0
   33.1322   29.6174   48.5135 H   0  0  0  0  0  0  0  0  0  0  0  0
   34.5628   26.2749   48.6647 H   0  0  0  0  0  0  0  0  0  0  0  0
   34.3265   24.4580   47.0623 H   0  0  0  0  0  0  0  0  0  0  0  0
   33.0985   24.8566   44.9038 H   0  0  0  0  0  0  0  0  0  0  0  0
   32.1828   27.1157   44.5262 H   0  0  0  0  0  0  0  0  0  0  0  0
   32.1433   29.6396   44.6107 H   0  0  0  0  0  0  0  0  0  0  0  0
  1  3  1  0
  2  1  1  0
  2  3  1  0
  4  1  1  0
  4  5  2  0
  6  5  1  0
  7  6  2  0
  8  9  2  0
  8  7  1  0
  9  4  1  0
 10  2  1  0
 11 12  2  0
 12 13  1  0
 12 10  1  0
 14 13  2  0
 15 14  1  0
 16 15  2  0
 16 11  1  0
 17 11  1  0
 17 18  2  0
 17 19  2  0
  1 20  1  1
  2 21  1  6
  3 22  1  0
  3 23  1  0
  5 24  1  0
  6 25  1  0
  8 26  1  0
 10 27  1  0
 10 28  1  0
 13 29  1  0
 14 30  1  0
 15 31  1  0
 16 32  1  0
 17 33  1  0
M  ISO  8  20  13  21  13  22  13  23  13  24  14  25  14  26  14  27   8
M  ISO  6  28   8  29  14  30  14  31  14  32  14  33  11
M  END
>  <minimizedAffinity>  (1) 
-5.07221079

>  <minimizedRMSD>  (1) 
2.51225853

$$$$
