
     RDKit          3D

 24 25  0  0  0  0  0  0  0  0999 V2000
   39.3090   32.1960   47.2120 C   0  0  0  0  0  0  0  0  0  0  0  0
   38.6010   31.7440   48.3080 C   0  0  0  0  0  0  0  0  0  0  0  0
   38.4370   32.5280   49.4470 C   0  0  0  0  0  0  0  0  0  0  0  0
   39.0220   33.7900   49.4340 C   0  0  0  0  0  0  0  0  0  0  0  0
   39.7290   34.2430   48.3400 C   0  0  0  0  0  0  0  0  0  0  0  0
   39.8770   33.4480   47.2230 C   0  0  0  0  0  0  0  0  0  0  0  0
   39.5040   31.1960   45.7870 S   0  0  0  0  0  0  0  0  0  0  0  0
   38.7140   31.7480   44.6440 O   0  0  0  0  0  0  0  0  0  0  0  0
   40.9580   31.2730   45.3740 O   0  0  0  0  0  0  0  0  0  0  0  0
   38.0670   30.4790   48.2080 O   0  0  0  0  0  0  0  0  0  0  0  0
   36.6490   29.2850   49.6250 C   0  0  0  0  0  0  0  0  0  0  0  0
   36.7720   30.1190   48.4900 C   0  0  0  0  0  0  0  0  0  0  0  0
   35.6020   30.4540   47.8260 C   0  0  0  0  0  0  0  0  0  0  0  0
   34.4260   29.9790   48.2870 N   0  0  0  0  0  0  0  0  0  0  0  0
   34.3440   29.1930   49.3650 C   0  0  0  0  0  0  0  0  0  0  0  0
   35.4450   28.8260   50.0580 N   0  0  0  0  0  0  0  0  0  0  0  0
   37.8705   32.1658   50.3176 H   0  0  0  0  0  0  0  0  0  0  0  0
   38.9185   34.4404   50.3150 H   0  0  0  0  0  0  0  0  0  0  0  0
   40.1786   35.2468   48.3586 H   0  0  0  0  0  0  0  0  0  0  0  0
   40.4423   33.8109   46.3519 H   0  0  0  0  0  0  0  0  0  0  0  0
   39.0913   29.9218   46.0749 H   0  0  0  0  0  0  0  0  0  0  0  0
   37.5571   28.9982   50.1756 H   0  0  0  0  0  0  0  0  0  0  0  0
   35.6319   31.0985   46.9351 H   0  0  0  0  0  0  0  0  0  0  0  0
   33.3574   28.8365   49.6960 H   0  0  0  0  0  0  0  0  0  0  0  0
  1  6  2  0
  1  2  1  0
  2  3  2  0
  4  3  1  0
  5  4  2  0
  6  5  1  0
  7  1  1  0
  8  7  2  0
  9  7  2  0
 10  2  1  0
 10 12  1  0
 11 16  2  0
 12 11  1  0
 13 14  1  0
 13 12  2  0
 14 15  2  0
 15 16  1  0
  3 17  1  0
  4 18  1  0
  5 19  1  0
  6 20  1  0
  7 21  1  0
 11 22  1  0
 13 23  1  0
 15 24  1  0
M  ISO  8  17  14  18  14  19  14  20  14  21  11  22  14  23  14  24  14
M  END
>  <minimizedAffinity>  (1) 
-5.08492136

>  <minimizedRMSD>  (1) 
3.35077262

$$$$
