
     RDKit          3D

 49 51  0  0  0  0  0  0  0  0999 V2000
   27.9150   28.2470   48.6540 C   0  0  0  0  0  0  0  0  0  0  0  0
   29.2130   27.9550   49.1080 C   0  0  0  0  0  0  0  0  0  0  0  0
   29.4400   27.4450   50.3680 C   0  0  0  0  0  0  0  0  0  0  0  0
   28.3700   27.2180   51.1990 C   0  0  0  0  0  0  0  0  0  0  0  0
   27.1070   27.5010   50.7620 C   0  0  0  0  0  0  0  0  0  0  0  0
   26.8390   28.0090   49.5160 C   0  0  0  0  0  0  0  0  0  0  0  0
   27.5500   28.8910   47.0770 S   0  0  0  0  0  0  0  0  0  0  0  0
   28.7450   28.8950   46.2050 O   0  0  0  0  0  0  0  0  0  0  0  0
   26.4460   28.0190   46.4530 O   0  0  0  0  0  0  0  0  0  0  0  0
   26.7830   31.1210   45.9400 C   0  0  0  0  0  0  0  0  0  0  0  0
   26.8920   30.4880   47.1680 C   0  0  0  0  0  0  0  0  0  0  0  0
   26.4820   31.1140   48.3240 C   0  0  0  0  0  0  0  0  0  0  0  0
   25.9460   32.3960   48.3100 C   0  0  0  0  0  0  0  0  0  0  0  0
   25.8300   33.0430   47.0950 C   0  0  0  0  0  0  0  0  0  0  0  0
   26.2440   32.4130   45.9190 C   0  0  0  0  0  0  0  0  0  0  0  0
   27.2330   30.5930   44.3530 S   0  0  0  0  0  0  0  0  0  0  0  0
   26.1050   29.8850   43.6520 O   0  0  0  0  0  0  0  0  0  0  0  0
   27.5210   31.8210   43.5000 O   0  0  0  0  0  0  0  0  0  0  0  0
   30.1670   28.2380   48.1640 O   0  0  0  0  0  0  0  0  0  0  0  0
   31.5810   26.0200   48.2610 O   0  0  0  0  0  0  0  0  0  0  0  0
   31.6790   27.5180   47.9870 P   0  0  1  0  0  0  0  0  0  0  0  0
   32.3120   27.8210   46.4410 O   0  0  0  0  0  0  0  0  0  0  0  0
   32.7900   28.1000   49.1450 O   0  0  0  0  0  0  0  0  0  0  0  0
   34.0800   27.7380   48.7300 C   0  0  0  0  0  0  0  0  0  0  0  0
   35.9710   29.1780   49.3850 C   0  0  0  0  0  0  0  0  0  0  0  0
   34.9720   28.9130   48.5850 C   0  0  0  0  0  0  0  0  0  0  0  0
   37.4550   32.5180   49.5820 C   0  0  0  0  0  0  0  0  0  0  0  0
   38.3530   32.5000   48.5060 C   0  0  0  0  0  0  0  0  0  0  0  0
   38.4370   31.3450   47.7280 C   0  0  0  0  0  0  0  0  0  0  0  0
   37.6070   30.3190   48.1110 N   0  0  0  0  0  0  0  0  0  0  0  0
   36.7710   30.3650   49.1290 C   0  0  0  0  0  0  0  0  0  0  0  0
   36.6990   31.4700   49.8630 N   0  0  0  0  0  0  0  0  0  0  0  0
   30.4637   27.2228   50.7036 H   0  0  0  0  0  0  0  0  0  0  0  0
   28.5290   26.8114   52.2087 H   0  0  0  0  0  0  0  0  0  0  0  0
   26.2636   27.3123   51.4424 H   0  0  0  0  0  0  0  0  0  0  0  0
   25.8064   28.2233   49.2033 H   0  0  0  0  0  0  0  0  0  0  0  0
   26.5814   30.5854   49.2836 H   0  0  0  0  0  0  0  0  0  0  0  0
   25.6226   32.8828   49.2419 H   0  0  0  0  0  0  0  0  0  0  0  0
   25.4098   34.0587   47.0534 H   0  0  0  0  0  0  0  0  0  0  0  0
   26.1448   32.9414   44.9593 H   0  0  0  0  0  0  0  0  0  0  0  0
   28.3066   29.7541   44.4966 H   0  0  0  0  0  0  0  0  0  0  0  0
   33.2016   28.2469   46.5263 H   0  0  0  0  0  0  0  0  0  0  0  0
   34.5130   27.0543   49.4751 H   0  0  0  0  0  0  0  0  0  0  0  0
   33.9949   27.2552   47.7453 H   0  0  0  0  0  0  0  0  0  0  0  0
   36.2017   28.5173   50.2337 H   0  0  0  0  0  0  0  0  0  0  0  0
   34.7812   29.6054   47.7518 H   0  0  0  0  0  0  0  0  0  0  0  0
   37.3776   33.4214   50.2048 H   0  0  0  0  0  0  0  0  0  0  0  0
   38.9775   33.3769   48.2800 H   0  0  0  0  0  0  0  0  0  0  0  0
   39.1191   31.2616   46.8691 H   0  0  0  0  0  0  0  0  0  0  0  0
  1  2  1  0
  1  6  2  0
  2  3  2  0
  3  4  1  0
  5  4  2  0
  6  5  1  0
  7 11  1  0
  7  1  1  0
  8  7  2  0
  9  7  2  0
 10 11  2  0
 11 12  1  0
 13 12  2  0
 14 13  1  0
 15 10  1  0
 15 14  2  0
 16 10  1  0
 17 16  2  0
 18 16  2  0
 19  2  1  0
 21 19  1  0
 21 20  2  0
 21 23  1  0
 22 21  1  0
 24 23  1  0
 26 24  1  0
 26 25  2  0
 27 32  2  0
 28 27  1  0
 29 30  1  0
 29 28  2  0
 30 31  2  0
 31 25  1  0
 31 32  1  0
  3 33  1  0
  4 34  1  0
  5 35  1  0
  6 36  1  0
 12 37  1  0
 13 38  1  0
 14 39  1  0
 15 40  1  0
 16 41  1  0
 22 42  1  0
 24 43  1  0
 24 44  1  0
 25 45  1  0
 26 46  1  0
 27 47  1  0
 28 48  1  0
 29 49  1  0
M  ISO  8  33  14  34  14  35  14  36  14  37  14  38  14  39  14  40  14
M  ISO  7  41  11  42   3  43   8  44   8  47  14  48  14  49  14
M  END
>  <minimizedAffinity>  (1) 
-7.05595016

>  <minimizedRMSD>  (1) 
2.38972473

$$$$
