
     RDKit          3D

 25 26  0  0  0  0  0  0  0  0999 V2000
   33.4130   28.7140   46.7630 C   0  0  0  0  0  0  0  0  0  0  0  0
   33.7210   28.7100   48.0960 C   0  0  0  0  0  0  0  0  0  0  0  0
   32.8360   28.1950   49.0320 C   0  0  0  0  0  0  0  0  0  0  0  0
   31.6090   27.6650   48.6580 C   0  0  0  0  0  0  0  0  0  0  0  0
   31.3270   27.6830   47.3070 C   0  0  0  0  0  0  0  0  0  0  0  0
   32.1820   28.1840   46.3640 C   0  0  0  0  0  0  0  0  0  0  0  0
   36.8930   29.0780   49.9330 C   0  0  0  0  0  0  0  0  0  0  0  0
   37.3530   30.3300   49.5250 C   0  0  0  0  0  0  0  0  0  0  0  0
   36.5490   31.0300   48.6130 C   0  0  0  0  0  0  0  0  0  0  0  0
   35.3950   30.4480   48.1960 N   0  0  0  0  0  0  0  0  0  0  0  0
   34.9880   29.2430   48.6130 C   0  0  0  0  0  0  0  0  0  0  0  0
   35.7390   28.5440   49.4900 N   0  0  0  0  0  0  0  0  0  0  0  0
   38.5840   30.8500   50.0250 N   0  0  0  0  0  0  0  0  0  0  0  0
   34.5290   29.3610   45.5970 S   0  0  0  0  0  0  0  0  0  0  0  0
   34.8030   28.2880   44.5560 O   0  0  0  0  0  0  0  0  0  0  0  0
   33.9730   30.5410   44.8580 O   0  0  0  0  0  0  0  0  0  0  0  0
   33.1135   28.2070   50.0964 H   0  0  0  0  0  0  0  0  0  0  0  0
   30.9028   27.2547   49.3949 H   0  0  0  0  0  0  0  0  0  0  0  0
   30.3634   27.2726   46.9707 H   0  0  0  0  0  0  0  0  0  0  0  0
   31.9033   28.1701   45.3000 H   0  0  0  0  0  0  0  0  0  0  0  0
   37.4992   28.5019   50.6476 H   0  0  0  0  0  0  0  0  0  0  0  0
   36.8453   32.0236   48.2456 H   0  0  0  0  0  0  0  0  0  0  0  0
   38.9148   31.7756   49.7174 H   0  0  0  0  0  0  0  0  0  0  0  0
   39.1418   30.2997   50.6936 H   0  0  0  0  0  0  0  0  0  0  0  0
   35.6500   29.7529   46.2802 H   0  0  0  0  0  0  0  0  0  0  0  0
  1  2  2  0
  2 11  1  0
  2  3  1  0
  4  3  2  0
  5  4  1  0
  6  1  1  0
  6  5  2  0
  8  7  2  0
  8 13  1  0
  9  8  1  0
 10  9  2  0
 10 11  1  0
 11 12  2  0
 12  7  1  0
 14  1  1  0
 15 14  2  0
 16 14  2  0
  3 17  1  0
  4 18  1  0
  5 19  1  0
  6 20  1  0
  7 21  1  0
  9 22  1  0
 13 23  1  0
 13 24  1  0
 14 25  1  0
M  ISO  7  17  14  18  14  19  14  20  14  21  14  22  14  25  11
M  END
>  <minimizedAffinity>  (1) 
-4.26714993

>  <minimizedRMSD>  (1) 
1.85826612

$$$$
