
     RDKit          3D

 53 57  0  0  1  0  0  0  0  0999 V2000
   39.4470   28.7830   43.3050 C   0  0  0  0  0  0  0  0  0  0  0  0
   40.3250   29.8000   42.9720 C   0  0  0  0  0  0  0  0  0  0  0  0
   41.0630   29.6970   41.8000 C   0  0  0  0  0  0  0  0  0  0  0  0
   40.9540   28.6220   40.9610 C   0  0  0  0  0  0  0  0  0  0  0  0
   41.5590   28.3230   39.8010 N   0  0  0  0  0  0  0  0  0  0  0  0
   41.0630   27.1270   39.4130 C   0  0  0  0  0  0  0  0  0  0  0  0
   40.1270   26.6220   40.3080 C   0  0  0  0  0  0  0  0  0  0  0  0
   40.0830   27.6100   41.2910 C   0  0  0  0  0  0  0  0  0  0  0  0
   39.3530   27.7040   42.4400 C   0  0  0  0  0  0  0  0  0  0  0  0
   37.1050   26.4530   42.4450 C   0  0  0  0  0  0  0  0  0  0  0  0
   38.4290   26.5990   42.7600 C   0  0  0  0  0  0  0  0  0  0  0  0
   39.0930   25.6090   43.4890 C   0  0  0  0  0  0  0  0  0  0  0  0
   38.4390   24.4650   43.9090 C   0  0  0  0  0  0  0  0  0  0  0  0
   37.1020   24.3290   43.5850 C   0  0  0  0  0  0  0  0  0  0  0  0
   36.4550   25.3110   42.8640 C   0  0  0  0  0  0  0  0  0  0  0  0
   36.4370   27.7720   41.5390 S   0  0  0  0  0  0  0  0  0  0  0  0
   35.9400   28.8890   42.4130 O   0  0  0  0  0  0  0  0  0  0  0  0
   35.2610   27.2520   40.7560 O   0  0  0  0  0  0  0  0  0  0  0  0
   40.4410   30.9740   43.8920 C   0  0  0  0  0  0  0  0  0  0  0  0
   39.5460   30.7160   45.0840 C   0  0  0  0  0  0  0  0  0  0  0  0
   38.7710   32.2650   46.9180 C   0  0  1  0  0  0  0  0  0  0  0  0
   39.8890   33.0220   46.2410 C   0  0  0  0  0  0  0  0  0  0  0  0
   39.8760   31.5460   46.2720 C   0  0  2  0  0  0  0  0  0  0  0  0
   38.6970   32.4250   48.4050 C   0  0  0  0  0  0  0  0  0  0  0  0
   37.4460   30.0150   50.9910 C   0  0  0  0  0  0  0  0  0  0  0  0
   38.1600   31.0850   50.3620 C   0  0  0  0  0  0  0  0  0  0  0  0
   37.9480   31.3120   49.0330 C   0  0  0  0  0  0  0  0  0  0  0  0
   37.0760   30.5150   48.3790 N   0  0  0  0  0  0  0  0  0  0  0  0
   36.4120   29.5170   48.9740 C   0  0  0  0  0  0  0  0  0  0  0  0
   36.6060   29.2800   50.2720 N   0  0  0  0  0  0  0  0  0  0  0  0
   38.8447   28.8295   44.2243 H   0  0  0  0  0  0  0  0  0  0  0  0
   41.7589   30.5074   41.5374 H   0  0  0  0  0  0  0  0  0  0  0  0
   42.2608   28.8912   39.3055 H   0  0  0  0  0  0  0  0  0  0  0  0
   41.3666   26.6103   38.4906 H   0  0  0  0  0  0  0  0  0  0  0  0
   39.5626   25.6794   40.2543 H   0  0  0  0  0  0  0  0  0  0  0  0
   40.1571   25.7422   43.7337 H   0  0  0  0  0  0  0  0  0  0  0  0
   38.9659   23.6882   44.4825 H   0  0  0  0  0  0  0  0  0  0  0  0
   36.5507   23.4322   43.9041 H   0  0  0  0  0  0  0  0  0  0  0  0
   35.3913   25.1797   42.6164 H   0  0  0  0  0  0  0  0  0  0  0  0
   37.4322   28.2689   40.7392 H   0  0  0  0  0  0  0  0  0  0  0  0
   41.4835   31.0878   44.2242 H   0  0  0  0  0  0  0  0  0  0  0  0
   40.1390   31.8978   43.3769 H   0  0  0  0  0  0  0  0  0  0  0  0
   38.5074   30.9281   44.7903 H   0  0  0  0  0  0  0  0  0  0  0  0
   39.6948   29.6658   45.3753 H   0  0  0  0  0  0  0  0  0  0  0  0
   37.6775   32.1754   46.8386 H   0  0  0  0  0  0  0  0  0  0  0  0
   40.6212   33.5814   46.8417 H   0  0  0  0  0  0  0  0  0  0  0  0
   39.9535   33.7895   45.4557 H   0  0  0  0  0  0  0  0  0  0  0  0
   40.6379   30.8115   46.5720 H   0  0  0  0  0  0  0  0  0  0  0  0
   39.7180   32.4446   48.8139 H   0  0  0  0  0  0  0  0  0  0  0  0
   38.1693   33.3646   48.6257 H   0  0  0  0  0  0  0  0  0  0  0  0
   37.5922   29.8038   52.0606 H   0  0  0  0  0  0  0  0  0  0  0  0
   38.8618   31.7084   50.9355 H   0  0  0  0  0  0  0  0  0  0  0  0
   35.7110   28.8964   48.3965 H   0  0  0  0  0  0  0  0  0  0  0  0
  2  1  2  0
  2 19  1  0
  3  2  1  0
  4  8  1  0
  4  3  2  0
  5  4  1  0
  6  5  1  0
  6  7  2  0
  7  8  1  0
  8  9  2  0
  9 11  1  0
  9  1  1  0
 10 11  2  0
 10 15  1  0
 11 12  1  0
 12 13  2  0
 14 13  1  0
 15 14  2  0
 16 17  2  0
 16 10  1  0
 18 16  2  0
 19 20  1  0
 20 23  1  0
 21 24  1  0
 22 23  1  0
 22 21  1  0
 23 21  1  0
 24 27  1  0
 26 25  2  0
 27 26  1  0
 28 29  1  0
 28 27  2  0
 29 30  2  0
 30 25  1  0
  1 31  1  0
  3 32  1  0
  5 33  1  0
  6 34  1  0
  7 35  1  0
 12 36  1  0
 13 37  1  0
 14 38  1  0
 15 39  1  0
 16 40  1  0
 19 41  1  0
 19 42  1  0
 20 43  1  0
 20 44  1  0
 21 45  1  6
 22 46  1  0
 22 47  1  0
 23 48  1  1
 24 49  1  0
 24 50  1  0
 25 51  1  0
 26 52  1  0
 29 53  1  0
M  ISO  8  31  14  32  14  33   9  34  14  35  14  36  14  37  14  38  14
M  ISO  8  39  14  40  11  41   8  42   8  43   8  44   8  45  13  46  13
M  ISO  7  47  13  48  13  49   8  50   8  51  14  52  14  53  14
M  END
>  <minimizedAffinity>  (1) 
-6.13165998

>  <minimizedRMSD>  (1) 
0.569407344

$$$$
