
     RDKit          3D

 24 25  0  0  0  0  0  0  0  0999 V2000
   36.0760   29.8470   48.8750 C   0  0  0  0  0  0  0  0  0  0  0  0
   37.3100   30.4620   48.8100 C   0  0  0  0  0  0  0  0  0  0  0  0
   37.9990   30.6470   49.9970 C   0  0  0  0  0  0  0  0  0  0  0  0
   37.5190   30.2530   51.2240 C   0  0  0  0  0  0  0  0  0  0  0  0
   36.2960   29.6410   51.3200 C   0  0  0  0  0  0  0  0  0  0  0  0
   35.6130   29.4570   50.1350 C   0  0  0  0  0  0  0  0  0  0  0  0
   39.7580   31.0420   46.1440 C   0  0  0  0  0  0  0  0  0  0  0  0
   39.0230   31.7180   45.1710 C   0  0  0  0  0  0  0  0  0  0  0  0
   37.6870   31.9770   45.4250 C   0  0  0  0  0  0  0  0  0  0  0  0
   37.1660   31.5600   46.6030 N   0  0  0  0  0  0  0  0  0  0  0  0
   37.8820   30.9050   47.5430 C   0  0  0  0  0  0  0  0  0  0  0  0
   39.1670   30.6640   47.2840 N   0  0  0  0  0  0  0  0  0  0  0  0
   41.0830   30.8440   45.7710 O   0  0  0  0  0  0  0  0  0  0  0  0
   35.1360   29.5710   47.4300 S   0  0  0  0  0  0  0  0  0  0  0  0
   33.9920   30.5760   47.4280 O   0  0  0  0  0  0  0  0  0  0  0  0
   34.4320   28.2210   47.4730 O   0  0  0  0  0  0  0  0  0  0  0  0
   38.9837   31.1356   49.9561 H   0  0  0  0  0  0  0  0  0  0  0  0
   38.1174   30.4292   52.1300 H   0  0  0  0  0  0  0  0  0  0  0  0
   35.8828   29.3153   52.2860 H   0  0  0  0  0  0  0  0  0  0  0  0
   34.6298   28.9663   50.1858 H   0  0  0  0  0  0  0  0  0  0  0  0
   39.4915   32.0366   44.2281 H   0  0  0  0  0  0  0  0  0  0  0  0
   37.0651   32.5077   44.6891 H   0  0  0  0  0  0  0  0  0  0  0  0
   41.4048   31.1724   44.8943 H   0  0  0  0  0  0  0  0  0  0  0  0
   35.9835   29.6567   46.3570 H   0  0  0  0  0  0  0  0  0  0  0  0
  1  6  2  0
  2  1  1  0
  2  3  2  0
  3  4  1  0
  4  5  2  0
  6  5  1  0
  7 12  2  0
  8  9  2  0
  8  7  1  0
  9 10  1  0
 10 11  2  0
 11  2  1  0
 12 11  1  0
 13  7  1  0
 14 16  2  0
 14  1  1  0
 15 14  2  0
  3 17  1  0
  4 18  1  0
  5 19  1  0
  6 20  1  0
  8 21  1  0
  9 22  1  0
 13 23  1  0
 14 24  1  0
M  ISO  8  17  14  18  14  19  14  20  14  21  14  22  14  23   3  24  11
M  END
>  <minimizedAffinity>  (1) 
-5.08057356

>  <minimizedRMSD>  (1) 
4.4013567

$$$$
