
     RDKit          3D

 50 54  0  0  1  0  0  0  0  0999 V2000
   39.5180   29.5800   42.5090 C   0  0  1  0  0  0  0  0  0  0  0  0
   38.9870   30.9610   42.1550 C   0  0  0  0  0  0  0  0  0  0  0  0
   39.9390   31.8560   42.8900 C   0  0  2  0  0  0  0  0  0  0  0  0
   40.7320   31.0770   43.6770 O   0  0  0  0  0  0  0  0  0  0  0  0
   40.0930   29.8680   43.8850 C   0  0  0  0  0  0  0  0  0  0  0  0
   39.2080   32.9220   43.6650 C   0  0  0  0  0  0  0  0  0  0  0  0
   40.2890   33.4480   45.0190 S   0  0  0  0  0  0  0  0  0  0  0  0
   37.7590   31.7990   47.5890 C   0  0  0  0  0  0  0  0  0  0  0  0
   38.0270   32.4430   48.7980 C   0  0  0  0  0  0  0  0  0  0  0  0
   38.9980   33.4160   48.8800 C   0  0  0  0  0  0  0  0  0  0  0  0
   39.6690   33.7020   47.7200 C   0  0  0  0  0  0  0  0  0  0  0  0
   39.3950   33.0630   46.5470 C   0  0  0  0  0  0  0  0  0  0  0  0
   38.4420   32.1050   46.4580 N   0  0  0  0  0  0  0  0  0  0  0  0
   36.7250   30.7920   47.5860 C   0  0  0  0  0  0  0  0  0  0  0  0
   36.2590   30.3500   46.5360 O   0  0  0  0  0  0  0  0  0  0  0  0
   37.0580   29.6250   49.7390 C   0  0  0  0  0  0  0  0  0  0  0  0
   36.1690   30.2330   48.8360 C   0  0  0  0  0  0  0  0  0  0  0  0
   34.7960   30.2960   49.1350 C   0  0  0  0  0  0  0  0  0  0  0  0
   34.3790   29.7470   50.3220 N   0  0  0  0  0  0  0  0  0  0  0  0
   35.2450   29.1700   51.1720 C   0  0  0  0  0  0  0  0  0  0  0  0
   36.5560   29.1110   50.8850 N   0  0  0  0  0  0  0  0  0  0  0  0
   38.4990   28.6500   42.5560 O   0  0  0  0  0  0  0  0  0  0  0  0
   38.5320   26.4630   41.2710 N   0  0  0  0  0  0  0  0  0  0  0  0
   38.6060   27.2960   42.3450 C   0  0  0  0  0  0  0  0  0  0  0  0
   38.8510   26.5550   43.4660 N   0  0  0  0  0  0  0  0  0  0  0  0
   38.9270   25.2550   43.0840 C   0  0  0  0  0  0  0  0  0  0  0  0
   39.1470   24.0460   43.7250 C   0  0  0  0  0  0  0  0  0  0  0  0
   39.1530   22.9260   43.0010 N   0  0  0  0  0  0  0  0  0  0  0  0
   38.9580   22.8890   41.6690 C   0  0  0  0  0  0  0  0  0  0  0  0
   38.7370   24.0600   41.0010 N   0  0  0  0  0  0  0  0  0  0  0  0
   38.7270   25.2090   41.7200 C   0  0  0  0  0  0  0  0  0  0  0  0
   39.3520   24.1060   45.1330 N   0  0  0  0  0  0  0  0  0  0  0  0
   40.2350   29.1514   41.7934 H   0  0  0  0  0  0  0  0  0  0  0  0
   39.0270   31.1391   41.0702 H   0  0  0  0  0  0  0  0  0  0  0  0
   37.9323   31.1149   42.4270 H   0  0  0  0  0  0  0  0  0  0  0  0
   40.5753   32.4021   42.1780 H   0  0  0  0  0  0  0  0  0  0  0  0
   39.2983   29.9596   44.6400 H   0  0  0  0  0  0  0  0  0  0  0  0
   40.7529   29.0752   44.2670 H   0  0  0  0  0  0  0  0  0  0  0  0
   38.9844   33.7764   43.0093 H   0  0  0  0  0  0  0  0  0  0  0  0
   38.2570   32.5325   44.0573 H   0  0  0  0  0  0  0  0  0  0  0  0
   37.4551   32.1697   49.6970 H   0  0  0  0  0  0  0  0  0  0  0  0
   39.2224   33.9346   49.8238 H   0  0  0  0  0  0  0  0  0  0  0  0
   40.4543   34.4721   47.7356 H   0  0  0  0  0  0  0  0  0  0  0  0
   38.1344   29.5686   49.5194 H   0  0  0  0  0  0  0  0  0  0  0  0
   34.0827   30.7678   48.4431 H   0  0  0  0  0  0  0  0  0  0  0  0
   34.8757   28.7404   52.1149 H   0  0  0  0  0  0  0  0  0  0  0  0
   38.3587   26.7410   40.2945 H   0  0  0  0  0  0  0  0  0  0  0  0
   38.9764   21.9316   41.1277 H   0  0  0  0  0  0  0  0  0  0  0  0
   39.5206   23.2410   45.6662 H   0  0  0  0  0  0  0  0  0  0  0  0
   39.3317   25.0144   45.6181 H   0  0  0  0  0  0  0  0  0  0  0  0
  1 22  1  0
  1  5  1  0
  2  1  1  0
  2  3  1  0
  3  6  1  0
  3  4  1  0
  4  5  1  0
  6  7  1  0
  7 12  1  0
  8  9  2  0
  9 10  1  0
 11 10  2  0
 12 11  1  0
 13 12  2  0
 13  8  1  0
 14  8  1  0
 14 17  1  0
 15 14  2  0
 16 21  2  0
 17 18  2  0
 17 16  1  0
 18 19  1  0
 19 20  2  0
 21 20  1  0
 23 31  1  0
 23 24  1  0
 24 22  1  0
 24 25  2  0
 26 25  1  0
 26 27  2  0
 27 32  1  0
 28 27  1  0
 29 28  2  0
 30 29  1  0
 30 31  2  0
 31 26  1  0
  1 33  1  6
  2 34  1  0
  2 35  1  0
  3 36  1  6
  5 37  1  0
  5 38  1  0
  6 39  1  0
  6 40  1  0
  9 41  1  0
 10 42  1  0
 11 43  1  0
 16 44  1  0
 18 45  1  0
 20 46  1  0
 23 47  1  0
 29 48  1  0
 32 49  1  0
 32 50  1  0
M  ISO  8  33  13  34  13  35  13  36  13  37  13  38  13  39   8  40   8
M  ISO  8  41  14  42  14  43  14  44  14  45  14  46  14  47   9  48  14
M  END
>  <minimizedAffinity>  (1) 
-5.69977665

>  <minimizedRMSD>  (1) 
1.97583961

$$$$
