
     RDKit          3D

 32 34  0  0  0  0  0  0  0  0999 V2000
   35.3100   28.5870   48.7340 O   0  0  0  0  0  0  0  0  0  0  0  0
   34.8800   29.9990   49.0030 P   0  0  2  0  0  0  0  0  0  0  0  0
   33.8720   29.9680   50.3920 O   0  0  0  0  0  0  0  0  0  0  0  0
   33.9960   30.6200   47.7150 O   0  0  0  0  0  0  0  0  0  0  0  0
   34.1280   29.7710   46.6430 C   0  0  0  0  0  0  0  0  0  0  0  0
   33.4410   30.2660   45.4210 C   0  0  0  0  0  0  0  0  0  0  0  0
   32.2340   30.9360   45.5760 C   0  0  0  0  0  0  0  0  0  0  0  0
   31.5790   31.4070   44.4340 C   0  0  0  0  0  0  0  0  0  0  0  0
   32.1720   31.1760   43.2250 N   0  0  0  0  0  0  0  0  0  0  0  0
   33.3420   30.5220   43.1110 C   0  0  0  0  0  0  0  0  0  0  0  0
   33.9780   30.0680   44.1960 N   0  0  0  0  0  0  0  0  0  0  0  0
   36.2510   30.9520   49.3000 O   0  0  0  0  0  0  0  0  0  0  0  0
   37.6530   30.3620   47.3890 N   0  0  0  0  0  0  0  0  0  0  0  0
   37.2490   31.1920   48.3800 C   0  0  0  0  0  0  0  0  0  0  0  0
   37.9980   32.3090   48.3160 N   0  0  0  0  0  0  0  0  0  0  0  0
   38.8790   32.2000   47.2910 C   0  0  0  0  0  0  0  0  0  0  0  0
   39.8510   33.0870   46.8310 C   0  0  0  0  0  0  0  0  0  0  0  0
   40.6060   32.7200   45.7690 N   0  0  0  0  0  0  0  0  0  0  0  0
   40.3750   31.5020   45.2060 C   0  0  0  0  0  0  0  0  0  0  0  0
   39.4370   30.6600   45.6590 N   0  0  0  0  0  0  0  0  0  0  0  0
   38.6460   30.9550   46.7120 C   0  0  0  0  0  0  0  0  0  0  0  0
   40.0050   34.3410   47.5000 N   0  0  0  0  0  0  0  0  0  0  0  0
   34.4332   29.9853   51.2074 H   0  0  0  0  0  0  0  0  0  0  0  0
   35.1985   29.6527   46.4195 H   0  0  0  0  0  0  0  0  0  0  0  0
   33.6580   28.8159   46.9203 H   0  0  0  0  0  0  0  0  0  0  0  0
   31.8028   31.0926   46.5758 H   0  0  0  0  0  0  0  0  0  0  0  0
   30.6216   31.9437   44.5063 H   0  0  0  0  0  0  0  0  0  0  0  0
   33.7799   30.3591   42.1152 H   0  0  0  0  0  0  0  0  0  0  0  0
   37.2622   29.4303   47.1890 H   0  0  0  0  0  0  0  0  0  0  0  0
   40.9844   31.1966   44.3427 H   0  0  0  0  0  0  0  0  0  0  0  0
   40.7166   35.0125   47.1780 H   0  0  0  0  0  0  0  0  0  0  0  0
   39.4044   34.5730   48.3040 H   0  0  0  0  0  0  0  0  0  0  0  0
  2  1  2  0
  2 12  1  0
  2  3  1  0
  4  2  1  0
  5  4  1  0
  6  7  2  0
  6  5  1  0
  8  7  1  0
  9  8  2  0
 10  9  1  0
 10 11  2  0
 11  6  1  0
 13 14  1  0
 14 12  1  0
 15 14  2  0
 16 15  1  0
 17 16  2  0
 17 22  1  0
 18 17  1  0
 19 20  1  0
 19 18  2  0
 20 21  2  0
 21 16  1  0
 21 13  1  0
  3 23  1  0
  5 24  1  0
  5 25  1  0
  7 26  1  0
  8 27  1  0
 10 28  1  0
 13 29  1  0
 19 30  1  0
 22 31  1  0
 22 32  1  0
M  ISO  8  23   3  24   8  25   8  26  14  27  14  28  14  29   9  30  14
M  END
>  <minimizedAffinity>  (1) 
-4.97684813

>  <minimizedRMSD>  (1) 
4.92059755

$$$$
