
     RDKit          3D

 53 58  0  0  1  0  0  0  0  0999 V2000
   39.3290   28.8820   43.1660 C   0  0  0  0  0  0  0  0  0  0  0  0
   40.3280   29.8050   42.9110 C   0  0  0  0  0  0  0  0  0  0  0  0
   41.1610   29.6460   41.7970 C   0  0  0  0  0  0  0  0  0  0  0  0
   40.9950   28.5690   40.9490 C   0  0  0  0  0  0  0  0  0  0  0  0
   41.6590   28.2090   39.8340 N   0  0  0  0  0  0  0  0  0  0  0  0
   41.0850   27.0780   39.4000 C   0  0  0  0  0  0  0  0  0  0  0  0
   40.0510   26.6790   40.2030 C   0  0  0  0  0  0  0  0  0  0  0  0
   40.0020   27.6450   41.1960 C   0  0  0  0  0  0  0  0  0  0  0  0
   39.1860   27.8120   42.2960 C   0  0  0  0  0  0  0  0  0  0  0  0
   38.1750   26.8290   42.5070 N   0  0  0  0  0  0  0  0  0  0  0  0
   36.9480   27.0400   41.9590 C   0  0  0  0  0  0  0  0  0  0  0  0
   36.1740   25.9760   42.2990 N   0  0  0  0  0  0  0  0  0  0  0  0
   36.9120   25.1260   43.0420 C   0  0  0  0  0  0  0  0  0  0  0  0
   36.7320   23.9070   43.6760 C   0  0  0  0  0  0  0  0  0  0  0  0
   37.7340   23.3390   44.3500 N   0  0  0  0  0  0  0  0  0  0  0  0
   38.9500   23.8950   44.4540 C   0  0  0  0  0  0  0  0  0  0  0  0
   39.1750   25.0880   43.8500 N   0  0  0  0  0  0  0  0  0  0  0  0
   38.1840   25.6690   43.1720 C   0  0  0  0  0  0  0  0  0  0  0  0
   35.4440   23.3040   43.5740 N   0  0  0  0  0  0  0  0  0  0  0  0
   40.4870   30.9640   43.8440 C   0  0  0  0  0  0  0  0  0  0  0  0
   39.6200   30.6960   45.0540 C   0  0  0  0  0  0  0  0  0  0  0  0
   38.7990   32.2440   46.8710 C   0  0  1  0  0  0  0  0  0  0  0  0
   39.9000   33.0220   46.1880 C   0  0  0  0  0  0  0  0  0  0  0  0
   39.9300   31.5470   46.2300 C   0  0  2  0  0  0  0  0  0  0  0  0
   38.7220   32.4240   48.3530 C   0  0  0  0  0  0  0  0  0  0  0  0
   37.4670   30.0590   50.9780 C   0  0  0  0  0  0  0  0  0  0  0  0
   38.1720   31.1120   50.3300 C   0  0  0  0  0  0  0  0  0  0  0  0
   37.9690   31.3180   48.9940 C   0  0  0  0  0  0  0  0  0  0  0  0
   37.1110   30.5120   48.3590 N   0  0  0  0  0  0  0  0  0  0  0  0
   36.4470   29.5240   48.9640 C   0  0  0  0  0  0  0  0  0  0  0  0
   36.6380   29.3120   50.2730 N   0  0  0  0  0  0  0  0  0  0  0  0
   38.6656   28.9943   44.0363 H   0  0  0  0  0  0  0  0  0  0  0  0
   41.9522   30.3833   41.5962 H   0  0  0  0  0  0  0  0  0  0  0  0
   42.4511   28.7046   39.4005 H   0  0  0  0  0  0  0  0  0  0  0  0
   41.4082   26.5328   38.5010 H   0  0  0  0  0  0  0  0  0  0  0  0
   39.4068   25.7949   40.0871 H   0  0  0  0  0  0  0  0  0  0  0  0
   36.6408   27.9069   41.3555 H   0  0  0  0  0  0  0  0  0  0  0  0
   39.7495   23.3929   45.0185 H   0  0  0  0  0  0  0  0  0  0  0  0
   35.2621   22.3978   44.0286 H   0  0  0  0  0  0  0  0  0  0  0  0
   34.6954   23.7746   43.0457 H   0  0  0  0  0  0  0  0  0  0  0  0
   41.5395   31.0584   44.1496 H   0  0  0  0  0  0  0  0  0  0  0  0
   40.1869   31.9011   43.3523 H   0  0  0  0  0  0  0  0  0  0  0  0
   38.5712   30.8688   44.7710 H   0  0  0  0  0  0  0  0  0  0  0  0
   39.8162   29.6570   45.3574 H   0  0  0  0  0  0  0  0  0  0  0  0
   37.7088   32.1211   46.7918 H   0  0  0  0  0  0  0  0  0  0  0  0
   40.6157   33.6062   46.7851 H   0  0  0  0  0  0  0  0  0  0  0  0
   39.9446   33.7835   45.3955 H   0  0  0  0  0  0  0  0  0  0  0  0
   40.7148   30.8389   46.5343 H   0  0  0  0  0  0  0  0  0  0  0  0
   39.7420   32.4480   48.7641 H   0  0  0  0  0  0  0  0  0  0  0  0
   38.1954   33.3672   48.5604 H   0  0  0  0  0  0  0  0  0  0  0  0
   37.6111   29.8702   52.0521 H   0  0  0  0  0  0  0  0  0  0  0  0
   38.8684   31.7493   50.8947 H   0  0  0  0  0  0  0  0  0  0  0  0
   35.7509   28.8912   48.3939 H   0  0  0  0  0  0  0  0  0  0  0  0
  2  1  2  0
  2 20  1  0
  3  2  1  0
  4  8  1  0
  4  3  2  0
  5  4  1  0
  6  5  1  0
  6  7  2  0
  7  8  1  0
  8  9  2  0
  9 10  1  0
  9  1  1  0
 10 18  1  0
 11 12  2  0
 11 10  1  0
 12 13  1  0
 13 18  2  0
 13 14  1  0
 14 15  2  0
 15 16  1  0
 17 16  2  0
 18 17  1  0
 19 14  1  0
 20 21  1  0
 21 24  1  0
 22 25  1  0
 23 24  1  0
 23 22  1  0
 24 22  1  0
 25 28  1  0
 27 26  2  0
 28 27  1  0
 29 30  1  0
 29 28  2  0
 30 31  2  0
 31 26  1  0
  1 32  1  0
  3 33  1  0
  5 34  1  0
  6 35  1  0
  7 36  1  0
 11 37  1  0
 16 38  1  0
 19 39  1  0
 19 40  1  0
 20 41  1  0
 20 42  1  0
 21 43  1  0
 21 44  1  0
 22 45  1  6
 23 46  1  0
 23 47  1  0
 24 48  1  1
 25 49  1  0
 25 50  1  0
 26 51  1  0
 27 52  1  0
 30 53  1  0
M  ISO  8  32  14  33  14  34   9  35  14  36  14  37  14  38  14  41   8
M  ISO  8  42   8  43   8  44   8  45  13  46  13  47  13  48  13  49   8
M  ISO  4  50   8  51  14  52  14  53  14
M  END
>  <minimizedAffinity>  (1) 
-6.22320557

>  <minimizedRMSD>  (1) 
0.903243005

$$$$
