
     RDKit          3D

 24 26  0  0  0  0  0  0  0  0999 V2000
   35.8050   30.0590   47.5500 N   0  0  0  0  0  0  0  0  0  0  0  0
   35.2470   29.0710   48.2820 C   0  0  0  0  0  0  0  0  0  0  0  0
   35.8290   29.0390   49.5000 N   0  0  0  0  0  0  0  0  0  0  0  0
   36.7690   30.0240   49.5420 C   0  0  0  0  0  0  0  0  0  0  0  0
   37.6450   30.4400   50.5130 C   0  0  0  0  0  0  0  0  0  0  0  0
   38.4660   31.4690   50.2330 N   0  0  0  0  0  0  0  0  0  0  0  0
   38.4360   32.0800   49.0330 C   0  0  0  0  0  0  0  0  0  0  0  0
   37.5820   31.6710   48.0940 N   0  0  0  0  0  0  0  0  0  0  0  0
   36.7440   30.6510   48.3210 C   0  0  0  0  0  0  0  0  0  0  0  0
   37.6970   29.8170   51.7790 N   0  0  0  0  0  0  0  0  0  0  0  0
   34.2590   28.3190   47.7100 O   0  0  0  0  0  0  0  0  0  0  0  0
   31.9440   28.0270   47.6130 C   0  0  0  0  0  0  0  0  0  0  0  0
   33.0660   28.7670   47.1880 C   0  0  0  0  0  0  0  0  0  0  0  0
   32.8450   29.8380   46.3140 C   0  0  0  0  0  0  0  0  0  0  0  0
   31.5830   30.1000   45.9280 N   0  0  0  0  0  0  0  0  0  0  0  0
   30.5280   29.3720   46.3540 C   0  0  0  0  0  0  0  0  0  0  0  0
   30.6970   28.3220   47.2040 N   0  0  0  0  0  0  0  0  0  0  0  0
   35.5602   30.3143   46.5826 H   0  0  0  0  0  0  0  0  0  0  0  0
   39.1176   32.9184   48.8270 H   0  0  0  0  0  0  0  0  0  0  0  0
   38.3644   30.1495   52.4896 H   0  0  0  0  0  0  0  0  0  0  0  0
   37.0676   29.0300   51.9919 H   0  0  0  0  0  0  0  0  0  0  0  0
   32.0929   27.1816   48.3008 H   0  0  0  0  0  0  0  0  0  0  0  0
   33.6834   30.4509   45.9514 H   0  0  0  0  0  0  0  0  0  0  0  0
   29.5164   29.6316   46.0087 H   0  0  0  0  0  0  0  0  0  0  0  0
  1  2  1  0
  1  9  1  0
  2  3  2  0
  3  4  1  0
  4  5  2  0
  5 10  1  0
  6  5  1  0
  7  6  2  0
  8  9  2  0
  8  7  1  0
  9  4  1  0
 11  2  1  0
 13 12  2  0
 13 11  1  0
 14 13  1  0
 15 14  2  0
 15 16  1  0
 16 17  2  0
 17 12  1  0
  1 18  1  0
  7 19  1  0
 10 20  1  0
 10 21  1  0
 12 22  1  0
 14 23  1  0
 16 24  1  0
M  ISO  5  18   9  19  14  22  14  23  14  24  14
M  END
>  <minimizedAffinity>  (1) 
-4.84091234

>  <minimizedRMSD>  (1) 
5.4619422

$$$$
