
     RDKit          3D

 39 43  0  0  0  0  0  0  0  0999 V2000
   35.6340   29.3040   48.7900 C   0  0  0  0  0  0  0  0  0  0  0  0
   35.5370   30.0830   47.5990 C   0  0  0  0  0  0  0  0  0  0  0  0
   34.3530   30.0040   46.8740 C   0  0  0  0  0  0  0  0  0  0  0  0
   33.3690   29.1980   47.3420 N   0  0  0  0  0  0  0  0  0  0  0  0
   33.4750   28.4710   48.4650 C   0  0  0  0  0  0  0  0  0  0  0  0
   34.6130   28.5300   49.1830 N   0  0  0  0  0  0  0  0  0  0  0  0
   37.4530   31.3670   48.3620 C   0  0  0  0  0  0  0  0  0  0  0  0
   36.7210   30.8660   47.3100 C   0  0  0  0  0  0  0  0  0  0  0  0
   37.1720   31.1440   46.0240 C   0  0  0  0  0  0  0  0  0  0  0  0
   38.3290   31.9090   45.8630 C   0  0  0  0  0  0  0  0  0  0  0  0
   38.9950   32.3350   44.7730 N   0  0  0  0  0  0  0  0  0  0  0  0
   40.0680   33.0510   45.1490 C   0  0  0  0  0  0  0  0  0  0  0  0
   40.0950   33.0890   46.5090 N   0  0  0  0  0  0  0  0  0  0  0  0
   39.0330   32.3920   46.9320 C   0  0  0  0  0  0  0  0  0  0  0  0
   38.5950   32.1200   48.1930 C   0  0  0  0  0  0  0  0  0  0  0  0
   32.3180   27.6210   48.8720 C   0  0  0  0  0  0  0  0  0  0  0  0
   32.1290   26.5650   47.9120 N   0  0  0  0  0  0  0  0  0  0  0  0
   32.9870   25.6970   47.3430 C   0  0  0  0  0  0  0  0  0  0  0  0
   32.2860   24.9020   46.4990 N   0  0  0  0  0  0  0  0  0  0  0  0
   31.0060   25.2540   46.5260 C   0  0  0  0  0  0  0  0  0  0  0  0
   29.9090   24.7370   45.8380 C   0  0  0  0  0  0  0  0  0  0  0  0
   28.7030   25.3060   46.0710 N   0  0  0  0  0  0  0  0  0  0  0  0
   28.6030   26.3410   46.9510 C   0  0  0  0  0  0  0  0  0  0  0  0
   29.6550   26.8470   47.6190 N   0  0  0  0  0  0  0  0  0  0  0  0
   30.8890   26.3080   47.4190 C   0  0  0  0  0  0  0  0  0  0  0  0
   30.0430   23.6490   44.9200 N   0  0  0  0  0  0  0  0  0  0  0  0
   36.5547   29.3389   49.3910 H   0  0  0  0  0  0  0  0  0  0  0  0
   34.2188   30.5797   45.9464 H   0  0  0  0  0  0  0  0  0  0  0  0
   37.1106   31.1566   49.3860 H   0  0  0  0  0  0  0  0  0  0  0  0
   36.6255   30.7669   45.1470 H   0  0  0  0  0  0  0  0  0  0  0  0
   38.7231   32.1413   43.7986 H   0  0  0  0  0  0  0  0  0  0  0  0
   40.7974   33.5240   44.4750 H   0  0  0  0  0  0  0  0  0  0  0  0
   39.1467   32.4972   49.0667 H   0  0  0  0  0  0  0  0  0  0  0  0
   32.5160   27.1839   49.8618 H   0  0  0  0  0  0  0  0  0  0  0  0
   31.4096   28.2398   48.9158 H   0  0  0  0  0  0  0  0  0  0  0  0
   34.0695   25.6428   47.5309 H   0  0  0  0  0  0  0  0  0  0  0  0
   27.6118   26.7854   47.1240 H   0  0  0  0  0  0  0  0  0  0  0  0
   30.9675   23.2266   44.7534 H   0  0  0  0  0  0  0  0  0  0  0  0
   29.2150   23.2876   44.4253 H   0  0  0  0  0  0  0  0  0  0  0  0
  1  6  2  0
  2  1  1  0
  3  4  1  0
  3  2  2  0
  4  5  2  0
  5 16  1  0
  5  6  1  0
  8  2  1  0
  8  7  2  0
  9  8  1  0
 10  9  2  0
 10 14  1  0
 11 12  1  0
 11 10  1  0
 12 13  2  0
 13 14  1  0
 14 15  2  0
 15  7  1  0
 17 16  1  0
 18 17  1  0
 19 20  1  0
 19 18  2  0
 20 25  2  0
 21 22  2  0
 21 20  1  0
 22 23  1  0
 23 24  2  0
 25 24  1  0
 25 17  1  0
 26 21  1  0
  1 27  1  0
  3 28  1  0
  7 29  1  0
  9 30  1  0
 11 31  1  0
 12 32  1  0
 15 33  1  0
 16 34  1  0
 16 35  1  0
 18 36  1  0
 23 37  1  0
 26 38  1  0
 26 39  1  0
M  ISO  8  27  14  28  14  29  14  30  14  31   9  32  14  33  14  34   8
M  ISO  3  35   8  36  14  37  14
M  END
>  <minimizedAffinity>  (1) 
-5.90121937

>  <minimizedRMSD>  (1) 
1.09019458

$$$$
