
     RDKit          3D

 43 48  0  0  0  0  0  0  0  0999 V2000
   37.1610   29.4140   51.3120 C   0  0  0  0  0  0  0  0  0  0  0  0
   37.9630   30.2030   50.4410 C   0  0  0  0  0  0  0  0  0  0  0  0
   37.5290   30.3310   49.1340 C   0  0  0  0  0  0  0  0  0  0  0  0
   36.3880   29.7210   48.7340 N   0  0  0  0  0  0  0  0  0  0  0  0
   35.6430   28.9700   49.6030 C   0  0  0  0  0  0  0  0  0  0  0  0
   36.0450   28.8350   50.8650 N   0  0  0  0  0  0  0  0  0  0  0  0
   38.1750   31.0690   48.1040 N   0  0  0  0  0  0  0  0  0  0  0  0
   38.2990   30.6650   46.8160 C   0  0  0  0  0  0  0  0  0  0  0  0
   38.9690   31.6070   46.1040 N   0  0  0  0  0  0  0  0  0  0  0  0
   39.2670   32.6010   46.9390 C   0  0  0  0  0  0  0  0  0  0  0  0
   39.9430   33.7760   46.6670 C   0  0  0  0  0  0  0  0  0  0  0  0
   40.1080   34.6200   47.7140 N   0  0  0  0  0  0  0  0  0  0  0  0
   39.6220   34.2950   48.9460 C   0  0  0  0  0  0  0  0  0  0  0  0
   38.9570   33.1290   49.1910 N   0  0  0  0  0  0  0  0  0  0  0  0
   38.7710   32.2660   48.1870 C   0  0  0  0  0  0  0  0  0  0  0  0
   34.4260   28.3320   49.1320 C   0  0  0  0  0  0  0  0  0  0  0  0
   34.3560   27.3300   48.1830 C   0  0  0  0  0  0  0  0  0  0  0  0
   33.0420   26.9910   48.0080 C   0  0  0  0  0  0  0  0  0  0  0  0
   32.3140   27.7950   48.8580 N   0  0  0  0  0  0  0  0  0  0  0  0
   33.1770   28.5780   49.5080 N   0  0  0  0  0  0  0  0  0  0  0  0
   30.1040   27.1590   48.0030 N   0  0  0  0  0  0  0  0  0  0  0  0
   30.9070   27.7270   48.9510 C   0  0  0  0  0  0  0  0  0  0  0  0
   30.0840   28.1660   49.9160 N   0  0  0  0  0  0  0  0  0  0  0  0
   28.7940   27.8960   49.6090 C   0  0  0  0  0  0  0  0  0  0  0  0
   27.5650   28.0890   50.1700 C   0  0  0  0  0  0  0  0  0  0  0  0
   26.4550   27.6590   49.5320 N   0  0  0  0  0  0  0  0  0  0  0  0
   26.5210   27.0400   48.3480 C   0  0  0  0  0  0  0  0  0  0  0  0
   27.7110   26.8300   47.7600 N   0  0  0  0  0  0  0  0  0  0  0  0
   28.8140   27.2530   48.3880 C   0  0  0  0  0  0  0  0  0  0  0  0
   27.5280   28.7560   51.4370 N   0  0  0  0  0  0  0  0  0  0  0  0
   40.4300   34.0640   45.3550 N   0  0  0  0  0  0  0  0  0  0  0  0
   37.4631   29.2804   52.3612 H   0  0  0  0  0  0  0  0  0  0  0  0
   38.8858   30.6888   50.7910 H   0  0  0  0  0  0  0  0  0  0  0  0
   37.9151   29.7177   46.4094 H   0  0  0  0  0  0  0  0  0  0  0  0
   39.7721   35.0014   49.7758 H   0  0  0  0  0  0  0  0  0  0  0  0
   35.2116   26.8810   47.6573 H   0  0  0  0  0  0  0  0  0  0  0  0
   32.6449   26.2270   47.3235 H   0  0  0  0  0  0  0  0  0  0  0  0
   30.4327   26.7254   47.1284 H   0  0  0  0  0  0  0  0  0  0  0  0
   25.5982   26.7018   47.8540 H   0  0  0  0  0  0  0  0  0  0  0  0
   26.6255   28.9264   51.9031 H   0  0  0  0  0  0  0  0  0  0  0  0
   28.4039   29.0653   51.8820 H   0  0  0  0  0  0  0  0  0  0  0  0
   40.9312   34.9454   45.1737 H   0  0  0  0  0  0  0  0  0  0  0  0
   40.2799   33.3902   44.5905 H   0  0  0  0  0  0  0  0  0  0  0  0
  2  1  2  0
  3  2  1  0
  4  3  2  0
  4  5  1  0
  5  6  2  0
  6  1  1  0
  7 15  1  0
  7  3  1  0
  8  7  1  0
  9  8  2  0
  9 10  1  0
 10 15  2  0
 11 10  1  0
 11 12  2  0
 12 13  1  0
 13 14  2  0
 15 14  1  0
 16 20  2  0
 16  5  1  0
 17 16  1  0
 18 17  2  0
 18 19  1  0
 19 22  1  0
 19 20  1  0
 21 29  1  0
 21 22  1  0
 22 23  2  0
 24 23  1  0
 24 25  2  0
 25 30  1  0
 26 25  1  0
 27 26  2  0
 28 27  1  0
 28 29  2  0
 29 24  1  0
 31 11  1  0
  1 32  1  0
  2 33  1  0
  8 34  1  0
 13 35  1  0
 17 36  1  0
 18 37  1  0
 21 38  1  0
 27 39  1  0
 30 40  1  0
 30 41  1  0
 31 42  1  0
 31 43  1  0
M  END
>  <minimizedAffinity>  (1) 
-8.33251381

>  <minimizedRMSD>  (1) 
1.6801945

$$$$
