
     RDKit          3D

 23 24  0  0  0  0  0  0  0  0999 V2000
   37.6890   30.7120   49.7550 C   0  0  0  0  0  0  0  0  0  0  0  0
   38.1980   31.9590   50.1220 C   0  0  0  0  0  0  0  0  0  0  0  0
   38.5870   32.8410   49.0940 C   0  0  0  0  0  0  0  0  0  0  0  0
   38.4350   32.4030   47.7950 N   0  0  0  0  0  0  0  0  0  0  0  0
   37.9410   31.1950   47.5010 C   0  0  0  0  0  0  0  0  0  0  0  0
   37.5710   30.3570   48.4680 N   0  0  0  0  0  0  0  0  0  0  0  0
   40.5440   31.0160   45.9180 Cl  0  0  0  0  0  0  0  0  0  0  0  0
   38.9300   30.6590   45.2980 C   0  0  0  0  0  0  0  0  0  0  0  0
   37.7970   30.7740   46.1110 C   0  0  0  0  0  0  0  0  0  0  0  0
   36.5410   30.4810   45.5740 C   0  0  0  0  0  0  0  0  0  0  0  0
   36.4610   30.0860   44.2530 C   0  0  0  0  0  0  0  0  0  0  0  0
   37.5760   29.9730   43.4500 C   0  0  0  0  0  0  0  0  0  0  0  0
   37.4410   29.4690   41.7720 Cl  0  0  0  0  0  0  0  0  0  0  0  0
   38.8190   30.2630   43.9810 C   0  0  0  0  0  0  0  0  0  0  0  0
   37.2720   29.7680   50.8550 C   0  0  0  0  0  0  0  0  0  0  0  0
   35.8960   29.7270   50.9370 F   0  0  0  0  0  0  0  0  0  0  0  0
   37.8400   28.5480   50.5860 F   0  0  0  0  0  0  0  0  0  0  0  0
   37.7340   30.2990   52.0450 F   0  0  0  0  0  0  0  0  0  0  0  0
   38.2925   32.2442   51.1802 H   0  0  0  0  0  0  0  0  0  0  0  0
   38.9950   33.8376   49.3183 H   0  0  0  0  0  0  0  0  0  0  0  0
   35.6340   30.5632   46.1909 H   0  0  0  0  0  0  0  0  0  0  0  0
   35.4738   29.8536   43.8270 H   0  0  0  0  0  0  0  0  0  0  0  0
   39.7188   30.1781   43.3540 H   0  0  0  0  0  0  0  0  0  0  0  0
  1  2  2  0
  1 15  1  0
  3  2  1  0
  4  3  2  0
  5  4  1  0
  5  6  2  0
  6  1  1  0
  8  7  1  0
  8  9  2  0
  9  5  1  0
 10  9  1  0
 11 10  2  0
 12 14  2  0
 12 11  1  0
 13 12  1  0
 14  8  1  0
 15 16  1  0
 15 18  1  0
 17 15  1  0
  2 19  1  0
  3 20  1  0
 10 21  1  0
 11 22  1  0
 14 23  1  0
M  ISO  5  19  14  20  14  21  14  22  14  23  14
M  END
>  <minimizedAffinity>  (1) 
-5.80755043

>  <minimizedRMSD>  (1) 
1.88551903

$$$$
