
     RDKit          3D

 27 29  0  0  0  0  0  0  0  0999 V2000
   34.0300   28.8530   48.3370 C   0  0  0  0  0  0  0  0  0  0  0  0
   34.8780   28.3850   49.3310 C   0  0  0  0  0  0  0  0  0  0  0  0
   36.0690   29.0360   49.2350 C   0  0  0  0  0  0  0  0  0  0  0  0
   35.9550   29.8950   48.1910 N   0  0  0  0  0  0  0  0  0  0  0  0
   34.7160   29.7650   47.6670 N   0  0  0  0  0  0  0  0  0  0  0  0
   36.7340   32.0720   50.1630 Cl  0  0  0  0  0  0  0  0  0  0  0  0
   37.4520   31.7900   48.5840 C   0  0  0  0  0  0  0  0  0  0  0  0
   37.0060   30.7600   47.7750 C   0  0  0  0  0  0  0  0  0  0  0  0
   37.6070   30.5730   46.5250 C   0  0  0  0  0  0  0  0  0  0  0  0
   38.6340   31.3830   46.0680 C   0  0  0  0  0  0  0  0  0  0  0  0
   39.0570   32.4040   46.9020 C   0  0  0  0  0  0  0  0  0  0  0  0
   40.3670   33.4590   46.3500 Cl  0  0  0  0  0  0  0  0  0  0  0  0
   38.4870   32.6230   48.1500 C   0  0  0  0  0  0  0  0  0  0  0  0
   30.8240   28.1600   46.7010 C   0  0  0  0  0  0  0  0  0  0  0  0
   30.0850   27.5480   47.7380 C   0  0  0  0  0  0  0  0  0  0  0  0
   30.6960   27.3820   48.9800 C   0  0  0  0  0  0  0  0  0  0  0  0
   31.9680   27.8220   49.1150 N   0  0  0  0  0  0  0  0  0  0  0  0
   32.6600   28.4080   48.0990 C   0  0  0  0  0  0  0  0  0  0  0  0
   32.0880   28.5770   46.8980 N   0  0  0  0  0  0  0  0  0  0  0  0
   34.6282   27.6140   50.0747 H   0  0  0  0  0  0  0  0  0  0  0  0
   36.9506   28.8938   49.8773 H   0  0  0  0  0  0  0  0  0  0  0  0
   37.2514   29.7539   45.8826 H   0  0  0  0  0  0  0  0  0  0  0  0
   39.0947   31.2214   45.0823 H   0  0  0  0  0  0  0  0  0  0  0  0
   38.8463   33.4428   48.7894 H   0  0  0  0  0  0  0  0  0  0  0  0
   30.3575   28.2981   45.7145 H   0  0  0  0  0  0  0  0  0  0  0  0
   29.0518   27.2104   47.5693 H   0  0  0  0  0  0  0  0  0  0  0  0
   30.1634   26.9107   49.8192 H   0  0  0  0  0  0  0  0  0  0  0  0
  1  2  1  0
  3  2  2  0
  4  3  1  0
  5  4  1  0
  5  1  2  0
  7  6  1  0
  8  4  1  0
  8  7  2  0
  9  8  1  0
 10  9  2  0
 10 11  1  0
 11 13  2  0
 12 11  1  0
 13  7  1  0
 14 19  2  0
 14 15  1  0
 15 16  2  0
 16 17  1  0
 18  1  1  0
 18 17  2  0
 19 18  1  0
  2 20  1  0
  3 21  1  0
  9 22  1  0
 10 23  1  0
 13 24  1  0
 14 25  1  0
 15 26  1  0
 16 27  1  0
M  ISO  8  20  14  21  14  22  14  23  14  24  14  25  14  26  14  27  14
M  END
>  <minimizedAffinity>  (1) 
-5.69454193

>  <minimizedRMSD>  (1) 
7.52596045

$$$$
