
     RDKit          3D

 35 37  0  0  0  0  0  0  0  0999 V2000
   37.7180   31.7020   47.6290 C   0  0  0  0  0  0  0  0  0  0  0  0
   37.9110   32.4570   48.7980 C   0  0  0  0  0  0  0  0  0  0  0  0
   38.9180   33.3860   48.8540 C   0  0  0  0  0  0  0  0  0  0  0  0
   39.7010   33.5250   47.7240 C   0  0  0  0  0  0  0  0  0  0  0  0
   39.4890   32.7820   46.6120 C   0  0  0  0  0  0  0  0  0  0  0  0
   38.4940   31.8410   46.5100 N   0  0  0  0  0  0  0  0  0  0  0  0
   36.6320   30.7410   47.6420 C   0  0  0  0  0  0  0  0  0  0  0  0
   36.1220   30.3500   46.5890 O   0  0  0  0  0  0  0  0  0  0  0  0
   36.9660   29.5940   49.8070 C   0  0  0  0  0  0  0  0  0  0  0  0
   36.0910   30.1940   48.8950 C   0  0  0  0  0  0  0  0  0  0  0  0
   34.7090   30.2680   49.1800 C   0  0  0  0  0  0  0  0  0  0  0  0
   34.3020   29.7240   50.3830 N   0  0  0  0  0  0  0  0  0  0  0  0
   35.1740   29.1540   51.2380 C   0  0  0  0  0  0  0  0  0  0  0  0
   36.4590   29.0940   50.9560 N   0  0  0  0  0  0  0  0  0  0  0  0
   40.5180   32.9760   45.1350 S   0  0  0  0  0  0  0  0  0  0  0  0
   39.4340   32.6770   43.7230 C   0  0  0  0  0  0  0  0  0  0  0  0
   38.7980   33.0730   40.7580 Cl  0  0  0  0  0  0  0  0  0  0  0  0
   39.7110   31.7260   41.4040 C   0  0  0  0  0  0  0  0  0  0  0  0
   39.9440   31.6560   42.7810 C   0  0  0  0  0  0  0  0  0  0  0  0
   40.6710   30.5570   43.1760 C   0  0  0  0  0  0  0  0  0  0  0  0
   41.1900   29.5350   42.4150 C   0  0  0  0  0  0  0  0  0  0  0  0
   40.9310   29.6500   41.0450 C   0  0  0  0  0  0  0  0  0  0  0  0
   41.5600   28.3830   40.0110 Cl  0  0  0  0  0  0  0  0  0  0  0  0
   40.1990   30.7340   40.5470 C   0  0  0  0  0  0  0  0  0  0  0  0
   37.2550   32.3030   49.6674 H   0  0  0  0  0  0  0  0  0  0  0  0
   39.0941   33.9916   49.7553 H   0  0  0  0  0  0  0  0  0  0  0  0
   40.5195   34.2599   47.7279 H   0  0  0  0  0  0  0  0  0  0  0  0
   38.0432   29.5305   49.5937 H   0  0  0  0  0  0  0  0  0  0  0  0
   33.9966   30.7330   48.4827 H   0  0  0  0  0  0  0  0  0  0  0  0
   34.8070   28.7326   52.1855 H   0  0  0  0  0  0  0  0  0  0  0  0
   38.4570   32.3419   44.1013 H   0  0  0  0  0  0  0  0  0  0  0  0
   39.3690   33.6225   43.1646 H   0  0  0  0  0  0  0  0  0  0  0  0
   40.8655   30.4849   44.2563 H   0  0  0  0  0  0  0  0  0  0  0  0
   41.7598   28.6990   42.8468 H   0  0  0  0  0  0  0  0  0  0  0  0
   40.0048   30.8069   39.4667 H   0  0  0  0  0  0  0  0  0  0  0  0
  1  7  1  0
  1  2  2  0
  2  3  1  0
  4  3  2  0
  5  4  1  0
  6  5  2  0
  6  1  1  0
  7 10  1  0
  8  7  2  0
  9 14  2  0
 10 11  2  0
 10  9  1  0
 11 12  1  0
 12 13  2  0
 14 13  1  0
 15  5  1  0
 16 15  1  0
 17 18  1  0
 18 19  2  0
 19 20  1  0
 19 16  1  0
 21 20  2  0
 22 21  1  0
 23 22  1  0
 24 22  2  0
 24 18  1  0
  2 25  1  0
  3 26  1  0
  4 27  1  0
  9 28  1  0
 11 29  1  0
 13 30  1  0
 16 31  1  0
 16 32  1  0
 20 33  1  0
 21 34  1  0
 24 35  1  0
M  ISO  8  25  14  26  14  27  14  28  14  29  14  30  14  31   8  32   8
M  ISO  3  33  14  34  14  35  14
M  END
>  <minimizedAffinity>  (1) 
-5.81018639

>  <minimizedRMSD>  (1) 
2.08660865

$$$$
