
     RDKit          3D

 23 24  0  0  0  0  0  0  0  0999 V2000
   36.8240   30.7150   45.9470 C   0  0  0  0  0  0  0  0  0  0  0  0
   34.1690   30.2730   47.3910 Cl  0  0  0  0  0  0  0  0  0  0  0  0
   35.7120   30.3440   48.2220 C   0  0  0  0  0  0  0  0  0  0  0  0
   36.8400   30.5540   47.4210 C   0  0  0  0  0  0  0  0  0  0  0  0
   38.0330   30.6040   48.1130 C   0  0  0  0  0  0  0  0  0  0  0  0
   38.2250   30.4740   49.4690 C   0  0  0  0  0  0  0  0  0  0  0  0
   37.0870   30.2710   50.2130 C   0  0  0  0  0  0  0  0  0  0  0  0
   37.2350   30.0930   51.9540 Cl  0  0  0  0  0  0  0  0  0  0  0  0
   35.8590   30.2090   49.5870 C   0  0  0  0  0  0  0  0  0  0  0  0
   38.1440   31.1790   45.4680 C   0  0  0  0  0  0  0  0  0  0  0  0
   38.3470   32.5600   45.4220 C   0  0  0  0  0  0  0  0  0  0  0  0
   39.5920   33.0450   44.9730 C   0  0  0  0  0  0  0  0  0  0  0  0
   40.5380   32.1200   44.6060 N   0  0  0  0  0  0  0  0  0  0  0  0
   40.2890   30.7970   44.6710 C   0  0  0  0  0  0  0  0  0  0  0  0
   39.1120   30.3200   45.0940 N   0  0  0  0  0  0  0  0  0  0  0  0
   36.5871   29.7482   45.4787 H   0  0  0  0  0  0  0  0  0  0  0  0
   36.0622   31.4609   45.6763 H   0  0  0  0  0  0  0  0  0  0  0  0
   38.9375   30.7671   47.5087 H   0  0  0  0  0  0  0  0  0  0  0  0
   39.2233   30.5289   49.9277 H   0  0  0  0  0  0  0  0  0  0  0  0
   34.9611   30.0453   50.2010 H   0  0  0  0  0  0  0  0  0  0  0  0
   37.5517   33.2549   45.7298 H   0  0  0  0  0  0  0  0  0  0  0  0
   39.7980   34.1242   44.9187 H   0  0  0  0  0  0  0  0  0  0  0  0
   41.0749   30.0895   44.3680 H   0  0  0  0  0  0  0  0  0  0  0  0
  1  4  1  0
  2  3  1  0
  3  9  2  0
  4  5  2  0
  4  3  1  0
  5  6  1  0
  6  7  2  0
  7  8  1  0
  9  7  1  0
 10  1  1  0
 11 10  2  0
 12 11  1  0
 13 14  1  0
 13 12  2  0
 14 15  2  0
 15 10  1  0
  1 16  1  0
  1 17  1  0
  5 18  1  0
  6 19  1  0
  9 20  1  0
 11 21  1  0
 12 22  1  0
 14 23  1  0
M  ISO  8  16   8  17   8  18  14  19  14  20  14  21  14  22  14  23  14
M  END
>  <minimizedAffinity>  (1) 
-5.2777977

>  <minimizedRMSD>  (1) 
5.30357981

$$$$
