
     RDKit          3D

 26 27  0  0  0  0  0  0  0  0999 V2000
   37.8730   31.9170   47.2770 C   0  0  0  0  0  0  0  0  0  0  0  0
   40.2210   33.5750   46.5990 Cl  0  0  0  0  0  0  0  0  0  0  0  0
   39.1480   32.8380   45.4070 C   0  0  0  0  0  0  0  0  0  0  0  0
   38.0590   32.0660   45.8050 C   0  0  0  0  0  0  0  0  0  0  0  0
   37.2790   31.5310   44.8060 C   0  0  0  0  0  0  0  0  0  0  0  0
   37.5920   31.7710   43.4840 C   0  0  0  0  0  0  0  0  0  0  0  0
   38.6650   32.5300   43.1130 C   0  0  0  0  0  0  0  0  0  0  0  0
   39.0460   32.8230   41.4240 Cl  0  0  0  0  0  0  0  0  0  0  0  0
   39.4620   33.0780   44.0900 C   0  0  0  0  0  0  0  0  0  0  0  0
   38.1120   30.4540   47.6380 C   0  0  0  0  0  0  0  0  0  0  0  0
   37.3390   30.2230   51.3650 C   0  0  0  0  0  0  0  0  0  0  0  0
   37.9760   30.5290   50.1680 C   0  0  0  0  0  0  0  0  0  0  0  0
   37.4720   30.1480   48.9380 C   0  0  0  0  0  0  0  0  0  0  0  0
   36.3100   29.4490   48.9510 N   0  0  0  0  0  0  0  0  0  0  0  0
   35.6880   29.1490   50.1180 C   0  0  0  0  0  0  0  0  0  0  0  0
   36.2000   29.5330   51.3040 N   0  0  0  0  0  0  0  0  0  0  0  0
   36.8491   32.2074   47.5549 H   0  0  0  0  0  0  0  0  0  0  0  0
   38.5791   32.5639   47.8183 H   0  0  0  0  0  0  0  0  0  0  0  0
   36.4061   30.9121   45.0612 H   0  0  0  0  0  0  0  0  0  0  0  0
   36.9544   31.3354   42.7006 H   0  0  0  0  0  0  0  0  0  0  0  0
   40.3326   33.6955   43.8237 H   0  0  0  0  0  0  0  0  0  0  0  0
   37.6804   29.8099   46.8577 H   0  0  0  0  0  0  0  0  0  0  0  0
   39.1939   30.2701   47.7132 H   0  0  0  0  0  0  0  0  0  0  0  0
   37.7607   30.5396   52.3304 H   0  0  0  0  0  0  0  0  0  0  0  0
   38.9178   31.0964   50.2005 H   0  0  0  0  0  0  0  0  0  0  0  0
   34.7464   28.5807   50.0962 H   0  0  0  0  0  0  0  0  0  0  0  0
  1 10  1  0
  3  4  2  0
  3  2  1  0
  4  1  1  0
  5  4  1  0
  6  5  2  0
  7  6  1  0
  7  9  2  0
  8  7  1  0
  9  3  1  0
 10 13  1  0
 12 11  2  0
 13 14  2  0
 13 12  1  0
 14 15  1  0
 15 16  2  0
 16 11  1  0
  1 17  1  0
  1 18  1  0
  5 19  1  0
  6 20  1  0
  9 21  1  0
 10 22  1  0
 10 23  1  0
 11 24  1  0
 12 25  1  0
 15 26  1  0
M  ISO  8  17   8  18   8  19  14  20  14  21  14  22   8  23   8  24  14
M  ISO  2  25  14  26  14
M  END
>  <minimizedAffinity>  (1) 
-4.97930861

>  <minimizedRMSD>  (1) 
2.28266978

$$$$
