
     RDKit          3D

 37 40  0  0  0  0  0  0  0  0999 V2000
   38.8410   30.9070   45.8410 C   0  0  0  0  0  0  0  0  0  0  0  0
   39.9990   31.6310   46.0920 C   0  0  0  0  0  0  0  0  0  0  0  0
   40.8480   31.5800   44.9880 C   0  0  0  0  0  0  0  0  0  0  0  0
   40.1560   30.8180   44.1060 N   0  0  0  0  0  0  0  0  0  0  0  0
   38.9880   30.4170   44.5840 N   0  0  0  0  0  0  0  0  0  0  0  0
   37.7310   30.7370   46.7480 C   0  0  0  0  0  0  0  0  0  0  0  0
   37.9380   30.9290   48.1350 C   0  0  0  0  0  0  0  0  0  0  0  0
   36.8440   30.7600   48.9800 C   0  0  0  0  0  0  0  0  0  0  0  0
   35.6420   30.4220   48.4280 N   0  0  0  0  0  0  0  0  0  0  0  0
   35.4690   30.2430   47.0980 C   0  0  0  0  0  0  0  0  0  0  0  0
   36.5210   30.4030   46.2680 N   0  0  0  0  0  0  0  0  0  0  0  0
   37.0340   30.9560   50.4410 C   0  0  0  0  0  0  0  0  0  0  0  0
   36.5460   32.2140   50.7110 F   0  0  0  0  0  0  0  0  0  0  0  0
   36.3420   30.0240   51.2040 F   0  0  0  0  0  0  0  0  0  0  0  0
   38.3820   30.9290   50.7900 F   0  0  0  0  0  0  0  0  0  0  0  0
   40.5530   30.4360   42.7590 C   0  0  0  0  0  0  0  0  0  0  0  0
   40.1840   31.1790   41.6350 C   0  0  0  0  0  0  0  0  0  0  0  0
   40.5780   30.8050   40.3970 C   0  0  0  0  0  0  0  0  0  0  0  0
   41.3710   29.6430   40.2570 C   0  0  0  0  0  0  0  0  0  0  0  0
   41.5270   29.1050   42.0200 S   0  0  0  0  0  0  0  0  0  0  0  0
   43.7640   30.8210   38.7640 Cl  0  0  0  0  0  0  0  0  0  0  0  0
   43.0510   29.2840   38.4240 C   0  0  0  0  0  0  0  0  0  0  0  0
   41.9840   28.9110   39.1900 C   0  0  0  0  0  0  0  0  0  0  0  0
   41.4530   27.6720   38.8760 C   0  0  0  0  0  0  0  0  0  0  0  0
   41.9520   26.8730   37.8730 C   0  0  0  0  0  0  0  0  0  0  0  0
   43.0290   27.3260   37.1500 C   0  0  0  0  0  0  0  0  0  0  0  0
   43.6910   26.3470   35.8720 Cl  0  0  0  0  0  0  0  0  0  0  0  0
   43.6110   28.5480   37.4060 C   0  0  0  0  0  0  0  0  0  0  0  0
   40.2151   32.1676   47.0276 H   0  0  0  0  0  0  0  0  0  0  0  0
   41.8373   32.0444   44.8630 H   0  0  0  0  0  0  0  0  0  0  0  0
   38.9273   31.2018   48.5311 H   0  0  0  0  0  0  0  0  0  0  0  0
   34.4815   29.9700   46.6976 H   0  0  0  0  0  0  0  0  0  0  0  0
   39.5650   32.0798   41.7588 H   0  0  0  0  0  0  0  0  0  0  0  0
   40.2869   31.3940   39.5148 H   0  0  0  0  0  0  0  0  0  0  0  0
   40.5915   27.3089   39.4556 H   0  0  0  0  0  0  0  0  0  0  0  0
   41.4993   25.8945   37.6551 H   0  0  0  0  0  0  0  0  0  0  0  0
   44.4735   28.9139   36.8297 H   0  0  0  0  0  0  0  0  0  0  0  0
  1  2  1  0
  1  6  1  0
  3  2  2  0
  4  5  1  0
  4  3  1  0
  5  1  2  0
  6  7  2  0
  7  8  1  0
  8 12  1  0
  9  8  2  0
 10  9  1  0
 11  6  1  0
 11 10  2  0
 12 13  1  0
 12 15  1  0
 12 14  1  0
 16  4  1  0
 17 16  2  0
 18 17  1  0
 19 18  2  0
 19 20  1  0
 20 16  1  0
 22 21  1  0
 22 23  2  0
 23 19  1  0
 24 23  1  0
 25 24  2  0
 26 28  2  0
 26 25  1  0
 27 26  1  0
 28 22  1  0
  2 29  1  0
  3 30  1  0
  7 31  1  0
 10 32  1  0
 17 33  1  0
 18 34  1  0
 24 35  1  0
 25 36  1  0
 28 37  1  0
M  ISO  8  29  14  30  14  31  14  32  14  33  14  34  14  35  14  36  14
M  ISO  1  37  14
M  END
>  <minimizedAffinity>  (1) 
-6.57249975

>  <minimizedRMSD>  (1) 
0.498778224

$$$$
