
     RDKit          3D

 44 47  0  0  1  0  0  0  0  0999 V2000
   36.2420   30.1680   48.4100 N   0  0  0  0  0  0  0  0  0  0  0  0
   36.9390   29.6870   49.5950 C   0  0  0  0  0  0  0  0  0  0  0  0
   38.1740   30.4480   49.9240 C   0  0  0  0  0  0  0  0  0  0  0  0
   38.0040   31.9310   49.5950 C   0  0  0  0  0  0  0  0  0  0  0  0
   37.8680   31.9910   48.1040 C   0  0  0  0  0  0  0  0  0  0  0  0
   36.7230   31.1980   47.5520 C   0  0  1  0  0  0  0  0  0  0  0  0
   39.6590   31.2180   47.0110 Cl  0  0  0  0  0  0  0  0  0  0  0  0
   38.5140   30.6330   45.8370 C   0  0  0  0  0  0  0  0  0  0  0  0
   37.1900   30.6830   46.2210 C   0  0  0  0  0  0  0  0  0  0  0  0
   36.2410   30.2210   45.3000 C   0  0  0  0  0  0  0  0  0  0  0  0
   36.6290   29.7370   44.0630 C   0  0  0  0  0  0  0  0  0  0  0  0
   37.9680   29.7020   43.7090 C   0  0  0  0  0  0  0  0  0  0  0  0
   38.5740   29.1100   42.1680 Cl  0  0  0  0  0  0  0  0  0  0  0  0
   38.9110   30.1560   44.6130 C   0  0  0  0  0  0  0  0  0  0  0  0
   34.7170   28.2500   48.5710 C   0  0  0  0  0  0  0  0  0  0  0  0
   35.0030   29.5470   48.1180 C   0  0  0  0  0  0  0  0  0  0  0  0
   34.0210   30.1870   47.3760 C   0  0  0  0  0  0  0  0  0  0  0  0
   32.8440   29.5310   47.1300 N   0  0  0  0  0  0  0  0  0  0  0  0
   32.6040   28.3010   47.5720 C   0  0  0  0  0  0  0  0  0  0  0  0
   33.5500   27.6570   48.3000 N   0  0  0  0  0  0  0  0  0  0  0  0
   31.3550   27.6250   47.3010 C   0  0  0  0  0  0  0  0  0  0  0  0
   31.3280   26.3730   46.7620 C   0  0  0  0  0  0  0  0  0  0  0  0
   30.1560   25.6980   46.4890 C   0  0  0  0  0  0  0  0  0  0  0  0
   29.0030   26.3780   46.8020 C   0  0  0  0  0  0  0  0  0  0  0  0
   28.9740   27.6610   47.3570 C   0  0  0  0  0  0  0  0  0  0  0  0
   30.1880   28.2540   47.5920 N   0  0  0  0  0  0  0  0  0  0  0  0
   36.2523   29.7560   50.4515 H   0  0  0  0  0  0  0  0  0  0  0  0
   37.2504   28.6537   49.3823 H   0  0  0  0  0  0  0  0  0  0  0  0
   38.3889   30.3394   50.9973 H   0  0  0  0  0  0  0  0  0  0  0  0
   39.0043   30.0475   49.3238 H   0  0  0  0  0  0  0  0  0  0  0  0
   37.1026   32.3328   50.0808 H   0  0  0  0  0  0  0  0  0  0  0  0
   38.8529   32.5312   49.9543 H   0  0  0  0  0  0  0  0  0  0  0  0
   37.7289   33.0429   47.8138 H   0  0  0  0  0  0  0  0  0  0  0  0
   38.7848   31.5476   47.6882 H   0  0  0  0  0  0  0  0  0  0  0  0
   35.8375   31.8426   47.4505 H   0  0  0  0  0  0  0  0  0  0  0  0
   35.1733   30.2432   45.5635 H   0  0  0  0  0  0  0  0  0  0  0  0
   35.8680   29.3771   43.3549 H   0  0  0  0  0  0  0  0  0  0  0  0
   39.9791   30.1348   44.3510 H   0  0  0  0  0  0  0  0  0  0  0  0
   35.4702   27.7090   49.1625 H   0  0  0  0  0  0  0  0  0  0  0  0
   34.1849   31.2045   46.9915 H   0  0  0  0  0  0  0  0  0  0  0  0
   32.2839   25.8786   46.5345 H   0  0  0  0  0  0  0  0  0  0  0  0
   30.1450   24.6884   46.0523 H   0  0  0  0  0  0  0  0  0  0  0  0
   28.0420   25.8811   46.6032 H   0  0  0  0  0  0  0  0  0  0  0  0
   28.0269   28.1682   47.5928 H   0  0  0  0  0  0  0  0  0  0  0  0
  1  2  1  0
  2  3  1  0
  4  3  1  0
  5  4  1  0
  6  5  1  0
  6  1  1  0
  8  9  2  0
  8  7  1  0
  9  6  1  0
 10  9  1  0
 11 10  2  0
 12 11  1  0
 12 14  2  0
 13 12  1  0
 14  8  1  0
 16  1  1  0
 16 15  2  0
 17 16  1  0
 18 17  2  0
 18 19  1  0
 19 20  2  0
 20 15  1  0
 21 19  1  0
 21 26  1  0
 22 21  2  0
 23 22  1  0
 23 24  2  0
 24 25  1  0
 25 26  2  0
  2 27  1  0
  2 28  1  0
  3 29  1  0
  3 30  1  0
  4 31  1  0
  4 32  1  0
  5 33  1  0
  5 34  1  0
  6 35  1  6
 10 36  1  0
 11 37  1  0
 14 38  1  0
 15 39  1  0
 17 40  1  0
 22 41  1  0
 23 42  1  0
 24 43  1  0
 25 44  1  0
M  ISO  8  27  13  28  13  29  13  30  13  31  13  32  13  33  13  34  13
M  ISO  8  35  13  36  14  37  14  38  14  39  14  40  14  41  14  42  14
M  ISO  2  43  14  44  14
M  END
>  <minimizedAffinity>  (1) 
-5.74375677

>  <minimizedRMSD>  (1) 
1.72653008

$$$$
