
     RDKit          3D

 38 41  0  0  0  0  0  0  0  0999 V2000
   37.2280   29.8030   51.4200 Br  0  0  0  0  0  0  0  0  0  0  0  0
   36.0580   29.4540   49.9610 C   0  0  0  0  0  0  0  0  0  0  0  0
   36.1610   30.1750   48.7660 C   0  0  0  0  0  0  0  0  0  0  0  0
   35.2790   29.8570   47.7690 C   0  0  0  0  0  0  0  0  0  0  0  0
   34.3090   28.8790   47.8760 C   0  0  0  0  0  0  0  0  0  0  0  0
   34.2290   28.1910   49.0510 C   0  0  0  0  0  0  0  0  0  0  0  0
   35.1020   28.4830   50.0810 C   0  0  0  0  0  0  0  0  0  0  0  0
   38.0050   33.2550   49.3830 C   0  0  0  0  0  0  0  0  0  0  0  0
   39.0320   33.2290   48.4030 C   0  0  0  0  0  0  0  0  0  0  0  0
   39.0690   32.1470   47.5490 C   0  0  0  0  0  0  0  0  0  0  0  0
   38.1270   31.1600   47.6780 N   0  0  0  0  0  0  0  0  0  0  0  0
   37.1670   31.2110   48.6120 C   0  0  0  0  0  0  0  0  0  0  0  0
   37.1150   32.2730   49.4670 N   0  0  0  0  0  0  0  0  0  0  0  0
   33.3860   28.5590   46.8100 C   0  0  0  0  0  0  0  0  0  0  0  0
   33.5770   27.5560   45.8760 C   0  0  0  0  0  0  0  0  0  0  0  0
   32.6570   27.2940   44.8740 C   0  0  0  0  0  0  0  0  0  0  0  0
   31.5320   28.0290   44.7870 N   0  0  0  0  0  0  0  0  0  0  0  0
   31.3380   29.0040   45.6880 C   0  0  0  0  0  0  0  0  0  0  0  0
   32.2300   29.2460   46.6470 N   0  0  0  0  0  0  0  0  0  0  0  0
   31.4030   31.4460   43.8550 Cl  0  0  0  0  0  0  0  0  0  0  0  0
   30.0380   30.9210   44.7880 C   0  0  0  0  0  0  0  0  0  0  0  0
   30.1190   29.7950   45.5900 C   0  0  0  0  0  0  0  0  0  0  0  0
   28.9800   29.4880   46.2710 C   0  0  0  0  0  0  0  0  0  0  0  0
   27.7930   30.2070   46.2140 C   0  0  0  0  0  0  0  0  0  0  0  0
   27.7600   31.3260   45.4000 C   0  0  0  0  0  0  0  0  0  0  0  0
   26.3120   32.3130   45.2480 Cl  0  0  0  0  0  0  0  0  0  0  0  0
   28.9040   31.6720   44.6850 C   0  0  0  0  0  0  0  0  0  0  0  0
   35.3466   30.4149   46.8234 H   0  0  0  0  0  0  0  0  0  0  0  0
   33.4704   27.4047   49.1783 H   0  0  0  0  0  0  0  0  0  0  0  0
   35.0264   27.9197   51.0228 H   0  0  0  0  0  0  0  0  0  0  0  0
   37.9456   34.1013   50.0832 H   0  0  0  0  0  0  0  0  0  0  0  0
   39.7701   34.0411   48.3278 H   0  0  0  0  0  0  0  0  0  0  0  0
   39.8456   32.0769   46.7732 H   0  0  0  0  0  0  0  0  0  0  0  0
   34.4906   26.9459   45.9311 H   0  0  0  0  0  0  0  0  0  0  0  0
   32.8451   26.4869   44.1506 H   0  0  0  0  0  0  0  0  0  0  0  0
   29.0020   28.5989   46.9183 H   0  0  0  0  0  0  0  0  0  0  0  0
   26.9112   29.8983   46.7947 H   0  0  0  0  0  0  0  0  0  0  0  0
   28.8930   32.5574   44.0324 H   0  0  0  0  0  0  0  0  0  0  0  0
  2  7  2  0
  2  1  1  0
  3  2  1  0
  4  5  1  0
  4  3  2  0
  5  6  2  0
  6  7  1  0
  8 13  2  0
  9  8  1  0
 10 11  1  0
 10  9  2  0
 11 12  2  0
 12  3  1  0
 12 13  1  0
 14  5  1  0
 15 14  2  0
 16 15  1  0
 17 16  2  0
 17 18  1  0
 18 19  2  0
 19 14  1  0
 20 21  1  0
 21 22  2  0
 22 18  1  0
 22 23  1  0
 24 23  2  0
 25 24  1  0
 26 25  1  0
 27 21  1  0
 27 25  2  0
  4 28  1  0
  6 29  1  0
  7 30  1  0
  8 31  1  0
  9 32  1  0
 10 33  1  0
 15 34  1  0
 16 35  1  0
 23 36  1  0
 24 37  1  0
 27 38  1  0
M  ISO  8  28  14  29  14  30  14  31  14  32  14  33  14  34  14  35  14
M  ISO  3  36  14  37  14  38  14
M  END
>  <minimizedAffinity>  (1) 
-6.9052906

>  <minimizedRMSD>  (1) 
2.12848711

$$$$
