
     RDKit          3D

 46 49  0  0  0  0  0  0  0  0999 V2000
   34.1360   28.0130   49.0450 C   0  0  0  0  0  0  0  0  0  0  0  0
   32.8160   28.0910   48.3280 C   0  0  0  0  0  0  0  0  0  0  0  0
   32.7540   28.6020   46.9870 C   0  0  0  0  0  0  0  0  0  0  0  0
   31.0260   28.4790   46.6390 S   0  0  0  0  0  0  0  0  0  0  0  0
   30.5850   27.7690   48.3100 C   0  0  0  0  0  0  0  0  0  0  0  0
   31.6630   27.7370   48.8060 N   0  0  0  0  0  0  0  0  0  0  0  0
   29.3100   27.3610   48.8780 N   0  0  0  0  0  0  0  0  0  0  0  0
   28.3330   26.8860   47.9570 C   0  0  0  0  0  0  0  0  0  0  0  0
   26.9420   26.8690   48.5110 C   0  0  0  0  0  0  0  0  0  0  0  0
   26.8140   27.5170   49.8080 N   0  0  0  0  0  0  0  0  0  0  0  0
   27.7910   26.8680   50.6660 C   0  0  0  0  0  0  0  0  0  0  0  0
   29.1240   27.4630   50.3120 C   0  0  0  0  0  0  0  0  0  0  0  0
   34.2230   28.9700   50.1510 C   0  0  0  0  0  0  0  0  0  0  0  0
   37.4780   30.0980   51.5070 C   0  0  0  0  0  0  0  0  0  0  0  0
   38.1000   30.6280   50.3850 C   0  0  0  0  0  0  0  0  0  0  0  0
   37.4050   30.5990   49.1520 C   0  0  0  0  0  0  0  0  0  0  0  0
   36.1730   30.0620   49.1130 N   0  0  0  0  0  0  0  0  0  0  0  0
   35.6110   29.5560   50.2520 C   0  0  0  0  0  0  0  0  0  0  0  0
   36.2390   29.5660   51.4310 N   0  0  0  0  0  0  0  0  0  0  0  0
   38.4000   33.5230   49.4490 Cl  0  0  0  0  0  0  0  0  0  0  0  0
   38.6650   32.4750   48.0790 C   0  0  0  0  0  0  0  0  0  0  0  0
   38.1670   31.1940   48.0730 C   0  0  0  0  0  0  0  0  0  0  0  0
   38.4870   30.5310   46.9190 C   0  0  0  0  0  0  0  0  0  0  0  0
   39.2130   31.0570   45.8820 C   0  0  0  0  0  0  0  0  0  0  0  0
   39.6850   32.3480   45.9470 C   0  0  0  0  0  0  0  0  0  0  0  0
   40.6120   33.0260   44.6270 Cl  0  0  0  0  0  0  0  0  0  0  0  0
   39.4000   33.0760   47.0820 C   0  0  0  0  0  0  0  0  0  0  0  0
   34.9419   28.2267   48.3275 H   0  0  0  0  0  0  0  0  0  0  0  0
   34.2322   27.0012   49.4658 H   0  0  0  0  0  0  0  0  0  0  0  0
   33.5676   28.9722   46.3459 H   0  0  0  0  0  0  0  0  0  0  0  0
   28.6023   25.8608   47.6629 H   0  0  0  0  0  0  0  0  0  0  0  0
   28.3309   27.5803   47.1038 H   0  0  0  0  0  0  0  0  0  0  0  0
   26.2800   27.3846   47.7998 H   0  0  0  0  0  0  0  0  0  0  0  0
   26.6691   25.8131   48.6542 H   0  0  0  0  0  0  0  0  0  0  0  0
   27.0172   28.5237   49.7288 H   0  0  0  0  0  0  0  0  0  0  0  0
   27.5567   27.0604   51.7234 H   0  0  0  0  0  0  0  0  0  0  0  0
   27.7887   25.7776   50.5211 H   0  0  0  0  0  0  0  0  0  0  0  0
   29.9242   26.9136   50.8295 H   0  0  0  0  0  0  0  0  0  0  0  0
   29.1586   28.5181   50.6213 H   0  0  0  0  0  0  0  0  0  0  0  0
   33.5011   29.7824   49.9813 H   0  0  0  0  0  0  0  0  0  0  0  0
   33.9963   28.4426   51.0893 H   0  0  0  0  0  0  0  0  0  0  0  0
   38.0027   30.1115   52.4737 H   0  0  0  0  0  0  0  0  0  0  0  0
   39.1092   31.0604   50.4523 H   0  0  0  0  0  0  0  0  0  0  0  0
   38.1337   29.4944   46.8156 H   0  0  0  0  0  0  0  0  0  0  0  0
   39.4195   30.4435   44.9926 H   0  0  0  0  0  0  0  0  0  0  0  0
   39.7515   34.1128   47.1888 H   0  0  0  0  0  0  0  0  0  0  0  0
  1 13  1  0
  2  6  1  0
  2  1  1  0
  3  2  2  0
  4  3  1  0
  4  5  1  0
  5  6  2  0
  5  7  1  0
  7 12  1  0
  8  9  1  0
  8  7  1  0
  9 10  1  0
 10 11  1  0
 12 11  1  0
 13 18  1  0
 15 14  2  0
 16 15  1  0
 17 16  2  0
 17 18  1  0
 18 19  2  0
 19 14  1  0
 21 20  1  0
 22 21  2  0
 22 16  1  0
 23 22  1  0
 24 25  1  0
 24 23  2  0
 25 27  2  0
 26 25  1  0
 27 21  1  0
  1 28  1  0
  1 29  1  0
  3 30  1  0
  8 31  1  0
  8 32  1  0
  9 33  1  0
  9 34  1  0
 10 35  1  0
 11 36  1  0
 11 37  1  0
 12 38  1  0
 12 39  1  0
 13 40  1  0
 13 41  1  0
 14 42  1  0
 15 43  1  0
 23 44  1  0
 24 45  1  0
 27 46  1  0
M  ISO  8  28   8  29   8  30  14  31  13  32  13  33  13  34  13  35   5
M  ISO  8  36  13  37  13  38  13  39  13  40   8  41   8  42  14  43  14
M  ISO  3  44  14  45  14  46  14
M  END
>  <minimizedAffinity>  (1) 
-8.34025288

>  <minimizedRMSD>  (1) 
2.03599596

$$$$
