
     RDKit          3D

 42 46  0  0  0  0  0  0  0  0999 V2000
   35.5000   29.5370   49.6450 C   0  0  0  0  0  0  0  0  0  0  0  0
   36.5330   29.1640   50.4850 C   0  0  0  0  0  0  0  0  0  0  0  0
   37.6610   29.6730   49.8510 C   0  0  0  0  0  0  0  0  0  0  0  0
   37.2790   30.3140   48.6880 C   0  0  0  0  0  0  0  0  0  0  0  0
   35.9780   30.2080   48.6050 O   0  0  0  0  0  0  0  0  0  0  0  0
   38.5860   32.2600   47.9860 C   0  0  0  0  0  0  0  0  0  0  0  0
   38.1500   30.9780   47.7380 C   0  0  0  0  0  0  0  0  0  0  0  0
   38.5300   30.2940   46.5830 C   0  0  0  0  0  0  0  0  0  0  0  0
   39.3610   30.8990   45.6570 C   0  0  0  0  0  0  0  0  0  0  0  0
   39.8910   30.5160   44.4790 N   0  0  0  0  0  0  0  0  0  0  0  0
   40.6230   31.5360   44.0320 N   0  0  0  0  0  0  0  0  0  0  0  0
   40.5710   32.5650   44.9040 C   0  0  0  0  0  0  0  0  0  0  0  0
   39.7600   32.1790   45.9630 C   0  0  0  0  0  0  0  0  0  0  0  0
   39.4290   32.9040   47.0700 C   0  0  0  0  0  0  0  0  0  0  0  0
   34.0980   29.2330   49.8770 C   0  0  0  0  0  0  0  0  0  0  0  0
   33.5370   29.7760   50.8580 O   0  0  0  0  0  0  0  0  0  0  0  0
   31.3930   27.2580   48.4400 C   0  0  0  0  0  0  0  0  0  0  0  0
   32.0130   26.6310   47.3540 C   0  0  0  0  0  0  0  0  0  0  0  0
   33.3410   26.8720   47.1080 C   0  0  0  0  0  0  0  0  0  0  0  0
   33.9960   27.7200   47.9400 N   0  0  0  0  0  0  0  0  0  0  0  0
   33.3900   28.3220   48.9860 C   0  0  0  0  0  0  0  0  0  0  0  0
   32.0850   28.0870   49.2320 N   0  0  0  0  0  0  0  0  0  0  0  0
   34.2500   24.0690   47.5960 Cl  0  0  0  0  0  0  0  0  0  0  0  0
   34.5030   24.9520   46.1250 C   0  0  0  0  0  0  0  0  0  0  0  0
   34.0430   26.2480   45.9940 C   0  0  0  0  0  0  0  0  0  0  0  0
   34.2970   26.8430   44.7980 C   0  0  0  0  0  0  0  0  0  0  0  0
   34.9670   26.2190   43.7660 C   0  0  0  0  0  0  0  0  0  0  0  0
   35.4160   24.9190   43.9280 C   0  0  0  0  0  0  0  0  0  0  0  0
   36.2660   24.1750   42.5680 Cl  0  0  0  0  0  0  0  0  0  0  0  0
   35.1780   24.2700   45.1370 C   0  0  0  0  0  0  0  0  0  0  0  0
   36.4761   28.6003   51.4279 H   0  0  0  0  0  0  0  0  0  0  0  0
   38.6940   29.5801   50.2173 H   0  0  0  0  0  0  0  0  0  0  0  0
   38.2726   32.7793   48.9037 H   0  0  0  0  0  0  0  0  0  0  0  0
   38.1677   29.2702   46.4080 H   0  0  0  0  0  0  0  0  0  0  0  0
   39.7561   29.6076   44.0126 H   0  0  0  0  0  0  0  0  0  0  0  0
   41.0793   33.5344   44.7953 H   0  0  0  0  0  0  0  0  0  0  0  0
   39.7993   33.9269   47.2331 H   0  0  0  0  0  0  0  0  0  0  0  0
   30.3290   27.0686   48.6450 H   0  0  0  0  0  0  0  0  0  0  0  0
   31.4417   25.9518   46.7041 H   0  0  0  0  0  0  0  0  0  0  0  0
   33.9502   27.8757   44.6454 H   0  0  0  0  0  0  0  0  0  0  0  0
   35.1436   26.7512   42.8196 H   0  0  0  0  0  0  0  0  0  0  0  0
   35.5209   23.2374   45.2990 H   0  0  0  0  0  0  0  0  0  0  0  0
  1 15  1  0
  1  2  2  0
  3  2  1  0
  4  3  2  0
  5  4  1  0
  5  1  1  0
  7  6  2  0
  7  4  1  0
  8  7  1  0
  9 13  1  0
  9  8  2  0
 10  9  1  0
 11 10  1  0
 11 12  2  0
 12 13  1  0
 13 14  2  0
 14  6  1  0
 15 16  2  0
 17 22  2  0
 18 17  1  0
 19 18  2  0
 19 20  1  0
 20 21  2  0
 21 22  1  0
 21 15  1  0
 24 23  1  0
 25 24  2  0
 25 19  1  0
 26 25  1  0
 27 28  1  0
 27 26  2  0
 28 30  2  0
 29 28  1  0
 30 24  1  0
  2 31  1  0
  3 32  1  0
  6 33  1  0
  8 34  1  0
 10 35  1  0
 12 36  1  0
 14 37  1  0
 17 38  1  0
 18 39  1  0
 26 40  1  0
 27 41  1  0
 30 42  1  0
M  ISO  8  31  14  32  14  33  14  34  14  35   9  36  14  37  14  38  14
M  ISO  4  39  14  40  14  41  14  42  14
M  END
>  <minimizedAffinity>  (1) 
-6.86088371

>  <minimizedRMSD>  (1) 
0.997037947

$$$$
