
     RDKit          3D

 35 37  0  0  0  0  0  0  0  0999 V2000
   37.1520   29.9200   51.6190 C   0  0  0  0  0  0  0  0  0  0  0  0
   37.9700   30.5560   50.6840 C   0  0  0  0  0  0  0  0  0  0  0  0
   37.5460   30.7050   49.3860 C   0  0  0  0  0  0  0  0  0  0  0  0
   36.3130   30.1920   49.1390 N   0  0  0  0  0  0  0  0  0  0  0  0
   35.5240   29.5860   50.0140 C   0  0  0  0  0  0  0  0  0  0  0  0
   35.9580   29.4520   51.2740 N   0  0  0  0  0  0  0  0  0  0  0  0
   38.7920   33.5980   49.5270 Cl  0  0  0  0  0  0  0  0  0  0  0  0
   38.8290   32.5340   48.1520 C   0  0  0  0  0  0  0  0  0  0  0  0
   38.2360   31.3170   48.2660 C   0  0  0  0  0  0  0  0  0  0  0  0
   38.3200   30.5850   47.0980 C   0  0  0  0  0  0  0  0  0  0  0  0
   38.9330   31.0330   45.9510 C   0  0  0  0  0  0  0  0  0  0  0  0
   39.5120   32.2780   45.9140 C   0  0  0  0  0  0  0  0  0  0  0  0
   40.2860   32.8300   44.4460 Cl  0  0  0  0  0  0  0  0  0  0  0  0
   39.4470   33.0300   47.0540 C   0  0  0  0  0  0  0  0  0  0  0  0
   34.3240   29.1650   49.4740 O   0  0  0  0  0  0  0  0  0  0  0  0
   34.3350   28.5130   48.2210 C   0  0  0  0  0  0  0  0  0  0  0  0
   33.3560   27.3860   48.1880 C   0  0  0  0  0  0  0  0  0  0  0  0
   31.9560   27.8530   47.9390 C   0  0  0  0  0  0  0  0  0  0  0  0
   31.0120   27.5660   48.9180 C   0  0  0  0  0  0  0  0  0  0  0  0
   29.6970   27.9560   48.7790 C   0  0  0  0  0  0  0  0  0  0  0  0
   29.3150   28.6190   47.6960 N   0  0  0  0  0  0  0  0  0  0  0  0
   30.2500   28.8930   46.7460 C   0  0  0  0  0  0  0  0  0  0  0  0
   31.5350   28.5270   46.8540 N   0  0  0  0  0  0  0  0  0  0  0  0
   37.5010   29.8048   52.6558 H   0  0  0  0  0  0  0  0  0  0  0  0
   38.9558   30.9386   50.9870 H   0  0  0  0  0  0  0  0  0  0  0  0
   37.8689   29.5818   47.0840 H   0  0  0  0  0  0  0  0  0  0  0  0
   38.9597   30.3906   45.0584 H   0  0  0  0  0  0  0  0  0  0  0  0
   39.8951   34.0343   47.0791 H   0  0  0  0  0  0  0  0  0  0  0  0
   34.0728   29.2387   47.4370 H   0  0  0  0  0  0  0  0  0  0  0  0
   35.3418   28.1038   48.0510 H   0  0  0  0  0  0  0  0  0  0  0  0
   33.6444   26.6910   47.3857 H   0  0  0  0  0  0  0  0  0  0  0  0
   33.3758   26.8959   49.1726 H   0  0  0  0  0  0  0  0  0  0  0  0
   31.3199   27.0175   49.8204 H   0  0  0  0  0  0  0  0  0  0  0  0
   28.9657   27.7175   49.5654 H   0  0  0  0  0  0  0  0  0  0  0  0
   29.9361   29.4415   45.8457 H   0  0  0  0  0  0  0  0  0  0  0  0
  2  1  2  0
  3  2  1  0
  4  3  2  0
  4  5  1  0
  5  6  2  0
  6  1  1  0
  8  9  2  0
  8  7  1  0
  9  3  1  0
 10  9  1  0
 11 10  2  0
 12 11  1  0
 12 14  2  0
 13 12  1  0
 14  8  1  0
 15  5  1  0
 16 15  1  0
 17 16  1  0
 18 17  1  0
 18 19  2  0
 20 19  1  0
 21 20  2  0
 22 23  2  0
 22 21  1  0
 23 18  1  0
  1 24  1  0
  2 25  1  0
 10 26  1  0
 11 27  1  0
 14 28  1  0
 16 29  1  0
 16 30  1  0
 17 31  1  0
 17 32  1  0
 19 33  1  0
 20 34  1  0
 22 35  1  0
M  ISO  8  24  14  25  14  26  14  27  14  28  14  29   8  30   8  31   8
M  ISO  4  32   8  33  14  34  14  35  14
M  END
>  <minimizedAffinity>  (1) 
-6.58862638

>  <minimizedRMSD>  (1) 
1.24761939

$$$$
