
     RDKit          3D

 44 47  0  0  1  0  0  0  0  0999 V2000
   32.0600   28.8710   47.2540 C   0  0  2  0  0  0  0  0  0  0  0  0
   33.1850   28.2520   48.0290 C   0  0  1  0  0  0  0  0  0  0  0  0
   33.1750   26.9110   47.7890 O   0  0  0  0  0  0  0  0  0  0  0  0
   32.3320   26.6440   46.7140 C   0  0  0  0  0  0  0  0  0  0  0  0
   32.0930   27.9470   45.9960 C   0  0  1  0  0  0  0  0  0  0  0  0
   32.3880   30.1870   46.8640 O   0  0  0  0  0  0  0  0  0  0  0  0
   34.7570   28.9360   47.3630 S   0  0  0  0  0  0  0  0  0  0  0  0
   36.7190   29.3120   50.7850 C   0  0  0  0  0  0  0  0  0  0  0  0
   37.1350   30.6400   50.8260 C   0  0  0  0  0  0  0  0  0  0  0  0
   36.7920   31.4610   49.7400 C   0  0  0  0  0  0  0  0  0  0  0  0
   36.0770   30.9220   48.7130 N   0  0  0  0  0  0  0  0  0  0  0  0
   35.6970   29.6250   48.7230 C   0  0  0  0  0  0  0  0  0  0  0  0
   36.0100   28.8030   49.7570 N   0  0  0  0  0  0  0  0  0  0  0  0
   30.8640   27.9020   45.3850 O   0  0  0  0  0  0  0  0  0  0  0  0
   29.6350   30.5740   45.2490 Cl  0  0  0  0  0  0  0  0  0  0  0  0
   29.0140   29.1250   46.0050 C   0  0  0  0  0  0  0  0  0  0  0  0
   29.6800   27.9210   45.9930 C   0  0  0  0  0  0  0  0  0  0  0  0
   29.0710   26.8270   46.6100 C   0  0  0  0  0  0  0  0  0  0  0  0
   27.8370   26.9570   47.2120 C   0  0  0  0  0  0  0  0  0  0  0  0
   27.1580   28.1640   47.2300 C   0  0  0  0  0  0  0  0  0  0  0  0
   27.7580   29.2500   46.6210 C   0  0  0  0  0  0  0  0  0  0  0  0
   27.0600   30.5820   49.2770 Cl  0  0  0  0  0  0  0  0  0  0  0  0
   26.6700   31.2610   47.7140 C   0  0  0  0  0  0  0  0  0  0  0  0
   27.0570   30.5310   46.6300 C   0  0  0  0  0  0  0  0  0  0  0  0
   26.7970   30.9790   45.3290 C   0  0  0  0  0  0  0  0  0  0  0  0
   26.1300   32.1930   45.1440 C   0  0  0  0  0  0  0  0  0  0  0  0
   25.7460   32.9180   46.2540 C   0  0  0  0  0  0  0  0  0  0  0  0
   24.9050   34.4520   46.0310 Cl  0  0  0  0  0  0  0  0  0  0  0  0
   26.0050   32.4740   47.5330 C   0  0  0  0  0  0  0  0  0  0  0  0
   31.1035   28.9397   47.7928 H   0  0  0  0  0  0  0  0  0  0  0  0
   33.0857   28.4558   49.1054 H   0  0  0  0  0  0  0  0  0  0  0  0
   32.8068   25.9213   46.0340 H   0  0  0  0  0  0  0  0  0  0  0  0
   31.3823   26.2121   47.0625 H   0  0  0  0  0  0  0  0  0  0  0  0
   32.8053   28.2344   45.2086 H   0  0  0  0  0  0  0  0  0  0  0  0
   32.5271   30.7450   47.6698 H   0  0  0  0  0  0  0  0  0  0  0  0
   36.9792   28.6513   51.6251 H   0  0  0  0  0  0  0  0  0  0  0  0
   37.7109   31.0314   51.6775 H   0  0  0  0  0  0  0  0  0  0  0  0
   37.0945   32.5184   49.7187 H   0  0  0  0  0  0  0  0  0  0  0  0
   29.5801   25.8519   46.6161 H   0  0  0  0  0  0  0  0  0  0  0  0
   27.3798   26.0785   47.6907 H   0  0  0  0  0  0  0  0  0  0  0  0
   26.1739   28.2553   47.7129 H   0  0  0  0  0  0  0  0  0  0  0  0
   27.1145   30.3816   44.4617 H   0  0  0  0  0  0  0  0  0  0  0  0
   25.9147   32.5644   44.1312 H   0  0  0  0  0  0  0  0  0  0  0  0
   25.6905   33.0702   48.4023 H   0  0  0  0  0  0  0  0  0  0  0  0
  1  2  1  0
  3  2  1  0
  4  3  1  0
  5  4  1  0
  5  1  1  0
  6  1  1  0
  7  2  1  0
  7 12  1  0
  8  9  2  0
 10  9  1  0
 11 12  1  0
 11 10  2  0
 12 13  2  0
 13  8  1  0
 14 17  1  0
 14  5  1  0
 15 16  1  0
 16 21  2  0
 17 16  1  0
 17 18  2  0
 18 19  1  0
 19 20  2  0
 21 24  1  0
 21 20  1  0
 23 22  1  0
 24 23  2  0
 25 24  1  0
 26 25  2  0
 26 27  1  0
 27 29  2  0
 28 27  1  0
 29 23  1  0
  1 30  1  1
  2 31  1  1
  4 32  1  0
  4 33  1  0
  5 34  1  6
  6 35  1  0
  8 36  1  0
  9 37  1  0
 10 38  1  0
 18 39  1  0
 19 40  1  0
 20 41  1  0
 25 42  1  0
 26 43  1  0
 29 44  1  0
M  ISO  8  30  13  31  13  32  13  33  13  34  13  35   3  36  14  37  14
M  ISO  7  38  14  39  14  40  14  41  14  42  14  43  14  44  14
M  END
>  <minimizedAffinity>  (1) 
-6.21803331

>  <minimizedRMSD>  (1) 
1.56118488

$$$$
