
     RDKit          3D

 21 22  0  0  0  0  0  0  0  0999 V2000
   37.2460   29.8150   51.2560 C   0  0  0  0  0  0  0  0  0  0  0  0
   38.0770   30.3330   50.2590 C   0  0  0  0  0  0  0  0  0  0  0  0
   37.4910   30.6890   49.0570 C   0  0  0  0  0  0  0  0  0  0  0  0
   36.1400   30.5110   48.9280 N   0  0  0  0  0  0  0  0  0  0  0  0
   35.3530   30.0090   49.9030 C   0  0  0  0  0  0  0  0  0  0  0  0
   35.9310   29.6720   51.0500 N   0  0  0  0  0  0  0  0  0  0  0  0
   38.5500   33.4680   49.4530 Cl  0  0  0  0  0  0  0  0  0  0  0  0
   38.7630   32.4940   48.0010 C   0  0  0  0  0  0  0  0  0  0  0  0
   38.2300   31.2360   47.9410 C   0  0  0  0  0  0  0  0  0  0  0  0
   38.4540   30.5740   46.7780 C   0  0  0  0  0  0  0  0  0  0  0  0
   39.1690   31.0980   45.6960 C   0  0  0  0  0  0  0  0  0  0  0  0
   39.6730   32.3690   45.8310 C   0  0  0  0  0  0  0  0  0  0  0  0
   40.5770   33.0680   44.5000 Cl  0  0  0  0  0  0  0  0  0  0  0  0
   39.4800   33.0910   46.9870 C   0  0  0  0  0  0  0  0  0  0  0  0
   37.9250   29.4910   52.4160 O   0  0  0  0  0  0  0  0  0  0  0  0
   39.1579   30.4534   50.4237 H   0  0  0  0  0  0  0  0  0  0  0  0
   34.2706   29.8835   49.7526 H   0  0  0  0  0  0  0  0  0  0  0  0
   38.0460   29.5572   46.6794 H   0  0  0  0  0  0  0  0  0  0  0  0
   39.3215   30.5164   44.7749 H   0  0  0  0  0  0  0  0  0  0  0  0
   39.8838   34.1083   47.0974 H   0  0  0  0  0  0  0  0  0  0  0  0
   37.4334   29.1153   53.1888 H   0  0  0  0  0  0  0  0  0  0  0  0
  1 15  1  0
  2  1  2  0
  3  2  1  0
  4  3  2  0
  4  5  1  0
  5  6  2  0
  6  1  1  0
  8  7  1  0
  9  8  2  0
  9  3  1  0
 10  9  1  0
 11 12  1  0
 11 10  2  0
 12 14  2  0
 13 12  1  0
 14  8  1  0
  2 16  1  0
  5 17  1  0
 10 18  1  0
 11 19  1  0
 14 20  1  0
 15 21  1  0
M  ISO  6  16  14  17  14  18  14  19  14  20  14  21   3
M  END
>  <minimizedAffinity>  (1) 
-5.98883629

>  <minimizedRMSD>  (1) 
1.4726429

$$$$
