
     RDKit          3D

 42 45  0  0  1  0  0  0  0  0999 V2000
   34.4770   29.0450   48.7620 C   0  0  2  0  0  0  0  0  0  0  0  0
   35.1210   28.3350   49.9040 C   0  0  0  0  0  0  0  0  0  0  0  0
   36.2540   29.1260   50.3800 N   0  0  0  0  0  0  0  0  0  0  0  0
   37.2060   29.8800   51.1520 C   0  0  0  0  0  0  0  0  0  0  0  0
   37.4170   30.0920   52.3560 O   0  0  0  0  0  0  0  0  0  0  0  0
   37.9250   30.3760   50.0120 C   0  0  1  0  0  0  0  0  0  0  0  0
   37.0970   29.3560   49.2410 C   0  0  2  0  0  0  0  0  0  0  0  0
   35.8790   30.0390   48.0930 S   0  0  0  0  0  0  0  0  0  0  0  0
   33.2710   29.8610   49.0690 C   0  0  0  0  0  0  0  0  0  0  0  0
   34.1940   28.0090   47.6530 C   0  0  0  0  0  0  0  0  0  0  0  0
   34.2230   28.6600   46.4200 O   0  0  0  0  0  0  0  0  0  0  0  0
   37.7050   31.7890   49.6450 C   0  0  0  0  0  0  0  0  0  0  0  0
   36.7250   32.3200   50.2640 O   0  0  0  0  0  0  0  0  0  0  0  0
   38.5000   32.5100   48.6980 C   0  0  0  0  0  0  0  0  0  0  0  0
   39.1560   33.6430   49.1270 C   0  0  0  0  0  0  0  0  0  0  0  0
   39.9350   34.3540   48.1930 C   0  0  0  0  0  0  0  0  0  0  0  0
   39.9940   33.8730   46.9090 N   0  0  0  0  0  0  0  0  0  0  0  0
   39.3470   32.7720   46.5240 C   0  0  0  0  0  0  0  0  0  0  0  0
   38.5970   32.0850   47.4140 N   0  0  0  0  0  0  0  0  0  0  0  0
   41.6120   30.8660   45.7570 Cl  0  0  0  0  0  0  0  0  0  0  0  0
   40.4680   31.5520   44.6520 C   0  0  0  0  0  0  0  0  0  0  0  0
   39.5070   32.3900   45.1330 C   0  0  0  0  0  0  0  0  0  0  0  0
   38.6360   32.8950   44.1910 C   0  0  0  0  0  0  0  0  0  0  0  0
   38.7460   32.5620   42.8370 C   0  0  0  0  0  0  0  0  0  0  0  0
   39.7330   31.7100   42.3910 C   0  0  0  0  0  0  0  0  0  0  0  0
   39.7790   31.3600   40.6800 Cl  0  0  0  0  0  0  0  0  0  0  0  0
   40.5870   31.2160   43.3270 C   0  0  0  0  0  0  0  0  0  0  0  0
   34.3918   28.2088   50.7179 H   0  0  0  0  0  0  0  0  0  0  0  0
   35.4714   27.3454   49.5755 H   0  0  0  0  0  0  0  0  0  0  0  0
   39.0231   30.4293   49.9761 H   0  0  0  0  0  0  0  0  0  0  0  0
   37.6947   28.6169   48.6874 H   0  0  0  0  0  0  0  0  0  0  0  0
   33.1511   29.9422   50.1594 H   0  0  0  0  0  0  0  0  0  0  0  0
   33.3886   30.8659   48.6373 H   0  0  0  0  0  0  0  0  0  0  0  0
   32.3819   29.3781   48.6373 H   0  0  0  0  0  0  0  0  0  0  0  0
   34.9627   27.2225   47.6753 H   0  0  0  0  0  0  0  0  0  0  0  0
   33.2083   27.5473   47.8118 H   0  0  0  0  0  0  0  0  0  0  0  0
   34.2666   29.6384   46.5644 H   0  0  0  0  0  0  0  0  0  0  0  0
   39.0738   33.9830   50.1699 H   0  0  0  0  0  0  0  0  0  0  0  0
   40.4784   35.2652   48.4835 H   0  0  0  0  0  0  0  0  0  0  0  0
   37.8347   33.5767   44.5123 H   0  0  0  0  0  0  0  0  0  0  0  0
   38.0325   32.9874   42.1159 H   0  0  0  0  0  0  0  0  0  0  0  0
   41.3904   30.5324   43.0152 H   0  0  0  0  0  0  0  0  0  0  0  0
  1 10  1  6
  1  9  1  0
  1  2  1  0
  2  3  1  0
  3  4  1  0
  4  5  2  0
  6  4  1  0
  7  6  1  0
  7  3  1  0
  8  1  1  0
  8  7  1  0
 11 10  1  0
 12  6  1  0
 12 13  2  0
 14 15  2  0
 14 12  1  0
 16 15  1  0
 17 16  2  0
 18 17  1  0
 18 19  2  0
 19 14  1  0
 21 22  2  0
 21 20  1  0
 22 18  1  0
 23 22  1  0
 24 23  2  0
 25 24  1  0
 25 27  2  0
 26 25  1  0
 27 21  1  0
  2 28  1  0
  2 29  1  0
  6 30  1  1
  7 31  1  6
  9 32  1  0
  9 33  1  0
  9 34  1  0
 10 35  1  0
 10 36  1  0
 11 37  1  0
 15 38  1  0
 16 39  1  0
 23 40  1  0
 24 41  1  0
 27 42  1  0
M  ISO  8  28  13  29  13  30  13  31  13  32   8  33   8  34   8  35   8
M  ISO  7  36   8  37   3  38  14  39  14  40  14  41  14  42  14
M  END
>  <minimizedAffinity>  (1) 
-5.86850357

>  <minimizedRMSD>  (1) 
0.460071027

$$$$
