
     RDKit          3D

 28 29  0  0  0  0  0  0  0  0999 V2000
   38.8680   32.3840   47.5970 C   0  0  0  0  0  0  0  0  0  0  0  0
   38.4030   31.1060   47.5190 C   0  0  0  0  0  0  0  0  0  0  0  0
   38.7880   30.3660   46.4220 C   0  0  0  0  0  0  0  0  0  0  0  0
   39.5870   30.8590   45.4570 C   0  0  0  0  0  0  0  0  0  0  0  0
   40.0750   32.1550   45.5100 C   0  0  0  0  0  0  0  0  0  0  0  0
   39.6950   32.8980   46.6000 C   0  0  0  0  0  0  0  0  0  0  0  0
   37.3750   29.3950   50.6660 C   0  0  0  0  0  0  0  0  0  0  0  0
   38.1390   29.9250   49.6060 C   0  0  0  0  0  0  0  0  0  0  0  0
   37.5440   30.5990   48.5590 C   0  0  0  0  0  0  0  0  0  0  0  0
   36.1980   30.6850   48.6710 N   0  0  0  0  0  0  0  0  0  0  0  0
   35.4560   30.1950   49.6600 C   0  0  0  0  0  0  0  0  0  0  0  0
   36.0530   29.5410   50.6700 N   0  0  0  0  0  0  0  0  0  0  0  0
   34.0000   30.4230   49.5490 C   0  0  0  0  0  0  0  0  0  0  0  0
   39.4230   34.3650   48.8250 N   0  0  0  0  0  0  0  0  0  0  0  0
   38.6180   33.3410   48.6340 C   0  0  0  0  0  0  0  0  0  0  0  0
   37.7320   33.6720   49.6800 N   0  0  0  0  0  0  0  0  0  0  0  0
   39.2500   35.0350   49.6040 H   0  0  0  0  0  0  0  0  0  0  0  0
   38.4279   29.3306   46.3311 H   0  0  0  0  0  0  0  0  0  0  0  0
   39.8591   30.2175   44.6058 H   0  0  0  0  0  0  0  0  0  0  0  0
   40.7282   32.5641   44.7251 H   0  0  0  0  0  0  0  0  0  0  0  0
   40.0553   33.9335   46.6894 H   0  0  0  0  0  0  0  0  0  0  0  0
   37.8721   28.8610   51.4893 H   0  0  0  0  0  0  0  0  0  0  0  0
   39.2317   29.7986   49.6138 H   0  0  0  0  0  0  0  0  0  0  0  0
   33.5618   30.4916   50.5556 H   0  0  0  0  0  0  0  0  0  0  0  0
   33.8162   31.3609   49.0044 H   0  0  0  0  0  0  0  0  0  0  0  0
   33.5383   29.5862   49.0044 H   0  0  0  0  0  0  0  0  0  0  0  0
   37.9026   34.5104   50.2535 H   0  0  0  0  0  0  0  0  0  0  0  0
   36.9143   33.0754   49.8705 H   0  0  0  0  0  0  0  0  0  0  0  0
  1 15  1  0
  2  1  2  0
  2  9  1  0
  3  2  1  0
  4  5  1  0
  4  3  2  0
  5  6  2  0
  6  1  1  0
  7 12  2  0
  8  7  1  0
  9 10  1  0
  9  8  2  0
 10 11  2  0
 11 12  1  0
 13 11  1  0
 14 17  1  0
 15 14  2  0
 15 16  1  0
  3 18  1  0
  4 19  1  0
  5 20  1  0
  6 21  1  0
  7 22  1  0
  8 23  1  0
 13 24  1  0
 13 25  1  0
 13 26  1  0
 16 27  1  0
 16 28  1  0
M  ISO  8  18  14  19  14  20  14  21  14  22  14  23  14  24   8  25   8
M  ISO  1  26   8
M  END
>  <minimizedAffinity>  (1) 
-5.34864807

>  <minimizedRMSD>  (1) 
0.430889696

$$$$
