
     RDKit          3D

 26 28  0  0  0  0  0  0  0  0999 V2000
   36.6710   30.4810   46.9840 C   0  0  0  0  0  0  0  0  0  0  0  0
   37.3600   30.9490   48.0950 C   0  0  0  0  0  0  0  0  0  0  0  0
   38.3640   31.8650   47.9450 C   0  0  0  0  0  0  0  0  0  0  0  0
   38.6700   32.3080   46.6690 C   0  0  0  0  0  0  0  0  0  0  0  0
   39.6170   33.2040   46.2940 N   0  0  0  0  0  0  0  0  0  0  0  0
   39.5400   33.3130   44.9490 C   0  0  0  0  0  0  0  0  0  0  0  0
   38.5740   32.5150   44.4730 N   0  0  0  0  0  0  0  0  0  0  0  0
   38.0040   31.8670   45.5190 C   0  0  0  0  0  0  0  0  0  0  0  0
   36.9950   30.9400   45.7060 C   0  0  0  0  0  0  0  0  0  0  0  0
   37.2620   29.9830   51.7350 C   0  0  0  0  0  0  0  0  0  0  0  0
   37.7320   30.5230   50.5410 C   0  0  0  0  0  0  0  0  0  0  0  0
   36.9570   30.4170   49.3920 C   0  0  0  0  0  0  0  0  0  0  0  0
   35.7550   29.7810   49.4740 N   0  0  0  0  0  0  0  0  0  0  0  0
   35.3180   29.2630   50.6490 C   0  0  0  0  0  0  0  0  0  0  0  0
   36.0690   29.3670   51.7590 N   0  0  0  0  0  0  0  0  0  0  0  0
   40.3030   34.1240   43.9820 C   0  0  0  0  0  0  0  0  0  0  0  0
   35.8646   29.7438   47.1117 H   0  0  0  0  0  0  0  0  0  0  0  0
   38.9164   32.2417   48.8184 H   0  0  0  0  0  0  0  0  0  0  0  0
   40.2690   33.7047   46.9146 H   0  0  0  0  0  0  0  0  0  0  0  0
   36.4401   30.5591   44.8359 H   0  0  0  0  0  0  0  0  0  0  0  0
   37.8638   30.0604   52.6525 H   0  0  0  0  0  0  0  0  0  0  0  0
   38.7081   31.0291   50.5072 H   0  0  0  0  0  0  0  0  0  0  0  0
   34.3434   28.7549   50.6938 H   0  0  0  0  0  0  0  0  0  0  0  0
   40.9587   34.8209   44.5246 H   0  0  0  0  0  0  0  0  0  0  0  0
   40.9139   33.4626   43.3501 H   0  0  0  0  0  0  0  0  0  0  0  0
   39.6056   34.6934   43.3501 H   0  0  0  0  0  0  0  0  0  0  0  0
  1  2  2  0
  2 12  1  0
  3  2  1  0
  4  3  2  0
  5  4  1  0
  6  5  1  0
  7  6  2  0
  7  8  1  0
  8  9  2  0
  8  4  1  0
  9  1  1  0
 10 15  2  0
 11 10  1  0
 12 13  1  0
 12 11  2  0
 13 14  2  0
 14 15  1  0
 16  6  1  0
  1 17  1  0
  3 18  1  0
  5 19  1  0
  9 20  1  0
 10 21  1  0
 11 22  1  0
 14 23  1  0
 16 24  1  0
 16 25  1  0
 16 26  1  0
M  ISO  8  17  14  18  14  19   9  20  14  21  14  22  14  23  14  24   8
M  ISO  2  25   8  26   8
M  END
>  <minimizedAffinity>  (1) 
-5.56529999

>  <minimizedRMSD>  (1) 
0.462824285

$$$$
