
     RDKit          3D

 31 33  0  0  0  0  0  0  0  0999 V2000
   37.3150   29.3370   51.0330 Br  0  0  0  0  0  0  0  0  0  0  0  0
   35.9730   29.3410   49.6790 C   0  0  0  0  0  0  0  0  0  0  0  0
   35.9930   30.2630   48.6450 C   0  0  0  0  0  0  0  0  0  0  0  0
   34.9940   30.1960   47.7170 C   0  0  0  0  0  0  0  0  0  0  0  0
   33.9680   29.2740   47.7400 C   0  0  0  0  0  0  0  0  0  0  0  0
   33.9710   28.3740   48.7710 C   0  0  0  0  0  0  0  0  0  0  0  0
   34.9660   28.4150   49.7240 C   0  0  0  0  0  0  0  0  0  0  0  0
   38.0010   33.1990   49.4570 C   0  0  0  0  0  0  0  0  0  0  0  0
   39.0260   33.1820   48.4740 C   0  0  0  0  0  0  0  0  0  0  0  0
   39.0110   32.1500   47.5370 C   0  0  0  0  0  0  0  0  0  0  0  0
   38.0160   31.2120   47.6120 N   0  0  0  0  0  0  0  0  0  0  0  0
   37.0520   31.2630   48.5680 C   0  0  0  0  0  0  0  0  0  0  0  0
   37.0550   32.2580   49.4830 N   0  0  0  0  0  0  0  0  0  0  0  0
   32.9090   29.2020   46.7570 C   0  0  0  0  0  0  0  0  0  0  0  0
   32.2730   28.0530   46.3470 C   0  0  0  0  0  0  0  0  0  0  0  0
   31.2660   28.0520   45.4020 C   0  0  0  0  0  0  0  0  0  0  0  0
   30.8720   29.2050   44.8450 N   0  0  0  0  0  0  0  0  0  0  0  0
   31.4820   30.3360   45.2350 C   0  0  0  0  0  0  0  0  0  0  0  0
   32.4520   30.3230   46.1480 N   0  0  0  0  0  0  0  0  0  0  0  0
   31.0660   31.6330   44.6350 C   0  0  0  0  0  0  0  0  0  0  0  0
   35.0081   30.9269   46.8950 H   0  0  0  0  0  0  0  0  0  0  0  0
   33.1771   27.6157   48.8393 H   0  0  0  0  0  0  0  0  0  0  0  0
   34.9503   27.6824   50.5444 H   0  0  0  0  0  0  0  0  0  0  0  0
   37.9866   34.0012   50.2095 H   0  0  0  0  0  0  0  0  0  0  0  0
   39.8059   33.9575   48.4528 H   0  0  0  0  0  0  0  0  0  0  0  0
   39.7817   32.0904   46.7543 H   0  0  0  0  0  0  0  0  0  0  0  0
   32.5797   27.0944   46.7908 H   0  0  0  0  0  0  0  0  0  0  0  0
   30.7882   27.1061   45.1071 H   0  0  0  0  0  0  0  0  0  0  0  0
   30.8358   32.3506   45.4363 H   0  0  0  0  0  0  0  0  0  0  0  0
   31.8826   32.0278   44.0126 H   0  0  0  0  0  0  0  0  0  0  0  0
   30.1721   31.4792   44.0126 H   0  0  0  0  0  0  0  0  0  0  0  0
  2  7  2  0
  2  1  1  0
  3  2  1  0
  4  5  1  0
  4  3  2  0
  5  6  2  0
  6  7  1  0
  8 13  2  0
  9  8  1  0
 10 11  1  0
 10  9  2  0
 11 12  2  0
 12  3  1  0
 12 13  1  0
 14  5  1  0
 15 14  2  0
 16 15  1  0
 17 18  1  0
 17 16  2  0
 18 19  2  0
 19 14  1  0
 20 18  1  0
  4 21  1  0
  6 22  1  0
  7 23  1  0
  8 24  1  0
  9 25  1  0
 10 26  1  0
 15 27  1  0
 16 28  1  0
 20 29  1  0
 20 30  1  0
 20 31  1  0
M  ISO  8  21  14  22  14  23  14  24  14  25  14  26  14  27  14  28  14
M  ISO  3  29   8  30   8  31   8
M  END
>  <minimizedAffinity>  (1) 
-6.02991343

>  <minimizedRMSD>  (1) 
0.0151785929

$$$$
