
     RDKit          3D

 26 27  0  0  0  0  0  0  0  0999 V2000
   36.3870   29.8390   49.7860 C   0  0  0  0  0  0  0  0  0  0  0  0
   37.4080   30.2010   48.9080 C   0  0  0  0  0  0  0  0  0  0  0  0
   37.1160   30.5360   47.5950 C   0  0  0  0  0  0  0  0  0  0  0  0
   35.7910   30.4880   47.2390 N   0  0  0  0  0  0  0  0  0  0  0  0
   34.8200   30.1400   48.0910 C   0  0  0  0  0  0  0  0  0  0  0  0
   35.1210   29.8180   49.3530 N   0  0  0  0  0  0  0  0  0  0  0  0
   38.4800   33.1490   48.2760 Cl  0  0  0  0  0  0  0  0  0  0  0  0
   38.8240   32.1120   46.8950 C   0  0  0  0  0  0  0  0  0  0  0  0
   38.1430   30.9170   46.6550 C   0  0  0  0  0  0  0  0  0  0  0  0
   38.5150   30.2280   45.5510 C   0  0  0  0  0  0  0  0  0  0  0  0
   39.5020   30.6660   44.7120 C   0  0  0  0  0  0  0  0  0  0  0  0
   40.1850   31.8320   44.9230 C   0  0  0  0  0  0  0  0  0  0  0  0
   39.8140   32.5600   46.0600 C   0  0  0  0  0  0  0  0  0  0  0  0
   40.5570   33.8430   46.3070 C   0  0  0  0  0  0  0  0  0  0  0  0
   36.7460   29.4810   51.2010 C   0  0  0  0  0  0  0  0  0  0  0  0
   35.5980   29.1280   51.8870 F   0  0  0  0  0  0  0  0  0  0  0  0
   37.6960   28.5180   51.1460 F   0  0  0  0  0  0  0  0  0  0  0  0
   37.2490   30.6390   51.7980 F   0  0  0  0  0  0  0  0  0  0  0  0
   38.4503   30.2208   49.2590 H   0  0  0  0  0  0  0  0  0  0  0  0
   33.7735   30.1188   47.7529 H   0  0  0  0  0  0  0  0  0  0  0  0
   38.0048   29.2812   45.3203 H   0  0  0  0  0  0  0  0  0  0  0  0
   39.7567   30.0564   43.8325 H   0  0  0  0  0  0  0  0  0  0  0  0
   40.9768   32.1765   44.2416 H   0  0  0  0  0  0  0  0  0  0  0  0
   40.6528   34.0085   47.3902 H   0  0  0  0  0  0  0  0  0  0  0  0
   41.5582   33.7796   45.8558 H   0  0  0  0  0  0  0  0  0  0  0  0
   40.0037   34.6798   45.8558 H   0  0  0  0  0  0  0  0  0  0  0  0
  1 15  1  0
  2  1  2  0
  3  2  1  0
  4  3  2  0
  4  5  1  0
  5  6  2  0
  6  1  1  0
  8  7  1  0
  9  8  2  0
  9  3  1  0
 10  9  1  0
 11 12  1  0
 11 10  2  0
 12 13  2  0
 13 14  1  0
 13  8  1  0
 15 18  1  0
 15 16  1  0
 17 15  1  0
  2 19  1  0
  5 20  1  0
 10 21  1  0
 11 22  1  0
 12 23  1  0
 14 24  1  0
 14 25  1  0
 14 26  1  0
M  ISO  8  19  14  20  14  21  14  22  14  23  14  24   8  25   8  26   8
M  END
>  <minimizedAffinity>  (1) 
-6.12214899

>  <minimizedRMSD>  (1) 
0.56468004

$$$$
