
     RDKit          3D

 34 37  0  0  1  0  0  0  0  0999 V2000
   32.5870   28.5210   47.4180 C   0  0  0  0  0  0  0  0  0  0  0  0
   33.2820   28.5400   46.2250 C   0  0  0  0  0  0  0  0  0  0  0  0
   34.4830   29.2390   46.4310 C   0  0  0  0  0  0  0  0  0  0  0  0
   34.4830   29.6170   47.7230 N   0  0  0  0  0  0  0  0  0  0  0  0
   33.3690   29.1830   48.2580 N   0  0  0  0  0  0  0  0  0  0  0  0
   30.7620   27.5900   48.8640 C   0  0  0  0  0  0  0  0  0  0  0  0
   31.3110   27.8930   47.5880 C   0  0  0  0  0  0  0  0  0  0  0  0
   30.5440   27.5470   46.4940 C   0  0  0  0  0  0  0  0  0  0  0  0
   29.3410   26.9550   46.6800 N   0  0  0  0  0  0  0  0  0  0  0  0
   28.8570   26.6860   47.8970 C   0  0  0  0  0  0  0  0  0  0  0  0
   29.5680   27.0040   49.0070 N   0  0  0  0  0  0  0  0  0  0  0  0
   35.5230   30.3690   48.4070 C   0  0  1  0  0  0  0  0  0  0  0  0
   36.6080   29.5150   49.1480 C   0  0  0  0  0  0  0  0  0  0  0  0
   36.9100   30.2890   47.9170 C   0  0  2  0  0  0  0  0  0  0  0  0
   37.7900   31.5030   48.0070 C   0  0  0  0  0  0  0  0  0  0  0  0
   38.4110   32.0920   46.8910 C   0  0  0  0  0  0  0  0  0  0  0  0
   39.1240   33.1560   47.3460 N   0  0  0  0  0  0  0  0  0  0  0  0
   38.9580   33.2320   48.6960 C   0  0  0  0  0  0  0  0  0  0  0  0
   38.1430   32.2220   49.1020 N   0  0  0  0  0  0  0  0  0  0  0  0
   39.5250   34.2140   49.6730 C   0  0  0  0  0  0  0  0  0  0  0  0
   32.9527   28.0868   45.2784 H   0  0  0  0  0  0  0  0  0  0  0  0
   35.2669   29.4378   45.6854 H   0  0  0  0  0  0  0  0  0  0  0  0
   31.3390   27.8463   49.7648 H   0  0  0  0  0  0  0  0  0  0  0  0
   30.9083   27.7512   45.4764 H   0  0  0  0  0  0  0  0  0  0  0  0
   27.8740   26.2028   47.9986 H   0  0  0  0  0  0  0  0  0  0  0  0
   34.8415   31.1970   48.6518 H   0  0  0  0  0  0  0  0  0  0  0  0
   37.0035   29.8410   50.1213 H   0  0  0  0  0  0  0  0  0  0  0  0
   36.7076   28.4675   49.4686 H   0  0  0  0  0  0  0  0  0  0  0  0
   37.3537   30.0181   46.9476 H   0  0  0  0  0  0  0  0  0  0  0  0
   38.3342   31.7551   45.8467 H   0  0  0  0  0  0  0  0  0  0  0  0
   39.6914   33.7941   46.7700 H   0  0  0  0  0  0  0  0  0  0  0  0
   39.3254   33.8683   50.6980 H   0  0  0  0  0  0  0  0  0  0  0  0
   40.6109   34.2986   49.5195 H   0  0  0  0  0  0  0  0  0  0  0  0
   39.0553   35.1968   49.5195 H   0  0  0  0  0  0  0  0  0  0  0  0
  1  7  1  0
  1  5  2  0
  2  3  2  0
  2  1  1  0
  3  4  1  0
  4  5  1  0
  4 12  1  0
  6 11  2  0
  7  6  1  0
  8  9  1  0
  8  7  2  0
  9 10  2  0
 10 11  1  0
 12 13  1  0
 14 15  1  0
 14 12  1  0
 14 13  1  0
 15 19  1  0
 16 17  1  0
 16 15  2  0
 17 18  1  0
 18 19  2  0
 18 20  1  0
  2 21  1  0
  3 22  1  0
  6 23  1  0
  8 24  1  0
 10 25  1  0
 12 26  1  1
 13 27  1  0
 13 28  1  0
 14 29  1  6
 16 30  1  0
 17 31  1  0
 20 32  1  0
 20 33  1  0
 20 34  1  0
M  ISO  8  21  14  22  14  23  14  24  14  25  14  26  13  27  13  28  13
M  ISO  6  29  13  30  14  31   9  32   8  33   8  34   8
M  END
>  <minimizedAffinity>  (1) 
-5.180861

>  <minimizedRMSD>  (1) 
1.0984925

$$$$
