
     RDKit          3D

 23 24  0  0  0  0  0  0  0  0999 V2000
   37.5360   31.4020   48.7190 C   0  0  0  0  0  0  0  0  0  0  0  0
   38.1820   32.5260   49.1270 C   0  0  0  0  0  0  0  0  0  0  0  0
   39.0680   33.2470   48.3560 C   0  0  0  0  0  0  0  0  0  0  0  0
   39.3440   32.8390   47.0860 C   0  0  0  0  0  0  0  0  0  0  0  0
   38.6780   31.6840   46.6700 C   0  0  0  0  0  0  0  0  0  0  0  0
   37.8160   31.0000   47.4490 N   0  0  0  0  0  0  0  0  0  0  0  0
   36.9610   30.0710   50.7810 C   0  0  0  0  0  0  0  0  0  0  0  0
   36.6050   30.6400   49.5360 C   0  0  0  0  0  0  0  0  0  0  0  0
   35.3180   30.4550   49.0820 C   0  0  0  0  0  0  0  0  0  0  0  0
   34.4460   29.7320   49.8500 N   0  0  0  0  0  0  0  0  0  0  0  0
   34.8220   29.2080   51.0250 C   0  0  0  0  0  0  0  0  0  0  0  0
   36.0840   29.3670   51.5120 N   0  0  0  0  0  0  0  0  0  0  0  0
   40.2030   33.4440   46.1830 O   0  0  0  0  0  0  0  0  0  0  0  0
   40.0330   33.4940   44.7980 C   0  0  0  0  0  0  0  0  0  0  0  0
   37.9832   32.8865   50.1470 H   0  0  0  0  0  0  0  0  0  0  0  0
   39.5500   34.1476   48.7642 H   0  0  0  0  0  0  0  0  0  0  0  0
   38.8669   31.3124   45.6520 H   0  0  0  0  0  0  0  0  0  0  0  0
   37.9844   30.2095   51.1599 H   0  0  0  0  0  0  0  0  0  0  0  0
   34.9969   30.8805   48.1198 H   0  0  0  0  0  0  0  0  0  0  0  0
   34.0908   28.6334   51.6125 H   0  0  0  0  0  0  0  0  0  0  0  0
   39.0015   33.7974   44.5659 H   0  0  0  0  0  0  0  0  0  0  0  0
   40.7352   34.2236   44.3685 H   0  0  0  0  0  0  0  0  0  0  0  0
   40.2284   32.5003   44.3685 H   0  0  0  0  0  0  0  0  0  0  0  0
  1  2  2  0
  1  8  1  0
  3  2  1  0
  4  3  2  0
  5  4  1  0
  5  6  2  0
  6  1  1  0
  7 12  2  0
  8  7  1  0
  9  8  2  0
  9 10  1  0
 10 11  2  0
 11 12  1  0
 13  4  1  0
 14 13  1  0
  2 15  1  0
  3 16  1  0
  5 17  1  0
  7 18  1  0
  9 19  1  0
 11 20  1  0
 14 21  1  0
 14 22  1  0
 14 23  1  0
M  ISO  8  15  14  16  14  17  14  18  14  19  14  20  14  21   8  22   8
M  ISO  1  23   8
M  END
>  <minimizedAffinity>  (1) 
-4.73592091

>  <minimizedRMSD>  (1) 
0.462699592

$$$$
