
     RDKit          3D

 19 19  0  0  0  0  0  0  0  0999 V2000
   35.6740   30.4720   49.6580 C   0  0  0  0  0  0  0  0  0  0  0  0
   35.9140   29.5000   50.6450 C   0  0  0  0  0  0  0  0  0  0  0  0
   37.1330   29.5520   51.3000 C   0  0  0  0  0  0  0  0  0  0  0  0
   38.0350   30.5190   50.9730 N   0  0  0  0  0  0  0  0  0  0  0  0
   37.7660   31.4400   50.0140 C   0  0  0  0  0  0  0  0  0  0  0  0
   36.5830   31.4210   49.3510 N   0  0  0  0  0  0  0  0  0  0  0  0
   34.5070   30.5720   48.8990 O   0  0  0  0  0  0  0  0  0  0  0  0
   35.6110   30.1390   46.4810 O   0  0  0  0  0  0  0  0  0  0  0  0
   34.3850   29.8690   47.3370 P   0  0  1  0  0  0  0  0  0  0  0  0
   34.1930   28.1920   47.5810 O   0  0  0  0  0  0  0  0  0  0  0  0
   33.0630   30.5220   46.5140 O   0  0  0  0  0  0  0  0  0  0  0  0
   33.1080   30.2680   45.1530 C   0  0  0  0  0  0  0  0  0  0  0  0
   35.1655   28.7310   50.8866 H   0  0  0  0  0  0  0  0  0  0  0  0
   37.3720   28.8154   52.0812 H   0  0  0  0  0  0  0  0  0  0  0  0
   38.5141   32.2092   49.7719 H   0  0  0  0  0  0  0  0  0  0  0  0
   34.1710   28.0002   48.5520 H   0  0  0  0  0  0  0  0  0  0  0  0
   33.2977   29.1974   44.9859 H   0  0  0  0  0  0  0  0  0  0  0  0
   32.1467   30.5457   44.6962 H   0  0  0  0  0  0  0  0  0  0  0  0
   33.9154   30.8591   44.6962 H   0  0  0  0  0  0  0  0  0  0  0  0
  1  2  2  0
  2  3  1  0
  4  3  2  0
  5  4  1  0
  6  1  1  0
  6  5  2  0
  7  1  1  0
  9  8  2  0
  9 10  1  0
  9  7  1  0
 11  9  1  0
 12 11  1  0
  2 13  1  0
  3 14  1  0
  5 15  1  0
 10 16  1  0
 12 17  1  0
 12 18  1  0
 12 19  1  0
M  ISO  7  13  14  14  14  15  14  16   3  17   8  18   8  19   8
M  END
>  <minimizedAffinity>  (1) 
-3.48560023

>  <minimizedRMSD>  (1) 
0.501170516

$$$$
