
     RDKit          3D

 31 33  0  0  1  0  0  0  0  0999 V2000
   35.8770   29.1920   49.8220 C   0  0  0  0  0  0  0  0  0  0  0  0
   34.9340   29.6630   50.7090 C   0  0  0  0  0  0  0  0  0  0  0  0
   33.6790   29.1980   50.2780 C   0  0  0  0  0  0  0  0  0  0  0  0
   33.9490   28.4670   49.1440 C   0  0  0  0  0  0  0  0  0  0  0  0
   35.2450   28.4920   48.9170 O   0  0  0  0  0  0  0  0  0  0  0  0
   37.2920   29.4890   49.9730 C   0  0  0  0  0  0  0  0  0  0  0  0
   37.9650   28.8290   50.7770 O   0  0  0  0  0  0  0  0  0  0  0  0
   37.8240   30.5520   49.1600 C   0  0  0  0  0  0  0  0  0  0  0  0
   38.1660   31.7360   49.8020 C   0  0  0  0  0  0  0  0  0  0  0  0
   38.6800   32.7910   49.0380 C   0  0  0  0  0  0  0  0  0  0  0  0
   38.8150   32.5880   47.6910 N   0  0  0  0  0  0  0  0  0  0  0  0
   38.4800   31.4450   47.1000 C   0  0  0  0  0  0  0  0  0  0  0  0
   37.9840   30.4230   47.8260 N   0  0  0  0  0  0  0  0  0  0  0  0
   32.9600   27.7680   48.3200 C   0  0  0  0  0  0  0  0  0  0  0  0
   31.7520   27.7310   48.7310 O   0  0  0  0  0  0  0  0  0  0  0  0
   33.3660   27.1110   47.0330 C   0  0  1  0  0  0  0  0  0  0  0  0
   33.8640   25.6420   47.3150 C   0  0  0  0  0  0  0  0  0  0  0  0
   32.6440   25.9440   46.5250 C   0  0  1  0  0  0  0  0  0  0  0  0
   31.2670   25.6220   47.0170 C   0  0  0  0  0  0  0  0  0  0  0  0
   35.1275   30.2885   51.5929 H   0  0  0  0  0  0  0  0  0  0  0  0
   32.6990   29.3785   50.7439 H   0  0  0  0  0  0  0  0  0  0  0  0
   38.0355   31.8424   50.8890 H   0  0  0  0  0  0  0  0  0  0  0  0
   38.9645   33.7466   49.5026 H   0  0  0  0  0  0  0  0  0  0  0  0
   38.6082   31.3327   46.0133 H   0  0  0  0  0  0  0  0  0  0  0  0
   33.6879   28.0390   46.5378 H   0  0  0  0  0  0  0  0  0  0  0  0
   34.7671   25.2544   46.8209 H   0  0  0  0  0  0  0  0  0  0  0  0
   34.1068   25.0419   48.2044 H   0  0  0  0  0  0  0  0  0  0  0  0
   32.3159   25.6297   45.5232 H   0  0  0  0  0  0  0  0  0  0  0  0
   31.2616   25.6207   48.1170 H   0  0  0  0  0  0  0  0  0  0  0  0
   30.5594   26.3789   46.6477 H   0  0  0  0  0  0  0  0  0  0  0  0
   30.9684   24.6298   46.6477 H   0  0  0  0  0  0  0  0  0  0  0  0
  1  6  1  0
  1  2  2  0
  3  2  1  0
  4  3  2  0
  5  4  1  0
  5  1  1  0
  6  7  2  0
  8  9  2  0
  8  6  1  0
 10  9  1  0
 11 10  2  0
 12 11  1  0
 12 13  2  0
 13  8  1  0
 14 15  2  0
 14  4  1  0
 16 17  1  0
 16 14  1  0
 18 19  1  0
 18 16  1  0
 18 17  1  0
  2 20  1  0
  3 21  1  0
  9 22  1  0
 10 23  1  0
 12 24  1  0
 16 25  1  6
 17 26  1  0
 17 27  1  0
 18 28  1  6
 19 29  1  0
 19 30  1  0
 19 31  1  0
M  ISO  8  20  14  21  14  22  14  23  14  24  14  25  13  26  13  27  13
M  ISO  4  28  13  29   8  30   8  31   8
M  END
>  <minimizedAffinity>  (1) 
-5.01028728

>  <minimizedRMSD>  (1) 
0.226927131

$$$$
