
     RDKit          3D

 28 29  0  0  1  0  0  0  0  0999 V2000
   36.6120   30.0010   49.3590 C   0  0  0  0  0  0  0  0  0  0  0  0
   37.6270   30.6690   48.6530 C   0  0  0  0  0  0  0  0  0  0  0  0
   37.4370   30.9260   47.2860 C   0  0  0  0  0  0  0  0  0  0  0  0
   36.2820   30.5120   46.7270 N   0  0  0  0  0  0  0  0  0  0  0  0
   35.3170   29.8690   47.4300 C   0  0  0  0  0  0  0  0  0  0  0  0
   35.4980   29.6220   48.7400 N   0  0  0  0  0  0  0  0  0  0  0  0
   38.4110   31.5850   46.5250 N   0  0  0  0  0  0  0  0  0  0  0  0
   39.3760   32.5510   47.0660 C   0  0  0  0  0  0  0  0  0  0  0  0
   40.0950   33.1240   45.8890 C   0  0  0  0  0  0  0  0  0  0  0  0
   39.1060   32.8880   44.7830 C   0  0  0  0  0  0  0  0  0  0  0  0
   38.6760   31.4720   45.1300 C   0  0  2  0  0  0  0  0  0  0  0  0
   37.6030   30.9770   44.2450 C   0  0  0  0  0  0  0  0  0  0  0  0
   36.5270   31.8500   44.3960 F   0  0  0  0  0  0  0  0  0  0  0  0
   37.1390   29.7260   44.5210 F   0  0  0  0  0  0  0  0  0  0  0  0
   38.0370   31.1460   42.9440 F   0  0  0  0  0  0  0  0  0  0  0  0
   39.8590   30.5120   44.9980 C   0  0  0  0  0  0  0  0  0  0  0  0
   36.7400   29.7903   50.4310 H   0  0  0  0  0  0  0  0  0  0  0  0
   38.5507   30.9838   49.1607 H   0  0  0  0  0  0  0  0  0  0  0  0
   34.3898   29.5506   46.9311 H   0  0  0  0  0  0  0  0  0  0  0  0
   38.8520   33.3459   47.6170 H   0  0  0  0  0  0  0  0  0  0  0  0
   40.0739   32.0709   47.7677 H   0  0  0  0  0  0  0  0  0  0  0  0
   40.2957   34.1969   46.0252 H   0  0  0  0  0  0  0  0  0  0  0  0
   41.0829   32.6755   45.7077 H   0  0  0  0  0  0  0  0  0  0  0  0
   39.5787   32.9420   43.7912 H   0  0  0  0  0  0  0  0  0  0  0  0
   38.2901   33.6231   44.7193 H   0  0  0  0  0  0  0  0  0  0  0  0
   40.2122   30.2254   45.9996 H   0  0  0  0  0  0  0  0  0  0  0  0
   39.5420   29.6126   44.4497 H   0  0  0  0  0  0  0  0  0  0  0  0
   40.6738   31.0074   44.4497 H   0  0  0  0  0  0  0  0  0  0  0  0
  2  1  2  0
  3  2  1  0
  4  3  2  0
  4  5  1  0
  5  6  2  0
  6  1  1  0
  7  8  1  0
  7  3  1  0
  9  8  1  0
 10 11  1  0
 10  9  1  0
 11 16  1  1
 11  7  1  0
 12 13  1  0
 12 14  1  0
 12 11  1  0
 15 12  1  0
  1 17  1  0
  2 18  1  0
  5 19  1  0
  8 20  1  0
  8 21  1  0
  9 22  1  0
  9 23  1  0
 10 24  1  0
 10 25  1  0
 16 26  1  0
 16 27  1  0
 16 28  1  0
M  ISO  8  17  14  18  14  19  14  20  13  21  13  22  13  23  13  24  13
M  ISO  4  25  13  26   8  27   8  28   8
M  END
>  <minimizedAffinity>  (1) 
-4.47873163

>  <minimizedRMSD>  (1) 
2.53909421

$$$$
