
     RDKit          3D

 40 43  0  0  1  0  0  0  0  0999 V2000
   36.2270   30.1900   46.8470 C   0  0  0  0  0  0  0  0  0  0  0  0
   37.0690   30.7290   47.7890 C   0  0  0  0  0  0  0  0  0  0  0  0
   38.0720   31.6400   47.4170 C   0  0  0  0  0  0  0  0  0  0  0  0
   38.1670   31.9620   46.0750 C   0  0  0  0  0  0  0  0  0  0  0  0
   39.0450   32.8170   45.4720 N   0  0  0  0  0  0  0  0  0  0  0  0
   38.7420   32.8000   44.1630 C   0  0  0  0  0  0  0  0  0  0  0  0
   37.7330   31.9880   43.9290 N   0  0  0  0  0  0  0  0  0  0  0  0
   37.3330   31.4340   45.1040 C   0  0  0  0  0  0  0  0  0  0  0  0
   36.3430   30.5280   45.5080 C   0  0  0  0  0  0  0  0  0  0  0  0
   37.5090   30.1700   51.4890 C   0  0  0  0  0  0  0  0  0  0  0  0
   37.8110   30.5970   50.2030 C   0  0  0  0  0  0  0  0  0  0  0  0
   36.9250   30.3590   49.1850 C   0  0  0  0  0  0  0  0  0  0  0  0
   35.7580   29.6950   49.5070 N   0  0  0  0  0  0  0  0  0  0  0  0
   35.4660   29.2820   50.7530 C   0  0  0  0  0  0  0  0  0  0  0  0
   36.3320   29.5180   51.7290 N   0  0  0  0  0  0  0  0  0  0  0  0
   39.4580   33.5770   43.2420 O   0  0  0  0  0  0  0  0  0  0  0  0
   39.5940   31.8670   41.7310 N   0  0  0  0  0  0  0  0  0  0  0  0
   39.2180   33.2920   41.8700 C   0  0  1  0  0  0  0  0  0  0  0  0
   37.8130   33.4390   41.5120 C   0  0  0  0  0  0  0  0  0  0  0  0
   37.6590   33.1200   40.1490 O   0  0  0  0  0  0  0  0  0  0  0  0
   38.1110   31.8850   39.7890 C   0  0  0  0  0  0  0  0  0  0  0  0
   39.4960   31.5980   40.3120 C   0  0  2  0  0  0  0  0  0  0  0  0
   39.9390   30.2200   39.9230 C   0  0  0  0  0  0  0  0  0  0  0  0
   35.4484   29.4789   47.1604 H   0  0  0  0  0  0  0  0  0  0  0  0
   38.7528   32.0786   48.1614 H   0  0  0  0  0  0  0  0  0  0  0  0
   39.7889   33.3641   45.9283 H   0  0  0  0  0  0  0  0  0  0  0  0
   35.6612   30.0872   44.7658 H   0  0  0  0  0  0  0  0  0  0  0  0
   38.2147   30.3558   52.3121 H   0  0  0  0  0  0  0  0  0  0  0  0
   38.7559   31.1233   50.0024 H   0  0  0  0  0  0  0  0  0  0  0  0
   34.5223   28.7559   50.9596 H   0  0  0  0  0  0  0  0  0  0  0  0
   40.5558   31.7109   42.0647 H   0  0  0  0  0  0  0  0  0  0  0  0
   39.7802   33.9789   41.2203 H   0  0  0  0  0  0  0  0  0  0  0  0
   37.2021   32.7581   42.1229 H   0  0  0  0  0  0  0  0  0  0  0  0
   37.4858   34.4733   41.6943 H   0  0  0  0  0  0  0  0  0  0  0  0
   37.4202   31.1273   40.1874 H   0  0  0  0  0  0  0  0  0  0  0  0
   38.1574   31.8549   38.6904 H   0  0  0  0  0  0  0  0  0  0  0  0
   40.2044   32.2912   39.8349 H   0  0  0  0  0  0  0  0  0  0  0  0
   40.1298   29.6266   40.8294 H   0  0  0  0  0  0  0  0  0  0  0  0
   39.1511   29.7361   39.3271 H   0  0  0  0  0  0  0  0  0  0  0  0
   40.8612   30.2859   39.3271 H   0  0  0  0  0  0  0  0  0  0  0  0
  1  2  2  0
  2 12  1  0
  3  2  1  0
  4  3  2  0
  5  4  1  0
  6  5  1  0
  7  6  2  0
  7  8  1  0
  8  9  2  0
  8  4  1  0
  9  1  1  0
 10 15  2  0
 11 10  1  0
 12 13  1  0
 12 11  2  0
 13 14  2  0
 14 15  1  0
 16  6  1  0
 17 18  1  0
 18 16  1  0
 19 18  1  0
 20 19  1  0
 21 20  1  0
 21 22  1  0
 22 17  1  0
 23 22  1  0
  1 24  1  0
  3 25  1  0
  5 26  1  0
  9 27  1  0
 10 28  1  0
 11 29  1  0
 14 30  1  0
 17 31  1  0
 18 32  1  6
 19 33  1  0
 19 34  1  0
 21 35  1  0
 21 36  1  0
 22 37  1  6
 23 38  1  0
 23 39  1  0
 23 40  1  0
M  ISO  8  24  14  25  14  26   9  27  14  28  14  29  14  30  14  31   5
M  ISO  8  32  13  33  13  34  13  35  13  36  13  37  13  38   8  39   8
M  ISO  1  40   8
M  END
>  <minimizedAffinity>  (1) 
-5.66378546

>  <minimizedRMSD>  (1) 
0.0354110673

$$$$
