
     RDKit          3D

 30 32  0  0  0  0  0  0  0  0999 V2000
   38.1310   32.5690   49.5070 C   0  0  0  0  0  0  0  0  0  0  0  0
   38.7970   32.9090   48.3330 C   0  0  0  0  0  0  0  0  0  0  0  0
   38.3710   32.2600   47.1550 C   0  0  0  0  0  0  0  0  0  0  0  0
   37.3550   31.3590   47.2380 N   0  0  0  0  0  0  0  0  0  0  0  0
   36.7410   31.0640   48.4020 C   0  0  0  0  0  0  0  0  0  0  0  0
   37.1440   31.6800   49.5310 N   0  0  0  0  0  0  0  0  0  0  0  0
   37.0180   28.9220   50.4350 Cl  0  0  0  0  0  0  0  0  0  0  0  0
   35.7020   29.0470   49.3270 C   0  0  0  0  0  0  0  0  0  0  0  0
   35.6690   30.0940   48.4110 C   0  0  0  0  0  0  0  0  0  0  0  0
   34.6460   30.2200   47.5250 C   0  0  0  0  0  0  0  0  0  0  0  0
   33.6010   29.3040   47.5080 C   0  0  0  0  0  0  0  0  0  0  0  0
   33.6050   28.2600   48.4000 C   0  0  0  0  0  0  0  0  0  0  0  0
   32.3460   27.0390   48.4800 Cl  0  0  0  0  0  0  0  0  0  0  0  0
   34.6530   28.1670   49.2770 C   0  0  0  0  0  0  0  0  0  0  0  0
   38.9920   32.5380   45.8770 C   0  0  0  0  0  0  0  0  0  0  0  0
   40.3610   32.7110   45.6990 C   0  0  0  0  0  0  0  0  0  0  0  0
   40.6520   32.9590   44.3970 N   0  0  0  0  0  0  0  0  0  0  0  0
   39.4700   32.9430   43.7550 C   0  0  0  0  0  0  0  0  0  0  0  0
   38.5110   32.6940   44.6430 N   0  0  0  0  0  0  0  0  0  0  0  0
   39.2310   33.1630   42.2850 C   0  0  0  0  0  0  0  0  0  0  0  0
   38.4324   33.0532   50.4476 H   0  0  0  0  0  0  0  0  0  0  0  0
   39.6136   33.6459   48.3242 H   0  0  0  0  0  0  0  0  0  0  0  0
   34.6452   31.0578   46.8122 H   0  0  0  0  0  0  0  0  0  0  0  0
   32.7781   29.4143   46.7865 H   0  0  0  0  0  0  0  0  0  0  0  0
   34.6524   27.3290   49.9895 H   0  0  0  0  0  0  0  0  0  0  0  0
   41.1071   32.6544   46.5053 H   0  0  0  0  0  0  0  0  0  0  0  0
   41.5821   33.1246   43.9867 H   0  0  0  0  0  0  0  0  0  0  0  0
   38.4277   33.9024   42.1508 H   0  0  0  0  0  0  0  0  0  0  0  0
   40.1536   33.5345   41.8151 H   0  0  0  0  0  0  0  0  0  0  0  0
   38.9370   32.2129   41.8151 H   0  0  0  0  0  0  0  0  0  0  0  0
  1  6  2  0
  2  1  1  0
  3  4  1  0
  3  2  2  0
  4  5  2  0
  5  9  1  0
  5  6  1  0
  8  7  1  0
  9  8  2  0
 10  9  1  0
 11 10  2  0
 11 12  1  0
 12 13  1  0
 12 14  2  0
 14  8  1  0
 15  3  1  0
 16 15  2  0
 17 16  1  0
 18 17  1  0
 18 19  2  0
 19 15  1  0
 20 18  1  0
  1 21  1  0
  2 22  1  0
 10 23  1  0
 11 24  1  0
 14 25  1  0
 16 26  1  0
 17 27  1  0
 20 28  1  0
 20 29  1  0
 20 30  1  0
M  ISO  8  21  14  22  14  23  14  24  14  25  14  26  14  27   9  28   8
M  ISO  2  29   8  30   8
M  END
>  <minimizedAffinity>  (1) 
-6.59908772

>  <minimizedRMSD>  (1) 
1.14940596

$$$$
