
     RDKit          3D

 28 29  0  0  1  0  0  0  0  0999 V2000
   38.2980   31.3460   47.4210 C   0  0  0  0  0  0  0  0  0  0  0  0
   37.4490   31.1530   48.5090 C   0  0  0  0  0  0  0  0  0  0  0  0
   37.4340   32.0940   49.5480 C   0  0  0  0  0  0  0  0  0  0  0  0
   38.2720   33.1720   49.4310 N   0  0  0  0  0  0  0  0  0  0  0  0
   39.0920   33.3330   48.3510 C   0  0  0  0  0  0  0  0  0  0  0  0
   39.0930   32.4200   47.3640 N   0  0  0  0  0  0  0  0  0  0  0  0
   35.8180   29.8220   49.8880 C   0  0  1  0  0  0  0  0  0  0  0  0
   36.5670   30.0140   48.6140 C   0  0  1  0  0  0  0  0  0  0  0  0
   35.4330   30.0280   47.6010 C   0  0  0  0  0  0  0  0  0  0  0  0
   34.4050   30.6980   48.2240 O   0  0  0  0  0  0  0  0  0  0  0  0
   34.4230   30.2970   49.5430 C   0  0  0  0  0  0  0  0  0  0  0  0
   35.7460   28.4520   50.2470 O   0  0  0  0  0  0  0  0  0  0  0  0
   38.3740   30.4710   46.3600 O   0  0  0  0  0  0  0  0  0  0  0  0
   39.3050   31.8310   44.2220 O   0  0  0  0  0  0  0  0  0  0  0  0
   39.5470   30.6360   45.1220 P   0  0  0  0  0  0  0  0  0  0  0  0
   41.0280   30.8050   45.9380 O   0  0  0  0  0  0  0  0  0  0  0  0
   39.5420   29.2660   44.1210 O   0  0  0  0  0  0  0  0  0  0  0  0
   36.7765   31.9721   50.4214 H   0  0  0  0  0  0  0  0  0  0  0  0
   39.7524   34.2105   48.2885 H   0  0  0  0  0  0  0  0  0  0  0  0
   36.2932   30.3513   50.7270 H   0  0  0  0  0  0  0  0  0  0  0  0
   37.3201   29.2240   48.4770 H   0  0  0  0  0  0  0  0  0  0  0  0
   35.1281   29.0018   47.3482 H   0  0  0  0  0  0  0  0  0  0  0  0
   35.7284   30.5110   46.6579 H   0  0  0  0  0  0  0  0  0  0  0  0
   34.1496   31.1430   50.1906 H   0  0  0  0  0  0  0  0  0  0  0  0
   33.7012   29.4811   49.6961 H   0  0  0  0  0  0  0  0  0  0  0  0
   35.7416   28.3692   51.2335 H   0  0  0  0  0  0  0  0  0  0  0  0
   40.8703   30.7870   46.9152 H   0  0  0  0  0  0  0  0  0  0  0  0
   39.5390   28.4489   44.6800 H   0  0  0  0  0  0  0  0  0  0  0  0
  1  2  2  0
  2  3  1  0
  4  3  2  0
  5  4  1  0
  6  1  1  0
  6  5  2  0
  7 12  1  0
  8  2  1  0
  8  7  1  0
  9 10  1  0
  9  8  1  0
 10 11  1  0
 11  7  1  0
 13  1  1  0
 14 15  2  0
 15 16  1  0
 15 13  1  0
 17 15  1  0
  3 18  1  0
  5 19  1  0
  7 20  1  1
  8 21  1  6
  9 22  1  0
  9 23  1  0
 11 24  1  0
 11 25  1  0
 12 26  1  0
 16 27  1  0
 17 28  1  0
M  ISO  8  18  14  19  14  20  13  21  13  22  13  23  13  24  13  25  13
M  ISO  3  26   3  27   3  28   3
M  END
>  <minimizedAffinity>  (1) 
-5.36414194

>  <minimizedRMSD>  (1) 
4.40197086

$$$$
