
     RDKit          3D

 29 31  0  0  1  0  0  0  0  0999 V2000
   36.9110   30.2840   48.3020 C   0  0  0  0  0  0  0  0  0  0  0  0
   35.7090   29.5390   48.0120 C   0  0  0  0  0  0  0  0  0  0  0  0
   35.5770   30.8120   48.7720 C   0  0  0  0  0  0  0  0  0  0  0  0
   39.3700   32.4870   46.6380 C   0  0  0  0  0  0  0  0  0  0  0  0
   38.9360   32.5180   45.3130 C   0  0  0  0  0  0  0  0  0  0  0  0
   37.7900   31.7780   44.9970 C   0  0  0  0  0  0  0  0  0  0  0  0
   37.1580   31.0740   45.9800 N   0  0  0  0  0  0  0  0  0  0  0  0
   37.6240   31.0760   47.2680 C   0  0  0  0  0  0  0  0  0  0  0  0
   38.7350   31.7870   47.5920 N   0  0  0  0  0  0  0  0  0  0  0  0
   37.3460   29.0580   50.4710 C   0  0  2  0  0  0  0  0  0  0  0  0
   37.8640   29.9970   49.4500 C   0  0  2  0  0  0  0  0  0  0  0  0
   38.1520   31.2580   50.2400 C   0  0  0  0  0  0  0  0  0  0  0  0
   37.2580   31.2330   51.2890 O   0  0  0  0  0  0  0  0  0  0  0  0
   37.0380   29.9160   51.6530 C   0  0  0  0  0  0  0  0  0  0  0  0
   38.3880   28.1920   50.8550 O   0  0  0  0  0  0  0  0  0  0  0  0
   35.3401   29.4818   46.9773 H   0  0  0  0  0  0  0  0  0  0  0  0
   35.3879   28.5024   48.1921 H   0  0  0  0  0  0  0  0  0  0  0  0
   35.3181   30.7978   49.8410 H   0  0  0  0  0  0  0  0  0  0  0  0
   35.0107   31.7480   48.6568 H   0  0  0  0  0  0  0  0  0  0  0  0
   40.2686   33.0589   46.9127 H   0  0  0  0  0  0  0  0  0  0  0  0
   39.4716   33.0995   44.5481 H   0  0  0  0  0  0  0  0  0  0  0  0
   37.4035   31.7644   43.9672 H   0  0  0  0  0  0  0  0  0  0  0  0
   36.4850   28.4791   50.1055 H   0  0  0  0  0  0  0  0  0  0  0  0
   38.7402   29.5664   48.9432 H   0  0  0  0  0  0  0  0  0  0  0  0
   39.1867   31.2526   50.6134 H   0  0  0  0  0  0  0  0  0  0  0  0
   38.0438   32.1643   49.6261 H   0  0  0  0  0  0  0  0  0  0  0  0
   35.9876   29.7804   51.9502 H   0  0  0  0  0  0  0  0  0  0  0  0
   37.6778   29.6409   52.5045 H   0  0  0  0  0  0  0  0  0  0  0  0
   38.4364   28.1517   51.8430 H   0  0  0  0  0  0  0  0  0  0  0  0
  1  3  1  0
  2  1  1  0
  2  3  1  0
  4  9  2  0
  5  4  1  0
  6  5  2  0
  6  7  1  0
  7  8  2  0
  8  9  1  0
  8  1  1  0
 10 15  1  0
 10 14  1  0
 11  1  1  0
 11 12  1  0
 11 10  1  0
 12 13  1  0
 13 14  1  0
  2 16  1  0
  2 17  1  0
  3 18  1  0
  3 19  1  0
  4 20  1  0
  5 21  1  0
  6 22  1  0
 10 23  1  6
 11 24  1  6
 12 25  1  0
 12 26  1  0
 14 27  1  0
 14 28  1  0
 15 29  1  0
M  ISO  8  16  13  17  13  18  13  19  13  20  14  21  14  22  14  23  13
M  ISO  6  24  13  25  13  26  13  27  13  28  13  29   3
M  END
>  <minimizedAffinity>  (1) 
-4.65990925

>  <minimizedRMSD>  (1) 
2.61529398

$$$$
