
     RDKit          3D

 23 24  0  0  1  0  0  0  0  0999 V2000
   37.4010   30.2570   50.2420 C   0  0  0  0  0  0  0  0  0  0  0  0
   36.6610   30.7880   49.1820 C   0  0  0  0  0  0  0  0  0  0  0  0
   35.2990   30.5180   49.1530 C   0  0  0  0  0  0  0  0  0  0  0  0
   34.7540   29.7610   50.1400 N   0  0  0  0  0  0  0  0  0  0  0  0
   35.4850   29.2530   51.1580 C   0  0  0  0  0  0  0  0  0  0  0  0
   36.8100   29.5040   51.2070 N   0  0  0  0  0  0  0  0  0  0  0  0
   38.4070   32.4770   48.5480 C   0  0  1  0  0  0  0  0  0  0  0  0
   37.2650   31.6070   48.1180 C   0  0  1  0  0  0  0  0  0  0  0  0
   37.8490   30.8270   46.9950 C   0  0  0  0  0  0  0  0  0  0  0  0
   38.4920   31.8700   46.2860 O   0  0  0  0  0  0  0  0  0  0  0  0
   39.2660   32.4620   47.3050 C   0  0  0  0  0  0  0  0  0  0  0  0
   37.9460   33.7280   48.9090 O   0  0  0  0  0  0  0  0  0  0  0  0
   38.7440   30.5690   50.1990 O   0  0  0  0  0  0  0  0  0  0  0  0
   34.6700   30.9121   48.3412 H   0  0  0  0  0  0  0  0  0  0  0  0
   35.0052   28.6423   51.9370 H   0  0  0  0  0  0  0  0  0  0  0  0
   38.9608   32.1459   49.4389 H   0  0  0  0  0  0  0  0  0  0  0  0
   36.3866   32.1973   47.8180 H   0  0  0  0  0  0  0  0  0  0  0  0
   38.5654   30.0718   47.3505 H   0  0  0  0  0  0  0  0  0  0  0  0
   37.1248   30.2429   46.4081 H   0  0  0  0  0  0  0  0  0  0  0  0
   40.1772   31.8714   47.4808 H   0  0  0  0  0  0  0  0  0  0  0  0
   39.5767   33.4796   47.0259 H   0  0  0  0  0  0  0  0  0  0  0  0
   37.9202   33.7980   49.8962 H   0  0  0  0  0  0  0  0  0  0  0  0
   39.0997   31.1246   49.4609 H   0  0  0  0  0  0  0  0  0  0  0  0
  1  6  2  0
  2  1  1  0
  3  2  2  0
  3  4  1  0
  4  5  2  0
  5  6  1  0
  7 12  1  0
  8  7  1  0
  8  2  1  0
  9  8  1  0
 10  9  1  0
 10 11  1  0
 11  7  1  0
 13  1  1  0
  3 14  1  0
  5 15  1  0
  7 16  1  1
  8 17  1  6
  9 18  1  0
  9 19  1  0
 11 20  1  0
 11 21  1  0
 12 22  1  0
 13 23  1  0
M  ISO  8  14  14  15  14  16  13  17  13  18  13  19  13  20  13  21  13
M  ISO  2  22   3  23   3
M  END
>  <minimizedAffinity>  (1) 
-5.14635229

>  <minimizedRMSD>  (1) 
3.08089209

$$$$
