
     RDKit          3D

 43 46  0  0  1  0  0  0  0  0999 V2000
   32.4400   27.0270   48.1610 O   0  0  0  0  0  0  0  0  0  0  0  0
   31.1030   27.4470   48.2840 C   0  0  0  0  0  0  0  0  0  0  0  0
   30.7680   27.7640   49.6040 C   0  0  0  0  0  0  0  0  0  0  0  0
   29.5030   28.1960   49.9230 C   0  0  0  0  0  0  0  0  0  0  0  0
   28.5640   28.3120   48.9090 C   0  0  0  0  0  0  0  0  0  0  0  0
   28.9230   27.9930   47.6240 C   0  0  0  0  0  0  0  0  0  0  0  0
   30.1830   27.5550   47.2650 C   0  0  0  0  0  0  0  0  0  0  0  0
   30.6100   25.7000   45.6530 C   0  0  2  0  0  0  0  0  0  0  0  0
   30.5940   27.1940   45.9200 C   0  0  1  0  0  0  0  0  0  0  0  0
   29.5540   27.5580   44.8440 C   0  0  0  0  0  0  0  0  0  0  0  0
   29.9760   26.8620   43.7110 O   0  0  0  0  0  0  0  0  0  0  0  0
   30.7320   25.7780   44.1240 C   0  0  0  0  0  0  0  0  0  0  0  0
   29.3990   25.1310   45.9460 O   0  0  0  0  0  0  0  0  0  0  0  0
   35.3900   28.8170   49.1420 C   0  0  0  0  0  0  0  0  0  0  0  0
   35.3220   30.0020   48.3950 C   0  0  0  0  0  0  0  0  0  0  0  0
   34.2280   30.1610   47.5440 C   0  0  0  0  0  0  0  0  0  0  0  0
   33.3010   29.1670   47.4910 N   0  0  0  0  0  0  0  0  0  0  0  0
   33.3910   28.0510   48.2150 C   0  0  0  0  0  0  0  0  0  0  0  0
   34.4460   27.8640   49.0550 N   0  0  0  0  0  0  0  0  0  0  0  0
   36.3580   30.9570   48.5410 N   0  0  0  0  0  0  0  0  0  0  0  0
   36.5570   31.6260   49.6710 C   0  0  0  0  0  0  0  0  0  0  0  0
   37.5990   32.5510   49.7370 C   0  0  0  0  0  0  0  0  0  0  0  0
   38.3410   32.6930   48.6060 C   0  0  0  0  0  0  0  0  0  0  0  0
   39.2860   33.5260   48.6500 O   0  0  0  0  0  0  0  0  0  0  0  0
   38.1730   32.0460   47.4640 N   0  0  0  0  0  0  0  0  0  0  0  0
   37.1470   31.1460   47.4270 C   0  0  0  0  0  0  0  0  0  0  0  0
   36.9720   30.5170   46.3400 O   0  0  0  0  0  0  0  0  0  0  0  0
   31.5253   27.6665   50.3958 H   0  0  0  0  0  0  0  0  0  0  0  0
   29.2405   28.4448   50.9618 H   0  0  0  0  0  0  0  0  0  0  0  0
   27.5433   28.6558   49.1325 H   0  0  0  0  0  0  0  0  0  0  0  0
   28.1639   28.0917   46.8340 H   0  0  0  0  0  0  0  0  0  0  0  0
   31.3637   25.1270   46.2130 H   0  0  0  0  0  0  0  0  0  0  0  0
   31.5661   27.7061   45.8669 H   0  0  0  0  0  0  0  0  0  0  0  0
   28.5478   27.2342   45.1485 H   0  0  0  0  0  0  0  0  0  0  0  0
   29.4876   28.6424   44.6719 H   0  0  0  0  0  0  0  0  0  0  0  0
   30.3481   24.8540   43.6670 H   0  0  0  0  0  0  0  0  0  0  0  0
   31.7828   25.8944   43.8201 H   0  0  0  0  0  0  0  0  0  0  0  0
   29.2880   25.0788   46.9284 H   0  0  0  0  0  0  0  0  0  0  0  0
   36.2422   28.6626   49.8201 H   0  0  0  0  0  0  0  0  0  0  0  0
   34.1178   31.0677   46.9311 H   0  0  0  0  0  0  0  0  0  0  0  0
   35.9090   31.4530   50.5429 H   0  0  0  0  0  0  0  0  0  0  0  0
   37.8079   33.1304   50.6484 H   0  0  0  0  0  0  0  0  0  0  0  0
   38.7814   32.2119   46.6496 H   0  0  0  0  0  0  0  0  0  0  0  0
  1 18  1  0
  1  2  1  0
  2  3  2  0
  3  4  1  0
  5  4  2  0
  6  5  1  0
  7  6  2  0
  7  2  1  0
  8  9  1  0
  8 13  1  0
  9  7  1  0
 10  9  1  0
 11 12  1  0
 11 10  1  0
 12  8  1  0
 15 20  1  0
 15 14  2  0
 16 15  1  0
 17 16  2  0
 17 18  1  0
 18 19  2  0
 19 14  1  0
 20 21  1  0
 21 22  2  0
 23 24  2  0
 23 22  1  0
 25 23  1  0
 26 25  1  0
 26 20  1  0
 27 26  2  0
  3 28  1  0
  4 29  1  0
  5 30  1  0
  6 31  1  0
  8 32  1  1
  9 33  1  6
 10 34  1  0
 10 35  1  0
 12 36  1  0
 12 37  1  0
 13 38  1  0
 14 39  1  0
 16 40  1  0
 21 41  1  0
 22 42  1  0
 25 43  1  0
M  ISO  8  28  14  29  14  30  14  31  14  32  13  33  13  34  13  35  13
M  ISO  8  36  13  37  13  38   3  39  14  40  14  41  14  42  14  43   9
M  END
>  <minimizedAffinity>  (1) 
-5.85808945

>  <minimizedRMSD>  (1) 
0.860797405

$$$$
