
     RDKit          3D

 22 23  0  0  1  0  0  0  0  0999 V2000
   37.3380   30.5520   48.8180 C   0  0  0  0  0  0  0  0  0  0  0  0
   37.8420   29.9740   50.0050 C   0  0  0  0  0  0  0  0  0  0  0  0
   36.9110   29.5560   50.9750 C   0  0  0  0  0  0  0  0  0  0  0  0
   35.5900   29.7360   50.7070 N   0  0  0  0  0  0  0  0  0  0  0  0
   35.1400   30.2980   49.5520 C   0  0  0  0  0  0  0  0  0  0  0  0
   36.0280   30.7010   48.6150 N   0  0  0  0  0  0  0  0  0  0  0  0
   38.9370   32.3260   48.0960 C   0  0  1  0  0  0  0  0  0  0  0  0
   38.2730   30.9990   47.7860 C   0  0  2  0  0  0  0  0  0  0  0  0
   37.5640   31.4490   46.5020 C   0  0  0  0  0  0  0  0  0  0  0  0
   38.5320   32.1550   45.8010 O   0  0  0  0  0  0  0  0  0  0  0  0
   39.4690   32.6320   46.6880 C   0  0  0  0  0  0  0  0  0  0  0  0
   38.0170   33.3150   48.3660 O   0  0  0  0  0  0  0  0  0  0  0  0
   38.9237   29.8548   50.1655 H   0  0  0  0  0  0  0  0  0  0  0  0
   37.2415   29.0986   51.9192 H   0  0  0  0  0  0  0  0  0  0  0  0
   34.0606   30.4237   49.3817 H   0  0  0  0  0  0  0  0  0  0  0  0
   39.6346   32.2876   48.9457 H   0  0  0  0  0  0  0  0  0  0  0  0
   38.9418   30.1288   47.7122 H   0  0  0  0  0  0  0  0  0  0  0  0
   37.2203   30.5796   45.9222 H   0  0  0  0  0  0  0  0  0  0  0  0
   36.6700   32.0559   46.7080 H   0  0  0  0  0  0  0  0  0  0  0  0
   40.4335   32.1276   46.5289 H   0  0  0  0  0  0  0  0  0  0  0  0
   39.6310   33.7114   46.5513 H   0  0  0  0  0  0  0  0  0  0  0  0
   37.9212   33.4180   49.3460 H   0  0  0  0  0  0  0  0  0  0  0  0
  1  2  2  0
  2  3  1  0
  4  3  2  0
  5  4  1  0
  6  1  1  0
  6  5  2  0
  7 12  1  0
  8  7  1  0
  8  1  1  0
  9  8  1  0
 10  9  1  0
 10 11  1  0
 11  7  1  0
  2 13  1  0
  3 14  1  0
  5 15  1  0
  7 16  1  1
  8 17  1  6
  9 18  1  0
  9 19  1  0
 11 20  1  0
 11 21  1  0
 12 22  1  0
M  ISO  8  13  14  14  14  15  14  16  13  17  13  18  13  19  13  20  13
M  ISO  2  21  13  22   3
M  END
>  <minimizedAffinity>  (1) 
-4.44196129

>  <minimizedRMSD>  (1) 
5.4484024

$$$$
