
     RDKit          3D

 35 37  0  0  1  0  0  0  0  0999 V2000
   37.3990   31.1110   47.0780 N   0  0  0  0  0  0  0  0  0  0  0  0
   36.7850   30.7900   45.9070 C   0  0  0  0  0  0  0  0  0  0  0  0
   37.2340   31.2570   44.6820 C   0  0  0  0  0  0  0  0  0  0  0  0
   38.3660   32.0890   44.6880 C   0  0  0  0  0  0  0  0  0  0  0  0
   38.8000   32.5290   43.6030 O   0  0  0  0  0  0  0  0  0  0  0  0
   38.9820   32.4130   45.8590 N   0  0  0  0  0  0  0  0  0  0  0  0
   38.4530   31.8990   46.9780 C   0  0  0  0  0  0  0  0  0  0  0  0
   39.0490   32.2220   48.0300 O   0  0  0  0  0  0  0  0  0  0  0  0
   37.3380   29.5760   50.4580 C   0  0  0  0  0  0  0  0  0  0  0  0
   37.7980   30.0580   49.2250 C   0  0  0  0  0  0  0  0  0  0  0  0
   36.9360   30.6280   48.3040 C   0  0  0  0  0  0  0  0  0  0  0  0
   35.6110   30.7130   48.6230 N   0  0  0  0  0  0  0  0  0  0  0  0
   35.1560   30.2440   49.8250 C   0  0  0  0  0  0  0  0  0  0  0  0
   36.0040   29.6830   50.7330 N   0  0  0  0  0  0  0  0  0  0  0  0
   35.8060   32.0740   42.9150 C   0  0  2  0  0  0  0  0  0  0  0  0
   36.5260   30.8710   43.4780 C   0  0  2  0  0  0  0  0  0  0  0  0
   35.4190   29.8850   43.6550 C   0  0  0  0  0  0  0  0  0  0  0  0
   34.2380   30.5990   43.7960 O   0  0  0  0  0  0  0  0  0  0  0  0
   34.3600   31.6840   42.9690 C   0  0  0  0  0  0  0  0  0  0  0  0
   36.2330   32.2950   41.5900 O   0  0  0  0  0  0  0  0  0  0  0  0
   40.1460   33.2700   45.8600 C   0  0  0  0  0  0  0  0  0  0  0  0
   39.9950   34.2450   44.9010 F   0  0  0  0  0  0  0  0  0  0  0  0
   41.3150   32.6080   45.5880 F   0  0  0  0  0  0  0  0  0  0  0  0
   40.2170   33.9200   47.0920 F   0  0  0  0  0  0  0  0  0  0  0  0
   35.9006   30.1364   45.9336 H   0  0  0  0  0  0  0  0  0  0  0  0
   38.0309   29.1246   51.1833 H   0  0  0  0  0  0  0  0  0  0  0  0
   38.8685   29.9816   48.9836 H   0  0  0  0  0  0  0  0  0  0  0  0
   34.0849   30.3211   50.0634 H   0  0  0  0  0  0  0  0  0  0  0  0
   35.9982   33.0066   43.4658 H   0  0  0  0  0  0  0  0  0  0  0  0
   37.3180   30.4343   42.8518 H   0  0  0  0  0  0  0  0  0  0  0  0
   35.3573   29.2286   42.7744 H   0  0  0  0  0  0  0  0  0  0  0  0
   35.5988   29.2582   44.5409 H   0  0  0  0  0  0  0  0  0  0  0  0
   33.7636   32.5204   43.3623 H   0  0  0  0  0  0  0  0  0  0  0  0
   33.9966   31.4351   41.9610 H   0  0  0  0  0  0  0  0  0  0  0  0
   37.1122   32.7500   41.5982 H   0  0  0  0  0  0  0  0  0  0  0  0
  1 11  1  0
  2  1  1  0
  3  4  1  0
  3  2  2  0
  4  6  1  0
  5  4  2  0
  6 21  1  0
  6  7  1  0
  7  1  1  0
  7  8  2  0
  9 14  2  0
 10  9  1  0
 11 12  1  0
 11 10  2  0
 12 13  2  0
 13 14  1  0
 15 20  1  0
 15 19  1  0
 15 16  1  0
 16 17  1  0
 16  3  1  0
 17 18  1  0
 19 18  1  0
 21 24  1  0
 22 21  1  0
 23 21  1  0
  2 25  1  0
  9 26  1  0
 10 27  1  0
 13 28  1  0
 15 29  1  1
 16 30  1  6
 17 31  1  0
 17 32  1  0
 19 33  1  0
 19 34  1  0
 20 35  1  0
M  ISO  8  25  14  26  14  27  14  28  14  29  13  30  13  31  13  32  13
M  ISO  3  33  13  34  13  35   3
M  END
>  <minimizedAffinity>  (1) 
-6.25034332

>  <minimizedRMSD>  (1) 
0.158659711

$$$$
