
     RDKit          3D

 39 41  0  0  1  0  0  0  0  0999 V2000
   39.9540   32.1020   46.0770 S   0  0  0  0  0  0  0  0  0  0  0  0
   39.9600   32.7230   43.4370 N   0  0  0  0  0  0  0  0  0  0  0  0
   39.1840   32.9100   44.6350 C   0  0  1  0  0  0  0  0  0  0  0  0
   37.8240   32.3160   44.4810 C   0  0  0  0  0  0  0  0  0  0  0  0
   38.0070   30.8830   44.2360 N   0  0  0  0  0  0  0  0  0  0  0  0
   38.5860   30.8140   42.8790 C   0  0  0  0  0  0  0  0  0  0  0  0
   39.9930   31.3600   43.0050 C   0  0  2  0  0  0  0  0  0  0  0  0
   40.7570   30.4960   43.8710 N   0  0  0  0  0  0  0  0  0  0  0  0
   38.0000   33.0780   49.4950 C   0  0  0  0  0  0  0  0  0  0  0  0
   38.9210   33.1400   48.4630 C   0  0  0  0  0  0  0  0  0  0  0  0
   38.8560   32.1850   47.4820 C   0  0  0  0  0  0  0  0  0  0  0  0
   37.8800   31.2010   47.5580 N   0  0  0  0  0  0  0  0  0  0  0  0
   37.0220   31.2000   48.5840 C   0  0  0  0  0  0  0  0  0  0  0  0
   37.0760   32.1380   49.5590 N   0  0  0  0  0  0  0  0  0  0  0  0
   36.3610   29.0250   49.5780 C   0  0  2  0  0  0  0  0  0  0  0  0
   35.9940   30.1170   48.6140 C   0  0  1  0  0  0  0  0  0  0  0  0
   34.6880   30.6090   49.1910 C   0  0  0  0  0  0  0  0  0  0  0  0
   34.3120   29.7470   50.2020 O   0  0  0  0  0  0  0  0  0  0  0  0
   35.0030   28.5560   50.0420 C   0  0  0  0  0  0  0  0  0  0  0  0
   37.0990   29.5080   50.6420 O   0  0  0  0  0  0  0  0  0  0  0  0
   39.5495   33.2963   42.6862 H   0  0  0  0  0  0  0  0  0  0  0  0
   39.1283   33.9966   44.7968 H   0  0  0  0  0  0  0  0  0  0  0  0
   37.2383   32.4704   45.3992 H   0  0  0  0  0  0  0  0  0  0  0  0
   37.2807   32.7898   43.6501 H   0  0  0  0  0  0  0  0  0  0  0  0
   38.6508   30.4741   44.9283 H   0  0  0  0  0  0  0  0  0  0  0  0
   37.9981   31.4267   42.1797 H   0  0  0  0  0  0  0  0  0  0  0  0
   38.5832   29.7857   42.4884 H   0  0  0  0  0  0  0  0  0  0  0  0
   40.4970   31.3678   42.0273 H   0  0  0  0  0  0  0  0  0  0  0  0
   40.5526   30.7271   44.8537 H   0  0  0  0  0  0  0  0  0  0  0  0
   40.5020   29.5148   43.6889 H   0  0  0  0  0  0  0  0  0  0  0  0
   38.0399   33.8384   50.2888 H   0  0  0  0  0  0  0  0  0  0  0  0
   39.6829   33.9328   48.4313 H   0  0  0  0  0  0  0  0  0  0  0  0
   36.9871   28.2388   49.1309 H   0  0  0  0  0  0  0  0  0  0  0  0
   35.9234   29.7798   47.5693 H   0  0  0  0  0  0  0  0  0  0  0  0
   34.8182   31.6235   49.5957 H   0  0  0  0  0  0  0  0  0  0  0  0
   33.9144   30.6392   48.4096 H   0  0  0  0  0  0  0  0  0  0  0  0
   34.5236   27.9169   49.2859 H   0  0  0  0  0  0  0  0  0  0  0  0
   35.0392   27.9443   50.9555 H   0  0  0  0  0  0  0  0  0  0  0  0
   36.6740   29.2298   51.4917 H   0  0  0  0  0  0  0  0  0  0  0  0
  1 11  1  0
  2  3  1  0
  3  1  1  0
  4  3  1  0
  5  4  1  0
  6  7  1  0
  6  5  1  0
  7  2  1  0
  7  8  1  0
  9 14  2  0
 10  9  1  0
 11 12  1  0
 11 10  2  0
 12 13  2  0
 13 14  1  0
 15 19  1  0
 15 20  1  0
 16 13  1  0
 16 17  1  0
 16 15  1  0
 17 18  1  0
 19 18  1  0
  2 21  1  0
  3 22  1  1
  4 23  1  0
  4 24  1  0
  5 25  1  0
  6 26  1  0
  6 27  1  0
  7 28  1  6
  8 29  1  0
  8 30  1  0
  9 31  1  0
 10 32  1  0
 15 33  1  6
 16 34  1  6
 17 35  1  0
 17 36  1  0
 19 37  1  0
 19 38  1  0
 20 39  1  0
M  ISO  8  21   5  22  13  23  13  24  13  25   5  26  13  27  13  28  13
M  ISO  8  29   5  30   5  31  14  32  14  33  13  34  13  35  13  36  13
M  ISO  3  37  13  38  13  39   3
M  END
>  <minimizedAffinity>  (1) 
-6.08617353

>  <minimizedRMSD>  (1) 
2.32651067

$$$$
