
     RDKit          3D

 44 47  0  0  1  0  0  0  0  0999 V2000
   36.2350   31.0500   48.0550 C   0  0  1  0  0  0  0  0  0  0  0  0
   35.8410   30.1660   47.0010 C   0  0  0  0  0  0  0  0  0  0  0  0
   36.4940   29.6110   48.2360 C   0  0  2  0  0  0  0  0  0  0  0  0
   36.1550   28.6950   50.5180 C   0  0  2  0  0  0  0  0  0  0  0  0
   35.6600   28.7580   49.1370 C   0  0  1  0  0  0  0  0  0  0  0  0
   34.2960   29.3460   49.2550 C   0  0  0  0  0  0  0  0  0  0  0  0
   34.2450   30.0680   50.4520 O   0  0  0  0  0  0  0  0  0  0  0  0
   34.8460   29.1990   51.3080 C   0  0  0  0  0  0  0  0  0  0  0  0
   37.0260   29.7440   50.7930 O   0  0  0  0  0  0  0  0  0  0  0  0
   37.4450   29.9650   51.9730 C   0  0  0  0  0  0  0  0  0  0  0  0
   37.5000   31.8890   48.0010 C   0  0  0  0  0  0  0  0  0  0  0  0
   37.7610   32.7160   49.0830 C   0  0  0  0  0  0  0  0  0  0  0  0
   38.9180   33.4830   48.9810 C   0  0  0  0  0  0  0  0  0  0  0  0
   39.6980   33.3840   47.8710 N   0  0  0  0  0  0  0  0  0  0  0  0
   39.4180   32.5640   46.8260 C   0  0  0  0  0  0  0  0  0  0  0  0
   38.2980   31.8080   46.9020 N   0  0  0  0  0  0  0  0  0  0  0  0
   39.9000   31.3230   44.7620 C   0  0  1  0  0  0  0  0  0  0  0  0
   40.3040   32.4930   45.6370 C   0  0  1  0  0  0  0  0  0  0  0  0
   40.1270   33.6610   44.7290 C   0  0  0  0  0  0  0  0  0  0  0  0
   39.4890   33.2430   43.5720 O   0  0  0  0  0  0  0  0  0  0  0  0
   38.9890   31.9750   43.7690 C   0  0  0  0  0  0  0  0  0  0  0  0
   41.0070   30.7550   44.1190 O   0  0  0  0  0  0  0  0  0  0  0  0
   35.6710   31.8516   48.5544 H   0  0  0  0  0  0  0  0  0  0  0  0
   34.7738   29.9777   46.8119 H   0  0  0  0  0  0  0  0  0  0  0  0
   36.0438   30.1057   45.9215 H   0  0  0  0  0  0  0  0  0  0  0  0
   37.3844   29.0200   48.4965 H   0  0  0  0  0  0  0  0  0  0  0  0
   36.6150   27.7206   50.7392 H   0  0  0  0  0  0  0  0  0  0  0  0
   35.6822   27.7559   48.6839 H   0  0  0  0  0  0  0  0  0  0  0  0
   34.1025   30.0165   48.4047 H   0  0  0  0  0  0  0  0  0  0  0  0
   33.5336   28.5531   49.2511 H   0  0  0  0  0  0  0  0  0  0  0  0
   34.1797   28.3538   51.5354 H   0  0  0  0  0  0  0  0  0  0  0  0
   35.0937   29.6661   52.2726 H   0  0  0  0  0  0  0  0  0  0  0  0
   36.7145   29.5797   52.6996 H   0  0  0  0  0  0  0  0  0  0  0  0
   38.4105   29.4588   52.1201 H   0  0  0  0  0  0  0  0  0  0  0  0
   37.5725   31.0476   52.1201 H   0  0  0  0  0  0  0  0  0  0  0  0
   37.0997   32.7626   49.9608 H   0  0  0  0  0  0  0  0  0  0  0  0
   39.2006   34.1667   49.7950 H   0  0  0  0  0  0  0  0  0  0  0  0
   39.4383   30.4974   45.3234 H   0  0  0  0  0  0  0  0  0  0  0  0
   41.3262   32.4307   46.0385 H   0  0  0  0  0  0  0  0  0  0  0  0
   39.5173   34.4276   45.2295 H   0  0  0  0  0  0  0  0  0  0  0  0
   41.1094   34.0871   44.4773 H   0  0  0  0  0  0  0  0  0  0  0  0
   37.9643   32.0254   44.1657 H   0  0  0  0  0  0  0  0  0  0  0  0
   38.9462   31.4076   42.8276 H   0  0  0  0  0  0  0  0  0  0  0  0
   41.6491   30.4255   44.7967 H   0  0  0  0  0  0  0  0  0  0  0  0
  1  3  1  0
  2  1  1  0
  2  3  1  0
  3  5  1  0
  4  9  1  0
  4  8  1  0
  5  6  1  0
  5  4  1  0
  6  7  1  0
  7  8  1  0
  9 10  1  0
 11  1  1  0
 11 12  2  0
 13 12  1  0
 14 13  2  0
 15 16  2  0
 15 14  1  0
 16 11  1  0
 17 22  1  0
 17 18  1  0
 18 15  1  0
 19 18  1  0
 20 21  1  0
 20 19  1  0
 21 17  1  0
  1 23  1  1
  2 24  1  0
  2 25  1  0
  3 26  1  6
  4 27  1  1
  5 28  1  6
  6 29  1  0
  6 30  1  0
  8 31  1  0
  8 32  1  0
 10 33  1  0
 10 34  1  0
 10 35  1  0
 12 36  1  0
 13 37  1  0
 17 38  1  1
 18 39  1  1
 19 40  1  0
 19 41  1  0
 21 42  1  0
 21 43  1  0
 22 44  1  0
M  ISO  8  23  13  24  13  25  13  26  13  27  13  28  13  29  13  30  13
M  ISO  8  31  13  32  13  33   8  34   8  35   8  36  14  37  14  38  13
M  ISO  6  39  13  40  13  41  13  42  13  43  13  44   3
M  END
>  <minimizedAffinity>  (1) 
-5.6350131

>  <minimizedRMSD>  (1) 
1.78835833

$$$$
