
     RDKit          3D

 49 52  0  0  1  0  0  0  0  0999 V2000
   38.3340   32.8310   43.5390 C   0  0  2  0  0  0  0  0  0  0  0  0
   36.8410   32.4350   43.2990 C   0  0  0  0  0  0  0  0  0  0  0  0
   36.8350   31.0720   42.6720 C   0  0  0  0  0  0  0  0  0  0  0  0
   37.2480   31.2090   41.2300 C   0  0  0  0  0  0  0  0  0  0  0  0
   38.0940   32.4310   41.0940 C   0  0  0  0  0  0  0  0  0  0  0  0
   39.0400   32.5780   42.2690 C   0  0  2  0  0  0  0  0  0  0  0  0
   39.9690   30.4760   43.1100 C   0  0  2  0  0  0  0  0  0  0  0  0
   40.1280   31.6350   42.1370 C   0  0  1  0  0  0  0  0  0  0  0  0
   40.2310   30.7650   40.9310 C   0  0  0  0  0  0  0  0  0  0  0  0
   41.2620   29.9230   41.2340 O   0  0  0  0  0  0  0  0  0  0  0  0
   41.0440   29.5330   42.5320 C   0  0  0  0  0  0  0  0  0  0  0  0
   38.7170   29.9150   43.0080 O   0  0  0  0  0  0  0  0  0  0  0  0
   38.7360   32.0420   44.5440 O   0  0  0  0  0  0  0  0  0  0  0  0
   37.0500   30.2650   46.1060 Cl  0  0  0  0  0  0  0  0  0  0  0  0
   38.0500   31.5270   46.7740 C   0  0  0  0  0  0  0  0  0  0  0  0
   38.0420   31.6930   48.1280 C   0  0  0  0  0  0  0  0  0  0  0  0
   38.8580   32.7110   48.6180 C   0  0  0  0  0  0  0  0  0  0  0  0
   39.6090   33.4750   47.7470 C   0  0  0  0  0  0  0  0  0  0  0  0
   39.5840   33.2700   46.3870 C   0  0  0  0  0  0  0  0  0  0  0  0
   38.7880   32.2760   45.9030 C   0  0  0  0  0  0  0  0  0  0  0  0
   37.8460   30.0430   49.9960 C   0  0  0  0  0  0  0  0  0  0  0  0
   37.2480   30.8920   49.0640 C   0  0  0  0  0  0  0  0  0  0  0  0
   35.8570   30.9590   49.0510 C   0  0  0  0  0  0  0  0  0  0  0  0
   35.1630   30.2020   49.9360 N   0  0  0  0  0  0  0  0  0  0  0  0
   35.7600   29.4030   50.8090 C   0  0  0  0  0  0  0  0  0  0  0  0
   37.1000   29.3140   50.8490 N   0  0  0  0  0  0  0  0  0  0  0  0
   38.5165   33.8807   43.8126 H   0  0  0  0  0  0  0  0  0  0  0  0
   36.2995   32.4112   44.2562 H   0  0  0  0  0  0  0  0  0  0  0  0
   36.3450   33.1666   42.6442 H   0  0  0  0  0  0  0  0  0  0  0  0
   37.5433   30.4171   43.2005 H   0  0  0  0  0  0  0  0  0  0  0  0
   35.8292   30.6313   42.7364 H   0  0  0  0  0  0  0  0  0  0  0  0
   37.8235   30.3232   40.9230 H   0  0  0  0  0  0  0  0  0  0  0  0
   36.3579   31.2935   40.5893 H   0  0  0  0  0  0  0  0  0  0  0  0
   38.6820   32.3587   40.1672 H   0  0  0  0  0  0  0  0  0  0  0  0
   37.4333   33.3101   41.0674 H   0  0  0  0  0  0  0  0  0  0  0  0
   39.6104   33.5185   42.2779 H   0  0  0  0  0  0  0  0  0  0  0  0
   40.0753   30.7281   44.1754 H   0  0  0  0  0  0  0  0  0  0  0  0
   40.9516   32.3595   42.2189 H   0  0  0  0  0  0  0  0  0  0  0  0
   39.2988   30.2036   40.7702 H   0  0  0  0  0  0  0  0  0  0  0  0
   40.3999   31.3339   40.0048 H   0  0  0  0  0  0  0  0  0  0  0  0
   40.6884   28.4924   42.5594 H   0  0  0  0  0  0  0  0  0  0  0  0
   41.9720   29.5874   43.1200 H   0  0  0  0  0  0  0  0  0  0  0  0
   38.3535   29.7521   43.9143 H   0  0  0  0  0  0  0  0  0  0  0  0
   38.9038   32.9060   49.6996 H   0  0  0  0  0  0  0  0  0  0  0  0
   40.2476   34.2730   48.1536 H   0  0  0  0  0  0  0  0  0  0  0  0
   40.1892   33.8907   45.7099 H   0  0  0  0  0  0  0  0  0  0  0  0
   38.9427   29.9677   50.0349 H   0  0  0  0  0  0  0  0  0  0  0  0
   35.3327   31.6121   48.3379 H   0  0  0  0  0  0  0  0  0  0  0  0
   35.1530   28.8076   51.5069 H   0  0  0  0  0  0  0  0  0  0  0  0
  1 13  1  0
  2  1  1  0
  3  2  1  0
  4  3  1  0
  5  4  1  0
  5  6  1  0
  6  1  1  0
  7 12  1  0
  8  9  1  0
  8  6  1  0
  8  7  1  0
  9 10  1  0
 10 11  1  0
 11  7  1  0
 13 20  1  0
 14 15  1  0
 15 16  2  0
 16 17  1  0
 16 22  1  0
 18 17  2  0
 19 18  1  0
 20 19  2  0
 20 15  1  0
 21 26  2  0
 22 21  1  0
 23 22  2  0
 23 24  1  0
 24 25  2  0
 25 26  1  0
  1 27  1  1
  2 28  1  0
  2 29  1  0
  3 30  1  0
  3 31  1  0
  4 32  1  0
  4 33  1  0
  5 34  1  0
  5 35  1  0
  6 36  1  6
  7 37  1  1
  8 38  1  1
  9 39  1  0
  9 40  1  0
 11 41  1  0
 11 42  1  0
 12 43  1  0
 17 44  1  0
 18 45  1  0
 19 46  1  0
 21 47  1  0
 23 48  1  0
 25 49  1  0
M  ISO  8  27  13  28  13  29  13  30  13  31  13  32  13  33  13  34  13
M  ISO  8  35  13  36  13  37  13  38  13  39  13  40  13  41  13  42  13
M  ISO  7  43   3  44  14  45  14  46  14  47  14  48  14  49  14
M  END
>  <minimizedAffinity>  (1) 
-5.79093647

>  <minimizedRMSD>  (1) 
1.8356539

$$$$
