
     RDKit          3D

 30 31  0  0  1  0  0  0  0  0999 V2000
   39.5380   32.7430   46.7080 C   0  0  0  0  0  0  0  0  0  0  0  0
   38.3540   30.9270   47.9000 C   0  0  0  0  0  0  0  0  0  0  0  0
   38.7970   32.1760   47.8700 C   0  0  0  0  0  0  0  0  0  0  0  0
   37.3390   30.2300   51.4030 C   0  0  0  0  0  0  0  0  0  0  0  0
   38.0500   30.7470   50.2990 C   0  0  0  0  0  0  0  0  0  0  0  0
   37.6450   30.4120   49.0320 C   0  0  0  0  0  0  0  0  0  0  0  0
   36.5690   29.5910   48.8550 N   0  0  0  0  0  0  0  0  0  0  0  0
   35.9100   29.1130   49.9380 C   0  0  0  0  0  0  0  0  0  0  0  0
   36.2780   29.4190   51.1910 N   0  0  0  0  0  0  0  0  0  0  0  0
   39.2040   31.7010   45.2540 S   0  0  0  0  0  0  0  0  0  0  0  0
   37.6930   32.6200   43.1200 C   0  0  2  0  0  0  0  0  0  0  0  0
   37.6190   32.1660   44.5670 C   0  0  1  0  0  0  0  0  0  0  0  0
   36.6490   31.0280   44.4740 C   0  0  0  0  0  0  0  0  0  0  0  0
   35.9240   31.1450   43.3050 O   0  0  0  0  0  0  0  0  0  0  0  0
   36.2410   32.3520   42.7190 C   0  0  0  0  0  0  0  0  0  0  0  0
   38.4740   31.7580   42.3490 O   0  0  0  0  0  0  0  0  0  0  0  0
   39.1972   33.7709   46.5152 H   0  0  0  0  0  0  0  0  0  0  0  0
   40.6172   32.7633   46.9200 H   0  0  0  0  0  0  0  0  0  0  0  0
   38.5353   30.2714   47.0355 H   0  0  0  0  0  0  0  0  0  0  0  0
   38.6095   32.8219   48.7405 H   0  0  0  0  0  0  0  0  0  0  0  0
   37.6456   30.4848   52.4282 H   0  0  0  0  0  0  0  0  0  0  0  0
   38.9155   31.4084   50.4522 H   0  0  0  0  0  0  0  0  0  0  0  0
   35.0443   28.4519   49.7846 H   0  0  0  0  0  0  0  0  0  0  0  0
   38.0998   33.6339   42.9915 H   0  0  0  0  0  0  0  0  0  0  0  0
   37.3030   32.9586   45.2612 H   0  0  0  0  0  0  0  0  0  0  0  0
   37.1986   30.0751   44.4725 H   0  0  0  0  0  0  0  0  0  0  0  0
   35.9667   31.0521   45.3365 H   0  0  0  0  0  0  0  0  0  0  0  0
   35.5829   33.1489   43.0956 H   0  0  0  0  0  0  0  0  0  0  0  0
   36.1128   32.3264   41.6268 H   0  0  0  0  0  0  0  0  0  0  0  0
   39.0049   31.1720   42.9447 H   0  0  0  0  0  0  0  0  0  0  0  0
  1  3  1  0
  2  6  1  0
  3  2  2  0
  5  4  2  0
  6  5  1  0
  7  6  2  0
  7  8  1  0
  8  9  2  0
  9  4  1  0
 10  1  1  0
 11 16  1  0
 11 12  1  0
 12 10  1  0
 13 12  1  0
 14 13  1  0
 15 11  1  0
 15 14  1  0
  1 17  1  0
  1 18  1  0
  2 19  1  0
  3 20  1  0
  4 21  1  0
  5 22  1  0
  8 23  1  0
 11 24  1  1
 12 25  1  1
 13 26  1  0
 13 27  1  0
 15 28  1  0
 15 29  1  0
 16 30  1  0
M  ISO  8  17   8  18   8  21  14  22  14  23  14  24  13  25  13  26  13
M  ISO  4  27  13  28  13  29  13  30   3
M  END
>  <minimizedAffinity>  (1) 
-4.53981543

>  <minimizedRMSD>  (1) 
1.41251945

$$$$
