
     RDKit          3D

 44 47  0  0  1  0  0  0  0  0999 V2000
   37.6950   30.2820   51.0150 C   0  0  0  0  0  0  0  0  0  0  0  0
   38.1630   30.8430   49.8190 C   0  0  0  0  0  0  0  0  0  0  0  0
   37.4540   30.5760   48.6700 C   0  0  0  0  0  0  0  0  0  0  0  0
   36.3690   29.8010   48.7700 N   0  0  0  0  0  0  0  0  0  0  0  0
   35.9230   29.2630   49.9250 C   0  0  0  0  0  0  0  0  0  0  0  0
   36.6010   29.5130   51.0480 N   0  0  0  0  0  0  0  0  0  0  0  0
   37.8280   31.0970   47.3710 C   0  0  0  0  0  0  0  0  0  0  0  0
   37.1010   30.7550   46.2310 C   0  0  0  0  0  0  0  0  0  0  0  0
   37.4120   31.2220   44.9770 C   0  0  0  0  0  0  0  0  0  0  0  0
   38.4710   32.0510   44.8260 N   0  0  0  0  0  0  0  0  0  0  0  0
   39.1600   32.3700   45.9340 C   0  0  0  0  0  0  0  0  0  0  0  0
   38.8740   31.9250   47.1720 N   0  0  0  0  0  0  0  0  0  0  0  0
   40.3280   33.2790   45.8030 C   0  0  0  0  0  0  0  0  0  0  0  0
   40.4210   34.0170   47.0060 F   0  0  0  0  0  0  0  0  0  0  0  0
   41.4770   32.5930   45.5590 F   0  0  0  0  0  0  0  0  0  0  0  0
   40.1230   34.2390   44.8250 F   0  0  0  0  0  0  0  0  0  0  0  0
   34.7810   28.4820   49.8530 O   0  0  0  0  0  0  0  0  0  0  0  0
   33.5360   26.7900   46.8450 N   0  0  0  0  0  0  0  0  0  0  0  0
   34.0910   26.8990   48.0590 C   0  0  0  0  0  0  0  0  0  0  0  0
   34.2400   28.1580   48.6270 C   0  0  0  0  0  0  0  0  0  0  0  0
   33.8110   29.2670   47.9210 C   0  0  0  0  0  0  0  0  0  0  0  0
   33.8520   30.4870   48.2520 O   0  0  0  0  0  0  0  0  0  0  0  0
   33.2550   29.0920   46.6910 N   0  0  0  0  0  0  0  0  0  0  0  0
   33.1170   27.8710   46.1540 C   0  0  0  0  0  0  0  0  0  0  0  0
   32.6070   27.6630   45.0180 O   0  0  0  0  0  0  0  0  0  0  0  0
   31.2960   30.3760   45.9050 C   0  0  1  0  0  0  0  0  0  0  0  0
   32.7720   30.1660   45.8650 C   0  0  2  0  0  0  0  0  0  0  0  0
   33.1110   30.0170   44.4110 C   0  0  0  0  0  0  0  0  0  0  0  0
   31.9260   29.8370   43.7260 O   0  0  0  0  0  0  0  0  0  0  0  0
   30.9250   30.4610   44.4470 C   0  0  0  0  0  0  0  0  0  0  0  0
   30.5820   29.4440   46.6170 O   0  0  0  0  0  0  0  0  0  0  0  0
   38.2407   30.4789   51.9496 H   0  0  0  0  0  0  0  0  0  0  0  0
   39.0640   31.4737   49.7993 H   0  0  0  0  0  0  0  0  0  0  0  0
   36.2391   30.0804   46.3410 H   0  0  0  0  0  0  0  0  0  0  0  0
   36.8079   30.9259   44.1067 H   0  0  0  0  0  0  0  0  0  0  0  0
   33.4259   25.8551   46.4270 H   0  0  0  0  0  0  0  0  0  0  0  0
   34.4251   26.0016   48.6003 H   0  0  0  0  0  0  0  0  0  0  0  0
   31.0307   31.2819   46.4698 H   0  0  0  0  0  0  0  0  0  0  0  0
   33.2932   31.0248   46.3132 H   0  0  0  0  0  0  0  0  0  0  0  0
   33.6204   30.9224   44.0492 H   0  0  0  0  0  0  0  0  0  0  0  0
   33.7831   29.1602   44.2552 H   0  0  0  0  0  0  0  0  0  0  0  0
   30.8429   31.5145   44.1412 H   0  0  0  0  0  0  0  0  0  0  0  0
   29.9556   29.9740   44.2651 H   0  0  0  0  0  0  0  0  0  0  0  0
   30.7047   29.6042   47.5862 H   0  0  0  0  0  0  0  0  0  0  0  0
  1  6  2  0
  2  1  1  0
  3  4  1  0
  3  2  2  0
  4  5  2  0
  5  6  1  0
  7  3  1  0
  8  7  2  0
  9  8  1  0
 10  9  2  0
 10 11  1  0
 11 12  2  0
 12  7  1  0
 13 11  1  0
 13 14  1  0
 15 13  1  0
 16 13  1  0
 17  5  1  0
 18 19  1  0
 19 20  2  0
 20 17  1  0
 21 22  2  0
 21 20  1  0
 23 21  1  0
 24 23  1  0
 24 18  1  0
 25 24  2  0
 26 31  1  0
 27 26  1  0
 27 23  1  0
 28 27  1  0
 29 28  1  0
 29 30  1  0
 30 26  1  0
  1 32  1  0
  2 33  1  0
  8 34  1  0
  9 35  1  0
 18 36  1  0
 19 37  1  0
 26 38  1  1
 27 39  1  1
 28 40  1  0
 28 41  1  0
 30 42  1  0
 30 43  1  0
 31 44  1  0
M  ISO  8  32  14  33  14  34  14  35  14  36   9  37  14  38  13  39  13
M  ISO  5  40  13  41  13  42  13  43  13  44   3
M  END
>  <minimizedAffinity>  (1) 
-6.94848013

>  <minimizedRMSD>  (1) 
1.00892949

$$$$
