
     RDKit          3D

 46 48  0  0  1  0  0  0  0  0999 V2000
   37.5160   30.4920   48.5080 Cl  0  0  0  0  0  0  0  0  0  0  0  0
   36.3930   30.3060   47.1620 C   0  0  0  0  0  0  0  0  0  0  0  0
   36.7880   30.6720   45.9120 C   0  0  0  0  0  0  0  0  0  0  0  0
   35.9260   30.5330   44.8590 C   0  0  0  0  0  0  0  0  0  0  0  0
   34.6630   30.0180   45.0910 C   0  0  0  0  0  0  0  0  0  0  0  0
   34.3090   29.6590   46.3920 C   0  0  0  0  0  0  0  0  0  0  0  0
   35.1520   29.7900   47.4530 C   0  0  0  0  0  0  0  0  0  0  0  0
   39.7870   32.8300   46.0180 C   0  0  0  0  0  0  0  0  0  0  0  0
   40.6620   32.1140   45.1450 C   0  0  0  0  0  0  0  0  0  0  0  0
   40.1860   30.9260   44.5610 C   0  0  0  0  0  0  0  0  0  0  0  0
   38.9240   30.5120   44.8480 N   0  0  0  0  0  0  0  0  0  0  0  0
   38.1220   31.2140   45.6790 C   0  0  0  0  0  0  0  0  0  0  0  0
   38.5580   32.3530   46.2480 N   0  0  0  0  0  0  0  0  0  0  0  0
   41.0720   30.2480   43.7100 N   0  0  0  0  0  0  0  0  0  0  0  0
   34.7670   29.4180   48.7950 C   0  0  0  0  0  0  0  0  0  0  0  0
   34.0790   28.1510   49.0170 C   0  0  0  0  0  0  0  0  0  0  0  0
   32.7690   28.3340   49.3850 O   0  0  0  0  0  0  0  0  0  0  0  0
   32.4080   26.4930   47.5340 O   0  0  0  0  0  0  0  0  0  0  0  0
   31.7320   27.6210   48.2740 P   0  0  2  0  0  0  0  0  0  0  0  0
   31.2560   28.8700   47.1970 O   0  0  0  0  0  0  0  0  0  0  0  0
   30.3500   27.0340   48.9940 O   0  0  0  0  0  0  0  0  0  0  0  0
   28.8950   26.9800   50.8010 C   0  0  2  0  0  0  0  0  0  0  0  0
   29.8160   27.8720   49.9590 C   0  0  2  0  0  0  0  0  0  0  0  0
   28.7550   28.7250   49.2970 C   0  0  0  0  0  0  0  0  0  0  0  0
   27.7430   27.8350   48.9650 O   0  0  0  0  0  0  0  0  0  0  0  0
   27.8330   26.7160   49.7530 C   0  0  0  0  0  0  0  0  0  0  0  0
   28.3100   27.6670   51.8400 O   0  0  0  0  0  0  0  0  0  0  0  0
   36.2321   30.8260   43.8439 H   0  0  0  0  0  0  0  0  0  0  0  0
   33.9494   29.8936   44.2631 H   0  0  0  0  0  0  0  0  0  0  0  0
   33.3027   29.2514   46.5685 H   0  0  0  0  0  0  0  0  0  0  0  0
   40.1197   33.7632   46.4960 H   0  0  0  0  0  0  0  0  0  0  0  0
   41.6777   32.4806   44.9356 H   0  0  0  0  0  0  0  0  0  0  0  0
   42.0152   30.6261   43.5416 H   0  0  0  0  0  0  0  0  0  0  0  0
   40.7792   29.3722   43.2538 H   0  0  0  0  0  0  0  0  0  0  0  0
   35.6873   29.3928   49.3971 H   0  0  0  0  0  0  0  0  0  0  0  0
   34.0151   30.1730   49.0681 H   0  0  0  0  0  0  0  0  0  0  0  0
   34.1079   27.5637   48.0874 H   0  0  0  0  0  0  0  0  0  0  0  0
   34.5915   27.6254   49.8362 H   0  0  0  0  0  0  0  0  0  0  0  0
   30.9559   29.6573   47.7168 H   0  0  0  0  0  0  0  0  0  0  0  0
   29.3956   26.1166   51.2635 H   0  0  0  0  0  0  0  0  0  0  0  0
   30.6202   28.4191   50.4728 H   0  0  0  0  0  0  0  0  0  0  0  0
   28.3841   29.4919   49.9929 H   0  0  0  0  0  0  0  0  0  0  0  0
   29.1416   29.2619   48.4182 H   0  0  0  0  0  0  0  0  0  0  0  0
   26.8659   26.5206   50.2394 H   0  0  0  0  0  0  0  0  0  0  0  0
   28.0970   25.8364   49.1475 H   0  0  0  0  0  0  0  0  0  0  0  0
   28.6266   27.2952   52.7012 H   0  0  0  0  0  0  0  0  0  0  0  0
  2  7  2  0
  2  1  1  0
  3  2  1  0
  4  5  1  0
  4  3  2  0
  5  6  2  0
  6  7  1  0
  7 15  1  0
  8 13  2  0
  9  8  1  0
 10 11  1  0
 10  9  2  0
 11 12  2  0
 12  3  1  0
 12 13  1  0
 14 10  1  0
 15 16  1  0
 16 17  1  0
 19 18  2  0
 19 21  1  0
 19 17  1  0
 20 19  1  0
 22 27  1  0
 23 21  1  0
 23 22  1  0
 24 23  1  0
 25 24  1  0
 25 26  1  0
 26 22  1  0
  4 28  1  0
  5 29  1  0
  6 30  1  0
  8 31  1  0
  9 32  1  0
 14 33  1  0
 14 34  1  0
 15 35  1  0
 15 36  1  0
 16 37  1  0
 16 38  1  0
 20 39  1  0
 22 40  1  1
 23 41  1  1
 24 42  1  0
 24 43  1  0
 26 44  1  0
 26 45  1  0
 27 46  1  0
M  ISO  8  28  14  29  14  30  14  31  14  32  14  35   8  36   8  37   8
M  ISO  8  38   8  39   3  40  13  41  13  42  13  43  13  44  13  45  13
M  ISO  1  46   3
M  END
>  <minimizedAffinity>  (1) 
-6.52043295

>  <minimizedRMSD>  (1) 
1.69493711

$$$$
