
     RDKit          3D

 38 40  0  0  1  0  0  0  0  0999 V2000
   37.0900   30.5310   48.4560 N   0  0  0  0  0  0  0  0  0  0  0  0
   38.0700   30.1660   49.4500 C   0  0  0  0  0  0  0  0  0  0  0  0
   38.6100   31.2280   50.2980 C   0  0  0  0  0  0  0  0  0  0  0  0
   38.6040   32.6130   49.7940 C   0  0  0  0  0  0  0  0  0  0  0  0
   37.6130   32.8750   48.6790 C   0  0  0  0  0  0  0  0  0  0  0  0
   37.5970   31.6860   47.7410 C   0  0  1  0  0  0  0  0  0  0  0  0
   35.8540   29.8660   48.2330 C   0  0  0  0  0  0  0  0  0  0  0  0
   34.9790   30.1690   47.1780 C   0  0  0  0  0  0  0  0  0  0  0  0
   33.7980   29.4430   47.0700 C   0  0  0  0  0  0  0  0  0  0  0  0
   33.5660   28.4740   48.0040 N   0  0  0  0  0  0  0  0  0  0  0  0
   34.4260   28.2160   48.9950 C   0  0  0  0  0  0  0  0  0  0  0  0
   35.5720   28.9100   49.1130 N   0  0  0  0  0  0  0  0  0  0  0  0
   38.9370   31.5070   47.3530 O   0  0  0  0  0  0  0  0  0  0  0  0
   40.5210   31.9170   45.6080 C   0  0  2  0  0  0  0  0  0  0  0  0
   39.2590   32.3790   46.2990 C   0  0  1  0  0  0  0  0  0  0  0  0
   38.2280   32.2950   45.2190 C   0  0  0  0  0  0  0  0  0  0  0  0
   38.7560   31.4650   44.2330 O   0  0  0  0  0  0  0  0  0  0  0  0
   40.0780   31.8540   44.1560 C   0  0  0  0  0  0  0  0  0  0  0  0
   40.9090   30.6580   46.0180 O   0  0  0  0  0  0  0  0  0  0  0  0
   37.6036   29.4223   50.1128 H   0  0  0  0  0  0  0  0  0  0  0  0
   38.9336   29.8094   48.8694 H   0  0  0  0  0  0  0  0  0  0  0  0
   38.0296   31.2218   51.2324 H   0  0  0  0  0  0  0  0  0  0  0  0
   39.6786   30.9815   50.3838 H   0  0  0  0  0  0  0  0  0  0  0  0
   38.3613   33.2821   50.6327 H   0  0  0  0  0  0  0  0  0  0  0  0
   39.6032   32.7948   49.3715 H   0  0  0  0  0  0  0  0  0  0  0  0
   36.6095   33.0217   49.1050 H   0  0  0  0  0  0  0  0  0  0  0  0
   37.9075   33.7793   48.1262 H   0  0  0  0  0  0  0  0  0  0  0  0
   36.9522   31.8319   46.8618 H   0  0  0  0  0  0  0  0  0  0  0  0
   35.2216   30.9613   46.4545 H   0  0  0  0  0  0  0  0  0  0  0  0
   33.0777   29.6417   46.2627 H   0  0  0  0  0  0  0  0  0  0  0  0
   34.1930   27.4255   49.7235 H   0  0  0  0  0  0  0  0  0  0  0  0
   41.3788   32.5747   45.8122 H   0  0  0  0  0  0  0  0  0  0  0  0
   39.3443   33.3839   46.7383 H   0  0  0  0  0  0  0  0  0  0  0  0
   37.2954   31.8678   45.6161 H   0  0  0  0  0  0  0  0  0  0  0  0
   37.9912   33.2909   44.8163 H   0  0  0  0  0  0  0  0  0  0  0  0
   40.6719   31.1162   43.5965 H   0  0  0  0  0  0  0  0  0  0  0  0
   40.2106   32.8100   43.6284 H   0  0  0  0  0  0  0  0  0  0  0  0
   40.9201   30.6219   47.0073 H   0  0  0  0  0  0  0  0  0  0  0  0
  1  2  1  0
  2  3  1  0
  4  3  1  0
  5  4  1  0
  6  1  1  0
  6  5  1  0
  7  1  1  0
  7 12  1  0
  8  7  2  0
  9  8  1  0
  9 10  2  0
 10 11  1  0
 11 12  2  0
 13  6  1  0
 14 19  1  0
 14 15  1  0
 15 13  1  0
 16 15  1  0
 17 16  1  0
 18 17  1  0
 18 14  1  0
  2 20  1  0
  2 21  1  0
  3 22  1  0
  3 23  1  0
  4 24  1  0
  4 25  1  0
  5 26  1  0
  5 27  1  0
  6 28  1  6
  8 29  1  0
  9 30  1  0
 11 31  1  0
 14 32  1  6
 15 33  1  1
 16 34  1  0
 16 35  1  0
 18 36  1  0
 18 37  1  0
 19 38  1  0
M  ISO  8  20  13  21  13  22  13  23  13  24  13  25  13  26  13  27  13
M  ISO  8  28  13  29  14  30  14  31  14  32  13  33  13  34  13  35  13
M  ISO  3  36  13  37  13  38   3
M  END
>  <minimizedAffinity>  (1) 
-5.54990244

>  <minimizedRMSD>  (1) 
2.16353035

$$$$
