
     RDKit          3D

 42 45  0  0  0  0  0  0  0  0999 V2000
   38.4090   31.6590   46.9130 C   0  0  0  0  0  0  0  0  0  0  0  0
   39.3810   32.5310   46.6810 C   0  0  0  0  0  0  0  0  0  0  0  0
   39.7190   32.8230   45.4090 C   0  0  0  0  0  0  0  0  0  0  0  0
   39.0260   32.1880   44.4070 C   0  0  0  0  0  0  0  0  0  0  0  0
   37.8560   31.1430   45.3540 S   0  0  0  0  0  0  0  0  0  0  0  0
   40.9260   30.1770   43.1230 Cl  0  0  0  0  0  0  0  0  0  0  0  0
   39.9110   31.3630   42.3190 C   0  0  0  0  0  0  0  0  0  0  0  0
   39.0880   32.2280   42.9660 C   0  0  0  0  0  0  0  0  0  0  0  0
   38.2980   33.1480   42.3880 C   0  0  0  0  0  0  0  0  0  0  0  0
   38.3010   33.2530   40.9870 C   0  0  0  0  0  0  0  0  0  0  0  0
   39.1080   32.4110   40.2780 C   0  0  0  0  0  0  0  0  0  0  0  0
   39.1640   32.4800   38.5320 Cl  0  0  0  0  0  0  0  0  0  0  0  0
   39.9050   31.4760   40.9340 C   0  0  0  0  0  0  0  0  0  0  0  0
   37.7750   30.9980   50.5780 C   0  0  0  0  0  0  0  0  0  0  0  0
   38.3810   31.5210   49.4170 C   0  0  0  0  0  0  0  0  0  0  0  0
   37.8330   31.1530   48.1780 C   0  0  0  0  0  0  0  0  0  0  0  0
   36.7800   30.3360   48.1600 N   0  0  0  0  0  0  0  0  0  0  0  0
   36.2170   29.8490   49.2690 C   0  0  0  0  0  0  0  0  0  0  0  0
   36.7130   30.1780   50.4650 N   0  0  0  0  0  0  0  0  0  0  0  0
   35.0730   28.9670   49.1370 C   0  0  0  0  0  0  0  0  0  0  0  0
   35.1740   27.7800   49.5220 O   0  0  0  0  0  0  0  0  0  0  0  0
   33.7690   29.3790   48.5650 C   0  0  0  0  0  0  0  0  0  0  0  0
   34.0200   29.9980   47.2060 C   0  0  0  0  0  0  0  0  0  0  0  0
   34.1990   28.8210   46.2690 C   0  0  0  0  0  0  0  0  0  0  0  0
   33.7760   27.5800   47.0600 C   0  0  0  0  0  0  0  0  0  0  0  0
   32.9310   28.1710   48.1690 C   0  0  0  0  0  0  0  0  0  0  0  0
   39.9068   33.0118   47.5191 H   0  0  0  0  0  0  0  0  0  0  0  0
   40.5195   33.5425   45.1820 H   0  0  0  0  0  0  0  0  0  0  0  0
   37.6620   33.8055   42.9989 H   0  0  0  0  0  0  0  0  0  0  0  0
   37.6697   33.9942   40.4750 H   0  0  0  0  0  0  0  0  0  0  0  0
   40.5470   30.8091   40.3398 H   0  0  0  0  0  0  0  0  0  0  0  0
   38.1682   31.2588   51.5717 H   0  0  0  0  0  0  0  0  0  0  0  0
   39.2503   32.1920   49.4798 H   0  0  0  0  0  0  0  0  0  0  0  0
   33.2876   30.0233   49.3154 H   0  0  0  0  0  0  0  0  0  0  0  0
   33.1619   30.6125   46.8961 H   0  0  0  0  0  0  0  0  0  0  0  0
   34.8968   30.6622   47.2089 H   0  0  0  0  0  0  0  0  0  0  0  0
   35.2511   28.7361   45.9595 H   0  0  0  0  0  0  0  0  0  0  0  0
   33.5976   28.9395   45.3556 H   0  0  0  0  0  0  0  0  0  0  0  0
   33.1875   26.8919   46.4354 H   0  0  0  0  0  0  0  0  0  0  0  0
   34.6242   26.9827   47.4256 H   0  0  0  0  0  0  0  0  0  0  0  0
   31.9380   28.4713   47.8032 H   0  0  0  0  0  0  0  0  0  0  0  0
   32.7198   27.4766   48.9956 H   0  0  0  0  0  0  0  0  0  0  0  0
  1 16  1  0
  2  1  2  0
  3  2  1  0
  4  5  1  0
  4  3  2  0
  5  1  1  0
  7  8  2  0
  7  6  1  0
  8  4  1  0
  9  8  1  0
 10  9  2  0
 11 13  2  0
 11 10  1  0
 12 11  1  0
 13  7  1  0
 15 14  2  0
 16 15  1  0
 17 16  2  0
 17 18  1  0
 18 19  2  0
 19 14  1  0
 20 18  1  0
 20 21  2  0
 22 20  1  0
 23 22  1  0
 24 25  1  0
 24 23  1  0
 25 26  1  0
 26 22  1  0
  2 27  1  0
  3 28  1  0
  9 29  1  0
 10 30  1  0
 13 31  1  0
 14 32  1  0
 15 33  1  0
 22 34  1  0
 23 35  1  0
 23 36  1  0
 24 37  1  0
 24 38  1  0
 25 39  1  0
 25 40  1  0
 26 41  1  0
 26 42  1  0
M  ISO  8  27  14  28  14  29  14  30  14  31  14  32  14  33  14  34  13
M  ISO  8  35  13  36  13  37  13  38  13  39  13  40  13  41  13  42  13
M  END
>  <minimizedAffinity>  (1) 
-5.83176422

>  <minimizedRMSD>  (1) 
2.48435402

$$$$
