
     RDKit          3D

 33 35  0  0  0  0  0  0  0  0999 V2000
   37.6710   30.7160   46.6270 C   0  0  0  0  0  0  0  0  0  0  0  0
   37.9670   30.9760   47.9900 C   0  0  0  0  0  0  0  0  0  0  0  0
   36.9280   30.8750   48.9130 C   0  0  0  0  0  0  0  0  0  0  0  0
   35.6830   30.5310   48.4560 N   0  0  0  0  0  0  0  0  0  0  0  0
   35.4330   30.2910   47.1580 C   0  0  0  0  0  0  0  0  0  0  0  0
   36.4380   30.3870   46.2540 N   0  0  0  0  0  0  0  0  0  0  0  0
   38.7600   30.8230   45.6640 C   0  0  0  0  0  0  0  0  0  0  0  0
   40.0340   31.2610   45.8840 C   0  0  0  0  0  0  0  0  0  0  0  0
   40.7680   31.2090   44.6990 C   0  0  0  0  0  0  0  0  0  0  0  0
   39.8800   30.7240   43.7790 N   0  0  0  0  0  0  0  0  0  0  0  0
   38.7220   30.5090   44.3680 N   0  0  0  0  0  0  0  0  0  0  0  0
   40.2450   30.5080   42.3720 C   0  0  0  0  0  0  0  0  0  0  0  0
   39.0810   29.9220   41.6040 C   0  0  0  0  0  0  0  0  0  0  0  0
   39.2990   28.4250   41.8640 C   0  0  0  0  0  0  0  0  0  0  0  0
   40.7700   28.3190   41.4980 C   0  0  0  0  0  0  0  0  0  0  0  0
   41.3590   29.5130   42.2090 C   0  0  0  0  0  0  0  0  0  0  0  0
   37.2180   31.1440   50.3520 C   0  0  0  0  0  0  0  0  0  0  0  0
   36.7040   32.4060   50.6050 F   0  0  0  0  0  0  0  0  0  0  0  0
   36.5970   30.2500   51.1970 F   0  0  0  0  0  0  0  0  0  0  0  0
   38.5700   31.1800   50.6120 F   0  0  0  0  0  0  0  0  0  0  0  0
   38.9842   31.2486   48.3079 H   0  0  0  0  0  0  0  0  0  0  0  0
   34.4188   30.0182   46.8310 H   0  0  0  0  0  0  0  0  0  0  0  0
   40.4244   31.6045   46.8533 H   0  0  0  0  0  0  0  0  0  0  0  0
   41.8190   31.4927   44.5409 H   0  0  0  0  0  0  0  0  0  0  0  0
   40.5480   31.4971   41.9981 H   0  0  0  0  0  0  0  0  0  0  0  0
   39.1405   30.1608   40.5319 H   0  0  0  0  0  0  0  0  0  0  0  0
   38.0941   30.3009   41.9081 H   0  0  0  0  0  0  0  0  0  0  0  0
   39.1178   28.1605   42.9162 H   0  0  0  0  0  0  0  0  0  0  0  0
   38.6288   27.7510   41.3103 H   0  0  0  0  0  0  0  0  0  0  0  0
   41.2066   27.3791   41.8669 H   0  0  0  0  0  0  0  0  0  0  0  0
   40.9572   28.3124   40.4141 H   0  0  0  0  0  0  0  0  0  0  0  0
   41.7483   29.2145   43.1935 H   0  0  0  0  0  0  0  0  0  0  0  0
   42.1944   29.9430   41.6370 H   0  0  0  0  0  0  0  0  0  0  0  0
  1  2  2  0
  2  3  1  0
  3 17  1  0
  4  3  2  0
  5  4  1  0
  6  1  1  0
  6  5  2  0
  7  8  1  0
  7  1  1  0
  9  8  2  0
 10 11  1  0
 10  9  1  0
 11  7  2  0
 12 10  1  0
 13 14  1  0
 13 12  1  0
 15 14  1  0
 15 16  1  0
 16 12  1  0
 17 18  1  0
 17 20  1  0
 17 19  1  0
  2 21  1  0
  5 22  1  0
  8 23  1  0
  9 24  1  0
 12 25  1  0
 13 26  1  0
 13 27  1  0
 14 28  1  0
 14 29  1  0
 15 30  1  0
 15 31  1  0
 16 32  1  0
 16 33  1  0
M  ISO  8  21  14  22  14  23  14  24  14  25  13  26  13  27  13  28  13
M  ISO  5  29  13  30  13  31  13  32  13  33  13
M  END
>  <minimizedAffinity>  (1) 
-5.833395

>  <minimizedRMSD>  (1) 
1.18286777

$$$$
