
     RDKit          3D

 35 37  0  0  1  0  0  0  0  0999 V2000
   38.6010   30.9800   46.5980 C   0  0  1  0  0  0  0  0  0  0  0  0
   37.3890   30.0420   46.6420 C   0  0  2  0  0  0  0  0  0  0  0  0
   36.6580   30.6750   45.4790 C   0  0  0  0  0  0  0  0  0  0  0  0
   37.6130   30.8470   44.4940 O   0  0  0  0  0  0  0  0  0  0  0  0
   38.8430   30.9390   45.0780 C   0  0  0  0  0  0  0  0  0  0  0  0
   36.6740   30.1130   47.9190 C   0  0  0  0  0  0  0  0  0  0  0  0
   37.3430   29.8380   49.1190 C   0  0  0  0  0  0  0  0  0  0  0  0
   36.5990   29.9010   50.3000 C   0  0  0  0  0  0  0  0  0  0  0  0
   35.2700   30.2250   50.2080 N   0  0  0  0  0  0  0  0  0  0  0  0
   34.6480   30.4850   49.0310 C   0  0  0  0  0  0  0  0  0  0  0  0
   35.3670   30.4270   47.8860 N   0  0  0  0  0  0  0  0  0  0  0  0
   38.2940   32.2620   46.8980 O   0  0  0  0  0  0  0  0  0  0  0  0
   39.1050   32.8550   47.8540 C   0  0  0  0  0  0  0  0  0  0  0  0
   38.3810   33.3690   49.0570 C   0  0  0  0  0  0  0  0  0  0  0  0
   39.4380   34.2260   49.7260 C   0  0  0  0  0  0  0  0  0  0  0  0
   40.3780   34.6530   48.6460 C   0  0  0  0  0  0  0  0  0  0  0  0
   39.8180   34.0760   47.3420 C   0  0  0  0  0  0  0  0  0  0  0  0
   39.4070   30.6898   47.2880 H   0  0  0  0  0  0  0  0  0  0  0  0
   37.5704   28.9596   46.5679 H   0  0  0  0  0  0  0  0  0  0  0  0
   35.8540   30.0136   45.1240 H   0  0  0  0  0  0  0  0  0  0  0  0
   36.1866   31.6277   45.7622 H   0  0  0  0  0  0  0  0  0  0  0  0
   39.4558   30.0646   44.8139 H   0  0  0  0  0  0  0  0  0  0  0  0
   39.3808   31.8354   44.7357 H   0  0  0  0  0  0  0  0  0  0  0  0
   38.4128   29.5823   49.1309 H   0  0  0  0  0  0  0  0  0  0  0  0
   37.0658   29.6967   51.2749 H   0  0  0  0  0  0  0  0  0  0  0  0
   33.5779   30.7386   49.0076 H   0  0  0  0  0  0  0  0  0  0  0  0
   39.7818   32.0266   48.1103 H   0  0  0  0  0  0  0  0  0  0  0  0
   37.5050   33.9688   48.7691 H   0  0  0  0  0  0  0  0  0  0  0  0
   37.9821   32.5745   49.7048 H   0  0  0  0  0  0  0  0  0  0  0  0
   38.9736   35.1053   50.1962 H   0  0  0  0  0  0  0  0  0  0  0  0
   39.9633   33.6686   50.5155 H   0  0  0  0  0  0  0  0  0  0  0  0
   40.4216   35.7507   48.5899 H   0  0  0  0  0  0  0  0  0  0  0  0
   41.3999   34.2940   48.8379 H   0  0  0  0  0  0  0  0  0  0  0  0
   40.6216   33.8101   46.6395 H   0  0  0  0  0  0  0  0  0  0  0  0
   39.1803   34.7701   46.7750 H   0  0  0  0  0  0  0  0  0  0  0  0
  1  2  1  0
  1 12  1  0
  2  6  1  0
  3  2  1  0
  4  5  1  0
  4  3  1  0
  5  1  1  0
  6  7  2  0
  7  8  1  0
  9  8  2  0
 10  9  1  0
 11  6  1  0
 11 10  2  0
 12 13  1  0
 13 14  1  0
 14 15  1  0
 16 15  1  0
 17 13  1  0
 17 16  1  0
  1 18  1  1
  2 19  1  6
  3 20  1  0
  3 21  1  0
  5 22  1  0
  5 23  1  0
  7 24  1  0
  8 25  1  0
 10 26  1  0
 13 27  1  0
 14 28  1  0
 14 29  1  0
 15 30  1  0
 15 31  1  0
 16 32  1  0
 16 33  1  0
 17 34  1  0
 17 35  1  0
M  ISO  8  18  13  19  13  20  13  21  13  22  13  23  13  24  14  25  14
M  ISO  8  26  14  27  13  28  13  29  13  30  13  31  13  32  13  33  13
M  ISO  2  34  13  35  13
M  END
>  <minimizedAffinity>  (1) 
-3.97873878

>  <minimizedRMSD>  (1) 
1.89419401

$$$$
