
     RDKit          3D

 33 35  0  0  0  0  0  0  0  0999 V2000
   38.4390   32.2260   48.7280 C   0  0  0  0  0  0  0  0  0  0  0  0
   38.7280   33.3170   49.5390 C   0  0  0  0  0  0  0  0  0  0  0  0
   39.5640   34.3390   49.0810 C   0  0  0  0  0  0  0  0  0  0  0  0
   40.0780   34.2140   47.8070 C   0  0  0  0  0  0  0  0  0  0  0  0
   39.8020   33.1420   46.9940 C   0  0  0  0  0  0  0  0  0  0  0  0
   38.9680   32.1500   47.4880 C   0  0  0  0  0  0  0  0  0  0  0  0
   37.0290   29.2870   50.6540 C   0  0  0  0  0  0  0  0  0  0  0  0
   37.9980   30.1950   50.1480 C   0  0  0  0  0  0  0  0  0  0  0  0
   37.5530   31.2260   49.3070 C   0  0  0  0  0  0  0  0  0  0  0  0
   36.2410   31.2870   49.0370 N   0  0  0  0  0  0  0  0  0  0  0  0
   35.3380   30.4050   49.5350 C   0  0  0  0  0  0  0  0  0  0  0  0
   35.7420   29.4190   50.3360 N   0  0  0  0  0  0  0  0  0  0  0  0
   38.6770   31.0100   46.5880 C   0  0  0  0  0  0  0  0  0  0  0  0
   39.7770   30.8120   45.5330 C   0  0  0  0  0  0  0  0  0  0  0  0
   39.1270   29.7570   44.6720 C   0  0  0  0  0  0  0  0  0  0  0  0
   37.6970   30.2570   44.5360 C   0  0  0  0  0  0  0  0  0  0  0  0
   37.5460   31.3690   45.5890 C   0  0  0  0  0  0  0  0  0  0  0  0
   38.2956   33.3765   50.5487 H   0  0  0  0  0  0  0  0  0  0  0  0
   39.8026   35.2084   49.7113 H   0  0  0  0  0  0  0  0  0  0  0  0
   40.7376   35.0074   47.4256 H   0  0  0  0  0  0  0  0  0  0  0  0
   40.2290   33.0724   45.9827 H   0  0  0  0  0  0  0  0  0  0  0  0
   37.3449   28.4666   51.3152 H   0  0  0  0  0  0  0  0  0  0  0  0
   39.0621   30.0928   50.4072 H   0  0  0  0  0  0  0  0  0  0  0  0
   34.2730   30.5036   49.2778 H   0  0  0  0  0  0  0  0  0  0  0  0
   38.5016   30.1739   47.2810 H   0  0  0  0  0  0  0  0  0  0  0  0
   39.9727   31.7358   44.9688 H   0  0  0  0  0  0  0  0  0  0  0  0
   40.7627   30.5378   45.9371 H   0  0  0  0  0  0  0  0  0  0  0  0
   39.6177   29.6914   43.6897 H   0  0  0  0  0  0  0  0  0  0  0  0
   39.1931   28.7466   45.1018 H   0  0  0  0  0  0  0  0  0  0  0  0
   37.5248   30.6582   43.5264 H   0  0  0  0  0  0  0  0  0  0  0  0
   36.9667   29.4489   44.6896 H   0  0  0  0  0  0  0  0  0  0  0  0
   37.7022   32.3641   45.1469 H   0  0  0  0  0  0  0  0  0  0  0  0
   36.5463   31.4200   46.0451 H   0  0  0  0  0  0  0  0  0  0  0  0
  1  9  1  0
  1  2  2  0
  3  2  1  0
  4  3  2  0
  5  6  2  0
  5  4  1  0
  6  1  1  0
  8  7  2  0
  9  8  1  0
 10  9  2  0
 10 11  1  0
 11 12  2  0
 12  7  1  0
 13  6  1  0
 14 13  1  0
 15 14  1  0
 16 15  1  0
 16 17  1  0
 17 13  1  0
  2 18  1  0
  3 19  1  0
  4 20  1  0
  5 21  1  0
  7 22  1  0
  8 23  1  0
 11 24  1  0
 13 25  1  0
 14 26  1  0
 14 27  1  0
 15 28  1  0
 15 29  1  0
 16 30  1  0
 16 31  1  0
 17 32  1  0
 17 33  1  0
M  ISO  8  18  14  19  14  20  14  21  14  22  14  23  14  24  14  25  13
M  ISO  8  26  13  27  13  28  13  29  13  30  13  31  13  32  13  33  13
M  END
>  <minimizedAffinity>  (1) 
-6.18330622

>  <minimizedRMSD>  (1) 
1.95271635

$$$$
