
     RDKit          3D

 33 35  0  0  0  0  0  0  0  0999 V2000
   37.3050   31.3860   49.3180 C   0  0  0  0  0  0  0  0  0  0  0  0
   37.5440   32.6650   49.8230 C   0  0  0  0  0  0  0  0  0  0  0  0
   38.4460   33.4390   49.0940 C   0  0  0  0  0  0  0  0  0  0  0  0
   39.0280   32.9330   47.9730 N   0  0  0  0  0  0  0  0  0  0  0  0
   38.7550   31.6720   47.5270 C   0  0  0  0  0  0  0  0  0  0  0  0
   37.8670   30.8760   48.2230 N   0  0  0  0  0  0  0  0  0  0  0  0
   36.3050   30.5430   50.0490 C   0  0  0  0  0  0  0  0  0  0  0  0
   36.2450   29.1060   49.9190 C   0  0  0  0  0  0  0  0  0  0  0  0
   36.9250   29.6710   51.1450 C   0  0  0  0  0  0  0  0  0  0  0  0
   39.3430   31.1170   46.3190 C   0  0  0  0  0  0  0  0  0  0  0  0
   38.3410   30.5010   45.3750 C   0  0  0  0  0  0  0  0  0  0  0  0
   39.1540   29.7570   44.3120 C   0  0  0  0  0  0  0  0  0  0  0  0
   38.3360   29.8010   43.0410 C   0  0  0  0  0  0  0  0  0  0  0  0
   37.2010   30.7730   43.3120 C   0  0  0  0  0  0  0  0  0  0  0  0
   37.5990   31.5240   44.5660 C   0  0  0  0  0  0  0  0  0  0  0  0
   37.0538   33.0373   50.7347 H   0  0  0  0  0  0  0  0  0  0  0  0
   38.6873   34.4597   49.4255 H   0  0  0  0  0  0  0  0  0  0  0  0
   35.5198   31.3062   49.9441 H   0  0  0  0  0  0  0  0  0  0  0  0
   35.2785   28.5910   50.0226 H   0  0  0  0  0  0  0  0  0  0  0  0
   36.5499   28.3968   49.1353 H   0  0  0  0  0  0  0  0  0  0  0  0
   38.0174   29.6074   51.2577 H   0  0  0  0  0  0  0  0  0  0  0  0
   36.8191   29.5657   52.2348 H   0  0  0  0  0  0  0  0  0  0  0  0
   39.8677   31.9245   45.7874 H   0  0  0  0  0  0  0  0  0  0  0  0
   40.0188   30.3092   46.6366 H   0  0  0  0  0  0  0  0  0  0  0  0
   37.6446   29.9005   45.9786 H   0  0  0  0  0  0  0  0  0  0  0  0
   40.1234   30.2534   44.1579 H   0  0  0  0  0  0  0  0  0  0  0  0
   39.3584   28.7207   44.6191 H   0  0  0  0  0  0  0  0  0  0  0  0
   37.9376   28.8027   42.8073 H   0  0  0  0  0  0  0  0  0  0  0  0
   38.9430   30.1177   42.1800 H   0  0  0  0  0  0  0  0  0  0  0  0
   37.0821   31.4693   42.4688 H   0  0  0  0  0  0  0  0  0  0  0  0
   36.2401   30.2523   43.4369 H   0  0  0  0  0  0  0  0  0  0  0  0
   38.2488   32.3774   44.3222 H   0  0  0  0  0  0  0  0  0  0  0  0
   36.7357   31.9456   45.1016 H   0  0  0  0  0  0  0  0  0  0  0  0
  1  2  2  0
  1  7  1  0
  3  2  1  0
  4  3  2  0
  5  4  1  0
  5  6  2  0
  6  1  1  0
  7  9  1  0
  8  7  1  0
  8  9  1  0
 10  5  1  0
 11 10  1  0
 12 11  1  0
 13 14  1  0
 13 12  1  0
 14 15  1  0
 15 11  1  0
  2 16  1  0
  3 17  1  0
  7 18  1  0
  8 19  1  0
  8 20  1  0
  9 21  1  0
  9 22  1  0
 10 23  1  0
 10 24  1  0
 11 25  1  0
 12 26  1  0
 12 27  1  0
 13 28  1  0
 13 29  1  0
 14 30  1  0
 14 31  1  0
 15 32  1  0
 15 33  1  0
M  ISO  8  16  14  17  14  18  13  19  13  20  13  21  13  22  13  23   8
M  ISO  8  24   8  25  13  26  13  27  13  28  13  29  13  30  13  31  13
M  ISO  2  32  13  33  13
M  END
>  <minimizedAffinity>  (1) 
-5.1190896

>  <minimizedRMSD>  (1) 
1.27604163

$$$$
