
     RDKit          3D

 32 34  0  0  0  0  0  0  0  0999 V2000
   35.9160   29.3440   49.6810 C   0  0  0  0  0  0  0  0  0  0  0  0
   36.1120   30.3700   48.7560 C   0  0  0  0  0  0  0  0  0  0  0  0
   35.3760   30.3170   47.5800 C   0  0  0  0  0  0  0  0  0  0  0  0
   34.5000   29.2770   47.3770 N   0  0  0  0  0  0  0  0  0  0  0  0
   34.3470   28.3100   48.3010 C   0  0  0  0  0  0  0  0  0  0  0  0
   35.0570   28.3550   49.4420 N   0  0  0  0  0  0  0  0  0  0  0  0
   33.4160   27.2210   48.0620 C   0  0  0  0  0  0  0  0  0  0  0  0
   33.8390   26.0710   47.4400 C   0  0  0  0  0  0  0  0  0  0  0  0
   33.0030   25.0030   47.1850 C   0  0  0  0  0  0  0  0  0  0  0  0
   31.6980   25.1750   47.6080 C   0  0  0  0  0  0  0  0  0  0  0  0
   31.2330   26.3210   48.2410 C   0  0  0  0  0  0  0  0  0  0  0  0
   32.1390   27.3100   48.4410 N   0  0  0  0  0  0  0  0  0  0  0  0
   37.0190   31.5010   48.9030 C   0  0  0  0  0  0  0  0  0  0  0  0
   37.8440   31.8290   47.6840 C   0  0  0  0  0  0  0  0  0  0  0  0
   38.9080   32.7690   48.2550 C   0  0  0  0  0  0  0  0  0  0  0  0
   38.8250   32.6540   49.7560 C   0  0  0  0  0  0  0  0  0  0  0  0
   38.1180   31.3090   49.9280 C   0  0  0  0  0  0  0  0  0  0  0  0
   36.4812   29.3523   50.6246 H   0  0  0  0  0  0  0  0  0  0  0  0
   35.4928   31.1006   46.8169 H   0  0  0  0  0  0  0  0  0  0  0  0
   34.8923   25.9984   47.1312 H   0  0  0  0  0  0  0  0  0  0  0  0
   33.3480   24.0864   46.6843 H   0  0  0  0  0  0  0  0  0  0  0  0
   30.9853   24.3556   47.4329 H   0  0  0  0  0  0  0  0  0  0  0  0
   30.1859   26.4208   48.5628 H   0  0  0  0  0  0  0  0  0  0  0  0
   36.2840   32.2760   49.1661 H   0  0  0  0  0  0  0  0  0  0  0  0
   37.2380   32.3324   46.9163 H   0  0  0  0  0  0  0  0  0  0  0  0
   38.2614   30.9433   47.1827 H   0  0  0  0  0  0  0  0  0  0  0  0
   39.9068   32.4679   47.9061 H   0  0  0  0  0  0  0  0  0  0  0  0
   38.7386   33.8052   47.9270 H   0  0  0  0  0  0  0  0  0  0  0  0
   39.8256   32.6418   50.2127 H   0  0  0  0  0  0  0  0  0  0  0  0
   38.3062   33.4950   50.2392 H   0  0  0  0  0  0  0  0  0  0  0  0
   37.7185   31.1776   50.9444 H   0  0  0  0  0  0  0  0  0  0  0  0
   38.7476   30.4173   49.7923 H   0  0  0  0  0  0  0  0  0  0  0  0
  2 13  1  0
  2  1  2  0
  3  2  1  0
  4  3  2  0
  4  5  1  0
  5  6  2  0
  6  1  1  0
  7  5  1  0
  7 12  1  0
  8  7  2  0
  9  8  1  0
  9 10  2  0
 10 11  1  0
 11 12  2  0
 13 17  1  0
 14 15  1  0
 14 13  1  0
 15 16  1  0
 16 17  1  0
  1 18  1  0
  3 19  1  0
  8 20  1  0
  9 21  1  0
 10 22  1  0
 11 23  1  0
 13 24  1  0
 14 25  1  0
 14 26  1  0
 15 27  1  0
 15 28  1  0
 16 29  1  0
 16 30  1  0
 17 31  1  0
 17 32  1  0
M  ISO  8  18  14  19  14  20  14  21  14  22  14  23  14  24  13  25  13
M  ISO  7  26  13  27  13  28  13  29  13  30  13  31  13  32  13
M  END
>  <minimizedAffinity>  (1) 
-5.40359592

>  <minimizedRMSD>  (1) 
4.14343834

$$$$
