
     RDKit          3D

 26 27  0  0  0  0  0  0  0  0999 V2000
   36.9000   31.1830   49.8560 C   0  0  0  0  0  0  0  0  0  0  0  0
   35.6000   30.8020   49.5130 C   0  0  0  0  0  0  0  0  0  0  0  0
   34.9850   29.7930   50.2620 C   0  0  0  0  0  0  0  0  0  0  0  0
   35.6990   29.2460   51.2810 N   0  0  0  0  0  0  0  0  0  0  0  0
   36.9470   29.6310   51.5880 C   0  0  0  0  0  0  0  0  0  0  0  0
   37.5500   30.5930   50.8840 N   0  0  0  0  0  0  0  0  0  0  0  0
   37.5410   32.2580   49.0500 C   0  0  0  0  0  0  0  0  0  0  0  0
   38.7100   31.7290   48.2170 C   0  0  0  0  0  0  0  0  0  0  0  0
   38.2160   30.6540   47.2730 C   0  0  0  0  0  0  0  0  0  0  0  0
   38.6710   31.0300   45.8960 C   0  0  0  0  0  0  0  0  0  0  0  0
   39.8080   31.9920   46.1750 C   0  0  0  0  0  0  0  0  0  0  0  0
   39.1850   32.8450   47.2870 C   0  0  0  0  0  0  0  0  0  0  0  0
   35.0737   31.2831   48.6755 H   0  0  0  0  0  0  0  0  0  0  0  0
   33.9630   29.4554   50.0350 H   0  0  0  0  0  0  0  0  0  0  0  0
   37.4769   29.1517   52.4244 H   0  0  0  0  0  0  0  0  0  0  0  0
   36.7895   32.6906   48.3731 H   0  0  0  0  0  0  0  0  0  0  0  0
   37.9335   33.0155   49.7444 H   0  0  0  0  0  0  0  0  0  0  0  0
   39.4883   31.3640   48.9034 H   0  0  0  0  0  0  0  0  0  0  0  0
   38.6398   29.6794   47.5569 H   0  0  0  0  0  0  0  0  0  0  0  0
   37.1197   30.5728   47.3133 H   0  0  0  0  0  0  0  0  0  0  0  0
   37.8647   31.5212   45.3316 H   0  0  0  0  0  0  0  0  0  0  0  0
   38.9687   30.1668   45.2826 H   0  0  0  0  0  0  0  0  0  0  0  0
   40.7091   31.4659   46.5232 H   0  0  0  0  0  0  0  0  0  0  0  0
   40.1527   32.5611   45.2990 H   0  0  0  0  0  0  0  0  0  0  0  0
   39.9280   33.4957   47.7714 H   0  0  0  0  0  0  0  0  0  0  0  0
   38.4050   33.5481   46.9594 H   0  0  0  0  0  0  0  0  0  0  0  0
  1  6  1  0
  2  1  2  0
  2  3  1  0
  3  4  2  0
  4  5  1  0
  6  5  2  0
  7  1  1  0
  8  7  1  0
  9  8  1  0
 10 11  1  0
 10  9  1  0
 11 12  1  0
 12  8  1  0
  2 13  1  0
  3 14  1  0
  5 15  1  0
  7 16  1  0
  7 17  1  0
  8 18  1  0
  9 19  1  0
  9 20  1  0
 10 21  1  0
 10 22  1  0
 11 23  1  0
 11 24  1  0
 12 25  1  0
 12 26  1  0
M  ISO  8  13  14  14  14  15  14  16   8  17   8  18  13  19  13  20  13
M  ISO  6  21  13  22  13  23  13  24  13  25  13  26  13
M  END
>  <minimizedAffinity>  (1) 
-4.56175852

>  <minimizedRMSD>  (1) 
4.52368021

$$$$
