
     RDKit          3D

 42 44  0  0  0  0  0  0  0  0999 V2000
   36.5590   30.7070   44.8490 C   0  0  0  0  0  0  0  0  0  0  0  0
   36.1140   30.4360   46.1100 C   0  0  0  0  0  0  0  0  0  0  0  0
   34.8480   29.8890   46.2870 C   0  0  0  0  0  0  0  0  0  0  0  0
   34.0010   29.6020   45.2330 C   0  0  0  0  0  0  0  0  0  0  0  0
   34.4290   29.8700   43.9440 C   0  0  0  0  0  0  0  0  0  0  0  0
   35.6790   30.4060   43.8050 C   0  0  0  0  0  0  0  0  0  0  0  0
   38.6000   32.0360   48.2920 C   0  0  0  0  0  0  0  0  0  0  0  0
   37.8040   31.7330   47.1930 C   0  0  0  0  0  0  0  0  0  0  0  0
   36.9010   30.7240   47.2580 C   0  0  0  0  0  0  0  0  0  0  0  0
   36.8190   30.0450   48.4400 N   0  0  0  0  0  0  0  0  0  0  0  0
   37.5750   30.3310   49.4980 C   0  0  0  0  0  0  0  0  0  0  0  0
   38.4650   31.3260   49.4160 N   0  0  0  0  0  0  0  0  0  0  0  0
   37.3230   29.5530   50.7400 C   0  0  0  0  0  0  0  0  0  0  0  0
   37.5050   30.3250   51.8790 F   0  0  0  0  0  0  0  0  0  0  0  0
   35.9140   29.2280   50.7960 F   0  0  0  0  0  0  0  0  0  0  0  0
   37.9160   28.3870   50.8480 F   0  0  0  0  0  0  0  0  0  0  0  0
   38.1200   31.3500   44.5040 S   0  0  0  0  0  0  0  0  0  0  0  0
   38.1830   32.7950   44.8480 O   0  0  0  0  0  0  0  0  0  0  0  0
   37.9710   31.5600   43.0230 O   0  0  0  0  0  0  0  0  0  0  0  0
   39.5600   30.5480   44.1570 C   0  0  0  0  0  0  0  0  0  0  0  0
   39.8080   29.4840   43.1900 C   0  0  0  0  0  0  0  0  0  0  0  0
   39.0090   28.2610   43.6120 C   0  0  0  0  0  0  0  0  0  0  0  0
   37.9480   28.1610   42.5660 C   0  0  0  0  0  0  0  0  0  0  0  0
   38.7220   28.4980   41.2860 C   0  0  0  0  0  0  0  0  0  0  0  0
   39.4580   29.7510   41.7760 C   0  0  0  0  0  0  0  0  0  0  0  0
   34.5056   29.6754   47.3103 H   0  0  0  0  0  0  0  0  0  0  0  0
   33.0063   29.1691   45.4149 H   0  0  0  0  0  0  0  0  0  0  0  0
   33.7924   29.6612   43.0715 H   0  0  0  0  0  0  0  0  0  0  0  0
   36.0226   30.6192   42.7820 H   0  0  0  0  0  0  0  0  0  0  0  0
   39.3345   32.8530   48.2367 H   0  0  0  0  0  0  0  0  0  0  0  0
   37.9076   32.3153   46.2655 H   0  0  0  0  0  0  0  0  0  0  0  0
   40.2561   31.3489   43.8670 H   0  0  0  0  0  0  0  0  0  0  0  0
   39.6263   29.9437   45.0737 H   0  0  0  0  0  0  0  0  0  0  0  0
   40.9009   29.3605   43.2070 H   0  0  0  0  0  0  0  0  0  0  0  0
   39.6414   27.3609   43.6182 H   0  0  0  0  0  0  0  0  0  0  0  0
   38.6009   28.3457   44.6300 H   0  0  0  0  0  0  0  0  0  0  0  0
   37.5263   27.1460   42.5215 H   0  0  0  0  0  0  0  0  0  0  0  0
   37.0860   28.8199   42.7471 H   0  0  0  0  0  0  0  0  0  0  0  0
   38.0502   28.7171   40.4430 H   0  0  0  0  0  0  0  0  0  0  0  0
   39.3632   27.6945   40.8946 H   0  0  0  0  0  0  0  0  0  0  0  0
   40.3678   29.9185   41.1809 H   0  0  0  0  0  0  0  0  0  0  0  0
   38.8356   30.6524   41.6754 H   0  0  0  0  0  0  0  0  0  0  0  0
  1  2  1  0
  2  3  2  0
  2  9  1  0
  4  3  1  0
  5  4  2  0
  6  5  1  0
  6  1  2  0
  7 12  2  0
  8  9  2  0
  8  7  1  0
  9 10  1  0
 10 11  2  0
 11 13  1  0
 12 11  1  0
 13 15  1  0
 13 16  1  0
 13 14  1  0
 17 18  2  0
 17  1  1  0
 19 17  2  0
 20 17  1  0
 21 22  1  0
 21 20  1  0
 23 22  1  0
 24 25  1  0
 24 23  1  0
 25 21  1  0
  3 26  1  0
  4 27  1  0
  5 28  1  0
  6 29  1  0
  7 30  1  0
  8 31  1  0
 20 32  1  0
 20 33  1  0
 21 34  1  0
 22 35  1  0
 22 36  1  0
 23 37  1  0
 23 38  1  0
 24 39  1  0
 24 40  1  0
 25 41  1  0
 25 42  1  0
M  ISO  8  26  14  27  14  28  14  29  14  30  14  31  14  32   8  33   8
M  ISO  8  34  13  35  13  36  13  37  13  38  13  39  13  40  13  41  13
M  ISO  1  42  13
M  END
>  <minimizedAffinity>  (1) 
-5.6011591

>  <minimizedRMSD>  (1) 
2.06909895

$$$$
