
     RDKit          3D

 35 37  0  0  0  0  0  0  0  0999 V2000
   38.4110   32.2150   48.6480 C   0  0  0  0  0  0  0  0  0  0  0  0
   38.5970   33.2150   49.5800 C   0  0  0  0  0  0  0  0  0  0  0  0
   39.4330   34.2980   49.2750 C   0  0  0  0  0  0  0  0  0  0  0  0
   40.0640   34.3530   48.0380 C   0  0  0  0  0  0  0  0  0  0  0  0
   39.8730   33.3440   47.1040 C   0  0  0  0  0  0  0  0  0  0  0  0
   39.0480   32.2890   47.4240 C   0  0  0  0  0  0  0  0  0  0  0  0
   36.9270   29.0900   50.1650 C   0  0  0  0  0  0  0  0  0  0  0  0
   37.8900   30.0740   49.8810 C   0  0  0  0  0  0  0  0  0  0  0  0
   37.5250   31.1240   49.0360 C   0  0  0  0  0  0  0  0  0  0  0  0
   36.2640   31.1140   48.5520 N   0  0  0  0  0  0  0  0  0  0  0  0
   35.3620   30.1550   48.8440 C   0  0  0  0  0  0  0  0  0  0  0  0
   35.6980   29.1380   49.6540 N   0  0  0  0  0  0  0  0  0  0  0  0
   34.0990   30.3240   48.2290 N   0  0  0  0  0  0  0  0  0  0  0  0
   38.8520   31.2100   46.4230 C   0  0  0  0  0  0  0  0  0  0  0  0
   37.8690   31.7210   45.4170 C   0  0  0  0  0  0  0  0  0  0  0  0
   38.6710   32.2800   44.2620 C   0  0  0  0  0  0  0  0  0  0  0  0
   40.0190   31.6150   44.3280 C   0  0  0  0  0  0  0  0  0  0  0  0
   40.1580   30.9800   45.6730 C   0  0  0  0  0  0  0  0  0  0  0  0
   38.0925   33.1628   50.5561 H   0  0  0  0  0  0  0  0  0  0  0  0
   39.5888   35.1004   50.0111 H   0  0  0  0  0  0  0  0  0  0  0  0
   40.7198   35.2026   47.7972 H   0  0  0  0  0  0  0  0  0  0  0  0
   40.3723   33.3865   46.1248 H   0  0  0  0  0  0  0  0  0  0  0  0
   37.1966   28.2555   50.8291 H   0  0  0  0  0  0  0  0  0  0  0  0
   38.9007   30.0185   50.3115 H   0  0  0  0  0  0  0  0  0  0  0  0
   33.3489   29.6382   48.3962 H   0  0  0  0  0  0  0  0  0  0  0  0
   33.9297   31.1328   47.6141 H   0  0  0  0  0  0  0  0  0  0  0  0
   38.5172   30.2860   46.9170 H   0  0  0  0  0  0  0  0  0  0  0  0
   37.2244   30.9009   45.0678 H   0  0  0  0  0  0  0  0  0  0  0  0
   37.2218   32.4940   45.8570 H   0  0  0  0  0  0  0  0  0  0  0  0
   38.7779   33.3700   44.3639 H   0  0  0  0  0  0  0  0  0  0  0  0
   38.1754   32.0878   43.2990 H   0  0  0  0  0  0  0  0  0  0  0  0
   40.0949   30.8475   43.5437 H   0  0  0  0  0  0  0  0  0  0  0  0
   40.8173   32.3555   44.1719 H   0  0  0  0  0  0  0  0  0  0  0  0
   40.3429   29.9013   45.5621 H   0  0  0  0  0  0  0  0  0  0  0  0
   41.0040   31.4175   46.2233 H   0  0  0  0  0  0  0  0  0  0  0  0
  1  9  1  0
  1  2  2  0
  3  2  1  0
  4  3  2  0
  5  6  2  0
  5  4  1  0
  6  1  1  0
  8  7  2  0
  9  8  1  0
 10 11  1  0
 10  9  2  0
 11 12  2  0
 12  7  1  0
 13 11  1  0
 14  6  1  0
 15 14  1  0
 16 17  1  0
 16 15  1  0
 17 18  1  0
 18 14  1  0
  2 19  1  0
  3 20  1  0
  4 21  1  0
  5 22  1  0
  7 23  1  0
  8 24  1  0
 13 25  1  0
 13 26  1  0
 14 27  1  0
 15 28  1  0
 15 29  1  0
 16 30  1  0
 16 31  1  0
 17 32  1  0
 17 33  1  0
 18 34  1  0
 18 35  1  0
M  ISO  8  19  14  20  14  21  14  22  14  23  14  24  14  27  13  28  13
M  ISO  7  29  13  30  13  31  13  32  13  33  13  34  13  35  13
M  END
>  <minimizedAffinity>  (1) 
-6.64314651

>  <minimizedRMSD>  (1) 
2.2015841

$$$$
