
     RDKit          3D

 45 48  0  0  1  0  0  0  0  0999 V2000
   39.5900   33.0450   44.5860 C   0  0  0  0  0  0  0  0  0  0  0  0
   40.4600   32.0400   44.1810 C   0  0  0  0  0  0  0  0  0  0  0  0
   40.5350   30.9000   44.9530 C   0  0  0  0  0  0  0  0  0  0  0  0
   39.7540   30.8280   46.0640 N   0  0  0  0  0  0  0  0  0  0  0  0
   38.9100   31.8290   46.4370 C   0  0  0  0  0  0  0  0  0  0  0  0
   38.8310   32.9280   45.7000 N   0  0  0  0  0  0  0  0  0  0  0  0
   38.1180   31.6700   47.6320 N   0  0  0  0  0  0  0  0  0  0  0  0
   38.0010   32.7590   48.5630 C   0  0  0  0  0  0  0  0  0  0  0  0
   37.8120   32.2970   49.9890 C   0  0  0  0  0  0  0  0  0  0  0  0
   38.3350   30.8760   50.0920 C   0  0  0  0  0  0  0  0  0  0  0  0
   37.3460   30.0400   49.3150 C   0  0  0  0  0  0  0  0  0  0  0  0
   37.4530   30.3860   47.8710 C   0  0  1  0  0  0  0  0  0  0  0  0
   36.1630   30.3060   47.1560 C   0  0  0  0  0  0  0  0  0  0  0  0
   34.8870   30.2240   47.7170 C   0  0  0  0  0  0  0  0  0  0  0  0
   33.8260   30.1560   46.8850 C   0  0  0  0  0  0  0  0  0  0  0  0
   34.0630   30.1700   45.4580 C   0  0  0  0  0  0  0  0  0  0  0  0
   35.9550   30.2940   45.4460 S   0  0  0  0  0  0  0  0  0  0  0  0
   33.3840   30.1250   44.2080 C   0  0  0  0  0  0  0  0  0  0  0  0
   33.9820   31.1120   43.2380 C   0  0  0  0  0  0  0  0  0  0  0  0
   32.9770   31.0790   42.1130 C   0  0  0  0  0  0  0  0  0  0  0  0
   31.6450   30.9780   42.8240 C   0  0  0  0  0  0  0  0  0  0  0  0
   31.9310   30.5470   44.2480 C   0  0  0  0  0  0  0  0  0  0  0  0
   39.5162   33.9623   43.9834 H   0  0  0  0  0  0  0  0  0  0  0  0
   41.0701   32.1505   43.2724 H   0  0  0  0  0  0  0  0  0  0  0  0
   41.2066   30.0733   44.6784 H   0  0  0  0  0  0  0  0  0  0  0  0
   38.9166   33.3662   48.5094 H   0  0  0  0  0  0  0  0  0  0  0  0
   37.1084   33.3377   48.2829 H   0  0  0  0  0  0  0  0  0  0  0  0
   38.3730   32.9522   50.6716 H   0  0  0  0  0  0  0  0  0  0  0  0
   36.7482   32.3349   50.2663 H   0  0  0  0  0  0  0  0  0  0  0  0
   39.3387   30.8000   49.6483 H   0  0  0  0  0  0  0  0  0  0  0  0
   38.4273   30.5437   51.1365 H   0  0  0  0  0  0  0  0  0  0  0  0
   37.5724   28.9729   49.4569 H   0  0  0  0  0  0  0  0  0  0  0  0
   36.3253   30.2415   49.6723 H   0  0  0  0  0  0  0  0  0  0  0  0
   38.1023   29.6072   47.4445 H   0  0  0  0  0  0  0  0  0  0  0  0
   34.7498   30.2150   48.8084 H   0  0  0  0  0  0  0  0  0  0  0  0
   32.8029   30.0913   47.2838 H   0  0  0  0  0  0  0  0  0  0  0  0
   33.4785   29.0671   43.9216 H   0  0  0  0  0  0  0  0  0  0  0  0
   34.0555   32.1161   43.6812 H   0  0  0  0  0  0  0  0  0  0  0  0
   35.0089   30.8684   42.9279 H   0  0  0  0  0  0  0  0  0  0  0  0
   33.1426   30.2060   41.4647 H   0  0  0  0  0  0  0  0  0  0  0  0
   33.0437   31.9588   41.4562 H   0  0  0  0  0  0  0  0  0  0  0  0
   31.1401   31.9553   42.8199 H   0  0  0  0  0  0  0  0  0  0  0  0
   30.9868   30.2543   42.3209 H   0  0  0  0  0  0  0  0  0  0  0  0
   31.2857   29.7056   44.5406 H   0  0  0  0  0  0  0  0  0  0  0  0
   31.7375   31.3430   44.9822 H   0  0  0  0  0  0  0  0  0  0  0  0
  1  6  2  0
  2  1  1  0
  2  3  2  0
  3  4  1  0
  4  5  2  0
  5  7  1  0
  6  5  1  0
  7 12  1  0
  7  8  1  0
  8  9  1  0
  9 10  1  0
 11 10  1  0
 12 11  1  0
 13 14  2  0
 13 12  1  0
 15 14  1  0
 16 15  2  0
 17 16  1  0
 17 13  1  0
 18 22  1  0
 18 16  1  0
 19 18  1  0
 20 21  1  0
 20 19  1  0
 21 22  1  0
  1 23  1  0
  2 24  1  0
  3 25  1  0
  8 26  1  0
  8 27  1  0
  9 28  1  0
  9 29  1  0
 10 30  1  0
 10 31  1  0
 11 32  1  0
 11 33  1  0
 12 34  1  6
 14 35  1  0
 15 36  1  0
 18 37  1  0
 19 38  1  0
 19 39  1  0
 20 40  1  0
 20 41  1  0
 21 42  1  0
 21 43  1  0
 22 44  1  0
 22 45  1  0
M  ISO  8  23  14  24  14  25  14  26  13  27  13  28  13  29  13  30  13
M  ISO  8  31  13  32  13  33  13  34  13  35  14  36  14  37  13  38  13
M  ISO  7  39  13  40  13  41  13  42  13  43  13  44  13  45  13
M  END
>  <minimizedAffinity>  (1) 
-5.57227612

>  <minimizedRMSD>  (1) 
0.14728272

$$$$
