
     RDKit          3D

 33 35  0  0  0  0  0  0  0  0999 V2000
   38.0490   33.0690   49.6080 C   0  0  0  0  0  0  0  0  0  0  0  0
   38.9540   33.2480   48.5620 C   0  0  0  0  0  0  0  0  0  0  0  0
   38.8330   32.3860   47.4430 C   0  0  0  0  0  0  0  0  0  0  0  0
   37.8490   31.4630   47.4880 N   0  0  0  0  0  0  0  0  0  0  0  0
   36.9910   31.3170   48.5170 C   0  0  0  0  0  0  0  0  0  0  0  0
   37.1070   32.1340   49.5740 N   0  0  0  0  0  0  0  0  0  0  0  0
   37.2950   29.1530   50.5170 Cl  0  0  0  0  0  0  0  0  0  0  0  0
   36.0140   29.2300   49.3490 C   0  0  0  0  0  0  0  0  0  0  0  0
   35.9560   30.2760   48.4580 C   0  0  0  0  0  0  0  0  0  0  0  0
   34.9700   30.3880   47.5160 C   0  0  0  0  0  0  0  0  0  0  0  0
   33.9830   29.4110   47.4470 C   0  0  0  0  0  0  0  0  0  0  0  0
   34.0060   28.3500   48.3190 C   0  0  0  0  0  0  0  0  0  0  0  0
   32.8160   27.0540   48.3310 Cl  0  0  0  0  0  0  0  0  0  0  0  0
   35.0220   28.2930   49.2420 C   0  0  0  0  0  0  0  0  0  0  0  0
   39.6960   32.4180   46.2380 C   0  0  0  0  0  0  0  0  0  0  0  0
   38.7940   32.7110   45.0450 C   0  0  0  0  0  0  0  0  0  0  0  0
   39.6550   32.2720   43.8660 C   0  0  0  0  0  0  0  0  0  0  0  0
   40.6660   31.3120   44.4130 C   0  0  0  0  0  0  0  0  0  0  0  0
   40.2550   31.0790   45.8530 C   0  0  0  0  0  0  0  0  0  0  0  0
   38.1179   33.7235   50.4894 H   0  0  0  0  0  0  0  0  0  0  0  0
   39.7301   34.0264   48.6036 H   0  0  0  0  0  0  0  0  0  0  0  0
   34.9583   31.2409   46.8214 H   0  0  0  0  0  0  0  0  0  0  0  0
   33.1843   29.4878   46.6946 H   0  0  0  0  0  0  0  0  0  0  0  0
   35.0393   27.4415   49.9382 H   0  0  0  0  0  0  0  0  0  0  0  0
   40.4963   33.1381   46.4641 H   0  0  0  0  0  0  0  0  0  0  0  0
   37.8634   32.1269   45.0971 H   0  0  0  0  0  0  0  0  0  0  0  0
   38.4715   33.7610   44.9860 H   0  0  0  0  0  0  0  0  0  0  0  0
   40.1593   33.1414   43.4190 H   0  0  0  0  0  0  0  0  0  0  0  0
   39.0447   31.8027   43.0803 H   0  0  0  0  0  0  0  0  0  0  0  0
   40.6462   30.3680   43.8487 H   0  0  0  0  0  0  0  0  0  0  0  0
   41.6902   31.7060   44.3366 H   0  0  0  0  0  0  0  0  0  0  0  0
   39.4917   30.2905   45.9283 H   0  0  0  0  0  0  0  0  0  0  0  0
   41.0773   30.7389   46.4997 H   0  0  0  0  0  0  0  0  0  0  0  0
  2  1  2  0
  3  4  2  0
  3  2  1  0
  4  5  1  0
  5  6  2  0
  6  1  1  0
  8  7  1  0
  9  5  1  0
  9  8  2  0
 10  9  1  0
 11 10  2  0
 11 12  1  0
 12 13  1  0
 12 14  2  0
 14  8  1  0
 15  3  1  0
 16 15  1  0
 17 18  1  0
 17 16  1  0
 18 19  1  0
 19 15  1  0
  1 20  1  0
  2 21  1  0
 10 22  1  0
 11 23  1  0
 14 24  1  0
 15 25  1  0
 16 26  1  0
 16 27  1  0
 17 28  1  0
 17 29  1  0
 18 30  1  0
 18 31  1  0
 19 32  1  0
 19 33  1  0
M  ISO  8  20  14  21  14  22  14  23  14  24  14  25  13  26  13  27  13
M  ISO  6  28  13  29  13  30  13  31  13  32  13  33  13
M  END
>  <minimizedAffinity>  (1) 
-6.94471073

>  <minimizedRMSD>  (1) 
0.487611085

$$$$
