
     RDKit          3D

 31 33  0  0  0  0  0  0  0  0999 V2000
   38.3610   32.1950   48.9140 C   0  0  0  0  0  0  0  0  0  0  0  0
   38.7130   33.3780   49.5300 C   0  0  0  0  0  0  0  0  0  0  0  0
   39.5580   34.3380   48.9450 C   0  0  0  0  0  0  0  0  0  0  0  0
   40.0400   34.0550   47.6990 N   0  0  0  0  0  0  0  0  0  0  0  0
   39.6920   32.9000   47.1020 C   0  0  0  0  0  0  0  0  0  0  0  0
   38.8890   32.0060   47.6810 N   0  0  0  0  0  0  0  0  0  0  0  0
   37.7610   30.5900   50.7400 C   0  0  0  0  0  0  0  0  0  0  0  0
   37.4970   31.2340   49.5340 C   0  0  0  0  0  0  0  0  0  0  0  0
   36.3010   30.9080   48.8940 C   0  0  0  0  0  0  0  0  0  0  0  0
   35.4640   30.0030   49.4550 N   0  0  0  0  0  0  0  0  0  0  0  0
   35.7650   29.3990   50.6380 C   0  0  0  0  0  0  0  0  0  0  0  0
   36.9160   29.7010   51.2710 N   0  0  0  0  0  0  0  0  0  0  0  0
   40.2340   32.6360   45.7620 C   0  0  0  0  0  0  0  0  0  0  0  0
   39.3830   33.0980   44.6260 C   0  0  0  0  0  0  0  0  0  0  0  0
   39.7720   32.1680   43.4770 C   0  0  0  0  0  0  0  0  0  0  0  0
   40.6330   31.0920   44.0800 C   0  0  0  0  0  0  0  0  0  0  0  0
   40.1780   31.1170   45.5430 C   0  0  0  0  0  0  0  0  0  0  0  0
   38.3109   33.5816   50.5334 H   0  0  0  0  0  0  0  0  0  0  0  0
   39.8180   35.2714   49.4657 H   0  0  0  0  0  0  0  0  0  0  0  0
   38.6953   30.8204   51.2730 H   0  0  0  0  0  0  0  0  0  0  0  0
   36.0388   31.3841   47.9376 H   0  0  0  0  0  0  0  0  0  0  0  0
   35.0706   28.6667   51.0757 H   0  0  0  0  0  0  0  0  0  0  0  0
   41.2129   33.1377   45.7537 H   0  0  0  0  0  0  0  0  0  0  0  0
   38.3152   32.9950   44.8692 H   0  0  0  0  0  0  0  0  0  0  0  0
   39.5364   34.1601   44.3841 H   0  0  0  0  0  0  0  0  0  0  0  0
   40.3350   32.7225   42.7117 H   0  0  0  0  0  0  0  0  0  0  0  0
   38.8834   31.7426   42.9877 H   0  0  0  0  0  0  0  0  0  0  0  0
   40.4376   30.1142   43.6155 H   0  0  0  0  0  0  0  0  0  0  0  0
   41.7125   31.2542   43.9443 H   0  0  0  0  0  0  0  0  0  0  0  0
   39.1617   30.7155   45.6696 H   0  0  0  0  0  0  0  0  0  0  0  0
   40.7699   30.5077   46.2418 H   0  0  0  0  0  0  0  0  0  0  0  0
  1  2  2  0
  1  8  1  0
  3  2  1  0
  4  3  2  0
  5  6  2  0
  5  4  1  0
  6  1  1  0
  7 12  2  0
  8  7  1  0
  9 10  1  0
  9  8  2  0
 10 11  2  0
 11 12  1  0
 13  5  1  0
 14 13  1  0
 15 16  1  0
 15 14  1  0
 16 17  1  0
 17 13  1  0
  2 18  1  0
  3 19  1  0
  7 20  1  0
  9 21  1  0
 11 22  1  0
 13 23  1  0
 14 24  1  0
 14 25  1  0
 15 26  1  0
 15 27  1  0
 16 28  1  0
 16 29  1  0
 17 30  1  0
 17 31  1  0
M  ISO  8  18  14  19  14  20  14  21  14  22  14  23  13  24  13  25  13
M  ISO  6  26  13  27  13  28  13  29  13  30  13  31  13
M  END
>  <minimizedAffinity>  (1) 
-5.99857855

>  <minimizedRMSD>  (1) 
0.825036049

$$$$
