
     RDKit          3D

 49 52  0  0  1  0  0  0  0  0999 V2000
   35.3500   30.0810   47.3970 C   0  0  1  0  0  0  0  0  0  0  0  0
   34.5590   28.7380   47.6640 C   0  0  0  0  0  0  0  0  0  0  0  0
   34.0170   28.7050   49.0870 C   0  0  0  0  0  0  0  0  0  0  0  0
   35.0720   29.1270   50.0570 C   0  0  0  0  0  0  0  0  0  0  0  0
   36.3940   29.0630   49.4290 C   0  0  0  0  0  0  0  0  0  0  0  0
   36.5380   30.0440   48.3080 C   0  0  2  0  0  0  0  0  0  0  0  0
   34.6280   29.9990   45.0470 C   0  0  0  0  0  0  0  0  0  0  0  0
   34.9950   30.0770   43.7150 C   0  0  0  0  0  0  0  0  0  0  0  0
   36.2800   30.2150   43.2620 C   0  0  0  0  0  0  0  0  0  0  0  0
   37.3200   30.2810   44.1950 C   0  0  0  0  0  0  0  0  0  0  0  0
   36.9530   30.1990   45.5250 C   0  0  0  0  0  0  0  0  0  0  0  0
   35.6510   30.0630   45.9900 C   0  0  0  0  0  0  0  0  0  0  0  0
   32.7090   28.4970   45.1420 C   0  0  0  0  0  0  0  0  0  0  0  0
   33.2400   29.8260   45.3000 C   0  0  0  0  0  0  0  0  0  0  0  0
   32.3660   30.8180   45.7050 C   0  0  0  0  0  0  0  0  0  0  0  0
   31.0670   30.5220   45.9430 N   0  0  0  0  0  0  0  0  0  0  0  0
   30.5780   29.2500   45.7920 C   0  0  0  0  0  0  0  0  0  0  0  0
   31.4070   28.2520   45.3900 N   0  0  0  0  0  0  0  0  0  0  0  0
   36.9740   31.4120   48.7250 C   0  0  0  0  0  0  0  0  0  0  0  0
   38.4380   31.7100   48.4840 C   0  0  0  0  0  0  0  0  0  0  0  0
   38.4390   33.1800   48.9280 C   0  0  0  0  0  0  0  0  0  0  0  0
   37.3030   33.3000   49.9540 C   0  0  0  0  0  0  0  0  0  0  0  0
   36.8490   31.8290   50.1270 C   0  0  0  0  0  0  0  0  0  0  0  0
   34.8180   31.0200   47.6095 H   0  0  0  0  0  0  0  0  0  0  0  0
   33.7198   28.6667   46.9564 H   0  0  0  0  0  0  0  0  0  0  0  0
   35.2465   27.8902   47.5282 H   0  0  0  0  0  0  0  0  0  0  0  0
   33.1594   29.3895   49.1640 H   0  0  0  0  0  0  0  0  0  0  0  0
   33.7039   27.6778   49.3254 H   0  0  0  0  0  0  0  0  0  0  0  0
   34.8742   30.1590   50.3822 H   0  0  0  0  0  0  0  0  0  0  0  0
   35.0538   28.4493   50.9232 H   0  0  0  0  0  0  0  0  0  0  0  0
   37.1580   29.2805   50.1899 H   0  0  0  0  0  0  0  0  0  0  0  0
   36.5196   28.0533   49.0110 H   0  0  0  0  0  0  0  0  0  0  0  0
   37.3771   29.6452   47.7191 H   0  0  0  0  0  0  0  0  0  0  0  0
   34.1939   30.0242   42.9631 H   0  0  0  0  0  0  0  0  0  0  0  0
   36.4905   30.2729   42.1839 H   0  0  0  0  0  0  0  0  0  0  0  0
   38.3704   30.3919   43.8877 H   0  0  0  0  0  0  0  0  0  0  0  0
   37.7561   30.2451   46.2753 H   0  0  0  0  0  0  0  0  0  0  0  0
   33.3684   27.6785   44.8177 H   0  0  0  0  0  0  0  0  0  0  0  0
   32.7270   31.8491   45.8339 H   0  0  0  0  0  0  0  0  0  0  0  0
   29.5179   29.0385   45.9957 H   0  0  0  0  0  0  0  0  0  0  0  0
   36.2496   31.9443   48.0911 H   0  0  0  0  0  0  0  0  0  0  0  0
   39.0970   31.0872   49.1068 H   0  0  0  0  0  0  0  0  0  0  0  0
   38.8069   31.5152   47.4662 H   0  0  0  0  0  0  0  0  0  0  0  0
   39.4027   33.4415   49.3893 H   0  0  0  0  0  0  0  0  0  0  0  0
   38.2946   33.8629   48.0779 H   0  0  0  0  0  0  0  0  0  0  0  0
   37.6681   33.7175   50.9040 H   0  0  0  0  0  0  0  0  0  0  0  0
   36.4939   33.9735   49.6349 H   0  0  0  0  0  0  0  0  0  0  0  0
   35.8149   31.7523   50.4942 H   0  0  0  0  0  0  0  0  0  0  0  0
   37.4114   31.2327   50.8606 H   0  0  0  0  0  0  0  0  0  0  0  0
  1  2  1  0
  1  6  1  0
  2  3  1  0
  3  4  1  0
  5  4  1  0
  6 19  1  0
  6  5  1  0
  7 14  1  0
  7 12  1  0
  8  7  2  0
  9  8  1  0
  9 10  2  0
 10 11  1  0
 11 12  2  0
 12  1  1  0
 13 14  2  0
 13 18  1  0
 14 15  1  0
 15 16  2  0
 17 16  1  0
 18 17  2  0
 19 23  1  0
 20 19  1  0
 20 21  1  0
 21 22  1  0
 22 23  1  0
  1 24  1  6
  2 25  1  0
  2 26  1  0
  3 27  1  0
  3 28  1  0
  4 29  1  0
  4 30  1  0
  5 31  1  0
  5 32  1  0
  6 33  1  6
  8 34  1  0
  9 35  1  0
 10 36  1  0
 11 37  1  0
 13 38  1  0
 15 39  1  0
 17 40  1  0
 19 41  1  0
 20 42  1  0
 20 43  1  0
 21 44  1  0
 21 45  1  0
 22 46  1  0
 22 47  1  0
 23 48  1  0
 23 49  1  0
M  ISO  8  24  13  25  13  26  13  27  13  28  13  29  13  30  13  31  13
M  ISO  8  32  13  33  13  34  14  35  14  36  14  37  14  38  14  39  14
M  ISO  8  40  14  41  13  42  13  43  13  44  13  45  13  46  13  47  13
M  ISO  2  48  13  49  13
M  END
>  <minimizedAffinity>  (1) 
-6.01173019

>  <minimizedRMSD>  (1) 
3.59451127

$$$$
