
     RDKit          3D

 50 54  0  0  1  0  0  0  0  0999 V2000
   36.2260   30.2030   46.9170 C   0  0  0  0  0  0  0  0  0  0  0  0
   37.0770   30.7500   47.8750 C   0  0  0  0  0  0  0  0  0  0  0  0
   38.0790   31.6570   47.5180 C   0  0  0  0  0  0  0  0  0  0  0  0
   38.1720   31.9750   46.1670 C   0  0  0  0  0  0  0  0  0  0  0  0
   39.0580   32.8300   45.5770 N   0  0  0  0  0  0  0  0  0  0  0  0
   38.7730   32.8250   44.2670 C   0  0  0  0  0  0  0  0  0  0  0  0
   37.7570   32.0080   44.0340 N   0  0  0  0  0  0  0  0  0  0  0  0
   37.3530   31.4590   45.1920 C   0  0  0  0  0  0  0  0  0  0  0  0
   36.3600   30.5530   45.5850 C   0  0  0  0  0  0  0  0  0  0  0  0
   37.4460   30.1400   51.5550 C   0  0  0  0  0  0  0  0  0  0  0  0
   37.7840   30.5890   50.2920 C   0  0  0  0  0  0  0  0  0  0  0  0
   36.9010   30.3580   49.2610 C   0  0  0  0  0  0  0  0  0  0  0  0
   35.7330   29.6870   49.5640 N   0  0  0  0  0  0  0  0  0  0  0  0
   35.4260   29.2580   50.8040 C   0  0  0  0  0  0  0  0  0  0  0  0
   36.2750   29.4830   51.7820 N   0  0  0  0  0  0  0  0  0  0  0  0
   39.4830   33.5920   43.3420 O   0  0  0  0  0  0  0  0  0  0  0  0
   39.6510   31.8020   41.8970 N   0  0  0  0  0  0  0  0  0  0  0  0
   39.3240   33.2170   41.9820 C   0  0  1  0  0  0  0  0  0  0  0  0
   37.9620   33.4530   41.5320 C   0  0  0  0  0  0  0  0  0  0  0  0
   37.8660   33.0890   40.1780 O   0  0  0  0  0  0  0  0  0  0  0  0
   38.2590   31.8150   39.8840 C   0  0  0  0  0  0  0  0  0  0  0  0
   39.6230   31.5230   40.4830 C   0  0  2  0  0  0  0  0  0  0  0  0
   40.1640   30.1970   40.1070 C   0  0  0  0  0  0  0  0  0  0  0  0
   40.1040   29.2210   41.2530 C   0  0  0  0  0  0  0  0  0  0  0  0
   40.8230   28.0280   40.6080 C   0  0  0  0  0  0  0  0  0  0  0  0
   42.0350   28.7180   40.0220 C   0  0  0  0  0  0  0  0  0  0  0  0
   41.6210   30.1720   39.7640 C   0  0  0  0  0  0  0  0  0  0  0  0
   35.4449   29.4904   47.2206 H   0  0  0  0  0  0  0  0  0  0  0  0
   38.7571   32.0955   48.2649 H   0  0  0  0  0  0  0  0  0  0  0  0
   39.7985   33.3714   46.0454 H   0  0  0  0  0  0  0  0  0  0  0  0
   35.6849   30.1186   44.8330 H   0  0  0  0  0  0  0  0  0  0  0  0
   38.1364   30.3169   52.3929 H   0  0  0  0  0  0  0  0  0  0  0  0
   38.7329   31.1167   50.1154 H   0  0  0  0  0  0  0  0  0  0  0  0
   34.4809   28.7285   50.9946 H   0  0  0  0  0  0  0  0  0  0  0  0
   40.5859   31.6180   42.2882 H   0  0  0  0  0  0  0  0  0  0  0  0
   39.9820   33.8158   41.3351 H   0  0  0  0  0  0  0  0  0  0  0  0
   37.2646   32.8467   42.1287 H   0  0  0  0  0  0  0  0  0  0  0  0
   37.7056   34.5158   41.6538 H   0  0  0  0  0  0  0  0  0  0  0  0
   37.5248   31.1066   40.2952 H   0  0  0  0  0  0  0  0  0  0  0  0
   38.3221   31.7075   38.7911 H   0  0  0  0  0  0  0  0  0  0  0  0
   40.3326   32.2270   40.0239 H   0  0  0  0  0  0  0  0  0  0  0  0
   39.5370   29.9420   39.2399 H   0  0  0  0  0  0  0  0  0  0  0  0
   40.6405   29.5938   42.1380 H   0  0  0  0  0  0  0  0  0  0  0  0
   39.0944   29.0085   41.6345 H   0  0  0  0  0  0  0  0  0  0  0  0
   41.1078   27.2732   41.3558 H   0  0  0  0  0  0  0  0  0  0  0  0
   40.2180   27.4685   39.8793 H   0  0  0  0  0  0  0  0  0  0  0  0
   42.8743   28.6814   40.7321 H   0  0  0  0  0  0  0  0  0  0  0  0
   42.3653   28.2263   39.0951 H   0  0  0  0  0  0  0  0  0  0  0  0
   42.1869   30.8605   40.4088 H   0  0  0  0  0  0  0  0  0  0  0  0
   41.8194   30.4929   38.7307 H   0  0  0  0  0  0  0  0  0  0  0  0
  1  2  2  0
  2 12  1  0
  3  2  1  0
  4  3  2  0
  5  4  1  0
  6  5  1  0
  7  6  2  0
  7  8  1  0
  8  9  2  0
  8  4  1  0
  9  1  1  0
 10 15  2  0
 11 10  1  0
 12 13  1  0
 12 11  2  0
 13 14  2  0
 14 15  1  0
 16  6  1  0
 17 18  1  0
 18 16  1  0
 19 18  1  0
 20 19  1  0
 21 20  1  0
 21 22  1  0
 22 17  1  0
 23 22  1  0
 23 24  1  0
 25 24  1  0
 26 25  1  0
 27 26  1  0
 27 23  1  0
  1 28  1  0
  3 29  1  0
  5 30  1  0
  9 31  1  0
 10 32  1  0
 11 33  1  0
 14 34  1  0
 17 35  1  0
 18 36  1  6
 19 37  1  0
 19 38  1  0
 21 39  1  0
 21 40  1  0
 22 41  1  6
 23 42  1  0
 24 43  1  0
 24 44  1  0
 25 45  1  0
 25 46  1  0
 26 47  1  0
 26 48  1  0
 27 49  1  0
 27 50  1  0
M  ISO  8  28  14  29  14  30   9  31  14  32  14  33  14  34  14  35   5
M  ISO  8  36  13  37  13  38  13  39  13  40  13  41  13  42  13  43  13
M  ISO  7  44  13  45  13  46  13  47  13  48  13  49  13  50  13
M  END
>  <minimizedAffinity>  (1) 
-6.03425074

>  <minimizedRMSD>  (1) 
0.237412199

$$$$
