
     RDKit          3D

 39 43  0  0  0  0  0  0  0  0999 V2000
   37.2360   30.9010   49.7010 C   0  0  0  0  0  0  0  0  0  0  0  0
   37.4760   30.5490   51.0100 C   0  0  0  0  0  0  0  0  0  0  0  0
   36.6570   29.6320   51.6020 C   0  0  0  0  0  0  0  0  0  0  0  0
   35.6240   29.0810   50.9030 N   0  0  0  0  0  0  0  0  0  0  0  0
   35.4240   29.4530   49.6270 C   0  0  0  0  0  0  0  0  0  0  0  0
   36.2220   30.3570   49.0210 N   0  0  0  0  0  0  0  0  0  0  0  0
   34.3340   28.8500   48.8990 C   0  0  0  0  0  0  0  0  0  0  0  0
   34.4690   28.5660   47.5540 C   0  0  0  0  0  0  0  0  0  0  0  0
   33.5350   27.9820   46.7200 C   0  0  0  0  0  0  0  0  0  0  0  0
   32.3340   27.6600   47.3510 C   0  0  0  0  0  0  0  0  0  0  0  0
   31.3570   27.0800   46.6300 N   0  0  0  0  0  0  0  0  0  0  0  0
   30.1700   26.7250   47.1250 C   0  0  0  0  0  0  0  0  0  0  0  0
   29.9250   26.9630   48.4610 C   0  0  0  0  0  0  0  0  0  0  0  0
   30.9120   27.5550   49.2170 C   0  0  0  0  0  0  0  0  0  0  0  0
   32.1450   27.9210   48.6870 C   0  0  0  0  0  0  0  0  0  0  0  0
   33.1290   28.5090   49.4560 C   0  0  0  0  0  0  0  0  0  0  0  0
   39.2950   33.8520   48.9730 C   0  0  0  0  0  0  0  0  0  0  0  0
   39.6590   33.6530   47.6470 C   0  0  0  0  0  0  0  0  0  0  0  0
   39.1930   32.4930   46.9910 C   0  0  0  0  0  0  0  0  0  0  0  0
   38.4130   31.6610   47.7410 N   0  0  0  0  0  0  0  0  0  0  0  0
   38.0790   31.8780   49.0140 C   0  0  0  0  0  0  0  0  0  0  0  0
   38.5280   32.9800   49.6190 N   0  0  0  0  0  0  0  0  0  0  0  0
   39.5530   32.2360   45.5810 C   0  0  0  0  0  0  0  0  0  0  0  0
   40.1430   31.0360   45.2100 C   0  0  0  0  0  0  0  0  0  0  0  0
   40.3430   31.3060   43.3900 S   0  0  0  0  0  0  0  0  0  0  0  0
   39.5680   33.0400   43.4800 C   0  0  0  0  0  0  0  0  0  0  0  0
   39.2990   33.1660   44.6980 N   0  0  0  0  0  0  0  0  0  0  0  0
   38.3112   30.9979   51.5676 H   0  0  0  0  0  0  0  0  0  0  0  0
   36.8308   29.3362   52.6471 H   0  0  0  0  0  0  0  0  0  0  0  0
   35.4310   28.8359   47.0938 H   0  0  0  0  0  0  0  0  0  0  0  0
   33.7221   27.7884   45.6535 H   0  0  0  0  0  0  0  0  0  0  0  0
   29.4081   26.2556   46.4853 H   0  0  0  0  0  0  0  0  0  0  0  0
   28.9614   26.6858   48.9133 H   0  0  0  0  0  0  0  0  0  0  0  0
   30.7177   27.7462   50.2827 H   0  0  0  0  0  0  0  0  0  0  0  0
   32.9449   28.7051   50.5226 H   0  0  0  0  0  0  0  0  0  0  0  0
   39.6493   34.7506   49.4994 H   0  0  0  0  0  0  0  0  0  0  0  0
   40.2944   34.3811   47.1215 H   0  0  0  0  0  0  0  0  0  0  0  0
   40.4158   30.1665   45.8261 H   0  0  0  0  0  0  0  0  0  0  0  0
   39.3974   33.7570   42.6634 H   0  0  0  0  0  0  0  0  0  0  0  0
  1  2  2  0
  2  3  1  0
  4  3  2  0
  5  4  1  0
  6  5  2  0
  6  1  1  0
  7 16  1  0
  7  5  1  0
  8  7  2  0
  9 10  2  0
  9  8  1  0
 10 15  1  0
 11 12  2  0
 11 10  1  0
 12 13  1  0
 13 14  2  0
 15 14  1  0
 15 16  2  0
 17 22  2  0
 18 17  1  0
 19 18  2  0
 19 20  1  0
 20 21  2  0
 21 22  1  0
 21  1  1  0
 23 19  1  0
 24 23  2  0
 25 26  1  0
 25 24  1  0
 26 27  2  0
 27 23  1  0
  2 28  1  0
  3 29  1  0
  8 30  1  0
  9 31  1  0
 12 32  1  0
 13 33  1  0
 14 34  1  0
 16 35  1  0
 17 36  1  0
 18 37  1  0
 24 38  1  0
 26 39  1  0
M  ISO  8  28  14  29  14  30  14  31  14  32  14  33  14  34  14  35  14
M  ISO  4  36  14  37  14  38  14  39  14
M  END
>  <minimizedAffinity>  (1) 
-7.2183938

>  <minimizedRMSD>  (1) 
0.658484936

$$$$
