
     RDKit          3D

 26 28  0  0  0  0  0  0  0  0999 V2000
   38.5000   31.9890   46.6530 C   0  0  0  0  0  0  0  0  0  0  0  0
   39.6730   32.6390   46.4000 C   0  0  0  0  0  0  0  0  0  0  0  0
   40.0940   33.2210   45.2300 C   0  0  0  0  0  0  0  0  0  0  0  0
   39.2060   33.1200   44.2040 N   0  0  0  0  0  0  0  0  0  0  0  0
   38.0230   32.4870   44.3920 C   0  0  0  0  0  0  0  0  0  0  0  0
   37.6650   31.9300   45.5830 N   0  0  0  0  0  0  0  0  0  0  0  0
   37.0250   29.7850   49.1300 C   0  0  0  0  0  0  0  0  0  0  0  0
   37.4870   30.2610   50.3510 C   0  0  0  0  0  0  0  0  0  0  0  0
   38.3370   31.3850   50.2940 C   0  0  0  0  0  0  0  0  0  0  0  0
   38.6550   31.9310   49.0940 N   0  0  0  0  0  0  0  0  0  0  0  0
   38.1670   31.4130   47.9410 C   0  0  0  0  0  0  0  0  0  0  0  0
   37.3380   30.3250   47.9230 N   0  0  0  0  0  0  0  0  0  0  0  0
   37.1030   29.6290   51.5560 N   0  0  0  0  0  0  0  0  0  0  0  0
   37.1100   32.4210   43.2260 C   0  0  0  0  0  0  0  0  0  0  0  0
   37.1880   33.0970   41.9320 C   0  0  0  0  0  0  0  0  0  0  0  0
   35.6650   32.4260   41.1510 S   0  0  0  0  0  0  0  0  0  0  0  0
   35.2120   31.4340   42.5660 C   0  0  0  0  0  0  0  0  0  0  0  0
   36.0830   31.5980   43.4690 N   0  0  0  0  0  0  0  0  0  0  0  0
   40.3738   32.7054   47.2453 H   0  0  0  0  0  0  0  0  0  0  0  0
   41.0662   33.7259   45.1305 H   0  0  0  0  0  0  0  0  0  0  0  0
   36.3591   28.9095   49.1413 H   0  0  0  0  0  0  0  0  0  0  0  0
   38.7412   31.8179   51.2209 H   0  0  0  0  0  0  0  0  0  0  0  0
   37.4488   29.9865   52.4580 H   0  0  0  0  0  0  0  0  0  0  0  0
   36.4775   28.8111   51.5319 H   0  0  0  0  0  0  0  0  0  0  0  0
   37.9377   33.8004   41.5407 H   0  0  0  0  0  0  0  0  0  0  0  0
   34.3243   30.7886   42.6399 H   0  0  0  0  0  0  0  0  0  0  0  0
  1 11  1  0
  2  1  2  0
  3  2  1  0
  4  5  1  0
  4  3  2  0
  5  6  2  0
  6  1  1  0
  7  8  2  0
  8 13  1  0
  9  8  1  0
 10  9  2  0
 11 10  1  0
 12 11  2  0
 12  7  1  0
 14 18  1  0
 14  5  1  0
 15 14  2  0
 16 15  1  0
 16 17  1  0
 17 18  2  0
  2 19  1  0
  3 20  1  0
  7 21  1  0
  9 22  1  0
 13 23  1  0
 13 24  1  0
 15 25  1  0
 17 26  1  0
M  ISO  6  19  14  20  14  21  14  22  14  25  14  26  14
M  END
>  <minimizedAffinity>  (1) 
-5.18237543

>  <minimizedRMSD>  (1) 
1.91980541

$$$$
