
     RDKit          3D

 32 35  0  0  0  0  0  0  0  0999 V2000
   35.0510   29.2580   49.4080 C   0  0  0  0  0  0  0  0  0  0  0  0
   35.4260   29.9960   48.2490 C   0  0  0  0  0  0  0  0  0  0  0  0
   34.7970   29.6670   47.0630 C   0  0  0  0  0  0  0  0  0  0  0  0
   33.8710   28.6780   47.0550 N   0  0  0  0  0  0  0  0  0  0  0  0
   33.5290   27.9880   48.1750 C   0  0  0  0  0  0  0  0  0  0  0  0
   34.1270   28.2890   49.3450 N   0  0  0  0  0  0  0  0  0  0  0  0
   36.4880   31.5820   49.7520 C   0  0  0  0  0  0  0  0  0  0  0  0
   36.4300   31.0030   48.4830 C   0  0  0  0  0  0  0  0  0  0  0  0
   37.3490   31.4370   47.5280 C   0  0  0  0  0  0  0  0  0  0  0  0
   38.2710   32.4220   47.8910 C   0  0  0  0  0  0  0  0  0  0  0  0
   39.2540   33.0300   47.2120 N   0  0  0  0  0  0  0  0  0  0  0  0
   39.8750   33.9160   47.9940 C   0  0  0  0  0  0  0  0  0  0  0  0
   39.2920   33.8910   49.2100 N   0  0  0  0  0  0  0  0  0  0  0  0
   38.3100   32.9790   49.1500 C   0  0  0  0  0  0  0  0  0  0  0  0
   37.4040   32.5520   50.0930 C   0  0  0  0  0  0  0  0  0  0  0  0
   32.5000   26.9170   48.0800 C   0  0  0  0  0  0  0  0  0  0  0  0
   31.1440   27.5400   48.2840 C   0  0  0  0  0  0  0  0  0  0  0  0
   30.3450   28.0540   47.1110 C   0  0  0  0  0  0  0  0  0  0  0  0
   28.8790   28.6560   47.9820 S   0  0  0  0  0  0  0  0  0  0  0  0
   29.5470   28.1430   49.7080 C   0  0  0  0  0  0  0  0  0  0  0  0
   30.6830   27.6200   49.5260 N   0  0  0  0  0  0  0  0  0  0  0  0
   35.5282   29.4874   50.3722 H   0  0  0  0  0  0  0  0  0  0  0  0
   35.0457   30.2027   46.1350 H   0  0  0  0  0  0  0  0  0  0  0  0
   35.7690   31.2480   50.5145 H   0  0  0  0  0  0  0  0  0  0  0  0
   37.3480   31.0137   46.5127 H   0  0  0  0  0  0  0  0  0  0  0  0
   39.4954   32.8408   46.2287 H   0  0  0  0  0  0  0  0  0  0  0  0
   40.7182   34.5570   47.6973 H   0  0  0  0  0  0  0  0  0  0  0  0
   37.4112   32.9799   51.1063 H   0  0  0  0  0  0  0  0  0  0  0  0
   32.5462   26.4446   47.0877 H   0  0  0  0  0  0  0  0  0  0  0  0
   32.6821   26.1494   48.8465 H   0  0  0  0  0  0  0  0  0  0  0  0
   30.5849   28.0605   46.0375 H   0  0  0  0  0  0  0  0  0  0  0  0
   29.0370   28.2788   50.6731 H   0  0  0  0  0  0  0  0  0  0  0  0
  2  8  1  0
  2  1  2  0
  3  2  1  0
  4  3  2  0
  4  5  1  0
  5  6  2  0
  6  1  1  0
  7 15  2  0
  8  7  1  0
  9 10  1  0
  9  8  2  0
 10 14  2  0
 11 10  1  0
 11 12  1  0
 12 13  2  0
 14 13  1  0
 14 15  1  0
 16  5  1  0
 16 17  1  0
 17 21  1  0
 18 19  1  0
 18 17  2  0
 19 20  1  0
 21 20  2  0
  1 22  1  0
  3 23  1  0
  7 24  1  0
  9 25  1  0
 11 26  1  0
 12 27  1  0
 15 28  1  0
 16 29  1  0
 16 30  1  0
 18 31  1  0
 20 32  1  0
M  ISO  8  22  14  23  14  24  14  25  14  26   9  27  14  28  14  29   8
M  ISO  3  30   8  31  14  32  14
M  END
>  <minimizedAffinity>  (1) 
-6.08903456

>  <minimizedRMSD>  (1) 
1.80784154

$$$$
