
     RDKit          3D

 27 29  0  0  0  0  0  0  0  0999 V2000
   36.6660   29.8030   50.3290 C   0  0  0  0  0  0  0  0  0  0  0  0
   37.2590   30.4810   49.2640 C   0  0  0  0  0  0  0  0  0  0  0  0
   36.7670   30.3030   47.9920 C   0  0  0  0  0  0  0  0  0  0  0  0
   35.7160   29.4640   47.8490 N   0  0  0  0  0  0  0  0  0  0  0  0
   35.1520   28.8160   48.8780 C   0  0  0  0  0  0  0  0  0  0  0  0
   35.6350   28.9910   50.1210 N   0  0  0  0  0  0  0  0  0  0  0  0
   37.2950   30.9500   46.7820 C   0  0  0  0  0  0  0  0  0  0  0  0
   36.7320   30.7820   45.5480 C   0  0  0  0  0  0  0  0  0  0  0  0
   37.2430   31.3980   44.4210 C   0  0  0  0  0  0  0  0  0  0  0  0
   38.3230   32.1910   44.5170 N   0  0  0  0  0  0  0  0  0  0  0  0
   38.8620   32.3450   45.7290 C   0  0  0  0  0  0  0  0  0  0  0  0
   38.3840   31.7580   46.8360 N   0  0  0  0  0  0  0  0  0  0  0  0
   40.0650   33.2170   45.8820 C   0  0  0  0  0  0  0  0  0  0  0  0
   40.0830   33.7220   47.1620 F   0  0  0  0  0  0  0  0  0  0  0  0
   41.2330   32.4780   45.6400 F   0  0  0  0  0  0  0  0  0  0  0  0
   40.0610   34.2520   45.0160 F   0  0  0  0  0  0  0  0  0  0  0  0
   34.0110   27.9440   48.5060 C   0  0  0  0  0  0  0  0  0  0  0  0
   33.9310   26.8020   47.6220 C   0  0  0  0  0  0  0  0  0  0  0  0
   32.1310   26.3650   47.7800 S   0  0  0  0  0  0  0  0  0  0  0  0
   31.8340   27.7920   48.9970 C   0  0  0  0  0  0  0  0  0  0  0  0
   32.9180   28.3580   49.1420 N   0  0  0  0  0  0  0  0  0  0  0  0
   37.0547   29.9416   51.3486 H   0  0  0  0  0  0  0  0  0  0  0  0
   38.1126   31.1521   49.4399 H   0  0  0  0  0  0  0  0  0  0  0  0
   35.8461   30.1376   45.4487 H   0  0  0  0  0  0  0  0  0  0  0  0
   36.7643   31.2385   43.4436 H   0  0  0  0  0  0  0  0  0  0  0  0
   34.7187   26.3236   47.0214 H   0  0  0  0  0  0  0  0  0  0  0  0
   30.8816   28.0602   49.4776 H   0  0  0  0  0  0  0  0  0  0  0  0
  2  1  2  0
  3  2  1  0
  4  3  2  0
  4  5  1  0
  5  6  2  0
  6  1  1  0
  7 12  1  0
  7  3  1  0
  8  7  2  0
  9 10  2  0
  9  8  1  0
 10 11  1  0
 11 13  1  0
 11 12  2  0
 13 14  1  0
 15 13  1  0
 16 13  1  0
 17  5  1  0
 17 21  1  0
 18 19  1  0
 18 17  2  0
 19 20  1  0
 20 21  2  0
  1 22  1  0
  2 23  1  0
  8 24  1  0
  9 25  1  0
 18 26  1  0
 20 27  1  0
M  ISO  6  22  14  23  14  24  14  25  14  26  14  27  14
M  END
>  <minimizedAffinity>  (1) 
-5.73424387

>  <minimizedRMSD>  (1) 
1.42575514

$$$$
