
     RDKit          3D

 22 23  0  0  0  0  0  0  0  0999 V2000
   35.3690   30.0600   47.3500 C   0  0  0  0  0  0  0  0  0  0  0  0
   32.6520   27.8120   48.7200 C   0  0  0  0  0  0  0  0  0  0  0  0
   33.8870   28.5010   48.6340 C   0  0  0  0  0  0  0  0  0  0  0  0
   34.1140   29.3100   47.5350 C   0  0  0  0  0  0  0  0  0  0  0  0
   33.1430   29.4200   46.5670 N   0  0  0  0  0  0  0  0  0  0  0  0
   31.9800   28.7540   46.6770 C   0  0  0  0  0  0  0  0  0  0  0  0
   31.7230   27.9480   47.7480 N   0  0  0  0  0  0  0  0  0  0  0  0
   36.2570   29.9520   48.5770 C   0  0  0  0  0  0  0  0  0  0  0  0
   37.2500   31.0870   48.5280 C   0  0  0  0  0  0  0  0  0  0  0  0
   37.2060   32.1170   49.6830 C   0  0  0  0  0  0  0  0  0  0  0  0
   38.5360   33.2150   49.1700 S   0  0  0  0  0  0  0  0  0  0  0  0
   38.9410   32.2250   47.6020 C   0  0  0  0  0  0  0  0  0  0  0  0
   38.1500   31.2440   47.5560 N   0  0  0  0  0  0  0  0  0  0  0  0
   35.9062   29.6524   46.4809 H   0  0  0  0  0  0  0  0  0  0  0  0
   35.1220   31.1199   47.1900 H   0  0  0  0  0  0  0  0  0  0  0  0
   32.4480   27.1620   49.5837 H   0  0  0  0  0  0  0  0  0  0  0  0
   34.6471   28.3952   49.4221 H   0  0  0  0  0  0  0  0  0  0  0  0
   31.2208   28.8609   45.8882 H   0  0  0  0  0  0  0  0  0  0  0  0
   35.6464   30.0279   49.4888 H   0  0  0  0  0  0  0  0  0  0  0  0
   36.7795   28.9841   48.5896 H   0  0  0  0  0  0  0  0  0  0  0  0
   36.5498   32.1641   50.5646 H   0  0  0  0  0  0  0  0  0  0  0  0
   39.7237   32.4637   46.8668 H   0  0  0  0  0  0  0  0  0  0  0  0
  1  4  1  0
  1  8  1  0
  3  2  2  0
  4  3  1  0
  5  6  1  0
  5  4  2  0
  6  7  2  0
  7  2  1  0
  9  8  1  0
  9 10  2  0
 11 10  1  0
 12 11  1  0
 13 12  2  0
 13  9  1  0
  1 14  1  0
  1 15  1  0
  2 16  1  0
  3 17  1  0
  6 18  1  0
  8 19  1  0
  8 20  1  0
 10 21  1  0
 12 22  1  0
M  ISO  8  14   8  15   8  16  14  17  14  18  14  19   8  20   8  21  14
M  ISO  1  22  14
M  END
>  <minimizedAffinity>  (1) 
-3.80908632

>  <minimizedRMSD>  (1) 
4.20974398

$$$$
