
     RDKit          3D

 36 39  0  0  1  0  0  0  0  0999 V2000
   38.3010   31.8980   44.5390 C   0  0  0  0  0  0  0  0  0  0  0  0
   37.1470   32.3560   44.4430 O   0  0  0  0  0  0  0  0  0  0  0  0
   38.9300   31.7310   45.8350 N   0  0  0  0  0  0  0  0  0  0  0  0
   39.0960   31.4990   43.3490 C   0  0  0  0  0  0  0  0  0  0  0  0
   40.0830   30.5610   43.4900 C   0  0  0  0  0  0  0  0  0  0  0  0
   40.8010   30.2380   42.3490 C   0  0  0  0  0  0  0  0  0  0  0  0
   40.4930   30.8600   41.1680 C   0  0  0  0  0  0  0  0  0  0  0  0
   39.4950   31.8060   41.0290 C   0  0  0  0  0  0  0  0  0  0  0  0
   38.8430   32.0720   42.1630 N   0  0  0  0  0  0  0  0  0  0  0  0
   39.1400   32.4850   39.7920 C   0  0  0  0  0  0  0  0  0  0  0  0
   38.4110   33.6750   39.8900 C   0  0  0  0  0  0  0  0  0  0  0  0
   38.1820   34.1910   38.0890 S   0  0  0  0  0  0  0  0  0  0  0  0
   39.1500   32.6450   37.5640 C   0  0  0  0  0  0  0  0  0  0  0  0
   39.3960   32.1630   38.5440 N   0  0  0  0  0  0  0  0  0  0  0  0
   38.4530   31.1740   48.2160 C   0  0  2  0  0  0  0  0  0  0  0  0
   38.7320   32.6180   48.1690 C   0  0  0  0  0  0  0  0  0  0  0  0
   38.0700   31.8530   47.0010 C   0  0  1  0  0  0  0  0  0  0  0  0
   35.1180   30.2300   49.5330 C   0  0  0  0  0  0  0  0  0  0  0  0
   35.4510   29.5550   50.7430 C   0  0  0  0  0  0  0  0  0  0  0  0
   36.8520   29.4460   51.0850 C   0  0  0  0  0  0  0  0  0  0  0  0
   37.7810   29.9860   50.2470 N   0  0  0  0  0  0  0  0  0  0  0  0
   37.3810   30.6170   49.1080 C   0  0  0  0  0  0  0  0  0  0  0  0
   36.0630   30.7560   48.7220 N   0  0  0  0  0  0  0  0  0  0  0  0
   39.9372   31.5354   45.9251 H   0  0  0  0  0  0  0  0  0  0  0  0
   40.2957   30.0874   44.4598 H   0  0  0  0  0  0  0  0  0  0  0  0
   41.6079   29.4916   42.3914 H   0  0  0  0  0  0  0  0  0  0  0  0
   41.0760   30.5899   40.2751 H   0  0  0  0  0  0  0  0  0  0  0  0
   38.0569   34.1863   40.7973 H   0  0  0  0  0  0  0  0  0  0  0  0
   39.4057   32.3067   36.5490 H   0  0  0  0  0  0  0  0  0  0  0  0
   39.0882   30.3045   48.4409 H   0  0  0  0  0  0  0  0  0  0  0  0
   38.1452   33.3197   48.7800 H   0  0  0  0  0  0  0  0  0  0  0  0
   39.6151   33.2610   48.2982 H   0  0  0  0  0  0  0  0  0  0  0  0
   37.1354   31.8960   46.4225 H   0  0  0  0  0  0  0  0  0  0  0  0
   34.0593   30.3260   49.2502 H   0  0  0  0  0  0  0  0  0  0  0  0
   34.6709   29.1323   51.3932 H   0  0  0  0  0  0  0  0  0  0  0  0
   37.1631   28.9347   52.0080 H   0  0  0  0  0  0  0  0  0  0  0  0
  1  3  1  0
  2  1  2  0
  3 17  1  0
  4  5  2  0
  4  1  1  0
  6  5  1  0
  7  6  2  0
  8  7  1  0
  8  9  2  0
  9  4  1  0
 10 11  2  0
 10  8  1  0
 12 11  1  0
 13 12  1  0
 13 14  2  0
 14 10  1  0
 15 22  1  0
 16 15  1  0
 17 16  1  0
 17 15  1  0
 18 19  2  0
 19 20  1  0
 21 20  2  0
 22 21  1  0
 23 22  2  0
 23 18  1  0
  3 24  1  0
  5 25  1  0
  6 26  1  0
  7 27  1  0
 11 28  1  0
 13 29  1  0
 15 30  1  6
 16 31  1  0
 16 32  1  0
 17 33  1  6
 18 34  1  0
 19 35  1  0
 20 36  1  0
M  ISO  8  25  14  26  14  27  14  28  14  29  14  30  13  31  13  32  13
M  ISO  4  33  13  34  14  35  14  36  14
M  END
>  <minimizedAffinity>  (1) 
-5.18404341

>  <minimizedRMSD>  (1) 
0.557098091

$$$$
