
     RDKit          3D

 38 42  0  0  1  0  0  0  0  0999 V2000
   35.8470   29.4820   50.7080 C   0  0  0  0  0  0  0  0  0  0  0  0
   36.5860   30.2080   49.8010 C   0  0  0  0  0  0  0  0  0  0  0  0
   36.2990   30.0960   48.4430 C   0  0  0  0  0  0  0  0  0  0  0  0
   35.2770   29.2540   48.0590 N   0  0  0  0  0  0  0  0  0  0  0  0
   34.5830   28.5650   48.9880 C   0  0  0  0  0  0  0  0  0  0  0  0
   34.8480   28.6650   50.2840 N   0  0  0  0  0  0  0  0  0  0  0  0
   36.6330   30.5580   46.0900 C   0  0  0  0  0  0  0  0  0  0  0  0
   37.0140   30.8080   47.4070 C   0  0  0  0  0  0  0  0  0  0  0  0
   38.0320   31.6920   47.6460 C   0  0  0  0  0  0  0  0  0  0  0  0
   38.6600   32.3170   46.5940 C   0  0  0  0  0  0  0  0  0  0  0  0
   39.6730   33.2100   46.6020 N   0  0  0  0  0  0  0  0  0  0  0  0
   39.9370   33.5250   45.3330 C   0  0  0  0  0  0  0  0  0  0  0  0
   39.1170   32.8560   44.5100 N   0  0  0  0  0  0  0  0  0  0  0  0
   38.3120   32.0960   45.2770 C   0  0  0  0  0  0  0  0  0  0  0  0
   37.2770   31.1960   45.0320 C   0  0  0  0  0  0  0  0  0  0  0  0
   33.5050   27.7060   48.5230 C   0  0  0  0  0  0  0  0  0  0  0  0
   33.7070   26.5580   48.0480 O   0  0  0  0  0  0  0  0  0  0  0  0
   32.0790   28.2080   48.6090 C   0  0  1  0  0  0  0  0  0  0  0  0
   31.2600   28.0350   47.3130 C   0  0  0  0  0  0  0  0  0  0  0  0
   30.9700   27.2560   48.5430 C   0  0  2  0  0  0  0  0  0  0  0  0
   29.7390   27.5450   49.3360 C   0  0  0  0  0  0  0  0  0  0  0  0
   28.9080   28.6170   48.8010 C   0  0  0  0  0  0  0  0  0  0  0  0
   27.5580   28.6240   50.0460 S   0  0  0  0  0  0  0  0  0  0  0  0
   28.3280   27.2090   51.0580 C   0  0  0  0  0  0  0  0  0  0  0  0
   29.4860   26.8370   50.4360 N   0  0  0  0  0  0  0  0  0  0  0  0
   36.0670   29.5641   51.7827 H   0  0  0  0  0  0  0  0  0  0  0  0
   37.3946   30.8695   50.1455 H   0  0  0  0  0  0  0  0  0  0  0  0
   35.8163   29.8505   45.8839 H   0  0  0  0  0  0  0  0  0  0  0  0
   38.3473   31.9022   48.6787 H   0  0  0  0  0  0  0  0  0  0  0  0
   40.1534   33.5798   47.4347 H   0  0  0  0  0  0  0  0  0  0  0  0
   40.7151   34.2316   45.0086 H   0  0  0  0  0  0  0  0  0  0  0  0
   36.9666   30.9880   43.9974 H   0  0  0  0  0  0  0  0  0  0  0  0
   32.3361   29.0186   49.3067 H   0  0  0  0  0  0  0  0  0  0  0  0
   31.7050   27.5434   46.4354 H   0  0  0  0  0  0  0  0  0  0  0  0
   30.6907   28.6962   46.6432 H   0  0  0  0  0  0  0  0  0  0  0  0
   30.8688   26.1788   48.7414 H   0  0  0  0  0  0  0  0  0  0  0  0
   29.0493   29.2426   47.9073 H   0  0  0  0  0  0  0  0  0  0  0  0
   27.9152   26.7696   51.9781 H   0  0  0  0  0  0  0  0  0  0  0  0
  2  1  2  0
  3  2  1  0
  4  3  2  0
  4  5  1  0
  5  6  2  0
  6  1  1  0
  7  8  2  0
  8  9  1  0
  8  3  1  0
 10 11  1  0
 10  9  2  0
 12 11  1  0
 13 14  1  0
 13 12  2  0
 14 10  1  0
 15 14  2  0
 15  7  1  0
 16 18  1  0
 16  5  1  0
 17 16  2  0
 19 20  1  0
 19 18  1  0
 20 18  1  0
 20 21  1  0
 21 25  1  0
 22 21  2  0
 22 23  1  0
 23 24  1  0
 25 24  2  0
  1 26  1  0
  2 27  1  0
  7 28  1  0
  9 29  1  0
 11 30  1  0
 12 31  1  0
 15 32  1  0
 18 33  1  1
 19 34  1  0
 19 35  1  0
 20 36  1  6
 22 37  1  0
 24 38  1  0
M  ISO  8  26  14  27  14  28  14  29  14  30   9  31  14  32  14  33  13
M  ISO  5  34  13  35  13  36  13  37  14  38  14
M  END
>  <minimizedAffinity>  (1) 
-6.85082579

>  <minimizedRMSD>  (1) 
0.619911969

$$$$
