
     RDKit          3D

 41 45  0  0  0  0  0  0  0  0999 V2000
   38.3130   31.4110   46.5950 C   0  0  0  0  0  0  0  0  0  0  0  0
   38.7620   31.4650   45.2970 N   0  0  0  0  0  0  0  0  0  0  0  0
   39.6150   32.4490   44.9340 C   0  0  0  0  0  0  0  0  0  0  0  0
   40.0590   33.3930   45.7850 N   0  0  0  0  0  0  0  0  0  0  0  0
   39.6490   33.3830   47.0620 C   0  0  0  0  0  0  0  0  0  0  0  0
   40.1030   34.3420   47.9240 C   0  0  0  0  0  0  0  0  0  0  0  0
   39.6910   34.3400   49.2410 C   0  0  0  0  0  0  0  0  0  0  0  0
   38.8080   33.3500   49.6850 C   0  0  0  0  0  0  0  0  0  0  0  0
   38.3790   32.3980   48.7580 C   0  0  0  0  0  0  0  0  0  0  0  0
   38.7770   32.3880   47.4560 C   0  0  0  0  0  0  0  0  0  0  0  0
   37.4710   31.4630   49.4190 C   0  0  0  0  0  0  0  0  0  0  0  0
   37.9570   30.3480   50.1000 C   0  0  0  0  0  0  0  0  0  0  0  0
   36.4460   29.5550   50.7740 S   0  0  0  0  0  0  0  0  0  0  0  0
   35.3740   30.9190   49.9890 C   0  0  0  0  0  0  0  0  0  0  0  0
   36.1570   31.5750   49.4800 N   0  0  0  0  0  0  0  0  0  0  0  0
   37.2080   30.1990   47.2400 S   0  0  0  0  0  0  0  0  0  0  0  0
   34.8260   28.6230   47.8850 F   0  0  0  0  0  0  0  0  0  0  0  0
   34.7200   29.2030   46.6450 C   0  0  0  0  0  0  0  0  0  0  0  0
   33.5910   29.0120   45.8690 C   0  0  0  0  0  0  0  0  0  0  0  0
   33.5290   29.6230   44.6120 C   0  0  0  0  0  0  0  0  0  0  0  0
   34.5800   30.4110   44.1410 C   0  0  0  0  0  0  0  0  0  0  0  0
   35.6670   30.5540   44.9720 C   0  0  0  0  0  0  0  0  0  0  0  0
   35.7650   29.9690   46.2150 C   0  0  0  0  0  0  0  0  0  0  0  0
   32.7220   26.8350   46.2110 C   0  0  0  0  0  0  0  0  0  0  0  0
   32.5580   28.1990   46.4040 C   0  0  0  0  0  0  0  0  0  0  0  0
   31.4160   28.5970   47.0890 C   0  0  0  0  0  0  0  0  0  0  0  0
   30.5410   27.6550   47.5250 N   0  0  0  0  0  0  0  0  0  0  0  0
   30.7370   26.3650   47.3180 C   0  0  0  0  0  0  0  0  0  0  0  0
   31.8170   25.9280   46.6660 N   0  0  0  0  0  0  0  0  0  0  0  0
   39.9637   32.4799   43.8912 H   0  0  0  0  0  0  0  0  0  0  0  0
   40.7979   35.1165   47.5672 H   0  0  0  0  0  0  0  0  0  0  0  0
   40.0542   35.1110   49.9364 H   0  0  0  0  0  0  0  0  0  0  0  0
   38.4633   33.3224   50.7292 H   0  0  0  0  0  0  0  0  0  0  0  0
   39.0015   30.0204   50.2080 H   0  0  0  0  0  0  0  0  0  0  0  0
   34.2814   31.0428   50.0185 H   0  0  0  0  0  0  0  0  0  0  0  0
   32.6370   29.4799   43.9845 H   0  0  0  0  0  0  0  0  0  0  0  0
   34.5412   30.8942   43.1536 H   0  0  0  0  0  0  0  0  0  0  0  0
   36.5074   31.1720   44.6231 H   0  0  0  0  0  0  0  0  0  0  0  0
   33.6119   26.4761   45.6731 H   0  0  0  0  0  0  0  0  0  0  0  0
   31.2232   29.6637   47.2758 H   0  0  0  0  0  0  0  0  0  0  0  0
   29.9984   25.6392   47.6889 H   0  0  0  0  0  0  0  0  0  0  0  0
  1 16  1  0
  1 10  1  0
  2  1  2  0
  3  2  1  0
  3  4  2  0
  4  5  1  0
  5 10  2  0
  5  6  1  0
  6  7  2  0
  7  8  1  0
  9 11  1  0
  9  8  2  0
 10  9  1  0
 11 15  1  0
 11 12  2  0
 12 13  1  0
 14 13  1  0
 15 14  2  0
 18 17  1  0
 19 25  1  0
 19 18  2  0
 20 19  1  0
 21 20  2  0
 21 22  1  0
 22 23  2  0
 23 18  1  0
 23 16  1  0
 24 25  2  0
 24 29  1  0
 25 26  1  0
 26 27  2  0
 28 27  1  0
 29 28  2  0
  3 30  1  0
  6 31  1  0
  7 32  1  0
  8 33  1  0
 12 34  1  0
 14 35  1  0
 20 36  1  0
 21 37  1  0
 22 38  1  0
 24 39  1  0
 26 40  1  0
 28 41  1  0
M  ISO  8  30  14  31  14  32  14  33  14  34  14  35  14  36  14  37  14
M  ISO  4  38  14  39  14  40  14  41  14
M  END
>  <minimizedAffinity>  (1) 
-5.78259087

>  <minimizedRMSD>  (1) 
1.24650574

$$$$
