
     RDKit          3D

 33 36  0  0  0  0  0  0  0  0999 V2000
   38.8060   30.7860   45.6840 C   0  0  0  0  0  0  0  0  0  0  0  0
   40.0110   31.4330   45.8610 C   0  0  0  0  0  0  0  0  0  0  0  0
   40.7920   31.2830   44.7100 C   0  0  0  0  0  0  0  0  0  0  0  0
   40.0090   30.5350   43.8700 N   0  0  0  0  0  0  0  0  0  0  0  0
   38.8580   30.2520   44.4450 N   0  0  0  0  0  0  0  0  0  0  0  0
   41.3700   29.1470   42.3550 C   0  0  0  0  0  0  0  0  0  0  0  0
   40.5330   30.2080   42.5940 C   0  0  0  0  0  0  0  0  0  0  0  0
   40.1230   31.0660   41.5830 C   0  0  0  0  0  0  0  0  0  0  0  0
   40.5560   30.8730   40.2670 C   0  0  0  0  0  0  0  0  0  0  0  0
   40.3380   31.5180   39.0990 N   0  0  0  0  0  0  0  0  0  0  0  0
   41.0390   30.8580   38.1380 C   0  0  0  0  0  0  0  0  0  0  0  0
   41.6820   29.8180   38.7050 N   0  0  0  0  0  0  0  0  0  0  0  0
   41.4040   29.7990   40.0240 C   0  0  0  0  0  0  0  0  0  0  0  0
   41.7890   28.9670   41.0600 C   0  0  0  0  0  0  0  0  0  0  0  0
   37.6970   30.6920   46.6350 C   0  0  0  0  0  0  0  0  0  0  0  0
   38.0000   30.9550   48.0080 C   0  0  0  0  0  0  0  0  0  0  0  0
   36.9350   30.8650   48.9200 C   0  0  0  0  0  0  0  0  0  0  0  0
   35.7090   30.5360   48.4400 N   0  0  0  0  0  0  0  0  0  0  0  0
   35.4650   30.2940   47.1360 C   0  0  0  0  0  0  0  0  0  0  0  0
   36.4720   30.3770   46.2520 N   0  0  0  0  0  0  0  0  0  0  0  0
   37.2050   31.1310   50.3550 C   0  0  0  0  0  0  0  0  0  0  0  0
   36.6950   32.3920   50.6080 F   0  0  0  0  0  0  0  0  0  0  0  0
   36.5820   30.2370   51.1930 F   0  0  0  0  0  0  0  0  0  0  0  0
   38.5710   31.1680   50.6260 F   0  0  0  0  0  0  0  0  0  0  0  0
   40.3112   31.9815   46.7660 H   0  0  0  0  0  0  0  0  0  0  0  0
   41.8024   31.6753   44.5223 H   0  0  0  0  0  0  0  0  0  0  0  0
   41.6901   28.4726   43.1629 H   0  0  0  0  0  0  0  0  0  0  0  0
   39.4518   31.9050   41.8187 H   0  0  0  0  0  0  0  0  0  0  0  0
   39.7508   32.3531   38.9623 H   0  0  0  0  0  0  0  0  0  0  0  0
   41.0751   31.1288   37.0725 H   0  0  0  0  0  0  0  0  0  0  0  0
   42.4601   28.1245   40.8365 H   0  0  0  0  0  0  0  0  0  0  0  0
   39.0178   31.2152   48.3341 H   0  0  0  0  0  0  0  0  0  0  0  0
   34.4511   30.0312   46.8000 H   0  0  0  0  0  0  0  0  0  0  0  0
  1  2  1  0
  1 15  1  0
  3  2  2  0
  4  5  1  0
  4  3  1  0
  5  1  2  0
  6  7  2  0
  7  4  1  0
  8  7  1  0
  9  8  2  0
 10  9  1  0
 11 12  2  0
 11 10  1  0
 12 13  1  0
 13  9  1  0
 13 14  2  0
 14  6  1  0
 15 16  2  0
 16 17  1  0
 17 21  1  0
 18 17  2  0
 19 18  1  0
 20 15  1  0
 20 19  2  0
 21 22  1  0
 21 24  1  0
 21 23  1  0
  2 25  1  0
  3 26  1  0
  6 27  1  0
  8 28  1  0
 10 29  1  0
 11 30  1  0
 14 31  1  0
 16 32  1  0
 19 33  1  0
M  ISO  8  25  14  26  14  27  14  28  14  29   9  30  14  31  14  32  14
M  ISO  1  33  14
M  END
>  <minimizedAffinity>  (1) 
-6.43952227

>  <minimizedRMSD>  (1) 
1.37303555

$$$$
