
     RDKit          3D

 47 51  0  0  0  0  0  0  0  0999 V2000
   33.7380   28.8970   47.3990 C   0  0  0  0  0  0  0  0  0  0  0  0
   33.6440   28.2400   48.6340 C   0  0  0  0  0  0  0  0  0  0  0  0
   34.5100   28.3720   49.6700 C   0  0  0  0  0  0  0  0  0  0  0  0
   35.5740   29.1920   49.5650 C   0  0  0  0  0  0  0  0  0  0  0  0
   35.6740   29.8280   48.3830 C   0  0  0  0  0  0  0  0  0  0  0  0
   34.8050   29.6700   47.3970 N   0  0  0  0  0  0  0  0  0  0  0  0
   31.5150   29.3600   46.7240 C   0  0  0  0  0  0  0  0  0  0  0  0
   32.7230   28.6670   46.3700 C   0  0  0  0  0  0  0  0  0  0  0  0
   32.7120   27.9670   45.2030 C   0  0  0  0  0  0  0  0  0  0  0  0
   31.5590   27.9810   44.4660 N   0  0  0  0  0  0  0  0  0  0  0  0
   30.4470   28.6300   44.8060 C   0  0  0  0  0  0  0  0  0  0  0  0
   30.4490   29.3190   45.9500 N   0  0  0  0  0  0  0  0  0  0  0  0
   29.3620   28.5220   43.9100 N   0  0  0  0  0  0  0  0  0  0  0  0
   33.9080   27.2470   44.7980 C   0  0  0  0  0  0  0  0  0  0  0  0
   34.2950   26.4460   45.7750 F   0  0  0  0  0  0  0  0  0  0  0  0
   33.7720   26.5030   43.6360 F   0  0  0  0  0  0  0  0  0  0  0  0
   34.9880   28.1530   44.5300 F   0  0  0  0  0  0  0  0  0  0  0  0
   36.8390   30.0670   45.8830 F   0  0  0  0  0  0  0  0  0  0  0  0
   37.3580   30.8680   46.8630 C   0  0  0  0  0  0  0  0  0  0  0  0
   36.7860   30.7640   48.1190 C   0  0  0  0  0  0  0  0  0  0  0  0
   37.3420   31.5890   49.0610 C   0  0  0  0  0  0  0  0  0  0  0  0
   38.3810   32.4490   48.7770 C   0  0  0  0  0  0  0  0  0  0  0  0
   38.9070   32.5030   47.5020 C   0  0  0  0  0  0  0  0  0  0  0  0
   38.3890   31.6980   46.5180 C   0  0  0  0  0  0  0  0  0  0  0  0
   38.6700   32.7140   44.2370 C   0  0  0  0  0  0  0  0  0  0  0  0
   38.8940   31.7000   45.1450 C   0  0  0  0  0  0  0  0  0  0  0  0
   39.6480   30.5820   44.7750 C   0  0  0  0  0  0  0  0  0  0  0  0
   40.1810   30.4660   43.5050 C   0  0  0  0  0  0  0  0  0  0  0  0
   40.9290   29.5360   42.8680 N   0  0  0  0  0  0  0  0  0  0  0  0
   41.1830   29.9310   41.5920 C   0  0  0  0  0  0  0  0  0  0  0  0
   40.5660   31.1400   41.4510 N   0  0  0  0  0  0  0  0  0  0  0  0
   39.9540   31.4840   42.5980 C   0  0  0  0  0  0  0  0  0  0  0  0
   39.2090   32.5950   42.9520 C   0  0  0  0  0  0  0  0  0  0  0  0
   32.7931   27.5574   48.7754 H   0  0  0  0  0  0  0  0  0  0  0  0
   34.3429   27.8075   50.5992 H   0  0  0  0  0  0  0  0  0  0  0  0
   36.3013   29.3303   50.3786 H   0  0  0  0  0  0  0  0  0  0  0  0
   31.4792   29.9365   47.6601 H   0  0  0  0  0  0  0  0  0  0  0  0
   28.4739   29.0011   44.1165 H   0  0  0  0  0  0  0  0  0  0  0  0
   29.4582   27.9641   43.0495 H   0  0  0  0  0  0  0  0  0  0  0  0
   36.9429   31.5640   50.0858 H   0  0  0  0  0  0  0  0  0  0  0  0
   38.7918   33.0936   49.5680 H   0  0  0  0  0  0  0  0  0  0  0  0
   39.7374   33.1879   47.2754 H   0  0  0  0  0  0  0  0  0  0  0  0
   38.0793   33.5984   44.5180 H   0  0  0  0  0  0  0  0  0  0  0  0
   39.8201   29.7802   45.5081 H   0  0  0  0  0  0  0  0  0  0  0  0
   41.2586   28.6556   43.2889 H   0  0  0  0  0  0  0  0  0  0  0  0
   41.7646   29.3890   40.8318 H   0  0  0  0  0  0  0  0  0  0  0  0
   39.0388   33.3933   42.2146 H   0  0  0  0  0  0  0  0  0  0  0  0
  1  2  2  0
  2  3  1  0
  4  3  2  0
  5  4  1  0
  6  1  1  0
  6  5  2  0
  8  7  2  0
  8  1  1  0
  9  8  1  0
 10 11  1  0
 10  9  2  0
 11 12  2  0
 12  7  1  0
 13 11  1  0
 14  9  1  0
 14 15  1  0
 16 14  1  0
 17 14  1  0
 18 19  1  0
 19 20  2  0
 20  5  1  0
 20 21  1  0
 22 21  2  0
 23 22  1  0
 24 19  1  0
 24 23  2  0
 25 26  2  0
 26 24  1  0
 27 26  1  0
 28 27  2  0
 29 28  1  0
 30 29  1  0
 31 30  2  0
 31 32  1  0
 32 33  2  0
 32 28  1  0
 33 25  1  0
  2 34  1  0
  3 35  1  0
  4 36  1  0
  7 37  1  0
 13 38  1  0
 13 39  1  0
 21 40  1  0
 22 41  1  0
 23 42  1  0
 25 43  1  0
 27 44  1  0
 29 45  1  0
 30 46  1  0
 33 47  1  0
M  ISO  8  34  14  35  14  36  14  37  14  40  14  41  14  42  14  43  14
M  ISO  4  44  14  45   9  46  14  47  14
M  END
>  <minimizedAffinity>  (1) 
-7.33142471

>  <minimizedRMSD>  (1) 
5.89422083

$$$$
