
     RDKit          3D

 46 50  0  0  1  0  0  0  0  0999 V2000
   35.2700   29.3230   47.8900 C   0  0  0  0  0  0  0  0  0  0  0  0
   35.1510   29.9270   46.6390 C   0  0  0  0  0  0  0  0  0  0  0  0
   34.0490   29.5640   45.8600 C   0  0  0  0  0  0  0  0  0  0  0  0
   33.1710   28.6410   46.3880 N   0  0  0  0  0  0  0  0  0  0  0  0
   33.3320   28.0910   47.5910 C   0  0  0  0  0  0  0  0  0  0  0  0
   34.3910   28.4310   48.3590 N   0  0  0  0  0  0  0  0  0  0  0  0
   36.4080   29.6960   48.6970 N   0  0  0  0  0  0  0  0  0  0  0  0
   37.5480   30.4560   48.2750 C   0  0  0  0  0  0  0  0  0  0  0  0
   37.9900   31.1260   49.5730 C   0  0  2  0  0  0  0  0  0  0  0  0
   36.9440   30.7580   50.6190 C   0  0  0  0  0  0  0  0  0  0  0  0
   36.6130   29.3680   50.1000 C   0  0  0  0  0  0  0  0  0  0  0  0
   38.1430   32.6110   49.4300 C   0  0  0  0  0  0  0  0  0  0  0  0
   37.0030   33.1790   49.9570 F   0  0  0  0  0  0  0  0  0  0  0  0
   38.1320   32.8860   48.0750 F   0  0  0  0  0  0  0  0  0  0  0  0
   39.2770   33.1020   50.0160 F   0  0  0  0  0  0  0  0  0  0  0  0
   32.1590   26.9060   48.2090 S   0  0  0  0  0  0  0  0  0  0  0  0
   30.6960   27.4770   48.8080 C   0  0  0  0  0  0  0  0  0  0  0  0
   29.8920   27.3750   49.9010 C   0  0  0  0  0  0  0  0  0  0  0  0
   28.6880   28.0080   50.0620 C   0  0  0  0  0  0  0  0  0  0  0  0
   28.3290   28.8500   48.8880 C   0  0  0  0  0  0  0  0  0  0  0  0
   29.7110   28.6450   47.7250 S   0  0  0  0  0  0  0  0  0  0  0  0
   25.9290   29.1970   49.3460 C   0  0  0  0  0  0  0  0  0  0  0  0
   27.1320   29.6080   48.8070 C   0  0  0  0  0  0  0  0  0  0  0  0
   27.2740   30.8060   48.1360 C   0  0  0  0  0  0  0  0  0  0  0  0
   26.1910   31.6760   47.9670 C   0  0  0  0  0  0  0  0  0  0  0  0
   26.0180   32.8690   47.3830 N   0  0  0  0  0  0  0  0  0  0  0  0
   24.7210   33.2350   47.5360 C   0  0  0  0  0  0  0  0  0  0  0  0
   24.1000   32.2490   48.2230 N   0  0  0  0  0  0  0  0  0  0  0  0
   24.9890   31.2690   48.5030 C   0  0  0  0  0  0  0  0  0  0  0  0
   24.8730   30.0660   49.1680 C   0  0  0  0  0  0  0  0  0  0  0  0
   35.8918   30.6570   46.2810 H   0  0  0  0  0  0  0  0  0  0  0  0
   33.8879   29.9985   44.8624 H   0  0  0  0  0  0  0  0  0  0  0  0
   38.3371   29.8021   47.8753 H   0  0  0  0  0  0  0  0  0  0  0  0
   37.3284   31.1668   47.4647 H   0  0  0  0  0  0  0  0  0  0  0  0
   38.9884   30.7721   49.8697 H   0  0  0  0  0  0  0  0  0  0  0  0
   37.3612   30.7353   51.6366 H   0  0  0  0  0  0  0  0  0  0  0  0
   36.0964   31.4515   50.7215 H   0  0  0  0  0  0  0  0  0  0  0  0
   35.7043   28.9587   50.5656 H   0  0  0  0  0  0  0  0  0  0  0  0
   37.3684   28.5940   50.3010 H   0  0  0  0  0  0  0  0  0  0  0  0
   30.2374   26.7310   50.7232 H   0  0  0  0  0  0  0  0  0  0  0  0
   28.0576   27.9057   50.9576 H   0  0  0  0  0  0  0  0  0  0  0  0
   25.8204   28.2419   49.8807 H   0  0  0  0  0  0  0  0  0  0  0  0
   28.2569   31.0820   47.7265 H   0  0  0  0  0  0  0  0  0  0  0  0
   26.7457   33.4152   46.9002 H   0  0  0  0  0  0  0  0  0  0  0  0
   24.2589   34.1633   47.1688 H   0  0  0  0  0  0  0  0  0  0  0  0
   23.8906   29.7863   49.5761 H   0  0  0  0  0  0  0  0  0  0  0  0
  1  6  1  0
  1  7  1  0
  2  1  2  0
  3  4  2  0
  3  2  1  0
  4  5  1  0
  5 16  1  0
  5  6  2  0
  7 11  1  0
  8  7  1  0
  8  9  1  0
  9 10  1  0
 11 10  1  0
 12  9  1  0
 12 13  1  0
 12 15  1  0
 14 12  1  0
 16 17  1  0
 17 18  2  0
 18 19  1  0
 20 19  2  0
 21 17  1  0
 21 20  1  0
 23 20  1  0
 23 22  2  0
 24 23  1  0
 25 24  2  0
 25 29  1  0
 26 27  1  0
 26 25  1  0
 27 28  2  0
 28 29  1  0
 29 30  2  0
 30 22  1  0
  2 31  1  0
  3 32  1  0
  8 33  1  0
  8 34  1  0
  9 35  1  1
 10 36  1  0
 10 37  1  0
 11 38  1  0
 11 39  1  0
 18 40  1  0
 19 41  1  0
 22 42  1  0
 24 43  1  0
 26 44  1  0
 27 45  1  0
 30 46  1  0
M  ISO  8  31  14  32  14  33  13  34  13  35  13  36  13  37  13  38  13
M  ISO  8  39  13  40  14  41  14  42  14  43  14  44   9  45  14  46  14
M  END
>  <minimizedAffinity>  (1) 
-7.76089144

>  <minimizedRMSD>  (1) 
0.613290846

$$$$
