
     RDKit          3D

 44 48  0  0  0  0  0  0  0  0999 V2000
   37.2110   30.1370   50.2210 C   0  0  0  0  0  0  0  0  0  0  0  0
   37.9580   30.8750   49.3030 C   0  0  0  0  0  0  0  0  0  0  0  0
   37.5000   30.9390   48.0040 C   0  0  0  0  0  0  0  0  0  0  0  0
   36.3570   30.2850   47.6990 N   0  0  0  0  0  0  0  0  0  0  0  0
   35.6440   29.5770   48.5860 C   0  0  0  0  0  0  0  0  0  0  0  0
   36.0950   29.5150   49.8650 N   0  0  0  0  0  0  0  0  0  0  0  0
   39.2570   32.4690   47.3230 C   0  0  0  0  0  0  0  0  0  0  0  0
   38.1930   31.6750   46.9590 C   0  0  0  0  0  0  0  0  0  0  0  0
   37.8360   31.6150   45.6340 C   0  0  0  0  0  0  0  0  0  0  0  0
   38.5610   32.3580   44.7020 C   0  0  0  0  0  0  0  0  0  0  0  0
   38.3600   32.4270   43.3610 N   0  0  0  0  0  0  0  0  0  0  0  0
   39.3130   33.2700   42.9240 C   0  0  0  0  0  0  0  0  0  0  0  0
   40.0850   33.7190   43.9290 N   0  0  0  0  0  0  0  0  0  0  0  0
   39.6250   33.1520   45.0740 C   0  0  0  0  0  0  0  0  0  0  0  0
   39.9930   33.2170   46.4170 C   0  0  0  0  0  0  0  0  0  0  0  0
   34.4170   28.8930   48.1820 C   0  0  0  0  0  0  0  0  0  0  0  0
   34.1350   27.6570   48.7320 C   0  0  0  0  0  0  0  0  0  0  0  0
   32.9630   27.0990   48.2790 C   0  0  0  0  0  0  0  0  0  0  0  0
   32.1450   27.7130   47.3640 C   0  0  0  0  0  0  0  0  0  0  0  0
   32.5020   28.9370   46.8730 C   0  0  0  0  0  0  0  0  0  0  0  0
   33.6420   29.5190   47.2900 N   0  0  0  0  0  0  0  0  0  0  0  0
   29.5210   28.9360   47.3960 Cl  0  0  0  0  0  0  0  0  0  0  0  0
   30.3110   29.6950   46.0490 C   0  0  0  0  0  0  0  0  0  0  0  0
   31.6700   29.6340   45.9060 C   0  0  0  0  0  0  0  0  0  0  0  0
   32.1550   30.2880   44.7830 C   0  0  0  0  0  0  0  0  0  0  0  0
   31.3880   30.9490   43.8690 C   0  0  0  0  0  0  0  0  0  0  0  0
   30.0230   30.9870   44.0490 C   0  0  0  0  0  0  0  0  0  0  0  0
   29.0110   31.8250   42.8990 Cl  0  0  0  0  0  0  0  0  0  0  0  0
   29.4980   30.3560   45.1440 C   0  0  0  0  0  0  0  0  0  0  0  0
   37.6060   30.0080   51.6050 N   0  0  0  0  0  0  0  0  0  0  0  0
   38.8822   31.3891   49.6054 H   0  0  0  0  0  0  0  0  0  0  0  0
   39.5372   32.5121   48.3858 H   0  0  0  0  0  0  0  0  0  0  0  0
   36.9901   30.9897   45.3122 H   0  0  0  0  0  0  0  0  0  0  0  0
   37.6408   31.9435   42.8044 H   0  0  0  0  0  0  0  0  0  0  0  0
   39.4448   33.5575   41.8705 H   0  0  0  0  0  0  0  0  0  0  0  0
   40.8377   33.8399   46.7463 H   0  0  0  0  0  0  0  0  0  0  0  0
   34.7893   27.1640   49.4661 H   0  0  0  0  0  0  0  0  0  0  0  0
   32.6669   26.1138   48.6684 H   0  0  0  0  0  0  0  0  0  0  0  0
   31.2160   27.2271   47.0310 H   0  0  0  0  0  0  0  0  0  0  0  0
   33.2422   30.2724   44.6167 H   0  0  0  0  0  0  0  0  0  0  0  0
   31.8518   31.4434   43.0027 H   0  0  0  0  0  0  0  0  0  0  0  0
   28.4105   30.3743   45.3081 H   0  0  0  0  0  0  0  0  0  0  0  0
   37.0300   29.4549   52.2555 H   0  0  0  0  0  0  0  0  0  0  0  0
   38.4635   30.4692   51.9410 H   0  0  0  0  0  0  0  0  0  0  0  0
  1 30  1  0
  2  1  2  0
  3  2  1  0
  4  3  2  0
  4  5  1  0
  5  6  2  0
  6  1  1  0
  8  7  2  0
  8  3  1  0
  9  8  1  0
 10 14  1  0
 10  9  2  0
 11 10  1  0
 12 11  1  0
 12 13  2  0
 13 14  1  0
 14 15  2  0
 15  7  1  0
 16  5  1  0
 16 17  2  0
 18 17  1  0
 19 18  2  0
 20 21  2  0
 20 19  1  0
 21 16  1  0
 23 22  1  0
 24 23  2  0
 24 20  1  0
 25 24  1  0
 26 27  1  0
 26 25  2  0
 27 29  2  0
 28 27  1  0
 29 23  1  0
  2 31  1  0
  7 32  1  0
  9 33  1  0
 11 34  1  0
 12 35  1  0
 15 36  1  0
 17 37  1  0
 18 38  1  0
 19 39  1  0
 25 40  1  0
 26 41  1  0
 29 42  1  0
 30 43  1  0
 30 44  1  0
M  ISO  8  31  14  32  14  33  14  34   9  35  14  36  14  37  14  38  14
M  ISO  4  39  14  40  14  41  14  42  14
M  END
>  <minimizedAffinity>  (1) 
-7.42294025

>  <minimizedRMSD>  (1) 
1.25722456

$$$$
