
     RDKit          3D

 43 47  0  0  0  0  0  0  0  0999 V2000
   36.8990   32.6320   43.4870 Cl  0  0  0  0  0  0  0  0  0  0  0  0
   37.8210   31.1660   43.1840 C   0  0  0  0  0  0  0  0  0  0  0  0
   38.5580   30.7010   44.2540 C   0  0  0  0  0  0  0  0  0  0  0  0
   39.3280   29.5380   44.1140 C   0  0  0  0  0  0  0  0  0  0  0  0
   39.3560   28.8490   42.9080 C   0  0  0  0  0  0  0  0  0  0  0  0
   38.5990   29.3520   41.8590 C   0  0  0  0  0  0  0  0  0  0  0  0
   37.8270   30.5100   41.9830 C   0  0  0  0  0  0  0  0  0  0  0  0
   35.7050   30.7710   40.6240 C   0  0  0  0  0  0  0  0  0  0  0  0
   37.0310   31.0420   40.8830 C   0  0  0  0  0  0  0  0  0  0  0  0
   37.6830   31.9080   40.0120 C   0  0  0  0  0  0  0  0  0  0  0  0
   37.0290   32.4780   38.9270 C   0  0  0  0  0  0  0  0  0  0  0  0
   37.4280   33.3360   37.9470 N   0  0  0  0  0  0  0  0  0  0  0  0
   36.3820   33.5780   37.1210 C   0  0  0  0  0  0  0  0  0  0  0  0
   35.3370   32.8790   37.5780 N   0  0  0  0  0  0  0  0  0  0  0  0
   35.6960   32.1940   38.6810 C   0  0  0  0  0  0  0  0  0  0  0  0
   35.0520   31.3350   39.5470 C   0  0  0  0  0  0  0  0  0  0  0  0
   38.6870   32.9290   49.7850 Cl  0  0  0  0  0  0  0  0  0  0  0  0
   38.6480   32.2730   48.1570 C   0  0  0  0  0  0  0  0  0  0  0  0
   37.8940   31.1570   47.8740 C   0  0  0  0  0  0  0  0  0  0  0  0
   37.9110   30.7010   46.5830 C   0  0  0  0  0  0  0  0  0  0  0  0
   38.6390   31.3010   45.5790 C   0  0  0  0  0  0  0  0  0  0  0  0
   39.3910   32.4320   45.9100 C   0  0  0  0  0  0  0  0  0  0  0  0
   40.2960   33.1640   44.6150 Cl  0  0  0  0  0  0  0  0  0  0  0  0
   39.4000   32.9220   47.1950 C   0  0  0  0  0  0  0  0  0  0  0  0
   37.0160   29.3540   51.0870 C   0  0  0  0  0  0  0  0  0  0  0  0
   37.7710   29.9160   50.0470 C   0  0  0  0  0  0  0  0  0  0  0  0
   37.1370   30.5550   48.9810 C   0  0  0  0  0  0  0  0  0  0  0  0
   35.7730   30.5960   49.0100 N   0  0  0  0  0  0  0  0  0  0  0  0
   35.0800   30.0420   50.0280 C   0  0  0  0  0  0  0  0  0  0  0  0
   35.6820   29.4360   51.0420 N   0  0  0  0  0  0  0  0  0  0  0  0
   39.9155   29.1675   44.9670 H   0  0  0  0  0  0  0  0  0  0  0  0
   39.9576   27.9359   42.7885 H   0  0  0  0  0  0  0  0  0  0  0  0
   38.6071   28.8203   40.8961 H   0  0  0  0  0  0  0  0  0  0  0  0
   35.1549   30.0902   41.2903 H   0  0  0  0  0  0  0  0  0  0  0  0
   38.7424   32.1475   40.1864 H   0  0  0  0  0  0  0  0  0  0  0  0
   38.3722   33.7360   37.8498 H   0  0  0  0  0  0  0  0  0  0  0  0
   36.3904   34.2306   36.2355 H   0  0  0  0  0  0  0  0  0  0  0  0
   33.9926   31.0938   39.3750 H   0  0  0  0  0  0  0  0  0  0  0  0
   37.3136   29.8112   46.3352 H   0  0  0  0  0  0  0  0  0  0  0  0
   39.9932   33.8119   47.4522 H   0  0  0  0  0  0  0  0  0  0  0  0
   37.5150   28.8521   51.9291 H   0  0  0  0  0  0  0  0  0  0  0  0
   38.8689   29.8526   50.0720 H   0  0  0  0  0  0  0  0  0  0  0  0
   33.9814   30.0952   50.0156 H   0  0  0  0  0  0  0  0  0  0  0  0
  2  1  1  0
  2  3  2  0
  3 21  1  0
  4  3  1  0
  5  4  2  0
  6  7  2  0
  6  5  1  0
  7  2  1  0
  8  9  2  0
  9  7  1  0
 10  9  1  0
 11 10  2  0
 12 11  1  0
 13 14  2  0
 13 12  1  0
 14 15  1  0
 15 11  1  0
 15 16  2  0
 16  8  1  0
 18 17  1  0
 19 18  2  0
 19 27  1  0
 20 19  1  0
 21 22  1  0
 21 20  2  0
 22 24  2  0
 23 22  1  0
 24 18  1  0
 26 25  2  0
 27 28  2  0
 27 26  1  0
 28 29  1  0
 29 30  2  0
 30 25  1  0
  4 31  1  0
  5 32  1  0
  6 33  1  0
  8 34  1  0
 10 35  1  0
 12 36  1  0
 13 37  1  0
 16 38  1  0
 20 39  1  0
 24 40  1  0
 25 41  1  0
 26 42  1  0
 29 43  1  0
M  ISO  8  31  14  32  14  33  14  34  14  35  14  36   9  37  14  38  14
M  ISO  5  39  14  40  14  41  14  42  14  43  14
M  END
>  <minimizedAffinity>  (1) 
-6.49540424

>  <minimizedRMSD>  (1) 
0.772685766

$$$$
