
     RDKit          3D

 36 40  0  0  0  0  0  0  0  0999 V2000
   38.5810   32.8740   48.8560 C   0  0  0  0  0  0  0  0  0  0  0  0
   39.1780   32.8230   47.5740 C   0  0  0  0  0  0  0  0  0  0  0  0
   38.6210   31.9310   46.6470 C   0  0  0  0  0  0  0  0  0  0  0  0
   37.5540   31.1750   47.0190 N   0  0  0  0  0  0  0  0  0  0  0  0
   37.0150   31.2590   48.2600 C   0  0  0  0  0  0  0  0  0  0  0  0
   37.5240   32.0980   49.1650 N   0  0  0  0  0  0  0  0  0  0  0  0
   35.6080   30.1010   49.9060 C   0  0  0  0  0  0  0  0  0  0  0  0
   35.8730   30.4070   48.5660 C   0  0  0  0  0  0  0  0  0  0  0  0
   35.0760   29.9190   47.5590 C   0  0  0  0  0  0  0  0  0  0  0  0
   33.9910   29.1060   47.8670 C   0  0  0  0  0  0  0  0  0  0  0  0
   33.0580   28.5000   47.0870 N   0  0  0  0  0  0  0  0  0  0  0  0
   32.2670   27.8510   47.9730 C   0  0  0  0  0  0  0  0  0  0  0  0
   32.6890   28.0480   49.2300 N   0  0  0  0  0  0  0  0  0  0  0  0
   33.7700   28.8330   49.1980 C   0  0  0  0  0  0  0  0  0  0  0  0
   34.5320   29.2950   50.2350 C   0  0  0  0  0  0  0  0  0  0  0  0
   38.9620   32.8070   44.4120 C   0  0  0  0  0  0  0  0  0  0  0  0
   39.1220   31.7630   45.2890 C   0  0  0  0  0  0  0  0  0  0  0  0
   39.7440   30.6230   44.8340 C   0  0  0  0  0  0  0  0  0  0  0  0
   40.2020   30.5050   43.5390 C   0  0  0  0  0  0  0  0  0  0  0  0
   40.8280   29.5110   42.8800 N   0  0  0  0  0  0  0  0  0  0  0  0
   41.0730   29.8890   41.6090 C   0  0  0  0  0  0  0  0  0  0  0  0
   40.5860   31.1480   41.4830 N   0  0  0  0  0  0  0  0  0  0  0  0
   40.0480   31.5490   42.6500 C   0  0  0  0  0  0  0  0  0  0  0  0
   39.4190   32.7090   43.1020 C   0  0  0  0  0  0  0  0  0  0  0  0
   38.9874   33.5597   49.6140 H   0  0  0  0  0  0  0  0  0  0  0  0
   40.0406   33.4551   47.3164 H   0  0  0  0  0  0  0  0  0  0  0  0
   36.2562   30.5019   50.6991 H   0  0  0  0  0  0  0  0  0  0  0  0
   35.2958   30.1710   46.5111 H   0  0  0  0  0  0  0  0  0  0  0  0
   32.9726   28.5280   46.0609 H   0  0  0  0  0  0  0  0  0  0  0  0
   31.3931   27.2422   47.6979 H   0  0  0  0  0  0  0  0  0  0  0  0
   34.3012   29.0387   51.2795 H   0  0  0  0  0  0  0  0  0  0  0  0
   38.4675   33.7301   44.7486 H   0  0  0  0  0  0  0  0  0  0  0  0
   39.8802   29.7787   45.5258 H   0  0  0  0  0  0  0  0  0  0  0  0
   41.0815   28.5990   43.2860 H   0  0  0  0  0  0  0  0  0  0  0  0
   41.5697   29.2936   40.8287 H   0  0  0  0  0  0  0  0  0  0  0  0
   39.2827   33.5565   42.4141 H   0  0  0  0  0  0  0  0  0  0  0  0
  1  6  2  0
  2  1  1  0
  3  4  1  0
  3  2  2  0
  4  5  2  0
  5  8  1  0
  5  6  1  0
  7 15  2  0
  8  7  1  0
  9 10  1  0
  9  8  2  0
 10 14  2  0
 11 10  1  0
 11 12  1  0
 12 13  2  0
 14 13  1  0
 14 15  1  0
 16 17  2  0
 17  3  1  0
 18 17  1  0
 19 18  2  0
 20 19  1  0
 21 20  1  0
 22 21  2  0
 22 23  1  0
 23 24  2  0
 23 19  1  0
 24 16  1  0
  1 25  1  0
  2 26  1  0
  7 27  1  0
  9 28  1  0
 11 29  1  0
 12 30  1  0
 15 31  1  0
 16 32  1  0
 18 33  1  0
 20 34  1  0
 21 35  1  0
 24 36  1  0
M  ISO  8  25  14  26  14  27  14  28  14  29   9  30  14  31  14  32  14
M  ISO  4  33  14  34   9  35  14  36  14
M  END
>  <minimizedAffinity>  (1) 
-7.26126003

>  <minimizedRMSD>  (1) 
3.23351789

$$$$
