
     RDKit          3D

 51 56  0  0  1  0  0  0  0  0999 V2000
   33.0130   28.6270   46.6370 N   0  0  0  0  0  0  0  0  0  0  0  0
   33.5300   28.0200   47.8150 C   0  0  0  0  0  0  0  0  0  0  0  0
   34.6750   28.6910   48.4700 C   0  0  0  0  0  0  0  0  0  0  0  0
   35.6640   29.3240   47.6010 C   0  0  0  0  0  0  0  0  0  0  0  0
   35.0480   29.8910   46.3110 C   0  0  0  0  0  0  0  0  0  0  0  0
   34.1260   28.8130   45.7290 C   0  0  0  0  0  0  0  0  0  0  0  0
   36.0590   30.8370   49.4940 C   0  0  0  0  0  0  0  0  0  0  0  0
   36.4010   30.4620   48.2070 C   0  0  0  0  0  0  0  0  0  0  0  0
   37.3550   31.1010   47.4600 C   0  0  0  0  0  0  0  0  0  0  0  0
   38.0110   32.1870   48.0340 C   0  0  0  0  0  0  0  0  0  0  0  0
   37.6680   32.5580   49.3110 C   0  0  0  0  0  0  0  0  0  0  0  0
   36.6990   31.9100   50.0730 C   0  0  0  0  0  0  0  0  0  0  0  0
   38.4320   33.6680   49.7140 O   0  0  0  0  0  0  0  0  0  0  0  0
   39.4960   33.7270   48.7680 C   0  0  0  0  0  0  0  0  0  0  0  0
   39.0090   33.0740   47.6220 O   0  0  0  0  0  0  0  0  0  0  0  0
   31.6600   28.9960   46.3570 C   0  0  0  0  0  0  0  0  0  0  0  0
   31.1960   29.5840   45.1850 C   0  0  0  0  0  0  0  0  0  0  0  0
   29.8470   29.8500   45.0980 C   0  0  0  0  0  0  0  0  0  0  0  0
   29.0410   29.5310   46.1460 N   0  0  0  0  0  0  0  0  0  0  0  0
   29.5100   28.9620   47.2700 C   0  0  0  0  0  0  0  0  0  0  0  0
   30.8240   28.7040   47.3540 N   0  0  0  0  0  0  0  0  0  0  0  0
   27.2700   28.9810   48.2700 C   0  0  0  0  0  0  0  0  0  0  0  0
   28.6040   28.6360   48.3740 C   0  0  0  0  0  0  0  0  0  0  0  0
   29.0870   27.9880   49.5010 C   0  0  0  0  0  0  0  0  0  0  0  0
   28.2220   27.6870   50.5330 C   0  0  0  0  0  0  0  0  0  0  0  0
   28.4950   27.0700   51.6970 N   0  0  0  0  0  0  0  0  0  0  0  0
   27.2870   27.0340   52.3310 C   0  0  0  0  0  0  0  0  0  0  0  0
   26.3420   27.6010   51.5850 N   0  0  0  0  0  0  0  0  0  0  0  0
   26.8850   28.0220   50.4520 C   0  0  0  0  0  0  0  0  0  0  0  0
   26.4020   28.6740   49.3150 C   0  0  0  0  0  0  0  0  0  0  0  0
   32.7117   27.9688   48.5483 H   0  0  0  0  0  0  0  0  0  0  0  0
   33.9201   27.0454   47.4863 H   0  0  0  0  0  0  0  0  0  0  0  0
   34.2679   29.4705   49.1308 H   0  0  0  0  0  0  0  0  0  0  0  0
   35.2214   27.8848   48.9813 H   0  0  0  0  0  0  0  0  0  0  0  0
   36.3547   28.4903   47.4060 H   0  0  0  0  0  0  0  0  0  0  0  0
   34.4687   30.7981   46.5384 H   0  0  0  0  0  0  0  0  0  0  0  0
   35.8350   30.1584   45.5905 H   0  0  0  0  0  0  0  0  0  0  0  0
   33.7535   29.1340   44.7450 H   0  0  0  0  0  0  0  0  0  0  0  0
   34.6771   27.8689   45.6070 H   0  0  0  0  0  0  0  0  0  0  0  0
   35.2854   30.2849   50.0479 H   0  0  0  0  0  0  0  0  0  0  0  0
   37.5951   30.7671   46.4398 H   0  0  0  0  0  0  0  0  0  0  0  0
   36.4554   32.2410   51.0933 H   0  0  0  0  0  0  0  0  0  0  0  0
   39.7494   34.7723   48.5376 H   0  0  0  0  0  0  0  0  0  0  0  0
   40.4126   33.2548   49.1512 H   0  0  0  0  0  0  0  0  0  0  0  0
   31.8802   29.8274   44.3588 H   0  0  0  0  0  0  0  0  0  0  0  0
   29.4275   30.3141   44.1932 H   0  0  0  0  0  0  0  0  0  0  0  0
   26.8973   29.4931   47.3707 H   0  0  0  0  0  0  0  0  0  0  0  0
   30.1506   27.7163   49.5716 H   0  0  0  0  0  0  0  0  0  0  0  0
   29.4007   26.7102   52.0305 H   0  0  0  0  0  0  0  0  0  0  0  0
   27.1172   26.5952   53.3253 H   0  0  0  0  0  0  0  0  0  0  0  0
   25.3381   28.9445   49.2451 H   0  0  0  0  0  0  0  0  0  0  0  0
  1  2  1  0
  2  3  1  0
  4  8  1  0
  4  3  1  0
  5  4  1  0
  6  5  1  0
  6  1  1  0
  7 12  2  0
  8  7  1  0
  9 10  1  0
  9  8  2  0
 10 11  2  0
 11 13  1  0
 11 12  1  0
 14 13  1  0
 15 10  1  0
 15 14  1  0
 16  1  1  0
 16 21  1  0
 17 16  2  0
 18 17  1  0
 18 19  2  0
 19 20  1  0
 20 21  2  0
 20 23  1  0
 22 23  2  0
 22 30  1  0
 23 24  1  0
 24 25  2  0
 25 26  1  0
 26 27  1  0
 28 27  2  0
 29 25  1  0
 29 28  1  0
 30 29  2  0
  2 31  1  0
  2 32  1  0
  3 33  1  0
  3 34  1  0
  4 35  1  0
  5 36  1  0
  5 37  1  0
  6 38  1  0
  6 39  1  0
  7 40  1  0
  9 41  1  0
 12 42  1  0
 14 43  1  0
 14 44  1  0
 17 45  1  0
 18 46  1  0
 22 47  1  0
 24 48  1  0
 26 49  1  0
 27 50  1  0
 30 51  1  0
M  ISO  8  31  13  32  13  33  13  34  13  35  13  36  13  37  13  38  13
M  ISO  8  39  13  40  14  41  14  42  14  43  13  44  13  45  14  46  14
M  ISO  5  47  14  48  14  49   9  50  14  51  14
M  END
>  <minimizedAffinity>  (1) 
-7.86431551

>  <minimizedRMSD>  (1) 
1.37536609

$$$$
