
     RDKit          3D

 41 43  0  0  1  0  0  0  0  0999 V2000
   33.2580   27.2740   45.8240 C   0  0  1  0  0  0  0  0  0  0  0  0
   33.9080   27.4340   47.2150 C   0  0  2  0  0  0  0  0  0  0  0  0
   33.7170   26.2210   47.7990 O   0  0  0  0  0  0  0  0  0  0  0  0
   34.0860   25.3140   46.8170 C   0  0  0  0  0  0  0  0  0  0  0  0
   33.6650   25.8660   45.4720 C   0  0  2  0  0  0  0  0  0  0  0  0
   31.8950   27.4830   45.9030 O   0  0  0  0  0  0  0  0  0  0  0  0
   33.2570   28.4980   47.7780 O   0  0  0  0  0  0  0  0  0  0  0  0
   35.3370   29.7870   46.7840 O   0  0  0  0  0  0  0  0  0  0  0  0
   34.0660   29.9630   47.6120 P   0  0  1  0  0  0  0  0  0  0  0  0
   33.1170   31.0540   46.7290 O   0  0  0  0  0  0  0  0  0  0  0  0
   34.3510   30.5640   49.1800 O   0  0  0  0  0  0  0  0  0  0  0  0
   35.5990   30.4560   49.7850 C   0  0  0  0  0  0  0  0  0  0  0  0
   35.9820   29.4360   50.6870 C   0  0  0  0  0  0  0  0  0  0  0  0
   37.2730   29.4740   51.2050 C   0  0  0  0  0  0  0  0  0  0  0  0
   38.1050   30.4890   50.8200 N   0  0  0  0  0  0  0  0  0  0  0  0
   37.7110   31.4560   49.9520 C   0  0  0  0  0  0  0  0  0  0  0  0
   36.4490   31.4400   49.4310 N   0  0  0  0  0  0  0  0  0  0  0  0
   34.7250   25.8670   44.6110 O   0  0  0  0  0  0  0  0  0  0  0  0
   36.1700   24.0020   43.8590 C   0  0  0  0  0  0  0  0  0  0  0  0
   35.2090   24.9680   43.7300 C   0  0  0  0  0  0  0  0  0  0  0  0
   34.5880   25.0830   42.4790 C   0  0  0  0  0  0  0  0  0  0  0  0
   34.9370   24.2470   41.4110 C   0  0  0  0  0  0  0  0  0  0  0  0
   35.9090   23.2820   41.5720 C   0  0  0  0  0  0  0  0  0  0  0  0
   36.5040   23.1890   42.8060 C   0  0  0  0  0  0  0  0  0  0  0  0
   36.7610   23.9090   45.0850 O   0  0  0  0  0  0  0  0  0  0  0  0
   37.4930   22.2370   43.0370 O   0  0  0  0  0  0  0  0  0  0  0  0
   33.5719   27.9949   45.0547 H   0  0  0  0  0  0  0  0  0  0  0  0
   34.9827   27.6601   47.2774 H   0  0  0  0  0  0  0  0  0  0  0  0
   35.1765   25.1709   46.8347 H   0  0  0  0  0  0  0  0  0  0  0  0
   33.5982   24.3445   46.9964 H   0  0  0  0  0  0  0  0  0  0  0  0
   32.8714   25.2891   44.9745 H   0  0  0  0  0  0  0  0  0  0  0  0
   31.6221   27.5248   46.8537 H   0  0  0  0  0  0  0  0  0  0  0  0
   32.6129   31.6335   47.3536 H   0  0  0  0  0  0  0  0  0  0  0  0
   35.2808   28.6372   50.9703 H   0  0  0  0  0  0  0  0  0  0  0  0
   37.6175   28.7031   51.9100 H   0  0  0  0  0  0  0  0  0  0  0  0
   38.4111   32.2553   49.6675 H   0  0  0  0  0  0  0  0  0  0  0  0
   33.8096   25.8464   42.3327 H   0  0  0  0  0  0  0  0  0  0  0  0
   34.4337   24.3606   40.4395 H   0  0  0  0  0  0  0  0  0  0  0  0
   36.1958   22.6145   40.7461 H   0  0  0  0  0  0  0  0  0  0  0  0
   37.4643   23.2309   45.2453 H   0  0  0  0  0  0  0  0  0  0  0  0
   37.9198   22.1728   43.9280 H   0  0  0  0  0  0  0  0  0  0  0  0
  1  6  1  0
  1  2  1  0
  2  7  1  0
  2  3  1  0
  4  3  1  0
  5  1  1  0
  5  4  1  0
  9  8  2  0
  9  7  1  0
  9 11  1  0
 10  9  1  0
 11 12  1  0
 12 13  2  0
 13 14  1  0
 15 14  2  0
 16 15  1  0
 17 12  1  0
 17 16  2  0
 18  5  1  0
 19 25  1  0
 20 19  2  0
 20 18  1  0
 21 20  1  0
 22 23  1  0
 22 21  2  0
 23 24  2  0
 24 26  1  0
 24 19  1  0
  1 27  1  6
  2 28  1  6
  4 29  1  0
  4 30  1  0
  5 31  1  6
  6 32  1  0
 10 33  1  0
 13 34  1  0
 14 35  1  0
 16 36  1  0
 21 37  1  0
 22 38  1  0
 23 39  1  0
 25 40  1  0
 26 41  1  0
M  ISO  8  27  13  28  13  29  13  30  13  31  13  32   3  33   3  34  14
M  ISO  7  35  14  36  14  37  14  38  14  39  14  40   3  41   3
M  END
>  <minimizedAffinity>  (1) 
-4.16815901

>  <minimizedRMSD>  (1) 
1.27765453

$$$$
