
     RDKit          3D

 48 50  0  0  0  0  0  0  0  0999 V2000
   31.2770   26.7940   47.4690 C   0  0  0  0  0  0  0  0  0  0  0  0
   32.4700   27.5030   47.2780 C   0  0  0  0  0  0  0  0  0  0  0  0
   33.6900   26.8540   47.2030 C   0  0  0  0  0  0  0  0  0  0  0  0
   33.7540   25.4880   47.3180 C   0  0  0  0  0  0  0  0  0  0  0  0
   32.5890   24.7910   47.5060 C   0  0  0  0  0  0  0  0  0  0  0  0
   31.3540   25.4000   47.5870 C   0  0  0  0  0  0  0  0  0  0  0  0
   29.7220   27.5090   47.5930 S   0  0  0  0  0  0  0  0  0  0  0  0
   29.7170   28.9050   47.0250 O   0  0  0  0  0  0  0  0  0  0  0  0
   28.7310   26.6330   46.7540 O   0  0  0  0  0  0  0  0  0  0  0  0
   27.6470   27.9580   48.9940 C   0  0  0  0  0  0  0  0  0  0  0  0
   28.9650   27.4580   49.1320 C   0  0  0  0  0  0  0  0  0  0  0  0
   29.1880   27.0590   50.4010 C   0  0  0  0  0  0  0  0  0  0  0  0
   28.3440   27.0900   51.4680 C   0  0  0  0  0  0  0  0  0  0  0  0
   27.0870   27.5880   51.2600 C   0  0  0  0  0  0  0  0  0  0  0  0
   26.7210   28.0300   50.0110 C   0  0  0  0  0  0  0  0  0  0  0  0
   27.0490   28.4650   47.8150 O   0  0  0  0  0  0  0  0  0  0  0  0
   25.4200   28.5050   49.9490 O   0  0  0  0  0  0  0  0  0  0  0  0
   32.2720   28.8510   47.1800 O   0  0  0  0  0  0  0  0  0  0  0  0
   32.7320   29.5070   44.6610 O   0  0  0  0  0  0  0  0  0  0  0  0
   33.0140   29.9210   46.1100 P   0  0  1  0  0  0  0  0  0  0  0  0
   32.4990   31.5100   46.4030 O   0  0  0  0  0  0  0  0  0  0  0  0
   34.7050   29.8840   46.2410 O   0  0  0  0  0  0  0  0  0  0  0  0
   35.2500   29.7420   44.9550 C   0  0  0  0  0  0  0  0  0  0  0  0
   37.2690   30.8330   45.8740 C   0  0  0  0  0  0  0  0  0  0  0  0
   36.5920   30.3600   44.8600 C   0  0  0  0  0  0  0  0  0  0  0  0
   40.8840   31.3000   45.5330 C   0  0  0  0  0  0  0  0  0  0  0  0
   40.9730   32.6210   45.0760 C   0  0  0  0  0  0  0  0  0  0  0  0
   39.7710   33.3340   44.8930 C   0  0  0  0  0  0  0  0  0  0  0  0
   38.6230   32.6570   45.1830 N   0  0  0  0  0  0  0  0  0  0  0  0
   38.5830   31.4110   45.6120 C   0  0  0  0  0  0  0  0  0  0  0  0
   39.7130   30.7320   45.7870 N   0  0  0  0  0  0  0  0  0  0  0  0
   34.6115   27.4350   47.0507 H   0  0  0  0  0  0  0  0  0  0  0  0
   34.7194   24.9639   47.2605 H   0  0  0  0  0  0  0  0  0  0  0  0
   32.6412   23.6960   47.5964 H   0  0  0  0  0  0  0  0  0  0  0  0
   30.4444   24.8010   47.7417 H   0  0  0  0  0  0  0  0  0  0  0  0
   30.1904   26.6525   50.6010 H   0  0  0  0  0  0  0  0  0  0  0  0
   28.6598   26.7291   52.4580 H   0  0  0  0  0  0  0  0  0  0  0  0
   26.3692   27.6347   52.0922 H   0  0  0  0  0  0  0  0  0  0  0  0
   26.1141   28.7902   47.8346 H   0  0  0  0  0  0  0  0  0  0  0  0
   24.8527   28.5019   50.7603 H   0  0  0  0  0  0  0  0  0  0  0  0
   32.4485   31.6658   47.3794 H   0  0  0  0  0  0  0  0  0  0  0  0
   35.3328   28.6709   44.7188 H   0  0  0  0  0  0  0  0  0  0  0  0
   34.5855   30.2516   44.2417 H   0  0  0  0  0  0  0  0  0  0  0  0
   36.8599   30.7962   46.8944 H   0  0  0  0  0  0  0  0  0  0  0  0
   37.0534   30.4262   43.8636 H   0  0  0  0  0  0  0  0  0  0  0  0
   41.8066   30.7205   45.6847 H   0  0  0  0  0  0  0  0  0  0  0  0
   41.9477   33.0861   44.8670 H   0  0  0  0  0  0  0  0  0  0  0  0
   39.7595   34.3749   44.5373 H   0  0  0  0  0  0  0  0  0  0  0  0
  1  6  2  0
  1  7  1  0
  2  1  1  0
  3  2  2  0
  3  4  1  0
  4  5  2  0
  5  6  1  0
  7 11  1  0
  8  7  2  0
  9  7  2  0
 10 11  2  0
 10 15  1  0
 11 12  1  0
 12 13  2  0
 14 13  1  0
 15 14  2  0
 16 10  1  0
 17 15  1  0
 18  2  1  0
 20 19  2  0
 20 22  1  0
 20 21  1  0
 20 18  1  0
 23 22  1  0
 25 23  1  0
 25 24  2  0
 26 31  2  0
 27 26  1  0
 28 27  2  0
 28 29  1  0
 29 30  2  0
 30 31  1  0
 30 24  1  0
  3 32  1  0
  4 33  1  0
  5 34  1  0
  6 35  1  0
 12 36  1  0
 13 37  1  0
 14 38  1  0
 16 39  1  0
 17 40  1  0
 21 41  1  0
 23 42  1  0
 23 43  1  0
 24 44  1  0
 25 45  1  0
 26 46  1  0
 27 47  1  0
 28 48  1  0
M  ISO  8  32  14  33  14  34  14  35  14  36  14  37  14  38  14  39   3
M  ISO  7  40   3  41   3  42   8  43   8  46  14  47  14  48  14
M  END
>  <minimizedAffinity>  (1) 
-6.56353664

>  <minimizedRMSD>  (1) 
5.21860981

$$$$
