
     RDKit          3D

 51 54  0  0  1  0  0  0  0  0999 V2000
   34.9430   29.9570   46.6860 C   0  0  0  0  0  0  0  0  0  0  0  0
   36.2400   30.5150   46.7860 C   0  0  0  0  0  0  0  0  0  0  0  0
   36.9540   30.7140   45.6090 C   0  0  0  0  0  0  0  0  0  0  0  0
   36.3780   30.3650   44.4260 N   0  0  0  0  0  0  0  0  0  0  0  0
   35.1420   29.8360   44.3670 C   0  0  0  0  0  0  0  0  0  0  0  0
   34.4320   29.6340   45.4770 N   0  0  0  0  0  0  0  0  0  0  0  0
   36.6890   30.8030   48.1300 N   0  0  0  0  0  0  0  0  0  0  0  0
   37.1310   31.9100   48.9260 C   0  0  0  0  0  0  0  0  0  0  0  0
   38.4090   31.4150   49.5250 C   0  0  0  0  0  0  0  0  0  0  0  0
   38.1430   29.9190   49.7350 C   0  0  0  0  0  0  0  0  0  0  0  0
   36.7970   29.7040   49.1310 C   0  0  1  0  0  0  0  0  0  0  0  0
   34.7160   29.0410   50.3150 C   0  0  0  0  0  0  0  0  0  0  0  0
   34.4430   28.0470   49.5650 O   0  0  0  0  0  0  0  0  0  0  0  0
   35.7900   29.9720   50.1570 N   0  0  0  0  0  0  0  0  0  0  0  0
   38.2790   31.2750   45.5940 C   0  0  0  0  0  0  0  0  0  0  0  0
   38.4980   32.4130   46.3150 C   0  0  0  0  0  0  0  0  0  0  0  0
   39.7360   33.0230   46.3920 C   0  0  0  0  0  0  0  0  0  0  0  0
   40.7900   32.4370   45.6940 C   0  0  0  0  0  0  0  0  0  0  0  0
   40.6290   31.2890   44.9460 C   0  0  0  0  0  0  0  0  0  0  0  0
   39.3410   30.7390   44.9270 C   0  0  0  0  0  0  0  0  0  0  0  0
   39.1460   29.5130   44.1210 C   0  0  0  0  0  0  0  0  0  0  0  0
   40.4930   29.2430   41.9590 C   0  0  0  0  0  0  0  0  0  0  0  0
   39.3850   29.6530   42.6710 C   0  0  0  0  0  0  0  0  0  0  0  0
   38.3630   30.2560   41.9230 C   0  0  0  0  0  0  0  0  0  0  0  0
   38.4370   30.4400   40.5480 C   0  0  0  0  0  0  0  0  0  0  0  0
   39.5300   30.0370   39.8330 C   0  0  0  0  0  0  0  0  0  0  0  0
   40.5340   29.4440   40.5760 C   0  0  0  0  0  0  0  0  0  0  0  0
   41.4950   28.6520   42.6870 O   0  0  0  0  0  0  0  0  0  0  0  0
   41.6620   29.0220   39.8740 O   0  0  0  0  0  0  0  0  0  0  0  0
   34.3487   29.7856   47.5956 H   0  0  0  0  0  0  0  0  0  0  0  0
   34.7123   29.5670   43.3908 H   0  0  0  0  0  0  0  0  0  0  0  0
   37.3066   32.7987   48.3020 H   0  0  0  0  0  0  0  0  0  0  0  0
   36.3931   32.2188   49.6811 H   0  0  0  0  0  0  0  0  0  0  0  0
   39.2534   31.5726   48.8379 H   0  0  0  0  0  0  0  0  0  0  0  0
   38.6809   31.9387   50.4533 H   0  0  0  0  0  0  0  0  0  0  0  0
   38.9032   29.3110   49.2227 H   0  0  0  0  0  0  0  0  0  0  0  0
   38.1833   29.6264   50.7946 H   0  0  0  0  0  0  0  0  0  0  0  0
   36.6625   28.6934   48.7180 H   0  0  0  0  0  0  0  0  0  0  0  0
   34.0529   29.2000   51.1782 H   0  0  0  0  0  0  0  0  0  0  0  0
   35.8527   30.8109   50.7514 H   0  0  0  0  0  0  0  0  0  0  0  0
   37.6539   32.8636   46.8576 H   0  0  0  0  0  0  0  0  0  0  0  0
   39.8839   33.9386   46.9834 H   0  0  0  0  0  0  0  0  0  0  0  0
   41.7841   32.9056   45.7410 H   0  0  0  0  0  0  0  0  0  0  0  0
   41.4646   30.8317   44.3959 H   0  0  0  0  0  0  0  0  0  0  0  0
   39.8336   28.7445   44.5038 H   0  0  0  0  0  0  0  0  0  0  0  0
   38.0822   29.2531   44.2249 H   0  0  0  0  0  0  0  0  0  0  0  0
   37.4605   30.5993   42.4499 H   0  0  0  0  0  0  0  0  0  0  0  0
   37.5979   30.9204   40.0234 H   0  0  0  0  0  0  0  0  0  0  0  0
   39.6055   30.1746   38.7443 H   0  0  0  0  0  0  0  0  0  0  0  0
   42.3163   28.3362   42.2333 H   0  0  0  0  0  0  0  0  0  0  0  0
   42.4120   28.5908   40.3553 H   0  0  0  0  0  0  0  0  0  0  0  0
  1  2  2  0
  2  7  1  0
  3  2  1  0
  4  3  2  0
  5  4  1  0
  5  6  2  0
  6  1  1  0
  7  8  1  0
  7 11  1  0
  8  9  1  0
  9 10  1  0
 11 10  1  0
 11 14  1  0
 13 12  2  0
 14 12  1  0
 15  3  1  0
 15 16  2  0
 16 17  1  0
 18 17  2  0
 19 18  1  0
 20 19  2  0
 20 15  1  0
 21 20  1  0
 22 23  2  0
 22 28  1  0
 23 21  1  0
 24 23  1  0
 25 24  2  0
 26 25  1  0
 26 27  2  0
 27 22  1  0
 29 27  1  0
  1 30  1  0
  5 31  1  0
  8 32  1  0
  8 33  1  0
  9 34  1  0
  9 35  1  0
 10 36  1  0
 10 37  1  0
 11 38  1  6
 12 39  1  0
 14 40  1  0
 16 41  1  0
 17 42  1  0
 18 43  1  0
 19 44  1  0
 21 45  1  0
 21 46  1  0
 24 47  1  0
 25 48  1  0
 26 49  1  0
 28 50  1  0
 29 51  1  0
M  ISO  8  30  14  31  14  32  13  33  13  34  13  35  13  36  13  37  13
M  ISO  8  38  13  39   6  41  14  42  14  43  14  44  14  45   8  46   8
M  ISO  5  47  14  48  14  49  14  50   3  51   3
M  END
>  <minimizedAffinity>  (1) 
-6.57323599

>  <minimizedRMSD>  (1) 
1.0723269

$$$$
