
     RDKit          3D

 42 45  0  0  1  0  0  0  0  0999 V2000
   32.5980   29.0530   47.2050 C   0  0  2  0  0  0  0  0  0  0  0  0
   33.5930   27.9250   47.4540 C   0  0  2  0  0  0  0  0  0  0  0  0
   33.0020   27.1230   48.3920 O   0  0  0  0  0  0  0  0  0  0  0  0
   31.6480   27.2680   48.3730 C   0  0  0  0  0  0  0  0  0  0  0  0
   31.2960   28.2450   47.2690 C   0  0  1  0  0  0  0  0  0  0  0  0
   34.8790   29.8240   48.6580 C   0  0  1  0  0  0  0  0  0  0  0  0
   34.8490   28.5560   47.9670 C   0  0  1  0  0  0  0  0  0  0  0  0
   35.2050   28.5280   49.4170 C   0  0  0  0  0  0  0  0  0  0  0  0
   36.0910   30.7360   48.5630 C   0  0  0  0  0  0  0  0  0  0  0  0
   36.4370   31.4670   49.7030 C   0  0  0  0  0  0  0  0  0  0  0  0
   37.5320   32.2950   49.5680 C   0  0  0  0  0  0  0  0  0  0  0  0
   38.2140   32.3740   48.3780 N   0  0  0  0  0  0  0  0  0  0  0  0
   37.8430   31.6480   47.2970 C   0  0  0  0  0  0  0  0  0  0  0  0
   36.7710   30.8210   47.3900 N   0  0  0  0  0  0  0  0  0  0  0  0
   32.7460   29.6720   45.9850 O   0  0  0  0  0  0  0  0  0  0  0  0
   30.2180   29.0290   47.5470 O   0  0  0  0  0  0  0  0  0  0  0  0
   28.5050   28.6890   49.0130 C   0  0  0  0  0  0  0  0  0  0  0  0
   28.9340   28.5970   47.6820 C   0  0  0  0  0  0  0  0  0  0  0  0
   28.0270   28.1040   46.7710 C   0  0  0  0  0  0  0  0  0  0  0  0
   26.7660   27.7230   47.1420 C   0  0  0  0  0  0  0  0  0  0  0  0
   26.3440   27.8140   48.4480 C   0  0  0  0  0  0  0  0  0  0  0  0
   27.2240   28.3020   49.3930 C   0  0  0  0  0  0  0  0  0  0  0  0
   29.2650   29.1560   50.0780 O   0  0  0  0  0  0  0  0  0  0  0  0
   26.7480   28.3700   50.6840 O   0  0  0  0  0  0  0  0  0  0  0  0
   32.6895   29.8947   47.9073 H   0  0  0  0  0  0  0  0  0  0  0  0
   33.8456   27.3320   46.5626 H   0  0  0  0  0  0  0  0  0  0  0  0
   31.1714   26.2962   48.1772 H   0  0  0  0  0  0  0  0  0  0  0  0
   31.2907   27.6435   49.3432 H   0  0  0  0  0  0  0  0  0  0  0  0
   30.9906   27.7618   46.3292 H   0  0  0  0  0  0  0  0  0  0  0  0
   34.1517   30.6485   48.6926 H   0  0  0  0  0  0  0  0  0  0  0  0
   35.3311   28.1925   47.0475 H   0  0  0  0  0  0  0  0  0  0  0  0
   36.2355   28.3112   49.7348 H   0  0  0  0  0  0  0  0  0  0  0  0
   34.8324   28.0185   50.3179 H   0  0  0  0  0  0  0  0  0  0  0  0
   35.8739   31.3874   50.6446 H   0  0  0  0  0  0  0  0  0  0  0  0
   37.8636   32.9001   50.4247 H   0  0  0  0  0  0  0  0  0  0  0  0
   38.4041   31.7276   46.3542 H   0  0  0  0  0  0  0  0  0  0  0  0
   32.9739   30.6253   46.1241 H   0  0  0  0  0  0  0  0  0  0  0  0
   28.3241   28.0139   45.7157 H   0  0  0  0  0  0  0  0  0  0  0  0
   26.0748   27.3355   46.3791 H   0  0  0  0  0  0  0  0  0  0  0  0
   25.3276   27.5047   48.7331 H   0  0  0  0  0  0  0  0  0  0  0  0
   30.1950   29.4599   49.9268 H   0  0  0  0  0  0  0  0  0  0  0  0
   25.8241   28.0778   50.8870 H   0  0  0  0  0  0  0  0  0  0  0  0
  1  5  1  0
  1  2  1  0
  2  7  1  0
  2  3  1  0
  4  3  1  0
  5 16  1  0
  5  4  1  0
  6  8  1  0
  7  6  1  0
  7  8  1  0
  9  6  1  0
  9 10  2  0
 11 10  1  0
 12 11  2  0
 13 14  2  0
 13 12  1  0
 14  9  1  0
 15  1  1  0
 16 18  1  0
 17 22  2  0
 17 23  1  0
 18 17  1  0
 19 20  1  0
 19 18  2  0
 20 21  2  0
 21 22  1  0
 22 24  1  0
  1 25  1  1
  2 26  1  6
  4 27  1  0
  4 28  1  0
  5 29  1  6
  6 30  1  1
  7 31  1  6
  8 32  1  0
  8 33  1  0
 10 34  1  0
 11 35  1  0
 13 36  1  0
 15 37  1  0
 19 38  1  0
 20 39  1  0
 21 40  1  0
 23 41  1  0
 24 42  1  0
M  ISO  8  25  13  26  13  27  13  28  13  29  13  30  13  31  13  32  13
M  ISO  8  33  13  34  14  35  14  36  14  37   3  38  14  39  14  40  14
M  ISO  2  41   3  42   3
M  END
>  <minimizedAffinity>  (1) 
-6.37966251

>  <minimizedRMSD>  (1) 
2.36269665

$$$$
