
     RDKit          3D

 39 42  0  0  0  0  0  0  0  0999 V2000
   38.8430   30.9220   45.8190 C   0  0  0  0  0  0  0  0  0  0  0  0
   39.9980   31.6500   46.0720 C   0  0  0  0  0  0  0  0  0  0  0  0
   40.8460   31.6010   44.9740 C   0  0  0  0  0  0  0  0  0  0  0  0
   40.1600   30.8360   44.0930 N   0  0  0  0  0  0  0  0  0  0  0  0
   38.9920   30.4370   44.5770 N   0  0  0  0  0  0  0  0  0  0  0  0
   37.7310   30.7480   46.7300 C   0  0  0  0  0  0  0  0  0  0  0  0
   37.9470   30.9430   48.1210 C   0  0  0  0  0  0  0  0  0  0  0  0
   36.8530   30.7670   48.9670 C   0  0  0  0  0  0  0  0  0  0  0  0
   35.6550   30.4230   48.4220 N   0  0  0  0  0  0  0  0  0  0  0  0
   35.4780   30.2430   47.0940 C   0  0  0  0  0  0  0  0  0  0  0  0
   36.5260   30.4090   46.2590 N   0  0  0  0  0  0  0  0  0  0  0  0
   37.0590   30.9670   50.4320 C   0  0  0  0  0  0  0  0  0  0  0  0
   36.5600   32.2210   50.7030 F   0  0  0  0  0  0  0  0  0  0  0  0
   36.3560   30.0430   51.1900 F   0  0  0  0  0  0  0  0  0  0  0  0
   38.3980   30.9470   50.7750 F   0  0  0  0  0  0  0  0  0  0  0  0
   40.5550   30.4340   42.7380 C   0  0  0  0  0  0  0  0  0  0  0  0
   40.1920   31.1900   41.6140 C   0  0  0  0  0  0  0  0  0  0  0  0
   40.5780   30.7880   40.3810 C   0  0  0  0  0  0  0  0  0  0  0  0
   41.3440   29.6020   40.2610 C   0  0  0  0  0  0  0  0  0  0  0  0
   41.5070   29.0530   42.0230 S   0  0  0  0  0  0  0  0  0  0  0  0
   43.1350   29.2760   38.6990 C   0  0  0  0  0  0  0  0  0  0  0  0
   41.9250   28.8630   39.2040 C   0  0  0  0  0  0  0  0  0  0  0  0
   41.2110   27.7730   38.7670 C   0  0  0  0  0  0  0  0  0  0  0  0
   41.7470   27.0090   37.7210 C   0  0  0  0  0  0  0  0  0  0  0  0
   42.9770   27.3900   37.1730 C   0  0  0  0  0  0  0  0  0  0  0  0
   43.6660   28.5090   37.6550 C   0  0  0  0  0  0  0  0  0  0  0  0
   43.8530   30.3770   39.1440 O   0  0  0  0  0  0  0  0  0  0  0  0
   44.8880   28.8960   37.1180 O   0  0  0  0  0  0  0  0  0  0  0  0
   40.2104   32.1880   47.0076 H   0  0  0  0  0  0  0  0  0  0  0  0
   41.8336   32.0692   44.8502 H   0  0  0  0  0  0  0  0  0  0  0  0
   38.9361   31.2212   48.5138 H   0  0  0  0  0  0  0  0  0  0  0  0
   34.4905   29.9642   46.6977 H   0  0  0  0  0  0  0  0  0  0  0  0
   39.5956   32.1065   41.7343 H   0  0  0  0  0  0  0  0  0  0  0  0
   40.3026   31.3704   39.4894 H   0  0  0  0  0  0  0  0  0  0  0  0
   40.2466   27.5077   39.2249 H   0  0  0  0  0  0  0  0  0  0  0  0
   41.2114   26.1276   37.3386 H   0  0  0  0  0  0  0  0  0  0  0  0
   43.4091   26.8009   36.3506 H   0  0  0  0  0  0  0  0  0  0  0  0
   44.7197   30.6055   38.7237 H   0  0  0  0  0  0  0  0  0  0  0  0
   45.3563   29.6914   37.4759 H   0  0  0  0  0  0  0  0  0  0  0  0
  1  2  1  0
  1  6  1  0
  3  2  2  0
  4  5  1  0
  4  3  1  0
  5  1  2  0
  6  7  2  0
  7  8  1  0
  8 12  1  0
  9  8  2  0
 10  9  1  0
 11  6  1  0
 11 10  2  0
 12 13  1  0
 12 15  1  0
 12 14  1  0
 16  4  1  0
 17 16  2  0
 18 17  1  0
 19 18  2  0
 19 20  1  0
 20 16  1  0
 21 27  1  0
 21 22  2  0
 22 19  1  0
 23 22  1  0
 24 23  2  0
 25 26  2  0
 25 24  1  0
 26 21  1  0
 28 26  1  0
  2 29  1  0
  3 30  1  0
  7 31  1  0
 10 32  1  0
 17 33  1  0
 18 34  1  0
 23 35  1  0
 24 36  1  0
 25 37  1  0
 27 38  1  0
 28 39  1  0
M  ISO  8  29  14  30  14  31  14  32  14  33  14  34  14  35  14  36  14
M  ISO  3  37  14  38   3  39   3
M  END
>  <minimizedAffinity>  (1) 
-6.73995924

>  <minimizedRMSD>  (1) 
0.369899511

$$$$
