
     RDKit          3D

 46 49  0  0  1  0  0  0  0  0999 V2000
   31.6900   28.4160   47.4340 C   0  0  2  0  0  0  0  0  0  0  0  0
   32.9010   28.0010   48.2190 C   0  0  1  0  0  0  0  0  0  0  0  0
   33.0260   26.6490   48.1150 O   0  0  0  0  0  0  0  0  0  0  0  0
   32.1720   26.1770   47.1240 C   0  0  0  0  0  0  0  0  0  0  0  0
   31.7780   27.3670   46.2850 C   0  0  1  0  0  0  0  0  0  0  0  0
   31.8700   29.7050   46.8940 O   0  0  0  0  0  0  0  0  0  0  0  0
   34.3690   28.7620   47.4180 S   0  0  0  0  0  0  0  0  0  0  0  0
   36.3220   29.3680   50.8120 C   0  0  0  0  0  0  0  0  0  0  0  0
   36.9250   30.6160   50.6670 C   0  0  0  0  0  0  0  0  0  0  0  0
   36.7240   31.3000   49.4730 C   0  0  0  0  0  0  0  0  0  0  0  0
   35.9490   30.7220   48.5060 N   0  0  0  0  0  0  0  0  0  0  0  0
   35.3820   29.5080   48.6940 C   0  0  0  0  0  0  0  0  0  0  0  0
   35.5590   28.8160   49.8430 N   0  0  0  0  0  0  0  0  0  0  0  0
   30.5460   27.1340   45.7250 O   0  0  0  0  0  0  0  0  0  0  0  0
   29.5510   29.7320   44.7600 Cl  0  0  0  0  0  0  0  0  0  0  0  0
   28.8100   28.6370   45.9040 C   0  0  0  0  0  0  0  0  0  0  0  0
   29.3700   27.4370   46.2720 C   0  0  0  0  0  0  0  0  0  0  0  0
   28.6680   26.6370   47.1760 C   0  0  0  0  0  0  0  0  0  0  0  0
   27.4560   27.0420   47.6830 C   0  0  0  0  0  0  0  0  0  0  0  0
   26.8840   28.2480   47.3190 C   0  0  0  0  0  0  0  0  0  0  0  0
   27.5680   29.0490   46.4240 C   0  0  0  0  0  0  0  0  0  0  0  0
   26.7910   31.1540   47.1330 C   0  0  0  0  0  0  0  0  0  0  0  0
   26.9850   30.3300   46.0250 C   0  0  0  0  0  0  0  0  0  0  0  0
   26.6320   30.7720   44.7700 C   0  0  0  0  0  0  0  0  0  0  0  0
   26.0910   32.0350   44.6300 C   0  0  0  0  0  0  0  0  0  0  0  0
   25.8910   32.8680   45.7060 C   0  0  0  0  0  0  0  0  0  0  0  0
   26.2460   32.4230   46.9820 C   0  0  0  0  0  0  0  0  0  0  0  0
   27.0940   30.8520   48.4510 O   0  0  0  0  0  0  0  0  0  0  0  0
   26.0200   33.3080   48.0260 O   0  0  0  0  0  0  0  0  0  0  0  0
   30.7486   28.4490   48.0021 H   0  0  0  0  0  0  0  0  0  0  0  0
   32.8152   28.3084   49.2717 H   0  0  0  0  0  0  0  0  0  0  0  0
   32.6886   25.4303   46.5031 H   0  0  0  0  0  0  0  0  0  0  0  0
   31.2870   25.6934   47.5632 H   0  0  0  0  0  0  0  0  0  0  0  0
   32.4346   27.6377   45.4450 H   0  0  0  0  0  0  0  0  0  0  0  0
   31.9616   30.3611   47.6297 H   0  0  0  0  0  0  0  0  0  0  0  0
   36.4726   28.8122   51.7492 H   0  0  0  0  0  0  0  0  0  0  0  0
   37.5401   31.0462   51.4711 H   0  0  0  0  0  0  0  0  0  0  0  0
   37.1800   32.2876   49.3095 H   0  0  0  0  0  0  0  0  0  0  0  0
   29.0904   25.6700   47.4865 H   0  0  0  0  0  0  0  0  0  0  0  0
   26.9281   26.3912   48.3956 H   0  0  0  0  0  0  0  0  0  0  0  0
   25.9127   28.5604   47.7301 H   0  0  0  0  0  0  0  0  0  0  0  0
   26.7788   30.1279   43.8905 H   0  0  0  0  0  0  0  0  0  0  0  0
   25.8111   32.3860   43.6258 H   0  0  0  0  0  0  0  0  0  0  0  0
   25.4582   33.8693   45.5642 H   0  0  0  0  0  0  0  0  0  0  0  0
   26.9142   31.5143   49.1645 H   0  0  0  0  0  0  0  0  0  0  0  0
   26.2513   33.0492   48.9532 H   0  0  0  0  0  0  0  0  0  0  0  0
  1  2  1  0
  3  2  1  0
  4  3  1  0
  5  4  1  0
  5  1  1  0
  6  1  1  0
  7  2  1  0
  7 12  1  0
  9  8  2  0
 10  9  1  0
 11 12  1  0
 11 10  2  0
 12 13  2  0
 13  8  1  0
 14 17  1  0
 14  5  1  0
 15 16  1  0
 16 17  2  0
 16 21  1  0
 17 18  1  0
 18 19  2  0
 20 19  1  0
 21 20  2  0
 22 28  1  0
 23 21  1  0
 23 22  2  0
 24 23  1  0
 25 24  2  0
 25 26  1  0
 26 27  2  0
 27 22  1  0
 27 29  1  0
  1 30  1  1
  2 31  1  1
  4 32  1  0
  4 33  1  0
  5 34  1  6
  6 35  1  0
  8 36  1  0
  9 37  1  0
 10 38  1  0
 18 39  1  0
 19 40  1  0
 20 41  1  0
 24 42  1  0
 25 43  1  0
 26 44  1  0
 28 45  1  0
 29 46  1  0
M  ISO  8  30  13  31  13  32  13  33  13  34  13  35   3  36  14  37  14
M  ISO  8  38  14  39  14  40  14  41  14  42  14  43  14  44  14  45   3
M  ISO  1  46   3
M  END
>  <minimizedAffinity>  (1) 
-6.35263824

>  <minimizedRMSD>  (1) 
1.21051681

$$$$
