
     RDKit          3D

 48 51  0  0  0  0  0  0  0  0999 V2000
   34.1810   28.1840   48.9710 C   0  0  0  0  0  0  0  0  0  0  0  0
   32.8530   28.1520   48.2500 C   0  0  0  0  0  0  0  0  0  0  0  0
   32.7930   28.5710   46.8620 C   0  0  0  0  0  0  0  0  0  0  0  0
   31.0790   28.3520   46.5170 S   0  0  0  0  0  0  0  0  0  0  0  0
   30.6490   27.7380   48.2350 C   0  0  0  0  0  0  0  0  0  0  0  0
   31.7190   27.7800   48.7530 N   0  0  0  0  0  0  0  0  0  0  0  0
   29.3840   27.3180   48.8120 N   0  0  0  0  0  0  0  0  0  0  0  0
   28.4340   26.7540   47.9230 C   0  0  0  0  0  0  0  0  0  0  0  0
   27.0540   26.6620   48.4700 C   0  0  0  0  0  0  0  0  0  0  0  0
   26.8710   27.4360   49.7010 N   0  0  0  0  0  0  0  0  0  0  0  0
   27.8600   26.8930   50.6170 C   0  0  0  0  0  0  0  0  0  0  0  0
   29.1810   27.5040   50.2410 C   0  0  0  0  0  0  0  0  0  0  0  0
   34.1900   29.1960   50.0380 C   0  0  0  0  0  0  0  0  0  0  0  0
   37.3980   29.9460   51.7440 C   0  0  0  0  0  0  0  0  0  0  0  0
   38.1470   30.5230   50.7310 C   0  0  0  0  0  0  0  0  0  0  0  0
   37.5690   30.6590   49.4760 C   0  0  0  0  0  0  0  0  0  0  0  0
   36.2970   30.2140   49.3210 N   0  0  0  0  0  0  0  0  0  0  0  0
   35.6020   29.6570   50.3330 C   0  0  0  0  0  0  0  0  0  0  0  0
   36.1460   29.5260   51.5250 N   0  0  0  0  0  0  0  0  0  0  0  0
   38.8110   32.4560   48.1880 C   0  0  0  0  0  0  0  0  0  0  0  0
   38.1910   31.2380   48.3030 C   0  0  0  0  0  0  0  0  0  0  0  0
   38.1950   30.5200   47.1280 C   0  0  0  0  0  0  0  0  0  0  0  0
   38.7620   30.9780   45.9560 C   0  0  0  0  0  0  0  0  0  0  0  0
   39.3660   32.1940   45.8920 C   0  0  0  0  0  0  0  0  0  0  0  0
   39.3890   32.9500   47.0400 C   0  0  0  0  0  0  0  0  0  0  0  0
   38.8760   33.2680   49.2850 O   0  0  0  0  0  0  0  0  0  0  0  0
   39.9950   34.1920   47.0090 O   0  0  0  0  0  0  0  0  0  0  0  0
   34.9751   28.4203   48.2474 H   0  0  0  0  0  0  0  0  0  0  0  0
   34.3494   27.1980   49.4287 H   0  0  0  0  0  0  0  0  0  0  0  0
   33.5987   28.9283   46.2039 H   0  0  0  0  0  0  0  0  0  0  0  0
   28.7683   25.7390   47.6622 H   0  0  0  0  0  0  0  0  0  0  0  0
   28.3813   27.4269   47.0544 H   0  0  0  0  0  0  0  0  0  0  0  0
   26.3511   27.0382   47.7121 H   0  0  0  0  0  0  0  0  0  0  0  0
   26.8682   25.6060   48.7157 H   0  0  0  0  0  0  0  0  0  0  0  0
   27.0420   28.4374   49.5312 H   0  0  0  0  0  0  0  0  0  0  0  0
   27.6018   27.1569   51.6532 H   0  0  0  0  0  0  0  0  0  0  0  0
   27.8992   25.7957   50.5508 H   0  0  0  0  0  0  0  0  0  0  0  0
   29.9906   27.0103   50.7984 H   0  0  0  0  0  0  0  0  0  0  0  0
   29.1846   28.5763   50.4864 H   0  0  0  0  0  0  0  0  0  0  0  0
   33.5880   30.0600   49.7201 H   0  0  0  0  0  0  0  0  0  0  0  0
   33.7682   28.7489   50.9503 H   0  0  0  0  0  0  0  0  0  0  0  0
   37.8396   29.8312   52.7449 H   0  0  0  0  0  0  0  0  0  0  0  0
   39.1757   30.8654   50.9169 H   0  0  0  0  0  0  0  0  0  0  0  0
   37.7206   29.5276   47.1232 H   0  0  0  0  0  0  0  0  0  0  0  0
   38.7244   30.3466   45.0561 H   0  0  0  0  0  0  0  0  0  0  0  0
   39.8187   32.5589   44.9582 H   0  0  0  0  0  0  0  0  0  0  0  0
   39.3194   34.1509   49.2218 H   0  0  0  0  0  0  0  0  0  0  0  0
   40.0212   34.7505   47.8260 H   0  0  0  0  0  0  0  0  0  0  0  0
  1 13  1  0
  2  6  1  0
  2  1  1  0
  3  2  2  0
  4  3  1  0
  4  5  1  0
  5  6  2  0
  5  7  1  0
  7 12  1  0
  8  9  1  0
  8  7  1  0
  9 10  1  0
 10 11  1  0
 12 11  1  0
 13 18  1  0
 15 14  2  0
 16 15  1  0
 17 16  2  0
 17 18  1  0
 18 19  2  0
 19 14  1  0
 20 21  2  0
 20 26  1  0
 21 16  1  0
 22 21  1  0
 23 22  2  0
 24 23  1  0
 24 25  2  0
 25 20  1  0
 27 25  1  0
  1 28  1  0
  1 29  1  0
  3 30  1  0
  8 31  1  0
  8 32  1  0
  9 33  1  0
  9 34  1  0
 10 35  1  0
 11 36  1  0
 11 37  1  0
 12 38  1  0
 12 39  1  0
 13 40  1  0
 13 41  1  0
 14 42  1  0
 15 43  1  0
 22 44  1  0
 23 45  1  0
 24 46  1  0
 26 47  1  0
 27 48  1  0
M  ISO  8  28   8  29   8  30  14  31  13  32  13  33  13  34  13  35   5
M  ISO  8  36  13  37  13  38  13  39  13  40   8  41   8  42  14  43  14
M  ISO  5  44  14  45  14  46  14  47   3  48   3
M  END
>  <minimizedAffinity>  (1) 
-8.2284832

>  <minimizedRMSD>  (1) 
2.25959134

$$$$
