
     RDKit          3D

 34 36  0  0  1  0  0  0  0  0999 V2000
   36.2720   30.2140   46.8240 C   0  0  2  0  0  0  0  0  0  0  0  0
   37.0180   31.0540   47.8970 C   0  0  2  0  0  0  0  0  0  0  0  0
   38.3800   31.0170   47.3430 C   0  0  0  0  0  0  0  0  0  0  0  0
   38.2560   31.1260   45.9600 O   0  0  0  0  0  0  0  0  0  0  0  0
   36.9860   30.7710   45.5960 C   0  0  0  0  0  0  0  0  0  0  0  0
   37.5830   30.1430   51.5150 C   0  0  0  0  0  0  0  0  0  0  0  0
   37.8160   30.6920   50.2250 C   0  0  0  0  0  0  0  0  0  0  0  0
   36.8290   30.5290   49.2250 C   0  0  0  0  0  0  0  0  0  0  0  0
   35.6900   29.8400   49.5670 N   0  0  0  0  0  0  0  0  0  0  0  0
   35.5070   29.3370   50.7940 C   0  0  0  0  0  0  0  0  0  0  0  0
   36.4410   29.4830   51.7670 N   0  0  0  0  0  0  0  0  0  0  0  0
   34.9300   30.5700   46.8110 O   0  0  0  0  0  0  0  0  0  0  0  0
   32.6590   30.3000   46.2050 C   0  0  0  0  0  0  0  0  0  0  0  0
   33.8600   29.7260   46.6090 C   0  0  0  0  0  0  0  0  0  0  0  0
   33.8500   28.3490   46.7680 C   0  0  0  0  0  0  0  0  0  0  0  0
   32.7170   27.6030   46.5370 C   0  0  0  0  0  0  0  0  0  0  0  0
   31.5590   28.2220   46.1380 C   0  0  0  0  0  0  0  0  0  0  0  0
   31.5220   29.5950   45.9680 C   0  0  0  0  0  0  0  0  0  0  0  0
   32.5780   31.6720   46.0210 O   0  0  0  0  0  0  0  0  0  0  0  0
   30.3340   30.2000   45.5620 O   0  0  0  0  0  0  0  0  0  0  0  0
   36.2893   29.1203   46.9402 H   0  0  0  0  0  0  0  0  0  0  0  0
   36.6694   32.0848   48.0581 H   0  0  0  0  0  0  0  0  0  0  0  0
   38.9719   31.8562   47.7373 H   0  0  0  0  0  0  0  0  0  0  0  0
   38.8934   30.0846   47.6206 H   0  0  0  0  0  0  0  0  0  0  0  0
   36.4466   31.6532   45.2207 H   0  0  0  0  0  0  0  0  0  0  0  0
   37.0186   30.0119   44.8006 H   0  0  0  0  0  0  0  0  0  0  0  0
   38.3378   30.2587   52.3067 H   0  0  0  0  0  0  0  0  0  0  0  0
   38.7480   31.2344   50.0079 H   0  0  0  0  0  0  0  0  0  0  0  0
   34.5778   28.7927   51.0185 H   0  0  0  0  0  0  0  0  0  0  0  0
   34.7713   27.8396   47.0870 H   0  0  0  0  0  0  0  0  0  0  0  0
   32.7395   26.5116   46.6720 H   0  0  0  0  0  0  0  0  0  0  0  0
   30.6550   27.6234   45.9522 H   0  0  0  0  0  0  0  0  0  0  0  0
   31.7246   32.0834   45.7335 H   0  0  0  0  0  0  0  0  0  0  0  0
   30.2957   31.1814   45.4372 H   0  0  0  0  0  0  0  0  0  0  0  0
  1  2  1  0
  2  8  1  0
  3  2  1  0
  4  3  1  0
  5  4  1  0
  5  1  1  0
  6 11  2  0
  7  6  1  0
  8  9  1  0
  8  7  2  0
  9 10  2  0
 10 11  1  0
 12  1  1  0
 13 14  2  0
 14 15  1  0
 14 12  1  0
 16 15  2  0
 17 16  1  0
 18 17  2  0
 18 13  1  0
 19 13  1  0
 20 18  1  0
  1 21  1  1
  2 22  1  1
  3 23  1  0
  3 24  1  0
  5 25  1  0
  5 26  1  0
  6 27  1  0
  7 28  1  0
 10 29  1  0
 15 30  1  0
 16 31  1  0
 17 32  1  0
 19 33  1  0
 20 34  1  0
M  ISO  8  21  13  22  13  23  13  24  13  25  13  26  13  27  14  28  14
M  ISO  6  29  14  30  14  31  14  32  14  33   3  34   3
M  END
>  <minimizedAffinity>  (1) 
-4.923944

>  <minimizedRMSD>  (1) 
1.81751072

$$$$
