
     RDKit          3D

 42 46  0  0  0  0  0  0  0  0999 V2000
   38.3440   32.5760   49.6540 C   0  0  0  0  0  0  0  0  0  0  0  0
   38.9290   32.8930   48.4090 C   0  0  0  0  0  0  0  0  0  0  0  0
   38.3490   32.2850   47.2730 C   0  0  0  0  0  0  0  0  0  0  0  0
   37.3050   31.4630   47.4140 N   0  0  0  0  0  0  0  0  0  0  0  0
   36.7770   31.1870   48.6150 C   0  0  0  0  0  0  0  0  0  0  0  0
   37.3010   31.7470   49.7300 N   0  0  0  0  0  0  0  0  0  0  0  0
   35.6360   30.2840   48.7350 C   0  0  0  0  0  0  0  0  0  0  0  0
   35.0930   30.0400   49.9790 C   0  0  0  0  0  0  0  0  0  0  0  0
   34.0110   29.1840   50.0900 C   0  0  0  0  0  0  0  0  0  0  0  0
   33.4530   28.5590   48.9890 C   0  0  0  0  0  0  0  0  0  0  0  0
   32.4030   27.7210   49.0560 N   0  0  0  0  0  0  0  0  0  0  0  0
   31.9010   27.1410   47.9570 C   0  0  0  0  0  0  0  0  0  0  0  0
   32.4410   27.3790   46.6980 C   0  0  0  0  0  0  0  0  0  0  0  0
   33.5190   28.2330   46.5890 C   0  0  0  0  0  0  0  0  0  0  0  0
   34.0170   28.8190   47.7460 C   0  0  0  0  0  0  0  0  0  0  0  0
   35.1060   29.6780   47.6160 C   0  0  0  0  0  0  0  0  0  0  0  0
   38.8770   32.5500   45.9300 C   0  0  0  0  0  0  0  0  0  0  0  0
   39.9860   33.1670   45.5200 C   0  0  0  0  0  0  0  0  0  0  0  0
   40.2620   33.2900   44.2070 C   0  0  0  0  0  0  0  0  0  0  0  0
   39.3380   32.7480   43.3340 C   0  0  0  0  0  0  0  0  0  0  0  0
   38.0680   32.0590   44.4550 S   0  0  0  0  0  0  0  0  0  0  0  0
   40.5990   30.2830   42.0700 Cl  0  0  0  0  0  0  0  0  0  0  0  0
   39.8130   31.6020   41.2560 C   0  0  0  0  0  0  0  0  0  0  0  0
   39.2690   32.6770   41.8910 C   0  0  0  0  0  0  0  0  0  0  0  0
   38.6440   33.7290   41.2900 C   0  0  0  0  0  0  0  0  0  0  0  0
   38.5370   33.7350   39.9020 C   0  0  0  0  0  0  0  0  0  0  0  0
   39.0620   32.6850   39.2030 C   0  0  0  0  0  0  0  0  0  0  0  0
   38.9670   32.6180   37.4520 Cl  0  0  0  0  0  0  0  0  0  0  0  0
   39.7010   31.6150   39.8630 C   0  0  0  0  0  0  0  0  0  0  0  0
   38.7535   33.0184   50.5741 H   0  0  0  0  0  0  0  0  0  0  0  0
   39.7882   33.5751   48.3278 H   0  0  0  0  0  0  0  0  0  0  0  0
   35.5154   30.5207   50.8737 H   0  0  0  0  0  0  0  0  0  0  0  0
   33.5813   28.9947   51.0847 H   0  0  0  0  0  0  0  0  0  0  0  0
   31.0418   26.4609   48.0532 H   0  0  0  0  0  0  0  0  0  0  0  0
   32.0167   26.8955   45.8057 H   0  0  0  0  0  0  0  0  0  0  0  0
   33.9732   28.4448   45.6098 H   0  0  0  0  0  0  0  0  0  0  0  0
   35.5412   29.8719   46.6245 H   0  0  0  0  0  0  0  0  0  0  0  0
   40.6839   33.5805   46.2629 H   0  0  0  0  0  0  0  0  0  0  0  0
   41.1722   33.7938   43.8498 H   0  0  0  0  0  0  0  0  0  0  0  0
   38.2331   34.5552   41.8888 H   0  0  0  0  0  0  0  0  0  0  0  0
   38.0409   34.5664   39.3798 H   0  0  0  0  0  0  0  0  0  0  0  0
   40.1154   30.7824   39.2756 H   0  0  0  0  0  0  0  0  0  0  0  0
  1  6  2  0
  2  1  1  0
  3  4  1  0
  3  2  2  0
  4  5  2  0
  5  7  1  0
  5  6  1  0
  7  8  2  0
  8  9  1  0
 10 11  1  0
 10  9  2  0
 12 11  2  0
 13 12  1  0
 14 13  2  0
 14 15  1  0
 15 10  1  0
 16 15  2  0
 16  7  1  0
 17  3  1  0
 18 17  2  0
 19 18  1  0
 20 19  2  0
 20 21  1  0
 21 17  1  0
 23 24  2  0
 23 22  1  0
 24 20  1  0
 25 24  1  0
 26 25  2  0
 27 29  2  0
 27 26  1  0
 28 27  1  0
 29 23  1  0
  1 30  1  0
  2 31  1  0
  8 32  1  0
  9 33  1  0
 12 34  1  0
 13 35  1  0
 14 36  1  0
 16 37  1  0
 18 38  1  0
 19 39  1  0
 25 40  1  0
 26 41  1  0
 29 42  1  0
M  END
>  <minimizedAffinity>  (1) 
-7.35557318

>  <minimizedRMSD>  (1) 
2.95430446

$$$$
