
     RDKit          3D

 32 35  0  0  0  0  0  0  0  0999 V2000
   34.1530   28.0800   47.1510 C   0  0  0  0  0  0  0  0  0  0  0  0
   34.2350   28.7490   45.9240 C   0  0  0  0  0  0  0  0  0  0  0  0
   35.0580   29.8650   46.1110 C   0  0  0  0  0  0  0  0  0  0  0  0
   35.4470   29.8430   47.4220 N   0  0  0  0  0  0  0  0  0  0  0  0
   34.9000   28.7940   47.9870 N   0  0  0  0  0  0  0  0  0  0  0  0
   36.3040   30.8050   48.0640 C   0  0  0  0  0  0  0  0  0  0  0  0
   36.1340   31.1620   49.3840 C   0  0  0  0  0  0  0  0  0  0  0  0
   36.9830   32.1000   49.9860 C   0  0  0  0  0  0  0  0  0  0  0  0
   37.9910   32.6420   49.1860 C   0  0  0  0  0  0  0  0  0  0  0  0
   38.8070   33.5430   49.7590 N   0  0  0  0  0  0  0  0  0  0  0  0
   39.7950   34.0930   49.0320 C   0  0  0  0  0  0  0  0  0  0  0  0
   40.0670   33.8190   47.7030 C   0  0  0  0  0  0  0  0  0  0  0  0
   39.2180   32.8970   47.1470 C   0  0  0  0  0  0  0  0  0  0  0  0
   38.1850   32.2980   47.8500 C   0  0  0  0  0  0  0  0  0  0  0  0
   37.3210   31.3700   47.3100 C   0  0  0  0  0  0  0  0  0  0  0  0
   32.1360   26.8340   47.9480 C   0  0  0  0  0  0  0  0  0  0  0  0
   33.3850   26.8780   47.3360 C   0  0  0  0  0  0  0  0  0  0  0  0
   33.9130   25.6590   46.8730 C   0  0  0  0  0  0  0  0  0  0  0  0
   33.1700   24.5230   47.0560 N   0  0  0  0  0  0  0  0  0  0  0  0
   31.9600   24.5430   47.6590 C   0  0  0  0  0  0  0  0  0  0  0  0
   31.4380   25.7120   48.1110 N   0  0  0  0  0  0  0  0  0  0  0  0
   33.7432   28.4521   44.9859 H   0  0  0  0  0  0  0  0  0  0  0  0
   35.3370   30.6122   45.3535 H   0  0  0  0  0  0  0  0  0  0  0  0
   35.3234   30.7058   49.9712 H   0  0  0  0  0  0  0  0  0  0  0  0
   36.8613   32.3954   51.0386 H   0  0  0  0  0  0  0  0  0  0  0  0
   40.4433   34.8241   49.5372 H   0  0  0  0  0  0  0  0  0  0  0  0
   40.8867   34.2958   47.1455 H   0  0  0  0  0  0  0  0  0  0  0  0
   39.3639   32.6196   46.0926 H   0  0  0  0  0  0  0  0  0  0  0  0
   37.4409   31.0712   46.2582 H   0  0  0  0  0  0  0  0  0  0  0  0
   31.7027   27.7755   48.3164 H   0  0  0  0  0  0  0  0  0  0  0  0
   34.8946   25.6193   46.3781 H   0  0  0  0  0  0  0  0  0  0  0  0
   31.3955   23.6072   47.7840 H   0  0  0  0  0  0  0  0  0  0  0  0
  1 17  1  0
  1  5  2  0
  2  3  2  0
  2  1  1  0
  3  4  1  0
  4  5  1  0
  4  6  1  0
  6  7  2  0
  7  8  1  0
  9 10  1  0
  9  8  2  0
 11 10  2  0
 12 11  1  0
 13 12  2  0
 13 14  1  0
 14  9  1  0
 15 14  2  0
 15  6  1  0
 16 21  2  0
 17 16  1  0
 18 19  1  0
 18 17  2  0
 19 20  2  0
 20 21  1  0
  2 22  1  0
  3 23  1  0
  7 24  1  0
  8 25  1  0
 11 26  1  0
 12 27  1  0
 13 28  1  0
 15 29  1  0
 16 30  1  0
 18 31  1  0
 20 32  1  0
M  ISO  8  22  14  23  14  24  14  25  14  26  14  27  14  28  14  29  14
M  ISO  3  30  14  31  14  32  14
M  END
>  <minimizedAffinity>  (1) 
-5.14611244

>  <minimizedRMSD>  (1) 
5.95048952

$$$$
