
     RDKit          3D

 53 58  0  0  0  0  0  0  0  0999 V2000
   40.2230   31.2480   44.1380 C   0  0  0  0  0  0  0  0  0  0  0  0
   39.5700   31.8880   45.1730 C   0  0  0  0  0  0  0  0  0  0  0  0
   38.3570   32.5380   44.9140 C   0  0  0  0  0  0  0  0  0  0  0  0
   37.8160   32.5370   43.6280 C   0  0  0  0  0  0  0  0  0  0  0  0
   36.7110   33.0450   43.0580 N   0  0  0  0  0  0  0  0  0  0  0  0
   36.6670   32.7480   41.7520 C   0  0  0  0  0  0  0  0  0  0  0  0
   37.7890   32.0200   41.4800 N   0  0  0  0  0  0  0  0  0  0  0  0
   38.4940   31.8890   42.6200 C   0  0  0  0  0  0  0  0  0  0  0  0
   39.6920   31.2430   42.8610 C   0  0  0  0  0  0  0  0  0  0  0  0
   40.4630   30.5380   41.8390 C   0  0  0  0  0  0  0  0  0  0  0  0
   40.9470   29.2660   42.1210 C   0  0  0  0  0  0  0  0  0  0  0  0
   41.6860   28.5680   41.1620 C   0  0  0  0  0  0  0  0  0  0  0  0
   41.9530   29.1120   39.9240 C   0  0  0  0  0  0  0  0  0  0  0  0
   42.6620   28.4660   38.9770 N   0  0  0  0  0  0  0  0  0  0  0  0
   42.9330   28.9830   37.7640 C   0  0  0  0  0  0  0  0  0  0  0  0
   42.4600   30.2530   37.4580 C   0  0  0  0  0  0  0  0  0  0  0  0
   41.7200   30.9480   38.4200 C   0  0  0  0  0  0  0  0  0  0  0  0
   41.4630   30.3720   39.6690 C   0  0  0  0  0  0  0  0  0  0  0  0
   40.7380   31.0820   40.5830 C   0  0  0  0  0  0  0  0  0  0  0  0
   39.9080   32.0180   46.4980 O   0  0  0  0  0  0  0  0  0  0  0  0
   38.1030   31.4020   47.9820 C   0  0  0  0  0  0  0  0  0  0  0  0
   37.2340   31.5840   49.0410 C   0  0  0  0  0  0  0  0  0  0  0  0
   37.4210   32.8090   49.7200 C   0  0  0  0  0  0  0  0  0  0  0  0
   38.4010   33.7270   49.3320 C   0  0  0  0  0  0  0  0  0  0  0  0
   39.2330   33.4250   48.2270 C   0  0  0  0  0  0  0  0  0  0  0  0
   39.0640   32.2290   47.5510 C   0  0  0  0  0  0  0  0  0  0  0  0
   35.1080   30.4510   48.6330 C   0  0  0  0  0  0  0  0  0  0  0  0
   36.2360   30.6580   49.4420 C   0  0  0  0  0  0  0  0  0  0  0  0
   36.3180   29.9250   50.6250 C   0  0  0  0  0  0  0  0  0  0  0  0
   35.3250   29.0660   50.9290 N   0  0  0  0  0  0  0  0  0  0  0  0
   34.2470   28.8890   50.1260 C   0  0  0  0  0  0  0  0  0  0  0  0
   34.1530   29.5840   48.9870 N   0  0  0  0  0  0  0  0  0  0  0  0
   37.4940   30.0990   51.5310 C   0  0  0  0  0  0  0  0  0  0  0  0
   37.9890   30.2130   47.2500 O   0  0  0  0  0  0  0  0  0  0  0  0
   41.1771   30.7360   44.3317 H   0  0  0  0  0  0  0  0  0  0  0  0
   37.8275   33.0525   45.7294 H   0  0  0  0  0  0  0  0  0  0  0  0
   35.9937   33.5897   43.5576 H   0  0  0  0  0  0  0  0  0  0  0  0
   35.8804   33.0349   41.0386 H   0  0  0  0  0  0  0  0  0  0  0  0
   40.7480   28.8078   43.1010 H   0  0  0  0  0  0  0  0  0  0  0  0
   42.0629   27.5624   41.4004 H   0  0  0  0  0  0  0  0  0  0  0  0
   43.5179   28.4107   37.0289 H   0  0  0  0  0  0  0  0  0  0  0  0
   42.6641   30.7042   36.4758 H   0  0  0  0  0  0  0  0  0  0  0  0
   41.3375   31.9541   38.1932 H   0  0  0  0  0  0  0  0  0  0  0  0
   40.3692   32.0866   40.3285 H   0  0  0  0  0  0  0  0  0  0  0  0
   36.7765   33.0471   50.5790 H   0  0  0  0  0  0  0  0  0  0  0  0
   38.5244   34.6734   49.8790 H   0  0  0  0  0  0  0  0  0  0  0  0
   40.0089   34.1364   47.9077 H   0  0  0  0  0  0  0  0  0  0  0  0
   35.0076   31.0113   47.6918 H   0  0  0  0  0  0  0  0  0  0  0  0
   33.4557   28.1792   50.4090 H   0  0  0  0  0  0  0  0  0  0  0  0
   37.1606   30.0497   52.5781 H   0  0  0  0  0  0  0  0  0  0  0  0
   38.2249   29.2992   51.3408 H   0  0  0  0  0  0  0  0  0  0  0  0
   37.9620   31.0762   51.3408 H   0  0  0  0  0  0  0  0  0  0  0  0
   38.5925   30.0437   46.4837 H   0  0  0  0  0  0  0  0  0  0  0  0
  1  2  2  0
  2 20  1  0
  3  2  1  0
  4  3  2  0
  5  4  1  0
  6  5  1  0
  7  6  2  0
  7  8  1  0
  8  9  2  0
  8  4  1  0
  9  1  1  0
 10 11  2  0
 10  9  1  0
 12 11  1  0
 13 12  2  0
 14 13  1  0
 15 14  2  0
 16 15  1  0
 16 17  2  0
 17 18  1  0
 18 13  1  0
 18 19  2  0
 19 10  1  0
 20 26  1  0
 21 22  2  0
 22 28  1  0
 22 23  1  0
 24 23  2  0
 25 24  1  0
 26 21  1  0
 26 25  2  0
 27 32  2  0
 27 28  1  0
 28 29  2  0
 29 30  1  0
 29 33  1  0
 31 30  2  0
 32 31  1  0
 34 21  1  0
  1 35  1  0
  3 36  1  0
  5 37  1  0
  6 38  1  0
 11 39  1  0
 12 40  1  0
 15 41  1  0
 16 42  1  0
 17 43  1  0
 19 44  1  0
 23 45  1  0
 24 46  1  0
 25 47  1  0
 27 48  1  0
 31 49  1  0
 33 50  1  0
 33 51  1  0
 33 52  1  0
 34 53  1  0
M  ISO  8  35  14  36  14  37   9  38  14  39  14  40  14  41  14  42  14
M  ISO  8  43  14  44  14  45  14  46  14  47  14  48  14  49  14  50   8
M  ISO  3  51   8  52   8  53   3
M  END
>  <minimizedAffinity>  (1) 
-8.28955078

>  <minimizedRMSD>  (1) 
1.12407267

$$$$
