
     RDKit          3D

 53 58  0  0  0  0  0  0  0  0999 V2000
   39.1550   32.2520   42.6030 C   0  0  0  0  0  0  0  0  0  0  0  0
   39.6940   31.5270   43.6540 C   0  0  0  0  0  0  0  0  0  0  0  0
   40.5760   30.5090   43.4790 C   0  0  0  0  0  0  0  0  0  0  0  0
   40.9800   30.1550   42.1960 C   0  0  0  0  0  0  0  0  0  0  0  0
   41.8120   29.2230   41.7360 N   0  0  0  0  0  0  0  0  0  0  0  0
   41.8240   29.3310   40.4020 C   0  0  0  0  0  0  0  0  0  0  0  0
   41.0020   30.3270   40.0280 N   0  0  0  0  0  0  0  0  0  0  0  0
   40.4450   30.8760   41.1420 C   0  0  0  0  0  0  0  0  0  0  0  0
   39.5440   31.9160   41.2980 C   0  0  0  0  0  0  0  0  0  0  0  0
   39.2420   31.9340   44.9710 C   0  0  0  0  0  0  0  0  0  0  0  0
   38.1520   32.5770   45.1050 O   0  0  0  0  0  0  0  0  0  0  0  0
   39.9520   31.6610   46.1850 N   0  0  0  0  0  0  0  0  0  0  0  0
   38.1180   30.1640   47.5100 F   0  0  0  0  0  0  0  0  0  0  0  0
   38.3800   31.4130   48.0110 C   0  0  0  0  0  0  0  0  0  0  0  0
   37.7170   31.8330   49.1300 C   0  0  0  0  0  0  0  0  0  0  0  0
   38.0210   33.0870   49.5810 C   0  0  0  0  0  0  0  0  0  0  0  0
   38.9360   33.8990   48.9630 C   0  0  0  0  0  0  0  0  0  0  0  0
   39.5970   33.4480   47.8260 C   0  0  0  0  0  0  0  0  0  0  0  0
   39.2990   32.1760   47.3540 C   0  0  0  0  0  0  0  0  0  0  0  0
   36.0730   29.3420   51.4560 C   0  0  0  0  0  0  0  0  0  0  0  0
   37.0450   30.2040   50.8840 C   0  0  0  0  0  0  0  0  0  0  0  0
   36.7520   30.9350   49.7540 C   0  0  0  0  0  0  0  0  0  0  0  0
   35.4910   30.7860   49.2170 N   0  0  0  0  0  0  0  0  0  0  0  0
   34.5810   29.9640   49.7720 C   0  0  0  0  0  0  0  0  0  0  0  0
   34.8680   29.2610   50.8650 N   0  0  0  0  0  0  0  0  0  0  0  0
   39.0190   32.6270   40.2430 O   0  0  0  0  0  0  0  0  0  0  0  0
   37.8220   33.2800   40.2000 C   0  0  0  0  0  0  0  0  0  0  0  0
   37.4680   33.9870   39.0500 C   0  0  0  0  0  0  0  0  0  0  0  0
   36.2760   34.6620   38.9510 C   0  0  0  0  0  0  0  0  0  0  0  0
   35.3670   34.6730   39.9910 C   0  0  0  0  0  0  0  0  0  0  0  0
   34.1950   35.3150   39.9450 N   0  0  0  0  0  0  0  0  0  0  0  0
   33.3180   35.3230   40.9580 C   0  0  0  0  0  0  0  0  0  0  0  0
   33.5870   34.6450   42.1460 C   0  0  0  0  0  0  0  0  0  0  0  0
   34.7970   33.9720   42.2170 C   0  0  0  0  0  0  0  0  0  0  0  0
   35.6810   33.9800   41.1630 C   0  0  0  0  0  0  0  0  0  0  0  0
   36.8990   33.3170   41.2020 C   0  0  0  0  0  0  0  0  0  0  0  0
   38.4415   33.0687   42.7873 H   0  0  0  0  0  0  0  0  0  0  0  0
   40.9701   29.9655   44.3504 H   0  0  0  0  0  0  0  0  0  0  0  0
   42.3457   28.5465   42.3002 H   0  0  0  0  0  0  0  0  0  0  0  0
   42.4142   28.7030   39.7184 H   0  0  0  0  0  0  0  0  0  0  0  0
   40.8434   31.1458   46.2155 H   0  0  0  0  0  0  0  0  0  0  0  0
   37.5086   33.4610   50.4797 H   0  0  0  0  0  0  0  0  0  0  0  0
   39.1461   34.9015   49.3641 H   0  0  0  0  0  0  0  0  0  0  0  0
   40.3362   34.0815   47.3139 H   0  0  0  0  0  0  0  0  0  0  0  0
   36.2996   28.7558   52.3588 H   0  0  0  0  0  0  0  0  0  0  0  0
   38.0394   30.2888   51.3466 H   0  0  0  0  0  0  0  0  0  0  0  0
   33.5846   29.8719   49.3151 H   0  0  0  0  0  0  0  0  0  0  0  0
   38.1638   34.0041   38.1982 H   0  0  0  0  0  0  0  0  0  0  0  0
   36.0402   35.2053   38.0240 H   0  0  0  0  0  0  0  0  0  0  0  0
   32.3714   35.8729   40.8506 H   0  0  0  0  0  0  0  0  0  0  0  0
   32.8752   34.6440   42.9847 H   0  0  0  0  0  0  0  0  0  0  0  0
   35.0551   33.4212   43.1335 H   0  0  0  0  0  0  0  0  0  0  0  0
   37.1419   32.7715   42.1258 H   0  0  0  0  0  0  0  0  0  0  0  0
  1  2  2  0
  2 10  1  0
  3  2  1  0
  4  3  2  0
  5  4  1  0
  6  5  1  0
  7  6  2  0
  7  8  1  0
  8  9  2  0
  8  4  1  0
  9  1  1  0
 10 11  2  0
 10 12  1  0
 12 19  1  0
 13 14  1  0
 14 15  2  0
 15 16  1  0
 15 22  1  0
 17 16  2  0
 18 17  1  0
 19 18  2  0
 19 14  1  0
 21 20  2  0
 22 21  1  0
 23 22  2  0
 23 24  1  0
 24 25  2  0
 25 20  1  0
 26  9  1  0
 27 26  1  0
 27 36  1  0
 28 27  2  0
 29 28  1  0
 29 30  2  0
 30 35  1  0
 31 30  1  0
 31 32  2  0
 32 33  1  0
 33 34  2  0
 35 36  2  0
 35 34  1  0
  1 37  1  0
  3 38  1  0
  5 39  1  0
  6 40  1  0
 12 41  1  0
 16 42  1  0
 17 43  1  0
 18 44  1  0
 20 45  1  0
 21 46  1  0
 24 47  1  0
 28 48  1  0
 29 49  1  0
 32 50  1  0
 33 51  1  0
 34 52  1  0
 36 53  1  0
M  ISO  8  37  14  38  14  39   9  40  14  42  14  43  14  44  14  45  14
M  ISO  8  46  14  47  14  48  14  49  14  50  14  51  14  52  14  53  14
M  END
>  <minimizedAffinity>  (1) 
-8.06428528

>  <minimizedRMSD>  (1) 
2.57366157

$$$$
