
     RDKit          3D

 52 57  0  0  0  0  0  0  0  0999 V2000
   39.0460   32.3220   42.6010 C   0  0  0  0  0  0  0  0  0  0  0  0
   39.6170   31.6060   43.6440 C   0  0  0  0  0  0  0  0  0  0  0  0
   40.5240   30.5950   43.4440 C   0  0  0  0  0  0  0  0  0  0  0  0
   40.8860   30.2710   42.1510 C   0  0  0  0  0  0  0  0  0  0  0  0
   41.7340   29.3470   41.6570 N   0  0  0  0  0  0  0  0  0  0  0  0
   41.7070   29.4680   40.3210 C   0  0  0  0  0  0  0  0  0  0  0  0
   40.8530   30.4550   39.9730 N   0  0  0  0  0  0  0  0  0  0  0  0
   40.3230   30.9780   41.1160 C   0  0  0  0  0  0  0  0  0  0  0  0
   39.4140   31.9930   41.3000 C   0  0  0  0  0  0  0  0  0  0  0  0
   38.8130   32.7450   40.2030 C   0  0  0  0  0  0  0  0  0  0  0  0
   39.3600   32.9470   38.9530 C   0  0  0  0  0  0  0  0  0  0  0  0
   38.6970   33.6800   37.9900 C   0  0  0  0  0  0  0  0  0  0  0  0
   37.4520   34.2180   38.3070 C   0  0  0  0  0  0  0  0  0  0  0  0
   36.7990   34.9360   37.3660 N   0  0  0  0  0  0  0  0  0  0  0  0
   35.5880   35.4790   37.6260 C   0  0  0  0  0  0  0  0  0  0  0  0
   34.9800   35.3190   38.8490 C   0  0  0  0  0  0  0  0  0  0  0  0
   35.6260   34.5870   39.8330 C   0  0  0  0  0  0  0  0  0  0  0  0
   36.8620   34.0390   39.5560 C   0  0  0  0  0  0  0  0  0  0  0  0
   37.5620   33.3000   40.4870 C   0  0  0  0  0  0  0  0  0  0  0  0
   39.2040   31.9830   44.9750 C   0  0  0  0  0  0  0  0  0  0  0  0
   38.1150   32.6250   45.1280 O   0  0  0  0  0  0  0  0  0  0  0  0
   39.9220   31.6970   46.1710 N   0  0  0  0  0  0  0  0  0  0  0  0
   38.0810   30.1890   47.4900 F   0  0  0  0  0  0  0  0  0  0  0  0
   38.3590   31.4130   48.0100 C   0  0  0  0  0  0  0  0  0  0  0  0
   37.7220   31.8290   49.1450 C   0  0  0  0  0  0  0  0  0  0  0  0
   38.0430   33.0630   49.6160 C   0  0  0  0  0  0  0  0  0  0  0  0
   38.9580   33.8860   49.0140 C   0  0  0  0  0  0  0  0  0  0  0  0
   39.5880   33.4370   47.8640 C   0  0  0  0  0  0  0  0  0  0  0  0
   39.2920   32.1980   47.3580 C   0  0  0  0  0  0  0  0  0  0  0  0
   36.0860   29.3210   51.4650 C   0  0  0  0  0  0  0  0  0  0  0  0
   37.0300   30.1830   50.8890 C   0  0  0  0  0  0  0  0  0  0  0  0
   36.7480   30.9220   49.7630 C   0  0  0  0  0  0  0  0  0  0  0  0
   35.4960   30.7710   49.2340 N   0  0  0  0  0  0  0  0  0  0  0  0
   34.5950   29.9480   49.7850 C   0  0  0  0  0  0  0  0  0  0  0  0
   34.8820   29.2390   50.8740 N   0  0  0  0  0  0  0  0  0  0  0  0
   38.3227   33.1271   42.7974 H   0  0  0  0  0  0  0  0  0  0  0  0
   40.9549   30.0525   44.2984 H   0  0  0  0  0  0  0  0  0  0  0  0
   42.2953   28.6763   42.2011 H   0  0  0  0  0  0  0  0  0  0  0  0
   42.2909   28.8570   39.6169 H   0  0  0  0  0  0  0  0  0  0  0  0
   40.3443   32.5152   38.7191 H   0  0  0  0  0  0  0  0  0  0  0  0
   39.1411   33.8357   36.9958 H   0  0  0  0  0  0  0  0  0  0  0  0
   35.0790   36.0605   36.8432 H   0  0  0  0  0  0  0  0  0  0  0  0
   33.9940   35.7660   39.0439 H   0  0  0  0  0  0  0  0  0  0  0  0
   35.1606   34.4451   40.8196 H   0  0  0  0  0  0  0  0  0  0  0  0
   37.1224   33.1427   41.4830 H   0  0  0  0  0  0  0  0  0  0  0  0
   40.8117   31.1782   46.1825 H   0  0  0  0  0  0  0  0  0  0  0  0
   37.5420   33.4194   50.5281 H   0  0  0  0  0  0  0  0  0  0  0  0
   39.1867   34.8773   49.4324 H   0  0  0  0  0  0  0  0  0  0  0  0
   40.3263   34.0756   47.3569 H   0  0  0  0  0  0  0  0  0  0  0  0
   36.3218   28.7348   52.3654 H   0  0  0  0  0  0  0  0  0  0  0  0
   38.0246   30.2710   51.3505 H   0  0  0  0  0  0  0  0  0  0  0  0
   33.5983   29.8561   49.3287 H   0  0  0  0  0  0  0  0  0  0  0  0
  1  2  2  0
  2 20  1  0
  3  2  1  0
  4  3  2  0
  5  4  1  0
  6  5  1  0
  7  6  2  0
  7  8  1  0
  8  9  2  0
  8  4  1  0
  9  1  1  0
 10 19  1  0
 10  9  1  0
 11 10  2  0
 12 13  2  0
 12 11  1  0
 13 18  1  0
 14 15  2  0
 14 13  1  0
 15 16  1  0
 16 17  2  0
 18 17  1  0
 18 19  2  0
 20 21  2  0
 20 22  1  0
 22 29  1  0
 23 24  1  0
 24 25  2  0
 25 26  1  0
 25 32  1  0
 27 26  2  0
 28 27  1  0
 29 28  2  0
 29 24  1  0
 31 30  2  0
 32 31  1  0
 33 32  2  0
 33 34  1  0
 34 35  2  0
 35 30  1  0
  1 36  1  0
  3 37  1  0
  5 38  1  0
  6 39  1  0
 11 40  1  0
 12 41  1  0
 15 42  1  0
 16 43  1  0
 17 44  1  0
 19 45  1  0
 22 46  1  0
 26 47  1  0
 27 48  1  0
 28 49  1  0
 30 50  1  0
 31 51  1  0
 34 52  1  0
M  ISO  8  36  14  37  14  38   9  39  14  40  14  41  14  42  14  43  14
M  ISO  8  44  14  45  14  47  14  48  14  49  14  50  14  51  14  52  14
M  END
>  <minimizedAffinity>  (1) 
-7.89512396

>  <minimizedRMSD>  (1) 
0.270790607

$$$$
