
     RDKit          3D

 51 54  0  0  0  0  0  0  0  0999 V2000
   27.7740   28.4530   48.5910 C   0  0  0  0  0  0  0  0  0  0  0  0
   29.0510   28.1190   49.0690 C   0  0  0  0  0  0  0  0  0  0  0  0
   29.2360   27.6040   50.3350 C   0  0  0  0  0  0  0  0  0  0  0  0
   28.1430   27.4160   51.1430 C   0  0  0  0  0  0  0  0  0  0  0  0
   26.9000   27.7380   50.6840 C   0  0  0  0  0  0  0  0  0  0  0  0
   26.6690   28.2540   49.4300 C   0  0  0  0  0  0  0  0  0  0  0  0
   27.4680   29.0970   46.9990 S   0  0  0  0  0  0  0  0  0  0  0  0
   28.7200   29.2250   46.2210 O   0  0  0  0  0  0  0  0  0  0  0  0
   26.4750   28.1590   46.2950 O   0  0  0  0  0  0  0  0  0  0  0  0
   26.7450   30.6830   47.1040 C   0  0  0  0  0  0  0  0  0  0  0  0
   26.4170   31.3280   48.2790 C   0  0  0  0  0  0  0  0  0  0  0  0
   25.8450   32.5940   48.2090 C   0  0  0  0  0  0  0  0  0  0  0  0
   25.5940   33.2300   47.0010 C   0  0  0  0  0  0  0  0  0  0  0  0
   25.0410   34.4520   46.9480 N   0  0  0  0  0  0  0  0  0  0  0  0
   24.8010   35.0590   45.7660 C   0  0  0  0  0  0  0  0  0  0  0  0
   25.1160   34.4450   44.5540 C   0  0  0  0  0  0  0  0  0  0  0  0
   25.6830   33.1930   44.5890 C   0  0  0  0  0  0  0  0  0  0  0  0
   25.9130   32.6040   45.8130 C   0  0  0  0  0  0  0  0  0  0  0  0
   26.4730   31.3610   45.9140 C   0  0  0  0  0  0  0  0  0  0  0  0
   30.0390   28.3680   48.1350 O   0  0  0  0  0  0  0  0  0  0  0  0
   31.2780   26.0460   48.2280 O   0  0  0  0  0  0  0  0  0  0  0  0
   31.4800   27.5310   47.9440 P   0  0  1  0  0  0  0  0  0  0  0  0
   32.1080   27.7800   46.3790 O   0  0  0  0  0  0  0  0  0  0  0  0
   32.6530   28.0410   49.0680 O   0  0  0  0  0  0  0  0  0  0  0  0
   33.9070   27.5740   48.6380 C   0  0  0  0  0  0  0  0  0  0  0  0
   35.8090   28.8440   49.5210 C   0  0  0  0  0  0  0  0  0  0  0  0
   34.9210   28.6510   48.5870 C   0  0  0  0  0  0  0  0  0  0  0  0
   38.4100   31.3580   50.1300 C   0  0  0  0  0  0  0  0  0  0  0  0
   38.4830   32.0130   48.8810 C   0  0  0  0  0  0  0  0  0  0  0  0
   37.6320   31.5710   47.8570 C   0  0  0  0  0  0  0  0  0  0  0  0
   36.8050   30.5320   48.1830 N   0  0  0  0  0  0  0  0  0  0  0  0
   36.7580   29.9390   49.3580 C   0  0  0  0  0  0  0  0  0  0  0  0
   37.5700   30.3670   50.3190 N   0  0  0  0  0  0  0  0  0  0  0  0
   30.2446   27.3478   50.6916 H   0  0  0  0  0  0  0  0  0  0  0  0
   28.2689   27.0074   52.1565 H   0  0  0  0  0  0  0  0  0  0  0  0
   26.0392   27.5771   51.3497 H   0  0  0  0  0  0  0  0  0  0  0  0
   25.6506   28.5023   49.0966 H   0  0  0  0  0  0  0  0  0  0  0  0
   26.6042   30.8503   49.2520 H   0  0  0  0  0  0  0  0  0  0  0  0
   25.5822   33.1096   49.1444 H   0  0  0  0  0  0  0  0  0  0  0  0
   24.3466   36.0607   45.7588 H   0  0  0  0  0  0  0  0  0  0  0  0
   24.9163   34.9485   43.5966 H   0  0  0  0  0  0  0  0  0  0  0  0
   25.9480   32.6715   43.6574 H   0  0  0  0  0  0  0  0  0  0  0  0
   26.7322   30.8499   44.9751 H   0  0  0  0  0  0  0  0  0  0  0  0
   33.0262   28.1441   46.4459 H   0  0  0  0  0  0  0  0  0  0  0  0
   34.2524   26.7958   49.3346 H   0  0  0  0  0  0  0  0  0  0  0  0
   33.7866   27.1771   47.6192 H   0  0  0  0  0  0  0  0  0  0  0  0
   35.8418   28.1971   50.4101 H   0  0  0  0  0  0  0  0  0  0  0  0
   34.9252   29.3229   47.7161 H   0  0  0  0  0  0  0  0  0  0  0  0
   39.0639   31.6816   50.9532 H   0  0  0  0  0  0  0  0  0  0  0  0
   39.1851   32.8436   48.7162 H   0  0  0  0  0  0  0  0  0  0  0  0
   37.6302   32.0301   46.8574 H   0  0  0  0  0  0  0  0  0  0  0  0
  1  2  1  0
  1  6  2  0
  2  3  2  0
  3  4  1  0
  5  4  2  0
  6  5  1  0
  7 10  1  0
  7  1  1  0
  8  7  2  0
  9  7  2  0
 10 11  2  0
 12 11  1  0
 13 12  2  0
 14 13  1  0
 15 14  2  0
 16 17  2  0
 16 15  1  0
 17 18  1  0
 18 19  2  0
 18 13  1  0
 19 10  1  0
 20  2  1  0
 22 20  1  0
 22 21  2  0
 22 24  1  0
 23 22  1  0
 25 24  1  0
 27 25  1  0
 27 26  2  0
 28 33  2  0
 29 28  1  0
 30 31  1  0
 30 29  2  0
 31 32  2  0
 32 26  1  0
 32 33  1  0
  3 34  1  0
  4 35  1  0
  5 36  1  0
  6 37  1  0
 11 38  1  0
 12 39  1  0
 15 40  1  0
 16 41  1  0
 17 42  1  0
 19 43  1  0
 23 44  1  0
 25 45  1  0
 25 46  1  0
 26 47  1  0
 27 48  1  0
 28 49  1  0
 29 50  1  0
 30 51  1  0
M  ISO  8  34  14  35  14  36  14  37  14  38  14  39  14  40  14  41  14
M  ISO  8  42  14  43  14  44   3  45   8  46   8  49  14  50  14  51  14
M  END
>  <minimizedAffinity>  (1) 
-7.77814102

>  <minimizedRMSD>  (1) 
2.70104337

$$$$
