
     RDKit          3D

 52 57  0  0  1  0  0  0  0  0999 V2000
   37.7230   30.6800   50.6270 C   0  0  0  0  0  0  0  0  0  0  0  0
   38.4510   31.3570   49.6770 C   0  0  0  0  0  0  0  0  0  0  0  0
   38.0830   31.3760   48.3230 C   0  0  0  0  0  0  0  0  0  0  0  0
   37.0040   30.7190   47.9900 N   0  0  0  0  0  0  0  0  0  0  0  0
   36.2850   30.0490   48.9460 C   0  0  0  0  0  0  0  0  0  0  0  0
   36.6340   30.0280   50.2280 N   0  0  0  0  0  0  0  0  0  0  0  0
   35.0690   29.3180   48.5920 C   0  0  0  0  0  0  0  0  0  0  0  0
   34.6100   28.0850   49.0000 C   0  0  0  0  0  0  0  0  0  0  0  0
   33.4380   27.6230   48.5310 C   0  0  0  0  0  0  0  0  0  0  0  0
   32.7560   28.4540   47.6360 C   0  0  0  0  0  0  0  0  0  0  0  0
   33.8400   29.9280   47.4800 S   0  0  0  0  0  0  0  0  0  0  0  0
   31.5010   28.2970   46.9410 C   0  0  0  0  0  0  0  0  0  0  0  0
   31.5880   28.1710   45.5940 C   0  0  0  0  0  0  0  0  0  0  0  0
   30.4150   28.0150   44.8580 C   0  0  0  0  0  0  0  0  0  0  0  0
   29.2180   27.9970   45.5440 C   0  0  0  0  0  0  0  0  0  0  0  0
   28.0510   27.8510   44.9100 N   0  0  0  0  0  0  0  0  0  0  0  0
   26.8810   27.8310   45.5580 C   0  0  0  0  0  0  0  0  0  0  0  0
   26.7580   27.9580   46.9380 C   0  0  0  0  0  0  0  0  0  0  0  0
   27.9620   28.1060   47.5820 C   0  0  0  0  0  0  0  0  0  0  0  0
   29.1780   28.1300   46.9360 C   0  0  0  0  0  0  0  0  0  0  0  0
   30.3420   28.2850   47.6640 C   0  0  0  0  0  0  0  0  0  0  0  0
   39.0020   32.0460   47.4460 C   0  0  1  0  0  0  0  0  0  0  0  0
   39.1110   31.5080   46.0370 C   0  0  2  0  0  0  0  0  0  0  0  0
   40.5820   31.1810   45.8030 C   0  0  0  0  0  0  0  0  0  0  0  0
   39.8560   32.2290   45.0350 C   0  0  1  0  0  0  0  0  0  0  0  0
   39.8030   31.9750   43.5880 C   0  0  0  0  0  0  0  0  0  0  0  0
   39.1040   32.8600   42.8080 C   0  0  0  0  0  0  0  0  0  0  0  0
   39.0990   32.6100   41.4550 C   0  0  0  0  0  0  0  0  0  0  0  0
   39.7430   31.5470   40.8730 C   0  0  0  0  0  0  0  0  0  0  0  0
   40.4370   30.6790   41.6930 C   0  0  0  0  0  0  0  0  0  0  0  0
   40.4550   30.9040   43.0200 N   0  0  0  0  0  0  0  0  0  0  0  0
   39.2100   33.3330   47.5270 O   0  0  0  0  0  0  0  0  0  0  0  0
   38.0311   30.6776   51.6830 H   0  0  0  0  0  0  0  0  0  0  0  0
   39.3535   31.9028   49.9894 H   0  0  0  0  0  0  0  0  0  0  0  0
   35.1995   27.4815   49.7060 H   0  0  0  0  0  0  0  0  0  0  0  0
   33.0371   26.6447   48.8345 H   0  0  0  0  0  0  0  0  0  0  0  0
   32.5662   28.1915   45.0914 H   0  0  0  0  0  0  0  0  0  0  0  0
   30.4425   27.9094   43.7634 H   0  0  0  0  0  0  0  0  0  0  0  0
   25.9627   27.7069   44.9653 H   0  0  0  0  0  0  0  0  0  0  0  0
   25.7910   27.9415   47.4620 H   0  0  0  0  0  0  0  0  0  0  0  0
   27.9546   28.2114   48.6769 H   0  0  0  0  0  0  0  0  0  0  0  0
   30.3358   28.3922   48.7587 H   0  0  0  0  0  0  0  0  0  0  0  0
   39.8823   31.6948   48.0043 H   0  0  0  0  0  0  0  0  0  0  0  0
   38.1113   31.0530   45.9778 H   0  0  0  0  0  0  0  0  0  0  0  0
   41.3410   31.4610   46.5484 H   0  0  0  0  0  0  0  0  0  0  0  0
   41.1668   30.2812   45.5613 H   0  0  0  0  0  0  0  0  0  0  0  0
   39.9072   33.3132   44.8565 H   0  0  0  0  0  0  0  0  0  0  0  0
   38.5761   33.7227   43.2404 H   0  0  0  0  0  0  0  0  0  0  0  0
   38.5470   33.3021   40.8021 H   0  0  0  0  0  0  0  0  0  0  0  0
   39.7075   31.3908   39.7847 H   0  0  0  0  0  0  0  0  0  0  0  0
   40.9682   29.8150   41.2672 H   0  0  0  0  0  0  0  0  0  0  0  0
   39.2533   33.6010   48.4790 H   0  0  0  0  0  0  0  0  0  0  0  0
  2  1  2  0
  3  2  1  0
  4  3  2  0
  4  5  1  0
  5  6  2  0
  6  1  1  0
  7  5  1  0
  7  8  2  0
  9  8  1  0
 10  9  2  0
 11 10  1  0
 11  7  1  0
 12 10  1  0
 12 21  1  0
 13 12  2  0
 14 15  2  0
 14 13  1  0
 15 20  1  0
 16 15  1  0
 16 17  2  0
 17 18  1  0
 18 19  2  0
 20 19  1  0
 20 21  2  0
 22 32  1  0
 22  3  1  0
 23 22  1  0
 24 23  1  0
 25 24  1  0
 25 23  1  0
 26 25  1  0
 27 26  2  0
 28 27  1  0
 29 28  2  0
 29 30  1  0
 30 31  2  0
 31 26  1  0
  1 33  1  0
  2 34  1  0
  8 35  1  0
  9 36  1  0
 13 37  1  0
 14 38  1  0
 17 39  1  0
 18 40  1  0
 19 41  1  0
 21 42  1  0
 22 43  1  1
 23 44  1  6
 24 45  1  0
 24 46  1  0
 25 47  1  6
 27 48  1  0
 28 49  1  0
 29 50  1  0
 30 51  1  0
 32 52  1  0
M  ISO  8  33  14  34  14  35  14  36  14  37  14  38  14  39  14  40  14
M  ISO  8  41  14  42  14  43   8  44  13  45  13  46  13  47  13  48  14
M  ISO  4  49  14  50  14  51  14  52   3
M  END
>  <minimizedAffinity>  (1) 
-7.38729048

>  <minimizedRMSD>  (1) 
0.648239493

$$$$
