
     RDKit          3D

 47 52  0  0  0  0  0  0  0  0999 V2000
   34.0580   29.2150   49.8740 C   0  0  0  0  0  0  0  0  0  0  0  0
   33.4890   29.7940   50.8290 O   0  0  0  0  0  0  0  0  0  0  0  0
   31.3540   27.2030   48.4770 C   0  0  0  0  0  0  0  0  0  0  0  0
   31.9890   26.4980   47.4630 C   0  0  0  0  0  0  0  0  0  0  0  0
   33.3260   26.6930   47.2430 C   0  0  0  0  0  0  0  0  0  0  0  0
   33.9700   27.5760   48.0360 N   0  0  0  0  0  0  0  0  0  0  0  0
   33.3480   28.2600   49.0200 C   0  0  0  0  0  0  0  0  0  0  0  0
   32.0400   28.0680   49.2330 N   0  0  0  0  0  0  0  0  0  0  0  0
   34.0640   25.9920   46.2010 C   0  0  0  0  0  0  0  0  0  0  0  0
   34.2100   26.4540   44.9100 C   0  0  0  0  0  0  0  0  0  0  0  0
   34.9080   25.7850   43.9320 C   0  0  0  0  0  0  0  0  0  0  0  0
   35.5050   24.5840   44.2300 C   0  0  0  0  0  0  0  0  0  0  0  0
   36.1900   23.9270   43.2740 N   0  0  0  0  0  0  0  0  0  0  0  0
   36.7700   22.7400   43.6010 C   0  0  0  0  0  0  0  0  0  0  0  0
   36.6980   22.1620   44.8680 C   0  0  0  0  0  0  0  0  0  0  0  0
   35.9890   22.8700   45.8090 C   0  0  0  0  0  0  0  0  0  0  0  0
   35.3860   24.0780   45.5160 C   0  0  0  0  0  0  0  0  0  0  0  0
   34.6710   24.7850   46.4750 C   0  0  0  0  0  0  0  0  0  0  0  0
   35.4640   29.5140   49.6250 C   0  0  0  0  0  0  0  0  0  0  0  0
   36.5030   29.0180   50.3970 C   0  0  0  0  0  0  0  0  0  0  0  0
   37.6320   29.5640   49.7900 C   0  0  0  0  0  0  0  0  0  0  0  0
   37.2400   30.3300   48.7270 C   0  0  0  0  0  0  0  0  0  0  0  0
   35.9280   30.2740   48.6610 O   0  0  0  0  0  0  0  0  0  0  0  0
   38.5520   32.3400   48.1940 C   0  0  0  0  0  0  0  0  0  0  0  0
   38.0950   31.0840   47.8130 C   0  0  0  0  0  0  0  0  0  0  0  0
   38.4340   30.5270   46.5870 C   0  0  0  0  0  0  0  0  0  0  0  0
   39.2430   31.2260   45.7110 C   0  0  0  0  0  0  0  0  0  0  0  0
   39.7420   30.9760   44.4770 N   0  0  0  0  0  0  0  0  0  0  0  0
   40.4660   32.0220   44.1180 N   0  0  0  0  0  0  0  0  0  0  0  0
   40.4420   32.9460   45.1040 C   0  0  0  0  0  0  0  0  0  0  0  0
   39.6620   32.4570   46.1370 C   0  0  0  0  0  0  0  0  0  0  0  0
   39.3720   33.0710   47.3270 C   0  0  0  0  0  0  0  0  0  0  0  0
   30.2802   27.0494   48.6599 H   0  0  0  0  0  0  0  0  0  0  0  0
   31.4224   25.7888   46.8418 H   0  0  0  0  0  0  0  0  0  0  0  0
   33.7408   27.4136   44.6471 H   0  0  0  0  0  0  0  0  0  0  0  0
   34.9877   26.2079   42.9197 H   0  0  0  0  0  0  0  0  0  0  0  0
   37.3289   22.2047   42.8193 H   0  0  0  0  0  0  0  0  0  0  0  0
   37.1784   21.2000   45.0998 H   0  0  0  0  0  0  0  0  0  0  0  0
   35.8990   22.4622   46.8266 H   0  0  0  0  0  0  0  0  0  0  0  0
   34.5863   24.3667   47.4888 H   0  0  0  0  0  0  0  0  0  0  0  0
   36.4493   28.3558   51.2737 H   0  0  0  0  0  0  0  0  0  0  0  0
   38.6712   29.4046   50.1136 H   0  0  0  0  0  0  0  0  0  0  0  0
   38.2706   32.7574   49.1721 H   0  0  0  0  0  0  0  0  0  0  0  0
   38.0589   29.5299   46.3131 H   0  0  0  0  0  0  0  0  0  0  0  0
   39.5856   30.1245   43.9190 H   0  0  0  0  0  0  0  0  0  0  0  0
   40.9544   33.9193   45.0881 H   0  0  0  0  0  0  0  0  0  0  0  0
   39.7569   34.0691   47.5831 H   0  0  0  0  0  0  0  0  0  0  0  0
  1  2  2  0
  3  8  2  0
  4  3  1  0
  5  4  2  0
  5  6  1  0
  6  7  2  0
  7  8  1  0
  7  1  1  0
  9 18  1  0
  9  5  1  0
 10  9  2  0
 11 12  2  0
 11 10  1  0
 12 17  1  0
 13 14  2  0
 13 12  1  0
 14 15  1  0
 15 16  2  0
 17 16  1  0
 17 18  2  0
 19  1  1  0
 19 20  2  0
 21 20  1  0
 22 21  2  0
 23 22  1  0
 23 19  1  0
 25 24  2  0
 25 22  1  0
 26 25  1  0
 27 31  1  0
 27 26  2  0
 28 27  1  0
 29 28  1  0
 29 30  2  0
 30 31  1  0
 31 32  2  0
 32 24  1  0
  3 33  1  0
  4 34  1  0
 10 35  1  0
 11 36  1  0
 14 37  1  0
 15 38  1  0
 16 39  1  0
 18 40  1  0
 20 41  1  0
 21 42  1  0
 24 43  1  0
 26 44  1  0
 28 45  1  0
 30 46  1  0
 32 47  1  0
M  ISO  8  33  14  34  14  35  14  36  14  37  14  38  14  39  14  40  14
M  ISO  7  41  14  42  14  43  14  44  14  45   9  46  14  47  14
M  END
>  <minimizedAffinity>  (1) 
-7.01266909

>  <minimizedRMSD>  (1) 
0.849631548

$$$$
