
     RDKit          3D

 28 30  0  0  0  0  0  0  0  0999 V2000
   37.6360   30.4820   51.1430 C   0  0  0  0  0  0  0  0  0  0  0  0
   38.2540   31.0700   50.0280 C   0  0  0  0  0  0  0  0  0  0  0  0
   37.5850   31.0290   48.8150 C   0  0  0  0  0  0  0  0  0  0  0  0
   36.3740   30.4220   48.7740 N   0  0  0  0  0  0  0  0  0  0  0  0
   35.8010   29.8630   49.8670 C   0  0  0  0  0  0  0  0  0  0  0  0
   36.4280   29.8910   51.0480 N   0  0  0  0  0  0  0  0  0  0  0  0
   38.0950   31.5870   47.5940 C   0  0  0  0  0  0  0  0  0  0  0  0
   39.1890   32.4140   47.6480 C   0  0  0  0  0  0  0  0  0  0  0  0
   39.7610   33.0070   46.5290 C   0  0  0  0  0  0  0  0  0  0  0  0
   39.1750   32.7330   45.2900 C   0  0  0  0  0  0  0  0  0  0  0  0
   39.7530   33.3230   44.2150 N   0  0  0  0  0  0  0  0  0  0  0  0
   39.1930   33.0660   43.0000 C   0  0  0  0  0  0  0  0  0  0  0  0
   38.0870   32.2400   42.8710 C   0  0  0  0  0  0  0  0  0  0  0  0
   37.5080   31.6450   43.9730 C   0  0  0  0  0  0  0  0  0  0  0  0
   38.0840   31.9140   45.1980 C   0  0  0  0  0  0  0  0  0  0  0  0
   37.5610   31.3560   46.3450 C   0  0  0  0  0  0  0  0  0  0  0  0
   34.4760   29.2300   49.6900 C   0  0  0  0  0  0  0  0  0  0  0  0
   33.5730   29.6150   50.6690 F   0  0  0  0  0  0  0  0  0  0  0  0
   33.8960   29.5680   48.4780 F   0  0  0  0  0  0  0  0  0  0  0  0
   34.5200   27.8490   49.7320 F   0  0  0  0  0  0  0  0  0  0  0  0
   38.1489   30.5040   52.1159 H   0  0  0  0  0  0  0  0  0  0  0  0
   39.2403   31.5492   50.1146 H   0  0  0  0  0  0  0  0  0  0  0  0
   39.6377   32.6187   48.6312 H   0  0  0  0  0  0  0  0  0  0  0  0
   40.6385   33.6647   46.6147 H   0  0  0  0  0  0  0  0  0  0  0  0
   39.6286   33.5247   42.1001 H   0  0  0  0  0  0  0  0  0  0  0  0
   37.6637   32.0558   41.8726 H   0  0  0  0  0  0  0  0  0  0  0  0
   36.6304   30.9884   43.8798 H   0  0  0  0  0  0  0  0  0  0  0  0
   36.6821   30.7000   46.2597 H   0  0  0  0  0  0  0  0  0  0  0  0
  2  1  2  0
  3  2  1  0
  4  3  2  0
  4  5  1  0
  5  6  2  0
  6  1  1  0
  7  8  2  0
  7  3  1  0
  9  8  1  0
 10  9  2  0
 11 10  1  0
 12 11  2  0
 13 12  1  0
 13 14  2  0
 14 15  1  0
 15 10  1  0
 15 16  2  0
 16  7  1  0
 17 20  1  0
 17  5  1  0
 17 18  1  0
 19 17  1  0
  1 21  1  0
  2 22  1  0
  8 23  1  0
  9 24  1  0
 12 25  1  0
 13 26  1  0
 14 27  1  0
 16 28  1  0
M  ISO  8  21  14  22  14  23  14  24  14  25  14  26  14  27  14  28  14
M  END
>  <minimizedAffinity>  (1) 
-6.70822811

>  <minimizedRMSD>  (1) 
2.2264955

$$$$
