
     RDKit          3D

 47 51  0  0  0  0  0  0  0  0999 V2000
   37.3990   31.2460   47.0240 N   0  0  0  0  0  0  0  0  0  0  0  0
   36.6980   31.0600   45.8730 C   0  0  0  0  0  0  0  0  0  0  0  0
   37.1080   31.5990   44.6690 C   0  0  0  0  0  0  0  0  0  0  0  0
   38.2890   32.3560   44.6800 C   0  0  0  0  0  0  0  0  0  0  0  0
   38.7070   32.8710   43.6080 O   0  0  0  0  0  0  0  0  0  0  0  0
   38.9920   32.5410   45.8380 N   0  0  0  0  0  0  0  0  0  0  0  0
   38.4920   31.9700   46.9240 C   0  0  0  0  0  0  0  0  0  0  0  0
   39.1600   32.1600   47.9680 O   0  0  0  0  0  0  0  0  0  0  0  0
   37.4270   29.5320   50.3270 C   0  0  0  0  0  0  0  0  0  0  0  0
   37.8470   30.0940   49.1130 C   0  0  0  0  0  0  0  0  0  0  0  0
   36.9650   30.6890   48.2330 C   0  0  0  0  0  0  0  0  0  0  0  0
   35.6780   30.7070   48.5950 N   0  0  0  0  0  0  0  0  0  0  0  0
   35.2270   30.1740   49.7630 C   0  0  0  0  0  0  0  0  0  0  0  0
   36.1140   29.5900   50.6180 N   0  0  0  0  0  0  0  0  0  0  0  0
   36.4020   31.4350   43.4070 C   0  0  0  0  0  0  0  0  0  0  0  0
   36.5810   30.3620   42.5810 C   0  0  0  0  0  0  0  0  0  0  0  0
   35.9250   30.1840   41.3810 C   0  0  0  0  0  0  0  0  0  0  0  0
   35.0150   31.1690   40.9790 C   0  0  0  0  0  0  0  0  0  0  0  0
   34.8640   32.2380   41.8430 C   0  0  0  0  0  0  0  0  0  0  0  0
   35.5290   32.3450   42.9870 N   0  0  0  0  0  0  0  0  0  0  0  0
   33.9370   33.3170   41.5140 C   0  0  0  0  0  0  0  0  0  0  0  0
   32.5790   33.0580   41.4130 C   0  0  0  0  0  0  0  0  0  0  0  0
   31.5940   33.9770   41.1110 C   0  0  0  0  0  0  0  0  0  0  0  0
   31.9970   35.2770   40.8880 C   0  0  0  0  0  0  0  0  0  0  0  0
   31.0990   36.2320   40.5890 N   0  0  0  0  0  0  0  0  0  0  0  0
   31.4600   37.5150   40.3660 C   0  0  0  0  0  0  0  0  0  0  0  0
   32.8200   37.8160   40.4600 C   0  0  0  0  0  0  0  0  0  0  0  0
   33.7910   36.8770   40.7640 C   0  0  0  0  0  0  0  0  0  0  0  0
   33.3380   35.5910   40.9780 C   0  0  0  0  0  0  0  0  0  0  0  0
   34.2830   34.6320   41.2830 C   0  0  0  0  0  0  0  0  0  0  0  0
   40.2020   33.3190   45.8360 C   0  0  0  0  0  0  0  0  0  0  0  0
   40.1720   34.2520   44.8630 F   0  0  0  0  0  0  0  0  0  0  0  0
   41.3480   32.5600   45.5940 F   0  0  0  0  0  0  0  0  0  0  0  0
   40.3250   33.9670   47.0590 F   0  0  0  0  0  0  0  0  0  0  0  0
   35.7755   30.4615   45.9020 H   0  0  0  0  0  0  0  0  0  0  0  0
   38.1438   29.0612   51.0159 H   0  0  0  0  0  0  0  0  0  0  0  0
   38.9153   30.0597   48.8529 H   0  0  0  0  0  0  0  0  0  0  0  0
   34.1570   30.2139   50.0149 H   0  0  0  0  0  0  0  0  0  0  0  0
   37.2967   29.5876   42.8940 H   0  0  0  0  0  0  0  0  0  0  0  0
   36.1110   29.2959   40.7592 H   0  0  0  0  0  0  0  0  0  0  0  0
   34.4551   31.0970   40.0349 H   0  0  0  0  0  0  0  0  0  0  0  0
   32.2554   32.0217   41.5903 H   0  0  0  0  0  0  0  0  0  0  0  0
   30.5351   33.6854   41.0509 H   0  0  0  0  0  0  0  0  0  0  0  0
   30.7159   38.2873   40.1215 H   0  0  0  0  0  0  0  0  0  0  0  0
   33.1370   38.8544   40.2831 H   0  0  0  0  0  0  0  0  0  0  0  0
   34.8571   37.1396   40.8308 H   0  0  0  0  0  0  0  0  0  0  0  0
   35.3416   34.9248   41.3435 H   0  0  0  0  0  0  0  0  0  0  0  0
  1 11  1  0
  2  1  1  0
  3  4  1  0
  3  2  2  0
  4  6  1  0
  5  4  2  0
  6  7  1  0
  7  1  1  0
  7  8  2  0
  9 14  2  0
 10  9  1  0
 11 12  1  0
 11 10  2  0
 12 13  2  0
 13 14  1  0
 15  3  1  0
 16 15  2  0
 17 16  1  0
 18 17  2  0
 18 19  1  0
 19 20  2  0
 20 15  1  0
 21 19  1  0
 22 21  2  0
 23 22  1  0
 24 29  1  0
 24 23  2  0
 25 24  1  0
 26 27  1  0
 26 25  2  0
 27 28  2  0
 28 29  1  0
 29 30  2  0
 30 21  1  0
 31  6  1  0
 31 34  1  0
 32 31  1  0
 33 31  1  0
  2 35  1  0
  9 36  1  0
 10 37  1  0
 13 38  1  0
 16 39  1  0
 17 40  1  0
 18 41  1  0
 22 42  1  0
 23 43  1  0
 26 44  1  0
 27 45  1  0
 28 46  1  0
 30 47  1  0
M  END
>  <minimizedAffinity>  (1) 
-7.34469271

>  <minimizedRMSD>  (1) 
0.875546694

$$$$
