
     RDKit          3D

 32 34  0  0  1  0  0  0  0  0999 V2000
   37.9050   31.4380   49.5040 C   0  0  0  0  0  0  0  0  0  0  0  0
   38.3830   32.7070   49.7700 C   0  0  0  0  0  0  0  0  0  0  0  0
   38.9870   33.3440   48.6560 C   0  0  0  0  0  0  0  0  0  0  0  0
   39.0640   32.7110   47.4380 N   0  0  0  0  0  0  0  0  0  0  0  0
   38.5750   31.4670   47.2530 C   0  0  0  0  0  0  0  0  0  0  0  0
   37.9850   30.8210   48.3060 N   0  0  0  0  0  0  0  0  0  0  0  0
   38.6990   30.8880   45.9590 N   0  0  0  0  0  0  0  0  0  0  0  0
   37.5430   30.4920   45.3530 C   0  0  0  0  0  0  0  0  0  0  0  0
   37.5810   29.9230   44.0990 C   0  0  0  0  0  0  0  0  0  0  0  0
   38.7910   29.7420   43.4290 C   0  0  0  0  0  0  0  0  0  0  0  0
   38.8300   29.2220   42.2810 O   0  0  0  0  0  0  0  0  0  0  0  0
   39.9100   30.1520   44.0730 N   0  0  0  0  0  0  0  0  0  0  0  0
   39.8590   30.7020   45.2890 C   0  0  0  0  0  0  0  0  0  0  0  0
   40.9050   31.0850   45.8910 O   0  0  0  0  0  0  0  0  0  0  0  0
   37.2280   30.7530   50.6490 C   0  0  1  0  0  0  0  0  0  0  0  0
   36.1570   29.7790   50.4470 C   0  0  2  0  0  0  0  0  0  0  0  0
   37.5390   29.2420   50.6810 C   0  0  0  0  0  0  0  0  0  0  0  0
   35.6160   29.6950   49.1710 O   0  0  0  0  0  0  0  0  0  0  0  0
   34.3450   29.4410   48.7770 C   0  0  0  0  0  0  0  0  0  0  0  0
   34.0350   29.2960   47.5740 O   0  0  0  0  0  0  0  0  0  0  0  0
   33.5410   29.3870   49.9150 N   0  0  0  0  0  0  0  0  0  0  0  0
   38.3021   33.1815   50.7591 H   0  0  0  0  0  0  0  0  0  0  0  0
   39.3992   34.3577   48.7680 H   0  0  0  0  0  0  0  0  0  0  0  0
   36.5794   30.6271   45.8661 H   0  0  0  0  0  0  0  0  0  0  0  0
   36.6432   29.6067   43.6189 H   0  0  0  0  0  0  0  0  0  0  0  0
   40.8242   30.0366   43.6128 H   0  0  0  0  0  0  0  0  0  0  0  0
   37.2864   31.6346   51.3042 H   0  0  0  0  0  0  0  0  0  0  0  0
   35.1859   29.5884   50.9272 H   0  0  0  0  0  0  0  0  0  0  0  0
   38.1001   28.7712   49.8603 H   0  0  0  0  0  0  0  0  0  0  0  0
   38.0090   28.5440   51.3895 H   0  0  0  0  0  0  0  0  0  0  0  0
   32.5318   29.2024   49.8242 H   0  0  0  0  0  0  0  0  0  0  0  0
   33.9564   29.5317   50.8464 H   0  0  0  0  0  0  0  0  0  0  0  0
  1  2  2  0
  1 15  1  0
  3  2  1  0
  4  3  2  0
  5  4  1  0
  5  6  2  0
  6  1  1  0
  7  5  1  0
  8  7  1  0
  9  8  2  0
 10 12  1  0
 10  9  1  0
 11 10  2  0
 12 13  1  0
 13 14  2  0
 13  7  1  0
 15 17  1  0
 16 15  1  0
 16 17  1  0
 18 16  1  0
 19 18  1  0
 19 21  1  0
 20 19  2  0
  2 22  1  0
  3 23  1  0
  8 24  1  0
  9 25  1  0
 12 26  1  0
 15 27  1  1
 16 28  1  1
 17 29  1  0
 17 30  1  0
 21 31  1  0
 21 32  1  0
M  ISO  8  22  14  23  14  24  14  25  14  26   9  27  13  28  13  29  13
M  ISO  1  30  13
M  END
>  <minimizedAffinity>  (1) 
-6.30907297

>  <minimizedRMSD>  (1) 
1.80215263

$$$$
