
     RDKit          3D

 30 32  0  0  0  0  0  0  0  0999 V2000
   37.4360   29.2020   50.8730 Br  0  0  0  0  0  0  0  0  0  0  0  0
   36.0290   29.2830   49.5900 C   0  0  0  0  0  0  0  0  0  0  0  0
   36.0040   30.2660   48.6240 C   0  0  0  0  0  0  0  0  0  0  0  0
   34.9460   30.2550   47.7290 C   0  0  0  0  0  0  0  0  0  0  0  0
   33.9310   29.3060   47.7710 C   0  0  0  0  0  0  0  0  0  0  0  0
   33.9980   28.3500   48.7500 C   0  0  0  0  0  0  0  0  0  0  0  0
   35.0410   28.3440   49.6480 C   0  0  0  0  0  0  0  0  0  0  0  0
   32.9400   29.4730   46.7620 N   0  0  0  0  0  0  0  0  0  0  0  0
   32.9070   30.3610   45.7560 C   0  0  0  0  0  0  0  0  0  0  0  0
   31.8320   30.3320   44.8920 C   0  0  0  0  0  0  0  0  0  0  0  0
   30.8030   29.4110   45.0500 C   0  0  0  0  0  0  0  0  0  0  0  0
   29.8270   29.4130   44.2360 O   0  0  0  0  0  0  0  0  0  0  0  0
   30.8810   28.5390   46.0780 N   0  0  0  0  0  0  0  0  0  0  0  0
   31.9340   28.5660   46.9240 C   0  0  0  0  0  0  0  0  0  0  0  0
   31.8560   27.6920   47.8240 O   0  0  0  0  0  0  0  0  0  0  0  0
   38.0160   33.1930   49.4350 C   0  0  0  0  0  0  0  0  0  0  0  0
   39.0240   33.1920   48.4510 C   0  0  0  0  0  0  0  0  0  0  0  0
   38.9990   32.1760   47.5100 C   0  0  0  0  0  0  0  0  0  0  0  0
   38.0090   31.2330   47.5830 N   0  0  0  0  0  0  0  0  0  0  0  0
   37.0530   31.2720   48.5540 C   0  0  0  0  0  0  0  0  0  0  0  0
   37.0670   32.2510   49.4690 N   0  0  0  0  0  0  0  0  0  0  0  0
   34.9076   31.0316   46.9509 H   0  0  0  0  0  0  0  0  0  0  0  0
   33.2132   27.5823   48.8188 H   0  0  0  0  0  0  0  0  0  0  0  0
   35.0787   27.5679   50.4267 H   0  0  0  0  0  0  0  0  0  0  0  0
   33.7169   31.0935   45.6238 H   0  0  0  0  0  0  0  0  0  0  0  0
   31.7883   31.0520   44.0615 H   0  0  0  0  0  0  0  0  0  0  0  0
   30.1310   27.8471   46.2184 H   0  0  0  0  0  0  0  0  0  0  0  0
   38.0091   33.9886   50.1946 H   0  0  0  0  0  0  0  0  0  0  0  0
   39.8021   33.9693   48.4307 H   0  0  0  0  0  0  0  0  0  0  0  0
   39.7609   32.1276   46.7181 H   0  0  0  0  0  0  0  0  0  0  0  0
  2  7  2  0
  2  1  1  0
  3  2  1  0
  4  5  1  0
  4  3  2  0
  5  6  2  0
  6  7  1  0
  8 14  1  0
  8  5  1  0
  9  8  1  0
 10 11  1  0
 10  9  2  0
 11 13  1  0
 12 11  2  0
 13 14  1  0
 14 15  2  0
 16 21  2  0
 17 16  1  0
 18 19  1  0
 18 17  2  0
 19 20  2  0
 20  3  1  0
 20 21  1  0
  4 22  1  0
  6 23  1  0
  7 24  1  0
  9 25  1  0
 10 26  1  0
 13 27  1  0
 16 28  1  0
 17 29  1  0
 18 30  1  0
M  ISO  8  22  14  23  14  24  14  25  14  26  14  27   9  28  14  29  14
M  ISO  1  30  14
M  END
>  <minimizedAffinity>  (1) 
-6.06337309

>  <minimizedRMSD>  (1) 
0.353209555

$$$$
