
     RDKit          3D

 44 48  0  0  0  0  0  0  0  0999 V2000
   34.6100   28.3920   47.9270 C   0  0  0  0  0  0  0  0  0  0  0  0
   33.1300   28.4150   47.6460 C   0  0  0  0  0  0  0  0  0  0  0  0
   32.1690   27.5860   48.1890 C   0  0  0  0  0  0  0  0  0  0  0  0
   30.9320   27.9390   47.6680 C   0  0  0  0  0  0  0  0  0  0  0  0
   31.1910   28.9790   46.8210 N   0  0  0  0  0  0  0  0  0  0  0  0
   32.4800   29.2490   46.8160 N   0  0  0  0  0  0  0  0  0  0  0  0
   28.7670   29.2960   46.2390 N   0  0  0  0  0  0  0  0  0  0  0  0
   30.0890   29.5580   46.1290 C   0  0  0  0  0  0  0  0  0  0  0  0
   30.2190   30.5280   45.1930 N   0  0  0  0  0  0  0  0  0  0  0  0
   29.0160   30.8780   44.7150 C   0  0  0  0  0  0  0  0  0  0  0  0
   28.6440   31.8010   43.7670 C   0  0  0  0  0  0  0  0  0  0  0  0
   27.3380   31.9460   43.4800 N   0  0  0  0  0  0  0  0  0  0  0  0
   26.4190   31.1880   44.1220 C   0  0  0  0  0  0  0  0  0  0  0  0
   26.7910   30.2770   45.0570 N   0  0  0  0  0  0  0  0  0  0  0  0
   28.0880   30.1030   45.3720 C   0  0  0  0  0  0  0  0  0  0  0  0
   34.7410   28.3030   49.4250 C   0  0  0  0  0  0  0  0  0  0  0  0
   37.2000   30.0820   51.5630 C   0  0  0  0  0  0  0  0  0  0  0  0
   37.9300   30.8080   50.6150 C   0  0  0  0  0  0  0  0  0  0  0  0
   37.5790   30.6860   49.2590 C   0  0  0  0  0  0  0  0  0  0  0  0
   36.5480   29.8670   48.9480 N   0  0  0  0  0  0  0  0  0  0  0  0
   35.8650   29.1810   49.8850 C   0  0  0  0  0  0  0  0  0  0  0  0
   36.1980   29.2990   51.1500 N   0  0  0  0  0  0  0  0  0  0  0  0
   38.2360   31.3660   48.1960 N   0  0  0  0  0  0  0  0  0  0  0  0
   38.3320   30.6760   47.0330 C   0  0  0  0  0  0  0  0  0  0  0  0
   38.9720   31.3250   45.9780 C   0  0  0  0  0  0  0  0  0  0  0  0
   39.4630   32.6120   46.1780 C   0  0  0  0  0  0  0  0  0  0  0  0
   40.0480   33.2130   45.2300 O   0  0  0  0  0  0  0  0  0  0  0  0
   39.3340   33.2480   47.3740 N   0  0  0  0  0  0  0  0  0  0  0  0
   38.7130   32.6110   48.3860 C   0  0  0  0  0  0  0  0  0  0  0  0
   38.5580   33.1410   49.5180 O   0  0  0  0  0  0  0  0  0  0  0  0
   35.0851   29.3116   47.5547 H   0  0  0  0  0  0  0  0  0  0  0  0
   35.1045   27.5467   47.4260 H   0  0  0  0  0  0  0  0  0  0  0  0
   32.3531   26.7796   48.9141 H   0  0  0  0  0  0  0  0  0  0  0  0
   29.9564   27.4814   47.8888 H   0  0  0  0  0  0  0  0  0  0  0  0
   28.3427   28.6028   46.8717 H   0  0  0  0  0  0  0  0  0  0  0  0
   29.4012   32.4105   43.2520 H   0  0  0  0  0  0  0  0  0  0  0  0
   25.3527   31.3122   43.8821 H   0  0  0  0  0  0  0  0  0  0  0  0
   33.8028   28.6334   49.8947 H   0  0  0  0  0  0  0  0  0  0  0  0
   34.9501   27.2619   49.7119 H   0  0  0  0  0  0  0  0  0  0  0  0
   37.4470   30.1545   52.6324 H   0  0  0  0  0  0  0  0  0  0  0  0
   38.7603   31.4599   50.9241 H   0  0  0  0  0  0  0  0  0  0  0  0
   37.9268   29.6588   46.9274 H   0  0  0  0  0  0  0  0  0  0  0  0
   39.0870   30.8280   45.0034 H   0  0  0  0  0  0  0  0  0  0  0  0
   39.7048   34.2002   47.5035 H   0  0  0  0  0  0  0  0  0  0  0  0
  1 16  1  0
  2  1  1  0
  2  3  1  0
  4  3  2  0
  5  4  1  0
  6  5  1  0
  6  2  2  0
  8  7  1  0
  8  5  1  0
  9  8  2  0
 10  9  1  0
 10 15  2  0
 11 10  1  0
 12 11  2  0
 12 13  1  0
 13 14  2  0
 14 15  1  0
 15  7  1  0
 16 21  1  0
 18 17  2  0
 19 18  1  0
 20 19  2  0
 20 21  1  0
 21 22  2  0
 22 17  1  0
 23 29  1  0
 23 19  1  0
 24 23  1  0
 25 26  1  0
 25 24  2  0
 26 28  1  0
 27 26  2  0
 28 29  1  0
 29 30  2  0
  1 31  1  0
  1 32  1  0
  3 33  1  0
  4 34  1  0
  7 35  1  0
 11 36  1  0
 13 37  1  0
 16 38  1  0
 16 39  1  0
 17 40  1  0
 18 41  1  0
 24 42  1  0
 25 43  1  0
 28 44  1  0
M  ISO  8  31   8  32   8  33  14  34  14  35   9  36  14  37  14  38   8
M  ISO  6  39   8  40  14  41  14  42  14  43  14  44   9
M  END
>  <minimizedAffinity>  (1) 
-8.04616737

>  <minimizedRMSD>  (1) 
0.598018408

$$$$
