
     RDKit          3D

 36 38  0  0  1  0  0  0  0  0999 V2000
   34.5110   30.1970   49.0990 C   0  0  1  0  0  0  0  0  0  0  0  0
   34.1900   30.3150   47.6720 C   0  0  0  0  0  0  0  0  0  0  0  0
   34.3700   29.0850   46.8460 C   0  0  0  0  0  0  0  0  0  0  0  0
   33.9790   27.8140   47.4610 C   0  0  1  0  0  0  0  0  0  0  0  0
   34.3090   27.6840   48.9060 C   0  0  0  0  0  0  0  0  0  0  0  0
   34.0290   28.9190   49.7030 C   0  0  0  0  0  0  0  0  0  0  0  0
   32.6530   27.3270   47.2270 N   0  0  0  0  0  0  0  0  0  0  0  0
   32.1610   26.7030   46.1740 C   0  0  0  0  0  0  0  0  0  0  0  0
   30.8780   26.2620   46.0140 C   0  0  0  0  0  0  0  0  0  0  0  0
   29.9760   26.4810   47.0550 C   0  0  0  0  0  0  0  0  0  0  0  0
   28.7880   26.0920   46.9510 O   0  0  0  0  0  0  0  0  0  0  0  0
   30.4780   27.1260   48.1480 N   0  0  0  0  0  0  0  0  0  0  0  0
   31.7540   27.5320   48.2340 C   0  0  0  0  0  0  0  0  0  0  0  0
   31.9670   28.1060   49.3540 O   0  0  0  0  0  0  0  0  0  0  0  0
   36.7680   31.2540   48.6370 C   0  0  0  0  0  0  0  0  0  0  0  0
   35.9080   30.5290   49.4820 C   0  0  0  0  0  0  0  0  0  0  0  0
   36.4160   30.1340   50.7040 C   0  0  0  0  0  0  0  0  0  0  0  0
   37.6930   30.4490   51.0330 N   0  0  0  0  0  0  0  0  0  0  0  0
   38.4910   31.1510   50.1880 C   0  0  0  0  0  0  0  0  0  0  0  0
   38.0140   31.5510   48.9850 N   0  0  0  0  0  0  0  0  0  0  0  0
   33.9250   31.0085   49.5552 H   0  0  0  0  0  0  0  0  0  0  0  0
   33.1367   30.6214   47.5904 H   0  0  0  0  0  0  0  0  0  0  0  0
   34.9096   31.0437   47.2706 H   0  0  0  0  0  0  0  0  0  0  0  0
   35.4357   29.0136   46.5830 H   0  0  0  0  0  0  0  0  0  0  0  0
   33.6916   29.2113   45.9894 H   0  0  0  0  0  0  0  0  0  0  0  0
   34.6365   27.1526   46.8778 H   0  0  0  0  0  0  0  0  0  0  0  0
   33.7142   26.8588   49.3247 H   0  0  0  0  0  0  0  0  0  0  0  0
   35.3913   27.4987   48.9720 H   0  0  0  0  0  0  0  0  0  0  0  0
   34.5113   28.8052   50.6850 H   0  0  0  0  0  0  0  0  0  0  0  0
   32.9334   29.0035   49.7542 H   0  0  0  0  0  0  0  0  0  0  0  0
   32.8543   26.5191   45.3400 H   0  0  0  0  0  0  0  0  0  0  0  0
   30.5657   25.7497   45.0920 H   0  0  0  0  0  0  0  0  0  0  0  0
   29.8490   27.3094   48.9427 H   0  0  0  0  0  0  0  0  0  0  0  0
   36.3959   31.5854   47.6563 H   0  0  0  0  0  0  0  0  0  0  0  0
   35.7879   29.5668   51.4067 H   0  0  0  0  0  0  0  0  0  0  0  0
   39.5232   31.3945   50.4799 H   0  0  0  0  0  0  0  0  0  0  0  0
  1 16  1  0
  1  6  1  0
  2  1  1  0
  3  4  1  0
  3  2  1  0
  4  5  1  0
  5  6  1  0
  7  4  1  0
  7 13  1  0
  8  7  1  0
  9  8  2  0
  9 10  1  0
 10 12  1  0
 11 10  2  0
 12 13  1  0
 13 14  2  0
 15 20  2  0
 15 16  1  0
 16 17  2  0
 17 18  1  0
 19 18  2  0
 20 19  1  0
  1 21  1  1
  2 22  1  0
  2 23  1  0
  3 24  1  0
  3 25  1  0
  4 26  1  6
  5 27  1  0
  5 28  1  0
  6 29  1  0
  6 30  1  0
  8 31  1  0
  9 32  1  0
 12 33  1  0
 15 34  1  0
 17 35  1  0
 19 36  1  0
M  ISO  8  21  13  22  13  23  13  24  13  25  13  26  13  27  13  28  13
M  ISO  8  29  13  30  13  31  14  32  14  33   9  34  14  35  14  36  14
M  END
>  <minimizedAffinity>  (1) 
-5.31282711

>  <minimizedRMSD>  (1) 
0.208703905

$$$$
