
     RDKit          3D

 43 46  0  0  0  0  0  0  0  0999 V2000
   34.4990   29.4020   50.2420 C   0  0  0  0  0  0  0  0  0  0  0  0
   35.8300   30.0450   50.2230 C   0  0  0  0  0  0  0  0  0  0  0  0
   36.7890   29.8050   51.2090 C   0  0  0  0  0  0  0  0  0  0  0  0
   37.8910   30.5400   50.9040 C   0  0  0  0  0  0  0  0  0  0  0  0
   37.6260   31.2080   49.7750 N   0  0  0  0  0  0  0  0  0  0  0  0
   36.4040   30.8920   49.4050 N   0  0  0  0  0  0  0  0  0  0  0  0
   38.4010   32.1150   49.0080 C   0  0  0  0  0  0  0  0  0  0  0  0
   38.7710   33.2790   49.6290 C   0  0  0  0  0  0  0  0  0  0  0  0
   39.5320   34.2670   49.0060 C   0  0  0  0  0  0  0  0  0  0  0  0
   39.9170   34.0280   47.6960 C   0  0  0  0  0  0  0  0  0  0  0  0
   39.5500   32.8640   47.0680 C   0  0  0  0  0  0  0  0  0  0  0  0
   38.7960   31.8980   47.7000 C   0  0  0  0  0  0  0  0  0  0  0  0
   34.3620   28.2810   49.2840 C   0  0  0  0  0  0  0  0  0  0  0  0
   33.9120   28.5910   47.9550 C   0  0  0  0  0  0  0  0  0  0  0  0
   32.6430   28.2920   47.5530 C   0  0  0  0  0  0  0  0  0  0  0  0
   32.1880   28.5920   46.2470 C   0  0  0  0  0  0  0  0  0  0  0  0
   33.1130   29.2000   45.4250 N   0  0  0  0  0  0  0  0  0  0  0  0
   34.3620   29.4780   45.8630 C   0  0  0  0  0  0  0  0  0  0  0  0
   34.7490   29.1710   47.1210 N   0  0  0  0  0  0  0  0  0  0  0  0
   35.2670   30.1070   44.9620 N   0  0  0  0  0  0  0  0  0  0  0  0
   36.5290   30.4770   45.2510 C   0  0  0  0  0  0  0  0  0  0  0  0
   37.3090   31.0790   44.2880 C   0  0  0  0  0  0  0  0  0  0  0  0
   36.8420   31.3260   43.0080 C   0  0  0  0  0  0  0  0  0  0  0  0
   37.5200   31.8710   42.1090 O   0  0  0  0  0  0  0  0  0  0  0  0
   35.5830   30.9440   42.7590 N   0  0  0  0  0  0  0  0  0  0  0  0
   34.8490   30.3650   43.7010 C   0  0  0  0  0  0  0  0  0  0  0  0
   33.6590   30.0330   43.3770 O   0  0  0  0  0  0  0  0  0  0  0  0
   34.3148   29.0163   51.2556 H   0  0  0  0  0  0  0  0  0  0  0  0
   33.7689   30.1688   49.9437 H   0  0  0  0  0  0  0  0  0  0  0  0
   36.6734   29.1399   52.0775 H   0  0  0  0  0  0  0  0  0  0  0  0
   38.8279   30.5786   51.4791 H   0  0  0  0  0  0  0  0  0  0  0  0
   38.4522   33.4417   50.6692 H   0  0  0  0  0  0  0  0  0  0  0  0
   39.8137   35.1926   49.5293 H   0  0  0  0  0  0  0  0  0  0  0  0
   40.5193   34.7744   47.1574 H   0  0  0  0  0  0  0  0  0  0  0  0
   39.8673   32.6966   46.0281 H   0  0  0  0  0  0  0  0  0  0  0  0
   38.5142   30.9735   47.1748 H   0  0  0  0  0  0  0  0  0  0  0  0
   35.3486   27.8030   49.1939 H   0  0  0  0  0  0  0  0  0  0  0  0
   33.5674   27.6487   49.7068 H   0  0  0  0  0  0  0  0  0  0  0  0
   31.9565   27.8057   48.2616 H   0  0  0  0  0  0  0  0  0  0  0  0
   31.1674   28.3565   45.9110 H   0  0  0  0  0  0  0  0  0  0  0  0
   36.9375   30.2985   46.2566 H   0  0  0  0  0  0  0  0  0  0  0  0
   38.3374   31.3733   44.5446 H   0  0  0  0  0  0  0  0  0  0  0  0
   35.1791   31.1015   41.8247 H   0  0  0  0  0  0  0  0  0  0  0  0
  2  1  1  0
  2  3  1  0
  4  3  2  0
  5  4  1  0
  6  5  1  0
  6  2  2  0
  7  8  2  0
  7  5  1  0
  9  8  1  0
 10  9  2  0
 11 10  1  0
 11 12  2  0
 12  7  1  0
 13  1  1  0
 14 13  1  0
 15 14  2  0
 16 15  1  0
 17 18  1  0
 17 16  2  0
 18 19  2  0
 19 14  1  0
 20 21  1  0
 20 18  1  0
 22 21  2  0
 23 22  1  0
 24 23  2  0
 25 23  1  0
 25 26  1  0
 26 20  1  0
 27 26  2  0
  1 28  1  0
  1 29  1  0
  3 30  1  0
  4 31  1  0
  8 32  1  0
  9 33  1  0
 10 34  1  0
 11 35  1  0
 12 36  1  0
 13 37  1  0
 13 38  1  0
 15 39  1  0
 16 40  1  0
 21 41  1  0
 22 42  1  0
 25 43  1  0
M  ISO  8  28   8  29   8  30  14  31  14  32  14  33  14  34  14  35  14
M  ISO  8  36  14  37   8  38   8  39  14  40  14  41  14  42  14  43   9
M  END
>  <minimizedAffinity>  (1) 
-6.56491756

>  <minimizedRMSD>  (1) 
1.59077144

$$$$
