
     RDKit          3D

 42 46  0  0  0  0  0  0  0  0999 V2000
   35.5230   29.5680   49.6670 C   0  0  0  0  0  0  0  0  0  0  0  0
   36.5480   29.2350   50.5270 C   0  0  0  0  0  0  0  0  0  0  0  0
   37.6820   29.7420   49.9000 C   0  0  0  0  0  0  0  0  0  0  0  0
   37.3110   30.3400   48.7260 C   0  0  0  0  0  0  0  0  0  0  0  0
   35.9960   30.2200   48.6100 O   0  0  0  0  0  0  0  0  0  0  0  0
   38.6210   32.2840   48.0040 C   0  0  0  0  0  0  0  0  0  0  0  0
   38.1820   30.9990   47.7560 C   0  0  0  0  0  0  0  0  0  0  0  0
   38.5460   30.3070   46.6020 C   0  0  0  0  0  0  0  0  0  0  0  0
   39.3700   30.9110   45.6690 C   0  0  0  0  0  0  0  0  0  0  0  0
   39.8930   30.5260   44.4830 N   0  0  0  0  0  0  0  0  0  0  0  0
   40.6240   31.5470   44.0280 N   0  0  0  0  0  0  0  0  0  0  0  0
   40.5790   32.5670   44.8940 C   0  0  0  0  0  0  0  0  0  0  0  0
   39.7820   32.1950   45.9620 C   0  0  0  0  0  0  0  0  0  0  0  0
   39.4560   32.9190   47.0750 C   0  0  0  0  0  0  0  0  0  0  0  0
   34.1130   29.2440   49.8930 C   0  0  0  0  0  0  0  0  0  0  0  0
   33.5330   29.7970   50.8490 O   0  0  0  0  0  0  0  0  0  0  0  0
   31.4620   27.2080   48.4370 C   0  0  0  0  0  0  0  0  0  0  0  0
   32.0990   26.5440   47.4010 C   0  0  0  0  0  0  0  0  0  0  0  0
   33.4370   26.7840   47.1890 C   0  0  0  0  0  0  0  0  0  0  0  0
   34.0730   27.6590   48.0030 N   0  0  0  0  0  0  0  0  0  0  0  0
   33.4380   28.2980   49.0100 C   0  0  0  0  0  0  0  0  0  0  0  0
   32.1320   28.0670   49.2200 N   0  0  0  0  0  0  0  0  0  0  0  0
   34.0980   26.1050   46.1260 N   0  0  0  0  0  0  0  0  0  0  0  0
   34.5710   24.8480   46.2820 C   0  0  0  0  0  0  0  0  0  0  0  0
   35.2210   24.1830   45.2360 C   0  0  0  0  0  0  0  0  0  0  0  0
   35.3450   24.8870   44.0490 C   0  0  0  0  0  0  0  0  0  0  0  0
   35.9300   24.3210   43.0650 O   0  0  0  0  0  0  0  0  0  0  0  0
   34.8550   26.1560   43.9260 N   0  0  0  0  0  0  0  0  0  0  0  0
   34.2380   26.7570   44.9560 C   0  0  0  0  0  0  0  0  0  0  0  0
   33.8300   27.9230   44.7230 O   0  0  0  0  0  0  0  0  0  0  0  0
   36.4843   28.6956   51.4835 H   0  0  0  0  0  0  0  0  0  0  0  0
   38.7100   29.6734   50.2853 H   0  0  0  0  0  0  0  0  0  0  0  0
   38.3177   32.8055   48.9238 H   0  0  0  0  0  0  0  0  0  0  0  0
   38.1792   29.2837   46.4336 H   0  0  0  0  0  0  0  0  0  0  0  0
   39.7540   29.6173   44.0184 H   0  0  0  0  0  0  0  0  0  0  0  0
   41.0883   33.5349   44.7766 H   0  0  0  0  0  0  0  0  0  0  0  0
   39.8281   33.9421   47.2323 H   0  0  0  0  0  0  0  0  0  0  0  0
   30.3923   27.0284   48.6200 H   0  0  0  0  0  0  0  0  0  0  0  0
   31.5465   25.8398   46.7615 H   0  0  0  0  0  0  0  0  0  0  0  0
   34.4426   24.3388   47.2485 H   0  0  0  0  0  0  0  0  0  0  0  0
   35.6108   23.1607   45.3496 H   0  0  0  0  0  0  0  0  0  0  0  0
   34.9600   26.6578   43.0326 H   0  0  0  0  0  0  0  0  0  0  0  0
  1 15  1  0
  1  2  2  0
  3  2  1  0
  4  3  2  0
  5  4  1  0
  5  1  1  0
  7  6  2  0
  7  4  1  0
  8  7  1  0
  9 13  1  0
  9  8  2  0
 10  9  1  0
 11 10  1  0
 11 12  2  0
 12 13  1  0
 13 14  2  0
 14  6  1  0
 15 16  2  0
 17 22  2  0
 18 17  1  0
 19 18  2  0
 19 20  1  0
 20 21  2  0
 21 22  1  0
 21 15  1  0
 23 24  1  0
 23 19  1  0
 25 24  2  0
 26 25  1  0
 27 26  2  0
 28 26  1  0
 28 29  1  0
 29 23  1  0
 30 29  2  0
  2 31  1  0
  3 32  1  0
  6 33  1  0
  8 34  1  0
 10 35  1  0
 12 36  1  0
 14 37  1  0
 17 38  1  0
 18 39  1  0
 24 40  1  0
 25 41  1  0
 28 42  1  0
M  ISO  8  31  14  32  14  33  14  34  14  35   9  36  14  37  14  38  14
M  ISO  4  39  14  40  14  41  14  42   9
M  END
>  <minimizedAffinity>  (1) 
-6.6944499

>  <minimizedRMSD>  (1) 
0.678244293

$$$$
