
     RDKit          3D

 34 36  0  0  0  0  0  0  0  0999 V2000
   38.5290   30.4290   47.3610 F   0  0  0  0  0  0  0  0  0  0  0  0
   38.7710   31.6650   47.8330 C   0  0  0  0  0  0  0  0  0  0  0  0
   38.1700   32.0770   48.9890 C   0  0  0  0  0  0  0  0  0  0  0  0
   38.4590   33.3520   49.4220 C   0  0  0  0  0  0  0  0  0  0  0  0
   39.3120   34.1990   48.7430 C   0  0  0  0  0  0  0  0  0  0  0  0
   39.9120   33.7670   47.5770 C   0  0  0  0  0  0  0  0  0  0  0  0
   39.6300   32.4930   47.1340 C   0  0  0  0  0  0  0  0  0  0  0  0
   36.7580   29.5880   51.4550 C   0  0  0  0  0  0  0  0  0  0  0  0
   37.6500   30.4720   50.8240 C   0  0  0  0  0  0  0  0  0  0  0  0
   37.2780   31.1540   49.6730 C   0  0  0  0  0  0  0  0  0  0  0  0
   36.0130   30.9260   49.1850 N   0  0  0  0  0  0  0  0  0  0  0  0
   35.1730   30.0750   49.8040 C   0  0  0  0  0  0  0  0  0  0  0  0
   35.5320   29.4210   50.9110 N   0  0  0  0  0  0  0  0  0  0  0  0
   39.4140   32.0890   44.7550 C   0  0  0  0  0  0  0  0  0  0  0  0
   38.2650   32.6190   44.9910 O   0  0  0  0  0  0  0  0  0  0  0  0
   40.2240   31.9950   45.9170 N   0  0  0  0  0  0  0  0  0  0  0  0
   40.8580   29.9690   42.1250 N   0  0  0  0  0  0  0  0  0  0  0  0
   40.4800   30.4630   43.3150 C   0  0  0  0  0  0  0  0  0  0  0  0
   39.7620   31.6620   43.4200 C   0  0  0  0  0  0  0  0  0  0  0  0
   39.5030   32.2500   42.2020 C   0  0  0  0  0  0  0  0  0  0  0  0
   38.8730   33.3100   42.2420 O   0  0  0  0  0  0  0  0  0  0  0  0
   39.8870   31.7440   41.0200 N   0  0  0  0  0  0  0  0  0  0  0  0
   40.5730   30.5900   40.9670 C   0  0  0  0  0  0  0  0  0  0  0  0
   40.9550   30.0750   39.9010 O   0  0  0  0  0  0  0  0  0  0  0  0
   37.9896   33.7113   50.3496 H   0  0  0  0  0  0  0  0  0  0  0  0
   39.5120   35.2099   49.1279 H   0  0  0  0  0  0  0  0  0  0  0  0
   40.5962   34.4216   47.0172 H   0  0  0  0  0  0  0  0  0  0  0  0
   37.0498   29.0466   52.3670 H   0  0  0  0  0  0  0  0  0  0  0  0
   38.6539   30.6253   51.2466 H   0  0  0  0  0  0  0  0  0  0  0  0
   34.1674   29.9149   49.3878 H   0  0  0  0  0  0  0  0  0  0  0  0
   41.1738   31.5972   45.8929 H   0  0  0  0  0  0  0  0  0  0  0  0
   41.3843   29.0840   42.0984 H   0  0  0  0  0  0  0  0  0  0  0  0
   40.7406   29.9125   44.2310 H   0  0  0  0  0  0  0  0  0  0  0  0
   39.6547   32.2427   40.1492 H   0  0  0  0  0  0  0  0  0  0  0  0
  1  2  1  0
  2  3  2  0
  3  4  1  0
  3 10  1  0
  5  4  2  0
  6  5  1  0
  7  6  2  0
  7  2  1  0
  9  8  2  0
 10  9  1  0
 11 10  2  0
 11 12  1  0
 12 13  2  0
 13  8  1  0
 14 15  2  0
 14 16  1  0
 16  7  1  0
 17 18  1  0
 18 19  2  0
 19 14  1  0
 20 21  2  0
 20 19  1  0
 22 20  1  0
 23 22  1  0
 23 17  1  0
 24 23  2  0
  4 25  1  0
  5 26  1  0
  6 27  1  0
  8 28  1  0
  9 29  1  0
 12 30  1  0
 16 31  1  0
 17 32  1  0
 18 33  1  0
 22 34  1  0
M  ISO  8  25  14  26  14  27  14  28  14  29  14  30  14  32   9  33  14
M  ISO  1  34   9
M  END
>  <minimizedAffinity>  (1) 
-6.94526148

>  <minimizedRMSD>  (1) 
0.399767518

$$$$
