
     RDKit          3D

 40 43  0  0  1  0  0  0  0  0999 V2000
   33.8890   28.9020   47.2690 C   0  0  2  0  0  0  0  0  0  0  0  0
   34.5810   28.1610   48.4060 C   0  0  2  0  0  0  0  0  0  0  0  0
   33.6550   28.0910   49.4130 O   0  0  0  0  0  0  0  0  0  0  0  0
   32.3870   28.1940   48.9160 C   0  0  0  0  0  0  0  0  0  0  0  0
   32.4830   28.3040   47.4060 C   0  0  1  0  0  0  0  0  0  0  0  0
   35.7030   30.3800   49.1260 C   0  0  1  0  0  0  0  0  0  0  0  0
   35.7690   28.9740   48.8050 C   0  0  1  0  0  0  0  0  0  0  0  0
   36.0200   29.3530   50.2270 C   0  0  0  0  0  0  0  0  0  0  0  0
   36.8890   31.2970   48.8540 C   0  0  0  0  0  0  0  0  0  0  0  0
   37.0710   32.3720   49.7280 C   0  0  0  0  0  0  0  0  0  0  0  0
   38.1510   33.1890   49.4230 C   0  0  0  0  0  0  0  0  0  0  0  0
   38.9540   32.9340   48.3440 N   0  0  0  0  0  0  0  0  0  0  0  0
   38.7330   31.8750   47.5260 C   0  0  0  0  0  0  0  0  0  0  0  0
   37.6880   31.0460   47.7840 N   0  0  0  0  0  0  0  0  0  0  0  0
   34.4230   28.6500   46.0280 O   0  0  0  0  0  0  0  0  0  0  0  0
   31.5280   29.0940   46.8450 O   0  0  0  0  0  0  0  0  0  0  0  0
   28.1670   27.5550   47.0210 N   0  0  0  0  0  0  0  0  0  0  0  0
   29.4740   27.6680   47.3060 C   0  0  0  0  0  0  0  0  0  0  0  0
   30.2060   28.7010   46.7590 C   0  0  0  0  0  0  0  0  0  0  0  0
   29.5310   29.5970   45.9190 C   0  0  0  0  0  0  0  0  0  0  0  0
   29.9920   30.6030   45.3170 O   0  0  0  0  0  0  0  0  0  0  0  0
   28.2010   29.4400   45.6600 N   0  0  0  0  0  0  0  0  0  0  0  0
   27.5240   28.4180   46.2140 C   0  0  0  0  0  0  0  0  0  0  0  0
   26.3020   28.1680   46.0530 O   0  0  0  0  0  0  0  0  0  0  0  0
   33.9652   29.9971   47.3386 H   0  0  0  0  0  0  0  0  0  0  0  0
   34.9265   27.1506   48.1421 H   0  0  0  0  0  0  0  0  0  0  0  0
   31.8053   27.3012   49.1890 H   0  0  0  0  0  0  0  0  0  0  0  0
   31.8840   29.0792   49.3325 H   0  0  0  0  0  0  0  0  0  0  0  0
   32.3223   27.3504   46.8817 H   0  0  0  0  0  0  0  0  0  0  0  0
   34.9460   31.1439   48.8947 H   0  0  0  0  0  0  0  0  0  0  0  0
   36.3295   28.4047   48.0489 H   0  0  0  0  0  0  0  0  0  0  0  0
   37.0320   29.2851   50.6528 H   0  0  0  0  0  0  0  0  0  0  0  0
   35.6020   29.0835   51.2081 H   0  0  0  0  0  0  0  0  0  0  0  0
   36.4113   32.5561   50.5888 H   0  0  0  0  0  0  0  0  0  0  0  0
   38.3659   34.0588   50.0611 H   0  0  0  0  0  0  0  0  0  0  0  0
   39.3915   31.6896   46.6646 H   0  0  0  0  0  0  0  0  0  0  0  0
   35.3135   28.2298   46.1310 H   0  0  0  0  0  0  0  0  0  0  0  0
   27.6356   26.7767   47.4367 H   0  0  0  0  0  0  0  0  0  0  0  0
   29.9590   26.9399   47.9729 H   0  0  0  0  0  0  0  0  0  0  0  0
   27.7151   30.1039   45.0403 H   0  0  0  0  0  0  0  0  0  0  0  0
  1  5  1  0
  1  2  1  0
  2  7  1  0
  2  3  1  0
  4  3  1  0
  5  4  1  0
  6  8  1  0
  7  6  1  0
  7  8  1  0
  9  6  1  0
  9 10  2  0
 11 10  1  0
 12 11  2  0
 13 14  2  0
 13 12  1  0
 14  9  1  0
 15  1  1  0
 16  5  1  0
 17 18  1  0
 19 16  1  0
 19 18  2  0
 20 19  1  0
 21 20  2  0
 22 20  1  0
 22 23  1  0
 23 17  1  0
 24 23  2  0
  1 25  1  1
  2 26  1  6
  4 27  1  0
  4 28  1  0
  5 29  1  6
  6 30  1  1
  7 31  1  6
  8 32  1  0
  8 33  1  0
 10 34  1  0
 11 35  1  0
 13 36  1  0
 15 37  1  0
 17 38  1  0
 18 39  1  0
 22 40  1  0
M  ISO  8  25  13  26  13  27  13  28  13  29  13  30  13  31  13  32  13
M  ISO  8  33  13  34  14  35  14  36  14  37   3  38   9  39  14  40   9
M  END
>  <minimizedAffinity>  (1) 
-5.56897497

>  <minimizedRMSD>  (1) 
1.21022093

$$$$
