
     RDKit          3D

 26 27  0  0  0  0  0  0  0  0999 V2000
   35.3780   30.0600   46.3950 O   0  0  0  0  0  0  0  0  0  0  0  0
   34.1110   29.9740   47.2150 P   0  0  2  0  0  0  0  0  0  0  0  0
   33.0260   31.1100   46.5750 O   0  0  0  0  0  0  0  0  0  0  0  0
   34.3950   30.3590   48.8690 O   0  0  0  0  0  0  0  0  0  0  0  0
   35.6590   30.2920   49.4350 C   0  0  0  0  0  0  0  0  0  0  0  0
   36.2560   29.1600   50.0110 C   0  0  0  0  0  0  0  0  0  0  0  0
   37.5320   29.2600   50.5340 C   0  0  0  0  0  0  0  0  0  0  0  0
   38.1640   30.4770   50.4650 N   0  0  0  0  0  0  0  0  0  0  0  0
   37.5650   31.5520   49.9040 C   0  0  0  0  0  0  0  0  0  0  0  0
   36.3120   31.4690   49.3860 N   0  0  0  0  0  0  0  0  0  0  0  0
   33.4580   28.4140   47.2010 O   0  0  0  0  0  0  0  0  0  0  0  0
   30.5910   27.8010   49.4350 N   0  0  0  0  0  0  0  0  0  0  0  0
   31.8860   27.9550   49.1020 C   0  0  0  0  0  0  0  0  0  0  0  0
   32.2120   28.2180   47.7870 C   0  0  0  0  0  0  0  0  0  0  0  0
   31.1950   28.3160   46.8470 C   0  0  0  0  0  0  0  0  0  0  0  0
   31.3150   28.5510   45.6080 O   0  0  0  0  0  0  0  0  0  0  0  0
   29.8960   28.1610   47.1920 N   0  0  0  0  0  0  0  0  0  0  0  0
   29.6240   27.9020   48.5050 C   0  0  0  0  0  0  0  0  0  0  0  0
   28.4470   27.7380   48.9380 O   0  0  0  0  0  0  0  0  0  0  0  0
   32.5717   31.5857   47.3149 H   0  0  0  0  0  0  0  0  0  0  0  0
   35.7144   28.2032   50.0460 H   0  0  0  0  0  0  0  0  0  0  0  0
   38.0262   28.3904   50.9918 H   0  0  0  0  0  0  0  0  0  0  0  0
   38.1023   32.5111   49.8665 H   0  0  0  0  0  0  0  0  0  0  0  0
   30.3373   27.6035   50.4135 H   0  0  0  0  0  0  0  0  0  0  0  0
   32.6726   27.8725   49.8664 H   0  0  0  0  0  0  0  0  0  0  0  0
   29.1431   28.2353   46.4930 H   0  0  0  0  0  0  0  0  0  0  0  0
  2  1  2  0
  2  4  1  0
  3  2  1  0
  4  5  1  0
  5  6  2  0
  6  7  1  0
  8  7  2  0
  9  8  1  0
 10  5  1  0
 10  9  2  0
 11  2  1  0
 11 14  1  0
 13 12  1  0
 14 13  2  0
 15 17  1  0
 15 14  1  0
 16 15  2  0
 17 18  1  0
 18 19  2  0
 18 12  1  0
  3 20  1  0
  6 21  1  0
  7 22  1  0
  9 23  1  0
 12 24  1  0
 13 25  1  0
 17 26  1  0
M  ISO  7  20   3  21  14  22  14  23  14  24   9  25  14  26   9
M  END
>  <minimizedAffinity>  (1) 
-4.7316618

>  <minimizedRMSD>  (1) 
2.96884513

$$$$
