
     RDKit          3D

 49 53  0  0  1  0  0  0  0  0999 V2000
   38.8730   30.9660   46.4200 C   0  0  1  0  0  0  0  0  0  0  0  0
   39.1390   32.0300   47.4250 C   0  0  0  0  0  0  0  0  0  0  0  0
   37.7530   31.6210   47.3420 C   0  0  2  0  0  0  0  0  0  0  0  0
   37.3420   30.8350   48.5530 C   0  0  0  0  0  0  0  0  0  0  0  0
   38.1980   31.1220   49.6250 C   0  0  0  0  0  0  0  0  0  0  0  0
   37.9450   30.5910   50.8640 C   0  0  0  0  0  0  0  0  0  0  0  0
   36.8390   29.7600   51.0910 C   0  0  0  0  0  0  0  0  0  0  0  0
   36.0150   29.5000   50.0050 C   0  0  0  0  0  0  0  0  0  0  0  0
   34.9100   28.6970   50.0910 C   0  0  0  0  0  0  0  0  0  0  0  0
   34.0870   28.4210   49.0230 C   0  0  0  0  0  0  0  0  0  0  0  0
   34.3870   28.9790   47.7980 C   0  0  0  0  0  0  0  0  0  0  0  0
   35.4990   29.7900   47.7070 C   0  0  0  0  0  0  0  0  0  0  0  0
   36.2980   30.0420   48.7990 C   0  0  0  0  0  0  0  0  0  0  0  0
   37.6070   32.6050   43.2700 C   0  0  0  0  0  0  0  0  0  0  0  0
   37.7210   32.2210   44.6370 C   0  0  0  0  0  0  0  0  0  0  0  0
   38.7390   31.3910   45.0020 C   0  0  0  0  0  0  0  0  0  0  0  0
   39.5950   30.9840   44.0000 N   0  0  0  0  0  0  0  0  0  0  0  0
   39.4830   31.3480   42.7180 C   0  0  0  0  0  0  0  0  0  0  0  0
   38.4900   32.1630   42.3300 N   0  0  0  0  0  0  0  0  0  0  0  0
   40.4990   30.8350   41.7480 C   0  0  0  0  0  0  0  0  0  0  0  0
   41.1260   29.5780   42.3770 C   0  0  0  0  0  0  0  0  0  0  0  0
   40.6050   28.3700   41.8070 N   0  0  0  0  0  0  0  0  0  0  0  0
   39.7030   27.6860   42.5680 C   0  0  0  0  0  0  0  0  0  0  0  0
   39.1610   26.4980   42.0620 C   0  0  0  0  0  0  0  0  0  0  0  0
   39.6210   26.1490   40.8090 C   0  0  0  0  0  0  0  0  0  0  0  0
   39.1410   25.0680   40.3260 O   0  0  0  0  0  0  0  0  0  0  0  0
   40.5100   26.8050   40.0410 N   0  0  0  0  0  0  0  0  0  0  0  0
   40.9950   27.9450   40.5880 C   0  0  0  0  0  0  0  0  0  0  0  0
   41.8300   28.6070   39.9190 O   0  0  0  0  0  0  0  0  0  0  0  0
   39.3039   29.9761   46.2092 H   0  0  0  0  0  0  0  0  0  0  0  0
   39.7162   31.7795   48.3273 H   0  0  0  0  0  0  0  0  0  0  0  0
   39.6292   33.0122   47.3550 H   0  0  0  0  0  0  0  0  0  0  0  0
   36.7744   32.0813   47.1411 H   0  0  0  0  0  0  0  0  0  0  0  0
   39.0719   31.7725   49.4728 H   0  0  0  0  0  0  0  0  0  0  0  0
   38.6245   30.8221   51.6975 H   0  0  0  0  0  0  0  0  0  0  0  0
   36.6338   29.3337   52.0841 H   0  0  0  0  0  0  0  0  0  0  0  0
   34.6668   28.2484   51.0655 H   0  0  0  0  0  0  0  0  0  0  0  0
   33.2090   27.7695   49.1438 H   0  0  0  0  0  0  0  0  0  0  0  0
   33.7570   28.7827   46.9179 H   0  0  0  0  0  0  0  0  0  0  0  0
   35.7532   30.2461   46.7389 H   0  0  0  0  0  0  0  0  0  0  0  0
   36.7879   33.2733   42.9659 H   0  0  0  0  0  0  0  0  0  0  0  0
   37.0013   32.5872   45.3839 H   0  0  0  0  0  0  0  0  0  0  0  0
   41.2733   31.5966   41.5736 H   0  0  0  0  0  0  0  0  0  0  0  0
   40.0337   30.5993   40.7795 H   0  0  0  0  0  0  0  0  0  0  0  0
   42.2137   29.6058   42.2151 H   0  0  0  0  0  0  0  0  0  0  0  0
   40.8808   29.5787   43.4493 H   0  0  0  0  0  0  0  0  0  0  0  0
   39.4073   28.0601   43.5593 H   0  0  0  0  0  0  0  0  0  0  0  0
   38.4291   25.8932   42.6175 H   0  0  0  0  0  0  0  0  0  0  0  0
   40.7985   26.4672   39.1117 H   0  0  0  0  0  0  0  0  0  0  0  0
  1  3  1  0
  1  2  1  0
  3  2  1  0
  3  4  1  0
  4 13  1  0
  4  5  2  0
  5  6  1  0
  6  7  2  0
  8  9  2  0
  8  7  1  0
 10  9  1  0
 11 10  2  0
 12 11  1  0
 12 13  2  0
 13  8  1  0
 14 15  2  0
 15 16  1  0
 16  1  1  0
 17 16  2  0
 18 17  1  0
 19 18  2  0
 19 14  1  0
 20 21  1  0
 20 18  1  0
 22 21  1  0
 22 23  1  0
 24 23  2  0
 25 24  1  0
 26 25  2  0
 27 28  1  0
 27 25  1  0
 28 22  1  0
 29 28  2  0
  1 30  1  6
  2 31  1  0
  2 32  1  0
  3 33  1  6
  5 34  1  0
  6 35  1  0
  7 36  1  0
  9 37  1  0
 10 38  1  0
 11 39  1  0
 12 40  1  0
 14 41  1  0
 15 42  1  0
 20 43  1  0
 20 44  1  0
 21 45  1  0
 21 46  1  0
 23 47  1  0
 24 48  1  0
 27 49  1  0
M  END
>  <minimizedAffinity>  (1) 
-7.79263353

>  <minimizedRMSD>  (1) 
9.452878

$$$$
