
     RDKit          3D

 33 35  0  0  0  0  0  0  0  0999 V2000
   36.0880   30.2830   45.3530 C   0  0  0  0  0  0  0  0  0  0  0  0
   34.7470   30.1870   45.6880 C   0  0  0  0  0  0  0  0  0  0  0  0
   34.6550   30.0970   47.0510 C   0  0  0  0  0  0  0  0  0  0  0  0
   35.9050   30.1360   47.5180 N   0  0  0  0  0  0  0  0  0  0  0  0
   36.7370   30.2460   46.5200 N   0  0  0  0  0  0  0  0  0  0  0  0
   38.2310   32.0500   47.7600 Br  0  0  0  0  0  0  0  0  0  0  0  0
   37.4320   30.9270   49.0990 C   0  0  0  0  0  0  0  0  0  0  0  0
   36.3510   30.0770   48.8680 C   0  0  0  0  0  0  0  0  0  0  0  0
   35.8700   29.3220   49.9140 C   0  0  0  0  0  0  0  0  0  0  0  0
   36.4620   29.4220   51.1570 C   0  0  0  0  0  0  0  0  0  0  0  0
   37.5320   30.2600   51.3980 C   0  0  0  0  0  0  0  0  0  0  0  0
   38.0110   31.0160   50.3400 C   0  0  0  0  0  0  0  0  0  0  0  0
   36.5190   30.3860   43.9440 C   0  0  0  0  0  0  0  0  0  0  0  0
   37.2540   29.1910   43.4720 C   0  0  0  0  0  0  0  0  0  0  0  0
   38.6420   29.3220   43.1210 C   0  0  0  0  0  0  0  0  0  0  0  0
   39.3580   30.4310   43.4740 C   0  0  0  0  0  0  0  0  0  0  0  0
   40.7200   30.5570   43.1190 C   0  0  0  0  0  0  0  0  0  0  0  0
   41.2470   29.4890   42.4070 N   0  0  0  0  0  0  0  0  0  0  0  0
   40.5010   28.4130   42.0810 C   0  0  0  0  0  0  0  0  0  0  0  0
   39.1940   28.3340   42.4420 N   0  0  0  0  0  0  0  0  0  0  0  0
   33.9035   30.1837   44.9820 H   0  0  0  0  0  0  0  0  0  0  0  0
   33.7329   30.0098   47.6444 H   0  0  0  0  0  0  0  0  0  0  0  0
   35.0186   28.6428   49.7600 H   0  0  0  0  0  0  0  0  0  0  0  0
   36.0675   28.8130   51.9838 H   0  0  0  0  0  0  0  0  0  0  0  0
   37.9891   30.3255   52.3964 H   0  0  0  0  0  0  0  0  0  0  0  0
   38.8632   31.6937   50.4964 H   0  0  0  0  0  0  0  0  0  0  0  0
   35.6272   30.5197   43.3141 H   0  0  0  0  0  0  0  0  0  0  0  0
   37.2059   31.2423   43.8732 H   0  0  0  0  0  0  0  0  0  0  0  0
   37.1930   28.4380   44.2715 H   0  0  0  0  0  0  0  0  0  0  0  0
   36.7633   28.9372   42.5208 H   0  0  0  0  0  0  0  0  0  0  0  0
   38.8680   31.2358   44.0416 H   0  0  0  0  0  0  0  0  0  0  0  0
   41.3198   31.4390   43.3880 H   0  0  0  0  0  0  0  0  0  0  0  0
   40.9579   27.5880   41.5148 H   0  0  0  0  0  0  0  0  0  0  0  0
  1  2  1  0
  1  5  2  0
  2  3  2  0
  3  4  1  0
  4  8  1  0
  5  4  1  0
  6  7  1  0
  7 12  2  0
  8  7  1  0
  8  9  2  0
  9 10  1  0
 10 11  2  0
 12 11  1  0
 13  1  1  0
 14 13  1  0
 15 14  1  0
 15 16  2  0
 17 16  1  0
 18 17  2  0
 19 18  1  0
 19 20  2  0
 20 15  1  0
  2 21  1  0
  3 22  1  0
  9 23  1  0
 10 24  1  0
 11 25  1  0
 12 26  1  0
 13 27  1  0
 13 28  1  0
 14 29  1  0
 14 30  1  0
 16 31  1  0
 17 32  1  0
 19 33  1  0
M  ISO  8  21  14  22  14  23  14  24  14  25  14  26  14  27   8  28   8
M  ISO  5  29   8  30   8  31  14  32  14  33  14
M  END
>  <minimizedAffinity>  (1) 
-5.35108614

>  <minimizedRMSD>  (1) 
4.27849293

$$$$
