
     RDKit          3D

 43 47  0  0  0  0  0  0  0  0999 V2000
   38.8080   31.5440   47.0410 C   0  0  0  0  0  0  0  0  0  0  0  0
   39.4650   32.7440   47.0000 C   0  0  0  0  0  0  0  0  0  0  0  0
   40.2800   33.1250   45.9590 C   0  0  0  0  0  0  0  0  0  0  0  0
   40.4630   32.2850   44.8940 C   0  0  0  0  0  0  0  0  0  0  0  0
   39.7900   31.0810   44.9570 C   0  0  0  0  0  0  0  0  0  0  0  0
   39.0050   30.7250   45.9700 N   0  0  0  0  0  0  0  0  0  0  0  0
   39.1490   29.0320   43.6610 C   0  0  0  0  0  0  0  0  0  0  0  0
   39.9440   30.1500   43.8590 C   0  0  0  0  0  0  0  0  0  0  0  0
   40.9130   30.2870   42.8860 C   0  0  0  0  0  0  0  0  0  0  0  0
   41.1110   29.4380   41.8180 C   0  0  0  0  0  0  0  0  0  0  0  0
   41.9870   29.4230   40.8020 N   0  0  0  0  0  0  0  0  0  0  0  0
   41.7310   28.3520   40.0360 C   0  0  0  0  0  0  0  0  0  0  0  0
   40.6670   27.6550   40.5620 C   0  0  0  0  0  0  0  0  0  0  0  0
   40.2900   28.3560   41.6870 C   0  0  0  0  0  0  0  0  0  0  0  0
   39.2970   28.1460   42.6140 C   0  0  0  0  0  0  0  0  0  0  0  0
   37.3340   30.9390   50.4550 C   0  0  0  0  0  0  0  0  0  0  0  0
   38.2450   31.3980   49.4850 C   0  0  0  0  0  0  0  0  0  0  0  0
   37.9390   31.1190   48.1330 C   0  0  0  0  0  0  0  0  0  0  0  0
   36.8160   30.4390   47.8510 N   0  0  0  0  0  0  0  0  0  0  0  0
   35.9590   30.0110   48.8130 C   0  0  0  0  0  0  0  0  0  0  0  0
   36.2310   30.2660   50.0930 N   0  0  0  0  0  0  0  0  0  0  0  0
   35.4750   30.1770   45.8300 Br  0  0  0  0  0  0  0  0  0  0  0  0
   34.3810   29.2460   47.1060 C   0  0  0  0  0  0  0  0  0  0  0  0
   34.7570   29.2770   48.4310 C   0  0  0  0  0  0  0  0  0  0  0  0
   34.0110   28.6270   49.3940 C   0  0  0  0  0  0  0  0  0  0  0  0
   32.8910   27.9570   48.9610 C   0  0  0  0  0  0  0  0  0  0  0  0
   32.4850   27.9020   47.6540 C   0  0  0  0  0  0  0  0  0  0  0  0
   33.2560   28.5630   46.7260 C   0  0  0  0  0  0  0  0  0  0  0  0
   39.3348   33.4393   47.8423 H   0  0  0  0  0  0  0  0  0  0  0  0
   40.7835   34.1027   45.9826 H   0  0  0  0  0  0  0  0  0  0  0  0
   41.1054   32.5521   44.0420 H   0  0  0  0  0  0  0  0  0  0  0  0
   38.3461   28.8382   44.3875 H   0  0  0  0  0  0  0  0  0  0  0  0
   41.5881   31.1514   42.9702 H   0  0  0  0  0  0  0  0  0  0  0  0
   42.7305   30.1167   40.6379 H   0  0  0  0  0  0  0  0  0  0  0  0
   42.2857   28.0737   39.1278 H   0  0  0  0  0  0  0  0  0  0  0  0
   40.2136   26.7335   40.1678 H   0  0  0  0  0  0  0  0  0  0  0  0
   38.6262   27.2791   42.5218 H   0  0  0  0  0  0  0  0  0  0  0  0
   37.5282   31.1339   51.5200 H   0  0  0  0  0  0  0  0  0  0  0  0
   39.1544   31.9492   49.7663 H   0  0  0  0  0  0  0  0  0  0  0  0
   34.2986   28.6443   50.4556 H   0  0  0  0  0  0  0  0  0  0  0  0
   32.2825   27.4319   49.7119 H   0  0  0  0  0  0  0  0  0  0  0  0
   31.5795   27.3518   47.3585 H   0  0  0  0  0  0  0  0  0  0  0  0
   32.9654   28.5428   45.6653 H   0  0  0  0  0  0  0  0  0  0  0  0
  1 18  1  0
  2  1  2  0
  3  2  1  0
  4  5  1  0
  4  3  2  0
  5  6  2  0
  6  1  1  0
  7  8  2  0
  8  5  1  0
  9  8  1  0
 10  9  2  0
 11 10  1  0
 12 13  2  0
 12 11  1  0
 13 14  1  0
 14 10  1  0
 14 15  2  0
 15  7  1  0
 17 16  2  0
 18 17  1  0
 19 18  2  0
 19 20  1  0
 20 21  2  0
 21 16  1  0
 22 23  1  0
 23 24  2  0
 24 20  1  0
 24 25  1  0
 26 25  2  0
 27 26  1  0
 28 23  1  0
 28 27  2  0
  2 29  1  0
  3 30  1  0
  4 31  1  0
  7 32  1  0
  9 33  1  0
 11 34  1  0
 12 35  1  0
 13 36  1  0
 15 37  1  0
 16 38  1  0
 17 39  1  0
 25 40  1  0
 26 41  1  0
 27 42  1  0
 28 43  1  0
M  END
>  <minimizedAffinity>  (1) 
-7.74798107

>  <minimizedRMSD>  (1) 
1.01385128

$$$$
