
     RDKit          3D

 40 43  0  0  0  0  0  0  0  0999 V2000
   38.6750   32.9430   49.7860 Cl  0  0  0  0  0  0  0  0  0  0  0  0
   38.6420   32.2730   48.1700 C   0  0  0  0  0  0  0  0  0  0  0  0
   37.8900   31.1410   47.8890 C   0  0  0  0  0  0  0  0  0  0  0  0
   37.9210   30.6840   46.5980 C   0  0  0  0  0  0  0  0  0  0  0  0
   38.6460   31.2840   45.5980 C   0  0  0  0  0  0  0  0  0  0  0  0
   39.3890   32.4170   45.9160 C   0  0  0  0  0  0  0  0  0  0  0  0
   40.2920   33.1430   44.6150 Cl  0  0  0  0  0  0  0  0  0  0  0  0
   39.3920   32.9180   47.1980 C   0  0  0  0  0  0  0  0  0  0  0  0
   36.8940   32.5910   43.4920 Cl  0  0  0  0  0  0  0  0  0  0  0  0
   37.8330   31.1200   43.1990 C   0  0  0  0  0  0  0  0  0  0  0  0
   38.5720   30.6700   44.2740 C   0  0  0  0  0  0  0  0  0  0  0  0
   39.3440   29.5160   44.1340 C   0  0  0  0  0  0  0  0  0  0  0  0
   39.3680   28.8270   42.9250 C   0  0  0  0  0  0  0  0  0  0  0  0
   38.6210   29.3050   41.8810 C   0  0  0  0  0  0  0  0  0  0  0  0
   37.8530   30.4430   42.0030 C   0  0  0  0  0  0  0  0  0  0  0  0
   34.8320   29.5930   41.8140 Br  0  0  0  0  0  0  0  0  0  0  0  0
   35.6810   30.8590   40.6970 C   0  0  0  0  0  0  0  0  0  0  0  0
   37.0140   31.0600   40.9780 C   0  0  0  0  0  0  0  0  0  0  0  0
   37.7590   31.9700   40.2270 C   0  0  0  0  0  0  0  0  0  0  0  0
   37.1680   32.6850   39.1850 C   0  0  0  0  0  0  0  0  0  0  0  0
   35.8330   32.4730   38.9150 C   0  0  0  0  0  0  0  0  0  0  0  0
   35.0960   31.5650   39.6680 C   0  0  0  0  0  0  0  0  0  0  0  0
   37.0300   29.3640   51.1140 C   0  0  0  0  0  0  0  0  0  0  0  0
   37.7780   29.9220   50.0710 C   0  0  0  0  0  0  0  0  0  0  0  0
   37.1390   30.5470   48.9980 C   0  0  0  0  0  0  0  0  0  0  0  0
   35.7650   30.5860   49.0200 N   0  0  0  0  0  0  0  0  0  0  0  0
   35.0950   30.0340   50.0490 C   0  0  0  0  0  0  0  0  0  0  0  0
   35.6900   29.4400   51.0690 N   0  0  0  0  0  0  0  0  0  0  0  0
   37.3334   29.7881   46.3489 H   0  0  0  0  0  0  0  0  0  0  0  0
   39.9790   33.8143   47.4472 H   0  0  0  0  0  0  0  0  0  0  0  0
   39.9372   29.1487   44.9844 H   0  0  0  0  0  0  0  0  0  0  0  0
   39.9748   27.9167   42.8101 H   0  0  0  0  0  0  0  0  0  0  0  0
   38.6344   28.7673   40.9215 H   0  0  0  0  0  0  0  0  0  0  0  0
   38.8230   32.1252   40.4589 H   0  0  0  0  0  0  0  0  0  0  0  0
   37.7544   33.4022   38.5919 H   0  0  0  0  0  0  0  0  0  0  0  0
   35.3468   33.0261   38.0979 H   0  0  0  0  0  0  0  0  0  0  0  0
   34.0316   31.4082   39.4391 H   0  0  0  0  0  0  0  0  0  0  0  0
   37.5326   28.8702   51.9587 H   0  0  0  0  0  0  0  0  0  0  0  0
   38.8764   29.8679   50.0966 H   0  0  0  0  0  0  0  0  0  0  0  0
   33.9960   30.0796   50.0405 H   0  0  0  0  0  0  0  0  0  0  0  0
  2  1  1  0
  3  2  2  0
  3 25  1  0
  4  3  1  0
  5  6  1  0
  5  4  2  0
  6  8  2  0
  7  6  1  0
  8  2  1  0
 10  9  1  0
 10 11  2  0
 11  5  1  0
 12 11  1  0
 13 12  2  0
 14 15  2  0
 14 13  1  0
 15 10  1  0
 17 18  2  0
 17 16  1  0
 18 15  1  0
 19 18  1  0
 20 19  2  0
 21 20  1  0
 21 22  2  0
 22 17  1  0
 24 23  2  0
 25 26  2  0
 25 24  1  0
 26 27  1  0
 27 28  2  0
 28 23  1  0
  4 29  1  0
  8 30  1  0
 12 31  1  0
 13 32  1  0
 14 33  1  0
 19 34  1  0
 20 35  1  0
 21 36  1  0
 22 37  1  0
 23 38  1  0
 24 39  1  0
 27 40  1  0
M  ISO  8  29  14  30  14  31  14  32  14  33  14  34  14  35  14  36  14
M  ISO  4  37  14  38  14  39  14  40  14
M  END
>  <minimizedAffinity>  (1) 
-6.47160482

>  <minimizedRMSD>  (1) 
0.583679199

$$$$
