
     RDKit          3D

 38 41  0  0  0  0  0  0  0  0999 V2000
   37.4410   29.1520   50.8320 Br  0  0  0  0  0  0  0  0  0  0  0  0
   36.0420   29.3010   49.5450 C   0  0  0  0  0  0  0  0  0  0  0  0
   36.0400   30.3400   48.6060 C   0  0  0  0  0  0  0  0  0  0  0  0
   35.0030   30.3840   47.7110 C   0  0  0  0  0  0  0  0  0  0  0  0
   33.9690   29.4570   47.6940 C   0  0  0  0  0  0  0  0  0  0  0  0
   34.0070   28.4630   48.6210 C   0  0  0  0  0  0  0  0  0  0  0  0
   35.0360   28.3950   49.5330 C   0  0  0  0  0  0  0  0  0  0  0  0
   38.0160   33.2480   49.5910 C   0  0  0  0  0  0  0  0  0  0  0  0
   39.0760   33.2550   48.6470 C   0  0  0  0  0  0  0  0  0  0  0  0
   39.0910   32.2650   47.6930 C   0  0  0  0  0  0  0  0  0  0  0  0
   38.0980   31.3100   47.6780 N   0  0  0  0  0  0  0  0  0  0  0  0
   37.1050   31.3320   48.5900 C   0  0  0  0  0  0  0  0  0  0  0  0
   37.0690   32.3090   49.5500 N   0  0  0  0  0  0  0  0  0  0  0  0
   32.8740   29.5110   46.7440 C   0  0  0  0  0  0  0  0  0  0  0  0
   31.9070   28.5510   46.6040 C   0  0  0  0  0  0  0  0  0  0  0  0
   30.8720   28.6130   45.6970 C   0  0  0  0  0  0  0  0  0  0  0  0
   30.7990   29.6720   44.8990 N   0  0  0  0  0  0  0  0  0  0  0  0
   31.7350   30.6470   45.0030 C   0  0  0  0  0  0  0  0  0  0  0  0
   32.7310   30.5480   45.9030 N   0  0  0  0  0  0  0  0  0  0  0  0
   32.9980   30.1270   42.2700 Br  0  0  0  0  0  0  0  0  0  0  0  0
   32.2150   31.7420   42.8600 C   0  0  0  0  0  0  0  0  0  0  0  0
   31.6780   31.8350   44.1280 C   0  0  0  0  0  0  0  0  0  0  0  0
   31.0900   33.0140   44.5990 C   0  0  0  0  0  0  0  0  0  0  0  0
   31.0450   34.1330   43.7570 C   0  0  0  0  0  0  0  0  0  0  0  0
   31.5930   33.9820   42.5050 C   0  0  0  0  0  0  0  0  0  0  0  0
   32.1800   32.8410   42.0060 C   0  0  0  0  0  0  0  0  0  0  0  0
   34.9889   31.1951   46.9681 H   0  0  0  0  0  0  0  0  0  0  0  0
   33.2086   27.7066   48.6424 H   0  0  0  0  0  0  0  0  0  0  0  0
   35.0410   27.5813   50.2732 H   0  0  0  0  0  0  0  0  0  0  0  0
   37.9747   34.0270   50.3666 H   0  0  0  0  0  0  0  0  0  0  0  0
   39.8593   34.0267   48.6777 H   0  0  0  0  0  0  0  0  0  0  0  0
   39.8948   32.2355   46.9427 H   0  0  0  0  0  0  0  0  0  0  0  0
   31.9606   27.6702   47.2608 H   0  0  0  0  0  0  0  0  0  0  0  0
   30.1260   27.8069   45.6354 H   0  0  0  0  0  0  0  0  0  0  0  0
   30.6696   33.0617   45.6144 H   0  0  0  0  0  0  0  0  0  0  0  0
   30.5947   35.0829   44.0807 H   0  0  0  0  0  0  0  0  0  0  0  0
   31.5592   34.8564   41.8384 H   0  0  0  0  0  0  0  0  0  0  0  0
   32.5980   32.8000   40.9893 H   0  0  0  0  0  0  0  0  0  0  0  0
  2  1  1  0
  3  2  2  0
  4  3  1  0
  5  4  2  0
  5  6  1  0
  6  7  2  0
  7  2  1  0
  9  8  2  0
 10  9  1  0
 11 10  2  0
 11 12  1  0
 12  3  1  0
 12 13  2  0
 13  8  1  0
 14  5  1  0
 15 14  2  0
 16 15  1  0
 17 18  1  0
 17 16  2  0
 18 19  2  0
 19 14  1  0
 20 21  1  0
 21 22  2  0
 22 23  1  0
 22 18  1  0
 24 23  2  0
 25 24  1  0
 26 25  2  0
 26 21  1  0
  4 27  1  0
  6 28  1  0
  7 29  1  0
  8 30  1  0
  9 31  1  0
 10 32  1  0
 15 33  1  0
 16 34  1  0
 23 35  1  0
 24 36  1  0
 25 37  1  0
 26 38  1  0
M  ISO  8  27  14  28  14  29  14  30  14  31  14  32  14  33  14  34  14
M  ISO  4  35  14  36  14  37  14  38  14
M  END
>  <minimizedAffinity>  (1) 
-6.47051191

>  <minimizedRMSD>  (1) 
0.788635314

$$$$
