
     RDKit          3D

 35 37  0  0  0  0  0  0  0  0999 V2000
   37.3130   30.1700   51.5000 C   0  0  0  0  0  0  0  0  0  0  0  0
   38.0370   30.8470   50.5140 C   0  0  0  0  0  0  0  0  0  0  0  0
   37.7230   30.6360   49.1920 C   0  0  0  0  0  0  0  0  0  0  0  0
   36.6980   29.7490   48.9700 N   0  0  0  0  0  0  0  0  0  0  0  0
   36.0180   29.1100   49.9100 C   0  0  0  0  0  0  0  0  0  0  0  0
   36.3390   29.3330   51.1930 N   0  0  0  0  0  0  0  0  0  0  0  0
   38.9490   33.6530   49.2300 Br  0  0  0  0  0  0  0  0  0  0  0  0
   38.9200   32.4220   47.8160 C   0  0  0  0  0  0  0  0  0  0  0  0
   38.3490   31.2040   48.0110 C   0  0  0  0  0  0  0  0  0  0  0  0
   38.3660   30.4140   46.8660 C   0  0  0  0  0  0  0  0  0  0  0  0
   38.9030   30.8110   45.6630 C   0  0  0  0  0  0  0  0  0  0  0  0
   39.4670   32.0580   45.5380 C   0  0  0  0  0  0  0  0  0  0  0  0
   39.4660   32.8580   46.6350 C   0  0  0  0  0  0  0  0  0  0  0  0
   35.0480   28.2820   49.4170 O   0  0  0  0  0  0  0  0  0  0  0  0
   34.2100   28.7610   48.3700 C   0  0  0  0  0  0  0  0  0  0  0  0
   33.3850   27.6340   47.8190 C   0  0  0  0  0  0  0  0  0  0  0  0
   31.9300   27.9640   47.7900 C   0  0  0  0  0  0  0  0  0  0  0  0
   31.1790   27.5730   48.8910 C   0  0  0  0  0  0  0  0  0  0  0  0
   29.8320   27.8110   49.0030 C   0  0  0  0  0  0  0  0  0  0  0  0
   29.2340   28.4460   48.0060 N   0  0  0  0  0  0  0  0  0  0  0  0
   29.9580   28.8340   46.9220 C   0  0  0  0  0  0  0  0  0  0  0  0
   31.2850   28.6080   46.7940 N   0  0  0  0  0  0  0  0  0  0  0  0
   37.5611   30.3389   52.5583 H   0  0  0  0  0  0  0  0  0  0  0  0
   38.8461   31.5385   50.7918 H   0  0  0  0  0  0  0  0  0  0  0  0
   37.9224   29.4092   46.9262 H   0  0  0  0  0  0  0  0  0  0  0  0
   38.8808   30.1293   44.8000 H   0  0  0  0  0  0  0  0  0  0  0  0
   39.9025   32.3950   44.5858 H   0  0  0  0  0  0  0  0  0  0  0  0
   39.9066   33.8642   46.5766 H   0  0  0  0  0  0  0  0  0  0  0  0
   33.5433   29.5418   48.7649 H   0  0  0  0  0  0  0  0  0  0  0  0
   34.8361   29.1774   47.5671 H   0  0  0  0  0  0  0  0  0  0  0  0
   33.7200   27.4178   46.7938 H   0  0  0  0  0  0  0  0  0  0  0  0
   33.5211   26.7624   48.4761 H   0  0  0  0  0  0  0  0  0  0  0  0
   31.6881   27.0475   49.7124 H   0  0  0  0  0  0  0  0  0  0  0  0
   29.2685   27.4857   49.8899 H   0  0  0  0  0  0  0  0  0  0  0  0
   29.4372   29.3587   46.1074 H   0  0  0  0  0  0  0  0  0  0  0  0
  2  1  2  0
  3  2  1  0
  4  3  2  0
  4  5  1  0
  5  6  2  0
  6  1  1  0
  8  9  2  0
  8  7  1  0
  9  3  1  0
 10  9  1  0
 11 10  2  0
 12 11  1  0
 12 13  2  0
 13  8  1  0
 14  5  1  0
 15 14  1  0
 16 15  1  0
 17 16  1  0
 17 18  2  0
 18 19  1  0
 20 19  2  0
 21 20  1  0
 22 21  2  0
 22 17  1  0
  1 23  1  0
  2 24  1  0
 10 25  1  0
 11 26  1  0
 12 27  1  0
 13 28  1  0
 15 29  1  0
 15 30  1  0
 16 31  1  0
 16 32  1  0
 18 33  1  0
 19 34  1  0
 21 35  1  0
M  ISO  8  23  14  24  14  25  14  26  14  27  14  28  14  29   8  30   8
M  ISO  5  31   8  32   8  33  14  34  14  35  14
M  END
>  <minimizedAffinity>  (1) 
-6.35409737

>  <minimizedRMSD>  (1) 
1.07523453

$$$$
