
     RDKit          3D

 36 39  0  0  0  0  0  0  0  0999 V2000
   37.2470   29.7070   50.2260 C   0  0  0  0  0  0  0  0  0  0  0  0
   38.1680   30.3800   49.3890 C   0  0  0  0  0  0  0  0  0  0  0  0
   37.7510   30.6010   48.0760 C   0  0  0  0  0  0  0  0  0  0  0  0
   36.5550   30.1740   47.7190 N   0  0  0  0  0  0  0  0  0  0  0  0
   35.6760   29.5440   48.4740 C   0  0  0  0  0  0  0  0  0  0  0  0
   36.0790   29.3370   49.7280 N   0  0  0  0  0  0  0  0  0  0  0  0
   34.3360   29.0240   48.2240 C   0  0  0  0  0  0  0  0  0  0  0  0
   33.6500   28.2700   49.1290 N   0  0  0  0  0  0  0  0  0  0  0  0
   32.4250   27.8210   48.9030 C   0  0  0  0  0  0  0  0  0  0  0  0
   31.7320   28.0540   47.7750 N   0  0  0  0  0  0  0  0  0  0  0  0
   32.3450   28.7920   46.8290 C   0  0  0  0  0  0  0  0  0  0  0  0
   31.6520   29.0410   45.6700 C   0  0  0  0  0  0  0  0  0  0  0  0
   32.2360   29.7940   44.6630 C   0  0  0  0  0  0  0  0  0  0  0  0
   33.5190   30.2630   44.8960 C   0  0  0  0  0  0  0  0  0  0  0  0
   34.1590   29.9810   46.0770 C   0  0  0  0  0  0  0  0  0  0  0  0
   33.6140   29.2460   47.0870 C   0  0  0  0  0  0  0  0  0  0  0  0
   38.5460   33.5550   49.0120 Br  0  0  0  0  0  0  0  0  0  0  0  0
   39.1300   32.6010   47.4750 C   0  0  0  0  0  0  0  0  0  0  0  0
   38.6790   31.3380   47.2470 C   0  0  0  0  0  0  0  0  0  0  0  0
   39.2280   30.7720   46.1150 C   0  0  0  0  0  0  0  0  0  0  0  0
   40.1260   31.4100   45.3110 C   0  0  0  0  0  0  0  0  0  0  0  0
   40.5540   32.6880   45.5790 C   0  0  0  0  0  0  0  0  0  0  0  0
   40.0270   33.3030   46.7160 C   0  0  0  0  0  0  0  0  0  0  0  0
   37.5350   29.4300   51.6120 N   0  0  0  0  0  0  0  0  0  0  0  0
   39.1531   30.7091   49.7514 H   0  0  0  0  0  0  0  0  0  0  0  0
   31.9439   27.2192   49.6881 H   0  0  0  0  0  0  0  0  0  0  0  0
   30.6345   28.6434   45.5407 H   0  0  0  0  0  0  0  0  0  0  0  0
   31.7059   30.0090   43.7234 H   0  0  0  0  0  0  0  0  0  0  0  0
   34.0280   30.8654   44.1292 H   0  0  0  0  0  0  0  0  0  0  0  0
   35.1770   30.3734   46.2173 H   0  0  0  0  0  0  0  0  0  0  0  0
   38.9246   29.7495   45.8460 H   0  0  0  0  0  0  0  0  0  0  0  0
   40.5177   30.8883   44.4254 H   0  0  0  0  0  0  0  0  0  0  0  0
   41.2773   33.2018   44.9287 H   0  0  0  0  0  0  0  0  0  0  0  0
   40.3247   34.3247   46.9946 H   0  0  0  0  0  0  0  0  0  0  0  0
   36.8419   28.9378   52.1936 H   0  0  0  0  0  0  0  0  0  0  0  0
   38.4337   29.7244   52.0201 H   0  0  0  0  0  0  0  0  0  0  0  0
  1 24  1  0
  2  1  2  0
  3  2  1  0
  4  3  2  0
  4  5  1  0
  5  6  2  0
  6  1  1  0
  7  5  1  0
  7  8  2  0
  9  8  1  0
 10  9  2  0
 11 16  2  0
 11 10  1  0
 12 11  1  0
 13 14  1  0
 13 12  2  0
 14 15  2  0
 15 16  1  0
 16  7  1  0
 18 17  1  0
 19 18  2  0
 19  3  1  0
 20 19  1  0
 21 22  1  0
 21 20  2  0
 22 23  2  0
 23 18  1  0
  2 25  1  0
  9 26  1  0
 12 27  1  0
 13 28  1  0
 14 29  1  0
 15 30  1  0
 20 31  1  0
 21 32  1  0
 22 33  1  0
 23 34  1  0
 24 35  1  0
 24 36  1  0
M  ISO  8  25  14  26  14  27  14  28  14  29  14  30  14  31  14  32  14
M  ISO  2  33  14  34  14
M  END
>  <minimizedAffinity>  (1) 
-7.16275215

>  <minimizedRMSD>  (1) 
1.64359653

$$$$
