
     RDKit          3D

 22 22  0  0  0  0  0  0  0  0999 V2000
   35.5440   30.2820   47.6860 C   0  0  0  0  0  0  0  0  0  0  0  0
   36.1790   30.4260   48.9300 C   0  0  0  0  0  0  0  0  0  0  0  0
   37.5230   30.7400   48.9860 C   0  0  0  0  0  0  0  0  0  0  0  0
   38.1990   30.9000   47.8050 N   0  0  0  0  0  0  0  0  0  0  0  0
   37.5700   30.7560   46.6170 C   0  0  0  0  0  0  0  0  0  0  0  0
   36.2430   30.4470   46.5460 N   0  0  0  0  0  0  0  0  0  0  0  0
   34.2180   29.9730   47.4670 O   0  0  0  0  0  0  0  0  0  0  0  0
   34.3690   27.3710   48.0920 O   0  0  0  0  0  0  0  0  0  0  0  0
   33.4750   28.5940   48.1630 P   0  0  0  0  0  0  0  0  0  0  0  0
   33.1040   29.0000   49.7620 O   0  0  0  0  0  0  0  0  0  0  0  0
   32.0730   28.2160   47.2820 O   0  0  0  0  0  0  0  0  0  0  0  0
   38.1610   30.8860   50.3200 C   0  0  0  0  0  0  0  0  0  0  0  0
   37.3760   30.1900   51.3840 C   0  0  0  0  0  0  0  0  0  0  0  0
   35.6066   30.2889   49.8593 H   0  0  0  0  0  0  0  0  0  0  0  0
   38.1410   30.8910   45.6866 H   0  0  0  0  0  0  0  0  0  0  0  0
   33.6270   28.4277   50.3776 H   0  0  0  0  0  0  0  0  0  0  0  0
   31.3331   28.0165   47.9088 H   0  0  0  0  0  0  0  0  0  0  0  0
   39.1718   30.4537   50.2816 H   0  0  0  0  0  0  0  0  0  0  0  0
   38.2011   31.9572   50.5669 H   0  0  0  0  0  0  0  0  0  0  0  0
   37.7359   30.5091   52.3732 H   0  0  0  0  0  0  0  0  0  0  0  0
   36.3112   30.4463   51.2810 H   0  0  0  0  0  0  0  0  0  0  0  0
   37.5029   29.1022   51.2810 H   0  0  0  0  0  0  0  0  0  0  0  0
  1  2  2  0
  2  3  1  0
  3 12  1  0
  4  3  2  0
  5  4  1  0
  6  5  2  0
  6  1  1  0
  7  1  1  0
  7  9  1  0
  8  9  2  0
  9 10  1  0
 11  9  1  0
 12 13  1  0
  2 14  1  0
  5 15  1  0
 10 16  1  0
 11 17  1  0
 12 18  1  0
 12 19  1  0
 13 20  1  0
 13 21  1  0
 13 22  1  0
M  ISO  8  14  14  15  14  16   3  17   3  18   8  19   8  20   8  21   8
M  ISO  1  22   8
M  END
>  <minimizedAffinity>  (1) 
-4.13380718

>  <minimizedRMSD>  (1) 
2.69861627

$$$$
