
     RDKit          3D

 17 17  0  0  0  0  0  0  0  0999 V2000
   37.3620   30.1370   51.0400 C   0  0  0  0  0  0  0  0  0  0  0  0
   38.1950   31.0170   50.3320 C   0  0  0  0  0  0  0  0  0  0  0  0
   37.7400   31.5510   49.1300 C   0  0  0  0  0  0  0  0  0  0  0  0
   36.4860   31.1780   48.7070 N   0  0  0  0  0  0  0  0  0  0  0  0
   35.7020   30.3280   49.4060 C   0  0  0  0  0  0  0  0  0  0  0  0
   36.1490   29.8160   50.5660 N   0  0  0  0  0  0  0  0  0  0  0  0
   37.9420   29.6820   52.2170 O   0  0  0  0  0  0  0  0  0  0  0  0
   38.5750   32.4870   48.3380 C   0  0  0  0  0  0  0  0  0  0  0  0
   38.9630   33.6370   49.2630 C   0  0  0  0  0  0  0  0  0  0  0  0
   39.1900   31.2801   50.7203 H   0  0  0  0  0  0  0  0  0  0  0  0
   34.7050   30.0568   49.0286 H   0  0  0  0  0  0  0  0  0  0  0  0
   37.4479   29.0545   52.8020 H   0  0  0  0  0  0  0  0  0  0  0  0
   39.4778   31.9731   47.9762 H   0  0  0  0  0  0  0  0  0  0  0  0
   38.0224   32.8588   47.4626 H   0  0  0  0  0  0  0  0  0  0  0  0
   38.8553   33.3177   50.3101 H   0  0  0  0  0  0  0  0  0  0  0  0
   40.0077   33.9240   49.0728 H   0  0  0  0  0  0  0  0  0  0  0  0
   38.3057   34.4983   49.0728 H   0  0  0  0  0  0  0  0  0  0  0  0
  1  7  1  0
  2  1  2  0
  3  2  1  0
  4  3  2  0
  4  5  1  0
  5  6  2  0
  6  1  1  0
  8  3  1  0
  8  9  1  0
  2 10  1  0
  5 11  1  0
  7 12  1  0
  8 13  1  0
  8 14  1  0
  9 15  1  0
  9 16  1  0
  9 17  1  0
M  ISO  8  10  14  11  14  12   3  13   8  14   8  15   8  16   8  17   8
M  END
>  <minimizedAffinity>  (1) 
-4.28455544

>  <minimizedRMSD>  (1) 
0.570919812

$$$$
