
     RDKit          3D

 34 36  0  0  0  0  0  0  0  0999 V2000
   37.4510   29.2060   50.8490 Br  0  0  0  0  0  0  0  0  0  0  0  0
   36.0280   29.2800   49.5760 C   0  0  0  0  0  0  0  0  0  0  0  0
   36.0020   30.2700   48.5860 C   0  0  0  0  0  0  0  0  0  0  0  0
   34.9510   30.2580   47.7100 C   0  0  0  0  0  0  0  0  0  0  0  0
   33.9340   29.3360   47.7520 C   0  0  0  0  0  0  0  0  0  0  0  0
   33.9760   28.3740   48.7270 C   0  0  0  0  0  0  0  0  0  0  0  0
   35.0220   28.3590   49.6250 C   0  0  0  0  0  0  0  0  0  0  0  0
   38.0150   33.1830   49.4500 C   0  0  0  0  0  0  0  0  0  0  0  0
   39.0270   33.1970   48.4560 C   0  0  0  0  0  0  0  0  0  0  0  0
   38.9970   32.1890   47.4930 C   0  0  0  0  0  0  0  0  0  0  0  0
   38.0020   31.2390   47.5490 N   0  0  0  0  0  0  0  0  0  0  0  0
   37.0610   31.2630   48.5090 C   0  0  0  0  0  0  0  0  0  0  0  0
   37.0710   32.2450   49.4660 N   0  0  0  0  0  0  0  0  0  0  0  0
   32.8130   29.3260   46.8150 C   0  0  0  0  0  0  0  0  0  0  0  0
   31.8620   28.3390   46.7310 C   0  0  0  0  0  0  0  0  0  0  0  0
   30.8170   28.3730   45.8260 C   0  0  0  0  0  0  0  0  0  0  0  0
   30.7150   29.4030   44.9930 N   0  0  0  0  0  0  0  0  0  0  0  0
   31.6380   30.3890   45.0530 C   0  0  0  0  0  0  0  0  0  0  0  0
   32.6430   30.3340   45.9400 N   0  0  0  0  0  0  0  0  0  0  0  0
   31.5650   31.5620   44.1400 C   0  0  0  0  0  0  0  0  0  0  0  0
   31.5690   32.8780   44.9090 C   0  0  0  0  0  0  0  0  0  0  0  0
   34.9188   31.0307   46.9277 H   0  0  0  0  0  0  0  0  0  0  0  0
   33.1796   27.6180   48.7928 H   0  0  0  0  0  0  0  0  0  0  0  0
   35.0465   27.5823   50.4035 H   0  0  0  0  0  0  0  0  0  0  0  0
   38.0104   33.9643   50.2243 H   0  0  0  0  0  0  0  0  0  0  0  0
   39.8059   33.9736   48.4453 H   0  0  0  0  0  0  0  0  0  0  0  0
   39.7579   32.1533   46.6994 H   0  0  0  0  0  0  0  0  0  0  0  0
   31.9349   27.4811   47.4157 H   0  0  0  0  0  0  0  0  0  0  0  0
   30.0794   27.5575   45.7961 H   0  0  0  0  0  0  0  0  0  0  0  0
   30.6389   31.4970   43.5500 H   0  0  0  0  0  0  0  0  0  0  0  0
   32.4508   31.5439   43.4880 H   0  0  0  0  0  0  0  0  0  0  0  0
   31.5684   32.6713   45.9894 H   0  0  0  0  0  0  0  0  0  0  0  0
   32.4689   33.4535   44.6463 H   0  0  0  0  0  0  0  0  0  0  0  0
   30.6726   33.4589   44.6463 H   0  0  0  0  0  0  0  0  0  0  0  0
  2  7  2  0
  2  1  1  0
  3  2  1  0
  4  5  1  0
  4  3  2  0
  5  6  2  0
  6  7  1  0
  8 13  2  0
  9  8  1  0
 10 11  1  0
 10  9  2  0
 11 12  2  0
 12  3  1  0
 12 13  1  0
 14  5  1  0
 15 14  2  0
 16 15  1  0
 17 18  1  0
 17 16  2  0
 18 19  2  0
 19 14  1  0
 20 21  1  0
 20 18  1  0
  4 22  1  0
  6 23  1  0
  7 24  1  0
  8 25  1  0
  9 26  1  0
 10 27  1  0
 15 28  1  0
 16 29  1  0
 20 30  1  0
 20 31  1  0
 21 32  1  0
 21 33  1  0
 21 34  1  0
M  ISO  8  22  14  23  14  24  14  25  14  26  14  27  14  28  14  29  14
M  ISO  5  30   8  31   8  32   8  33   8  34   8
M  END
>  <minimizedAffinity>  (1) 
-5.88197803

>  <minimizedRMSD>  (1) 
0.481213719

$$$$
