
     RDKit          3D

 34 35  0  0  1  0  0  0  0  0999 V2000
   35.8390   29.9370   48.6590 N   0  0  0  0  0  0  0  0  0  0  0  0
   36.5970   28.9790   49.4120 C   0  0  0  0  0  0  0  0  0  0  0  0
   37.0480   29.3560   50.7590 C   0  0  0  0  0  0  0  0  0  0  0  0
   37.1690   30.8010   51.0880 C   0  0  0  0  0  0  0  0  0  0  0  0
   36.4520   31.7290   50.1510 C   0  0  0  0  0  0  0  0  0  0  0  0
   36.4960   31.1820   48.7220 C   0  0  1  0  0  0  0  0  0  0  0  0
   34.6130   29.6400   47.9680 C   0  0  0  0  0  0  0  0  0  0  0  0
   34.1390   30.3590   46.8720 C   0  0  0  0  0  0  0  0  0  0  0  0
   32.9460   29.9700   46.2960 C   0  0  0  0  0  0  0  0  0  0  0  0
   32.2980   28.8930   46.8410 N   0  0  0  0  0  0  0  0  0  0  0  0
   32.7750   28.2310   47.8860 C   0  0  0  0  0  0  0  0  0  0  0  0
   33.9310   28.5980   48.4530 N   0  0  0  0  0  0  0  0  0  0  0  0
   31.9730   27.0790   48.3830 C   0  0  0  0  0  0  0  0  0  0  0  0
   30.6730   27.5650   49.0230 C   0  0  0  0  0  0  0  0  0  0  0  0
   37.9110   31.2250   48.2470 C   0  0  0  0  0  0  0  0  0  0  0  0
   37.9880   32.2890   47.3350 F   0  0  0  0  0  0  0  0  0  0  0  0
   38.1860   30.1220   47.4780 F   0  0  0  0  0  0  0  0  0  0  0  0
   38.8520   31.4810   49.1840 F   0  0  0  0  0  0  0  0  0  0  0  0
   35.9734   28.0789   49.5166 H   0  0  0  0  0  0  0  0  0  0  0  0
   37.5268   28.8542   48.8377 H   0  0  0  0  0  0  0  0  0  0  0  0
   36.3358   28.9186   51.4742 H   0  0  0  0  0  0  0  0  0  0  0  0
   38.0805   28.9803   50.8123 H   0  0  0  0  0  0  0  0  0  0  0  0
   36.7626   30.9558   52.0984 H   0  0  0  0  0  0  0  0  0  0  0  0
   38.2380   31.0461   51.0039 H   0  0  0  0  0  0  0  0  0  0  0  0
   35.4037   31.8272   50.4695 H   0  0  0  0  0  0  0  0  0  0  0  0
   36.9469   32.7111   50.1729 H   0  0  0  0  0  0  0  0  0  0  0  0
   35.9315   31.8023   48.0102 H   0  0  0  0  0  0  0  0  0  0  0  0
   34.7023   31.2164   46.4752 H   0  0  0  0  0  0  0  0  0  0  0  0
   32.5305   30.5060   45.4300 H   0  0  0  0  0  0  0  0  0  0  0  0
   31.7344   26.4141   47.5398 H   0  0  0  0  0  0  0  0  0  0  0  0
   32.5603   26.5381   49.1397 H   0  0  0  0  0  0  0  0  0  0  0  0
   30.7679   27.5295   50.1183 H   0  0  0  0  0  0  0  0  0  0  0  0
   30.4722   28.5989   48.7057 H   0  0  0  0  0  0  0  0  0  0  0  0
   29.8432   26.9164   48.7057 H   0  0  0  0  0  0  0  0  0  0  0  0
  1  6  1  0
  1  2  1  0
  2  3  1  0
  3  4  1  0
  5  4  1  0
  6  5  1  0
  7 12  1  0
  7  1  1  0
  8  7  2  0
  9 10  2  0
  9  8  1  0
 10 11  1  0
 11 13  1  0
 11 12  2  0
 13 14  1  0
 15  6  1  0
 15 18  1  0
 16 15  1  0
 17 15  1  0
  2 19  1  0
  2 20  1  0
  3 21  1  0
  3 22  1  0
  4 23  1  0
  4 24  1  0
  5 25  1  0
  5 26  1  0
  6 27  1  6
  8 28  1  0
  9 29  1  0
 13 30  1  0
 13 31  1  0
 14 32  1  0
 14 33  1  0
 14 34  1  0
M  ISO  8  19  13  20  13  21  13  22  13  23  13  24  13  25  13  26  13
M  ISO  8  27  13  28  14  29  14  30   8  31   8  32   8  33   8  34   8
M  END
>  <minimizedAffinity>  (1) 
-5.2984643

>  <minimizedRMSD>  (1) 
0.413822532

$$$$
