
     RDKit          3D

 40 42  0  0  1  0  0  0  0  0999 V2000
   31.8910   27.5910   48.5910 N   0  0  0  0  0  0  0  0  0  0  0  0
   32.9410   28.4150   49.1850 C   0  0  0  0  0  0  0  0  0  0  0  0
   34.0200   28.7780   48.2700 C   0  0  2  0  0  0  0  0  0  0  0  0
   34.4600   27.6310   47.4280 N   0  0  0  0  0  0  0  0  0  0  0  0
   33.2600   27.0970   46.7550 C   0  0  0  0  0  0  0  0  0  0  0  0
   32.4650   26.4960   47.8910 C   0  0  0  0  0  0  0  0  0  0  0  0
   35.9500   30.4070   46.6980 Cl  0  0  0  0  0  0  0  0  0  0  0  0
   36.1190   30.0650   48.4180 C   0  0  0  0  0  0  0  0  0  0  0  0
   35.1630   29.2810   49.0110 C   0  0  0  0  0  0  0  0  0  0  0  0
   35.1610   28.9350   50.3690 C   0  0  0  0  0  0  0  0  0  0  0  0
   36.2270   29.4430   51.1240 C   0  0  0  0  0  0  0  0  0  0  0  0
   37.2070   30.2390   50.5310 C   0  0  0  0  0  0  0  0  0  0  0  0
   37.1410   30.5430   49.1790 C   0  0  0  0  0  0  0  0  0  0  0  0
   38.1420   31.3820   48.4710 C   0  0  0  0  0  0  0  0  0  0  0  0
   38.2530   32.7790   49.0310 C   0  0  0  0  0  0  0  0  0  0  0  0
   30.5120   27.8850   48.7410 C   0  0  0  0  0  0  0  0  0  0  0  0
   29.7400   28.3720   47.6860 C   0  0  0  0  0  0  0  0  0  0  0  0
   28.3940   28.6300   47.9150 C   0  0  0  0  0  0  0  0  0  0  0  0
   27.8870   28.3920   49.1810 N   0  0  0  0  0  0  0  0  0  0  0  0
   28.6840   27.9180   50.1710 C   0  0  0  0  0  0  0  0  0  0  0  0
   29.9650   27.6680   49.9660 N   0  0  0  0  0  0  0  0  0  0  0  0
   32.4803   29.3420   49.5571 H   0  0  0  0  0  0  0  0  0  0  0  0
   33.3984   27.8103   49.9819 H   0  0  0  0  0  0  0  0  0  0  0  0
   33.6206   29.5589   47.6062 H   0  0  0  0  0  0  0  0  0  0  0  0
   35.1448   27.9497   46.7277 H   0  0  0  0  0  0  0  0  0  0  0  0
   32.6949   27.9006   46.2601 H   0  0  0  0  0  0  0  0  0  0  0  0
   33.4968   26.3711   45.9632 H   0  0  0  0  0  0  0  0  0  0  0  0
   31.6760   25.8376   47.4987 H   0  0  0  0  0  0  0  0  0  0  0  0
   33.1015   25.8866   48.5494 H   0  0  0  0  0  0  0  0  0  0  0  0
   34.3750   28.3064   50.8129 H   0  0  0  0  0  0  0  0  0  0  0  0
   36.2916   29.2111   52.1973 H   0  0  0  0  0  0  0  0  0  0  0  0
   38.0371   30.6280   51.1390 H   0  0  0  0  0  0  0  0  0  0  0  0
   37.8524   31.4523   47.4121 H   0  0  0  0  0  0  0  0  0  0  0  0
   39.1220   30.8998   48.6015 H   0  0  0  0  0  0  0  0  0  0  0  0
   38.2495   32.7348   50.1301 H   0  0  0  0  0  0  0  0  0  0  0  0
   39.1905   33.2391   48.6855 H   0  0  0  0  0  0  0  0  0  0  0  0
   37.3999   33.3814   48.6855 H   0  0  0  0  0  0  0  0  0  0  0  0
   30.1864   28.5476   46.6961 H   0  0  0  0  0  0  0  0  0  0  0  0
   27.7482   29.0134   47.1113 H   0  0  0  0  0  0  0  0  0  0  0  0
   28.2539   27.7376   51.1673 H   0  0  0  0  0  0  0  0  0  0  0  0
  1 16  1  0
  1  2  1  0
  3  9  1  0
  3  2  1  0
  4  3  1  0
  5  4  1  0
  5  6  1  0
  6  1  1  0
  7  8  1  0
  8  9  2  0
  8 13  1  0
  9 10  1  0
 10 11  2  0
 12 11  1  0
 13 12  2  0
 14 15  1  0
 14 13  1  0
 16 21  2  0
 17 18  2  0
 17 16  1  0
 18 19  1  0
 19 20  2  0
 21 20  1  0
  2 22  1  0
  2 23  1  0
  3 24  1  6
  4 25  1  0
  5 26  1  0
  5 27  1  0
  6 28  1  0
  6 29  1  0
 10 30  1  0
 11 31  1  0
 12 32  1  0
 14 33  1  0
 14 34  1  0
 15 35  1  0
 15 36  1  0
 15 37  1  0
 17 38  1  0
 18 39  1  0
 20 40  1  0
M  ISO  8  22  13  23  13  24  13  25   5  26  13  27  13  28  13  29  13
M  ISO  8  30  14  31  14  32  14  33   8  34   8  35   8  36   8  37   8
M  ISO  3  38  14  39  14  40  14
M  END
>  <minimizedAffinity>  (1) 
-6.11886311

>  <minimizedRMSD>  (1) 
4.06644392

$$$$
