
     RDKit          3D

 26 27  0  0  0  0  0  0  0  0999 V2000
   38.6350   32.4830   49.1010 Br  0  0  0  0  0  0  0  0  0  0  0  0
   38.0920   31.8540   47.3940 C   0  0  0  0  0  0  0  0  0  0  0  0
   37.0870   30.9250   47.3810 C   0  0  0  0  0  0  0  0  0  0  0  0
   36.6290   30.4200   46.1570 C   0  0  0  0  0  0  0  0  0  0  0  0
   37.2040   30.8700   44.9760 C   0  0  0  0  0  0  0  0  0  0  0  0
   38.1980   31.7930   45.0490 C   0  0  0  0  0  0  0  0  0  0  0  0
   38.6620   32.3020   46.2350 C   0  0  0  0  0  0  0  0  0  0  0  0
   37.0010   29.5460   49.5100 C   0  0  0  0  0  0  0  0  0  0  0  0
   36.3870   30.3530   48.5310 C   0  0  0  0  0  0  0  0  0  0  0  0
   35.0180   30.6160   48.6790 C   0  0  0  0  0  0  0  0  0  0  0  0
   34.3660   30.0710   49.7630 N   0  0  0  0  0  0  0  0  0  0  0  0
   34.9960   29.3110   50.6630 C   0  0  0  0  0  0  0  0  0  0  0  0
   36.3150   29.0440   50.5410 N   0  0  0  0  0  0  0  0  0  0  0  0
   39.7690   33.3110   46.2580 C   0  0  0  0  0  0  0  0  0  0  0  0
   40.1320   33.6470   44.8230 C   0  0  0  0  0  0  0  0  0  0  0  0
   35.8212   29.6738   46.1319 H   0  0  0  0  0  0  0  0  0  0  0  0
   36.8622   30.4876   44.0029 H   0  0  0  0  0  0  0  0  0  0  0  0
   38.6523   32.1490   44.1126 H   0  0  0  0  0  0  0  0  0  0  0  0
   38.0747   29.3233   49.4229 H   0  0  0  0  0  0  0  0  0  0  0  0
   34.4798   31.2398   47.9502 H   0  0  0  0  0  0  0  0  0  0  0  0
   34.4343   28.8976   51.5136 H   0  0  0  0  0  0  0  0  0  0  0  0
   39.4344   34.2195   46.7803 H   0  0  0  0  0  0  0  0  0  0  0  0
   40.6437   32.9044   46.7867 H   0  0  0  0  0  0  0  0  0  0  0  0
   40.9392   34.3942   44.8143 H   0  0  0  0  0  0  0  0  0  0  0  0
   40.4700   32.7360   44.3074 H   0  0  0  0  0  0  0  0  0  0  0  0
   39.2498   34.0543   44.3074 H   0  0  0  0  0  0  0  0  0  0  0  0
  2  1  1  0
  3  2  2  0
  3  9  1  0
  4  3  1  0
  5  6  1  0
  5  4  2  0
  6  7  2  0
  7 14  1  0
  7  2  1  0
  8 13  2  0
  9 10  2  0
  9  8  1  0
 10 11  1  0
 11 12  2  0
 13 12  1  0
 15 14  1  0
  4 16  1  0
  5 17  1  0
  6 18  1  0
  8 19  1  0
 10 20  1  0
 12 21  1  0
 14 22  1  0
 14 23  1  0
 15 24  1  0
 15 25  1  0
 15 26  1  0
M  ISO  8  16  14  17  14  18  14  19  14  20  14  21  14  22   8  23   8
M  ISO  3  24   8  25   8  26   8
M  END
>  <minimizedAffinity>  (1) 
-4.96320343

>  <minimizedRMSD>  (1) 
1.38086045

$$$$
