
     RDKit          3D

 17 17  0  0  0  0  0  0  0  0999 V2000
   37.3190   30.2030   51.3820 C   0  0  0  0  0  0  0  0  0  0  0  0
   38.1380   30.7330   50.3850 C   0  0  0  0  0  0  0  0  0  0  0  0
   37.7950   30.5070   49.0280 C   0  0  0  0  0  0  0  0  0  0  0  0
   36.6780   29.7820   48.7640 N   0  0  0  0  0  0  0  0  0  0  0  0
   35.9120   29.2860   49.7620 C   0  0  0  0  0  0  0  0  0  0  0  0
   36.2080   29.4810   51.0600 N   0  0  0  0  0  0  0  0  0  0  0  0
   34.4410   28.3230   49.4310 S   0  0  0  0  0  0  0  0  0  0  0  0
   34.1080   28.2220   47.6560 C   0  0  0  0  0  0  0  0  0  0  0  0
   33.7570   26.8290   47.2000 C   0  0  0  0  0  0  0  0  0  0  0  0
   37.5721   30.3693   52.4395 H   0  0  0  0  0  0  0  0  0  0  0  0
   39.0336   31.3156   50.6468 H   0  0  0  0  0  0  0  0  0  0  0  0
   38.4158   30.9074   48.2129 H   0  0  0  0  0  0  0  0  0  0  0  0
   33.2674   28.8906   47.4187 H   0  0  0  0  0  0  0  0  0  0  0  0
   35.0288   28.5172   47.1316 H   0  0  0  0  0  0  0  0  0  0  0  0
   33.5949   26.1859   48.0776 H   0  0  0  0  0  0  0  0  0  0  0  0
   32.8390   26.8617   46.5948 H   0  0  0  0  0  0  0  0  0  0  0  0
   34.5809   26.4228   46.5948 H   0  0  0  0  0  0  0  0  0  0  0  0
  2  1  2  0
  3  2  1  0
  4  3  2  0
  4  5  1  0
  5  6  2  0
  6  1  1  0
  7  5  1  0
  8  7  1  0
  9  8  1  0
  1 10  1  0
  2 11  1  0
  3 12  1  0
  8 13  1  0
  8 14  1  0
  9 15  1  0
  9 16  1  0
  9 17  1  0
M  ISO  8  10  14  11  14  12  14  13   8  14   8  15   8  16   8  17   8
M  END
>  <minimizedAffinity>  (1) 
-3.32933974

>  <minimizedRMSD>  (1) 
0.438188732

$$$$
