
     RDKit          3D

 39 41  0  0  1  0  0  0  0  0999 V2000
   38.5500   31.0590   45.9930 C   0  0  0  0  0  0  0  0  0  0  0  0
   39.8240   31.3510   46.3850 C   0  0  0  0  0  0  0  0  0  0  0  0
   40.5250   31.5210   45.1870 C   0  0  0  0  0  0  0  0  0  0  0  0
   39.6990   31.3380   44.1540 N   0  0  0  0  0  0  0  0  0  0  0  0
   38.4810   31.0530   44.6390 N   0  0  0  0  0  0  0  0  0  0  0  0
   40.7800   30.1420   42.3110 C   0  0  2  0  0  0  0  0  0  0  0  0
   40.0970   31.4400   42.7760 C   0  0  1  0  0  0  0  0  0  0  0  0
   38.9540   31.4630   41.8130 C   0  0  0  0  0  0  0  0  0  0  0  0
   39.4000   30.9500   40.6230 O   0  0  0  0  0  0  0  0  0  0  0  0
   40.6300   30.3710   40.8050 C   0  0  0  0  0  0  0  0  0  0  0  0
   39.9600   29.1140   42.7080 O   0  0  0  0  0  0  0  0  0  0  0  0
   40.2380   27.8900   42.1420 C   0  0  0  0  0  0  0  0  0  0  0  0
   39.3820   26.8230   42.7800 C   0  0  0  0  0  0  0  0  0  0  0  0
   36.4420   30.6310   49.0570 C   0  0  0  0  0  0  0  0  0  0  0  0
   37.5330   30.8930   48.2590 C   0  0  0  0  0  0  0  0  0  0  0  0
   37.4330   30.7940   46.8840 C   0  0  0  0  0  0  0  0  0  0  0  0
   36.2390   30.4340   46.3710 N   0  0  0  0  0  0  0  0  0  0  0  0
   35.1650   30.1770   47.1750 C   0  0  0  0  0  0  0  0  0  0  0  0
   35.2630   30.2730   48.4970 N   0  0  0  0  0  0  0  0  0  0  0  0
   36.7060   30.7760   50.4170 O   0  0  0  0  0  0  0  0  0  0  0  0
   36.7740   29.6950   51.3160 C   0  0  0  0  0  0  0  0  0  0  0  0
   35.5190   29.1950   51.6270 F   0  0  0  0  0  0  0  0  0  0  0  0
   37.4480   30.0960   52.4380 F   0  0  0  0  0  0  0  0  0  0  0  0
   37.5260   28.6870   50.7150 F   0  0  0  0  0  0  0  0  0  0  0  0
   40.2118   31.4339   47.4110 H   0  0  0  0  0  0  0  0  0  0  0  0
   41.5940   31.7679   45.1077 H   0  0  0  0  0  0  0  0  0  0  0  0
   41.7991   29.9229   42.6624 H   0  0  0  0  0  0  0  0  0  0  0  0
   40.7058   32.3561   42.7639 H   0  0  0  0  0  0  0  0  0  0  0  0
   38.1269   30.8490   42.1989 H   0  0  0  0  0  0  0  0  0  0  0  0
   38.5873   32.4909   41.6756 H   0  0  0  0  0  0  0  0  0  0  0  0
   40.6830   29.4129   40.2672 H   0  0  0  0  0  0  0  0  0  0  0  0
   41.4347   31.0126   40.4166 H   0  0  0  0  0  0  0  0  0  0  0  0
   40.0267   27.9305   41.0632 H   0  0  0  0  0  0  0  0  0  0  0  0
   41.2988   27.6484   42.3042 H   0  0  0  0  0  0  0  0  0  0  0  0
   39.4484   26.9057   43.8749 H   0  0  0  0  0  0  0  0  0  0  0  0
   38.3363   26.9549   42.4650 H   0  0  0  0  0  0  0  0  0  0  0  0
   39.7375   25.8308   42.4650 H   0  0  0  0  0  0  0  0  0  0  0  0
   38.4896   31.1827   48.7183 H   0  0  0  0  0  0  0  0  0  0  0  0
   34.2056   29.8865   46.7220 H   0  0  0  0  0  0  0  0  0  0  0  0
  1  2  1  0
  1 16  1  0
  3  2  2  0
  4  5  1  0
  4  3  1  0
  5  1  2  0
  6 11  1  0
  6  7  1  0
  7  4  1  0
  8  7  1  0
  9 10  1  0
  9  8  1  0
 10  6  1  0
 12 11  1  0
 12 13  1  0
 14 20  1  0
 15 14  2  0
 16 15  1  0
 17 16  2  0
 17 18  1  0
 18 19  2  0
 19 14  1  0
 20 21  1  0
 21 22  1  0
 21 23  1  0
 24 21  1  0
  2 25  1  0
  3 26  1  0
  6 27  1  6
  7 28  1  1
  8 29  1  0
  8 30  1  0
 10 31  1  0
 10 32  1  0
 12 33  1  0
 12 34  1  0
 13 35  1  0
 13 36  1  0
 13 37  1  0
 15 38  1  0
 18 39  1  0
M  ISO  8  25  14  26  14  27  13  28  13  29  13  30  13  31  13  32  13
M  ISO  7  33   8  34   8  35   8  36   8  37   8  38  14  39  14
M  END
>  <minimizedAffinity>  (1) 
-6.03628683

>  <minimizedRMSD>  (1) 
0.880800784

$$$$
