
     RDKit          3D

 43 44  0  0  0  0  0  0  0  0999 V2000
   37.5870   30.4620   48.5280 Cl  0  0  0  0  0  0  0  0  0  0  0  0
   36.4390   30.3060   47.1970 C   0  0  0  0  0  0  0  0  0  0  0  0
   36.8090   30.6850   45.9560 C   0  0  0  0  0  0  0  0  0  0  0  0
   35.9190   30.5680   44.9090 C   0  0  0  0  0  0  0  0  0  0  0  0
   34.6500   30.0570   45.1600 C   0  0  0  0  0  0  0  0  0  0  0  0
   34.3400   29.6830   46.4820 C   0  0  0  0  0  0  0  0  0  0  0  0
   35.1970   29.7930   47.5080 C   0  0  0  0  0  0  0  0  0  0  0  0
   39.8020   32.8400   45.9950 C   0  0  0  0  0  0  0  0  0  0  0  0
   40.6630   32.1130   45.1170 C   0  0  0  0  0  0  0  0  0  0  0  0
   40.1790   30.9160   44.5520 C   0  0  0  0  0  0  0  0  0  0  0  0
   38.9230   30.5050   44.8620 N   0  0  0  0  0  0  0  0  0  0  0  0
   38.1350   31.2210   45.6990 C   0  0  0  0  0  0  0  0  0  0  0  0
   38.5780   32.3600   46.2440 N   0  0  0  0  0  0  0  0  0  0  0  0
   41.0540   30.2360   43.6990 N   0  0  0  0  0  0  0  0  0  0  0  0
   34.8270   29.4040   48.8360 C   0  0  0  0  0  0  0  0  0  0  0  0
   34.1700   28.1200   49.0700 C   0  0  0  0  0  0  0  0  0  0  0  0
   32.8350   28.2790   49.3470 O   0  0  0  0  0  0  0  0  0  0  0  0
   32.7520   26.5160   47.4130 O   0  0  0  0  0  0  0  0  0  0  0  0
   31.8980   27.4220   48.2650 P   0  0  2  0  0  0  0  0  0  0  0  0
   31.1070   28.5980   47.2870 O   0  0  0  0  0  0  0  0  0  0  0  0
   30.9220   28.1800   45.9870 C   0  0  0  0  0  0  0  0  0  0  0  0
   29.5540   27.6860   45.6750 C   0  0  0  0  0  0  0  0  0  0  0  0
   30.7060   26.5390   48.9970 O   0  0  0  0  0  0  0  0  0  0  0  0
   29.8790   27.3550   49.7430 C   0  0  0  0  0  0  0  0  0  0  0  0
   29.3090   26.6650   50.8140 F   0  0  0  0  0  0  0  0  0  0  0  0
   30.5580   28.4200   50.2720 F   0  0  0  0  0  0  0  0  0  0  0  0
   28.8420   27.8430   48.9550 F   0  0  0  0  0  0  0  0  0  0  0  0
   36.2079   30.8737   43.8926 H   0  0  0  0  0  0  0  0  0  0  0  0
   33.9119   29.9484   44.3517 H   0  0  0  0  0  0  0  0  0  0  0  0
   33.3378   29.2775   46.6847 H   0  0  0  0  0  0  0  0  0  0  0  0
   40.1396   33.7787   46.4586 H   0  0  0  0  0  0  0  0  0  0  0  0
   41.6754   32.4773   44.8883 H   0  0  0  0  0  0  0  0  0  0  0  0
   41.9934   30.6163   43.5152 H   0  0  0  0  0  0  0  0  0  0  0  0
   40.7591   29.3549   43.2546 H   0  0  0  0  0  0  0  0  0  0  0  0
   35.7505   29.4006   49.4337 H   0  0  0  0  0  0  0  0  0  0  0  0
   34.0502   30.1353   49.1040 H   0  0  0  0  0  0  0  0  0  0  0  0
   34.2762   27.4955   48.1707 H   0  0  0  0  0  0  0  0  0  0  0  0
   34.6472   27.6423   49.9384 H   0  0  0  0  0  0  0  0  0  0  0  0
   31.1386   29.0286   45.3214 H   0  0  0  0  0  0  0  0  0  0  0  0
   31.5989   27.3257   45.8391 H   0  0  0  0  0  0  0  0  0  0  0  0
   29.0122   27.4904   46.6121 H   0  0  0  0  0  0  0  0  0  0  0  0
   29.0140   28.4459   45.0911 H   0  0  0  0  0  0  0  0  0  0  0  0
   29.6241   26.7564   45.0911 H   0  0  0  0  0  0  0  0  0  0  0  0
  2  7  2  0
  2  1  1  0
  3  2  1  0
  4  5  1  0
  4  3  2  0
  5  6  2  0
  6  7  1  0
  7 15  1  0
  8 13  2  0
  9  8  1  0
 10 11  1  0
 10  9  2  0
 11 12  2  0
 12  3  1  0
 12 13  1  0
 14 10  1  0
 15 16  1  0
 16 17  1  0
 19 18  2  0
 19 23  1  0
 19 17  1  0
 20 19  1  0
 21 20  1  0
 22 21  1  0
 23 24  1  0
 24 26  1  0
 24 25  1  0
 27 24  1  0
  4 28  1  0
  5 29  1  0
  6 30  1  0
  8 31  1  0
  9 32  1  0
 14 33  1  0
 14 34  1  0
 15 35  1  0
 15 36  1  0
 16 37  1  0
 16 38  1  0
 21 39  1  0
 21 40  1  0
 22 41  1  0
 22 42  1  0
 22 43  1  0
M  ISO  8  28  14  29  14  30  14  31  14  32  14  35   8  36   8  37   8
M  ISO  6  38   8  39   8  40   8  41   8  42   8  43   8
M  END
>  <minimizedAffinity>  (1) 
-5.49246025

>  <minimizedRMSD>  (1) 
0.214013293

$$$$
