
     RDKit          3D

 17 17  0  0  0  0  0  0  0  0999 V2000
   37.2730   30.4510   51.1200 C   0  0  0  0  0  0  0  0  0  0  0  0
   37.6910   30.8730   49.8400 C   0  0  0  0  0  0  0  0  0  0  0  0
   37.1250   30.2630   48.7330 C   0  0  0  0  0  0  0  0  0  0  0  0
   36.1930   29.2910   48.9310 N   0  0  0  0  0  0  0  0  0  0  0  0
   35.8150   28.9120   50.1550 C   0  0  0  0  0  0  0  0  0  0  0  0
   36.3510   29.4880   51.2560 N   0  0  0  0  0  0  0  0  0  0  0  0
   38.6430   31.8690   49.8560 O   0  0  0  0  0  0  0  0  0  0  0  0
   38.3040   33.0470   49.1250 C   0  0  0  0  0  0  0  0  0  0  0  0
   39.3820   34.0700   49.3070 C   0  0  0  0  0  0  0  0  0  0  0  0
   37.7087   30.9175   52.0159 H   0  0  0  0  0  0  0  0  0  0  0  0
   37.4222   30.5576   47.7157 H   0  0  0  0  0  0  0  0  0  0  0  0
   35.0585   28.1217   50.2693 H   0  0  0  0  0  0  0  0  0  0  0  0
   37.3499   33.4485   49.4971 H   0  0  0  0  0  0  0  0  0  0  0  0
   38.2050   32.8022   48.0572 H   0  0  0  0  0  0  0  0  0  0  0  0
   39.5545   34.2337   50.3810 H   0  0  0  0  0  0  0  0  0  0  0  0
   40.3100   33.7124   48.8369 H   0  0  0  0  0  0  0  0  0  0  0  0
   39.0735   35.0154   48.8369 H   0  0  0  0  0  0  0  0  0  0  0  0
  1  6  2  0
  2  7  1  0
  2  1  1  0
  3  4  1  0
  3  2  2  0
  4  5  2  0
  5  6  1  0
  8  9  1  0
  8  7  1  0
  1 10  1  0
  3 11  1  0
  5 12  1  0
  8 13  1  0
  8 14  1  0
  9 15  1  0
  9 16  1  0
  9 17  1  0
M  ISO  8  10  14  11  14  12  14  13   8  14   8  15   8  16   8  17   8
M  END
>  <minimizedAffinity>  (1) 
-3.56911564

>  <minimizedRMSD>  (1) 
1.23051679

$$$$
