
     RDKit          3D

 40 42  0  0  0  0  0  0  0  0999 V2000
   34.4300   28.7310   47.6510 C   0  0  0  0  0  0  0  0  0  0  0  0
   32.0090   28.5050   47.3100 C   0  0  0  0  0  0  0  0  0  0  0  0
   33.1960   29.1370   47.0630 C   0  0  0  0  0  0  0  0  0  0  0  0
   33.0840   30.1380   46.1540 C   0  0  0  0  0  0  0  0  0  0  0  0
   31.9430   30.4810   45.5530 N   0  0  0  0  0  0  0  0  0  0  0  0
   30.8030   29.8650   45.7930 C   0  0  0  0  0  0  0  0  0  0  0  0
   30.8170   28.8670   46.6770 N   0  0  0  0  0  0  0  0  0  0  0  0
   31.8920   27.4650   48.4210 C   0  0  0  0  0  0  0  0  0  0  0  0
   30.7820   26.6540   48.5920 C   0  0  0  0  0  0  0  0  0  0  0  0
   31.8440   26.0530   47.6920 C   0  0  0  0  0  0  0  0  0  0  0  0
   35.5930   29.6330   47.5020 C   0  0  0  0  0  0  0  0  0  0  0  0
   37.0980   31.9650   47.5290 F   0  0  0  0  0  0  0  0  0  0  0  0
   37.0680   31.1270   48.5990 C   0  0  0  0  0  0  0  0  0  0  0  0
   36.3440   29.9260   48.6750 C   0  0  0  0  0  0  0  0  0  0  0  0
   36.4720   29.2270   49.8260 C   0  0  0  0  0  0  0  0  0  0  0  0
   37.2340   29.6190   50.8790 C   0  0  0  0  0  0  0  0  0  0  0  0
   37.9560   30.8340   50.7840 C   0  0  0  0  0  0  0  0  0  0  0  0
   37.8670   31.6020   49.6030 C   0  0  0  0  0  0  0  0  0  0  0  0
   38.6150   32.7100   49.6470 O   0  0  0  0  0  0  0  0  0  0  0  0
   39.3180   33.7230   49.6940 C   0  0  0  0  0  0  0  0  0  0  0  0
   39.8290   34.3440   48.3670 C   0  0  0  0  0  0  0  0  0  0  0  0
   34.2526   28.5991   48.7286 H   0  0  0  0  0  0  0  0  0  0  0  0
   34.7127   27.8204   47.1025 H   0  0  0  0  0  0  0  0  0  0  0  0
   33.9918   30.7030   45.8959 H   0  0  0  0  0  0  0  0  0  0  0  0
   29.8749   30.1630   45.2832 H   0  0  0  0  0  0  0  0  0  0  0  0
   32.4363   28.0362   49.1875 H   0  0  0  0  0  0  0  0  0  0  0  0
   30.6015   26.2005   49.5778 H   0  0  0  0  0  0  0  0  0  0  0  0
   29.7063   26.8335   48.4479 H   0  0  0  0  0  0  0  0  0  0  0  0
   31.6928   25.9792   46.6049 H   0  0  0  0  0  0  0  0  0  0  0  0
   32.4515   25.1373   47.6439 H   0  0  0  0  0  0  0  0  0  0  0  0
   36.2791   29.1712   46.7767 H   0  0  0  0  0  0  0  0  0  0  0  0
   35.1654   30.5976   47.1911 H   0  0  0  0  0  0  0  0  0  0  0  0
   35.9224   28.2783   49.9147 H   0  0  0  0  0  0  0  0  0  0  0  0
   37.2897   29.0042   51.7895 H   0  0  0  0  0  0  0  0  0  0  0  0
   38.5802   31.1758   51.6227 H   0  0  0  0  0  0  0  0  0  0  0  0
   38.7322   34.4988   50.2088 H   0  0  0  0  0  0  0  0  0  0  0  0
   40.2352   33.3854   50.1987 H   0  0  0  0  0  0  0  0  0  0  0  0
   40.5133   35.1756   48.5909 H   0  0  0  0  0  0  0  0  0  0  0  0
   40.3615   33.5776   47.7847 H   0  0  0  0  0  0  0  0  0  0  0  0
   38.9744   34.7190   47.7847 H   0  0  0  0  0  0  0  0  0  0  0  0
  2  8  1  0
  3  2  1  0
  3  1  1  0
  4  3  2  0
  5  6  2  0
  5  4  1  0
  6  7  1  0
  7  2  2  0
  8  9  1  0
 10  8  1  0
 10  9  1  0
 11  1  1  0
 11 14  1  0
 12 13  1  0
 13 14  2  0
 13 18  1  0
 14 15  1  0
 15 16  2  0
 17 16  1  0
 18 19  1  0
 18 17  2  0
 19 20  1  0
 21 20  1  0
  1 22  1  0
  1 23  1  0
  4 24  1  0
  6 25  1  0
  8 26  1  0
  9 27  1  0
  9 28  1  0
 10 29  1  0
 10 30  1  0
 11 31  1  0
 11 32  1  0
 15 33  1  0
 16 34  1  0
 17 35  1  0
 20 36  1  0
 20 37  1  0
 21 38  1  0
 21 39  1  0
 21 40  1  0
M  ISO  8  22   8  23   8  24  14  25  14  26  13  27  13  28  13  29  13
M  ISO  8  30  13  31   8  32   8  33  14  34  14  35  14  36   8  37   8
M  ISO  3  38   8  39   8  40   8
M  END
>  <minimizedAffinity>  (1) 
-5.28691769

>  <minimizedRMSD>  (1) 
3.24473858

$$$$
