
     RDKit          3D

 29 30  0  0  0  0  0  0  0  0999 V2000
   37.4220   31.1010   47.0730 N   0  0  0  0  0  0  0  0  0  0  0  0
   36.8090   30.7510   45.9080 C   0  0  0  0  0  0  0  0  0  0  0  0
   37.2640   31.2200   44.6830 C   0  0  0  0  0  0  0  0  0  0  0  0
   38.3790   32.0690   44.6780 C   0  0  0  0  0  0  0  0  0  0  0  0
   38.8250   32.5170   43.5910 O   0  0  0  0  0  0  0  0  0  0  0  0
   38.9830   32.4110   45.8500 N   0  0  0  0  0  0  0  0  0  0  0  0
   38.4630   31.9020   46.9790 C   0  0  0  0  0  0  0  0  0  0  0  0
   39.0490   32.2440   48.0290 O   0  0  0  0  0  0  0  0  0  0  0  0
   37.3250   29.5920   50.4660 C   0  0  0  0  0  0  0  0  0  0  0  0
   37.7950   30.0570   49.2310 C   0  0  0  0  0  0  0  0  0  0  0  0
   36.9580   30.6270   48.3050 C   0  0  0  0  0  0  0  0  0  0  0  0
   35.6580   30.7120   48.6480 N   0  0  0  0  0  0  0  0  0  0  0  0
   35.1510   30.2790   49.8240 C   0  0  0  0  0  0  0  0  0  0  0  0
   35.9910   29.7150   50.7390 N   0  0  0  0  0  0  0  0  0  0  0  0
   40.1400   33.2860   45.8530 C   0  0  0  0  0  0  0  0  0  0  0  0
   39.9950   34.2490   44.8960 F   0  0  0  0  0  0  0  0  0  0  0  0
   41.3160   32.6290   45.5860 F   0  0  0  0  0  0  0  0  0  0  0  0
   40.2100   33.9360   47.0910 F   0  0  0  0  0  0  0  0  0  0  0  0
   36.5780   30.8290   43.4280 C   0  0  0  0  0  0  0  0  0  0  0  0
   36.8540   29.3830   43.0740 C   0  0  0  0  0  0  0  0  0  0  0  0
   35.9355   30.0831   45.9384 H   0  0  0  0  0  0  0  0  0  0  0  0
   38.0113   29.1397   51.1970 H   0  0  0  0  0  0  0  0  0  0  0  0
   38.8656   29.9625   48.9968 H   0  0  0  0  0  0  0  0  0  0  0  0
   34.0771   30.3800   50.0399 H   0  0  0  0  0  0  0  0  0  0  0  0
   35.4940   30.9655   43.5554 H   0  0  0  0  0  0  0  0  0  0  0  0
   36.9587   31.4631   42.6138 H   0  0  0  0  0  0  0  0  0  0  0  0
   36.9663   28.7946   43.9966 H   0  0  0  0  0  0  0  0  0  0  0  0
   36.0159   28.9835   42.4841 H   0  0  0  0  0  0  0  0  0  0  0  0
   37.7803   29.3203   42.4841 H   0  0  0  0  0  0  0  0  0  0  0  0
  1 11  1  0
  2  1  1  0
  3  2  2  0
  4  3  1  0
  4  6  1  0
  5  4  2  0
  6 15  1  0
  6  7  1  0
  7  1  1  0
  7  8  2  0
  9 14  2  0
 10  9  1  0
 11 12  1  0
 11 10  2  0
 12 13  2  0
 13 14  1  0
 15 18  1  0
 16 15  1  0
 17 15  1  0
 19  3  1  0
 20 19  1  0
  2 21  1  0
  9 22  1  0
 10 23  1  0
 13 24  1  0
 19 25  1  0
 19 26  1  0
 20 27  1  0
 20 28  1  0
 20 29  1  0
M  ISO  8  21  14  22  14  23  14  24  14  25   8  26   8  27   8  28   8
M  ISO  1  29   8
M  END
>  <minimizedAffinity>  (1) 
-5.829844

>  <minimizedRMSD>  (1) 
0.18194598

$$$$
