
     RDKit          3D

 21 21  0  0  0  0  0  0  0  0999 V2000
   35.4760   29.8380   50.1400 C   0  0  0  0  0  0  0  0  0  0  0  0
   36.5990   30.4540   49.5510 C   0  0  0  0  0  0  0  0  0  0  0  0
   36.5270   30.7810   48.2120 C   0  0  0  0  0  0  0  0  0  0  0  0
   35.3660   30.4780   47.5590 N   0  0  0  0  0  0  0  0  0  0  0  0
   34.3140   29.8920   48.1270 C   0  0  0  0  0  0  0  0  0  0  0  0
   34.3980   29.5850   49.4250 N   0  0  0  0  0  0  0  0  0  0  0  0
   33.2050   29.5980   47.3150 N   0  0  0  0  0  0  0  0  0  0  0  0
   37.6720   31.4570   47.5810 C   0  0  0  0  0  0  0  0  0  0  0  0
   38.7350   30.6740   47.6660 F   0  0  0  0  0  0  0  0  0  0  0  0
   37.4230   31.8190   46.2760 F   0  0  0  0  0  0  0  0  0  0  0  0
   37.9890   32.6580   48.2710 F   0  0  0  0  0  0  0  0  0  0  0  0
   37.7030   30.6220   50.5320 C   0  0  0  0  0  0  0  0  0  0  0  0
   37.4440   29.9700   51.8670 C   0  0  0  0  0  0  0  0  0  0  0  0
   35.4996   29.5661   51.2056 H   0  0  0  0  0  0  0  0  0  0  0  0
   32.3744   29.1448   47.7220 H   0  0  0  0  0  0  0  0  0  0  0  0
   33.2229   29.8357   46.3130 H   0  0  0  0  0  0  0  0  0  0  0  0
   38.6157   30.1820   50.1038 H   0  0  0  0  0  0  0  0  0  0  0  0
   37.7998   31.7016   50.7193 H   0  0  0  0  0  0  0  0  0  0  0  0
   37.7200   30.6647   52.6740 H   0  0  0  0  0  0  0  0  0  0  0  0
   36.3769   29.7165   51.9504 H   0  0  0  0  0  0  0  0  0  0  0  0
   38.0463   29.0533   51.9504 H   0  0  0  0  0  0  0  0  0  0  0  0
  2  1  2  0
  2 12  1  0
  3  2  1  0
  4  5  1  0
  4  3  2  0
  5  6  2  0
  6  1  1  0
  7  5  1  0
  8  9  1  0
  8  3  1  0
  8 11  1  0
 10  8  1  0
 12 13  1  0
  1 14  1  0
  7 15  1  0
  7 16  1  0
 12 17  1  0
 12 18  1  0
 13 19  1  0
 13 20  1  0
 13 21  1  0
M  ISO  6  14  14  17   8  18   8  19   8  20   8  21   8
M  END
>  <minimizedAffinity>  (1) 
-4.81437397

>  <minimizedRMSD>  (1) 
1.96636176

$$$$
