
     RDKit          3D

 29 30  0  0  0  0  0  0  0  0999 V2000
   38.2140   31.1830   47.9760 C   0  0  0  0  0  0  0  0  0  0  0  0
   38.5640   30.3620   46.9270 C   0  0  0  0  0  0  0  0  0  0  0  0
   39.3160   30.7620   45.8330 C   0  0  0  0  0  0  0  0  0  0  0  0
   39.7620   32.1050   45.7800 C   0  0  0  0  0  0  0  0  0  0  0  0
   39.4050   32.9350   46.8430 C   0  0  0  0  0  0  0  0  0  0  0  0
   38.6570   32.5190   47.9180 C   0  0  0  0  0  0  0  0  0  0  0  0
   38.0660   30.4630   50.3030 C   0  0  0  0  0  0  0  0  0  0  0  0
   37.4330   30.6050   49.0300 C   0  0  0  0  0  0  0  0  0  0  0  0
   36.1150   30.1670   48.9220 C   0  0  0  0  0  0  0  0  0  0  0  0
   35.5160   29.6370   50.0200 N   0  0  0  0  0  0  0  0  0  0  0  0
   36.1450   29.5110   51.2270 C   0  0  0  0  0  0  0  0  0  0  0  0
   37.4340   29.9360   51.3480 N   0  0  0  0  0  0  0  0  0  0  0  0
   35.3400   30.2550   47.6750 C   0  0  0  0  0  0  0  0  0  0  0  0
   34.0460   30.7580   47.9530 F   0  0  0  0  0  0  0  0  0  0  0  0
   35.8770   30.9830   46.6640 F   0  0  0  0  0  0  0  0  0  0  0  0
   35.0780   28.9750   47.1840 F   0  0  0  0  0  0  0  0  0  0  0  0
   38.2650   33.4010   49.0430 C   0  0  0  0  0  0  0  0  0  0  0  0
   39.4400   34.1200   49.6380 C   0  0  0  0  0  0  0  0  0  0  0  0
   38.2233   29.3166   46.9594 H   0  0  0  0  0  0  0  0  0  0  0  0
   39.5599   30.0543   45.0269 H   0  0  0  0  0  0  0  0  0  0  0  0
   40.3635   32.4774   44.9377 H   0  0  0  0  0  0  0  0  0  0  0  0
   39.7414   33.9820   46.8192 H   0  0  0  0  0  0  0  0  0  0  0  0
   39.1065   30.7994   50.4224 H   0  0  0  0  0  0  0  0  0  0  0  0
   35.6185   29.0731   52.0878 H   0  0  0  0  0  0  0  0  0  0  0  0
   37.5441   34.1456   48.6743 H   0  0  0  0  0  0  0  0  0  0  0  0
   37.8236   32.7695   49.8281 H   0  0  0  0  0  0  0  0  0  0  0  0
   39.3763   34.0810   50.7355 H   0  0  0  0  0  0  0  0  0  0  0  0
   40.3713   33.6369   49.3074 H   0  0  0  0  0  0  0  0  0  0  0  0
   39.4337   35.1691   49.3074 H   0  0  0  0  0  0  0  0  0  0  0  0
  1  8  1  0
  2  1  2  0
  3  2  1  0
  4  3  2  0
  4  5  1  0
  5  6  2  0
  6  1  1  0
  6 17  1  0
  7 12  2  0
  8  7  1  0
  9  8  2  0
  9 10  1  0
 10 11  2  0
 11 12  1  0
 13 14  1  0
 13  9  1  0
 15 13  1  0
 16 13  1  0
 17 18  1  0
  2 19  1  0
  3 20  1  0
  4 21  1  0
  5 22  1  0
  7 23  1  0
 11 24  1  0
 17 25  1  0
 17 26  1  0
 18 27  1  0
 18 28  1  0
 18 29  1  0
M  ISO  8  19  14  20  14  21  14  22  14  23  14  24  14  25   8  26   8
M  ISO  3  27   8  28   8  29   8
M  END
>  <minimizedAffinity>  (1) 
-6.02209425

>  <minimizedRMSD>  (1) 
0.761312604

$$$$
