
     RDKit          3D

 31 32  0  0  1  0  0  0  0  0999 V2000
   36.7090   30.8980   48.5460 N   0  0  0  0  0  0  0  0  0  0  0  0
   37.9160   31.3720   47.9070 C   0  0  0  0  0  0  0  0  0  0  0  0
   38.2350   32.6450   48.6950 C   0  0  0  0  0  0  0  0  0  0  0  0
   37.1620   32.7520   49.7510 C   0  0  0  0  0  0  0  0  0  0  0  0
   36.7750   31.3090   49.9360 C   0  0  2  0  0  0  0  0  0  0  0  0
   35.6520   30.1710   47.9530 C   0  0  0  0  0  0  0  0  0  0  0  0
   35.5490   30.2290   46.5600 C   0  0  0  0  0  0  0  0  0  0  0  0
   34.5270   29.5350   45.9060 C   0  0  0  0  0  0  0  0  0  0  0  0
   33.6730   28.8260   46.6980 N   0  0  0  0  0  0  0  0  0  0  0  0
   33.8010   28.7900   48.0440 C   0  0  0  0  0  0  0  0  0  0  0  0
   34.7950   29.4660   48.6820 N   0  0  0  0  0  0  0  0  0  0  0  0
   32.7940   27.9760   48.7490 C   0  0  0  0  0  0  0  0  0  0  0  0
   32.2870   26.8260   47.9440 C   0  0  0  0  0  0  0  0  0  0  0  0
   37.7370   30.5340   50.7580 C   0  0  0  0  0  0  0  0  0  0  0  0
   37.9830   29.2860   50.1600 F   0  0  0  0  0  0  0  0  0  0  0  0
   37.3340   30.3720   52.0420 F   0  0  0  0  0  0  0  0  0  0  0  0
   38.9680   31.1980   50.8350 F   0  0  0  0  0  0  0  0  0  0  0  0
   38.7281   30.6356   47.9970 H   0  0  0  0  0  0  0  0  0  0  0  0
   37.7998   31.5444   46.8268 H   0  0  0  0  0  0  0  0  0  0  0  0
   39.2274   32.5676   49.1632 H   0  0  0  0  0  0  0  0  0  0  0  0
   38.2533   33.5314   48.0439 H   0  0  0  0  0  0  0  0  0  0  0  0
   37.5569   33.1843   50.6822 H   0  0  0  0  0  0  0  0  0  0  0  0
   36.3240   33.4081   49.4729 H   0  0  0  0  0  0  0  0  0  0  0  0
   35.8477   31.1440   50.5042 H   0  0  0  0  0  0  0  0  0  0  0  0
   36.2718   30.8205   45.9789 H   0  0  0  0  0  0  0  0  0  0  0  0
   34.4176   29.5595   44.8117 H   0  0  0  0  0  0  0  0  0  0  0  0
   33.2478   27.5825   49.6705 H   0  0  0  0  0  0  0  0  0  0  0  0
   31.9344   28.6312   48.9534 H   0  0  0  0  0  0  0  0  0  0  0  0
   31.9368   26.0316   48.6195 H   0  0  0  0  0  0  0  0  0  0  0  0
   31.4534   27.1617   47.3096 H   0  0  0  0  0  0  0  0  0  0  0  0
   33.0971   26.4371   47.3096 H   0  0  0  0  0  0  0  0  0  0  0  0
  1  5  1  0
  2  1  1  0
  2  3  1  0
  3  4  1  0
  4  5  1  0
  5 14  1  0
  6  1  1  0
  6 11  1  0
  7  6  2  0
  8  7  1  0
  8  9  2  0
  9 10  1  0
 10 11  2  0
 10 12  1  0
 13 12  1  0
 14 17  1  0
 14 16  1  0
 15 14  1  0
  2 18  1  0
  2 19  1  0
  3 20  1  0
  3 21  1  0
  4 22  1  0
  4 23  1  0
  5 24  1  1
  7 25  1  0
  8 26  1  0
 12 27  1  0
 12 28  1  0
 13 29  1  0
 13 30  1  0
 13 31  1  0
M  ISO  8  18  13  19  13  20  13  21  13  22  13  23  13  24  13  25  14
M  ISO  6  26  14  27   8  28   8  29   8  30   8  31   8
M  END
>  <minimizedAffinity>  (1) 
-5.51871061

>  <minimizedRMSD>  (1) 
0.876965702

$$$$
