
     RDKit          3D

 29 31  0  0  1  0  0  0  0  0999 V2000
   38.3740   32.9850   48.0350 C   0  0  1  0  0  0  0  0  0  0  0  0
   37.5900   32.1930   48.9580 C   0  0  2  0  0  0  0  0  0  0  0  0
   38.9640   32.6420   49.4080 C   0  0  0  0  0  0  0  0  0  0  0  0
   39.1400   32.3470   46.9090 C   0  0  0  0  0  0  0  0  0  0  0  0
   40.1120   33.1400   46.2970 C   0  0  0  0  0  0  0  0  0  0  0  0
   40.7930   32.5330   45.2320 C   0  0  0  0  0  0  0  0  0  0  0  0
   40.4920   31.2430   44.8500 N   0  0  0  0  0  0  0  0  0  0  0  0
   39.5330   30.5230   45.4890 C   0  0  0  0  0  0  0  0  0  0  0  0
   38.8570   31.0950   46.5290 N   0  0  0  0  0  0  0  0  0  0  0  0
   37.4610   30.8130   48.7340 O   0  0  0  0  0  0  0  0  0  0  0  0
   35.9810   29.5170   50.0060 C   0  0  0  0  0  0  0  0  0  0  0  0
   36.3100   30.0770   48.7720 C   0  0  0  0  0  0  0  0  0  0  0  0
   35.4340   29.8230   47.7360 C   0  0  0  0  0  0  0  0  0  0  0  0
   34.3060   29.0630   47.9090 C   0  0  0  0  0  0  0  0  0  0  0  0
   33.9640   28.5020   49.1200 C   0  0  0  0  0  0  0  0  0  0  0  0
   34.8420   28.7560   50.1660 C   0  0  0  0  0  0  0  0  0  0  0  0
   37.4540   29.8550   52.1220 N   0  0  0  0  0  0  0  0  0  0  0  0
   36.7930   29.6950   51.1730 C   0  0  0  0  0  0  0  0  0  0  0  0
   38.1108   33.8779   47.4489 H   0  0  0  0  0  0  0  0  0  0  0  0
   36.5626   32.2982   49.3366 H   0  0  0  0  0  0  0  0  0  0  0  0
   39.7872   31.9179   49.4975 H   0  0  0  0  0  0  0  0  0  0  0  0
   39.3804   33.2016   50.2586 H   0  0  0  0  0  0  0  0  0  0  0  0
   40.3282   34.1670   46.6263 H   0  0  0  0  0  0  0  0  0  0  0  0
   41.5748   33.0914   44.6963 H   0  0  0  0  0  0  0  0  0  0  0  0
   39.3044   29.4944   45.1733 H   0  0  0  0  0  0  0  0  0  0  0  0
   35.6472   30.2428   46.7419 H   0  0  0  0  0  0  0  0  0  0  0  0
   33.6466   28.8941   47.0449 H   0  0  0  0  0  0  0  0  0  0  0  0
   33.0567   27.8938   49.2498 H   0  0  0  0  0  0  0  0  0  0  0  0
   34.6208   28.3349   51.1579 H   0  0  0  0  0  0  0  0  0  0  0  0
  1  2  1  0
  1  3  1  0
  2  3  1  0
  4  1  1  0
  5  4  2  0
  6  5  1  0
  7  6  2  0
  7  8  1  0
  8  9  2  0
  9  4  1  0
 10 12  1  0
 10  2  1  0
 11 16  2  0
 11 18  1  0
 12 11  1  0
 13 14  1  0
 13 12  2  0
 14 15  2  0
 15 16  1  0
 18 17  3  0
  1 19  1  6
  2 20  1  1
  3 21  1  0
  3 22  1  0
  5 23  1  0
  6 24  1  0
  8 25  1  0
 13 26  1  0
 14 27  1  0
 15 28  1  0
 16 29  1  0
M  ISO  8  19  13  20  13  21  13  22  13  23  14  24  14  25  14  26  14
M  ISO  3  27  14  28  14  29  14
M  END
>  <minimizedAffinity>  (1) 
-5.79934549

>  <minimizedRMSD>  (1) 
3.04686713

$$$$
