
     RDKit          3D

 37 39  0  0  1  0  0  0  0  0999 V2000
   35.9310   29.7600   48.7860 N   0  0  0  0  0  0  0  0  0  0  0  0
   36.7450   28.9100   49.6300 C   0  0  0  0  0  0  0  0  0  0  0  0
   37.1880   29.4530   50.9120 C   0  0  0  0  0  0  0  0  0  0  0  0
   37.3330   30.9100   51.0460 C   0  0  0  0  0  0  0  0  0  0  0  0
   36.5220   31.7070   50.0640 C   0  0  0  0  0  0  0  0  0  0  0  0
   36.5850   31.0500   48.6810 C   0  0  1  0  0  0  0  0  0  0  0  0
   34.7000   29.3780   48.1720 C   0  0  0  0  0  0  0  0  0  0  0  0
   34.1510   30.0040   47.0580 C   0  0  0  0  0  0  0  0  0  0  0  0
   32.9490   29.5470   46.5450 C   0  0  0  0  0  0  0  0  0  0  0  0
   32.3600   28.4940   47.1700 N   0  0  0  0  0  0  0  0  0  0  0  0
   32.9200   27.9090   48.2510 C   0  0  0  0  0  0  0  0  0  0  0  0
   34.0840   28.3560   48.7410 N   0  0  0  0  0  0  0  0  0  0  0  0
   37.9480   30.9040   48.4220 O   0  0  0  0  0  0  0  0  0  0  0  0
   39.2020   32.4740   47.2770 C   0  0  0  0  0  0  0  0  0  0  0  0
   38.5720   31.2400   47.2330 C   0  0  0  0  0  0  0  0  0  0  0  0
   38.6400   30.5300   46.0620 C   0  0  0  0  0  0  0  0  0  0  0  0
   39.3130   31.0290   44.9690 C   0  0  0  0  0  0  0  0  0  0  0  0
   39.9350   32.2390   45.0000 C   0  0  0  0  0  0  0  0  0  0  0  0
   39.8790   32.9700   46.1690 C   0  0  0  0  0  0  0  0  0  0  0  0
   39.2060   34.0000   49.3740 N   0  0  0  0  0  0  0  0  0  0  0  0
   39.2120   33.3290   48.4400 C   0  0  0  0  0  0  0  0  0  0  0  0
   36.1621   28.0014   49.8414 H   0  0  0  0  0  0  0  0  0  0  0  0
   37.6716   28.7543   49.0580 H   0  0  0  0  0  0  0  0  0  0  0  0
   36.4606   29.1282   51.6706 H   0  0  0  0  0  0  0  0  0  0  0  0
   38.2126   29.0695   51.0264 H   0  0  0  0  0  0  0  0  0  0  0  0
   37.0208   31.1949   52.0615 H   0  0  0  0  0  0  0  0  0  0  0  0
   38.3890   31.1407   50.8416 H   0  0  0  0  0  0  0  0  0  0  0  0
   35.4759   31.7464   50.4018 H   0  0  0  0  0  0  0  0  0  0  0  0
   36.9305   32.7263   49.9997 H   0  0  0  0  0  0  0  0  0  0  0  0
   36.0935   31.6232   47.8811 H   0  0  0  0  0  0  0  0  0  0  0  0
   34.6671   30.8545   46.5887 H   0  0  0  0  0  0  0  0  0  0  0  0
   32.4881   30.0186   45.6646 H   0  0  0  0  0  0  0  0  0  0  0  0
   32.4161   27.0584   48.7331 H   0  0  0  0  0  0  0  0  0  0  0  0
   38.1499   29.5475   45.9946 H   0  0  0  0  0  0  0  0  0  0  0  0
   39.3488   30.4329   44.0452 H   0  0  0  0  0  0  0  0  0  0  0  0
   40.4676   32.6236   44.1177 H   0  0  0  0  0  0  0  0  0  0  0  0
   40.3731   33.9512   46.2244 H   0  0  0  0  0  0  0  0  0  0  0  0
  1  2  1  0
  2  3  1  0
  3  4  1  0
  5  4  1  0
  6  1  1  0
  6  5  1  0
  7 12  1  0
  7  1  1  0
  8  7  2  0
  9  8  1  0
  9 10  2  0
 10 11  1  0
 11 12  2  0
 13  6  1  0
 14 21  1  0
 15 14  2  0
 15 13  1  0
 16 15  1  0
 17 18  1  0
 17 16  2  0
 18 19  2  0
 19 14  1  0
 21 20  3  0
  2 22  1  0
  2 23  1  0
  3 24  1  0
  3 25  1  0
  4 26  1  0
  4 27  1  0
  5 28  1  0
  5 29  1  0
  6 30  1  6
  8 31  1  0
  9 32  1  0
 11 33  1  0
 16 34  1  0
 17 35  1  0
 18 36  1  0
 19 37  1  0
M  ISO  8  22  13  23  13  24  13  25  13  26  13  27  13  28  13  29  13
M  ISO  8  30  13  31  14  32  14  33  14  34  14  35  14  36  14  37  14
M  END
>  <minimizedAffinity>  (1) 
-6.15420628

>  <minimizedRMSD>  (1) 
1.00266016

$$$$
