
     RDKit          3D

 31 33  0  0  1  0  0  0  0  0999 V2000
   35.3940   30.3920   49.7520 C   0  0  1  0  0  0  0  0  0  0  0  0
   34.8780   29.1230   49.2950 C   0  0  1  0  0  0  0  0  0  0  0  0
   35.8670   29.0990   50.4100 C   0  0  0  0  0  0  0  0  0  0  0  0
   36.5050   31.1050   49.0140 C   0  0  0  0  0  0  0  0  0  0  0  0
   37.1780   32.0890   49.7400 C   0  0  0  0  0  0  0  0  0  0  0  0
   38.1860   32.7500   48.9950 C   0  0  0  0  0  0  0  0  0  0  0  0
   38.4450   32.4290   47.6990 N   0  0  0  0  0  0  0  0  0  0  0  0
   37.7430   31.4560   47.0640 C   0  0  0  0  0  0  0  0  0  0  0  0
   36.7590   30.7940   47.7540 N   0  0  0  0  0  0  0  0  0  0  0  0
   33.4170   28.8220   49.5450 C   0  0  0  0  0  0  0  0  0  0  0  0
   31.7870   27.1910   48.4920 C   0  0  0  0  0  0  0  0  0  0  0  0
   33.0380   27.7280   48.5840 C   0  0  0  0  0  0  0  0  0  0  0  0
   34.0830   27.2640   47.7790 C   0  0  0  0  0  0  0  0  0  0  0  0
   33.8900   26.2420   46.8560 C   0  0  0  0  0  0  0  0  0  0  0  0
   32.6290   25.7100   46.7720 C   0  0  0  0  0  0  0  0  0  0  0  0
   31.5970   26.1790   47.5770 C   0  0  0  0  0  0  0  0  0  0  0  0
   29.8770   28.1070   50.0000 N   0  0  0  0  0  0  0  0  0  0  0  0
   30.7330   27.6880   49.3170 C   0  0  0  0  0  0  0  0  0  0  0  0
   34.8827   31.3255   50.0297 H   0  0  0  0  0  0  0  0  0  0  0  0
   34.8349   28.6010   48.3277 H   0  0  0  0  0  0  0  0  0  0  0  0
   36.8890   28.7288   50.2410 H   0  0  0  0  0  0  0  0  0  0  0  0
   35.9011   28.6948   51.4325 H   0  0  0  0  0  0  0  0  0  0  0  0
   36.9482   32.3282   50.7888 H   0  0  0  0  0  0  0  0  0  0  0  0
   38.7747   33.5439   49.4778 H   0  0  0  0  0  0  0  0  0  0  0  0
   37.9591   31.2029   46.0155 H   0  0  0  0  0  0  0  0  0  0  0  0
   33.2700   28.4853   50.5818 H   0  0  0  0  0  0  0  0  0  0  0  0
   32.7945   29.7166   49.3963 H   0  0  0  0  0  0  0  0  0  0  0  0
   35.0802   27.7177   47.8781 H   0  0  0  0  0  0  0  0  0  0  0  0
   34.7115   25.8769   46.2221 H   0  0  0  0  0  0  0  0  0  0  0  0
   32.4307   24.8989   46.0560 H   0  0  0  0  0  0  0  0  0  0  0  0
   30.5983   25.7282   47.4803 H   0  0  0  0  0  0  0  0  0  0  0  0
  1  3  1  0
  2 10  1  0
  2  1  1  0
  2  3  1  0
  4  5  2  0
  4  1  1  0
  6  5  1  0
  7  6  2  0
  8  7  1  0
  8  9  2  0
  9  4  1  0
 11 12  2  0
 11 18  1  0
 12 10  1  0
 13 12  1  0
 14 13  2  0
 15 14  1  0
 15 16  2  0
 16 11  1  0
 18 17  3  0
  1 19  1  1
  2 20  1  6
  3 21  1  0
  3 22  1  0
  5 23  1  0
  6 24  1  0
  8 25  1  0
 10 26  1  0
 10 27  1  0
 13 28  1  0
 14 29  1  0
 15 30  1  0
 16 31  1  0
M  ISO  8  19  13  20  13  21  13  22  13  23  14  24  14  25  14  26   8
M  ISO  5  27   8  28  14  29  14  30  14  31  14
M  END
>  <minimizedAffinity>  (1) 
-5.36070251

>  <minimizedRMSD>  (1) 
2.36595011

$$$$
