
     RDKit          3D

 40 42  0  0  1  0  0  0  0  0999 V2000
   34.4870   28.7670   50.0220 O   0  0  0  0  0  0  0  0  0  0  0  0
   34.2620   29.0610   48.8270 C   0  0  0  0  0  0  0  0  0  0  0  0
   35.0230   30.0930   48.1620 C   0  0  2  0  0  0  0  0  0  0  0  0
   34.5200   29.9260   46.6930 C   0  0  0  0  0  0  0  0  0  0  0  0
   33.1420   29.3650   46.8680 C   0  0  0  0  0  0  0  0  0  0  0  0
   33.2620   28.4410   47.9840 N   0  0  0  0  0  0  0  0  0  0  0  0
   32.5790   27.1810   48.2200 C   0  0  0  0  0  0  0  0  0  0  0  0
   30.3450   26.8490   47.5880 C   0  0  0  0  0  0  0  0  0  0  0  0
   31.1700   27.3650   48.5650 C   0  0  0  0  0  0  0  0  0  0  0  0
   30.6280   27.9550   49.6750 C   0  0  0  0  0  0  0  0  0  0  0  0
   29.2700   28.0490   49.8400 C   0  0  0  0  0  0  0  0  0  0  0  0
   28.4200   27.5440   48.8810 C   0  0  0  0  0  0  0  0  0  0  0  0
   28.9580   26.9420   47.7520 C   0  0  0  0  0  0  0  0  0  0  0  0
   31.1300   25.6910   45.3970 N   0  0  0  0  0  0  0  0  0  0  0  0
   30.7760   26.1930   46.3660 C   0  0  0  0  0  0  0  0  0  0  0  0
   36.4330   29.8660   48.1120 O   0  0  0  0  0  0  0  0  0  0  0  0
   37.2680   30.9740   48.2310 C   0  0  0  0  0  0  0  0  0  0  0  0
   37.4010   31.5300   49.4880 C   0  0  0  0  0  0  0  0  0  0  0  0
   38.2190   32.6290   49.6520 C   0  0  0  0  0  0  0  0  0  0  0  0
   38.8640   33.1210   48.5620 N   0  0  0  0  0  0  0  0  0  0  0  0
   38.7280   32.5690   47.3340 C   0  0  0  0  0  0  0  0  0  0  0  0
   37.9400   31.5180   47.1990 N   0  0  0  0  0  0  0  0  0  0  0  0
   40.2940   32.1700   45.5930 C   0  0  0  0  0  0  0  0  0  0  0  0
   40.5070   30.9800   45.9240 O   0  0  0  0  0  0  0  0  0  0  0  0
   39.4200   33.1140   46.2070 N   0  0  0  0  0  0  0  0  0  0  0  0
   34.8872   31.0592   48.6699 H   0  0  0  0  0  0  0  0  0  0  0  0
   35.1615   29.2301   46.1326 H   0  0  0  0  0  0  0  0  0  0  0  0
   34.5352   30.8655   46.1211 H   0  0  0  0  0  0  0  0  0  0  0  0
   32.4237   30.1648   47.1014 H   0  0  0  0  0  0  0  0  0  0  0  0
   32.7728   28.8727   45.9562 H   0  0  0  0  0  0  0  0  0  0  0  0
   32.6421   26.5691   47.3081 H   0  0  0  0  0  0  0  0  0  0  0  0
   33.0706   26.6883   49.0718 H   0  0  0  0  0  0  0  0  0  0  0  0
   31.2948   28.3616   50.4496 H   0  0  0  0  0  0  0  0  0  0  0  0
   28.8585   28.5288   50.7403 H   0  0  0  0  0  0  0  0  0  0  0  0
   27.3298   27.6168   49.0081 H   0  0  0  0  0  0  0  0  0  0  0  0
   28.2889   26.5346   46.9798 H   0  0  0  0  0  0  0  0  0  0  0  0
   36.8623   31.1027   50.3466 H   0  0  0  0  0  0  0  0  0  0  0  0
   38.3458   33.0951   50.6403 H   0  0  0  0  0  0  0  0  0  0  0  0
   40.8526   32.5320   44.7172 H   0  0  0  0  0  0  0  0  0  0  0  0
   39.3000   34.0818   45.8757 H   0  0  0  0  0  0  0  0  0  0  0  0
  2  1  2  0
  3  2  1  0
  4  5  1  0
  4  3  1  0
  5  6  1  0
  6  7  1  0
  6  2  1  0
  7  9  1  0
  8 13  2  0
  8  9  1  0
  9 10  2  0
 10 11  1  0
 12 11  2  0
 13 12  1  0
 14 15  3  0
 15  8  1  0
 16  3  1  0
 16 17  1  0
 17 18  2  0
 18 19  1  0
 20 19  2  0
 21 20  1  0
 22 21  2  0
 22 17  1  0
 23 24  2  0
 23 25  1  0
 25 21  1  0
  3 26  1  1
  4 27  1  0
  4 28  1  0
  5 29  1  0
  5 30  1  0
  7 31  1  0
  7 32  1  0
 10 33  1  0
 11 34  1  0
 12 35  1  0
 13 36  1  0
 18 37  1  0
 19 38  1  0
 23 39  1  0
 25 40  1  0
M  ISO  8  26  13  27  13  28  13  29  13  30  13  31   8  32   8  33  14
M  ISO  6  34  14  35  14  36  14  37  14  38  14  39   6
M  END
>  <minimizedAffinity>  (1) 
-6.07053185

>  <minimizedRMSD>  (1) 
2.10091281

$$$$
