
     RDKit          3D

 35 38  0  0  0  0  0  0  0  0999 V2000
   35.9690   30.1250   46.9670 C   0  0  0  0  0  0  0  0  0  0  0  0
   36.8930   30.6640   47.8670 C   0  0  0  0  0  0  0  0  0  0  0  0
   37.9020   31.5280   47.4420 C   0  0  0  0  0  0  0  0  0  0  0  0
   37.9180   31.8080   46.0710 C   0  0  0  0  0  0  0  0  0  0  0  0
   38.7920   32.6150   45.4090 N   0  0  0  0  0  0  0  0  0  0  0  0
   38.4280   32.5840   44.1200 C   0  0  0  0  0  0  0  0  0  0  0  0
   37.3740   31.8030   43.9420 N   0  0  0  0  0  0  0  0  0  0  0  0
   37.0260   31.2980   45.1520 C   0  0  0  0  0  0  0  0  0  0  0  0
   36.0290   30.4350   45.6140 C   0  0  0  0  0  0  0  0  0  0  0  0
   37.4520   30.1460   51.5560 C   0  0  0  0  0  0  0  0  0  0  0  0
   37.6990   30.5570   50.2510 C   0  0  0  0  0  0  0  0  0  0  0  0
   36.7680   30.2930   49.2720 C   0  0  0  0  0  0  0  0  0  0  0  0
   35.6310   29.6270   49.6390 N   0  0  0  0  0  0  0  0  0  0  0  0
   35.4010   29.2310   50.9080 C   0  0  0  0  0  0  0  0  0  0  0  0
   36.3100   29.4930   51.8550 N   0  0  0  0  0  0  0  0  0  0  0  0
   39.1200   33.3080   43.1550 O   0  0  0  0  0  0  0  0  0  0  0  0
   39.5330   32.0120   41.1510 C   0  0  0  0  0  0  0  0  0  0  0  0
   39.0090   33.1200   41.8060 C   0  0  0  0  0  0  0  0  0  0  0  0
   38.3660   34.0040   40.9620 C   0  0  0  0  0  0  0  0  0  0  0  0
   38.2350   33.8470   39.5990 C   0  0  0  0  0  0  0  0  0  0  0  0
   38.7790   32.7270   39.0140 C   0  0  0  0  0  0  0  0  0  0  0  0
   39.4330   31.8010   39.7910 C   0  0  0  0  0  0  0  0  0  0  0  0
   40.8010   30.2060   42.5240 N   0  0  0  0  0  0  0  0  0  0  0  0
   40.2320   31.0040   41.9120 C   0  0  0  0  0  0  0  0  0  0  0  0
   35.1847   29.4470   47.3346 H   0  0  0  0  0  0  0  0  0  0  0  0
   38.6360   31.9604   48.1379 H   0  0  0  0  0  0  0  0  0  0  0  0
   39.5761   33.1436   45.8173 H   0  0  0  0  0  0  0  0  0  0  0  0
   35.2984   30.0050   44.9130 H   0  0  0  0  0  0  0  0  0  0  0  0
   38.1889   30.3536   52.3459 H   0  0  0  0  0  0  0  0  0  0  0  0
   38.6298   31.0882   50.0031 H   0  0  0  0  0  0  0  0  0  0  0  0
   34.4736   28.6969   51.1625 H   0  0  0  0  0  0  0  0  0  0  0  0
   37.9235   34.9044   41.4131 H   0  0  0  0  0  0  0  0  0  0  0  0
   37.7081   34.5992   38.9935 H   0  0  0  0  0  0  0  0  0  0  0  0
   38.6909   32.5732   37.9284 H   0  0  0  0  0  0  0  0  0  0  0  0
   39.8718   30.9018   39.3339 H   0  0  0  0  0  0  0  0  0  0  0  0
  1  2  2  0
  2 12  1  0
  3  2  1  0
  4  3  2  0
  5  4  1  0
  6  5  1  0
  7  6  2  0
  7  8  1  0
  8  9  2  0
  8  4  1  0
  9  1  1  0
 10 15  2  0
 11 10  1  0
 12 13  1  0
 12 11  2  0
 13 14  2  0
 14 15  1  0
 16  6  1  0
 17 18  2  0
 17 24  1  0
 18 16  1  0
 19 18  1  0
 20 19  2  0
 21 20  1  0
 21 22  2  0
 22 17  1  0
 24 23  3  0
  1 25  1  0
  3 26  1  0
  5 27  1  0
  9 28  1  0
 10 29  1  0
 11 30  1  0
 14 31  1  0
 19 32  1  0
 20 33  1  0
 21 34  1  0
 22 35  1  0
M  ISO  8  25  14  26  14  27   9  28  14  29  14  30  14  31  14  32  14
M  ISO  3  33  14  34  14  35  14
M  END
>  <minimizedAffinity>  (1) 
-5.66878223

>  <minimizedRMSD>  (1) 
1.59242725

$$$$
