
     RDKit          3D

 34 36  0  0  0  0  0  0  0  0999 V2000
   32.6600   27.6730   48.4940 C   0  0  0  0  0  0  0  0  0  0  0  0
   32.2100   26.6180   47.7490 C   0  0  0  0  0  0  0  0  0  0  0  0
   30.8870   26.3700   48.0210 C   0  0  0  0  0  0  0  0  0  0  0  0
   30.5470   27.2920   48.9420 N   0  0  0  0  0  0  0  0  0  0  0  0
   31.6060   28.0630   49.2190 N   0  0  0  0  0  0  0  0  0  0  0  0
   28.3330   28.3680   49.1180 C   0  0  0  0  0  0  0  0  0  0  0  0
   29.3100   27.5430   49.6140 C   0  0  0  0  0  0  0  0  0  0  0  0
   29.0410   26.9370   50.8430 C   0  0  0  0  0  0  0  0  0  0  0  0
   27.8850   27.1070   51.5760 C   0  0  0  0  0  0  0  0  0  0  0  0
   26.9190   27.9460   51.0460 C   0  0  0  0  0  0  0  0  0  0  0  0
   27.1640   28.5650   49.8200 C   0  0  0  0  0  0  0  0  0  0  0  0
   28.6560   29.5610   46.8710 N   0  0  0  0  0  0  0  0  0  0  0  0
   28.5220   29.0230   47.8800 C   0  0  0  0  0  0  0  0  0  0  0  0
   34.0480   28.2660   48.4950 C   0  0  0  0  0  0  0  0  0  0  0  0
   34.3940   28.4830   49.9460 C   0  0  0  0  0  0  0  0  0  0  0  0
   37.3710   30.1930   51.3100 C   0  0  0  0  0  0  0  0  0  0  0  0
   38.0510   30.5890   50.1450 C   0  0  0  0  0  0  0  0  0  0  0  0
   37.4790   30.2650   48.9120 C   0  0  0  0  0  0  0  0  0  0  0  0
   36.3010   29.5860   48.8910 N   0  0  0  0  0  0  0  0  0  0  0  0
   35.6830   29.2250   50.0450 C   0  0  0  0  0  0  0  0  0  0  0  0
   36.2210   29.5300   51.2250 N   0  0  0  0  0  0  0  0  0  0  0  0
   32.8213   26.0487   47.0333 H   0  0  0  0  0  0  0  0  0  0  0  0
   30.2463   25.5903   47.5832 H   0  0  0  0  0  0  0  0  0  0  0  0
   29.8117   26.2717   51.2593 H   0  0  0  0  0  0  0  0  0  0  0  0
   27.7368   26.5982   52.5399 H   0  0  0  0  0  0  0  0  0  0  0  0
   25.9748   28.1213   51.5825 H   0  0  0  0  0  0  0  0  0  0  0  0
   26.3979   29.2330   49.3995 H   0  0  0  0  0  0  0  0  0  0  0  0
   34.7628   27.5715   48.0293 H   0  0  0  0  0  0  0  0  0  0  0  0
   34.0909   29.2036   47.9213 H   0  0  0  0  0  0  0  0  0  0  0  0
   33.5969   29.0670   50.4294 H   0  0  0  0  0  0  0  0  0  0  0  0
   34.4924   27.5095   50.4486 H   0  0  0  0  0  0  0  0  0  0  0  0
   37.7923   30.4328   52.2974 H   0  0  0  0  0  0  0  0  0  0  0  0
   39.0033   31.1366   50.2023 H   0  0  0  0  0  0  0  0  0  0  0  0
   37.9738   30.5546   47.9732 H   0  0  0  0  0  0  0  0  0  0  0  0
  1 14  1  0
  1  5  2  0
  2  3  2  0
  2  1  1  0
  3  4  1  0
  4  5  1  0
  4  7  1  0
  6  7  2  0
  6 11  1  0
  7  8  1  0
  8  9  2  0
 10  9  1  0
 11 10  2  0
 12 13  3  0
 13  6  1  0
 14 15  1  0
 15 20  1  0
 17 16  2  0
 18 17  1  0
 19 18  2  0
 19 20  1  0
 20 21  2  0
 21 16  1  0
  2 22  1  0
  3 23  1  0
  8 24  1  0
  9 25  1  0
 10 26  1  0
 11 27  1  0
 14 28  1  0
 14 29  1  0
 15 30  1  0
 15 31  1  0
 16 32  1  0
 17 33  1  0
 18 34  1  0
M  ISO  8  22  14  23  14  24  14  25  14  26  14  27  14  28   8  29   8
M  ISO  5  30   8  31   8  32  14  33  14  34  14
M  END
>  <minimizedAffinity>  (1) 
-6.25282097

>  <minimizedRMSD>  (1) 
3.52209544

$$$$
