
     RDKit          3D

 43 46  0  0  1  0  0  0  0  0999 V2000
   32.1280   27.9110   48.2760 N   0  0  0  0  0  0  0  0  0  0  0  0
   32.7380   27.3950   47.0660 C   0  0  0  0  0  0  0  0  0  0  0  0
   34.1000   28.0270   47.0700 C   0  0  0  0  0  0  0  0  0  0  0  0
   34.0560   29.0750   48.2760 C   0  0  1  0  0  0  0  0  0  0  0  0
   33.2030   28.3280   49.1990 C   0  0  0  0  0  0  0  0  0  0  0  0
   35.9400   30.3810   46.5970 F   0  0  0  0  0  0  0  0  0  0  0  0
   36.2440   29.9940   47.8470 C   0  0  0  0  0  0  0  0  0  0  0  0
   35.4310   29.3160   48.7130 C   0  0  0  0  0  0  0  0  0  0  0  0
   35.9390   29.0010   49.9870 C   0  0  0  0  0  0  0  0  0  0  0  0
   37.2040   29.3510   50.3770 C   0  0  0  0  0  0  0  0  0  0  0  0
   38.0180   30.0420   49.4730 C   0  0  0  0  0  0  0  0  0  0  0  0
   37.5190   30.3600   48.1950 C   0  0  0  0  0  0  0  0  0  0  0  0
   38.6980   32.4120   47.6830 C   0  0  0  0  0  0  0  0  0  0  0  0
   38.4470   31.0800   47.3310 C   0  0  0  0  0  0  0  0  0  0  0  0
   39.0670   30.5220   46.2200 C   0  0  0  0  0  0  0  0  0  0  0  0
   39.9230   31.3250   45.4920 C   0  0  0  0  0  0  0  0  0  0  0  0
   40.1670   32.6340   45.8400 C   0  0  0  0  0  0  0  0  0  0  0  0
   39.5590   33.2050   46.9440 C   0  0  0  0  0  0  0  0  0  0  0  0
   37.5290   33.4660   49.7690 N   0  0  0  0  0  0  0  0  0  0  0  0
   38.0540   32.9970   48.8400 C   0  0  0  0  0  0  0  0  0  0  0  0
   30.7510   28.0180   48.5590 C   0  0  0  0  0  0  0  0  0  0  0  0
   29.9270   28.3530   47.4750 C   0  0  0  0  0  0  0  0  0  0  0  0
   28.5470   28.4840   47.6930 C   0  0  0  0  0  0  0  0  0  0  0  0
   28.1020   28.2680   48.9850 N   0  0  0  0  0  0  0  0  0  0  0  0
   28.9240   27.9500   49.9950 C   0  0  0  0  0  0  0  0  0  0  0  0
   30.2580   27.8230   49.7830 N   0  0  0  0  0  0  0  0  0  0  0  0
   32.1659   27.6971   46.1764 H   0  0  0  0  0  0  0  0  0  0  0  0
   32.7732   26.2960   47.0363 H   0  0  0  0  0  0  0  0  0  0  0  0
   34.8788   27.2695   47.2422 H   0  0  0  0  0  0  0  0  0  0  0  0
   34.3395   28.5068   46.1096 H   0  0  0  0  0  0  0  0  0  0  0  0
   33.6674   30.0886   48.0984 H   0  0  0  0  0  0  0  0  0  0  0  0
   32.8206   28.9667   50.0088 H   0  0  0  0  0  0  0  0  0  0  0  0
   33.7040   27.5042   49.7284 H   0  0  0  0  0  0  0  0  0  0  0  0
   35.2975   28.4546   50.6941 H   0  0  0  0  0  0  0  0  0  0  0  0
   37.5728   29.0940   51.3810 H   0  0  0  0  0  0  0  0  0  0  0  0
   39.0394   30.3345   49.7581 H   0  0  0  0  0  0  0  0  0  0  0  0
   38.8826   29.4770   45.9302 H   0  0  0  0  0  0  0  0  0  0  0  0
   40.4248   30.9057   44.6075 H   0  0  0  0  0  0  0  0  0  0  0  0
   40.8567   33.2362   45.2304 H   0  0  0  0  0  0  0  0  0  0  0  0
   39.7527   34.2509   47.2242 H   0  0  0  0  0  0  0  0  0  0  0  0
   30.3540   28.5100   46.4735 H   0  0  0  0  0  0  0  0  0  0  0  0
   27.8549   28.7449   46.8788 H   0  0  0  0  0  0  0  0  0  0  0  0
   28.5139   27.7908   51.0032 H   0  0  0  0  0  0  0  0  0  0  0  0
  1 21  1  0
  1  5  1  0
  2  3  1  0
  2  1  1  0
  3  4  1  0
  4  8  1  0
  4  5  1  0
  6  7  1  0
  7 12  2  0
  7  8  1  0
  8  9  2  0
  9 10  1  0
 11 10  2  0
 12 11  1  0
 13 20  1  0
 14 13  2  0
 14 12  1  0
 15 14  1  0
 16 17  1  0
 16 15  2  0
 17 18  2  0
 18 13  1  0
 20 19  3  0
 21 26  2  0
 22 23  2  0
 22 21  1  0
 23 24  1  0
 24 25  2  0
 26 25  1  0
  2 27  1  0
  2 28  1  0
  3 29  1  0
  3 30  1  0
  4 31  1  6
  5 32  1  0
  5 33  1  0
  9 34  1  0
 10 35  1  0
 11 36  1  0
 15 37  1  0
 16 38  1  0
 17 39  1  0
 18 40  1  0
 22 41  1  0
 23 42  1  0
 25 43  1  0
M  ISO  8  27  13  28  13  29  13  30  13  31  13  32  13  33  13  34  14
M  ISO  8  35  14  36  14  37  14  38  14  39  14  40  14  41  14  42  14
M  ISO  1  43  14
M  END
>  <minimizedAffinity>  (1) 
-7.37594795

>  <minimizedRMSD>  (1) 
3.42503881

$$$$
