
     RDKit          3D

 29 31  0  0  0  0  0  0  0  0999 V2000
   37.3920   31.0140   48.0610 C   0  0  0  0  0  0  0  0  0  0  0  0
   38.0740   32.0720   48.6250 C   0  0  0  0  0  0  0  0  0  0  0  0
   39.1240   32.7420   47.9870 C   0  0  0  0  0  0  0  0  0  0  0  0
   39.4690   32.3060   46.7520 N   0  0  0  0  0  0  0  0  0  0  0  0
   38.8060   31.2770   46.2030 C   0  0  0  0  0  0  0  0  0  0  0  0
   37.7920   30.6320   46.8230 N   0  0  0  0  0  0  0  0  0  0  0  0
   36.3470   29.9530   50.0860 C   0  0  0  0  0  0  0  0  0  0  0  0
   36.3120   30.3450   48.7480 C   0  0  0  0  0  0  0  0  0  0  0  0
   35.1440   30.0630   48.0350 C   0  0  0  0  0  0  0  0  0  0  0  0
   34.1220   29.4400   48.6530 N   0  0  0  0  0  0  0  0  0  0  0  0
   34.1990   29.0740   49.9680 C   0  0  0  0  0  0  0  0  0  0  0  0
   35.3270   29.3360   50.6850 N   0  0  0  0  0  0  0  0  0  0  0  0
   39.7470   31.6860   43.9530 C   0  0  0  0  0  0  0  0  0  0  0  0
   39.2010   30.8350   44.8800 C   0  0  0  0  0  0  0  0  0  0  0  0
   39.0610   29.5340   44.4450 C   0  0  0  0  0  0  0  0  0  0  0  0
   39.4210   29.0690   43.1990 C   0  0  0  0  0  0  0  0  0  0  0  0
   39.9750   29.9840   42.2960 C   0  0  0  0  0  0  0  0  0  0  0  0
   40.1340   31.2980   42.6870 C   0  0  0  0  0  0  0  0  0  0  0  0
   40.0900   34.2020   44.6070 N   0  0  0  0  0  0  0  0  0  0  0  0
   39.9320   33.0750   44.3240 C   0  0  0  0  0  0  0  0  0  0  0  0
   37.7767   32.4069   49.6297 H   0  0  0  0  0  0  0  0  0  0  0  0
   39.6450   33.5838   48.4664 H   0  0  0  0  0  0  0  0  0  0  0  0
   37.2541   30.1614   50.6723 H   0  0  0  0  0  0  0  0  0  0  0  0
   35.0596   30.3479   46.9759 H   0  0  0  0  0  0  0  0  0  0  0  0
   33.3487   28.5672   50.4477 H   0  0  0  0  0  0  0  0  0  0  0  0
   38.6270   28.8091   45.1494 H   0  0  0  0  0  0  0  0  0  0  0  0
   39.2778   28.0139   42.9230 H   0  0  0  0  0  0  0  0  0  0  0  0
   40.2791   29.6605   41.2896 H   0  0  0  0  0  0  0  0  0  0  0  0
   40.5673   32.0326   41.9923 H   0  0  0  0  0  0  0  0  0  0  0  0
  1  2  2  0
  1  8  1  0
  3  2  1  0
  4  3  2  0
  5  4  1  0
  5  6  2  0
  6  1  1  0
  7 12  2  0
  8  7  1  0
  9 10  1  0
  9  8  2  0
 10 11  2  0
 11 12  1  0
 13 20  1  0
 13 14  2  0
 14  5  1  0
 15 14  1  0
 16 15  2  0
 17 18  2  0
 17 16  1  0
 18 13  1  0
 20 19  3  0
  2 21  1  0
  3 22  1  0
  7 23  1  0
  9 24  1  0
 11 25  1  0
 15 26  1  0
 16 27  1  0
 17 28  1  0
 18 29  1  0
M  ISO  8  21  14  22  14  23  14  24  14  25  14  26  14  27  14  28  14
M  ISO  1  29  14
M  END
>  <minimizedAffinity>  (1) 
-5.52444458

>  <minimizedRMSD>  (1) 
1.61658001

$$$$
