
     RDKit          3D

 33 35  0  0  1  0  0  0  0  0999 V2000
   33.6190   29.8980   46.4960 N   0  0  0  0  0  0  0  0  0  0  0  0
   34.8360   29.5760   45.7660 C   0  0  0  0  0  0  0  0  0  0  0  0
   35.9230   29.9400   46.7590 C   0  0  0  0  0  0  0  0  0  0  0  0
   35.2210   30.5010   47.9730 C   0  0  1  0  0  0  0  0  0  0  0  0
   33.9300   29.7150   47.9180 C   0  0  0  0  0  0  0  0  0  0  0  0
   32.3740   30.3080   45.9400 C   0  0  0  0  0  0  0  0  0  0  0  0
   32.3600   31.4810   45.1960 C   0  0  0  0  0  0  0  0  0  0  0  0
   31.1390   31.8850   44.6470 C   0  0  0  0  0  0  0  0  0  0  0  0
   30.0310   31.0910   44.8810 N   0  0  0  0  0  0  0  0  0  0  0  0
   30.0970   29.9550   45.6140 C   0  0  0  0  0  0  0  0  0  0  0  0
   31.2830   29.5510   46.1550 N   0  0  0  0  0  0  0  0  0  0  0  0
   37.0890   30.9320   49.3740 C   0  0  0  0  0  0  0  0  0  0  0  0
   35.8700   30.2570   49.2540 C   0  0  0  0  0  0  0  0  0  0  0  0
   35.5000   29.4970   50.3420 C   0  0  0  0  0  0  0  0  0  0  0  0
   36.2720   29.4000   51.4790 C   0  0  0  0  0  0  0  0  0  0  0  0
   37.4570   30.0620   51.5830 C   0  0  0  0  0  0  0  0  0  0  0  0
   37.8630   30.8250   50.5330 C   0  0  0  0  0  0  0  0  0  0  0  0
   38.0800   32.4430   47.5210 N   0  0  0  0  0  0  0  0  0  0  0  0
   37.6490   31.7750   48.3490 C   0  0  0  0  0  0  0  0  0  0  0  0
   34.8742   28.5070   45.5095 H   0  0  0  0  0  0  0  0  0  0  0  0
   34.9242   30.1066   44.8065 H   0  0  0  0  0  0  0  0  0  0  0  0
   36.5022   29.0461   47.0337 H   0  0  0  0  0  0  0  0  0  0  0  0
   36.6254   30.6706   46.3314 H   0  0  0  0  0  0  0  0  0  0  0  0
   35.1622   31.5987   47.9322 H   0  0  0  0  0  0  0  0  0  0  0  0
   33.1554   30.1456   48.5696 H   0  0  0  0  0  0  0  0  0  0  0  0
   33.9930   28.6717   48.2610 H   0  0  0  0  0  0  0  0  0  0  0  0
   33.2761   32.0707   45.0442 H   0  0  0  0  0  0  0  0  0  0  0  0
   31.0622   32.8046   44.0483 H   0  0  0  0  0  0  0  0  0  0  0  0
   29.1897   29.3541   45.7745 H   0  0  0  0  0  0  0  0  0  0  0  0
   34.5493   28.9451   50.3012 H   0  0  0  0  0  0  0  0  0  0  0  0
   35.9251   28.7772   52.3167 H   0  0  0  0  0  0  0  0  0  0  0  0
   38.0702   29.9818   52.4927 H   0  0  0  0  0  0  0  0  0  0  0  0
   38.8177   31.3677   50.5969 H   0  0  0  0  0  0  0  0  0  0  0  0
  1  5  1  0
  2  1  1  0
  2  3  1  0
  3  4  1  0
  4 13  1  0
  5  4  1  0
  6 11  1  0
  6  1  1  0
  7  6  2  0
  8  9  2  0
  8  7  1  0
  9 10  1  0
 10 11  2  0
 12 17  2  0
 13 12  1  0
 13 14  2  0
 14 15  1  0
 15 16  2  0
 17 16  1  0
 18 19  3  0
 19 12  1  0
  2 20  1  0
  2 21  1  0
  3 22  1  0
  3 23  1  0
  4 24  1  6
  5 25  1  0
  5 26  1  0
  7 27  1  0
  8 28  1  0
 10 29  1  0
 14 30  1  0
 15 31  1  0
 16 32  1  0
 17 33  1  0
M  ISO  8  20  13  21  13  22  13  23  13  24  13  25  13  26  13  27  14
M  ISO  6  28  14  29  14  30  14  31  14  32  14  33  14
M  END
>  <minimizedAffinity>  (1) 
-5.30081511

>  <minimizedRMSD>  (1) 
4.23472929

$$$$
