
     RDKit          3D

 43 46  0  0  1  0  0  0  0  0999 V2000
   38.2510   32.4370   46.4890 O   0  0  0  0  0  0  0  0  0  0  0  0
   38.9300   32.4770   47.6570 C   0  0  2  0  0  0  0  0  0  0  0  0
   37.9820   32.6330   48.8890 C   0  0  2  0  0  0  0  0  0  0  0  0
   38.8690   33.2880   49.8380 C   0  0  0  0  0  0  0  0  0  0  0  0
   39.6940   34.1540   49.1330 O   0  0  0  0  0  0  0  0  0  0  0  0
   39.5870   33.8770   47.8140 C   0  0  0  0  0  0  0  0  0  0  0  0
   37.3430   29.2960   50.5050 C   0  0  0  0  0  0  0  0  0  0  0  0
   38.0000   30.5170   50.1850 C   0  0  0  0  0  0  0  0  0  0  0  0
   37.3610   31.3860   49.2590 C   0  0  0  0  0  0  0  0  0  0  0  0
   36.1520   31.0150   48.7180 N   0  0  0  0  0  0  0  0  0  0  0  0
   35.5740   29.8550   49.0500 C   0  0  0  0  0  0  0  0  0  0  0  0
   36.1440   28.9930   49.9290 N   0  0  0  0  0  0  0  0  0  0  0  0
   40.5420   32.1320   44.4490 Cl  0  0  0  0  0  0  0  0  0  0  0  0
   39.0090   31.2900   44.3920 C   0  0  0  0  0  0  0  0  0  0  0  0
   38.1560   31.6080   45.4300 C   0  0  0  0  0  0  0  0  0  0  0  0
   36.9390   30.9430   45.3910 C   0  0  0  0  0  0  0  0  0  0  0  0
   36.5980   30.0440   44.4100 C   0  0  0  0  0  0  0  0  0  0  0  0
   37.5110   29.7800   43.4050 C   0  0  0  0  0  0  0  0  0  0  0  0
   38.7500   30.4050   43.3730 C   0  0  0  0  0  0  0  0  0  0  0  0
   39.8950   31.0340   41.2540 C   0  0  0  0  0  0  0  0  0  0  0  0
   39.7830   30.2010   42.3640 C   0  0  0  0  0  0  0  0  0  0  0  0
   40.6970   29.1760   42.4610 C   0  0  0  0  0  0  0  0  0  0  0  0
   41.7040   28.9110   41.5560 C   0  0  0  0  0  0  0  0  0  0  0  0
   41.7860   29.7520   40.4720 C   0  0  0  0  0  0  0  0  0  0  0  0
   40.8930   30.7920   40.3320 C   0  0  0  0  0  0  0  0  0  0  0  0
   38.1800   32.9790   41.0200 N   0  0  0  0  0  0  0  0  0  0  0  0
   38.9430   32.1180   41.1340 C   0  0  0  0  0  0  0  0  0  0  0  0
   39.5649   31.5790   47.6335 H   0  0  0  0  0  0  0  0  0  0  0  0
   37.0694   33.2309   48.7491 H   0  0  0  0  0  0  0  0  0  0  0  0
   38.2766   33.8532   50.5726 H   0  0  0  0  0  0  0  0  0  0  0  0
   39.4719   32.5400   50.3737 H   0  0  0  0  0  0  0  0  0  0  0  0
   40.5859   33.8721   47.3534 H   0  0  0  0  0  0  0  0  0  0  0  0
   38.9711   34.6408   47.3167 H   0  0  0  0  0  0  0  0  0  0  0  0
   37.8025   28.5955   51.2178 H   0  0  0  0  0  0  0  0  0  0  0  0
   38.9676   30.7790   50.6379 H   0  0  0  0  0  0  0  0  0  0  0  0
   34.6070   29.5921   48.5964 H   0  0  0  0  0  0  0  0  0  0  0  0
   36.2085   31.1464   46.1878 H   0  0  0  0  0  0  0  0  0  0  0  0
   35.6183   29.5440   44.4234 H   0  0  0  0  0  0  0  0  0  0  0  0
   37.2499   29.0602   42.6152 H   0  0  0  0  0  0  0  0  0  0  0  0
   40.6176   28.5119   43.3343 H   0  0  0  0  0  0  0  0  0  0  0  0
   42.4028   28.0728   41.6944 H   0  0  0  0  0  0  0  0  0  0  0  0
   42.5671   29.5943   39.7137 H   0  0  0  0  0  0  0  0  0  0  0  0
   40.9784   31.4516   39.4558 H   0  0  0  0  0  0  0  0  0  0  0  0
  1  2  1  0
  2  6  1  0
  2  3  1  0
  3  9  1  0
  3  4  1  0
  5  4  1  0
  6  5  1  0
  8  7  2  0
  9  8  1  0
 10 11  1  0
 10  9  2  0
 11 12  2  0
 12  7  1  0
 14 13  1  0
 14 15  2  0
 15  1  1  0
 16 15  1  0
 17 16  2  0
 18 17  1  0
 19 18  2  0
 19 14  1  0
 20 21  2  0
 21 22  1  0
 21 19  1  0
 23 22  2  0
 24 23  1  0
 25 24  2  0
 25 20  1  0
 26 27  3  0
 27 20  1  0
  2 28  1  1
  3 29  1  6
  4 30  1  0
  4 31  1  0
  6 32  1  0
  6 33  1  0
  7 34  1  0
  8 35  1  0
 11 36  1  0
 16 37  1  0
 17 38  1  0
 18 39  1  0
 22 40  1  0
 23 41  1  0
 24 42  1  0
 25 43  1  0
M  ISO  8  28  13  29  13  30  13  31  13  32  13  33  13  34  14  35  14
M  ISO  8  36  14  37  14  38  14  39  14  40  14  41  14  42  14  43  14
M  END
>  <minimizedAffinity>  (1) 
-6.2312789

>  <minimizedRMSD>  (1) 
1.47617829

$$$$
