
     RDKit          3D

 37 39  0  0  0  0  0  0  0  0999 V2000
   36.8120   29.3910   44.2020 Cl  0  0  0  0  0  0  0  0  0  0  0  0
   38.4670   29.8160   43.7010 C   0  0  0  0  0  0  0  0  0  0  0  0
   39.4190   30.3750   44.5650 C   0  0  0  0  0  0  0  0  0  0  0  0
   40.6620   30.6510   44.0280 C   0  0  0  0  0  0  0  0  0  0  0  0
   40.9500   30.3870   42.7040 C   0  0  0  0  0  0  0  0  0  0  0  0
   40.0290   29.8430   41.8590 C   0  0  0  0  0  0  0  0  0  0  0  0
   38.7950   29.5630   42.3700 C   0  0  0  0  0  0  0  0  0  0  0  0
   37.7050   27.5840   41.4200 C   0  0  0  0  0  0  0  0  0  0  0  0
   37.8050   28.9760   41.4490 C   0  0  0  0  0  0  0  0  0  0  0  0
   37.0170   29.7800   40.6540 C   0  0  0  0  0  0  0  0  0  0  0  0
   36.0960   29.2180   39.7980 C   0  0  0  0  0  0  0  0  0  0  0  0
   35.9870   27.8420   39.7600 C   0  0  0  0  0  0  0  0  0  0  0  0
   36.7610   27.0410   40.5420 C   0  0  0  0  0  0  0  0  0  0  0  0
   39.2040   26.0930   42.9390 N   0  0  0  0  0  0  0  0  0  0  0  0
   38.5490   26.7590   42.2710 C   0  0  0  0  0  0  0  0  0  0  0  0
   38.9420   30.5570   45.8250 O   0  0  0  0  0  0  0  0  0  0  0  0
   39.3920   32.6740   47.2410 O   0  0  0  0  0  0  0  0  0  0  0  0
   38.3110   31.9420   46.5370 P   0  0  1  0  0  0  0  0  0  0  0  0
   37.7150   32.8740   45.2340 O   0  0  0  0  0  0  0  0  0  0  0  0
   37.0150   31.4990   47.5470 O   0  0  0  0  0  0  0  0  0  0  0  0
   37.5100   30.5180   51.0760 C   0  0  0  0  0  0  0  0  0  0  0  0
   37.6120   31.3350   49.9320 C   0  0  0  0  0  0  0  0  0  0  0  0
   37.0390   30.8930   48.7440 C   0  0  0  0  0  0  0  0  0  0  0  0
   36.4030   29.6790   48.7520 N   0  0  0  0  0  0  0  0  0  0  0  0
   36.3290   28.9340   49.8630 C   0  0  0  0  0  0  0  0  0  0  0  0
   36.8790   29.3510   51.0190 N   0  0  0  0  0  0  0  0  0  0  0  0
   41.4394   31.0909   44.6700 H   0  0  0  0  0  0  0  0  0  0  0  0
   41.9532   30.6228   42.3192 H   0  0  0  0  0  0  0  0  0  0  0  0
   40.2712   29.6376   40.8058 H   0  0  0  0  0  0  0  0  0  0  0  0
   37.1240   30.8737   40.7033 H   0  0  0  0  0  0  0  0  0  0  0  0
   35.4620   29.8506   39.1594 H   0  0  0  0  0  0  0  0  0  0  0  0
   35.2555   27.3812   39.0799 H   0  0  0  0  0  0  0  0  0  0  0  0
   36.6424   25.9490   40.4827 H   0  0  0  0  0  0  0  0  0  0  0  0
   37.2166   33.6534   45.5865 H   0  0  0  0  0  0  0  0  0  0  0  0
   37.9571   30.8501   52.0246 H   0  0  0  0  0  0  0  0  0  0  0  0
   38.1340   32.3022   49.9777 H   0  0  0  0  0  0  0  0  0  0  0  0
   35.8099   27.9648   49.8302 H   0  0  0  0  0  0  0  0  0  0  0  0
  2  1  1  0
  2  3  2  0
  3 16  1  0
  4  3  1  0
  5  4  2  0
  6  7  2  0
  6  5  1  0
  7  2  1  0
  8  9  2  0
  8 15  1  0
  9  7  1  0
 10  9  1  0
 11 10  2  0
 12 11  1  0
 12 13  2  0
 13  8  1  0
 15 14  3  0
 16 18  1  0
 18 17  2  0
 18 20  1  0
 19 18  1  0
 20 23  1  0
 22 21  2  0
 23 24  2  0
 23 22  1  0
 24 25  1  0
 25 26  2  0
 26 21  1  0
  4 27  1  0
  5 28  1  0
  6 29  1  0
 10 30  1  0
 11 31  1  0
 12 32  1  0
 13 33  1  0
 19 34  1  0
 21 35  1  0
 22 36  1  0
 25 37  1  0
M  ISO  8  27  14  28  14  29  14  30  14  31  14  32  14  33  14  34   3
M  ISO  3  35  14  36  14  37  14
M  END
>  <minimizedAffinity>  (1) 
-4.87490988

>  <minimizedRMSD>  (1) 
0.561522603

$$$$
