
     RDKit          3D

 37 40  0  0  0  0  0  0  0  0999 V2000
   37.3070   29.9410   50.4760 C   0  0  0  0  0  0  0  0  0  0  0  0
   38.2560   30.5760   49.6770 C   0  0  0  0  0  0  0  0  0  0  0  0
   37.9410   30.7100   48.3470 C   0  0  0  0  0  0  0  0  0  0  0  0
   36.7660   30.2310   47.9300 N   0  0  0  0  0  0  0  0  0  0  0  0
   35.8450   29.6270   48.6580 C   0  0  0  0  0  0  0  0  0  0  0  0
   36.1840   29.5130   49.9350 N   0  0  0  0  0  0  0  0  0  0  0  0
   34.5340   29.0720   48.3510 C   0  0  0  0  0  0  0  0  0  0  0  0
   33.7890   28.4060   49.2710 N   0  0  0  0  0  0  0  0  0  0  0  0
   32.5850   27.9200   48.9720 C   0  0  0  0  0  0  0  0  0  0  0  0
   31.9980   28.0310   47.7750 N   0  0  0  0  0  0  0  0  0  0  0  0
   32.6810   28.6820   46.8100 C   0  0  0  0  0  0  0  0  0  0  0  0
   32.0840   28.7980   45.5850 C   0  0  0  0  0  0  0  0  0  0  0  0
   32.7390   29.4540   44.5650 C   0  0  0  0  0  0  0  0  0  0  0  0
   33.9960   29.9690   44.8540 C   0  0  0  0  0  0  0  0  0  0  0  0
   34.5470   29.8220   46.1020 C   0  0  0  0  0  0  0  0  0  0  0  0
   33.9170   29.1760   47.1320 C   0  0  0  0  0  0  0  0  0  0  0  0
   39.2760   32.5940   47.3160 C   0  0  0  0  0  0  0  0  0  0  0  0
   38.7150   31.3540   47.3200 C   0  0  0  0  0  0  0  0  0  0  0  0
   39.0040   30.6690   46.1420 C   0  0  0  0  0  0  0  0  0  0  0  0
   39.7520   31.1600   45.1000 C   0  0  0  0  0  0  0  0  0  0  0  0
   40.2820   32.4160   45.1660 C   0  0  0  0  0  0  0  0  0  0  0  0
   40.0330   33.1440   46.3060 C   0  0  0  0  0  0  0  0  0  0  0  0
   39.0640   34.1140   49.4130 N   0  0  0  0  0  0  0  0  0  0  0  0
   39.1480   33.4280   48.4690 C   0  0  0  0  0  0  0  0  0  0  0  0
   37.5300   29.7410   51.8940 N   0  0  0  0  0  0  0  0  0  0  0  0
   39.2052   30.9493   50.0890 H   0  0  0  0  0  0  0  0  0  0  0  0
   32.0355   27.3907   49.7644 H   0  0  0  0  0  0  0  0  0  0  0  0
   31.0853   28.3696   45.4145 H   0  0  0  0  0  0  0  0  0  0  0  0
   32.2871   29.5645   43.5682 H   0  0  0  0  0  0  0  0  0  0  0  0
   34.5572   30.5017   44.0722 H   0  0  0  0  0  0  0  0  0  0  0  0
   35.5460   30.2447   46.2844 H   0  0  0  0  0  0  0  0  0  0  0  0
   38.5999   29.6512   46.0378 H   0  0  0  0  0  0  0  0  0  0  0  0
   39.9246   30.5386   44.2089 H   0  0  0  0  0  0  0  0  0  0  0  0
   40.8829   32.8286   44.3422 H   0  0  0  0  0  0  0  0  0  0  0  0
   40.4371   34.1617   46.4104 H   0  0  0  0  0  0  0  0  0  0  0  0
   36.8153   29.2692   52.4662 H   0  0  0  0  0  0  0  0  0  0  0  0
   38.4032   30.0707   52.3295 H   0  0  0  0  0  0  0  0  0  0  0  0
  1 25  1  0
  2  1  2  0
  3  2  1  0
  4  3  2  0
  4  5  1  0
  5  6  2  0
  6  1  1  0
  7  5  1  0
  7  8  2  0
  9  8  1  0
 10  9  2  0
 11 16  2  0
 11 10  1  0
 12 11  1  0
 13 14  1  0
 13 12  2  0
 14 15  2  0
 15 16  1  0
 16  7  1  0
 17 18  2  0
 17 24  1  0
 18  3  1  0
 19 18  1  0
 20 21  1  0
 20 19  2  0
 21 22  2  0
 22 17  1  0
 24 23  3  0
  2 26  1  0
  9 27  1  0
 12 28  1  0
 13 29  1  0
 14 30  1  0
 15 31  1  0
 19 32  1  0
 20 33  1  0
 21 34  1  0
 22 35  1  0
 25 36  1  0
 25 37  1  0
M  ISO  8  26  14  27  14  28  14  29  14  30  14  31  14  32  14  33  14
M  ISO  2  34  14  35  14
M  END
>  <minimizedAffinity>  (1) 
-7.1607914

>  <minimizedRMSD>  (1) 
1.50592244

$$$$
