
     RDKit          3D

 33 35  0  0  1  0  0  0  0  0999 V2000
   34.3060   29.2240   47.2830 N   0  0  0  0  0  0  0  0  0  0  0  0
   35.5080   29.9370   46.9300 C   0  0  0  0  0  0  0  0  0  0  0  0
   36.3830   29.7660   48.1550 C   0  0  2  0  0  0  0  0  0  0  0  0
   35.5200   29.0700   49.1880 C   0  0  0  0  0  0  0  0  0  0  0  0
   34.6880   28.1950   48.2450 C   0  0  0  0  0  0  0  0  0  0  0  0
   32.9940   29.4620   46.7980 C   0  0  0  0  0  0  0  0  0  0  0  0
   32.8140   30.6240   46.0220 C   0  0  0  0  0  0  0  0  0  0  0  0
   31.5320   30.8930   45.5260 C   0  0  0  0  0  0  0  0  0  0  0  0
   30.5330   30.0000   45.8300 N   0  0  0  0  0  0  0  0  0  0  0  0
   30.7530   28.8960   46.5780 C   0  0  0  0  0  0  0  0  0  0  0  0
   31.9980   28.6300   47.0650 N   0  0  0  0  0  0  0  0  0  0  0  0
   38.0430   31.5520   47.9060 C   0  0  0  0  0  0  0  0  0  0  0  0
   36.9710   31.0250   48.6210 C   0  0  0  0  0  0  0  0  0  0  0  0
   36.5790   31.7730   49.7160 C   0  0  0  0  0  0  0  0  0  0  0  0
   37.1990   32.9520   50.0770 C   0  0  0  0  0  0  0  0  0  0  0  0
   38.2530   33.4230   49.3320 C   0  0  0  0  0  0  0  0  0  0  0  0
   38.7050   32.7240   48.2150 C   0  0  0  0  0  0  0  0  0  0  0  0
   38.9170   30.2750   45.8020 N   0  0  0  0  0  0  0  0  0  0  0  0
   38.5250   30.8310   46.7370 C   0  0  0  0  0  0  0  0  0  0  0  0
   35.9824   29.4951   46.0414 H   0  0  0  0  0  0  0  0  0  0  0  0
   35.3253   30.9910   46.6735 H   0  0  0  0  0  0  0  0  0  0  0  0
   37.2700   29.1564   47.9277 H   0  0  0  0  0  0  0  0  0  0  0  0
   36.1178   28.4696   49.8895 H   0  0  0  0  0  0  0  0  0  0  0  0
   34.9459   29.7326   49.8524 H   0  0  0  0  0  0  0  0  0  0  0  0
   33.8157   27.7538   48.7494 H   0  0  0  0  0  0  0  0  0  0  0  0
   35.2018   27.3162   47.8283 H   0  0  0  0  0  0  0  0  0  0  0  0
   33.6557   31.3003   45.8118 H   0  0  0  0  0  0  0  0  0  0  0  0
   31.3324   31.7861   44.9157 H   0  0  0  0  0  0  0  0  0  0  0  0
   29.9225   28.2081   46.7950 H   0  0  0  0  0  0  0  0  0  0  0  0
   35.7370   31.4129   50.3254 H   0  0  0  0  0  0  0  0  0  0  0  0
   36.8508   33.5122   50.9573 H   0  0  0  0  0  0  0  0  0  0  0  0
   38.7457   34.3631   49.6210 H   0  0  0  0  0  0  0  0  0  0  0  0
   39.5478   33.0877   47.6089 H   0  0  0  0  0  0  0  0  0  0  0  0
  1  5  1  0
  2  1  1  0
  2  3  1  0
  3 13  1  0
  3  4  1  0
  5  4  1  0
  6 11  1  0
  6  1  1  0
  7  6  2  0
  8  9  2  0
  8  7  1  0
  9 10  1  0
 10 11  2  0
 12 17  2  0
 12 13  1  0
 13 14  2  0
 14 15  1  0
 16 15  2  0
 17 16  1  0
 18 19  3  0
 19 12  1  0
  2 20  1  0
  2 21  1  0
  3 22  1  6
  4 23  1  0
  4 24  1  0
  5 25  1  0
  5 26  1  0
  7 27  1  0
  8 28  1  0
 10 29  1  0
 14 30  1  0
 15 31  1  0
 16 32  1  0
 17 33  1  0
M  ISO  8  20  13  21  13  22  13  23  13  24  13  25  13  26  13  27  14
M  ISO  6  28  14  29  14  30  14  31  14  32  14  33  14
M  END
>  <minimizedAffinity>  (1) 
-5.37671423

>  <minimizedRMSD>  (1) 
2.88637018

$$$$
