
     RDKit          3D

 41 44  0  0  0  0  0  0  0  0999 V2000
   36.8880   32.6410   43.4740 Cl  0  0  0  0  0  0  0  0  0  0  0  0
   37.8150   31.1770   43.1680 C   0  0  0  0  0  0  0  0  0  0  0  0
   38.5560   30.7070   44.2400 C   0  0  0  0  0  0  0  0  0  0  0  0
   39.3300   29.5490   44.1060 C   0  0  0  0  0  0  0  0  0  0  0  0
   39.3540   28.8670   42.8900 C   0  0  0  0  0  0  0  0  0  0  0  0
   38.6100   29.3570   41.8470 C   0  0  0  0  0  0  0  0  0  0  0  0
   37.8410   30.5060   41.9770 C   0  0  0  0  0  0  0  0  0  0  0  0
   38.6830   32.9480   49.7670 Cl  0  0  0  0  0  0  0  0  0  0  0  0
   38.6350   32.2790   48.1530 C   0  0  0  0  0  0  0  0  0  0  0  0
   37.8900   31.1670   47.8610 C   0  0  0  0  0  0  0  0  0  0  0  0
   37.9060   30.7040   46.5690 C   0  0  0  0  0  0  0  0  0  0  0  0
   38.6320   31.3090   45.5730 C   0  0  0  0  0  0  0  0  0  0  0  0
   39.3850   32.4450   45.9000 C   0  0  0  0  0  0  0  0  0  0  0  0
   40.2910   33.1790   44.6070 Cl  0  0  0  0  0  0  0  0  0  0  0  0
   39.3880   32.9300   47.1850 C   0  0  0  0  0  0  0  0  0  0  0  0
   37.0290   29.3620   51.0850 C   0  0  0  0  0  0  0  0  0  0  0  0
   37.7780   29.9280   50.0370 C   0  0  0  0  0  0  0  0  0  0  0  0
   37.1300   30.5620   48.9750 C   0  0  0  0  0  0  0  0  0  0  0  0
   35.7630   30.6040   49.0040 N   0  0  0  0  0  0  0  0  0  0  0  0
   35.0910   30.0460   50.0320 C   0  0  0  0  0  0  0  0  0  0  0  0
   35.7030   29.4390   51.0480 N   0  0  0  0  0  0  0  0  0  0  0  0
   35.7090   30.7550   40.6600 C   0  0  0  0  0  0  0  0  0  0  0  0
   37.0540   31.0300   40.8850 C   0  0  0  0  0  0  0  0  0  0  0  0
   37.7500   31.8720   40.0200 C   0  0  0  0  0  0  0  0  0  0  0  0
   37.0830   32.4220   38.9470 C   0  0  0  0  0  0  0  0  0  0  0  0
   35.7500   32.1430   38.7350 C   0  0  0  0  0  0  0  0  0  0  0  0
   35.0260   31.3060   39.5800 C   0  0  0  0  0  0  0  0  0  0  0  0
   34.5850   29.1550   42.3580 N   0  0  0  0  0  0  0  0  0  0  0  0
   35.0760   29.8700   41.6130 C   0  0  0  0  0  0  0  0  0  0  0  0
   39.9182   29.1775   44.9580 H   0  0  0  0  0  0  0  0  0  0  0  0
   39.9571   27.9550   42.7697 H   0  0  0  0  0  0  0  0  0  0  0  0
   38.6228   28.8265   40.8835 H   0  0  0  0  0  0  0  0  0  0  0  0
   37.3127   29.8114   46.3213 H   0  0  0  0  0  0  0  0  0  0  0  0
   39.9785   33.8214   47.4435 H   0  0  0  0  0  0  0  0  0  0  0  0
   37.5347   28.8621   51.9243 H   0  0  0  0  0  0  0  0  0  0  0  0
   38.8764   29.8709   50.0543 H   0  0  0  0  0  0  0  0  0  0  0  0
   33.9921   30.0941   50.0314 H   0  0  0  0  0  0  0  0  0  0  0  0
   38.8138   32.0939   40.1908 H   0  0  0  0  0  0  0  0  0  0  0  0
   37.6182   33.0885   38.2547 H   0  0  0  0  0  0  0  0  0  0  0  0
   35.2420   32.5959   37.8708 H   0  0  0  0  0  0  0  0  0  0  0  0
   33.9622   31.0901   39.4019 H   0  0  0  0  0  0  0  0  0  0  0  0
  2  1  1  0
  2  3  2  0
  3 12  1  0
  4  3  1  0
  5  4  2  0
  6  7  2  0
  6  5  1  0
  7  2  1  0
  9  8  1  0
 10  9  2  0
 10 18  1  0
 11 10  1  0
 12 13  1  0
 12 11  2  0
 13 15  2  0
 14 13  1  0
 15  9  1  0
 17 16  2  0
 18 19  2  0
 18 17  1  0
 19 20  1  0
 20 21  2  0
 21 16  1  0
 22 23  2  0
 22 29  1  0
 23  7  1  0
 24 23  1  0
 25 24  2  0
 26 25  1  0
 26 27  2  0
 27 22  1  0
 29 28  3  0
  4 30  1  0
  5 31  1  0
  6 32  1  0
 11 33  1  0
 15 34  1  0
 16 35  1  0
 17 36  1  0
 20 37  1  0
 24 38  1  0
 25 39  1  0
 26 40  1  0
 27 41  1  0
M  ISO  8  30  14  31  14  32  14  33  14  34  14  35  14  36  14  37  14
M  ISO  4  38  14  39  14  40  14  41  14
M  END
>  <minimizedAffinity>  (1) 
-6.17594194

>  <minimizedRMSD>  (1) 
0.788355052

$$$$
