
     RDKit          3D

 43 46  0  0  1  0  0  0  0  0999 V2000
   39.1720   31.4180   43.3430 C   0  0  0  0  0  0  0  0  0  0  0  0
   40.1980   30.5210   43.5240 C   0  0  0  0  0  0  0  0  0  0  0  0
   40.9210   30.1520   42.3990 C   0  0  0  0  0  0  0  0  0  0  0  0
   40.5780   30.6900   41.1900 C   0  0  0  0  0  0  0  0  0  0  0  0
   39.5480   31.5860   41.0130 C   0  0  0  0  0  0  0  0  0  0  0  0
   38.8610   31.9290   42.1300 N   0  0  0  0  0  0  0  0  0  0  0  0
   38.3890   31.8470   44.5320 C   0  0  0  0  0  0  0  0  0  0  0  0
   37.3190   32.4530   44.4200 O   0  0  0  0  0  0  0  0  0  0  0  0
   38.9390   31.5200   45.8370 N   0  0  0  0  0  0  0  0  0  0  0  0
   38.4130   31.0750   48.2290 C   0  0  2  0  0  0  0  0  0  0  0  0
   38.6620   32.5350   48.1070 C   0  0  0  0  0  0  0  0  0  0  0  0
   38.0570   31.6610   46.9770 C   0  0  1  0  0  0  0  0  0  0  0  0
   35.0530   30.2120   49.5370 C   0  0  0  0  0  0  0  0  0  0  0  0
   35.3780   29.5800   50.7720 C   0  0  0  0  0  0  0  0  0  0  0  0
   36.7540   29.4720   51.1420 C   0  0  0  0  0  0  0  0  0  0  0  0
   37.7200   29.9750   50.3040 N   0  0  0  0  0  0  0  0  0  0  0  0
   37.3330   30.5630   49.1420 C   0  0  0  0  0  0  0  0  0  0  0  0
   36.0130   30.7010   48.7240 N   0  0  0  0  0  0  0  0  0  0  0  0
   39.1590   32.1330   39.7080 C   0  0  0  0  0  0  0  0  0  0  0  0
   39.9680   31.9830   38.7300 O   0  0  0  0  0  0  0  0  0  0  0  0
   36.8450   32.0950   39.0020 C   0  0  0  0  0  0  0  0  0  0  0  0
   38.0020   32.8570   39.2220 C   0  0  0  0  0  0  0  0  0  0  0  0
   37.8280   34.1840   38.9310 C   0  0  0  0  0  0  0  0  0  0  0  0
   36.6760   34.7720   38.4710 C   0  0  0  0  0  0  0  0  0  0  0  0
   35.6020   33.9520   38.2870 C   0  0  0  0  0  0  0  0  0  0  0  0
   35.6240   32.5980   38.5360 C   0  0  0  0  0  0  0  0  0  0  0  0
   36.8940   29.5150   39.4900 N   0  0  0  0  0  0  0  0  0  0  0  0
   36.8660   30.6640   39.2650 C   0  0  0  0  0  0  0  0  0  0  0  0
   40.4354   30.1135   44.5178 H   0  0  0  0  0  0  0  0  0  0  0  0
   41.7552   29.4394   42.4784 H   0  0  0  0  0  0  0  0  0  0  0  0
   41.1596   30.3891   40.3061 H   0  0  0  0  0  0  0  0  0  0  0  0
   39.9126   31.2022   45.9462 H   0  0  0  0  0  0  0  0  0  0  0  0
   39.0562   30.2287   48.5121 H   0  0  0  0  0  0  0  0  0  0  0  0
   38.0373   33.2578   48.6522 H   0  0  0  0  0  0  0  0  0  0  0  0
   39.5206   33.2130   48.2219 H   0  0  0  0  0  0  0  0  0  0  0  0
   37.1377   31.6201   46.3744 H   0  0  0  0  0  0  0  0  0  0  0  0
   33.9978   30.3033   49.2400 H   0  0  0  0  0  0  0  0  0  0  0  0
   34.5872   29.1840   51.4261 H   0  0  0  0  0  0  0  0  0  0  0  0
   37.0375   28.9904   52.0894 H   0  0  0  0  0  0  0  0  0  0  0  0
   38.6961   34.8429   39.0805 H   0  0  0  0  0  0  0  0  0  0  0  0
   36.6219   35.8505   38.2613 H   0  0  0  0  0  0  0  0  0  0  0  0
   34.6658   34.3972   37.9191 H   0  0  0  0  0  0  0  0  0  0  0  0
   34.7442   31.9564   38.3798 H   0  0  0  0  0  0  0  0  0  0  0  0
  1  2  2  0
  1  7  1  0
  3  2  1  0
  4  3  2  0
  5  4  1  0
  5  6  2  0
  6  1  1  0
  7  9  1  0
  8  7  2  0
  9 12  1  0
 10 17  1  0
 11 10  1  0
 12 11  1  0
 12 10  1  0
 13 14  2  0
 14 15  1  0
 16 15  2  0
 17 16  1  0
 18 17  2  0
 18 13  1  0
 19  5  1  0
 20 19  2  0
 21 22  2  0
 21 28  1  0
 22 19  1  0
 23 22  1  0
 24 23  2  0
 25 24  1  0
 25 26  2  0
 26 21  1  0
 28 27  3  0
  2 29  1  0
  3 30  1  0
  4 31  1  0
  9 32  1  0
 10 33  1  6
 11 34  1  0
 11 35  1  0
 12 36  1  6
 13 37  1  0
 14 38  1  0
 15 39  1  0
 23 40  1  0
 24 41  1  0
 25 42  1  0
 26 43  1  0
M  ISO  8  29  14  30  14  31  14  33  13  34  13  35  13  36  13  37  14
M  ISO  6  38  14  39  14  40  14  41  14  42  14  43  14
M  END
>  <minimizedAffinity>  (1) 
-4.95428276

>  <minimizedRMSD>  (1) 
2.11389613

$$$$
