
     RDKit          3D

 26 27  0  0  0  0  0  0  0  0999 V2000
   35.0310   30.0560   49.8060 C   0  0  0  0  0  0  0  0  0  0  0  0
   36.7840   29.6410   49.9250 S   0  0  0  0  0  0  0  0  0  0  0  0
   37.7110   30.8560   48.9920 C   0  0  0  0  0  0  0  0  0  0  0  0
   37.9040   32.0680   49.6400 C   0  0  0  0  0  0  0  0  0  0  0  0
   38.6200   33.0500   48.9600 C   0  0  0  0  0  0  0  0  0  0  0  0
   39.0980   32.7850   47.6960 N   0  0  0  0  0  0  0  0  0  0  0  0
   38.8740   31.5920   47.1320 C   0  0  0  0  0  0  0  0  0  0  0  0
   38.1910   30.6330   47.7610 N   0  0  0  0  0  0  0  0  0  0  0  0
   34.4800   30.1310   48.0600 S   0  0  0  0  0  0  0  0  0  0  0  0
   34.0890   28.4090   46.0530 C   0  0  0  0  0  0  0  0  0  0  0  0
   34.1390   28.4860   47.4500 C   0  0  0  0  0  0  0  0  0  0  0  0
   33.9320   27.3270   48.1800 C   0  0  0  0  0  0  0  0  0  0  0  0
   33.6860   26.1550   47.4950 C   0  0  0  0  0  0  0  0  0  0  0  0
   33.6300   26.0510   46.1250 C   0  0  0  0  0  0  0  0  0  0  0  0
   33.8370   27.2040   45.3980 C   0  0  0  0  0  0  0  0  0  0  0  0
   34.4670   30.4560   44.5040 N   0  0  0  0  0  0  0  0  0  0  0  0
   34.2890   29.5440   45.1880 C   0  0  0  0  0  0  0  0  0  0  0  0
   34.4449   29.2893   50.3338 H   0  0  0  0  0  0  0  0  0  0  0  0
   34.8774   31.0458   50.2608 H   0  0  0  0  0  0  0  0  0  0  0  0
   37.5072   32.2459   50.6504 H   0  0  0  0  0  0  0  0  0  0  0  0
   38.8021   34.0285   49.4283 H   0  0  0  0  0  0  0  0  0  0  0  0
   39.2636   31.3964   46.1221 H   0  0  0  0  0  0  0  0  0  0  0  0
   33.9630   27.3408   49.2795 H   0  0  0  0  0  0  0  0  0  0  0  0
   33.5235   25.2411   48.0852 H   0  0  0  0  0  0  0  0  0  0  0  0
   33.4287   25.0893   45.6304 H   0  0  0  0  0  0  0  0  0  0  0  0
   33.8033   27.1733   44.2989 H   0  0  0  0  0  0  0  0  0  0  0  0
  1  2  1  0
  3  4  2  0
  3  2  1  0
  5  4  1  0
  6  5  2  0
  7  6  1  0
  7  8  2  0
  8  3  1  0
  9  1  1  0
 10 11  2  0
 11  9  1  0
 11 12  1  0
 13 12  2  0
 14 13  1  0
 15 10  1  0
 15 14  2  0
 16 17  3  0
 17 10  1  0
  1 18  1  0
  1 19  1  0
  4 20  1  0
  5 21  1  0
  7 22  1  0
 12 23  1  0
 13 24  1  0
 14 25  1  0
 15 26  1  0
M  ISO  8  18   8  19   8  20  14  21  14  22  14  23  14  24  14  25  14
M  ISO  1  26  14
M  END
>  <minimizedAffinity>  (1) 
-4.25598335

>  <minimizedRMSD>  (1) 
3.03902149

$$$$
