
     RDKit          3D

 45 48  0  0  1  0  0  0  0  0999 V2000
   34.0330   27.0740   44.8820 C   0  0  0  0  0  0  0  0  0  0  0  0
   34.1160   25.7750   44.4200 C   0  0  0  0  0  0  0  0  0  0  0  0
   34.8270   25.3900   43.2810 C   0  0  0  0  0  0  0  0  0  0  0  0
   35.5080   26.3890   42.5520 C   0  0  0  0  0  0  0  0  0  0  0  0
   35.4100   27.6790   43.0350 C   0  0  0  0  0  0  0  0  0  0  0  0
   34.7120   28.0420   44.1490 C   0  0  0  0  0  0  0  0  0  0  0  0
   33.8970   27.0680   47.2970 C   0  0  0  0  0  0  0  0  0  0  0  0
   33.2510   27.2860   46.0700 C   0  0  0  0  0  0  0  0  0  0  0  0
   31.9090   27.6900   46.0910 C   0  0  0  0  0  0  0  0  0  0  0  0
   31.2950   27.8510   47.2960 N   0  0  0  0  0  0  0  0  0  0  0  0
   31.9460   27.6320   48.4740 C   0  0  0  0  0  0  0  0  0  0  0  0
   33.2490   27.2390   48.4680 N   0  0  0  0  0  0  0  0  0  0  0  0
   31.0980   27.9560   44.8770 C   0  0  0  0  0  0  0  0  0  0  0  0
   29.7670   28.2230   45.2510 F   0  0  0  0  0  0  0  0  0  0  0  0
   31.5300   28.9580   44.0860 F   0  0  0  0  0  0  0  0  0  0  0  0
   30.9970   26.7910   44.1170 F   0  0  0  0  0  0  0  0  0  0  0  0
   34.6070   29.6880   44.7430 S   0  0  0  0  0  0  0  0  0  0  0  0
   34.1000   30.4160   47.7250 Cl  0  0  0  0  0  0  0  0  0  0  0  0
   35.7170   30.4930   47.0550 C   0  0  0  0  0  0  0  0  0  0  0  0
   35.9970   30.1870   45.7190 C   0  0  0  0  0  0  0  0  0  0  0  0
   37.2730   30.2670   45.2450 C   0  0  0  0  0  0  0  0  0  0  0  0
   38.2850   30.6530   46.1130 C   0  0  0  0  0  0  0  0  0  0  0  0
   38.0090   30.9540   47.4320 C   0  0  0  0  0  0  0  0  0  0  0  0
   36.7220   30.8810   47.9260 C   0  0  0  0  0  0  0  0  0  0  0  0
   35.9450   29.2130   50.7580 O   0  0  0  0  0  0  0  0  0  0  0  0
   36.6470   30.1590   50.2950 C   0  0  0  0  0  0  0  0  0  0  0  0
   36.4470   31.2040   49.3200 C   0  0  1  0  0  0  0  0  0  0  0  0
   37.3960   32.2700   49.8370 C   0  0  0  0  0  0  0  0  0  0  0  0
   38.5870   31.4220   50.2320 C   0  0  0  0  0  0  0  0  0  0  0  0
   37.9650   30.2600   50.8370 N   0  0  0  0  0  0  0  0  0  0  0  0
   33.5880   24.9931   44.9856 H   0  0  0  0  0  0  0  0  0  0  0  0
   34.8555   24.3380   42.9610 H   0  0  0  0  0  0  0  0  0  0  0  0
   36.0863   26.1522   41.6468 H   0  0  0  0  0  0  0  0  0  0  0  0
   35.9333   28.4719   42.4806 H   0  0  0  0  0  0  0  0  0  0  0  0
   34.9506   26.7520   47.3040 H   0  0  0  0  0  0  0  0  0  0  0  0
   31.4182   27.7729   49.4288 H   0  0  0  0  0  0  0  0  0  0  0  0
   37.4962   30.0300   44.1943 H   0  0  0  0  0  0  0  0  0  0  0  0
   39.3197   30.7199   45.7456 H   0  0  0  0  0  0  0  0  0  0  0  0
   38.8284   31.2571   48.1004 H   0  0  0  0  0  0  0  0  0  0  0  0
   35.3832   31.4760   49.2535 H   0  0  0  0  0  0  0  0  0  0  0  0
   37.6575   32.9945   49.0517 H   0  0  0  0  0  0  0  0  0  0  0  0
   36.9873   32.8882   50.6499 H   0  0  0  0  0  0  0  0  0  0  0  0
   39.1824   31.1397   49.3512 H   0  0  0  0  0  0  0  0  0  0  0  0
   39.2884   31.9402   50.9025 H   0  0  0  0  0  0  0  0  0  0  0  0
   38.3929   29.6267   51.5275 H   0  0  0  0  0  0  0  0  0  0  0  0
  1  8  1  0
  2  1  2  0
  3  2  1  0
  4  5  1  0
  4  3  2  0
  5  6  2  0
  6 17  1  0
  6  1  1  0
  7 12  2  0
  8  9  2  0
  8  7  1  0
  9 10  1  0
 10 11  2  0
 12 11  1  0
 13 14  1  0
 13  9  1  0
 15 13  1  0
 16 13  1  0
 17 20  1  0
 19 18  1  0
 19 24  2  0
 20 19  1  0
 21 20  2  0
 21 22  1  0
 22 23  2  0
 23 24  1  0
 26 25  2  0
 26 30  1  0
 27 24  1  0
 27 28  1  0
 27 26  1  0
 28 29  1  0
 29 30  1  0
  2 31  1  0
  3 32  1  0
  4 33  1  0
  5 34  1  0
  7 35  1  0
 11 36  1  0
 21 37  1  0
 22 38  1  0
 23 39  1  0
 27 40  1  6
 28 41  1  0
 28 42  1  0
 29 43  1  0
 29 44  1  0
 30 45  1  0
M  ISO  8  31  14  32  14  33  14  34  14  35  14  36  14  37  14  38  14
M  ISO  7  39  14  40  13  41  13  42  13  43  13  44  13  45  10
M  END
>  <minimizedAffinity>  (1) 
-5.53029966

>  <minimizedRMSD>  (1) 
2.8228848

$$$$
