
     RDKit          3D

 35 37  0  0  1  0  0  0  0  0999 V2000
   37.3690   31.1190   45.6030 N   0  0  0  0  0  0  0  0  0  0  0  0
   38.3040   32.1830   45.2600 C   0  0  0  0  0  0  0  0  0  0  0  0
   39.2680   32.4750   46.3500 C   0  0  0  0  0  0  0  0  0  0  0  0
   39.4150   31.3480   47.2040 N   0  0  0  0  0  0  0  0  0  0  0  0
   38.1310   31.2270   47.9240 C   0  0  0  0  0  0  0  0  0  0  0  0
   37.2470   30.5330   46.9300 C   0  0  1  0  0  0  0  0  0  0  0  0
   36.7750   29.3740   43.9740 C   0  0  0  0  0  0  0  0  0  0  0  0
   36.5100   30.6100   44.5900 C   0  0  0  0  0  0  0  0  0  0  0  0
   35.3700   31.3320   44.1940 C   0  0  0  0  0  0  0  0  0  0  0  0
   34.5840   30.7610   43.2140 N   0  0  0  0  0  0  0  0  0  0  0  0
   34.8900   29.5640   42.6580 C   0  0  0  0  0  0  0  0  0  0  0  0
   35.9720   28.8580   43.0190 N   0  0  0  0  0  0  0  0  0  0  0  0
   36.1490   31.3760   49.8230 O   0  0  0  0  0  0  0  0  0  0  0  0
   35.6260   30.8250   48.7930 C   0  0  0  0  0  0  0  0  0  0  0  0
   35.8150   30.4460   47.3760 C   0  0  2  0  0  0  0  0  0  0  0  0
   35.3110   29.0220   47.4230 C   0  0  0  0  0  0  0  0  0  0  0  0
   33.9670   29.2530   48.1280 C   0  0  0  0  0  0  0  0  0  0  0  0
   34.2890   30.3490   49.0570 N   0  0  0  0  0  0  0  0  0  0  0  0
   38.8669   31.8810   44.3645 H   0  0  0  0  0  0  0  0  0  0  0  0
   37.7165   33.0962   45.0840 H   0  0  0  0  0  0  0  0  0  0  0  0
   40.2449   32.7256   45.9109 H   0  0  0  0  0  0  0  0  0  0  0  0
   38.8882   33.3209   46.9418 H   0  0  0  0  0  0  0  0  0  0  0  0
   39.5987   30.4988   46.6507 H   0  0  0  0  0  0  0  0  0  0  0  0
   38.2459   30.6254   48.8377 H   0  0  0  0  0  0  0  0  0  0  0  0
   37.7295   32.1953   48.2573 H   0  0  0  0  0  0  0  0  0  0  0  0
   37.6071   29.4954   46.8685 H   0  0  0  0  0  0  0  0  0  0  0  0
   37.6670   28.8081   44.2807 H   0  0  0  0  0  0  0  0  0  0  0  0
   35.1174   32.3038   44.6432 H   0  0  0  0  0  0  0  0  0  0  0  0
   34.2264   29.1558   41.8815 H   0  0  0  0  0  0  0  0  0  0  0  0
   35.3028   31.1001   46.6550 H   0  0  0  0  0  0  0  0  0  0  0  0
   35.1790   28.5998   46.4159 H   0  0  0  0  0  0  0  0  0  0  0  0
   35.9818   28.3036   47.9169 H   0  0  0  0  0  0  0  0  0  0  0  0
   33.1872   29.5526   47.4123 H   0  0  0  0  0  0  0  0  0  0  0  0
   33.5680   28.3559   48.6240 H   0  0  0  0  0  0  0  0  0  0  0  0
   33.6583   30.7186   49.7825 H   0  0  0  0  0  0  0  0  0  0  0  0
  1  6  1  0
  2  1  1  0
  2  3  1  0
  3  4  1  0
  4  5  1  0
  6 15  1  0
  6  5  1  0
  7  8  2  0
  8  1  1  0
  9  8  1  0
 10  9  2  0
 11 12  2  0
 11 10  1  0
 12  7  1  0
 14 18  1  0
 14 13  2  0
 15 16  1  0
 15 14  1  0
 16 17  1  0
 17 18  1  0
  2 19  1  0
  2 20  1  0
  3 21  1  0
  3 22  1  0
  4 23  1  0
  5 24  1  0
  5 25  1  0
  6 26  1  6
  7 27  1  0
  9 28  1  0
 11 29  1  0
 15 30  1  6
 16 31  1  0
 16 32  1  0
 17 33  1  0
 17 34  1  0
 18 35  1  0
M  ISO  8  19  13  20  13  21  13  22  13  23   5  24  13  25  13  26  13
M  ISO  8  27  14  28  14  29  14  30  13  31  13  32  13  33  13  34  13
M  ISO  1  35  10
M  END
>  <minimizedAffinity>  (1) 
-3.73492742

>  <minimizedRMSD>  (1) 
5.25037527

$$$$
