
     RDKit          3D

 45 48  0  0  1  0  0  0  0  0999 V2000
   37.2280   31.3000   43.1320 N   0  0  0  0  0  0  0  0  0  0  0  0
   37.3560   32.6750   42.7010 C   0  0  0  0  0  0  0  0  0  0  0  0
   37.7990   32.6840   41.2910 C   0  0  0  0  0  0  0  0  0  0  0  0
   37.0630   31.7610   40.5300 N   0  0  0  0  0  0  0  0  0  0  0  0
   37.2920   30.4120   40.9200 C   0  0  0  0  0  0  0  0  0  0  0  0
   37.8070   30.2840   42.3020 C   0  0  1  0  0  0  0  0  0  0  0  0
   38.6470   31.8520   45.6470 Cl  0  0  0  0  0  0  0  0  0  0  0  0
   37.1230   31.0430   45.5660 C   0  0  0  0  0  0  0  0  0  0  0  0
   36.5220   30.6170   46.7030 C   0  0  0  0  0  0  0  0  0  0  0  0
   35.2820   30.0030   46.5390 C   0  0  0  0  0  0  0  0  0  0  0  0
   34.6590   29.8120   45.3450 C   0  0  0  0  0  0  0  0  0  0  0  0
   35.3110   30.2640   44.2110 C   0  0  0  0  0  0  0  0  0  0  0  0
   36.5520   30.8820   44.3180 C   0  0  0  0  0  0  0  0  0  0  0  0
   37.8750   29.9950   50.1540 C   0  0  0  0  0  0  0  0  0  0  0  0
   37.2300   29.7870   48.9280 C   0  0  0  0  0  0  0  0  0  0  0  0
   37.1640   30.8100   47.9830 C   0  0  0  0  0  0  0  0  0  0  0  0
   37.7480   32.0050   48.3100 N   0  0  0  0  0  0  0  0  0  0  0  0
   38.3640   32.1950   49.4910 C   0  0  0  0  0  0  0  0  0  0  0  0
   38.4310   31.2000   50.4120 N   0  0  0  0  0  0  0  0  0  0  0  0
   38.6680   27.2200   42.2080 O   0  0  0  0  0  0  0  0  0  0  0  0
   39.2250   28.3480   42.3880 C   0  0  0  0  0  0  0  0  0  0  0  0
   39.1850   29.8560   42.5210 C   0  0  1  0  0  0  0  0  0  0  0  0
   40.3080   30.2300   41.6700 C   0  0  0  0  0  0  0  0  0  0  0  0
   41.4200   29.3370   42.2510 C   0  0  0  0  0  0  0  0  0  0  0  0
   40.6420   28.1260   42.5640 N   0  0  0  0  0  0  0  0  0  0  0  0
   36.3844   33.1834   42.7881 H   0  0  0  0  0  0  0  0  0  0  0  0
   38.0890   33.2010   43.3302 H   0  0  0  0  0  0  0  0  0  0  0  0
   37.6542   33.6916   40.8741 H   0  0  0  0  0  0  0  0  0  0  0  0
   38.8618   32.4028   41.2540 H   0  0  0  0  0  0  0  0  0  0  0  0
   37.3279   31.8661   39.5402 H   0  0  0  0  0  0  0  0  0  0  0  0
   36.3425   29.8613   40.8483 H   0  0  0  0  0  0  0  0  0  0  0  0
   38.0589   30.0025   40.2461 H   0  0  0  0  0  0  0  0  0  0  0  0
   37.4387   29.3243   42.6936 H   0  0  0  0  0  0  0  0  0  0  0  0
   34.7680   29.6457   47.4435 H   0  0  0  0  0  0  0  0  0  0  0  0
   33.6777   29.3188   45.2833 H   0  0  0  0  0  0  0  0  0  0  0  0
   34.8463   30.1340   43.2225 H   0  0  0  0  0  0  0  0  0  0  0  0
   37.9285   29.1869   50.8984 H   0  0  0  0  0  0  0  0  0  0  0  0
   36.7728   28.8106   48.7095 H   0  0  0  0  0  0  0  0  0  0  0  0
   38.8200   33.1710   49.7135 H   0  0  0  0  0  0  0  0  0  0  0  0
   39.3564   30.3743   43.4760 H   0  0  0  0  0  0  0  0  0  0  0  0
   40.1110   29.9955   40.6135 H   0  0  0  0  0  0  0  0  0  0  0  0
   40.5408   31.3051   41.6694 H   0  0  0  0  0  0  0  0  0  0  0  0
   42.2089   29.1350   41.5115 H   0  0  0  0  0  0  0  0  0  0  0  0
   41.9630   29.7708   43.1036 H   0  0  0  0  0  0  0  0  0  0  0  0
   41.0557   27.2337   42.8697 H   0  0  0  0  0  0  0  0  0  0  0  0
  1 13  1  0
  2  1  1  0
  3  2  1  0
  4  5  1  0
  4  3  1  0
  5  6  1  0
  6 22  1  0
  6  1  1  0
  8  7  1  0
  8  9  2  0
  9 16  1  0
 10  9  1  0
 11 10  2  0
 12 13  2  0
 12 11  1  0
 13  8  1  0
 14 19  2  0
 15 14  1  0
 16 17  1  0
 16 15  2  0
 17 18  2  0
 18 19  1  0
 20 21  2  0
 21 22  1  0
 21 25  1  0
 22 23  1  0
 23 24  1  0
 24 25  1  0
  2 26  1  0
  2 27  1  0
  3 28  1  0
  3 29  1  0
  4 30  1  0
  5 31  1  0
  5 32  1  0
  6 33  1  1
 10 34  1  0
 11 35  1  0
 12 36  1  0
 14 37  1  0
 15 38  1  0
 18 39  1  0
 22 40  1  1
 23 41  1  0
 23 42  1  0
 24 43  1  0
 24 44  1  0
 25 45  1  0
M  ISO  8  26  13  27  13  28  13  29  13  30   5  31  13  32  13  33  13
M  ISO  8  34  14  35  14  36  14  37  14  38  14  39  14  40  13  41  13
M  ISO  4  42  13  43  13  44  13  45  10
M  END
>  <minimizedAffinity>  (1) 
-5.67870378

>  <minimizedRMSD>  (1) 
3.20731711

$$$$
