
     RDKit          3D

 43 46  0  0  1  0  0  0  0  0999 V2000
   35.3900   29.6240   47.7060 C   0  0  0  0  0  0  0  0  0  0  0  0
   35.5970   30.1330   46.4330 C   0  0  0  0  0  0  0  0  0  0  0  0
   34.6000   30.0440   45.4760 C   0  0  0  0  0  0  0  0  0  0  0  0
   33.4320   29.4430   45.8430 N   0  0  0  0  0  0  0  0  0  0  0  0
   33.2580   28.9560   47.0940 C   0  0  0  0  0  0  0  0  0  0  0  0
   34.2240   29.0410   48.0230 N   0  0  0  0  0  0  0  0  0  0  0  0
   36.3760   29.6830   48.7380 N   0  0  0  0  0  0  0  0  0  0  0  0
   36.2860   28.8840   49.9530 C   0  0  0  0  0  0  0  0  0  0  0  0
   36.6130   29.6160   51.2120 C   0  0  0  0  0  0  0  0  0  0  0  0
   37.4970   30.7050   51.1250 N   0  0  0  0  0  0  0  0  0  0  0  0
   37.3870   31.4640   49.8890 C   0  0  0  0  0  0  0  0  0  0  0  0
   37.5520   30.4820   48.7650 C   0  0  0  0  0  0  0  0  0  0  0  0
   31.9800   28.3240   47.4190 C   0  0  0  0  0  0  0  0  0  0  0  0
   31.9370   27.2460   48.2820 C   0  0  0  0  0  0  0  0  0  0  0  0
   30.7650   26.6020   48.6330 C   0  0  0  0  0  0  0  0  0  0  0  0
   29.6400   27.0960   48.0720 N   0  0  0  0  0  0  0  0  0  0  0  0
   29.6880   28.1480   47.2300 C   0  0  0  0  0  0  0  0  0  0  0  0
   30.8330   28.7720   46.8920 N   0  0  0  0  0  0  0  0  0  0  0  0
   27.4140   29.4650   48.7680 O   0  0  0  0  0  0  0  0  0  0  0  0
   27.3770   28.9260   47.6180 C   0  0  0  0  0  0  0  0  0  0  0  0
   28.4370   28.6760   46.6240 C   0  0  2  0  0  0  0  0  0  0  0  0
   27.7760   27.6500   45.7100 C   0  0  0  0  0  0  0  0  0  0  0  0
   26.3470   28.1770   45.6830 C   0  0  0  0  0  0  0  0  0  0  0  0
   26.1380   28.4490   47.1070 N   0  0  0  0  0  0  0  0  0  0  0  0
   36.5564   30.6091   46.1824 H   0  0  0  0  0  0  0  0  0  0  0  0
   34.7443   30.4420   44.4607 H   0  0  0  0  0  0  0  0  0  0  0  0
   35.2573   28.5034   50.0363 H   0  0  0  0  0  0  0  0  0  0  0  0
   37.0383   28.0875   49.8549 H   0  0  0  0  0  0  0  0  0  0  0  0
   35.6670   29.9935   51.6274 H   0  0  0  0  0  0  0  0  0  0  0  0
   37.1422   28.8779   51.8326 H   0  0  0  0  0  0  0  0  0  0  0  0
   37.3054   31.3405   51.9126 H   0  0  0  0  0  0  0  0  0  0  0  0
   36.4013   31.9485   49.8278 H   0  0  0  0  0  0  0  0  0  0  0  0
   38.1506   32.2542   49.8400 H   0  0  0  0  0  0  0  0  0  0  0  0
   38.4347   29.8499   48.9416 H   0  0  0  0  0  0  0  0  0  0  0  0
   37.6967   31.0017   47.8064 H   0  0  0  0  0  0  0  0  0  0  0  0
   32.8822   26.8820   48.7112 H   0  0  0  0  0  0  0  0  0  0  0  0
   30.7498   25.7451   49.3226 H   0  0  0  0  0  0  0  0  0  0  0  0
   28.7684   29.5905   46.1103 H   0  0  0  0  0  0  0  0  0  0  0  0
   28.2273   27.6502   44.7069 H   0  0  0  0  0  0  0  0  0  0  0  0
   27.8724   26.6076   46.0478 H   0  0  0  0  0  0  0  0  0  0  0  0
   26.2625   29.0917   45.0778 H   0  0  0  0  0  0  0  0  0  0  0  0
   25.6132   27.4915   45.2339 H   0  0  0  0  0  0  0  0  0  0  0  0
   25.2636   28.3199   47.6358 H   0  0  0  0  0  0  0  0  0  0  0  0
  1  6  1  0
  1  7  1  0
  2  1  2  0
  3  4  2  0
  3  2  1  0
  4  5  1  0
  5 13  1  0
  5  6  2  0
  7 12  1  0
  7  8  1  0
  8  9  1  0
 10  9  1  0
 11 10  1  0
 12 11  1  0
 13 14  2  0
 14 15  1  0
 16 15  2  0
 17 16  1  0
 18 17  2  0
 18 13  1  0
 20 19  2  0
 21 17  1  0
 21 20  1  0
 22 21  1  0
 23 22  1  0
 23 24  1  0
 24 20  1  0
  2 25  1  0
  3 26  1  0
  8 27  1  0
  8 28  1  0
  9 29  1  0
  9 30  1  0
 10 31  1  0
 11 32  1  0
 11 33  1  0
 12 34  1  0
 12 35  1  0
 14 36  1  0
 15 37  1  0
 21 38  1  6
 22 39  1  0
 22 40  1  0
 23 41  1  0
 23 42  1  0
 24 43  1  0
M  ISO  8  25  14  26  14  27  13  28  13  29  13  30  13  31   5  32  13
M  ISO  8  33  13  34  13  35  13  36  14  37  14  38  13  39  13  40  13
M  ISO  3  41  13  42  13  43  10
M  END
>  <minimizedAffinity>  (1) 
-5.73030043

>  <minimizedRMSD>  (1) 
0.470694929

$$$$
