
     RDKit          3D

 35 37  0  0  1  0  0  0  0  0999 V2000
   37.1420   29.2440   50.4600 C   0  0  0  0  0  0  0  0  0  0  0  0
   37.5220   29.7280   49.1960 C   0  0  0  0  0  0  0  0  0  0  0  0
   36.5210   30.3500   48.4200 C   0  0  0  0  0  0  0  0  0  0  0  0
   35.2450   30.4560   48.9180 N   0  0  0  0  0  0  0  0  0  0  0  0
   34.9320   29.9710   50.1460 C   0  0  0  0  0  0  0  0  0  0  0  0
   35.8600   29.3770   50.9040 N   0  0  0  0  0  0  0  0  0  0  0  0
   36.8240   30.8730   47.1300 N   0  0  0  0  0  0  0  0  0  0  0  0
   36.3630   30.0800   46.0060 C   0  0  0  0  0  0  0  0  0  0  0  0
   36.6610   30.6340   44.6660 C   0  0  0  0  0  0  0  0  0  0  0  0
   37.3310   31.8490   44.5880 N   0  0  0  0  0  0  0  0  0  0  0  0
   38.1770   32.2760   45.6450 C   0  0  0  0  0  0  0  0  0  0  0  0
   37.5320   32.0910   47.0080 C   0  0  2  0  0  0  0  0  0  0  0  0
   36.9120   33.3700   50.0910 O   0  0  0  0  0  0  0  0  0  0  0  0
   37.8760   33.0780   49.2950 C   0  0  0  0  0  0  0  0  0  0  0  0
   38.4650   32.4750   48.0890 C   0  0  2  0  0  0  0  0  0  0  0  0
   39.3620   33.6180   47.5940 C   0  0  0  0  0  0  0  0  0  0  0  0
   40.0360   34.1020   48.8910 C   0  0  0  0  0  0  0  0  0  0  0  0
   39.0620   33.6600   49.9040 N   0  0  0  0  0  0  0  0  0  0  0  0
   37.8893   28.7513   51.0994 H   0  0  0  0  0  0  0  0  0  0  0  0
   38.5537   29.6263   48.8283 H   0  0  0  0  0  0  0  0  0  0  0  0
   33.9029   30.0675   50.5225 H   0  0  0  0  0  0  0  0  0  0  0  0
   36.8353   29.0890   46.0749 H   0  0  0  0  0  0  0  0  0  0  0  0
   35.2660   30.0570   46.0844 H   0  0  0  0  0  0  0  0  0  0  0  0
   37.2733   29.8901   44.1352 H   0  0  0  0  0  0  0  0  0  0  0  0
   35.6715   30.8422   44.2329 H   0  0  0  0  0  0  0  0  0  0  0  0
   37.9150   31.8097   43.7405 H   0  0  0  0  0  0  0  0  0  0  0  0
   39.1081   31.6912   45.6116 H   0  0  0  0  0  0  0  0  0  0  0  0
   38.3729   33.3497   45.5075 H   0  0  0  0  0  0  0  0  0  0  0  0
   36.7049   32.8063   47.1270 H   0  0  0  0  0  0  0  0  0  0  0  0
   38.9436   31.5168   48.3395 H   0  0  0  0  0  0  0  0  0  0  0  0
   40.1071   33.2536   46.8714 H   0  0  0  0  0  0  0  0  0  0  0  0
   38.8103   34.4097   47.0659 H   0  0  0  0  0  0  0  0  0  0  0  0
   41.0156   33.6239   49.0385 H   0  0  0  0  0  0  0  0  0  0  0  0
   40.2502   35.1807   48.9122 H   0  0  0  0  0  0  0  0  0  0  0  0
   39.2036   33.7519   50.9201 H   0  0  0  0  0  0  0  0  0  0  0  0
  1  6  2  0
  2  1  1  0
  3  4  1  0
  3  2  2  0
  4  5  2  0
  5  6  1  0
  7  3  1  0
  8  7  1  0
  9  8  1  0
 10  9  1  0
 10 11  1  0
 11 12  1  0
 12  7  1  0
 12 15  1  0
 14 18  1  0
 14 13  2  0
 15 16  1  0
 15 14  1  0
 16 17  1  0
 17 18  1  0
  1 19  1  0
  2 20  1  0
  5 21  1  0
  8 22  1  0
  8 23  1  0
  9 24  1  0
  9 25  1  0
 10 26  1  0
 11 27  1  0
 11 28  1  0
 12 29  1  6
 15 30  1  1
 16 31  1  0
 16 32  1  0
 17 33  1  0
 17 34  1  0
 18 35  1  0
M  ISO  8  19  14  20  14  21  14  22  13  23  13  24  13  25  13  26   5
M  ISO  8  27  13  28  13  29  13  30  13  31  13  32  13  33  13  34  13
M  ISO  1  35  10
M  END
>  <minimizedAffinity>  (1) 
-4.44207144

>  <minimizedRMSD>  (1) 
2.75791311

$$$$
