
     RDKit          3D

 49 52  0  0  1  0  0  0  0  0999 V2000
   35.2530   30.2590   49.7070 C   0  0  2  0  0  0  0  0  0  0  0  0
   36.1890   31.2640   49.2200 C   0  0  0  0  0  0  0  0  0  0  0  0
   37.6760   30.8230   49.3710 C   0  0  2  0  0  0  0  0  0  0  0  0
   38.0580   30.5100   50.7270 C   0  0  0  0  0  0  0  0  0  0  0  0
   36.9810   29.7620   51.5100 C   0  0  0  0  0  0  0  0  0  0  0  0
   35.9240   29.2140   50.6060 C   0  0  0  0  0  0  0  0  0  0  0  0
   38.6000   30.6210   46.5730 Cl  0  0  0  0  0  0  0  0  0  0  0  0
   38.9520   32.0040   47.5800 C   0  0  0  0  0  0  0  0  0  0  0  0
   38.4310   32.0040   48.8500 C   0  0  0  0  0  0  0  0  0  0  0  0
   38.7250   33.1490   49.5660 C   0  0  0  0  0  0  0  0  0  0  0  0
   39.4720   34.1950   49.0600 C   0  0  0  0  0  0  0  0  0  0  0  0
   39.9680   34.1160   47.7570 C   0  0  0  0  0  0  0  0  0  0  0  0
   39.6940   32.9780   47.0000 C   0  0  0  0  0  0  0  0  0  0  0  0
   40.1980   32.9000   45.6740 N   0  0  0  0  0  0  0  0  0  0  0  0
   34.5110   29.5180   48.6910 C   0  0  0  0  0  0  0  0  0  0  0  0
   34.8560   29.8350   47.3840 C   0  0  0  0  0  0  0  0  0  0  0  0
   34.2270   29.1640   46.3420 C   0  0  0  0  0  0  0  0  0  0  0  0
   33.2720   28.1960   46.6640 N   0  0  0  0  0  0  0  0  0  0  0  0
   32.9630   27.9160   47.9400 C   0  0  0  0  0  0  0  0  0  0  0  0
   33.5950   28.5880   48.9030 N   0  0  0  0  0  0  0  0  0  0  0  0
   31.5460   25.4290   46.3930 O   0  0  0  0  0  0  0  0  0  0  0  0
   31.2950   26.4810   47.0460 C   0  0  0  0  0  0  0  0  0  0  0  0
   31.9580   26.9010   48.3090 C   0  0  2  0  0  0  0  0  0  0  0  0
   30.8270   27.5890   49.0290 C   0  0  0  0  0  0  0  0  0  0  0  0
   29.9530   28.1800   47.9420 C   0  0  0  0  0  0  0  0  0  0  0  0
   30.3370   27.4880   46.7300 N   0  0  0  0  0  0  0  0  0  0  0  0
   34.5377   30.8837   50.2620 H   0  0  0  0  0  0  0  0  0  0  0  0
   36.0374   32.1922   49.7906 H   0  0  0  0  0  0  0  0  0  0  0  0
   35.9925   31.4096   48.1475 H   0  0  0  0  0  0  0  0  0  0  0  0
   37.8780   29.8867   48.8302 H   0  0  0  0  0  0  0  0  0  0  0  0
   38.9631   29.8856   50.6977 H   0  0  0  0  0  0  0  0  0  0  0  0
   38.2254   31.4668   51.2433 H   0  0  0  0  0  0  0  0  0  0  0  0
   37.4497   28.9303   52.0565 H   0  0  0  0  0  0  0  0  0  0  0  0
   36.5061   30.4704   52.2047 H   0  0  0  0  0  0  0  0  0  0  0  0
   35.1471   28.7470   51.2291 H   0  0  0  0  0  0  0  0  0  0  0  0
   36.4246   28.4995   49.9360 H   0  0  0  0  0  0  0  0  0  0  0  0
   38.3435   33.2318   50.5944 H   0  0  0  0  0  0  0  0  0  0  0  0
   39.6743   35.0823   49.6779 H   0  0  0  0  0  0  0  0  0  0  0  0
   40.5649   34.9380   47.3350 H   0  0  0  0  0  0  0  0  0  0  0  0
   40.7569   33.6748   45.2891 H   0  0  0  0  0  0  0  0  0  0  0  0
   40.0045   32.0686   45.0976 H   0  0  0  0  0  0  0  0  0  0  0  0
   35.6144   30.6043   47.1767 H   0  0  0  0  0  0  0  0  0  0  0  0
   34.4739   29.3885   45.2938 H   0  0  0  0  0  0  0  0  0  0  0  0
   32.4378   26.0981   48.8880 H   0  0  0  0  0  0  0  0  0  0  0  0
   30.2567   26.8647   49.6291 H   0  0  0  0  0  0  0  0  0  0  0  0
   31.1944   28.3610   49.7211 H   0  0  0  0  0  0  0  0  0  0  0  0
   28.8898   28.0070   48.1649 H   0  0  0  0  0  0  0  0  0  0  0  0
   30.0849   29.2685   47.8540 H   0  0  0  0  0  0  0  0  0  0  0  0
   29.9749   27.6913   45.7874 H   0  0  0  0  0  0  0  0  0  0  0  0
  1  6  1  0
  2  3  1  0
  2  1  1  0
  3  4  1  0
  4  5  1  0
  6  5  1  0
  7  8  1  0
  8  9  2  0
  9  3  1  0
  9 10  1  0
 11 10  2  0
 12 11  1  0
 13  8  1  0
 13 12  2  0
 14 13  1  0
 15 20  1  0
 15  1  1  0
 16 15  2  0
 17 18  2  0
 17 16  1  0
 18 19  1  0
 19 20  2  0
 21 22  2  0
 22 23  1  0
 23 19  1  0
 23 24  1  0
 25 24  1  0
 26 22  1  0
 26 25  1  0
  1 27  1  1
  2 28  1  0
  2 29  1  0
  3 30  1  6
  4 31  1  0
  4 32  1  0
  5 33  1  0
  5 34  1  0
  6 35  1  0
  6 36  1  0
 10 37  1  0
 11 38  1  0
 12 39  1  0
 14 40  1  0
 14 41  1  0
 16 42  1  0
 17 43  1  0
 23 44  1  1
 24 45  1  0
 24 46  1  0
 25 47  1  0
 25 48  1  0
 26 49  1  0
M  ISO  8  27  13  28  13  29  13  30  13  31  13  32  13  33  13  34  13
M  ISO  8  35  13  36  13  37  14  38  14  39  14  42  14  43  14  44  13
M  ISO  5  45  13  46  13  47  13  48  13  49  10
M  END
>  <minimizedAffinity>  (1) 
-8.1131897

>  <minimizedRMSD>  (1) 
0.953699946

$$$$
