
     RDKit          3D

 48 52  0  0  1  0  0  0  0  0999 V2000
   39.2490   33.3590   43.0730 O   0  0  0  0  0  0  0  0  0  0  0  0
   35.9710   30.1940   46.8310 C   0  0  0  0  0  0  0  0  0  0  0  0
   36.8870   30.7130   47.7430 C   0  0  0  0  0  0  0  0  0  0  0  0
   37.9100   31.5620   47.3280 C   0  0  0  0  0  0  0  0  0  0  0  0
   37.9620   31.8560   45.9740 C   0  0  0  0  0  0  0  0  0  0  0  0
   38.8640   32.6530   45.3330 N   0  0  0  0  0  0  0  0  0  0  0  0
   38.5190   32.6340   44.0310 C   0  0  0  0  0  0  0  0  0  0  0  0
   37.4630   31.8740   43.8440 N   0  0  0  0  0  0  0  0  0  0  0  0
   37.0700   31.3600   45.0340 C   0  0  0  0  0  0  0  0  0  0  0  0
   36.0510   30.5080   45.4810 C   0  0  0  0  0  0  0  0  0  0  0  0
   37.4050   30.1110   51.4050 C   0  0  0  0  0  0  0  0  0  0  0  0
   37.6650   30.5420   50.1180 C   0  0  0  0  0  0  0  0  0  0  0  0
   36.7200   30.3130   49.1250 C   0  0  0  0  0  0  0  0  0  0  0  0
   35.5780   29.6680   49.4820 N   0  0  0  0  0  0  0  0  0  0  0  0
   35.3280   29.2490   50.7390 C   0  0  0  0  0  0  0  0  0  0  0  0
   36.2390   29.4730   51.6850 N   0  0  0  0  0  0  0  0  0  0  0  0
   39.0130   31.3480   42.0240 N   0  0  0  0  0  0  0  0  0  0  0  0
   39.3510   32.7440   41.7870 C   0  0  1  0  0  0  0  0  0  0  0  0
   38.4120   33.3220   40.8330 C   0  0  0  0  0  0  0  0  0  0  0  0
   38.5680   32.6690   39.5970 O   0  0  0  0  0  0  0  0  0  0  0  0
   38.4610   31.3110   39.6370 C   0  0  0  0  0  0  0  0  0  0  0  0
   39.2290   30.6720   40.7670 C   0  0  1  0  0  0  0  0  0  0  0  0
   41.7480   29.4720   42.5150 O   0  0  0  0  0  0  0  0  0  0  0  0
   41.1210   29.3840   41.4320 C   0  0  0  0  0  0  0  0  0  0  0  0
   40.6940   30.5010   40.5160 C   0  0  1  0  0  0  0  0  0  0  0  0
   40.9820   29.8460   39.1940 C   0  0  0  0  0  0  0  0  0  0  0  0
   40.4510   28.4590   39.3970 C   0  0  0  0  0  0  0  0  0  0  0  0
   40.6630   28.1850   40.8130 N   0  0  0  0  0  0  0  0  0  0  0  0
   35.1726   29.5256   47.1856 H   0  0  0  0  0  0  0  0  0  0  0  0
   38.6396   31.9782   48.0383 H   0  0  0  0  0  0  0  0  0  0  0  0
   39.6497   33.1656   45.7582 H   0  0  0  0  0  0  0  0  0  0  0  0
   35.3222   30.0924   44.7696 H   0  0  0  0  0  0  0  0  0  0  0  0
   38.1423   30.2846   52.2027 H   0  0  0  0  0  0  0  0  0  0  0  0
   38.6069   31.0592   49.8828 H   0  0  0  0  0  0  0  0  0  0  0  0
   34.3878   28.7310   50.9793 H   0  0  0  0  0  0  0  0  0  0  0  0
   39.6213   30.9507   42.7541 H   0  0  0  0  0  0  0  0  0  0  0  0
   40.3530   32.8838   41.3552 H   0  0  0  0  0  0  0  0  0  0  0  0
   37.3830   33.1854   41.1969 H   0  0  0  0  0  0  0  0  0  0  0  0
   38.6093   34.3979   40.7168 H   0  0  0  0  0  0  0  0  0  0  0  0
   37.3983   31.0502   39.7491 H   0  0  0  0  0  0  0  0  0  0  0  0
   38.8924   30.9283   38.7003 H   0  0  0  0  0  0  0  0  0  0  0  0
   38.8106   29.6565   40.8272 H   0  0  0  0  0  0  0  0  0  0  0  0
   41.1635   31.4911   40.6125 H   0  0  0  0  0  0  0  0  0  0  0  0
   40.4560   30.3570   38.3741 H   0  0  0  0  0  0  0  0  0  0  0  0
   42.0455   29.8719   38.9141 H   0  0  0  0  0  0  0  0  0  0  0  0
   39.3802   28.4135   39.1492 H   0  0  0  0  0  0  0  0  0  0  0  0
   40.9521   27.7229   38.7511 H   0  0  0  0  0  0  0  0  0  0  0  0
   40.5086   27.2821   41.2840 H   0  0  0  0  0  0  0  0  0  0  0  0
  1  7  1  0
  2  3  2  0
  3 13  1  0
  4  3  1  0
  5  4  2  0
  6  5  1  0
  7  6  1  0
  8  7  2  0
  8  9  1  0
  9 10  2  0
  9  5  1  0
 10  2  1  0
 11 16  2  0
 12 11  1  0
 13 14  1  0
 13 12  2  0
 14 15  2  0
 15 16  1  0
 18 17  1  0
 18  1  1  0
 19 18  1  0
 20 21  1  0
 20 19  1  0
 21 22  1  0
 22 17  1  0
 24 23  2  0
 25 26  1  0
 25 22  1  0
 25 24  1  0
 26 27  1  0
 27 28  1  0
 28 24  1  0
  2 29  1  0
  4 30  1  0
  6 31  1  0
 10 32  1  0
 11 33  1  0
 12 34  1  0
 15 35  1  0
 17 36  1  0
 18 37  1  6
 19 38  1  0
 19 39  1  0
 21 40  1  0
 21 41  1  0
 22 42  1  1
 25 43  1  1
 26 44  1  0
 26 45  1  0
 27 46  1  0
 27 47  1  0
 28 48  1  0
M  ISO  8  29  14  30  14  31   9  32  14  33  14  34  14  35  14  36   5
M  ISO  8  37  13  38  13  39  13  40  13  41  13  42  13  43  13  44  13
M  ISO  4  45  13  46  13  47  13  48  10
M  END
>  <minimizedAffinity>  (1) 
-6.00807858

>  <minimizedRMSD>  (1) 
1.21402931

$$$$
