
     RDKit          3D

 39 42  0  0  1  0  0  0  0  0999 V2000
   37.3460   29.1960   50.8450 Br  0  0  0  0  0  0  0  0  0  0  0  0
   35.9850   29.3190   49.5120 C   0  0  0  0  0  0  0  0  0  0  0  0
   36.0070   30.3310   48.5670 C   0  0  0  0  0  0  0  0  0  0  0  0
   34.9960   30.3700   47.6290 C   0  0  0  0  0  0  0  0  0  0  0  0
   33.9670   29.4370   47.5970 C   0  0  0  0  0  0  0  0  0  0  0  0
   33.9710   28.4510   48.5410 C   0  0  0  0  0  0  0  0  0  0  0  0
   34.9780   28.4030   49.4860 C   0  0  0  0  0  0  0  0  0  0  0  0
   37.9780   33.2280   49.5810 C   0  0  0  0  0  0  0  0  0  0  0  0
   39.0450   33.2480   48.6320 C   0  0  0  0  0  0  0  0  0  0  0  0
   39.0610   32.2620   47.6620 C   0  0  0  0  0  0  0  0  0  0  0  0
   38.0670   31.3160   47.6480 N   0  0  0  0  0  0  0  0  0  0  0  0
   37.0730   31.3310   48.5670 C   0  0  0  0  0  0  0  0  0  0  0  0
   37.0290   32.2890   49.5350 N   0  0  0  0  0  0  0  0  0  0  0  0
   32.9000   29.4630   46.6210 C   0  0  0  0  0  0  0  0  0  0  0  0
   31.9960   28.4530   46.4050 C   0  0  0  0  0  0  0  0  0  0  0  0
   30.9870   28.5180   45.4570 C   0  0  0  0  0  0  0  0  0  0  0  0
   30.8760   29.6150   44.7060 N   0  0  0  0  0  0  0  0  0  0  0  0
   31.7480   30.6170   44.8960 C   0  0  0  0  0  0  0  0  0  0  0  0
   32.7170   30.5380   45.8170 N   0  0  0  0  0  0  0  0  0  0  0  0
   33.9200   31.6190   42.9470 O   0  0  0  0  0  0  0  0  0  0  0  0
   32.8560   32.1930   43.3380 C   0  0  0  0  0  0  0  0  0  0  0  0
   31.6040   31.8280   44.0460 C   0  0  2  0  0  0  0  0  0  0  0  0
   31.3330   33.0390   44.9180 C   0  0  0  0  0  0  0  0  0  0  0  0
   31.9250   34.2120   44.1440 C   0  0  0  0  0  0  0  0  0  0  0  0
   32.7060   33.6030   43.0750 N   0  0  0  0  0  0  0  0  0  0  0  0
   35.0050   31.1720   46.8762 H   0  0  0  0  0  0  0  0  0  0  0  0
   33.1725   27.6945   48.5494 H   0  0  0  0  0  0  0  0  0  0  0  0
   34.9657   27.6014   50.2392 H   0  0  0  0  0  0  0  0  0  0  0  0
   37.9369   33.9996   50.3639 H   0  0  0  0  0  0  0  0  0  0  0  0
   39.8270   34.0207   48.6711 H   0  0  0  0  0  0  0  0  0  0  0  0
   39.8627   32.2364   46.9092 H   0  0  0  0  0  0  0  0  0  0  0  0
   32.0767   27.5428   47.0174 H   0  0  0  0  0  0  0  0  0  0  0  0
   30.2887   27.6782   45.3259 H   0  0  0  0  0  0  0  0  0  0  0  0
   30.7982   31.5850   43.3378 H   0  0  0  0  0  0  0  0  0  0  0  0
   30.2517   33.1772   45.0651 H   0  0  0  0  0  0  0  0  0  0  0  0
   31.7729   32.9371   45.9210 H   0  0  0  0  0  0  0  0  0  0  0  0
   31.1260   34.8431   43.7277 H   0  0  0  0  0  0  0  0  0  0  0  0
   32.5385   34.8623   44.7849 H   0  0  0  0  0  0  0  0  0  0  0  0
   33.0905   34.1013   42.2597 H   0  0  0  0  0  0  0  0  0  0  0  0
  2  1  1  0
  3 12  1  0
  3  2  2  0
  4  3  1  0
  5  4  2  0
  5  6  1  0
  6  7  2  0
  7  2  1  0
  9  8  2  0
 10  9  1  0
 11 10  2  0
 11 12  1  0
 12 13  2  0
 13  8  1  0
 14  5  1  0
 15 14  2  0
 16 15  1  0
 17 18  1  0
 17 16  2  0
 18 19  2  0
 19 14  1  0
 20 21  2  0
 21 22  1  0
 22 18  1  0
 22 23  1  0
 24 23  1  0
 25 21  1  0
 25 24  1  0
  4 26  1  0
  6 27  1  0
  7 28  1  0
  8 29  1  0
  9 30  1  0
 10 31  1  0
 15 32  1  0
 16 33  1  0
 22 34  1  6
 23 35  1  0
 23 36  1  0
 24 37  1  0
 24 38  1  0
 25 39  1  0
M  ISO  8  26  14  27  14  28  14  29  14  30  14  31  14  32  14  33  14
M  ISO  6  34  13  35  13  36  13  37  13  38  13  39  10
M  END
>  <minimizedAffinity>  (1) 
-6.54019785

>  <minimizedRMSD>  (1) 
0.54491955

$$$$
