
     RDKit          3D

 33 35  0  0  1  0  0  0  0  0999 V2000
   37.8060   31.6460   47.5100 N   0  0  0  0  0  0  0  0  0  0  0  0
   39.1110   32.0770   47.9140 C   0  0  0  0  0  0  0  0  0  0  0  0
   38.8240   32.9190   49.1650 C   0  0  0  0  0  0  0  0  0  0  0  0
   37.3200   32.8160   49.4020 C   0  0  0  0  0  0  0  0  0  0  0  0
   37.0450   31.4910   48.7200 C   0  0  2  0  0  0  0  0  0  0  0  0
   37.3430   31.4140   46.1890 C   0  0  0  0  0  0  0  0  0  0  0  0
   37.8790   32.2100   45.1720 C   0  0  0  0  0  0  0  0  0  0  0  0
   37.4370   31.9950   43.8640 C   0  0  0  0  0  0  0  0  0  0  0  0
   36.5010   31.0150   43.6540 N   0  0  0  0  0  0  0  0  0  0  0  0
   36.0080   30.2690   44.6580 C   0  0  0  0  0  0  0  0  0  0  0  0
   36.4390   30.4780   45.9340 N   0  0  0  0  0  0  0  0  0  0  0  0
   35.8400   28.8400   48.7310 O   0  0  0  0  0  0  0  0  0  0  0  0
   36.3120   29.4190   49.7740 C   0  0  0  0  0  0  0  0  0  0  0  0
   37.4690   30.3170   49.5460 C   0  0  2  0  0  0  0  0  0  0  0  0
   37.9050   30.6660   50.9230 C   0  0  0  0  0  0  0  0  0  0  0  0
   37.2910   29.5680   51.7600 C   0  0  0  0  0  0  0  0  0  0  0  0
   35.9710   29.4060   51.1770 N   0  0  0  0  0  0  0  0  0  0  0  0
   39.7543   31.2178   48.1546 H   0  0  0  0  0  0  0  0  0  0  0  0
   39.6460   32.6332   47.1302 H   0  0  0  0  0  0  0  0  0  0  0  0
   39.3758   32.5207   50.0292 H   0  0  0  0  0  0  0  0  0  0  0  0
   39.1412   33.9636   49.0304 H   0  0  0  0  0  0  0  0  0  0  0  0
   37.0755   32.7834   50.4740 H   0  0  0  0  0  0  0  0  0  0  0  0
   36.7294   33.6650   49.0273 H   0  0  0  0  0  0  0  0  0  0  0  0
   35.9794   31.2789   48.5481 H   0  0  0  0  0  0  0  0  0  0  0  0
   38.6279   32.9841   45.3955 H   0  0  0  0  0  0  0  0  0  0  0  0
   37.8280   32.5937   43.0281 H   0  0  0  0  0  0  0  0  0  0  0  0
   35.2582   29.4915   44.4500 H   0  0  0  0  0  0  0  0  0  0  0  0
   38.2985   29.8719   48.9768 H   0  0  0  0  0  0  0  0  0  0  0  0
   39.0020   30.6593   51.0044 H   0  0  0  0  0  0  0  0  0  0  0  0
   37.5950   31.6745   51.2343 H   0  0  0  0  0  0  0  0  0  0  0  0
   37.8741   28.6386   51.6808 H   0  0  0  0  0  0  0  0  0  0  0  0
   37.2624   29.8080   52.8331 H   0  0  0  0  0  0  0  0  0  0  0  0
   35.0530   29.3094   51.6340 H   0  0  0  0  0  0  0  0  0  0  0  0
  1  2  1  0
  1  5  1  0
  2  3  1  0
  3  4  1  0
  5  4  1  0
  5 14  1  0
  6  1  1  0
  7  6  2  0
  8  7  1  0
  9  8  2  0
  9 10  1  0
 10 11  2  0
 11  6  1  0
 12 13  2  0
 13 17  1  0
 14 13  1  0
 14 15  1  0
 15 16  1  0
 17 16  1  0
  2 18  1  0
  2 19  1  0
  3 20  1  0
  3 21  1  0
  4 22  1  0
  4 23  1  0
  5 24  1  6
  7 25  1  0
  8 26  1  0
 10 27  1  0
 14 28  1  6
 15 29  1  0
 15 30  1  0
 16 31  1  0
 16 32  1  0
 17 33  1  0
M  ISO  8  18  13  19  13  20  13  21  13  22  13  23  13  24  13  25  14
M  ISO  8  26  14  27  14  28  13  29  13  30  13  31  13  32  13  33  10
M  END
>  <minimizedAffinity>  (1) 
-5.22960091

>  <minimizedRMSD>  (1) 
3.79806852

$$$$
