
     RDKit          3D

 36 38  0  0  1  0  0  0  0  0999 V2000
   37.2710   30.6910   48.8530 C   0  0  0  0  0  0  0  0  0  0  0  0
   37.3010   31.9250   49.5460 C   0  0  0  0  0  0  0  0  0  0  0  0
   38.1790   32.9040   49.1060 C   0  0  0  0  0  0  0  0  0  0  0  0
   38.9720   32.6250   48.0230 N   0  0  0  0  0  0  0  0  0  0  0  0
   38.9190   31.4440   47.3880 C   0  0  0  0  0  0  0  0  0  0  0  0
   38.0720   30.4820   47.8020 N   0  0  0  0  0  0  0  0  0  0  0  0
   39.9040   33.7470   45.6050 O   0  0  0  0  0  0  0  0  0  0  0  0
   40.0350   32.4950   45.4650 C   0  0  0  0  0  0  0  0  0  0  0  0
   39.8090   31.2110   46.2210 C   0  0  2  0  0  0  0  0  0  0  0  0
   39.2030   30.3660   45.1480 C   0  0  0  0  0  0  0  0  0  0  0  0
   40.0950   30.6840   43.9520 C   0  0  0  0  0  0  0  0  0  0  0  0
   40.5640   32.0260   44.2200 N   0  0  0  0  0  0  0  0  0  0  0  0
   36.1000   29.5550   49.5390 S   0  0  0  0  0  0  0  0  0  0  0  0
   33.5590   28.7720   49.0620 N   0  0  0  0  0  0  0  0  0  0  0  0
   34.3920   29.9530   49.0030 C   0  0  2  0  0  0  0  0  0  0  0  0
   34.4460   30.4220   47.5650 C   0  0  0  0  0  0  0  0  0  0  0  0
   33.3800   29.8720   46.8220 O   0  0  0  0  0  0  0  0  0  0  0  0
   33.7130   28.5040   46.6950 C   0  0  0  0  0  0  0  0  0  0  0  0
   33.9900   27.8560   48.0300 C   0  0  2  0  0  0  0  0  0  0  0  0
   33.2460   26.6650   48.1580 O   0  0  0  0  0  0  0  0  0  0  0  0
   36.6450   32.1027   50.4109 H   0  0  0  0  0  0  0  0  0  0  0  0
   38.2377   33.8787   49.6125 H   0  0  0  0  0  0  0  0  0  0  0  0
   40.6990   30.7493   46.6735 H   0  0  0  0  0  0  0  0  0  0  0  0
   39.2479   29.2979   45.4072 H   0  0  0  0  0  0  0  0  0  0  0  0
   38.1364   30.5698   44.9724 H   0  0  0  0  0  0  0  0  0  0  0  0
   39.5208   30.6493   43.0144 H   0  0  0  0  0  0  0  0  0  0  0  0
   40.9161   29.9624   43.8293 H   0  0  0  0  0  0  0  0  0  0  0  0
   41.1884   32.5661   43.6041 H   0  0  0  0  0  0  0  0  0  0  0  0
   33.6541   28.3253   49.9852 H   0  0  0  0  0  0  0  0  0  0  0  0
   33.9736   30.7271   49.6631 H   0  0  0  0  0  0  0  0  0  0  0  0
   34.3755   31.5195   47.5400 H   0  0  0  0  0  0  0  0  0  0  0  0
   35.3959   30.0910   47.1199 H   0  0  0  0  0  0  0  0  0  0  0  0
   32.8746   27.9789   46.2140 H   0  0  0  0  0  0  0  0  0  0  0  0
   34.6295   28.4352   46.0907 H   0  0  0  0  0  0  0  0  0  0  0  0
   35.0620   27.6242   48.1146 H   0  0  0  0  0  0  0  0  0  0  0  0
   33.1168   26.4581   49.1175 H   0  0  0  0  0  0  0  0  0  0  0  0
  1 13  1  0
  1  2  2  0
  3  2  1  0
  4  3  2  0
  5  6  2  0
  5  4  1  0
  6  1  1  0
  8  7  2  0
  8  9  1  0
  9  5  1  0
 10  9  1  0
 11 12  1  0
 11 10  1  0
 12  8  1  0
 15 14  1  0
 15 13  1  0
 16 15  1  0
 17 16  1  0
 18 17  1  0
 18 19  1  0
 19 20  1  0
 19 14  1  0
  2 21  1  0
  3 22  1  0
  9 23  1  1
 10 24  1  0
 10 25  1  0
 11 26  1  0
 11 27  1  0
 12 28  1  0
 14 29  1  0
 15 30  1  1
 16 31  1  0
 16 32  1  0
 18 33  1  0
 18 34  1  0
 19 35  1  1
 20 36  1  0
M  ISO  8  21  14  22  14  23  13  24  13  25  13  26  13  27  13  28  10
M  ISO  8  29   5  30  13  31  13  32  13  33  13  34  13  35  13  36   3
M  END
>  <minimizedAffinity>  (1) 
-5.79363823

>  <minimizedRMSD>  (1) 
0.721931458

$$$$
