
     RDKit          3D

 49 52  0  0  1  0  0  0  0  0999 V2000
   36.7750   30.0540   49.9660 S   0  0  0  0  0  0  0  0  0  0  0  0
   39.0110   32.7890   48.0210 C   0  0  0  0  0  0  0  0  0  0  0  0
   39.2510   32.1380   46.8110 C   0  0  0  0  0  0  0  0  0  0  0  0
   38.7110   30.8900   46.6570 C   0  0  0  0  0  0  0  0  0  0  0  0
   37.9830   30.3660   47.6800 N   0  0  0  0  0  0  0  0  0  0  0  0
   37.7790   31.0010   48.8000 C   0  0  0  0  0  0  0  0  0  0  0  0
   38.2910   32.2580   49.0210 N   0  0  0  0  0  0  0  0  0  0  0  0
   39.9980   32.7760   45.8670 O   0  0  0  0  0  0  0  0  0  0  0  0
   40.0470   32.2770   44.5860 C   0  0  0  0  0  0  0  0  0  0  0  0
   40.6390   31.1230   44.1450 C   0  0  0  0  0  0  0  0  0  0  0  0
   40.5840   30.7950   42.8320 C   0  0  0  0  0  0  0  0  0  0  0  0
   39.9320   31.6310   41.9740 C   0  0  0  0  0  0  0  0  0  0  0  0
   39.3260   32.8120   42.4270 C   0  0  0  0  0  0  0  0  0  0  0  0
   39.4060   33.1020   43.7510 N   0  0  0  0  0  0  0  0  0  0  0  0
   38.6130   33.7140   41.4490 C   0  0  0  0  0  0  0  0  0  0  0  0
   35.0770   30.6120   49.6610 C   0  0  0  0  0  0  0  0  0  0  0  0
   34.1040   28.0580   49.9860 F   0  0  0  0  0  0  0  0  0  0  0  0
   34.1230   28.5960   48.7300 C   0  0  0  0  0  0  0  0  0  0  0  0
   34.5960   29.8820   48.4530 C   0  0  0  0  0  0  0  0  0  0  0  0
   34.5960   30.3860   47.1780 C   0  0  0  0  0  0  0  0  0  0  0  0
   34.1080   29.5880   46.1200 C   0  0  0  0  0  0  0  0  0  0  0  0
   33.6410   28.3210   46.3870 C   0  0  0  0  0  0  0  0  0  0  0  0
   33.6480   27.8340   47.6690 C   0  0  0  0  0  0  0  0  0  0  0  0
   33.1650   26.5670   47.8740 O   0  0  0  0  0  0  0  0  0  0  0  0
   31.5360   25.3180   45.9300 O   0  0  0  0  0  0  0  0  0  0  0  0
   31.0560   26.0070   46.8810 C   0  0  0  0  0  0  0  0  0  0  0  0
   31.8530   26.2800   48.1440 C   0  0  2  0  0  0  0  0  0  0  0  0
   31.0600   27.4880   48.6400 C   0  0  0  0  0  0  0  0  0  0  0  0
   29.6400   27.0280   48.3310 C   0  0  0  0  0  0  0  0  0  0  0  0
   29.7670   26.6110   46.9350 N   0  0  0  0  0  0  0  0  0  0  0  0
   39.4356   33.7937   48.1634 H   0  0  0  0  0  0  0  0  0  0  0  0
   38.8622   30.3230   45.7266 H   0  0  0  0  0  0  0  0  0  0  0  0
   41.1583   30.4637   44.8562 H   0  0  0  0  0  0  0  0  0  0  0  0
   41.0562   29.8719   42.4647 H   0  0  0  0  0  0  0  0  0  0  0  0
   39.8804   31.3740   40.9057 H   0  0  0  0  0  0  0  0  0  0  0  0
   38.0231   34.4603   42.0014 H   0  0  0  0  0  0  0  0  0  0  0  0
   39.3527   34.2265   40.8164 H   0  0  0  0  0  0  0  0  0  0  0  0
   37.9435   33.1126   40.8164 H   0  0  0  0  0  0  0  0  0  0  0  0
   34.4393   30.3757   50.5256 H   0  0  0  0  0  0  0  0  0  0  0  0
   35.0402   31.7004   49.5061 H   0  0  0  0  0  0  0  0  0  0  0  0
   34.9720   31.4009   46.9813 H   0  0  0  0  0  0  0  0  0  0  0  0
   34.1011   29.9759   45.0907 H   0  0  0  0  0  0  0  0  0  0  0  0
   33.2597   27.6950   45.5668 H   0  0  0  0  0  0  0  0  0  0  0  0
   31.9405   25.4481   48.8583 H   0  0  0  0  0  0  0  0  0  0  0  0
   31.2076   27.6573   49.7168 H   0  0  0  0  0  0  0  0  0  0  0  0
   31.3440   28.4456   48.1793 H   0  0  0  0  0  0  0  0  0  0  0  0
   29.3401   26.1886   48.9756 H   0  0  0  0  0  0  0  0  0  0  0  0
   28.8719   27.7967   48.5018 H   0  0  0  0  0  0  0  0  0  0  0  0
   29.0855   26.7267   46.1714 H   0  0  0  0  0  0  0  0  0  0  0  0
  2  7  2  0
  3  2  1  0
  4  3  2  0
  4  5  1  0
  5  6  2  0
  6  7  1  0
  6  1  1  0
  8  3  1  0
  9  8  1  0
 10  9  2  0
 11 10  1  0
 12 13  1  0
 12 11  2  0
 13 14  2  0
 14  9  1  0
 15 13  1  0
 16  1  1  0
 18 17  1  0
 19 18  2  0
 19 16  1  0
 20 19  1  0
 21 22  1  0
 21 20  2  0
 22 23  2  0
 23 24  1  0
 23 18  1  0
 25 26  2  0
 26 30  1  0
 26 27  1  0
 27 24  1  0
 27 28  1  0
 29 28  1  0
 30 29  1  0
  2 31  1  0
  4 32  1  0
 10 33  1  0
 11 34  1  0
 12 35  1  0
 15 36  1  0
 15 37  1  0
 15 38  1  0
 16 39  1  0
 16 40  1  0
 20 41  1  0
 21 42  1  0
 22 43  1  0
 27 44  1  1
 28 45  1  0
 28 46  1  0
 29 47  1  0
 29 48  1  0
 30 49  1  0
M  ISO  8  31  14  32  14  33  14  34  14  35  14  36   8  37   8  38   8
M  ISO  8  39   8  40   8  41  14  42  14  43  14  44  13  45  13  46  13
M  ISO  3  47  13  48  13  49  10
M  END
>  <minimizedAffinity>  (1) 
-6.17796326

>  <minimizedRMSD>  (1) 
2.0385685

$$$$
