
     RDKit          3D

 18 18  0  0  0  0  0  0  0  0999 V2000
   37.3500   29.9350   51.2270 C   0  0  0  0  0  0  0  0  0  0  0  0
   38.1050   30.9130   50.5860 C   0  0  0  0  0  0  0  0  0  0  0  0
   37.5480   31.5840   49.4840 C   0  0  0  0  0  0  0  0  0  0  0  0
   36.2870   31.2270   49.1140 N   0  0  0  0  0  0  0  0  0  0  0  0
   35.5740   30.2690   49.7600 C   0  0  0  0  0  0  0  0  0  0  0  0
   36.1120   29.6400   50.8020 N   0  0  0  0  0  0  0  0  0  0  0  0
   38.0440   29.3790   52.2840 O   0  0  0  0  0  0  0  0  0  0  0  0
   38.2660   32.6210   48.7520 C   0  0  0  0  0  0  0  0  0  0  0  0
   38.9900   33.5130   49.3860 C   0  0  0  0  0  0  0  0  0  0  0  0
   39.7070   34.5580   48.5750 C   0  0  0  0  0  0  0  0  0  0  0  0
   39.1192   31.1562   50.9356 H   0  0  0  0  0  0  0  0  0  0  0  0
   34.5579   30.0144   49.4241 H   0  0  0  0  0  0  0  0  0  0  0  0
   37.6260   28.6676   52.8311 H   0  0  0  0  0  0  0  0  0  0  0  0
   38.1998   32.6559   47.6545 H   0  0  0  0  0  0  0  0  0  0  0  0
   39.0707   33.4972   50.4829 H   0  0  0  0  0  0  0  0  0  0  0  0
   40.1980   35.2736   49.2509 H   0  0  0  0  0  0  0  0  0  0  0  0
   40.4642   34.0741   47.9406 H   0  0  0  0  0  0  0  0  0  0  0  0
   38.9830   35.0903   47.9406 H   0  0  0  0  0  0  0  0  0  0  0  0
  1  7  1  0
  2  1  2  0
  3  2  1  0
  4  3  2  0
  4  5  1  0
  5  6  2  0
  6  1  1  0
  8  9  2  0
  8  3  1  0
 10  9  1  0
  2 11  1  0
  5 12  1  0
  7 13  1  0
  8 14  1  0
  9 15  1  0
 10 16  1  0
 10 17  1  0
 10 18  1  0
M  ISO  6  11  14  12  14  13   3  16   8  17   8  18   8
M  END
>  <minimizedAffinity>  (1) 
-4.57951212

>  <minimizedRMSD>  (1) 
0.539336562

$$$$
