
     RDKit          3D

 33 34  0  0  1  0  0  0  0  0999 V2000
   35.4230   30.2310   48.1590 C   0  0  1  0  0  0  0  0  0  0  0  0
   34.0500   30.5080   47.7490 C   0  0  0  0  0  0  0  0  0  0  0  0
   33.2380   29.3490   47.2470 C   0  0  0  0  0  0  0  0  0  0  0  0
   33.4730   28.0660   47.9390 C   0  0  0  0  0  0  0  0  0  0  0  0
   34.8660   27.7600   48.3780 C   0  0  0  0  0  0  0  0  0  0  0  0
   35.5490   28.9640   48.9480 C   0  0  2  0  0  0  0  0  0  0  0  0
   36.1580   30.3440   45.7420 C   0  0  0  0  0  0  0  0  0  0  0  0
   36.4630   30.3740   47.1160 C   0  0  0  0  0  0  0  0  0  0  0  0
   37.7890   30.5610   47.4550 C   0  0  0  0  0  0  0  0  0  0  0  0
   38.7220   30.7040   46.4560 N   0  0  0  0  0  0  0  0  0  0  0  0
   38.3800   30.6690   45.1520 C   0  0  0  0  0  0  0  0  0  0  0  0
   37.0820   30.4860   44.7950 N   0  0  0  0  0  0  0  0  0  0  0  0
   34.7900   29.2510   50.2320 C   0  0  0  0  0  0  0  0  0  0  0  0
   35.3940   29.5070   51.4110 C   0  0  0  0  0  0  0  0  0  0  0  0
   36.8840   29.4870   51.3790 C   0  0  0  0  0  0  0  0  0  0  0  0
   35.6518   31.0628   48.8415 H   0  0  0  0  0  0  0  0  0  0  0  0
   33.5235   30.9295   48.6180 H   0  0  0  0  0  0  0  0  0  0  0  0
   34.1420   31.1850   46.8869 H   0  0  0  0  0  0  0  0  0  0  0  0
   32.1743   29.6056   47.3593 H   0  0  0  0  0  0  0  0  0  0  0  0
   33.5462   29.1918   46.2028 H   0  0  0  0  0  0  0  0  0  0  0  0
   32.8360   28.0548   48.8357 H   0  0  0  0  0  0  0  0  0  0  0  0
   33.2436   27.2977   47.1860 H   0  0  0  0  0  0  0  0  0  0  0  0
   34.8320   26.9734   49.1462 H   0  0  0  0  0  0  0  0  0  0  0  0
   35.4362   27.4298   47.4972 H   0  0  0  0  0  0  0  0  0  0  0  0
   36.6211   28.7264   49.0121 H   0  0  0  0  0  0  0  0  0  0  0  0
   35.1111   30.1969   45.4382 H   0  0  0  0  0  0  0  0  0  0  0  0
   38.0943   30.5950   48.5112 H   0  0  0  0  0  0  0  0  0  0  0  0
   39.1519   30.7886   44.3775 H   0  0  0  0  0  0  0  0  0  0  0  0
   33.6905   29.2501   50.1989 H   0  0  0  0  0  0  0  0  0  0  0  0
   34.8272   29.7156   52.3303 H   0  0  0  0  0  0  0  0  0  0  0  0
   37.2728   29.4818   52.4080 H   0  0  0  0  0  0  0  0  0  0  0  0
   37.2274   28.5842   50.8527 H   0  0  0  0  0  0  0  0  0  0  0  0
   37.2515   30.3803   50.8527 H   0  0  0  0  0  0  0  0  0  0  0  0
  1  6  1  0
  2  1  1  0
  3  2  1  0
  3  4  1  0
  4  5  1  0
  5  6  1  0
  6 13  1  0
  7  8  2  0
  8  9  1  0
  8  1  1  0
 10  9  2  0
 11 10  1  0
 12 11  2  0
 12  7  1  0
 13 14  2  0
 15 14  1  0
  1 16  1  1
  2 17  1  0
  2 18  1  0
  3 19  1  0
  3 20  1  0
  4 21  1  0
  4 22  1  0
  5 23  1  0
  5 24  1  0
  6 25  1  1
  7 26  1  0
  9 27  1  0
 11 28  1  0
 13 29  1  0
 14 30  1  0
 15 31  1  0
 15 32  1  0
 15 33  1  0
M  ISO  8  16  13  17  13  18  13  19  13  20  13  21  13  22  13  23  13
M  ISO  8  24  13  25  13  26  14  27  14  28  14  31   8  32   8  33   8
M  END
>  <minimizedAffinity>  (1) 
-4.27983379

>  <minimizedRMSD>  (1) 
3.15541387

$$$$
