
     RDKit          3D

 24 24  0  0  0  0  0  0  0  0999 V2000
   37.4090   30.2350   51.3280 C   0  0  0  0  0  0  0  0  0  0  0  0
   37.9490   30.5350   50.0760 C   0  0  0  0  0  0  0  0  0  0  0  0
   37.2690   30.1360   48.9420 C   0  0  0  0  0  0  0  0  0  0  0  0
   36.0930   29.4600   49.0880 N   0  0  0  0  0  0  0  0  0  0  0  0
   35.5910   29.1820   50.3060 C   0  0  0  0  0  0  0  0  0  0  0  0
   36.2480   29.5690   51.4150 N   0  0  0  0  0  0  0  0  0  0  0  0
   37.7780   30.4180   47.6350 C   0  0  0  0  0  0  0  0  0  0  0  0
   38.8150   31.1900   47.4320 C   0  0  0  0  0  0  0  0  0  0  0  0
   39.3660   31.5010   46.0770 C   0  0  0  0  0  0  0  0  0  0  0  0
   39.9170   32.8600   46.0020 C   0  0  0  0  0  0  0  0  0  0  0  0
   40.0480   33.6200   44.9190 C   0  0  0  0  0  0  0  0  0  0  0  0
   39.5960   33.0540   43.6260 C   0  0  0  0  0  0  0  0  0  0  0  0
   37.9355   30.5447   52.2428 H   0  0  0  0  0  0  0  0  0  0  0  0
   38.9008   31.0804   49.9940 H   0  0  0  0  0  0  0  0  0  0  0  0
   34.6400   28.6364   50.3950 H   0  0  0  0  0  0  0  0  0  0  0  0
   37.2773   29.9676   46.7653 H   0  0  0  0  0  0  0  0  0  0  0  0
   39.3095   31.6355   48.3078 H   0  0  0  0  0  0  0  0  0  0  0  0
   40.1650   30.7813   45.8455 H   0  0  0  0  0  0  0  0  0  0  0  0
   38.5416   31.4299   45.3522 H   0  0  0  0  0  0  0  0  0  0  0  0
   40.2606   33.2994   46.9501 H   0  0  0  0  0  0  0  0  0  0  0  0
   40.4760   34.6314   44.9804 H   0  0  0  0  0  0  0  0  0  0  0  0
   38.9196   32.2070   43.8130 H   0  0  0  0  0  0  0  0  0  0  0  0
   39.0647   33.8279   43.0527 H   0  0  0  0  0  0  0  0  0  0  0  0
   40.4683   32.7070   43.0527 H   0  0  0  0  0  0  0  0  0  0  0  0
  1  6  2  0
  2  1  1  0
  3  4  1  0
  3  2  2  0
  4  5  2  0
  5  6  1  0
  7  3  1  0
  8  7  2  0
  9  8  1  0
 10  9  1  0
 11 10  2  0
 12 11  1  0
  1 13  1  0
  2 14  1  0
  5 15  1  0
  7 16  1  0
  8 17  1  0
  9 18  1  0
  9 19  1  0
 10 20  1  0
 11 21  1  0
 12 22  1  0
 12 23  1  0
 12 24  1  0
M  ISO  8  13  14  14  14  15  14  18   8  19   8  22   8  23   8  24   8
M  END
>  <minimizedAffinity>  (1) 
-4.61258745

>  <minimizedRMSD>  (1) 
0.804562151

$$$$
