
     RDKit          3D

 38 39  0  0  1  0  0  0  0  0999 V2000
   37.0730   30.9530   49.0530 C   0  0  0  0  0  0  0  0  0  0  0  0
   36.8360   31.9180   50.0410 C   0  0  0  0  0  0  0  0  0  0  0  0
   37.4460   33.1530   50.0560 C   0  0  0  0  0  0  0  0  0  0  0  0
   38.3460   33.4740   49.0440 C   0  0  0  0  0  0  0  0  0  0  0  0
   38.5770   32.5340   48.0800 C   0  0  0  0  0  0  0  0  0  0  0  0
   37.9560   31.3180   48.0920 C   0  0  0  0  0  0  0  0  0  0  0  0
   36.3780   29.6870   49.1330 C   0  0  0  0  0  0  0  0  0  0  0  0
   36.9090   28.8460   49.9570 O   0  0  0  0  0  0  0  0  0  0  0  0
   33.6050   30.1440   46.8470 C   0  0  0  0  0  0  0  0  0  0  0  0
   32.9490   28.9150   46.8670 C   0  0  0  0  0  0  0  0  0  0  0  0
   33.4610   27.9180   47.6720 C   0  0  0  0  0  0  0  0  0  0  0  0
   34.5720   28.1670   48.4070 N   0  0  0  0  0  0  0  0  0  0  0  0
   35.1890   29.3330   48.3840 C   0  0  0  0  0  0  0  0  0  0  0  0
   34.6880   30.3180   47.5930 N   0  0  0  0  0  0  0  0  0  0  0  0
   38.3050   30.4240   46.9980 C   0  0  0  0  0  0  0  0  0  0  0  0
   38.8930   30.7680   45.8680 C   0  0  0  0  0  0  0  0  0  0  0  0
   39.3060   30.0020   44.6900 C   0  0  0  0  0  0  0  0  0  0  0  0
   39.2530   30.8880   43.4790 C   0  0  0  0  0  0  0  0  0  0  0  0
   39.2550   32.2140   43.5750 C   0  0  0  0  0  0  0  0  0  0  0  0
   39.2030   33.1260   42.4080 C   0  0  0  0  0  0  0  0  0  0  0  0
   36.1263   31.6769   50.8461 H   0  0  0  0  0  0  0  0  0  0  0  0
   37.2251   33.8749   50.8560 H   0  0  0  0  0  0  0  0  0  0  0  0
   38.8532   34.4498   49.0212 H   0  0  0  0  0  0  0  0  0  0  0  0
   39.2846   32.7636   47.2697 H   0  0  0  0  0  0  0  0  0  0  0  0
   37.0073   29.2903   48.3226 H   0  0  0  0  0  0  0  0  0  0  0  0
   36.7268   29.1346   50.8863 H   0  0  0  0  0  0  0  0  0  0  0  0
   33.2279   30.9635   46.2176 H   0  0  0  0  0  0  0  0  0  0  0  0
   32.0487   28.7443   46.2585 H   0  0  0  0  0  0  0  0  0  0  0  0
   32.9733   26.9331   47.7166 H   0  0  0  0  0  0  0  0  0  0  0  0
   38.0548   29.3604   47.1252 H   0  0  0  0  0  0  0  0  0  0  0  0
   39.1174   31.8425   45.7966 H   0  0  0  0  0  0  0  0  0  0  0  0
   40.3331   29.6347   44.8320 H   0  0  0  0  0  0  0  0  0  0  0  0
   38.6290   29.1463   44.5507 H   0  0  0  0  0  0  0  0  0  0  0  0
   39.2112   30.4258   42.4817 H   0  0  0  0  0  0  0  0  0  0  0  0
   39.2978   32.6604   44.5795 H   0  0  0  0  0  0  0  0  0  0  0  0
   39.1436   34.1670   42.7585 H   0  0  0  0  0  0  0  0  0  0  0  0
   40.1101   32.9951   41.7996 H   0  0  0  0  0  0  0  0  0  0  0  0
   38.3167   32.8928   41.7996 H   0  0  0  0  0  0  0  0  0  0  0  0
  1  7  1  0
  1  2  2  0
  2  3  1  0
  4  3  2  0
  5  6  2  0
  5  4  1  0
  6  1  1  0
  7  8  1  0
  9 10  2  0
  9 14  1  0
 10 11  1  0
 11 12  2  0
 13 12  1  0
 13  7  1  0
 14 13  2  0
 15  6  1  0
 16 15  2  0
 17 16  1  0
 18 19  2  0
 18 17  1  0
 20 19  1  0
  2 21  1  0
  3 22  1  0
  4 23  1  0
  5 24  1  0
  7 25  1  0
  8 26  1  0
  9 27  1  0
 10 28  1  0
 11 29  1  0
 15 30  1  0
 16 31  1  0
 17 32  1  0
 17 33  1  0
 18 34  1  0
 19 35  1  0
 20 36  1  0
 20 37  1  0
 20 38  1  0
M  ISO  8  21  14  22  14  23  14  24  14  25   8  26   3  27  14  28  14
M  ISO  6  29  14  32   8  33   8  36   8  37   8  38   8
M  END
>  <minimizedAffinity>  (1) 
-5.54234028

>  <minimizedRMSD>  (1) 
0.585045099

$$$$
