
     RDKit          3D

 27 27  0  0  0  0  0  0  0  0999 V2000
   35.4710   30.1290   47.2700 C   0  0  0  0  0  0  0  0  0  0  0  0
   35.1440   29.4590   48.3650 C   0  0  0  0  0  0  0  0  0  0  0  0
   34.8730   30.1310   49.6880 C   0  0  0  0  0  0  0  0  0  0  0  0
   35.4880   29.3330   50.7700 C   0  0  0  0  0  0  0  0  0  0  0  0
   36.6810   29.5090   51.3130 C   0  0  0  0  0  0  0  0  0  0  0  0
   37.6670   30.5470   50.9530 C   0  0  0  0  0  0  0  0  0  0  0  0
   36.3780   31.0030   47.8440 O   0  0  0  0  0  0  0  0  0  0  0  0
   37.5810   31.1960   47.1790 C   0  0  0  0  0  0  0  0  0  0  0  0
   38.2690   32.3230   47.6270 C   0  0  0  0  0  0  0  0  0  0  0  0
   39.4910   32.6340   47.0460 C   0  0  0  0  0  0  0  0  0  0  0  0
   39.9600   31.8030   46.0470 N   0  0  0  0  0  0  0  0  0  0  0  0
   39.2660   30.7220   45.6390 C   0  0  0  0  0  0  0  0  0  0  0  0
   38.0970   30.4360   46.2060 N   0  0  0  0  0  0  0  0  0  0  0  0
   34.6099   30.6522   46.8287 H   0  0  0  0  0  0  0  0  0  0  0  0
   35.8458   29.5271   46.4290 H   0  0  0  0  0  0  0  0  0  0  0  0
   34.2303   28.8992   48.1165 H   0  0  0  0  0  0  0  0  0  0  0  0
   36.0775   28.9181   48.5796 H   0  0  0  0  0  0  0  0  0  0  0  0
   35.3067   31.1419   49.6835 H   0  0  0  0  0  0  0  0  0  0  0  0
   33.7877   30.2037   49.8517 H   0  0  0  0  0  0  0  0  0  0  0  0
   34.8873   28.5015   51.1671 H   0  0  0  0  0  0  0  0  0  0  0  0
   36.9675   28.8114   52.1138 H   0  0  0  0  0  0  0  0  0  0  0  0
   38.0861   30.9882   51.8694 H   0  0  0  0  0  0  0  0  0  0  0  0
   38.4760   30.0946   50.3607 H   0  0  0  0  0  0  0  0  0  0  0  0
   37.1736   31.3317   50.3607 H   0  0  0  0  0  0  0  0  0  0  0  0
   37.8515   32.9538   48.4256 H   0  0  0  0  0  0  0  0  0  0  0  0
   40.0669   33.5133   47.3705 H   0  0  0  0  0  0  0  0  0  0  0  0
   39.6645   30.0789   44.8405 H   0  0  0  0  0  0  0  0  0  0  0  0
  1  7  1  0
  1  2  1  0
  2  3  1  0
  3  4  1  0
  4  5  2  0
  6  5  1  0
  8  9  2  0
  8  7  1  0
 10  9  1  0
 11 10  2  0
 12 11  1  0
 12 13  2  0
 13  8  1  0
  1 14  1  0
  1 15  1  0
  2 16  1  0
  2 17  1  0
  3 18  1  0
  3 19  1  0
  4 20  1  0
  5 21  1  0
  6 22  1  0
  6 23  1  0
  6 24  1  0
  9 25  1  0
 10 26  1  0
 12 27  1  0
M  ISO  8  14   8  15   8  16   8  17   8  18   8  19   8  22   8  23   8
M  ISO  4  24   8  25  14  26  14  27  14
M  END
>  <minimizedAffinity>  (1) 
-4.21715784

>  <minimizedRMSD>  (1) 
2.54622889

$$$$
