
     RDKit          3D

 31 33  0  0  0  0  0  0  0  0999 V2000
   36.5450   31.2960   48.7180 N   0  0  0  0  0  0  0  0  0  0  0  0
   36.7080   32.1330   49.7360 C   0  0  0  0  0  0  0  0  0  0  0  0
   37.7560   33.0570   49.7190 C   0  0  0  0  0  0  0  0  0  0  0  0
   38.5430   32.9970   48.6020 C   0  0  0  0  0  0  0  0  0  0  0  0
   39.4910   33.8410   48.5980 O   0  0  0  0  0  0  0  0  0  0  0  0
   38.4180   32.1750   47.5550 N   0  0  0  0  0  0  0  0  0  0  0  0
   37.3820   31.3040   47.6350 C   0  0  0  0  0  0  0  0  0  0  0  0
   37.2380   30.5150   46.6640 O   0  0  0  0  0  0  0  0  0  0  0  0
   35.2820   29.5530   49.8230 C   0  0  0  0  0  0  0  0  0  0  0  0
   35.4890   30.3260   48.6740 C   0  0  0  0  0  0  0  0  0  0  0  0
   34.6670   30.1140   47.5640 C   0  0  0  0  0  0  0  0  0  0  0  0
   33.7010   29.1560   47.6600 N   0  0  0  0  0  0  0  0  0  0  0  0
   33.5110   28.4290   48.7490 C   0  0  0  0  0  0  0  0  0  0  0  0
   34.2930   28.6160   49.8350 N   0  0  0  0  0  0  0  0  0  0  0  0
   37.3240   29.1800   51.4010 C   0  0  0  0  0  0  0  0  0  0  0  0
   38.0750   28.5900   50.5980 O   0  0  0  0  0  0  0  0  0  0  0  0
   36.0410   29.6930   51.0150 N   0  0  0  0  0  0  0  0  0  0  0  0
   39.3000   32.2010   46.4390 C   0  0  0  0  0  0  0  0  0  0  0  0
   39.4970   32.9890   45.3220 C   0  0  0  0  0  0  0  0  0  0  0  0
   40.5540   32.4180   44.6520 C   0  0  0  0  0  0  0  0  0  0  0  0
   40.9600   31.3220   45.3690 C   0  0  0  0  0  0  0  0  0  0  0  0
   40.1910   31.2180   46.4320 O   0  0  0  0  0  0  0  0  0  0  0  0
   36.0183   32.0989   50.5922 H   0  0  0  0  0  0  0  0  0  0  0  0
   37.9332   33.7726   50.5354 H   0  0  0  0  0  0  0  0  0  0  0  0
   34.7949   30.7009   46.6425 H   0  0  0  0  0  0  0  0  0  0  0  0
   32.7146   27.6706   48.7704 H   0  0  0  0  0  0  0  0  0  0  0  0
   37.6572   29.3114   52.4410 H   0  0  0  0  0  0  0  0  0  0  0  0
   35.5858   30.2701   51.7366 H   0  0  0  0  0  0  0  0  0  0  0  0
   38.9286   33.8843   45.0298 H   0  0  0  0  0  0  0  0  0  0  0  0
   40.9946   32.7764   43.7099 H   0  0  0  0  0  0  0  0  0  0  0  0
   41.7859   30.6463   45.1019 H   0  0  0  0  0  0  0  0  0  0  0  0
  1  2  1  0
  3  2  2  0
  4  3  1  0
  5  4  2  0
  6  7  1  0
  6  4  1  0
  7  1  1  0
  8  7  2  0
  9 14  2  0
  9 17  1  0
 10  1  1  0
 10  9  1  0
 11 12  1  0
 11 10  2  0
 12 13  2  0
 13 14  1  0
 16 15  2  0
 17 15  1  0
 18  6  1  0
 19 18  2  0
 20 19  1  0
 20 21  2  0
 21 22  1  0
 22 18  1  0
  2 23  1  0
  3 24  1  0
 11 25  1  0
 13 26  1  0
 15 27  1  0
 17 28  1  0
 19 29  1  0
 20 30  1  0
 21 31  1  0
M  ISO  8  23  14  24  14  25  14  26  14  27   6  29  14  30  14  31  14
M  END
>  <minimizedAffinity>  (1) 
-6.26277542

>  <minimizedRMSD>  (1) 
1.00977135

$$$$
