
     RDKit          3D

 28 29  0  0  1  0  0  0  0  0999 V2000
   37.8420   30.9120   48.7810 C   0  0  2  0  0  0  0  0  0  0  0  0
   38.5800   32.1440   48.5150 C   0  0  0  0  0  0  0  0  0  0  0  0
   39.2210   32.7190   47.4600 C   0  0  0  0  0  0  0  0  0  0  0  0
   39.7210   33.9220   47.8940 C   0  0  0  0  0  0  0  0  0  0  0  0
   39.3730   34.0630   49.2080 C   0  0  0  0  0  0  0  0  0  0  0  0
   38.7140   33.0010   49.5070 O   0  0  0  0  0  0  0  0  0  0  0  0
   35.7080   30.1960   47.9830 C   0  0  0  0  0  0  0  0  0  0  0  0
   36.9250   30.5460   47.6820 C   0  0  0  0  0  0  0  0  0  0  0  0
   34.1490   29.6420   44.6500 C   0  0  0  0  0  0  0  0  0  0  0  0
   35.0630   29.9790   45.6380 C   0  0  0  0  0  0  0  0  0  0  0  0
   34.7270   29.8190   46.9890 C   0  0  0  0  0  0  0  0  0  0  0  0
   33.5080   29.3330   47.2850 N   0  0  0  0  0  0  0  0  0  0  0  0
   32.6400   29.0140   46.3130 C   0  0  0  0  0  0  0  0  0  0  0  0
   32.9420   29.1600   45.0240 N   0  0  0  0  0  0  0  0  0  0  0  0
   36.8160   31.1240   50.2910 S   0  0  0  0  0  0  0  0  0  0  0  0
   36.9800   29.6830   51.3540 C   0  0  0  0  0  0  0  0  0  0  0  0
   37.6560   28.6270   50.7460 F   0  0  0  0  0  0  0  0  0  0  0  0
   37.5300   30.0090   52.5790 F   0  0  0  0  0  0  0  0  0  0  0  0
   35.6680   29.2370   51.6300 F   0  0  0  0  0  0  0  0  0  0  0  0
   38.5942   30.1179   48.8976 H   0  0  0  0  0  0  0  0  0  0  0  0
   39.3198   32.2981   46.4485 H   0  0  0  0  0  0  0  0  0  0  0  0
   40.2969   34.6414   47.2933 H   0  0  0  0  0  0  0  0  0  0  0  0
   39.6079   34.9087   49.8711 H   0  0  0  0  0  0  0  0  0  0  0  0
   35.4118   30.1865   49.0423 H   0  0  0  0  0  0  0  0  0  0  0  0
   37.2624   30.5687   46.6353 H   0  0  0  0  0  0  0  0  0  0  0  0
   34.4005   29.7642   43.5861 H   0  0  0  0  0  0  0  0  0  0  0  0
   36.0522   30.3721   45.3606 H   0  0  0  0  0  0  0  0  0  0  0  0
   31.6504   28.6205   46.5885 H   0  0  0  0  0  0  0  0  0  0  0  0
  1 15  1  0
  2  1  1  0
  2  6  1  0
  3  4  1  0
  3  2  2  0
  4  5  2  0
  5  6  1  0
  8  7  2  0
  8  1  1  0
  9 14  2  0
  9 10  1  0
 10 11  2  0
 11 12  1  0
 11  7  1  0
 13 12  2  0
 14 13  1  0
 15 16  1  0
 16 19  1  0
 16 18  1  0
 17 16  1  0
  1 20  1  1
  3 21  1  0
  4 22  1  0
  5 23  1  0
  7 24  1  0
  8 25  1  0
  9 26  1  0
 10 27  1  0
 13 28  1  0
M  ISO  7  20   8  21  14  22  14  23  14  26  14  27  14  28  14
M  END
>  <minimizedAffinity>  (1) 
-5.46191216

>  <minimizedRMSD>  (1) 
4.50878525

$$$$
