
     RDKit          3D

 39 43  0  0  0  0  0  0  0  0999 V2000
   36.3630   30.4200   46.0280 C   0  0  0  0  0  0  0  0  0  0  0  0
   36.8690   30.8380   47.2040 C   0  0  0  0  0  0  0  0  0  0  0  0
   36.2340   30.5200   48.3940 C   0  0  0  0  0  0  0  0  0  0  0  0
   35.0670   29.7620   48.3360 C   0  0  0  0  0  0  0  0  0  0  0  0
   34.5470   29.3300   47.1050 C   0  0  0  0  0  0  0  0  0  0  0  0
   35.2230   29.6810   45.9910 N   0  0  0  0  0  0  0  0  0  0  0  0
   37.0480   30.7610   44.7260 C   0  0  0  0  0  0  0  0  0  0  0  0
   36.7500   29.9210   43.5320 C   0  0  0  0  0  0  0  0  0  0  0  0
   36.2010   31.3120   43.6190 C   0  0  0  0  0  0  0  0  0  0  0  0
   39.7200   33.2830   45.0730 C   0  0  0  0  0  0  0  0  0  0  0  0
   40.8530   32.4810   45.3400 C   0  0  0  0  0  0  0  0  0  0  0  0
   40.6900   31.0690   45.3990 C   0  0  0  0  0  0  0  0  0  0  0  0
   39.4490   30.5870   45.1940 N   0  0  0  0  0  0  0  0  0  0  0  0
   38.3720   31.3680   44.9390 C   0  0  0  0  0  0  0  0  0  0  0  0
   38.5060   32.7040   44.8780 N   0  0  0  0  0  0  0  0  0  0  0  0
   33.3320   28.5370   46.9980 C   0  0  0  0  0  0  0  0  0  0  0  0
   32.9070   27.7090   46.0090 N   0  0  0  0  0  0  0  0  0  0  0  0
   31.7030   27.1780   46.3430 C   0  0  0  0  0  0  0  0  0  0  0  0
   31.3860   27.6990   47.5690 N   0  0  0  0  0  0  0  0  0  0  0  0
   32.3630   28.5130   47.9600 N   0  0  0  0  0  0  0  0  0  0  0  0
   30.2270   27.4830   48.3990 C   0  0  0  0  0  0  0  0  0  0  0  0
   28.9340   27.0350   48.2000 C   0  0  0  0  0  0  0  0  0  0  0  0
   28.3580   27.0830   49.4570 C   0  0  0  0  0  0  0  0  0  0  0  0
   29.3200   27.5540   50.3500 C   0  0  0  0  0  0  0  0  0  0  0  0
   30.4010   27.7730   49.6680 O   0  0  0  0  0  0  0  0  0  0  0  0
   37.7923   31.4357   47.2201 H   0  0  0  0  0  0  0  0  0  0  0  0
   36.6408   30.8573   49.3587 H   0  0  0  0  0  0  0  0  0  0  0  0
   34.5452   29.4979   49.2676 H   0  0  0  0  0  0  0  0  0  0  0  0
   36.0749   29.0572   43.6226 H   0  0  0  0  0  0  0  0  0  0  0  0
   37.3575   29.3704   42.7987 H   0  0  0  0  0  0  0  0  0  0  0  0
   36.5962   32.1024   42.9639 H   0  0  0  0  0  0  0  0  0  0  0  0
   35.1988   31.7605   43.5530 H   0  0  0  0  0  0  0  0  0  0  0  0
   39.8211   34.3772   45.0230 H   0  0  0  0  0  0  0  0  0  0  0  0
   41.8403   32.9392   45.4989 H   0  0  0  0  0  0  0  0  0  0  0  0
   41.5395   30.4006   45.6029 H   0  0  0  0  0  0  0  0  0  0  0  0
   31.1036   26.4723   45.7491 H   0  0  0  0  0  0  0  0  0  0  0  0
   28.4689   26.7134   47.2564 H   0  0  0  0  0  0  0  0  0  0  0  0
   27.3250   26.8000   49.7075 H   0  0  0  0  0  0  0  0  0  0  0  0
   29.1868   27.7105   51.4306 H   0  0  0  0  0  0  0  0  0  0  0  0
  1  2  2  0
  2  3  1  0
  4  3  2  0
  5  4  1  0
  6  1  1  0
  6  5  2  0
  7 14  1  0
  7  1  1  0
  8  9  1  0
  8  7  1  0
  9  7  1  0
 10 11  2  0
 11 12  1  0
 13 12  2  0
 14 13  1  0
 15 14  2  0
 15 10  1  0
 16  5  1  0
 16 20  2  0
 17 18  2  0
 17 16  1  0
 18 19  1  0
 19 20  1  0
 19 21  1  0
 21 25  1  0
 22 21  2  0
 22 23  1  0
 23 24  2  0
 25 24  1  0
  2 26  1  0
  3 27  1  0
  4 28  1  0
  8 29  1  0
  8 30  1  0
  9 31  1  0
  9 32  1  0
 10 33  1  0
 11 34  1  0
 12 35  1  0
 18 36  1  0
 22 37  1  0
 23 38  1  0
 24 39  1  0
M  ISO  8  26  14  27  14  28  14  29  13  30  13  31  13  32  13  33  14
M  ISO  6  34  14  35  14  36  14  37  14  38  14  39  14
M  END
>  <minimizedAffinity>  (1) 
-5.64624882

>  <minimizedRMSD>  (1) 
1.07374835

$$$$
