
     RDKit          3D

 29 31  0  0  0  0  0  0  0  0999 V2000
   38.5690   31.8520   47.8970 C   0  0  0  0  0  0  0  0  0  0  0  0
   38.0860   32.0320   49.1780 C   0  0  0  0  0  0  0  0  0  0  0  0
   38.4970   33.2150   49.8050 C   0  0  0  0  0  0  0  0  0  0  0  0
   39.3310   34.1230   49.1620 C   0  0  0  0  0  0  0  0  0  0  0  0
   39.7720   33.8560   47.8650 C   0  0  0  0  0  0  0  0  0  0  0  0
   39.3790   32.6900   47.2190 C   0  0  0  0  0  0  0  0  0  0  0  0
   35.9150   30.9030   49.4010 C   0  0  0  0  0  0  0  0  0  0  0  0
   37.2250   31.0940   49.8390 C   0  0  0  0  0  0  0  0  0  0  0  0
   37.6470   30.3360   50.9400 C   0  0  0  0  0  0  0  0  0  0  0  0
   36.7610   29.4680   51.5060 N   0  0  0  0  0  0  0  0  0  0  0  0
   35.5050   29.3200   51.0450 C   0  0  0  0  0  0  0  0  0  0  0  0
   35.0800   30.0420   49.9860 N   0  0  0  0  0  0  0  0  0  0  0  0
   38.2140   30.7010   47.1870 O   0  0  0  0  0  0  0  0  0  0  0  0
   39.8430   32.4780   45.9390 O   0  0  0  0  0  0  0  0  0  0  0  0
   39.0610   32.5600   44.7950 C   0  0  0  0  0  0  0  0  0  0  0  0
   39.7690   32.8820   43.6360 C   0  0  0  0  0  0  0  0  0  0  0  0
   38.8300   32.9210   42.6000 C   0  0  0  0  0  0  0  0  0  0  0  0
   37.6200   32.6190   43.2000 C   0  0  0  0  0  0  0  0  0  0  0  0
   37.7910   32.4130   44.4870 O   0  0  0  0  0  0  0  0  0  0  0  0
   38.1529   33.4303   50.8274 H   0  0  0  0  0  0  0  0  0  0  0  0
   39.6414   35.0465   49.6726 H   0  0  0  0  0  0  0  0  0  0  0  0
   40.4327   34.5707   47.3525 H   0  0  0  0  0  0  0  0  0  0  0  0
   35.5558   31.4849   48.5394 H   0  0  0  0  0  0  0  0  0  0  0  0
   38.6675   30.4389   51.3374 H   0  0  0  0  0  0  0  0  0  0  0  0
   34.8225   28.6084   51.5327 H   0  0  0  0  0  0  0  0  0  0  0  0
   38.5545   30.5616   46.2679 H   0  0  0  0  0  0  0  0  0  0  0  0
   40.8500   33.0680   43.5537 H   0  0  0  0  0  0  0  0  0  0  0  0
   39.0135   33.1435   41.5385 H   0  0  0  0  0  0  0  0  0  0  0  0
   36.6548   32.5599   42.6758 H   0  0  0  0  0  0  0  0  0  0  0  0
  1  2  2  0
  2  3  1  0
  2  8  1  0
  4  3  2  0
  5  4  1  0
  6  5  2  0
  6  1  1  0
  7  8  2  0
  7 12  1  0
  8  9  1  0
  9 10  2  0
 11 10  1  0
 12 11  2  0
 13  1  1  0
 14  6  1  0
 15 14  1  0
 16 15  2  0
 17 18  2  0
 17 16  1  0
 18 19  1  0
 19 15  1  0
  3 20  1  0
  4 21  1  0
  5 22  1  0
  7 23  1  0
  9 24  1  0
 11 25  1  0
 13 26  1  0
 16 27  1  0
 17 28  1  0
 18 29  1  0
M  ISO  8  20  14  21  14  22  14  23  14  24  14  25  14  26   3  27  14
M  ISO  2  28  14  29  14
M  END
>  <minimizedAffinity>  (1) 
-6.11266613

>  <minimizedRMSD>  (1) 
0.512416184

$$$$
