
     RDKit          3D

 20 21  0  0  0  0  0  0  0  0999 V2000
   35.6280   29.3740   50.5340 C   0  0  0  0  0  0  0  0  0  0  0  0
   36.1980   30.3050   49.6480 C   0  0  0  0  0  0  0  0  0  0  0  0
   35.7030   30.3770   48.3410 C   0  0  0  0  0  0  0  0  0  0  0  0
   34.6880   29.5400   47.9850 N   0  0  0  0  0  0  0  0  0  0  0  0
   34.1610   28.6550   48.8650 C   0  0  0  0  0  0  0  0  0  0  0  0
   34.6210   28.5710   50.1150 N   0  0  0  0  0  0  0  0  0  0  0  0
   33.0740   27.7430   48.5230 C   0  0  0  0  0  0  0  0  0  0  0  0
   33.1820   26.6390   47.7010 C   0  0  0  0  0  0  0  0  0  0  0  0
   31.9210   26.0760   47.6590 C   0  0  0  0  0  0  0  0  0  0  0  0
   31.1030   26.8560   48.4520 C   0  0  0  0  0  0  0  0  0  0  0  0
   31.8390   27.8220   48.9340 O   0  0  0  0  0  0  0  0  0  0  0  0
   37.3100   31.1730   50.1480 C   0  0  0  0  0  0  0  0  0  0  0  0
   38.3660   31.2040   49.2150 F   0  0  0  0  0  0  0  0  0  0  0  0
   36.8380   32.4550   50.2620 F   0  0  0  0  0  0  0  0  0  0  0  0
   37.8260   30.7450   51.3430 F   0  0  0  0  0  0  0  0  0  0  0  0
   35.9995   29.2978   51.5665 H   0  0  0  0  0  0  0  0  0  0  0  0
   36.1231   31.0920   47.6183 H   0  0  0  0  0  0  0  0  0  0  0  0
   34.0857   26.2814   47.1858 H   0  0  0  0  0  0  0  0  0  0  0  0
   31.6247   25.1764   47.0996 H   0  0  0  0  0  0  0  0  0  0  0  0
   30.0317   26.6943   48.6424 H   0  0  0  0  0  0  0  0  0  0  0  0
  2 12  1  0
  2  1  2  0
  3  2  1  0
  4  3  2  0
  4  5  1  0
  5  6  2  0
  6  1  1  0
  7  5  1  0
  7 11  1  0
  8  7  2  0
  9  8  1  0
  9 10  2  0
 10 11  1  0
 12 14  1  0
 12 15  1  0
 13 12  1  0
  1 16  1  0
  3 17  1  0
  8 18  1  0
  9 19  1  0
 10 20  1  0
M  ISO  5  16  14  17  14  18  14  19  14  20  14
M  END
>  <minimizedAffinity>  (1) 
-4.96344948

>  <minimizedRMSD>  (1) 
1.05974746

$$$$
