
     RDKit          3D

 27 29  0  0  0  0  0  0  0  0999 V2000
   38.0560   33.3430   49.6110 Cl  0  0  0  0  0  0  0  0  0  0  0  0
   38.4940   32.5020   48.1530 C   0  0  0  0  0  0  0  0  0  0  0  0
   38.0650   31.2050   47.9450 C   0  0  0  0  0  0  0  0  0  0  0  0
   38.4460   30.5900   46.7660 C   0  0  0  0  0  0  0  0  0  0  0  0
   39.2210   31.2140   45.8170 C   0  0  0  0  0  0  0  0  0  0  0  0
   39.6300   32.5180   46.0670 C   0  0  0  0  0  0  0  0  0  0  0  0
   40.6210   33.3100   44.8500 Cl  0  0  0  0  0  0  0  0  0  0  0  0
   39.2740   33.1770   47.2340 C   0  0  0  0  0  0  0  0  0  0  0  0
   37.0410   29.3530   51.0890 C   0  0  0  0  0  0  0  0  0  0  0  0
   37.8180   29.9560   50.0870 C   0  0  0  0  0  0  0  0  0  0  0  0
   37.2490   30.5850   48.9740 C   0  0  0  0  0  0  0  0  0  0  0  0
   35.8980   30.5770   48.9200 N   0  0  0  0  0  0  0  0  0  0  0  0
   35.1610   29.9960   49.8860 C   0  0  0  0  0  0  0  0  0  0  0  0
   35.7200   29.3970   50.9460 N   0  0  0  0  0  0  0  0  0  0  0  0
   39.6120   30.5460   44.5800 C   0  0  0  0  0  0  0  0  0  0  0  0
   38.8900   29.5300   43.9870 C   0  0  0  0  0  0  0  0  0  0  0  0
   39.5350   29.1220   42.8320 C   0  0  0  0  0  0  0  0  0  0  0  0
   40.6540   29.9440   42.7890 C   0  0  0  0  0  0  0  0  0  0  0  0
   40.6500   30.7530   43.8290 O   0  0  0  0  0  0  0  0  0  0  0  0
   38.1148   29.5577   46.5797 H   0  0  0  0  0  0  0  0  0  0  0  0
   39.6037   34.2093   47.4229 H   0  0  0  0  0  0  0  0  0  0  0  0
   37.5065   28.8639   51.9574 H   0  0  0  0  0  0  0  0  0  0  0  0
   38.9138   29.9331   50.1803 H   0  0  0  0  0  0  0  0  0  0  0  0
   34.0644   30.0139   49.8019 H   0  0  0  0  0  0  0  0  0  0  0  0
   37.9490   29.1101   44.3720 H   0  0  0  0  0  0  0  0  0  0  0  0
   39.2346   28.3379   42.1214 H   0  0  0  0  0  0  0  0  0  0  0  0
   41.4261   29.9227   42.0058 H   0  0  0  0  0  0  0  0  0  0  0  0
  2  1  1  0
  3  2  2  0
  3 11  1  0
  4  3  1  0
  5  6  1  0
  5  4  2  0
  6  8  2  0
  7  6  1  0
  8  2  1  0
 10  9  2  0
 11 10  1  0
 12 11  2  0
 12 13  1  0
 13 14  2  0
 14  9  1  0
 15  5  1  0
 16 15  2  0
 17 16  1  0
 18 17  2  0
 18 19  1  0
 19 15  1  0
  4 20  1  0
  8 21  1  0
  9 22  1  0
 10 23  1  0
 13 24  1  0
 16 25  1  0
 17 26  1  0
 18 27  1  0
M  ISO  8  20  14  21  14  22  14  23  14  24  14  25  14  26  14  27  14
M  END
>  <minimizedAffinity>  (1) 
-6.40871143

>  <minimizedRMSD>  (1) 
0.210637301

$$$$
