
     RDKit          3D

 20 21  0  0  0  0  0  0  0  0999 V2000
   37.3690   31.0480   48.7420 C   0  0  0  0  0  0  0  0  0  0  0  0
   37.8980   32.2640   49.2330 C   0  0  0  0  0  0  0  0  0  0  0  0
   38.8750   32.9060   48.4660 C   0  0  0  0  0  0  0  0  0  0  0  0
   39.2520   32.3230   47.3040 N   0  0  0  0  0  0  0  0  0  0  0  0
   38.7360   31.1620   46.8520 C   0  0  0  0  0  0  0  0  0  0  0  0
   37.7900   30.5400   47.5920 N   0  0  0  0  0  0  0  0  0  0  0  0
   36.3480   30.3670   49.5310 C   0  0  0  0  0  0  0  0  0  0  0  0
   36.5210   29.6800   50.7140 C   0  0  0  0  0  0  0  0  0  0  0  0
   35.2870   29.2000   51.1080 C   0  0  0  0  0  0  0  0  0  0  0  0
   34.4040   29.6270   50.1250 C   0  0  0  0  0  0  0  0  0  0  0  0
   35.0600   30.3050   49.2210 O   0  0  0  0  0  0  0  0  0  0  0  0
   39.4440   34.1840   48.9640 C   0  0  0  0  0  0  0  0  0  0  0  0
   39.9180   33.9310   50.2110 F   0  0  0  0  0  0  0  0  0  0  0  0
   40.4760   34.6530   48.1860 F   0  0  0  0  0  0  0  0  0  0  0  0
   38.4650   35.1820   49.0430 F   0  0  0  0  0  0  0  0  0  0  0  0
   37.5525   32.6905   50.1863 H   0  0  0  0  0  0  0  0  0  0  0  0
   39.0777   30.7293   45.9002 H   0  0  0  0  0  0  0  0  0  0  0  0
   37.4720   29.5393   51.2486 H   0  0  0  0  0  0  0  0  0  0  0  0
   35.0544   28.6081   52.0055 H   0  0  0  0  0  0  0  0  0  0  0  0
   33.3226   29.4261   50.1098 H   0  0  0  0  0  0  0  0  0  0  0  0
  1  2  2  0
  1  7  1  0
  3 12  1  0
  3  2  1  0
  4  3  2  0
  5  4  1  0
  5  6  2  0
  6  1  1  0
  7  8  2  0
  8  9  1  0
 10  9  2  0
 11  7  1  0
 11 10  1  0
 12 15  1  0
 12 13  1  0
 14 12  1  0
  2 16  1  0
  5 17  1  0
  8 18  1  0
  9 19  1  0
 10 20  1  0
M  ISO  5  16  14  17  14  18  14  19  14  20  14
M  END
>  <minimizedAffinity>  (1) 
-5.24984074

>  <minimizedRMSD>  (1) 
3.7856257

$$$$
