
     RDKit          3D

 24 26  0  0  0  0  0  0  0  0999 V2000
   37.7810   31.3590   48.3270 C   0  0  0  0  0  0  0  0  0  0  0  0
   38.7390   32.2870   48.2900 C   0  0  0  0  0  0  0  0  0  0  0  0
   39.1740   32.8110   47.1330 C   0  0  0  0  0  0  0  0  0  0  0  0
   38.5660   32.3270   45.9800 C   0  0  0  0  0  0  0  0  0  0  0  0
   37.3600   31.1030   46.6420 S   0  0  0  0  0  0  0  0  0  0  0  0
   37.0890   29.8410   51.6980 C   0  0  0  0  0  0  0  0  0  0  0  0
   37.7750   30.5400   50.6870 C   0  0  0  0  0  0  0  0  0  0  0  0
   37.1540   30.6560   49.4390 C   0  0  0  0  0  0  0  0  0  0  0  0
   35.9420   30.1020   49.2540 N   0  0  0  0  0  0  0  0  0  0  0  0
   35.3080   29.4380   50.2400 C   0  0  0  0  0  0  0  0  0  0  0  0
   35.8750   29.3100   51.4450 N   0  0  0  0  0  0  0  0  0  0  0  0
   38.6980   32.5810   44.5660 C   0  0  0  0  0  0  0  0  0  0  0  0
   37.5990   32.4200   43.7660 C   0  0  0  0  0  0  0  0  0  0  0  0
   38.0070   32.7270   42.4660 C   0  0  0  0  0  0  0  0  0  0  0  0
   39.3480   33.0490   42.6290 C   0  0  0  0  0  0  0  0  0  0  0  0
   39.7390   32.9560   43.8870 O   0  0  0  0  0  0  0  0  0  0  0  0
   39.1850   32.6325   49.2343 H   0  0  0  0  0  0  0  0  0  0  0  0
   39.9632   33.5765   47.0992 H   0  0  0  0  0  0  0  0  0  0  0  0
   37.5425   29.7278   52.6937 H   0  0  0  0  0  0  0  0  0  0  0  0
   38.7660   30.9802   50.8721 H   0  0  0  0  0  0  0  0  0  0  0  0
   34.3173   28.9981   50.0530 H   0  0  0  0  0  0  0  0  0  0  0  0
   36.5927   32.1099   44.0843 H   0  0  0  0  0  0  0  0  0  0  0  0
   37.4124   32.7164   41.5406 H   0  0  0  0  0  0  0  0  0  0  0  0
   40.0102   33.3479   41.8031 H   0  0  0  0  0  0  0  0  0  0  0  0
  1  8  1  0
  2  1  2  0
  3  2  1  0
  4  5  1  0
  4  3  2  0
  5  1  1  0
  7  6  2  0
  8  7  1  0
  9  8  2  0
  9 10  1  0
 10 11  2  0
 11  6  1  0
 12  4  1  0
 13 12  2  0
 14 15  2  0
 14 13  1  0
 15 16  1  0
 16 12  1  0
  2 17  1  0
  3 18  1  0
  6 19  1  0
  7 20  1  0
 10 21  1  0
 13 22  1  0
 14 23  1  0
 15 24  1  0
M  ISO  8  17  14  18  14  19  14  20  14  21  14  22  14  23  14  24  14
M  END
>  <minimizedAffinity>  (1) 
-5.24983311

>  <minimizedRMSD>  (1) 
0.770725429

$$$$
