
     RDKit          3D

 33 35  0  0  1  0  0  0  0  0999 V2000
   35.4050   30.1550   49.8820 C   0  0  2  0  0  0  0  0  0  0  0  0
   36.2960   31.1820   49.2220 C   0  0  0  0  0  0  0  0  0  0  0  0
   37.7550   30.8850   49.3890 C   0  0  2  0  0  0  0  0  0  0  0  0
   38.1730   30.6760   50.8160 C   0  0  0  0  0  0  0  0  0  0  0  0
   37.1880   29.8830   51.6190 C   0  0  0  0  0  0  0  0  0  0  0  0
   36.1430   29.2050   50.7590 C   0  0  0  0  0  0  0  0  0  0  0  0
   34.6960   29.3520   48.8380 C   0  0  0  0  0  0  0  0  0  0  0  0
   34.3170   30.0470   47.6740 C   0  0  0  0  0  0  0  0  0  0  0  0
   33.6450   29.3100   46.6910 C   0  0  0  0  0  0  0  0  0  0  0  0
   33.3940   27.9750   46.9070 N   0  0  0  0  0  0  0  0  0  0  0  0
   33.7820   27.3470   48.0530 C   0  0  0  0  0  0  0  0  0  0  0  0
   34.4230   28.0360   48.9980 N   0  0  0  0  0  0  0  0  0  0  0  0
   38.4970   32.0810   48.8680 C   0  0  0  0  0  0  0  0  0  0  0  0
   38.6940   33.2670   49.5700 C   0  0  0  0  0  0  0  0  0  0  0  0
   39.4240   34.0990   48.7250 C   0  0  0  0  0  0  0  0  0  0  0  0
   39.6270   33.3660   47.5540 C   0  0  0  0  0  0  0  0  0  0  0  0
   39.0700   32.1930   47.6810 O   0  0  0  0  0  0  0  0  0  0  0  0
   34.7027   30.7242   50.5088 H   0  0  0  0  0  0  0  0  0  0  0  0
   36.0855   32.1660   49.6663 H   0  0  0  0  0  0  0  0  0  0  0  0
   36.0776   31.1630   48.1441 H   0  0  0  0  0  0  0  0  0  0  0  0
   37.9745   29.9504   48.8521 H   0  0  0  0  0  0  0  0  0  0  0  0
   39.1356   30.1436   50.8221 H   0  0  0  0  0  0  0  0  0  0  0  0
   38.2423   31.6705   51.2810 H   0  0  0  0  0  0  0  0  0  0  0  0
   37.7335   29.1121   52.1830 H   0  0  0  0  0  0  0  0  0  0  0  0
   36.6648   30.5827   52.2873 H   0  0  0  0  0  0  0  0  0  0  0  0
   35.4197   28.7020   51.4177 H   0  0  0  0  0  0  0  0  0  0  0  0
   36.6672   28.4929   50.1047 H   0  0  0  0  0  0  0  0  0  0  0  0
   34.5379   31.1166   47.5430 H   0  0  0  0  0  0  0  0  0  0  0  0
   33.3217   29.7930   45.7571 H   0  0  0  0  0  0  0  0  0  0  0  0
   33.5676   26.2778   48.1975 H   0  0  0  0  0  0  0  0  0  0  0  0
   38.3439   33.4998   50.5865 H   0  0  0  0  0  0  0  0  0  0  0  0
   39.7692   35.1218   48.9363 H   0  0  0  0  0  0  0  0  0  0  0  0
   40.1701   33.7210   46.6658 H   0  0  0  0  0  0  0  0  0  0  0  0
  1  6  1  0
  2  3  1  0
  2  1  1  0
  3  4  1  0
  4  5  1  0
  6  5  1  0
  7 12  1  0
  7  1  1  0
  8  7  2  0
  9 10  2  0
  9  8  1  0
 10 11  1  0
 11 12  2  0
 13  3  1  0
 13 14  2  0
 15 14  1  0
 16 17  1  0
 16 15  2  0
 17 13  1  0
  1 18  1  1
  2 19  1  0
  2 20  1  0
  3 21  1  6
  4 22  1  0
  4 23  1  0
  5 24  1  0
  5 25  1  0
  6 26  1  0
  6 27  1  0
  8 28  1  0
  9 29  1  0
 11 30  1  0
 14 31  1  0
 15 32  1  0
 16 33  1  0
M  ISO  8  18  13  19  13  20  13  21  13  22  13  23  13  24  13  25  13
M  ISO  8  26  13  27  13  28  14  29  14  30  14  31  14  32  14  33  14
M  END
>  <minimizedAffinity>  (1) 
-6.23035812

>  <minimizedRMSD>  (1) 
0.423795193

$$$$
