
     RDKit          3D

 27 29  0  0  0  0  0  0  0  0999 V2000
   38.3750   32.0160   47.1900 C   0  0  0  0  0  0  0  0  0  0  0  0
   38.8940   32.9540   48.0690 C   0  0  0  0  0  0  0  0  0  0  0  0
   38.4950   33.1480   49.3680 C   0  0  0  0  0  0  0  0  0  0  0  0
   37.4970   32.3340   49.8160 N   0  0  0  0  0  0  0  0  0  0  0  0
   36.9690   31.4080   48.9780 C   0  0  0  0  0  0  0  0  0  0  0  0
   37.3990   31.2610   47.7140 N   0  0  0  0  0  0  0  0  0  0  0  0
   38.4710   32.3730   43.5900 C   0  0  0  0  0  0  0  0  0  0  0  0
   39.6850   31.7850   43.1960 C   0  0  0  0  0  0  0  0  0  0  0  0
   40.4810   31.2490   44.2450 C   0  0  0  0  0  0  0  0  0  0  0  0
   40.0400   31.3360   45.5160 N   0  0  0  0  0  0  0  0  0  0  0  0
   38.8780   31.9070   45.8260 C   0  0  0  0  0  0  0  0  0  0  0  0
   38.0460   32.4480   44.8790 N   0  0  0  0  0  0  0  0  0  0  0  0
   40.0860   31.7290   41.8410 N   0  0  0  0  0  0  0  0  0  0  0  0
   35.8980   30.4850   49.3490 C   0  0  0  0  0  0  0  0  0  0  0  0
   36.1670   29.1310   49.3090 C   0  0  0  0  0  0  0  0  0  0  0  0
   34.9910   28.4940   49.7040 C   0  0  0  0  0  0  0  0  0  0  0  0
   34.0770   29.5060   49.9620 C   0  0  0  0  0  0  0  0  0  0  0  0
   34.6480   30.6780   49.7410 O   0  0  0  0  0  0  0  0  0  0  0  0
   39.6988   33.6017   47.6911 H   0  0  0  0  0  0  0  0  0  0  0  0
   38.9533   33.9149   50.0097 H   0  0  0  0  0  0  0  0  0  0  0  0
   37.8253   32.7985   42.8077 H   0  0  0  0  0  0  0  0  0  0  0  0
   41.4453   30.7690   44.0222 H   0  0  0  0  0  0  0  0  0  0  0  0
   40.9827   31.2905   41.5870 H   0  0  0  0  0  0  0  0  0  0  0  0
   39.4813   32.1267   41.1081 H   0  0  0  0  0  0  0  0  0  0  0  0
   37.1155   28.6525   49.0237 H   0  0  0  0  0  0  0  0  0  0  0  0
   34.8223   27.4107   49.7929 H   0  0  0  0  0  0  0  0  0  0  0  0
   33.0402   29.3566   50.2977 H   0  0  0  0  0  0  0  0  0  0  0  0
  1  6  1  0
  1  2  2  0
  2  3  1  0
  3  4  2  0
  5 14  1  0
  5  4  1  0
  6  5  2  0
  7 12  2  0
  8  7  1  0
  8  9  2  0
  9 10  1  0
 10 11  2  0
 11  1  1  0
 12 11  1  0
 13  8  1  0
 14 18  1  0
 15 14  2  0
 15 16  1  0
 16 17  2  0
 18 17  1  0
  2 19  1  0
  3 20  1  0
  7 21  1  0
  9 22  1  0
 13 23  1  0
 13 24  1  0
 15 25  1  0
 16 26  1  0
 17 27  1  0
M  ISO  7  19  14  20  14  21  14  22  14  25  14  26  14  27  14
M  END
>  <minimizedAffinity>  (1) 
-5.95373678

>  <minimizedRMSD>  (1) 
6.48315811

$$$$
