
     RDKit          3D

 32 35  0  0  0  0  0  0  0  0999 V2000
   36.0310   30.1350   48.7870 C   0  0  0  0  0  0  0  0  0  0  0  0
   35.9840   29.1040   49.6280 C   0  0  0  0  0  0  0  0  0  0  0  0
   34.8960   28.2580   49.5940 C   0  0  0  0  0  0  0  0  0  0  0  0
   33.9330   28.5540   48.6780 C   0  0  0  0  0  0  0  0  0  0  0  0
   34.5860   30.0440   47.8650 S   0  0  0  0  0  0  0  0  0  0  0  0
   38.0190   33.1220   49.4290 C   0  0  0  0  0  0  0  0  0  0  0  0
   38.9780   33.1020   48.4000 C   0  0  0  0  0  0  0  0  0  0  0  0
   38.9340   32.0380   47.4710 C   0  0  0  0  0  0  0  0  0  0  0  0
   37.9630   31.0880   47.6230 N   0  0  0  0  0  0  0  0  0  0  0  0
   37.0730   31.1660   48.6320 C   0  0  0  0  0  0  0  0  0  0  0  0
   37.0730   32.1540   49.5390 N   0  0  0  0  0  0  0  0  0  0  0  0
   32.6760   27.8510   48.4040 C   0  0  0  0  0  0  0  0  0  0  0  0
   32.5880   27.0530   47.3050 C   0  0  0  0  0  0  0  0  0  0  0  0
   31.3830   26.4160   47.0980 C   0  0  0  0  0  0  0  0  0  0  0  0
   30.3300   26.5650   47.9370 N   0  0  0  0  0  0  0  0  0  0  0  0
   30.5280   27.3830   48.9990 C   0  0  0  0  0  0  0  0  0  0  0  0
   31.6740   28.0410   49.2700 N   0  0  0  0  0  0  0  0  0  0  0  0
   29.3720   27.5250   49.8850 C   0  0  0  0  0  0  0  0  0  0  0  0
   28.4230   28.5200   49.7690 C   0  0  0  0  0  0  0  0  0  0  0  0
   27.5040   28.3130   50.7780 C   0  0  0  0  0  0  0  0  0  0  0  0
   27.9270   27.1940   51.4770 C   0  0  0  0  0  0  0  0  0  0  0  0
   29.0310   26.7770   50.9030 O   0  0  0  0  0  0  0  0  0  0  0  0
   36.8031   28.9293   50.3411 H   0  0  0  0  0  0  0  0  0  0  0  0
   34.8107   27.3932   50.2684 H   0  0  0  0  0  0  0  0  0  0  0  0
   38.0358   33.9417   50.1624 H   0  0  0  0  0  0  0  0  0  0  0  0
   39.7399   33.8915   48.3208 H   0  0  0  0  0  0  0  0  0  0  0  0
   39.6613   31.9760   46.6481 H   0  0  0  0  0  0  0  0  0  0  0  0
   33.4359   26.9228   46.6164 H   0  0  0  0  0  0  0  0  0  0  0  0
   31.2726   25.7631   46.2197 H   0  0  0  0  0  0  0  0  0  0  0  0
   28.4027   29.3231   49.0176 H   0  0  0  0  0  0  0  0  0  0  0  0
   26.6097   28.9187   50.9865 H   0  0  0  0  0  0  0  0  0  0  0  0
   27.4313   26.7409   52.3482 H   0  0  0  0  0  0  0  0  0  0  0  0
  1  2  2  0
  3  2  1  0
  4  3  2  0
  5  4  1  0
  5  1  1  0
  6 11  2  0
  7  6  1  0
  8  9  1  0
  8  7  2  0
  9 10  2  0
 10  1  1  0
 10 11  1  0
 12  4  1  0
 12 17  1  0
 13 12  2  0
 14 13  1  0
 14 15  2  0
 15 16  1  0
 16 17  2  0
 16 18  1  0
 18 22  1  0
 19 18  2  0
 19 20  1  0
 20 21  2  0
 22 21  1  0
  2 23  1  0
  3 24  1  0
  6 25  1  0
  7 26  1  0
  8 27  1  0
 13 28  1  0
 14 29  1  0
 19 30  1  0
 20 31  1  0
 21 32  1  0
M  ISO  8  23  14  24  14  25  14  26  14  27  14  28  14  29  14  30  14
M  ISO  2  31  14  32  14
M  END
>  <minimizedAffinity>  (1) 
-6.8268404

>  <minimizedRMSD>  (1) 
0.850333095

$$$$
