
     RDKit          3D

 33 35  0  0  1  0  0  0  0  0999 V2000
   34.7700   30.5820   48.7920 C   0  0  1  0  0  0  0  0  0  0  0  0
   34.1520   30.2460   47.5150 C   0  0  0  0  0  0  0  0  0  0  0  0
   34.2570   28.8200   47.0530 C   0  0  0  0  0  0  0  0  0  0  0  0
   34.2120   27.7760   48.1040 C   0  0  1  0  0  0  0  0  0  0  0  0
   34.7730   28.1240   49.4340 C   0  0  0  0  0  0  0  0  0  0  0  0
   34.5260   29.5370   49.8410 C   0  0  0  0  0  0  0  0  0  0  0  0
   36.9500   30.9500   47.5770 C   0  0  0  0  0  0  0  0  0  0  0  0
   36.1800   31.0380   48.7480 C   0  0  0  0  0  0  0  0  0  0  0  0
   36.7940   31.5830   49.8570 C   0  0  0  0  0  0  0  0  0  0  0  0
   38.0940   32.0030   49.7750 N   0  0  0  0  0  0  0  0  0  0  0  0
   38.8010   31.8980   48.6190 C   0  0  0  0  0  0  0  0  0  0  0  0
   38.2130   31.3650   47.5180 N   0  0  0  0  0  0  0  0  0  0  0  0
   32.8630   27.1510   48.1500 C   0  0  0  0  0  0  0  0  0  0  0  0
   31.7180   27.7070   48.7120 C   0  0  0  0  0  0  0  0  0  0  0  0
   30.6680   26.8250   48.5580 C   0  0  0  0  0  0  0  0  0  0  0  0
   31.2120   25.7540   47.9040 C   0  0  0  0  0  0  0  0  0  0  0  0
   32.4640   25.9680   47.6840 O   0  0  0  0  0  0  0  0  0  0  0  0
   34.2336   31.4930   49.0959 H   0  0  0  0  0  0  0  0  0  0  0  0
   33.0823   30.4909   47.5909 H   0  0  0  0  0  0  0  0  0  0  0  0
   34.7129   30.8270   46.7681 H   0  0  0  0  0  0  0  0  0  0  0  0
   33.4238   28.6317   46.3599 H   0  0  0  0  0  0  0  0  0  0  0  0
   35.2568   28.7344   46.6024 H   0  0  0  0  0  0  0  0  0  0  0  0
   34.9419   27.0171   47.7857 H   0  0  0  0  0  0  0  0  0  0  0  0
   34.3185   27.4621   50.1859 H   0  0  0  0  0  0  0  0  0  0  0  0
   35.8634   27.9968   49.3647 H   0  0  0  0  0  0  0  0  0  0  0  0
   35.1823   29.7596   50.6952 H   0  0  0  0  0  0  0  0  0  0  0  0
   33.4512   29.5939   50.0681 H   0  0  0  0  0  0  0  0  0  0  0  0
   36.4915   30.5215   46.6736 H   0  0  0  0  0  0  0  0  0  0  0  0
   36.2410   31.6795   50.8030 H   0  0  0  0  0  0  0  0  0  0  0  0
   39.8445   32.2433   48.5760 H   0  0  0  0  0  0  0  0  0  0  0  0
   31.6593   28.6909   49.2003 H   0  0  0  0  0  0  0  0  0  0  0  0
   29.6265   26.9543   48.8875 H   0  0  0  0  0  0  0  0  0  0  0  0
   30.6638   24.8468   47.6101 H   0  0  0  0  0  0  0  0  0  0  0  0
  1  6  1  0
  2  1  1  0
  3  2  1  0
  3  4  1  0
  4 13  1  0
  4  5  1  0
  5  6  1  0
  7  8  2  0
  8  1  1  0
  8  9  1  0
 10  9  2  0
 11 10  1  0
 12  7  1  0
 12 11  2  0
 13 14  2  0
 15 14  1  0
 16 15  2  0
 17 16  1  0
 17 13  1  0
  1 18  1  1
  2 19  1  0
  2 20  1  0
  3 21  1  0
  3 22  1  0
  4 23  1  6
  5 24  1  0
  5 25  1  0
  6 26  1  0
  6 27  1  0
  7 28  1  0
  9 29  1  0
 11 30  1  0
 14 31  1  0
 15 32  1  0
 16 33  1  0
M  ISO  8  18  13  19  13  20  13  21  13  22  13  23  13  24  13  25  13
M  ISO  8  26  13  27  13  28  14  29  14  30  14  31  14  32  14  33  14
M  END
>  <minimizedAffinity>  (1) 
-5.21248484

>  <minimizedRMSD>  (1) 
1.46483624

$$$$
