
     RDKit          3D

 38 41  0  0  0  0  0  0  0  0999 V2000
   35.3700   28.7990   49.1110 C   0  0  0  0  0  0  0  0  0  0  0  0
   35.2990   29.9830   48.3620 C   0  0  0  0  0  0  0  0  0  0  0  0
   34.2100   30.1440   47.5100 C   0  0  0  0  0  0  0  0  0  0  0  0
   33.2770   29.1620   47.4430 N   0  0  0  0  0  0  0  0  0  0  0  0
   33.3710   28.0460   48.1690 C   0  0  0  0  0  0  0  0  0  0  0  0
   34.4290   27.8390   49.0250 N   0  0  0  0  0  0  0  0  0  0  0  0
   36.3370   30.9410   48.5160 N   0  0  0  0  0  0  0  0  0  0  0  0
   36.5260   31.6060   49.6620 C   0  0  0  0  0  0  0  0  0  0  0  0
   37.5590   32.5300   49.7530 C   0  0  0  0  0  0  0  0  0  0  0  0
   38.3120   32.6830   48.6350 C   0  0  0  0  0  0  0  0  0  0  0  0
   39.2600   33.5210   48.6950 O   0  0  0  0  0  0  0  0  0  0  0  0
   38.1570   32.0470   47.4900 N   0  0  0  0  0  0  0  0  0  0  0  0
   37.1300   31.1400   47.4250 C   0  0  0  0  0  0  0  0  0  0  0  0
   36.9660   30.5220   46.3380 O   0  0  0  0  0  0  0  0  0  0  0  0
   32.4120   27.0300   48.1030 O   0  0  0  0  0  0  0  0  0  0  0  0
   31.0950   27.4380   48.2810 C   0  0  0  0  0  0  0  0  0  0  0  0
   30.7810   27.7540   49.5890 C   0  0  0  0  0  0  0  0  0  0  0  0
   29.5070   28.1770   49.9210 C   0  0  0  0  0  0  0  0  0  0  0  0
   28.5420   28.2780   48.9070 C   0  0  0  0  0  0  0  0  0  0  0  0
   28.8730   27.9590   47.6150 C   0  0  0  0  0  0  0  0  0  0  0  0
   30.1290   27.5470   47.3060 C   0  0  0  0  0  0  0  0  0  0  0  0
   30.5220   27.2010   45.9590 C   0  0  0  0  0  0  0  0  0  0  0  0
   30.3090   25.9580   45.3720 C   0  0  0  0  0  0  0  0  0  0  0  0
   30.8110   25.9870   44.0860 C   0  0  0  0  0  0  0  0  0  0  0  0
   31.3110   27.2440   43.9330 C   0  0  0  0  0  0  0  0  0  0  0  0
   31.1150   27.8920   45.0450 O   0  0  0  0  0  0  0  0  0  0  0  0
   36.2219   28.6497   49.7907 H   0  0  0  0  0  0  0  0  0  0  0  0
   34.1078   31.0539   46.9004 H   0  0  0  0  0  0  0  0  0  0  0  0
   35.8687   31.4223   50.5247 H   0  0  0  0  0  0  0  0  0  0  0  0
   37.7540   33.1011   50.6727 H   0  0  0  0  0  0  0  0  0  0  0  0
   38.7757   32.2225   46.6855 H   0  0  0  0  0  0  0  0  0  0  0  0
   31.5495   27.6685   50.3713 H   0  0  0  0  0  0  0  0  0  0  0  0
   29.2544   28.4298   50.9613 H   0  0  0  0  0  0  0  0  0  0  0  0
   27.5222   28.6124   49.1481 H   0  0  0  0  0  0  0  0  0  0  0  0
   28.1144   28.0376   46.8224 H   0  0  0  0  0  0  0  0  0  0  0  0
   29.8222   25.0962   45.8519 H   0  0  0  0  0  0  0  0  0  0  0  0
   30.8077   25.1725   43.3467 H   0  0  0  0  0  0  0  0  0  0  0  0
   31.7953   27.6420   43.0291 H   0  0  0  0  0  0  0  0  0  0  0  0
  2  7  1  0
  2  1  2  0
  3  2  1  0
  4  3  2  0
  4  5  1  0
  5  6  2  0
  6  1  1  0
  7  8  1  0
  8  9  2  0
 10 11  2  0
 10  9  1  0
 12 10  1  0
 13 12  1  0
 13  7  1  0
 14 13  2  0
 15  5  1  0
 15 16  1  0
 16 17  2  0
 17 18  1  0
 19 18  2  0
 20 19  1  0
 21 20  2  0
 21 16  1  0
 22 21  1  0
 23 22  2  0
 24 23  1  0
 25 24  2  0
 25 26  1  0
 26 22  1  0
  1 27  1  0
  3 28  1  0
  8 29  1  0
  9 30  1  0
 12 31  1  0
 17 32  1  0
 18 33  1  0
 19 34  1  0
 20 35  1  0
 23 36  1  0
 24 37  1  0
 25 38  1  0
M  ISO  8  27  14  28  14  29  14  30  14  31   9  32  14  33  14  34  14
M  ISO  4  35  14  36  14  37  14  38  14
M  END
>  <minimizedAffinity>  (1) 
-5.72217464

>  <minimizedRMSD>  (1) 
0.402979493

$$$$
