
     RDKit          3D

 20 21  0  0  0  0  0  0  0  0999 V2000
   37.3740   30.2660   50.0470 C   0  0  0  0  0  0  0  0  0  0  0  0
   38.2870   31.3250   50.1430 C   0  0  0  0  0  0  0  0  0  0  0  0
   38.5070   32.1130   48.9940 C   0  0  0  0  0  0  0  0  0  0  0  0
   37.8090   31.7840   47.8630 N   0  0  0  0  0  0  0  0  0  0  0  0
   36.9460   30.7600   47.8240 C   0  0  0  0  0  0  0  0  0  0  0  0
   36.7290   30.0080   48.9050 N   0  0  0  0  0  0  0  0  0  0  0  0
   36.2240   30.4490   46.5920 C   0  0  0  0  0  0  0  0  0  0  0  0
   34.9390   29.9060   46.6680 C   0  0  0  0  0  0  0  0  0  0  0  0
   34.5190   29.7220   45.3450 C   0  0  0  0  0  0  0  0  0  0  0  0
   35.5680   30.1630   44.5560 C   0  0  0  0  0  0  0  0  0  0  0  0
   36.5440   30.5790   45.3050 O   0  0  0  0  0  0  0  0  0  0  0  0
   37.1410   29.4290   51.2700 C   0  0  0  0  0  0  0  0  0  0  0  0
   35.7780   29.1920   51.4140 F   0  0  0  0  0  0  0  0  0  0  0  0
   37.9030   28.3090   51.1690 F   0  0  0  0  0  0  0  0  0  0  0  0
   37.5180   30.2050   52.3720 F   0  0  0  0  0  0  0  0  0  0  0  0
   38.8153   31.5350   51.0847 H   0  0  0  0  0  0  0  0  0  0  0  0
   39.2111   32.9580   49.0061 H   0  0  0  0  0  0  0  0  0  0  0  0
   34.3726   29.6709   47.5812 H   0  0  0  0  0  0  0  0  0  0  0  0
   33.5567   29.3126   45.0037 H   0  0  0  0  0  0  0  0  0  0  0  0
   35.5738   30.1612   43.4560 H   0  0  0  0  0  0  0  0  0  0  0  0
  1  2  2  0
  1 12  1  0
  3  2  1  0
  4  3  2  0
  5  4  1  0
  5  6  2  0
  6  1  1  0
  7  8  2  0
  7  5  1  0
  9  8  1  0
 10 11  1  0
 10  9  2  0
 11  7  1  0
 12 13  1  0
 12 15  1  0
 14 12  1  0
  2 16  1  0
  3 17  1  0
  8 18  1  0
  9 19  1  0
 10 20  1  0
M  ISO  5  16  14  17  14  18  14  19  14  20  14
M  END
>  <minimizedAffinity>  (1) 
-5.12986994

>  <minimizedRMSD>  (1) 
0.124941945

$$$$
