
     RDKit          3D

 44 48  0  0  0  0  0  0  0  0999 V2000
   39.2450   31.9400   44.9660 C   0  0  0  0  0  0  0  0  0  0  0  0
   38.1610   32.5770   45.0950 O   0  0  0  0  0  0  0  0  0  0  0  0
   39.9450   31.6730   46.1740 N   0  0  0  0  0  0  0  0  0  0  0  0
   39.1590   32.2600   42.5880 C   0  0  0  0  0  0  0  0  0  0  0  0
   39.6850   31.5420   43.6490 C   0  0  0  0  0  0  0  0  0  0  0  0
   40.5830   30.4980   43.4810 C   0  0  0  0  0  0  0  0  0  0  0  0
   40.9680   30.1620   42.1900 C   0  0  0  0  0  0  0  0  0  0  0  0
   41.8060   29.2140   41.7300 N   0  0  0  0  0  0  0  0  0  0  0  0
   41.8220   29.3180   40.4030 C   0  0  0  0  0  0  0  0  0  0  0  0
   41.0060   30.3170   40.0310 N   0  0  0  0  0  0  0  0  0  0  0  0
   40.4470   30.8740   41.1360 C   0  0  0  0  0  0  0  0  0  0  0  0
   39.5600   31.9070   41.2980 C   0  0  0  0  0  0  0  0  0  0  0  0
   39.0110   32.6580   40.1770 C   0  0  0  0  0  0  0  0  0  0  0  0
   38.1190   33.7240   40.3150 C   0  0  0  0  0  0  0  0  0  0  0  0
   37.8980   34.0960   38.9850 C   0  0  0  0  0  0  0  0  0  0  0  0
   38.6240   33.2850   38.1380 C   0  0  0  0  0  0  0  0  0  0  0  0
   39.2630   32.4510   38.9230 O   0  0  0  0  0  0  0  0  0  0  0  0
   38.1040   30.1660   47.5060 F   0  0  0  0  0  0  0  0  0  0  0  0
   38.3640   31.4020   48.0070 C   0  0  0  0  0  0  0  0  0  0  0  0
   37.7060   31.8300   49.1320 C   0  0  0  0  0  0  0  0  0  0  0  0
   38.0210   33.0860   49.5760 C   0  0  0  0  0  0  0  0  0  0  0  0
   38.9390   33.9030   48.9560 C   0  0  0  0  0  0  0  0  0  0  0  0
   39.5830   33.4380   47.8230 C   0  0  0  0  0  0  0  0  0  0  0  0
   39.2920   32.1790   47.3450 C   0  0  0  0  0  0  0  0  0  0  0  0
   36.0680   29.3320   51.4540 C   0  0  0  0  0  0  0  0  0  0  0  0
   37.0280   30.1930   50.8810 C   0  0  0  0  0  0  0  0  0  0  0  0
   36.7460   30.9330   49.7530 C   0  0  0  0  0  0  0  0  0  0  0  0
   35.4930   30.7890   49.2200 N   0  0  0  0  0  0  0  0  0  0  0  0
   34.5750   29.9640   49.7680 C   0  0  0  0  0  0  0  0  0  0  0  0
   34.8610   29.2540   50.8610 N   0  0  0  0  0  0  0  0  0  0  0  0
   40.8392   31.1628   46.2048 H   0  0  0  0  0  0  0  0  0  0  0  0
   38.4479   33.0822   42.7562 H   0  0  0  0  0  0  0  0  0  0  0  0
   40.9799   29.9503   44.3485 H   0  0  0  0  0  0  0  0  0  0  0  0
   42.3348   28.5364   42.2976 H   0  0  0  0  0  0  0  0  0  0  0  0
   42.4097   28.6865   39.7205 H   0  0  0  0  0  0  0  0  0  0  0  0
   37.6984   34.1591   41.2336 H   0  0  0  0  0  0  0  0  0  0  0  0
   37.2405   34.9164   38.6614 H   0  0  0  0  0  0  0  0  0  0  0  0
   38.6595   33.3284   37.0394 H   0  0  0  0  0  0  0  0  0  0  0  0
   37.5134   33.4625   50.4763 H   0  0  0  0  0  0  0  0  0  0  0  0
   39.1563   34.9055   49.3533 H   0  0  0  0  0  0  0  0  0  0  0  0
   40.3220   34.0690   47.3076 H   0  0  0  0  0  0  0  0  0  0  0  0
   36.2976   28.7441   52.3549 H   0  0  0  0  0  0  0  0  0  0  0  0
   38.0223   30.2753   51.3443 H   0  0  0  0  0  0  0  0  0  0  0  0
   33.5797   29.8762   49.3079 H   0  0  0  0  0  0  0  0  0  0  0  0
  1  2  2  0
  1  3  1  0
  3 24  1  0
  4  5  2  0
  5  1  1  0
  6  5  1  0
  7  6  2  0
  8  7  1  0
  9  8  1  0
 10  9  2  0
 10 11  1  0
 11 12  2  0
 11  7  1  0
 12  4  1  0
 13 14  2  0
 13 12  1  0
 15 14  1  0
 16 17  1  0
 16 15  2  0
 17 13  1  0
 18 19  1  0
 19 20  2  0
 20 21  1  0
 20 27  1  0
 22 21  2  0
 23 22  1  0
 24 23  2  0
 24 19  1  0
 26 25  2  0
 27 26  1  0
 28 27  2  0
 28 29  1  0
 29 30  2  0
 30 25  1  0
  3 31  1  0
  4 32  1  0
  6 33  1  0
  8 34  1  0
  9 35  1  0
 14 36  1  0
 15 37  1  0
 16 38  1  0
 21 39  1  0
 22 40  1  0
 23 41  1  0
 25 42  1  0
 26 43  1  0
 29 44  1  0
M  ISO  8  32  14  33  14  34   9  35  14  36  14  37  14  38  14  39  14
M  ISO  5  40  14  41  14  42  14  43  14  44  14
M  END
>  <minimizedAffinity>  (1) 
-7.51116467

>  <minimizedRMSD>  (1) 
0.0680152774

$$$$
