
     RDKit          3D

 33 35  0  0  1  0  0  0  0  0999 V2000
   33.8080   29.0890   48.5170 C   0  0  1  0  0  0  0  0  0  0  0  0
   33.7560   29.6950   47.1730 C   0  0  0  0  0  0  0  0  0  0  0  0
   34.2110   28.8380   46.0240 C   0  0  0  0  0  0  0  0  0  0  0  0
   33.8520   27.3990   46.1300 C   0  0  0  0  0  0  0  0  0  0  0  0
   33.9280   26.7740   47.4750 C   0  0  0  0  0  0  0  0  0  0  0  0
   33.3570   27.6710   48.5400 C   0  0  2  0  0  0  0  0  0  0  0  0
   36.2800   29.7140   48.6530 C   0  0  0  0  0  0  0  0  0  0  0  0
   35.0630   29.3290   49.2650 C   0  0  0  0  0  0  0  0  0  0  0  0
   35.0760   29.1880   50.6410 C   0  0  0  0  0  0  0  0  0  0  0  0
   36.2210   29.4160   51.3390 N   0  0  0  0  0  0  0  0  0  0  0  0
   37.3640   29.7840   50.7030 C   0  0  0  0  0  0  0  0  0  0  0  0
   37.3890   29.9320   49.3520 N   0  0  0  0  0  0  0  0  0  0  0  0
   31.8450   27.6920   48.4130 C   0  0  0  0  0  0  0  0  0  0  0  0
   30.9810   27.9030   49.4920 C   0  0  0  0  0  0  0  0  0  0  0  0
   29.6640   27.8590   49.0240 C   0  0  0  0  0  0  0  0  0  0  0  0
   29.8210   27.6220   47.6750 C   0  0  0  0  0  0  0  0  0  0  0  0
   31.0830   27.5310   47.3570 O   0  0  0  0  0  0  0  0  0  0  0  0
   33.0568   29.6494   49.0928 H   0  0  0  0  0  0  0  0  0  0  0  0
   32.7128   29.9850   46.9790 H   0  0  0  0  0  0  0  0  0  0  0  0
   34.4688   30.5321   47.2073 H   0  0  0  0  0  0  0  0  0  0  0  0
   35.3064   28.9119   45.9566 H   0  0  0  0  0  0  0  0  0  0  0  0
   33.6907   29.2188   45.1328 H   0  0  0  0  0  0  0  0  0  0  0  0
   32.8172   27.2897   45.7732 H   0  0  0  0  0  0  0  0  0  0  0  0
   34.6117   26.8743   45.5321 H   0  0  0  0  0  0  0  0  0  0  0  0
   33.3617   25.8310   47.4622 H   0  0  0  0  0  0  0  0  0  0  0  0
   34.9876   26.5951   47.7100 H   0  0  0  0  0  0  0  0  0  0  0  0
   33.7237   27.2381   49.4824 H   0  0  0  0  0  0  0  0  0  0  0  0
   36.3087   29.8371   47.5603 H   0  0  0  0  0  0  0  0  0  0  0  0
   34.1592   28.8911   51.1714 H   0  0  0  0  0  0  0  0  0  0  0  0
   38.2784   29.9640   51.2874 H   0  0  0  0  0  0  0  0  0  0  0  0
   31.2863   28.0749   50.5347 H   0  0  0  0  0  0  0  0  0  0  0  0
   28.7309   27.9831   49.5931 H   0  0  0  0  0  0  0  0  0  0  0  0
   28.9908   27.5226   46.9602 H   0  0  0  0  0  0  0  0  0  0  0  0
  1  6  1  0
  1  8  1  0
  2  1  1  0
  3  4  1  0
  3  2  1  0
  4  5  1  0
  5  6  1  0
  7  8  2  0
  7 12  1  0
  8  9  1  0
  9 10  2  0
 11 10  1  0
 12 11  2  0
 13  6  1  0
 13 14  2  0
 15 14  1  0
 16 15  2  0
 17 16  1  0
 17 13  1  0
  1 18  1  1
  2 19  1  0
  2 20  1  0
  3 21  1  0
  3 22  1  0
  4 23  1  0
  4 24  1  0
  5 25  1  0
  5 26  1  0
  6 27  1  1
  7 28  1  0
  9 29  1  0
 11 30  1  0
 14 31  1  0
 15 32  1  0
 16 33  1  0
M  ISO  8  18  13  19  13  20  13  21  13  22  13  23  13  24  13  25  13
M  ISO  8  26  13  27  13  28  14  29  14  30  14  31  14  32  14  33  14
M  END
>  <minimizedAffinity>  (1) 
-4.72433567

>  <minimizedRMSD>  (1) 
1.75770736

$$$$
