
     RDKit          3D

 32 34  0  0  1  0  0  0  0  0999 V2000
   39.3820   32.9630   44.3840 C   0  0  0  0  0  0  0  0  0  0  0  0
   40.3090   31.9540   44.0130 C   0  0  0  0  0  0  0  0  0  0  0  0
   40.4790   30.8580   44.8670 C   0  0  0  0  0  0  0  0  0  0  0  0
   39.7430   30.8260   46.0060 N   0  0  0  0  0  0  0  0  0  0  0  0
   38.8740   31.7870   46.3370 C   0  0  0  0  0  0  0  0  0  0  0  0
   38.6890   32.8550   45.5330 N   0  0  0  0  0  0  0  0  0  0  0  0
   38.1180   31.7000   47.5580 N   0  0  0  0  0  0  0  0  0  0  0  0
   37.9750   32.8830   48.4190 C   0  0  0  0  0  0  0  0  0  0  0  0
   37.8450   32.5180   49.8630 C   0  0  0  0  0  0  0  0  0  0  0  0
   38.4190   31.1330   50.0690 C   0  0  0  0  0  0  0  0  0  0  0  0
   37.4520   30.1960   49.3860 C   0  0  0  0  0  0  0  0  0  0  0  0
   37.5080   30.4310   47.9130 C   0  0  1  0  0  0  0  0  0  0  0  0
   36.1680   30.2700   47.2630 C   0  0  0  0  0  0  0  0  0  0  0  0
   34.9200   30.2400   47.8860 C   0  0  0  0  0  0  0  0  0  0  0  0
   34.0050   30.0720   46.8500 C   0  0  0  0  0  0  0  0  0  0  0  0
   34.7560   30.0140   45.6760 C   0  0  0  0  0  0  0  0  0  0  0  0
   36.0310   30.1340   45.9640 O   0  0  0  0  0  0  0  0  0  0  0  0
   39.2296   33.8351   43.7311 H   0  0  0  0  0  0  0  0  0  0  0  0
   40.8804   32.0316   43.0763 H   0  0  0  0  0  0  0  0  0  0  0  0
   41.1850   30.0506   44.6229 H   0  0  0  0  0  0  0  0  0  0  0  0
   38.8617   33.5218   48.2935 H   0  0  0  0  0  0  0  0  0  0  0  0
   37.0567   33.4095   48.1197 H   0  0  0  0  0  0  0  0  0  0  0  0
   38.3977   33.2427   50.4788 H   0  0  0  0  0  0  0  0  0  0  0  0
   36.7854   32.5314   50.1582 H   0  0  0  0  0  0  0  0  0  0  0  0
   39.4167   31.0574   49.6120 H   0  0  0  0  0  0  0  0  0  0  0  0
   38.5388   30.8930   51.1358 H   0  0  0  0  0  0  0  0  0  0  0  0
   37.7307   29.1545   49.6044 H   0  0  0  0  0  0  0  0  0  0  0  0
   36.4319   30.3808   49.7539 H   0  0  0  0  0  0  0  0  0  0  0  0
   38.1680   29.6459   47.5154 H   0  0  0  0  0  0  0  0  0  0  0  0
   34.7056   30.3295   48.9612 H   0  0  0  0  0  0  0  0  0  0  0  0
   32.9110   29.9996   46.9393 H   0  0  0  0  0  0  0  0  0  0  0  0
   34.3432   29.8872   44.6643 H   0  0  0  0  0  0  0  0  0  0  0  0
  1  6  2  0
  2  1  1  0
  2  3  2  0
  3  4  1  0
  4  5  2  0
  5  7  1  0
  6  5  1  0
  7 12  1  0
  7  8  1  0
  8  9  1  0
  9 10  1  0
 11 10  1  0
 12 11  1  0
 13 14  2  0
 13 12  1  0
 15 14  1  0
 16 17  1  0
 16 15  2  0
 17 13  1  0
  1 18  1  0
  2 19  1  0
  3 20  1  0
  8 21  1  0
  8 22  1  0
  9 23  1  0
  9 24  1  0
 10 25  1  0
 10 26  1  0
 11 27  1  0
 11 28  1  0
 12 29  1  6
 14 30  1  0
 15 31  1  0
 16 32  1  0
M  ISO  8  18  14  19  14  20  14  21  13  22  13  23  13  24  13  25  13
M  ISO  7  26  13  27  13  28  13  29  13  30  14  31  14  32  14
M  END
>  <minimizedAffinity>  (1) 
-5.42190886

>  <minimizedRMSD>  (1) 
3.29214668

$$$$
