
     RDKit          3D

 34 36  0  0  0  0  0  0  0  0999 V2000
   38.1770   31.8850   47.3970 C   0  0  0  0  0  0  0  0  0  0  0  0
   38.7790   32.7200   48.2890 C   0  0  0  0  0  0  0  0  0  0  0  0
   38.3810   32.8180   49.6250 C   0  0  0  0  0  0  0  0  0  0  0  0
   37.2780   31.9790   50.0470 C   0  0  0  0  0  0  0  0  0  0  0  0
   36.7170   31.1660   49.1150 C   0  0  0  0  0  0  0  0  0  0  0  0
   37.1120   31.0870   47.8320 C   0  0  0  0  0  0  0  0  0  0  0  0
   39.9320   31.1820   45.8550 C   0  0  0  0  0  0  0  0  0  0  0  0
   38.7200   31.8840   46.0600 C   0  0  0  0  0  0  0  0  0  0  0  0
   38.2100   32.4770   44.9340 C   0  0  0  0  0  0  0  0  0  0  0  0
   38.8380   32.3740   43.7530 N   0  0  0  0  0  0  0  0  0  0  0  0
   39.9630   31.7180   43.5790 C   0  0  0  0  0  0  0  0  0  0  0  0
   40.5050   31.1250   44.6290 N   0  0  0  0  0  0  0  0  0  0  0  0
   35.0780   30.0590   47.2500 C   0  0  0  0  0  0  0  0  0  0  0  0
   34.5970   30.6270   48.3110 O   0  0  0  0  0  0  0  0  0  0  0  0
   36.4810   30.2600   46.9390 N   0  0  0  0  0  0  0  0  0  0  0  0
   34.2550   29.2930   46.4650 O   0  0  0  0  0  0  0  0  0  0  0  0
   32.8660   29.3580   46.4800 C   0  0  0  0  0  0  0  0  0  0  0  0
   32.2200   30.3700   45.9410 O   0  0  0  0  0  0  0  0  0  0  0  0
   32.0450   28.2810   47.0840 C   0  0  0  0  0  0  0  0  0  0  0  0
   32.1580   27.6980   48.3530 C   0  0  0  0  0  0  0  0  0  0  0  0
   31.1790   26.7330   48.4800 C   0  0  0  0  0  0  0  0  0  0  0  0
   30.5150   26.7760   47.2770 C   0  0  0  0  0  0  0  0  0  0  0  0
   31.0390   27.6710   46.5080 O   0  0  0  0  0  0  0  0  0  0  0  0
   39.6154   33.3448   47.9424 H   0  0  0  0  0  0  0  0  0  0  0  0
   38.8830   33.5019   50.3252 H   0  0  0  0  0  0  0  0  0  0  0  0
   36.9089   31.9997   51.0830 H   0  0  0  0  0  0  0  0  0  0  0  0
   35.8800   30.5266   49.4321 H   0  0  0  0  0  0  0  0  0  0  0  0
   40.4154   30.6756   46.7034 H   0  0  0  0  0  0  0  0  0  0  0  0
   37.2711   33.0462   45.0000 H   0  0  0  0  0  0  0  0  0  0  0  0
   40.4397   31.6638   42.5892 H   0  0  0  0  0  0  0  0  0  0  0  0
   36.9530   29.8270   46.1324 H   0  0  0  0  0  0  0  0  0  0  0  0
   32.9013   27.9643   49.1189 H   0  0  0  0  0  0  0  0  0  0  0  0
   30.9772   26.0813   49.3429 H   0  0  0  0  0  0  0  0  0  0  0  0
   29.6595   26.1389   47.0080 H   0  0  0  0  0  0  0  0  0  0  0  0
  1  6  1  0
  1  2  2  0
  2  3  1  0
  3  4  2  0
  5  4  1  0
  6  5  2  0
  7  8  2  0
  8  1  1  0
  9  8  1  0
 10  9  2  0
 11 10  1  0
 11 12  2  0
 12  7  1  0
 13 14  2  0
 15 13  1  0
 15  6  1  0
 16 17  1  0
 16 13  1  0
 17 19  1  0
 18 17  2  0
 19 20  2  0
 20 21  1  0
 22 21  2  0
 23 19  1  0
 23 22  1  0
  2 24  1  0
  3 25  1  0
  4 26  1  0
  5 27  1  0
  7 28  1  0
  9 29  1  0
 11 30  1  0
 15 31  1  0
 20 32  1  0
 21 33  1  0
 22 34  1  0
M  ISO  8  24  14  25  14  26  14  27  14  28  14  29  14  30  14  32  14
M  ISO  2  33  14  34  14
M  END
>  <minimizedAffinity>  (1) 
-5.8356905

>  <minimizedRMSD>  (1) 
1.33646452

$$$$
