
     RDKit          3D

 36 38  0  0  0  0  0  0  0  0999 V2000
   36.1490   29.2080   49.3170 C   0  0  0  0  0  0  0  0  0  0  0  0
   35.9240   30.3850   48.5530 C   0  0  0  0  0  0  0  0  0  0  0  0
   34.7350   30.4790   47.8430 C   0  0  0  0  0  0  0  0  0  0  0  0
   33.8470   29.4410   47.9130 N   0  0  0  0  0  0  0  0  0  0  0  0
   34.0720   28.3480   48.6290 C   0  0  0  0  0  0  0  0  0  0  0  0
   35.2380   28.2190   49.3480 N   0  0  0  0  0  0  0  0  0  0  0  0
   36.9370   31.3780   48.5640 N   0  0  0  0  0  0  0  0  0  0  0  0
   37.2210   32.1100   49.6340 C   0  0  0  0  0  0  0  0  0  0  0  0
   38.2320   33.0700   49.5720 C   0  0  0  0  0  0  0  0  0  0  0  0
   38.8670   33.1720   48.3540 C   0  0  0  0  0  0  0  0  0  0  0  0
   39.7860   34.0380   48.2820 O   0  0  0  0  0  0  0  0  0  0  0  0
   38.6080   32.4550   47.2600 N   0  0  0  0  0  0  0  0  0  0  0  0
   37.6140   31.5360   47.3830 C   0  0  0  0  0  0  0  0  0  0  0  0
   37.3620   30.8430   46.3330 O   0  0  0  0  0  0  0  0  0  0  0  0
   33.1910   27.2920   48.7080 O   0  0  0  0  0  0  0  0  0  0  0  0
   30.9490   27.3340   47.6560 C   0  0  0  0  0  0  0  0  0  0  0  0
   32.2900   27.0380   47.7240 C   0  0  0  0  0  0  0  0  0  0  0  0
   32.8360   26.3770   46.6210 C   0  0  0  0  0  0  0  0  0  0  0  0
   32.0180   26.0640   45.5570 C   0  0  0  0  0  0  0  0  0  0  0  0
   30.6870   26.3760   45.5290 C   0  0  0  0  0  0  0  0  0  0  0  0
   30.1370   27.0190   46.5900 C   0  0  0  0  0  0  0  0  0  0  0  0
   29.2780   28.7810   48.5040 N   0  0  0  0  0  0  0  0  0  0  0  0
   30.3380   28.0430   48.7450 C   0  0  0  0  0  0  0  0  0  0  0  0
   30.2870   28.3970   50.1080 N   0  0  0  0  0  0  0  0  0  0  0  0
   28.8520   28.8860   47.5800 H   0  0  0  0  0  0  0  0  0  0  0  0
   37.0815   29.1043   49.8912 H   0  0  0  0  0  0  0  0  0  0  0  0
   34.5116   31.3694   47.2369 H   0  0  0  0  0  0  0  0  0  0  0  0
   36.6603   31.9602   50.5684 H   0  0  0  0  0  0  0  0  0  0  0  0
   38.5020   33.6992   50.4329 H   0  0  0  0  0  0  0  0  0  0  0  0
   39.1267   32.5886   46.3802 H   0  0  0  0  0  0  0  0  0  0  0  0
   33.9030   26.1103   46.6021 H   0  0  0  0  0  0  0  0  0  0  0  0
   32.4544   25.5408   44.6934 H   0  0  0  0  0  0  0  0  0  0  0  0
   30.0703   26.1093   44.6581 H   0  0  0  0  0  0  0  0  0  0  0  0
   29.0689   27.2819   46.5980 H   0  0  0  0  0  0  0  0  0  0  0  0
   29.5479   29.0283   50.4488 H   0  0  0  0  0  0  0  0  0  0  0  0
   30.9888   28.0245   50.7635 H   0  0  0  0  0  0  0  0  0  0  0  0
  1  6  2  0
  2  7  1  0
  2  1  1  0
  3  4  1  0
  3  2  2  0
  4  5  2  0
  5 15  1  0
  5  6  1  0
  7  8  1  0
  9  8  2  0
 10  9  1  0
 11 10  2  0
 12 13  1  0
 12 10  1  0
 13  7  1  0
 14 13  2  0
 16 17  2  0
 16 23  1  0
 17 15  1  0
 18 17  1  0
 19 18  2  0
 20 19  1  0
 20 21  2  0
 21 16  1  0
 22 23  2  0
 23 24  1  0
 25 22  1  0
  1 26  1  0
  3 27  1  0
  8 28  1  0
  9 29  1  0
 12 30  1  0
 18 31  1  0
 19 32  1  0
 20 33  1  0
 21 34  1  0
 24 35  1  0
 24 36  1  0
M  ISO  8  26  14  27  14  28  14  29  14  30   9  31  14  32  14  33  14
M  ISO  1  34  14
M  END
>  <minimizedAffinity>  (1) 
-5.96038723

>  <minimizedRMSD>  (1) 
0.884316325

$$$$
