
     RDKit          3D

 41 43  0  0  0  0  0  0  0  0999 V2000
   36.6130   29.7110   45.1290 Cl  0  0  0  0  0  0  0  0  0  0  0  0
   38.2430   30.3990   45.0540 C   0  0  0  0  0  0  0  0  0  0  0  0
   38.9950   30.7440   46.1680 C   0  0  0  0  0  0  0  0  0  0  0  0
   40.2650   31.2750   45.9560 C   0  0  0  0  0  0  0  0  0  0  0  0
   40.7450   31.4480   44.6780 C   0  0  0  0  0  0  0  0  0  0  0  0
   40.0100   31.1110   43.5730 C   0  0  0  0  0  0  0  0  0  0  0  0
   38.7700   30.5900   43.7620 C   0  0  0  0  0  0  0  0  0  0  0  0
   37.1980   31.2610   42.1170 C   0  0  0  0  0  0  0  0  0  0  0  0
   38.0100   30.2390   42.5610 C   0  0  0  0  0  0  0  0  0  0  0  0
   38.0390   29.0430   41.8740 C   0  0  0  0  0  0  0  0  0  0  0  0
   37.2580   28.8680   40.7500 C   0  0  0  0  0  0  0  0  0  0  0  0
   36.4300   29.8690   40.2750 C   0  0  0  0  0  0  0  0  0  0  0  0
   36.4110   31.0690   40.9750 C   0  0  0  0  0  0  0  0  0  0  0  0
   36.1230   32.9560   43.5660 N   0  0  0  0  0  0  0  0  0  0  0  0
   36.9920   32.5950   42.6550 C   0  0  0  0  0  0  0  0  0  0  0  0
   37.7730   33.6920   42.1990 N   0  0  0  0  0  0  0  0  0  0  0  0
   35.4710   32.2710   44.0070 H   0  0  0  0  0  0  0  0  0  0  0  0
   38.3440   30.4960   47.3320 O   0  0  0  0  0  0  0  0  0  0  0  0
   38.7380   31.3380   49.7430 O   0  0  0  0  0  0  0  0  0  0  0  0
   37.8800   31.5690   48.5490 P   0  0  1  0  0  0  0  0  0  0  0  0
   38.1840   33.1190   47.9050 O   0  0  0  0  0  0  0  0  0  0  0  0
   36.2240   31.3900   48.8440 O   0  0  0  0  0  0  0  0  0  0  0  0
   34.6030   28.1080   49.3080 C   0  0  0  0  0  0  0  0  0  0  0  0
   35.5100   29.1400   49.5760 C   0  0  0  0  0  0  0  0  0  0  0  0
   35.4530   30.2790   48.7710 C   0  0  0  0  0  0  0  0  0  0  0  0
   34.5220   30.3270   47.7680 N   0  0  0  0  0  0  0  0  0  0  0  0
   33.6720   29.3060   47.5520 C   0  0  0  0  0  0  0  0  0  0  0  0
   33.7170   28.1970   48.3270 N   0  0  0  0  0  0  0  0  0  0  0  0
   40.8890   31.5582   46.8165 H   0  0  0  0  0  0  0  0  0  0  0  0
   41.7512   31.8705   44.5397 H   0  0  0  0  0  0  0  0  0  0  0  0
   40.4127   31.2582   42.5600 H   0  0  0  0  0  0  0  0  0  0  0  0
   38.6871   28.2259   42.2236 H   0  0  0  0  0  0  0  0  0  0  0  0
   37.2949   27.9063   40.2172 H   0  0  0  0  0  0  0  0  0  0  0  0
   35.8107   29.7208   39.3780 H   0  0  0  0  0  0  0  0  0  0  0  0
   35.7635   31.8861   40.6243 H   0  0  0  0  0  0  0  0  0  0  0  0
   37.6168   34.6326   42.5886 H   0  0  0  0  0  0  0  0  0  0  0  0
   38.4950   33.5462   41.4790 H   0  0  0  0  0  0  0  0  0  0  0  0
   38.3106   33.7647   48.6447 H   0  0  0  0  0  0  0  0  0  0  0  0
   34.6265   27.1996   49.9279 H   0  0  0  0  0  0  0  0  0  0  0  0
   36.2422   29.0563   50.3926 H   0  0  0  0  0  0  0  0  0  0  0  0
   32.9344   29.3733   46.7387 H   0  0  0  0  0  0  0  0  0  0  0  0
  2  1  1  0
  2  3  2  0
  3 18  1  0
  4  3  1  0
  5  4  2  0
  6  7  2  0
  6  5  1  0
  7  2  1  0
  8  9  2  0
  8 15  1  0
  9  7  1  0
 10  9  1  0
 11 10  2  0
 12 11  1  0
 12 13  2  0
 13  8  1  0
 14 17  1  0
 15 14  2  0
 16 15  1  0
 18 20  1  0
 20 22  1  0
 20 19  2  0
 21 20  1  0
 23 24  2  0
 25 22  1  0
 25 24  1  0
 26 25  2  0
 27 26  1  0
 27 28  2  0
 28 23  1  0
  4 29  1  0
  5 30  1  0
  6 31  1  0
 10 32  1  0
 11 33  1  0
 12 34  1  0
 13 35  1  0
 16 36  1  0
 16 37  1  0
 21 38  1  0
 23 39  1  0
 24 40  1  0
 27 41  1  0
M  ISO  8  29  14  30  14  31  14  32  14  33  14  34  14  35  14  38   3
M  ISO  3  39  14  40  14  41  14
M  END
>  <minimizedAffinity>  (1) 
-5.45615911

>  <minimizedRMSD>  (1) 
2.44522142

$$$$
