
     RDKit          3D

 49 52  0  0  1  0  0  0  0  0999 V2000
   36.1680   30.7730   45.5670 Cl  0  0  0  0  0  0  0  0  0  0  0  0
   36.5090   30.3010   47.2320 C   0  0  0  0  0  0  0  0  0  0  0  0
   35.5250   29.6420   47.9180 C   0  0  0  0  0  0  0  0  0  0  0  0
   35.6460   29.2150   49.2490 C   0  0  0  0  0  0  0  0  0  0  0  0
   36.8720   29.5010   49.8680 C   0  0  0  0  0  0  0  0  0  0  0  0
   37.8810   30.1690   49.1770 C   0  0  0  0  0  0  0  0  0  0  0  0
   37.6870   30.5630   47.8600 C   0  0  0  0  0  0  0  0  0  0  0  0
   32.2170   27.9880   47.6420 N   0  0  0  0  0  0  0  0  0  0  0  0
   33.4000   28.5940   48.2470 C   0  0  0  0  0  0  0  0  0  0  0  0
   34.2230   29.3780   47.3270 C   0  0  2  0  0  0  0  0  0  0  0  0
   34.4220   28.6790   46.0280 N   0  0  0  0  0  0  0  0  0  0  0  0
   33.0770   28.3700   45.4970 C   0  0  0  0  0  0  0  0  0  0  0  0
   32.5760   27.3060   46.4470 C   0  0  0  0  0  0  0  0  0  0  0  0
   30.9260   28.0850   48.2170 C   0  0  0  0  0  0  0  0  0  0  0  0
   29.8190   28.5210   47.4880 C   0  0  0  0  0  0  0  0  0  0  0  0
   28.5860   28.5830   48.1280 C   0  0  0  0  0  0  0  0  0  0  0  0
   28.5220   28.2060   49.4610 N   0  0  0  0  0  0  0  0  0  0  0  0
   29.6270   27.7920   50.1190 C   0  0  0  0  0  0  0  0  0  0  0  0
   30.8050   27.7290   49.5250 N   0  0  0  0  0  0  0  0  0  0  0  0
   39.1110   32.5020   47.5400 C   0  0  0  0  0  0  0  0  0  0  0  0
   38.6990   31.2630   47.0820 C   0  0  0  0  0  0  0  0  0  0  0  0
   39.2680   30.7550   45.9100 C   0  0  0  0  0  0  0  0  0  0  0  0
   40.2340   31.4840   45.2180 C   0  0  0  0  0  0  0  0  0  0  0  0
   40.6170   32.7190   45.7130 C   0  0  0  0  0  0  0  0  0  0  0  0
   40.0730   33.2620   46.8770 C   0  0  0  0  0  0  0  0  0  0  0  0
   37.3180   33.4990   48.8390 N   0  0  0  0  0  0  0  0  0  0  0  0
   38.5620   33.0960   48.7540 C   0  0  0  0  0  0  0  0  0  0  0  0
   39.3220   33.2870   49.9410 N   0  0  0  0  0  0  0  0  0  0  0  0
   37.0710   33.9050   49.7790 H   0  0  0  0  0  0  0  0  0  0  0  0
   34.8331   28.6905   49.7726 H   0  0  0  0  0  0  0  0  0  0  0  0
   37.0388   29.1943   50.9111 H   0  0  0  0  0  0  0  0  0  0  0  0
   38.8363   30.3853   49.6777 H   0  0  0  0  0  0  0  0  0  0  0  0
   33.0679   29.2570   49.0595 H   0  0  0  0  0  0  0  0  0  0  0  0
   34.0303   27.7632   48.5968 H   0  0  0  0  0  0  0  0  0  0  0  0
   33.6891   30.3215   47.1405 H   0  0  0  0  0  0  0  0  0  0  0  0
   34.9305   29.2887   45.3718 H   0  0  0  0  0  0  0  0  0  0  0  0
   32.4286   29.2583   45.5200 H   0  0  0  0  0  0  0  0  0  0  0  0
   33.0887   28.0442   44.4464 H   0  0  0  0  0  0  0  0  0  0  0  0
   31.7006   26.7941   46.0209 H   0  0  0  0  0  0  0  0  0  0  0  0
   33.3418   26.5389   46.6344 H   0  0  0  0  0  0  0  0  0  0  0  0
   29.9194   28.8091   46.4312 H   0  0  0  0  0  0  0  0  0  0  0  0
   27.6870   28.9215   47.5921 H   0  0  0  0  0  0  0  0  0  0  0  0
   29.5435   27.5000   51.1762 H   0  0  0  0  0  0  0  0  0  0  0  0
   38.9508   29.7723   45.5310 H   0  0  0  0  0  0  0  0  0  0  0  0
   40.6833   31.0857   44.2964 H   0  0  0  0  0  0  0  0  0  0  0  0
   41.3796   33.2941   45.1674 H   0  0  0  0  0  0  0  0  0  0  0  0
   40.3890   34.2456   47.2546 H   0  0  0  0  0  0  0  0  0  0  0  0
   38.8835   33.7119   50.7705 H   0  0  0  0  0  0  0  0  0  0  0  0
   40.3109   33.0004   49.9711 H   0  0  0  0  0  0  0  0  0  0  0  0
  1  2  1  0
  2  7  2  0
  2  3  1  0
  3  4  2  0
  4  5  1  0
  6  5  2  0
  7  6  1  0
  8 14  1  0
  8  9  1  0
 10  3  1  0
 10  9  1  0
 11 10  1  0
 12 11  1  0
 12 13  1  0
 13  8  1  0
 14 19  2  0
 15 16  2  0
 15 14  1  0
 16 17  1  0
 17 18  2  0
 19 18  1  0
 20 27  1  0
 21 20  2  0
 21  7  1  0
 22 21  1  0
 23 24  1  0
 23 22  2  0
 24 25  2  0
 25 20  1  0
 26 29  1  0
 27 26  2  0
 27 28  1  0
  4 30  1  0
  5 31  1  0
  6 32  1  0
  9 33  1  0
  9 34  1  0
 10 35  1  6
 11 36  1  0
 12 37  1  0
 12 38  1  0
 13 39  1  0
 13 40  1  0
 15 41  1  0
 16 42  1  0
 18 43  1  0
 22 44  1  0
 23 45  1  0
 24 46  1  0
 25 47  1  0
 28 48  1  0
 28 49  1  0
M  ISO  8  30  14  31  14  32  14  33  13  34  13  35  13  36   5  37  13
M  ISO  8  38  13  39  13  40  13  41  14  42  14  43  14  44  14  45  14
M  ISO  2  46  14  47  14
M  END
>  <minimizedAffinity>  (1) 
-6.57812452

>  <minimizedRMSD>  (1) 
4.19711733

$$$$
