
     RDKit          3D

 36 38  0  0  0  0  0  0  0  0999 V2000
   34.9420   29.3870   48.3620 C   0  0  0  0  0  0  0  0  0  0  0  0
   34.5630   28.1360   48.8140 C   0  0  0  0  0  0  0  0  0  0  0  0
   33.4830   27.6100   48.1580 C   0  0  0  0  0  0  0  0  0  0  0  0
   32.8250   28.2740   47.1320 C   0  0  0  0  0  0  0  0  0  0  0  0
   33.2690   29.5210   46.7450 C   0  0  0  0  0  0  0  0  0  0  0  0
   34.3290   30.0610   47.3720 N   0  0  0  0  0  0  0  0  0  0  0  0
   37.5890   30.2310   50.7800 C   0  0  0  0  0  0  0  0  0  0  0  0
   38.2490   31.2830   50.1370 C   0  0  0  0  0  0  0  0  0  0  0  0
   37.7860   31.6910   48.8940 C   0  0  0  0  0  0  0  0  0  0  0  0
   36.7180   31.0420   48.3800 N   0  0  0  0  0  0  0  0  0  0  0  0
   36.0890   30.0420   48.9880 C   0  0  0  0  0  0  0  0  0  0  0  0
   36.5530   29.6530   50.2030 N   0  0  0  0  0  0  0  0  0  0  0  0
   37.9800   29.7250   52.0630 N   0  0  0  0  0  0  0  0  0  0  0  0
   33.0990   30.6350   44.5120 C   0  0  0  0  0  0  0  0  0  0  0  0
   32.5310   30.1610   45.6710 C   0  0  0  0  0  0  0  0  0  0  0  0
   31.1730   30.3570   45.7170 C   0  0  0  0  0  0  0  0  0  0  0  0
   30.4520   30.9610   44.7140 C   0  0  0  0  0  0  0  0  0  0  0  0
   31.0720   31.4170   43.5750 C   0  0  0  0  0  0  0  0  0  0  0  0
   32.4320   31.2440   43.4800 C   0  0  0  0  0  0  0  0  0  0  0  0
   35.7250   30.8820   44.4930 N   0  0  0  0  0  0  0  0  0  0  0  0
   34.5240   30.5430   44.2890 C   0  0  0  0  0  0  0  0  0  0  0  0
   35.0730   29.5950   43.3480 N   0  0  0  0  0  0  0  0  0  0  0  0
   36.4590   30.3800   43.9540 H   0  0  0  0  0  0  0  0  0  0  0  0
   35.0833   27.6105   49.6283 H   0  0  0  0  0  0  0  0  0  0  0  0
   33.1200   26.6158   48.4575 H   0  0  0  0  0  0  0  0  0  0  0  0
   31.9602   27.8114   46.6338 H   0  0  0  0  0  0  0  0  0  0  0  0
   39.1142   31.7752   50.6052 H   0  0  0  0  0  0  0  0  0  0  0  0
   38.2709   32.5130   48.3469 H   0  0  0  0  0  0  0  0  0  0  0  0
   37.4576   28.9473   52.4909 H   0  0  0  0  0  0  0  0  0  0  0  0
   38.7834   30.1392   52.5569 H   0  0  0  0  0  0  0  0  0  0  0  0
   30.6298   30.0105   46.6086 H   0  0  0  0  0  0  0  0  0  0  0  0
   29.3642   31.0809   44.8246 H   0  0  0  0  0  0  0  0  0  0  0  0
   30.5009   31.9022   42.7698 H   0  0  0  0  0  0  0  0  0  0  0  0
   32.9776   31.5889   42.5893 H   0  0  0  0  0  0  0  0  0  0  0  0
   34.4460   28.9701   42.8214 H   0  0  0  0  0  0  0  0  0  0  0  0
   36.0915   29.5438   43.2034 H   0  0  0  0  0  0  0  0  0  0  0  0
  1  2  2  0
  1 11  1  0
  3  2  1  0
  4  3  2  0
  5  4  1  0
  5  6  2  0
  6  1  1  0
  7 13  1  0
  8  7  2  0
  9  8  1  0
 10  9  2  0
 10 11  1  0
 11 12  2  0
 12  7  1  0
 14 15  2  0
 15 16  1  0
 15  5  1  0
 17 16  2  0
 18 17  1  0
 19 18  2  0
 19 14  1  0
 21 20  2  0
 21 14  1  0
 22 21  1  0
 23 20  1  0
  2 24  1  0
  3 25  1  0
  4 26  1  0
  8 27  1  0
  9 28  1  0
 13 29  1  0
 13 30  1  0
 16 31  1  0
 17 32  1  0
 18 33  1  0
 19 34  1  0
 22 35  1  0
 22 36  1  0
M  ISO  8  24  14  25  14  26  14  27  14  28  14  31  14  32  14  33  14
M  ISO  1  34  14
M  END
>  <minimizedAffinity>  (1) 
-5.56039762

>  <minimizedRMSD>  (1) 
2.11621976

$$$$
