
     RDKit          3D

 37 39  0  0  1  0  0  0  0  0999 V2000
   38.9980   32.8090   46.8190 C   0  0  0  0  0  0  0  0  0  0  0  0
   40.0640   32.0790   46.2820 C   0  0  0  0  0  0  0  0  0  0  0  0
   39.8100   30.7740   45.7920 C   0  0  0  0  0  0  0  0  0  0  0  0
   38.5440   30.3090   45.8720 N   0  0  0  0  0  0  0  0  0  0  0  0
   37.5430   31.0270   46.3900 C   0  0  0  0  0  0  0  0  0  0  0  0
   37.7780   32.2620   46.8550 N   0  0  0  0  0  0  0  0  0  0  0  0
   36.2320   30.4610   46.4530 N   0  0  0  0  0  0  0  0  0  0  0  0
   35.5090   29.9890   45.2820 C   0  0  0  0  0  0  0  0  0  0  0  0
   34.2770   29.3650   45.8070 C   0  0  0  0  0  0  0  0  0  0  0  0
   34.5410   29.1460   47.2900 C   0  0  0  0  0  0  0  0  0  0  0  0
   35.4410   30.2760   47.6410 C   0  0  1  0  0  0  0  0  0  0  0  0
   35.4690   29.5870   49.9600 C   0  0  0  0  0  0  0  0  0  0  0  0
   36.2000   30.0360   48.8720 C   0  0  0  0  0  0  0  0  0  0  0  0
   37.5350   30.1980   49.0620 C   0  0  0  0  0  0  0  0  0  0  0  0
   38.1670   29.9390   50.2590 C   0  0  0  0  0  0  0  0  0  0  0  0
   37.4390   29.4930   51.3410 C   0  0  0  0  0  0  0  0  0  0  0  0
   36.0820   29.3230   51.1670 C   0  0  0  0  0  0  0  0  0  0  0  0
   33.2090   29.9240   50.8480 N   0  0  0  0  0  0  0  0  0  0  0  0
   34.0370   29.3370   50.0150 C   0  0  0  0  0  0  0  0  0  0  0  0
   33.1140   28.5080   49.3200 N   0  0  0  0  0  0  0  0  0  0  0  0
   32.2140   29.6380   50.7630 H   0  0  0  0  0  0  0  0  0  0  0  0
   39.1620   33.8246   47.2084 H   0  0  0  0  0  0  0  0  0  0  0  0
   41.0759   32.5083   46.2412 H   0  0  0  0  0  0  0  0  0  0  0  0
   40.6154   30.1609   45.3615 H   0  0  0  0  0  0  0  0  0  0  0  0
   36.1096   29.2506   44.7306 H   0  0  0  0  0  0  0  0  0  0  0  0
   35.2866   30.8071   44.5811 H   0  0  0  0  0  0  0  0  0  0  0  0
   33.4149   30.0329   45.6632 H   0  0  0  0  0  0  0  0  0  0  0  0
   34.0395   28.4244   45.2885 H   0  0  0  0  0  0  0  0  0  0  0  0
   33.6065   29.1907   47.8686 H   0  0  0  0  0  0  0  0  0  0  0  0
   34.9767   28.1605   47.5114 H   0  0  0  0  0  0  0  0  0  0  0  0
   34.9039   31.2006   47.8989 H   0  0  0  0  0  0  0  0  0  0  0  0
   38.1429   30.5542   48.2173 H   0  0  0  0  0  0  0  0  0  0  0  0
   39.2529   30.0883   50.3509 H   0  0  0  0  0  0  0  0  0  0  0  0
   37.9221   29.2809   52.3062 H   0  0  0  0  0  0  0  0  0  0  0  0
   35.4732   28.9681   52.0116 H   0  0  0  0  0  0  0  0  0  0  0  0
   32.1150   28.5272   49.5701 H   0  0  0  0  0  0  0  0  0  0  0  0
   33.4445   27.8884   48.5665 H   0  0  0  0  0  0  0  0  0  0  0  0
  1  6  2  0
  2  1  1  0
  3  4  1  0
  3  2  2  0
  4  5  2  0
  5  7  1  0
  5  6  1  0
  7 11  1  0
  8  9  1  0
  8  7  1  0
  9 10  1  0
 10 11  1  0
 11 13  1  0
 12 19  1  0
 12 17  2  0
 13 14  2  0
 13 12  1  0
 14 15  1  0
 15 16  2  0
 17 16  1  0
 19 18  2  0
 20 19  1  0
 21 18  1  0
  1 22  1  0
  2 23  1  0
  3 24  1  0
  8 25  1  0
  8 26  1  0
  9 27  1  0
  9 28  1  0
 10 29  1  0
 10 30  1  0
 11 31  1  1
 14 32  1  0
 15 33  1  0
 16 34  1  0
 17 35  1  0
 20 36  1  0
 20 37  1  0
M  ISO  8  22  14  23  14  24  14  25  13  26  13  27  13  28  13  29  13
M  ISO  6  30  13  31  13  32  14  33  14  34  14  35  14
M  END
>  <minimizedAffinity>  (1) 
-6.47711039

>  <minimizedRMSD>  (1) 
2.6845746

$$$$
