
     RDKit          3D

 23 25  0  0  0  0  0  0  0  0999 V2000
   37.0460   29.5580   51.3080 C   0  0  0  0  0  0  0  0  0  0  0  0
   37.9100   30.3530   50.5500 C   0  0  0  0  0  0  0  0  0  0  0  0
   37.3590   31.0430   49.4440 C   0  0  0  0  0  0  0  0  0  0  0  0
   36.0210   30.8850   49.1930 N   0  0  0  0  0  0  0  0  0  0  0  0
   35.2420   30.1090   49.9560 C   0  0  0  0  0  0  0  0  0  0  0  0
   35.7410   29.4340   51.0240 N   0  0  0  0  0  0  0  0  0  0  0  0
   33.8760   30.0390   49.5780 N   0  0  0  0  0  0  0  0  0  0  0  0
   38.1960   31.8650   48.6400 N   0  0  0  0  0  0  0  0  0  0  0  0
   38.5540   33.0950   49.1080 C   0  0  0  0  0  0  0  0  0  0  0  0
   39.3420   33.7230   48.2170 N   0  0  0  0  0  0  0  0  0  0  0  0
   39.4940   32.8970   47.1690 C   0  0  0  0  0  0  0  0  0  0  0  0
   40.1510   32.8930   45.9380 C   0  0  0  0  0  0  0  0  0  0  0  0
   40.0530   31.8200   45.1280 N   0  0  0  0  0  0  0  0  0  0  0  0
   39.3460   30.7280   45.4420 C   0  0  0  0  0  0  0  0  0  0  0  0
   38.6820   30.6720   46.6290 N   0  0  0  0  0  0  0  0  0  0  0  0
   38.7820   31.7460   47.4340 C   0  0  0  0  0  0  0  0  0  0  0  0
   37.4525   29.0121   52.1722 H   0  0  0  0  0  0  0  0  0  0  0  0
   38.9770   30.4391   50.8032 H   0  0  0  0  0  0  0  0  0  0  0  0
   33.2202   29.4600   50.1217 H   0  0  0  0  0  0  0  0  0  0  0  0
   33.5403   30.5672   48.7600 H   0  0  0  0  0  0  0  0  0  0  0  0
   38.2426   33.5138   50.0763 H   0  0  0  0  0  0  0  0  0  0  0  0
   40.7478   33.7639   45.6291 H   0  0  0  0  0  0  0  0  0  0  0  0
   39.3016   29.8792   44.7438 H   0  0  0  0  0  0  0  0  0  0  0  0
  2  1  2  0
  3  2  1  0
  4  3  2  0
  4  5  1  0
  5  6  2  0
  6  1  1  0
  7  5  1  0
  8  9  1  0
  8  3  1  0
 10  9  2  0
 11 16  2  0
 11 10  1  0
 12 11  1  0
 13 14  1  0
 13 12  2  0
 14 15  2  0
 15 16  1  0
 16  8  1  0
  1 17  1  0
  2 18  1  0
  7 19  1  0
  7 20  1  0
  9 21  1  0
 12 22  1  0
 14 23  1  0
M  ISO  5  17  14  18  14  21  14  22  14  23  14
M  END
>  <minimizedAffinity>  (1) 
-5.99046612

>  <minimizedRMSD>  (1) 
1.64823961

$$$$
