
     RDKit          3D

 46 51  0  0  0  0  0  0  0  0999 V2000
   38.4600   31.4020   46.1190 C   0  0  0  0  0  0  0  0  0  0  0  0
   39.2010   31.4130   44.9680 N   0  0  0  0  0  0  0  0  0  0  0  0
   40.2020   32.3150   44.8270 C   0  0  0  0  0  0  0  0  0  0  0  0
   40.5150   33.2160   45.7730 N   0  0  0  0  0  0  0  0  0  0  0  0
   39.8210   33.2480   46.9240 C   0  0  0  0  0  0  0  0  0  0  0  0
   40.1440   34.1620   47.8780 C   0  0  0  0  0  0  0  0  0  0  0  0
   39.4400   34.2040   49.0640 C   0  0  0  0  0  0  0  0  0  0  0  0
   38.3860   33.2960   49.2780 C   0  0  0  0  0  0  0  0  0  0  0  0
   38.1060   32.3870   48.2610 C   0  0  0  0  0  0  0  0  0  0  0  0
   38.7930   32.3360   47.0870 C   0  0  0  0  0  0  0  0  0  0  0  0
   37.0210   31.5700   48.6700 N   0  0  0  0  0  0  0  0  0  0  0  0
   35.7830   31.3300   48.1360 C   0  0  0  0  0  0  0  0  0  0  0  0
   35.0830   30.4870   48.9150 N   0  0  0  0  0  0  0  0  0  0  0  0
   35.8090   30.1310   49.9870 C   0  0  0  0  0  0  0  0  0  0  0  0
   35.6640   29.3350   51.0980 C   0  0  0  0  0  0  0  0  0  0  0  0
   36.6500   29.2080   52.0070 N   0  0  0  0  0  0  0  0  0  0  0  0
   37.7930   29.8800   51.8120 C   0  0  0  0  0  0  0  0  0  0  0  0
   37.9740   30.6670   50.7420 N   0  0  0  0  0  0  0  0  0  0  0  0
   37.0150   30.8180   49.8130 C   0  0  0  0  0  0  0  0  0  0  0  0
   37.1350   30.2950   46.4580 S   0  0  0  0  0  0  0  0  0  0  0  0
   34.6500   28.7440   46.4110 F   0  0  0  0  0  0  0  0  0  0  0  0
   34.8160   29.4520   45.2510 C   0  0  0  0  0  0  0  0  0  0  0  0
   33.8740   29.3790   44.2410 C   0  0  0  0  0  0  0  0  0  0  0  0
   34.0840   30.1210   43.0680 C   0  0  0  0  0  0  0  0  0  0  0  0
   35.2220   30.9230   42.9180 C   0  0  0  0  0  0  0  0  0  0  0  0
   36.1110   30.9390   43.9720 C   0  0  0  0  0  0  0  0  0  0  0  0
   35.9380   30.2250   45.1340 C   0  0  0  0  0  0  0  0  0  0  0  0
   32.8790   27.2500   44.0150 C   0  0  0  0  0  0  0  0  0  0  0  0
   32.7440   28.5520   44.4500 C   0  0  0  0  0  0  0  0  0  0  0  0
   31.5310   28.8870   45.0310 C   0  0  0  0  0  0  0  0  0  0  0  0
   30.5550   27.9400   45.1430 N   0  0  0  0  0  0  0  0  0  0  0  0
   30.7420   26.6990   44.7070 C   0  0  0  0  0  0  0  0  0  0  0  0
   31.9040   26.3170   44.1310 N   0  0  0  0  0  0  0  0  0  0  0  0
   40.7856   32.3093   43.8946 H   0  0  0  0  0  0  0  0  0  0  0  0
   40.9683   34.8693   47.7037 H   0  0  0  0  0  0  0  0  0  0  0  0
   39.7007   34.9420   49.8369 H   0  0  0  0  0  0  0  0  0  0  0  0
   37.8059   33.3042   50.2126 H   0  0  0  0  0  0  0  0  0  0  0  0
   35.4118   31.7674   47.1974 H   0  0  0  0  0  0  0  0  0  0  0  0
   34.7210   28.7890   51.2484 H   0  0  0  0  0  0  0  0  0  0  0  0
   38.6037   29.7833   52.5491 H   0  0  0  0  0  0  0  0  0  0  0  0
   33.3443   30.0717   42.2554 H   0  0  0  0  0  0  0  0  0  0  0  0
   35.3980   31.5108   42.0051 H   0  0  0  0  0  0  0  0  0  0  0  0
   37.0134   31.5608   43.8773 H   0  0  0  0  0  0  0  0  0  0  0  0
   33.8300   26.9533   43.5486 H   0  0  0  0  0  0  0  0  0  0  0  0
   31.3564   29.9088   45.3991 H   0  0  0  0  0  0  0  0  0  0  0  0
   29.9311   25.9639   44.8174 H   0  0  0  0  0  0  0  0  0  0  0  0
  1 20  1  0
  1 10  1  0
  2  1  2  0
  3  2  1  0
  3  4  2  0
  4  5  1  0
  5 10  2  0
  5  6  1  0
  6  7  2  0
  7  8  1  0
  9 11  1  0
  9  8  2  0
 10  9  1  0
 11 19  1  0
 12 11  1  0
 12 13  2  0
 13 14  1  0
 14 15  2  0
 15 16  1  0
 17 16  2  0
 18 17  1  0
 19 14  1  0
 19 18  2  0
 22 21  1  0
 23 29  1  0
 23 22  2  0
 24 23  1  0
 25 24  2  0
 25 26  1  0
 26 27  2  0
 27 22  1  0
 27 20  1  0
 28 33  2  0
 28 29  1  0
 29 30  2  0
 30 31  1  0
 32 31  2  0
 33 32  1  0
  3 34  1  0
  6 35  1  0
  7 36  1  0
  8 37  1  0
 12 38  1  0
 15 39  1  0
 17 40  1  0
 24 41  1  0
 25 42  1  0
 26 43  1  0
 28 44  1  0
 30 45  1  0
 32 46  1  0
M  ISO  8  34  14  35  14  36  14  37  14  38  14  39  14  40  14  41  14
M  ISO  5  42  14  43  14  44  14  45  14  46  14
M  END
>  <minimizedAffinity>  (1) 
-5.42416525

>  <minimizedRMSD>  (1) 
2.09953356

$$$$
