
     RDKit          3D

 48 54  0  0  1  0  0  0  0  0999 V2000
   32.9150   28.3500   47.3640 C   0  0  0  0  0  0  0  0  0  0  0  0
   33.4790   28.3770   46.0950 C   0  0  0  0  0  0  0  0  0  0  0  0
   34.6860   28.9960   46.1960 N   0  0  0  0  0  0  0  0  0  0  0  0
   34.8880   29.3550   47.4920 C   0  0  0  0  0  0  0  0  0  0  0  0
   33.8040   28.9550   48.1910 N   0  0  0  0  0  0  0  0  0  0  0  0
   36.0740   30.0610   48.0480 C   0  0  0  0  0  0  0  0  0  0  0  0
   36.4130   29.9610   49.3980 C   0  0  0  0  0  0  0  0  0  0  0  0
   37.8980   31.0040   49.5370 S   0  0  0  0  0  0  0  0  0  0  0  0
   37.8220   31.4240   47.6750 C   0  0  0  0  0  0  0  0  0  0  0  0
   36.8930   30.8260   47.3770 N   0  0  0  0  0  0  0  0  0  0  0  0
   38.7100   32.2660   46.8940 N   0  0  0  0  0  0  0  0  0  0  0  0
   39.5610   33.0720   47.5420 C   0  0  0  0  0  0  0  0  0  0  0  0
   40.2250   33.7020   46.5550 N   0  0  0  0  0  0  0  0  0  0  0  0
   39.7910   33.2910   45.3500 C   0  0  0  0  0  0  0  0  0  0  0  0
   40.0900   33.5740   44.0230 C   0  0  0  0  0  0  0  0  0  0  0  0
   39.4170   32.9370   43.0480 N   0  0  0  0  0  0  0  0  0  0  0  0
   38.4530   32.0240   43.2800 C   0  0  0  0  0  0  0  0  0  0  0  0
   38.1620   31.7480   44.5640 N   0  0  0  0  0  0  0  0  0  0  0  0
   38.8030   32.3540   45.5730 C   0  0  0  0  0  0  0  0  0  0  0  0
   31.1890   27.6010   49.0990 C   0  0  1  0  0  0  0  0  0  0  0  0
   31.4950   26.3520   48.1860 C   0  0  0  0  0  0  0  0  0  0  0  0
   31.5760   27.7680   47.6980 C   0  0  2  0  0  0  0  0  0  0  0  0
   27.7720   28.6120   49.5770 C   0  0  0  0  0  0  0  0  0  0  0  0
   27.8720   27.6000   50.5320 C   0  0  0  0  0  0  0  0  0  0  0  0
   29.1850   27.0840   50.4740 C   0  0  0  0  0  0  0  0  0  0  0  0
   29.8140   27.7780   49.5170 N   0  0  0  0  0  0  0  0  0  0  0  0
   28.9620   28.6490   49.0270 N   0  0  0  0  0  0  0  0  0  0  0  0
   25.2770   28.8200   49.5800 C   0  0  0  0  0  0  0  0  0  0  0  0
   26.5690   29.3590   49.3590 C   0  0  0  0  0  0  0  0  0  0  0  0
   26.6290   30.6600   48.9150 C   0  0  0  0  0  0  0  0  0  0  0  0
   25.4730   31.3500   48.7140 N   0  0  0  0  0  0  0  0  0  0  0  0
   24.2560   30.7920   48.9400 C   0  0  0  0  0  0  0  0  0  0  0  0
   24.1590   29.5160   49.3760 N   0  0  0  0  0  0  0  0  0  0  0  0
   33.0311   27.9716   45.1757 H   0  0  0  0  0  0  0  0  0  0  0  0
   35.3398   29.1651   45.4183 H   0  0  0  0  0  0  0  0  0  0  0  0
   35.9047   29.3891   50.1883 H   0  0  0  0  0  0  0  0  0  0  0  0
   39.6878   33.1914   48.6281 H   0  0  0  0  0  0  0  0  0  0  0  0
   40.8679   34.3103   43.7727 H   0  0  0  0  0  0  0  0  0  0  0  0
   37.9259   31.5251   42.4534 H   0  0  0  0  0  0  0  0  0  0  0  0
   31.5611   28.0220   50.0446 H   0  0  0  0  0  0  0  0  0  0  0  0
   32.4096   25.7598   48.3373 H   0  0  0  0  0  0  0  0  0  0  0  0
   30.9658   25.4353   47.8867 H   0  0  0  0  0  0  0  0  0  0  0  0
   31.1171   28.3019   46.8528 H   0  0  0  0  0  0  0  0  0  0  0  0
   27.0720   27.2645   51.2084 H   0  0  0  0  0  0  0  0  0  0  0  0
   29.6059   26.2757   51.0901 H   0  0  0  0  0  0  0  0  0  0  0  0
   25.1934   27.7823   49.9353 H   0  0  0  0  0  0  0  0  0  0  0  0
   27.6014   31.1377   48.7244 H   0  0  0  0  0  0  0  0  0  0  0  0
   23.3436   31.3816   48.7673 H   0  0  0  0  0  0  0  0  0  0  0  0
  1 22  1  0
  1  5  1  0
  2  3  1  0
  2  1  2  0
  3  4  1  0
  4  6  1  0
  4  5  2  0
  6  7  2  0
  7  8  1  0
  9  8  1  0
 10  9  2  0
 10  6  1  0
 11 12  1  0
 11  9  1  0
 13 12  2  0
 14 19  2  0
 14 13  1  0
 15 14  1  0
 16 17  1  0
 16 15  2  0
 17 18  2  0
 18 19  1  0
 19 11  1  0
 20 26  1  0
 21 20  1  0
 22 21  1  0
 22 20  1  0
 23 24  1  0
 25 24  2  0
 26 25  1  0
 27 26  1  0
 27 23  2  0
 29 23  1  0
 29 28  2  0
 30 29  1  0
 31 30  2  0
 31 32  1  0
 32 33  2  0
 33 28  1  0
  2 34  1  0
  3 35  1  0
  7 36  1  0
 12 37  1  0
 15 38  1  0
 17 39  1  0
 20 40  1  1
 21 41  1  0
 21 42  1  0
 22 43  1  6
 24 44  1  0
 25 45  1  0
 28 46  1  0
 30 47  1  0
 32 48  1  0
M  ISO  8  34  14  35   9  36  14  37  14  38  14  39  14  40  13  41  13
M  ISO  7  42  13  43  13  44  14  45  14  46  14  47  14  48  14
M  END
>  <minimizedAffinity>  (1) 
-7.60062218

>  <minimizedRMSD>  (1) 
2.33554316

$$$$
