
     RDKit          3D

 38 42  0  0  1  0  0  0  0  0999 V2000
   35.0250   29.1270   50.6010 C   0  0  0  0  0  0  0  0  0  0  0  0
   34.0310   28.8990   49.5130 C   0  0  0  0  0  0  0  0  0  0  0  0
   34.2170   29.3840   48.2300 C   0  0  0  0  0  0  0  0  0  0  0  0
   33.1910   29.0550   47.4330 N   0  0  0  0  0  0  0  0  0  0  0  0
   32.3440   28.3500   48.2320 C   0  0  0  0  0  0  0  0  0  0  0  0
   32.8580   28.2640   49.4740 N   0  0  0  0  0  0  0  0  0  0  0  0
   31.1040   27.7910   47.8080 N   0  0  0  0  0  0  0  0  0  0  0  0
   30.7750   27.4030   46.5770 C   0  0  0  0  0  0  0  0  0  0  0  0
   29.5000   26.9210   46.5710 N   0  0  0  0  0  0  0  0  0  0  0  0
   29.0240   27.0120   47.8330 C   0  0  0  0  0  0  0  0  0  0  0  0
   27.7890   26.6580   48.3520 C   0  0  0  0  0  0  0  0  0  0  0  0
   27.5540   26.8540   49.6820 N   0  0  0  0  0  0  0  0  0  0  0  0
   28.5500   27.3910   50.4310 C   0  0  0  0  0  0  0  0  0  0  0  0
   29.7610   27.7340   49.9040 N   0  0  0  0  0  0  0  0  0  0  0  0
   30.0320   27.5550   48.5870 C   0  0  0  0  0  0  0  0  0  0  0  0
   36.8030   30.8770   50.1770 C   0  0  1  0  0  0  0  0  0  0  0  0
   36.3700   29.5200   50.0800 C   0  0  1  0  0  0  0  0  0  0  0  0
   37.5360   29.7920   50.9910 C   0  0  0  0  0  0  0  0  0  0  0  0
   37.7150   31.5020   49.1350 C   0  0  0  0  0  0  0  0  0  0  0  0
   38.2000   32.7600   49.4450 C   0  0  0  0  0  0  0  0  0  0  0  0
   39.0220   33.3330   48.4540 C   0  0  0  0  0  0  0  0  0  0  0  0
   39.2870   32.6530   47.2980 N   0  0  0  0  0  0  0  0  0  0  0  0
   38.7800   31.4090   47.0440 C   0  0  0  0  0  0  0  0  0  0  0  0
   37.9760   30.8270   47.9910 N   0  0  0  0  0  0  0  0  0  0  0  0
   34.6529   29.9291   51.2553 H   0  0  0  0  0  0  0  0  0  0  0  0
   35.1438   28.1793   51.1467 H   0  0  0  0  0  0  0  0  0  0  0  0
   35.0936   29.9644   47.9064 H   0  0  0  0  0  0  0  0  0  0  0  0
   33.0701   29.2848   46.4363 H   0  0  0  0  0  0  0  0  0  0  0  0
   31.4331   27.4626   45.6976 H   0  0  0  0  0  0  0  0  0  0  0  0
   27.0120   26.2268   47.7037 H   0  0  0  0  0  0  0  0  0  0  0  0
   28.3744   27.5561   51.5043 H   0  0  0  0  0  0  0  0  0  0  0  0
   36.2291   31.8003   50.3448 H   0  0  0  0  0  0  0  0  0  0  0  0
   36.2248   28.8140   49.2491 H   0  0  0  0  0  0  0  0  0  0  0  0
   38.5513   29.4724   50.7135 H   0  0  0  0  0  0  0  0  0  0  0  0
   37.7856   29.6148   52.0475 H   0  0  0  0  0  0  0  0  0  0  0  0
   37.9630   33.2720   50.3893 H   0  0  0  0  0  0  0  0  0  0  0  0
   39.4527   34.3328   48.6115 H   0  0  0  0  0  0  0  0  0  0  0  0
   39.0111   30.8876   46.1034 H   0  0  0  0  0  0  0  0  0  0  0  0
  2  1  1  0
  3  2  2  0
  4  3  1  0
  4  5  1  0
  5  6  2  0
  6  2  1  0
  7  5  1  0
  7 15  1  0
  8  7  1  0
  9  8  2  0
  9 10  1  0
 10 11  2  0
 10 15  1  0
 11 12  1  0
 12 13  2  0
 14 13  1  0
 15 14  2  0
 16 18  1  0
 17 16  1  0
 17  1  1  0
 17 18  1  0
 19 20  2  0
 19 16  1  0
 21 20  1  0
 22 21  2  0
 23 22  1  0
 23 24  2  0
 24 19  1  0
  1 25  1  0
  1 26  1  0
  3 27  1  0
  4 28  1  0
  8 29  1  0
 11 30  1  0
 13 31  1  0
 16 32  1  1
 17 33  1  6
 18 34  1  0
 18 35  1  0
 20 36  1  0
 21 37  1  0
 23 38  1  0
M  ISO  8  25   8  26   8  27  14  28   9  29  14  30  14  31  14  32  13
M  ISO  6  33  13  34  13  35  13  36  14  37  14  38  14
M  END
>  <minimizedAffinity>  (1) 
-6.8964386

>  <minimizedRMSD>  (1) 
1.11660171

$$$$
