
     RDKit          3D

 49 53  0  0  1  0  0  0  0  0999 V2000
   36.6380   30.0330   49.5280 C   0  0  2  0  0  0  0  0  0  0  0  0
   36.1480   29.0980   48.4730 C   0  0  0  0  0  0  0  0  0  0  0  0
   34.6730   29.2170   48.2350 C   0  0  2  0  0  0  0  0  0  0  0  0
   33.8400   29.0560   49.4530 C   0  0  0  0  0  0  0  0  0  0  0  0
   34.4550   29.7000   50.6780 C   0  0  0  0  0  0  0  0  0  0  0  0
   35.5330   30.7000   50.3000 C   0  0  0  0  0  0  0  0  0  0  0  0
   34.3500   28.2980   47.2120 N   0  0  0  0  0  0  0  0  0  0  0  0
   33.7510   27.0640   47.6230 C   0  0  0  0  0  0  0  0  0  0  0  0
   33.8470   26.2570   46.3260 C   0  0  0  0  0  0  0  0  0  0  0  0
   33.4880   27.3410   45.3230 C   0  0  0  0  0  0  0  0  0  0  0  0
   33.9840   28.6550   45.9820 C   0  0  1  0  0  0  0  0  0  0  0  0
   33.1910   29.6860   45.4950 N   0  0  0  0  0  0  0  0  0  0  0  0
   31.9270   30.0160   45.9160 C   0  0  0  0  0  0  0  0  0  0  0  0
   31.3930   31.0430   45.2940 N   0  0  0  0  0  0  0  0  0  0  0  0
   32.3010   31.4660   44.3980 C   0  0  0  0  0  0  0  0  0  0  0  0
   32.3480   32.4820   43.4530 C   0  0  0  0  0  0  0  0  0  0  0  0
   33.4230   32.6730   42.6670 N   0  0  0  0  0  0  0  0  0  0  0  0
   34.4780   31.8500   42.8090 C   0  0  0  0  0  0  0  0  0  0  0  0
   34.4310   30.8850   43.7090 N   0  0  0  0  0  0  0  0  0  0  0  0
   33.3930   30.6360   44.5260 C   0  0  0  0  0  0  0  0  0  0  0  0
   37.4980   31.0950   48.9620 C   0  0  0  0  0  0  0  0  0  0  0  0
   38.1140   30.7590   47.7550 C   0  0  0  0  0  0  0  0  0  0  0  0
   38.9290   31.7400   47.1720 C   0  0  0  0  0  0  0  0  0  0  0  0
   39.0800   32.9620   47.8060 N   0  0  0  0  0  0  0  0  0  0  0  0
   38.4530   33.2380   48.9890 C   0  0  0  0  0  0  0  0  0  0  0  0
   37.6880   32.3070   49.5290 N   0  0  0  0  0  0  0  0  0  0  0  0
   37.2126   29.3948   50.2154 H   0  0  0  0  0  0  0  0  0  0  0  0
   36.6752   29.3200   47.5334 H   0  0  0  0  0  0  0  0  0  0  0  0
   36.3473   28.0729   48.8186 H   0  0  0  0  0  0  0  0  0  0  0  0
   34.4349   30.2444   47.9223 H   0  0  0  0  0  0  0  0  0  0  0  0
   32.8581   29.5169   49.2699 H   0  0  0  0  0  0  0  0  0  0  0  0
   33.7555   27.9779   49.6545 H   0  0  0  0  0  0  0  0  0  0  0  0
   33.6668   30.2204   51.2418 H   0  0  0  0  0  0  0  0  0  0  0  0
   34.9166   28.9096   51.2880 H   0  0  0  0  0  0  0  0  0  0  0  0
   35.9505   31.1428   51.2163 H   0  0  0  0  0  0  0  0  0  0  0  0
   35.0830   31.4789   49.6669 H   0  0  0  0  0  0  0  0  0  0  0  0
   34.3174   26.5901   48.4382 H   0  0  0  0  0  0  0  0  0  0  0  0
   32.7320   27.1625   48.0254 H   0  0  0  0  0  0  0  0  0  0  0  0
   34.8619   25.8662   46.1610 H   0  0  0  0  0  0  0  0  0  0  0  0
   33.2138   25.3583   46.2880 H   0  0  0  0  0  0  0  0  0  0  0  0
   32.4009   27.3743   45.1581 H   0  0  0  0  0  0  0  0  0  0  0  0
   33.9440   27.1680   44.3370 H   0  0  0  0  0  0  0  0  0  0  0  0
   34.9059   29.2128   45.7605 H   0  0  0  0  0  0  0  0  0  0  0  0
   31.4028   29.4648   46.7106 H   0  0  0  0  0  0  0  0  0  0  0  0
   31.4811   33.1502   43.3438 H   0  0  0  0  0  0  0  0  0  0  0  0
   35.3717   31.9800   42.1809 H   0  0  0  0  0  0  0  0  0  0  0  0
   37.9675   29.7751   47.2854 H   0  0  0  0  0  0  0  0  0  0  0  0
   39.4434   31.5408   46.2203 H   0  0  0  0  0  0  0  0  0  0  0  0
   38.5828   34.2137   49.4800 H   0  0  0  0  0  0  0  0  0  0  0  0
  1  6  1  0
  2  1  1  0
  3  2  1  0
  3  4  1  0
  4  5  1  0
  6  5  1  0
  7  8  1  0
  7  3  1  0
  9  8  1  0
 10 11  1  0
 10  9  1  0
 11  7  1  0
 12 13  1  0
 12 11  1  0
 14 13  2  0
 15 20  2  0
 15 14  1  0
 16 15  1  0
 17 18  1  0
 17 16  2  0
 18 19  2  0
 19 20  1  0
 20 12  1  0
 21  1  1  0
 21 26  1  0
 22 21  2  0
 23 22  1  0
 23 24  2  0
 24 25  1  0
 25 26  2  0
  1 27  1  1
  2 28  1  0
  2 29  1  0
  3 30  1  6
  4 31  1  0
  4 32  1  0
  5 33  1  0
  5 34  1  0
  6 35  1  0
  6 36  1  0
  8 37  1  0
  8 38  1  0
  9 39  1  0
  9 40  1  0
 10 41  1  0
 10 42  1  0
 11 43  1  6
 13 44  1  0
 16 45  1  0
 18 46  1  0
 22 47  1  0
 23 48  1  0
 25 49  1  0
M  ISO  8  27  13  28  13  29  13  30  13  31  13  32  13  33  13  34  13
M  ISO  8  35  13  36  13  37  13  38  13  39  13  40  13  41  13  42  13
M  ISO  7  43  13  44  14  45  14  46  14  47  14  48  14  49  14
M  END
>  <minimizedAffinity>  (1) 
-5.71565247

>  <minimizedRMSD>  (1) 
6.46174097

$$$$
