
     RDKit          3D

 47 51  0  0  0  0  0  0  0  0999 V2000
   34.2500   28.0460   49.1870 C   0  0  0  0  0  0  0  0  0  0  0  0
   32.9400   28.1040   48.4350 C   0  0  0  0  0  0  0  0  0  0  0  0
   32.9400   28.6020   47.0750 C   0  0  0  0  0  0  0  0  0  0  0  0
   31.2170   28.4620   46.6810 S   0  0  0  0  0  0  0  0  0  0  0  0
   30.7240   27.7670   48.3610 C   0  0  0  0  0  0  0  0  0  0  0  0
   31.7860   27.7450   48.8970 N   0  0  0  0  0  0  0  0  0  0  0  0
   29.4290   27.3610   48.8840 N   0  0  0  0  0  0  0  0  0  0  0  0
   28.4780   26.9010   47.9250 C   0  0  0  0  0  0  0  0  0  0  0  0
   27.0810   26.8270   48.4300 C   0  0  0  0  0  0  0  0  0  0  0  0
   26.9040   27.4930   49.7220 N   0  0  0  0  0  0  0  0  0  0  0  0
   27.8670   26.8350   50.6070 C   0  0  0  0  0  0  0  0  0  0  0  0
   29.2030   27.4530   50.3070 C   0  0  0  0  0  0  0  0  0  0  0  0
   34.4170   29.2280   50.0780 C   0  0  0  0  0  0  0  0  0  0  0  0
   37.8030   30.6950   50.4980 C   0  0  0  0  0  0  0  0  0  0  0  0
   38.1520   31.0680   49.2100 C   0  0  0  0  0  0  0  0  0  0  0  0
   37.2230   30.8150   48.2020 C   0  0  0  0  0  0  0  0  0  0  0  0
   36.0420   30.2290   48.5070 N   0  0  0  0  0  0  0  0  0  0  0  0
   35.7620   29.8860   49.7920 C   0  0  0  0  0  0  0  0  0  0  0  0
   36.6310   30.1200   50.7550 N   0  0  0  0  0  0  0  0  0  0  0  0
   37.3300   31.0980   46.8000 N   0  0  0  0  0  0  0  0  0  0  0  0
   36.5620   30.6220   45.7790 C   0  0  0  0  0  0  0  0  0  0  0  0
   37.0510   31.1750   44.6430 N   0  0  0  0  0  0  0  0  0  0  0  0
   38.0930   31.9750   44.9260 C   0  0  0  0  0  0  0  0  0  0  0  0
   38.9560   32.7720   44.2020 C   0  0  0  0  0  0  0  0  0  0  0  0
   39.9410   33.4770   44.8310 N   0  0  0  0  0  0  0  0  0  0  0  0
   40.0880   33.4080   46.1800 C   0  0  0  0  0  0  0  0  0  0  0  0
   39.2660   32.6410   46.9210 N   0  0  0  0  0  0  0  0  0  0  0  0
   38.2810   31.9350   46.2980 C   0  0  0  0  0  0  0  0  0  0  0  0
   35.0778   28.0236   48.4630 H   0  0  0  0  0  0  0  0  0  0  0  0
   34.2522   27.1394   49.8099 H   0  0  0  0  0  0  0  0  0  0  0  0
   33.7755   28.9655   46.4587 H   0  0  0  0  0  0  0  0  0  0  0  0
   28.7790   25.8949   47.5976 H   0  0  0  0  0  0  0  0  0  0  0  0
   28.4770   27.6364   47.1070 H   0  0  0  0  0  0  0  0  0  0  0  0
   26.4168   27.3053   47.6951 H   0  0  0  0  0  0  0  0  0  0  0  0
   26.8381   25.7636   48.5718 H   0  0  0  0  0  0  0  0  0  0  0  0
   27.1092   28.4993   49.6442 H   0  0  0  0  0  0  0  0  0  0  0  0
   27.5958   27.0053   51.6594 H   0  0  0  0  0  0  0  0  0  0  0  0
   27.8830   25.7473   50.4437 H   0  0  0  0  0  0  0  0  0  0  0  0
   29.9941   26.9114   50.8462 H   0  0  0  0  0  0  0  0  0  0  0  0
   29.2178   28.5049   50.6285 H   0  0  0  0  0  0  0  0  0  0  0  0
   33.6075   29.9484   49.8889 H   0  0  0  0  0  0  0  0  0  0  0  0
   34.3793   28.9063   51.1292 H   0  0  0  0  0  0  0  0  0  0  0  0
   38.5075   30.8775   51.3228 H   0  0  0  0  0  0  0  0  0  0  0  0
   39.1200   31.5431   48.9924 H   0  0  0  0  0  0  0  0  0  0  0  0
   35.7135   29.9268   45.8613 H   0  0  0  0  0  0  0  0  0  0  0  0
   38.8493   32.8397   43.1093 H   0  0  0  0  0  0  0  0  0  0  0  0
   40.8859   33.9841   46.6713 H   0  0  0  0  0  0  0  0  0  0  0  0
  1 13  1  0
  2  6  1  0
  2  1  1  0
  3  2  2  0
  4  3  1  0
  4  5  1  0
  5  7  1  0
  5  6  2  0
  7 12  1  0
  8  9  1  0
  8  7  1  0
  9 10  1  0
 10 11  1  0
 12 11  1  0
 14 19  2  0
 15 14  1  0
 16 17  1  0
 16 15  2  0
 17 18  2  0
 18 13  1  0
 18 19  1  0
 20 16  1  0
 21 20  1  0
 22 23  1  0
 22 21  2  0
 23 28  2  0
 24 25  2  0
 24 23  1  0
 25 26  1  0
 26 27  2  0
 28 20  1  0
 28 27  1  0
  1 29  1  0
  1 30  1  0
  3 31  1  0
  8 32  1  0
  8 33  1  0
  9 34  1  0
  9 35  1  0
 10 36  1  0
 11 37  1  0
 11 38  1  0
 12 39  1  0
 12 40  1  0
 13 41  1  0
 13 42  1  0
 14 43  1  0
 15 44  1  0
 21 45  1  0
 24 46  1  0
 26 47  1  0
M  ISO  8  29   8  30   8  31  14  32  13  33  13  34  13  35  13  36   5
M  ISO  8  37  13  38  13  39  13  40  13  41   8  42   8  43  14  44  14
M  ISO  3  45  14  46  14  47  14
M  END
>  <minimizedAffinity>  (1) 
-7.75398111

>  <minimizedRMSD>  (1) 
1.75635767

$$$$
