
     RDKit          3D

 27 29  0  0  0  0  0  0  0  0999 V2000
   35.2420   29.7700   46.1770 O   0  0  0  0  0  0  0  0  0  0  0  0
   34.1600   29.4070   47.1910 P   0  0  1  0  0  0  0  0  0  0  0  0
   34.3260   27.8040   47.6940 O   0  0  0  0  0  0  0  0  0  0  0  0
   34.2670   30.3820   48.6070 O   0  0  0  0  0  0  0  0  0  0  0  0
   35.3510   30.3310   49.4670 C   0  0  0  0  0  0  0  0  0  0  0  0
   35.5180   29.4340   50.5360 C   0  0  0  0  0  0  0  0  0  0  0  0
   36.6730   29.5290   51.2950 C   0  0  0  0  0  0  0  0  0  0  0  0
   37.5990   30.4830   50.9790 N   0  0  0  0  0  0  0  0  0  0  0  0
   37.4070   31.3430   49.9290 C   0  0  0  0  0  0  0  0  0  0  0  0
   36.2790   31.2510   49.1880 N   0  0  0  0  0  0  0  0  0  0  0  0
   32.6870   29.6850   46.4270 O   0  0  0  0  0  0  0  0  0  0  0  0
   31.3110   28.2450   47.9120 N   0  0  0  0  0  0  0  0  0  0  0  0
   31.5100   29.1280   46.9010 C   0  0  0  0  0  0  0  0  0  0  0  0
   30.3090   29.4210   46.3690 N   0  0  0  0  0  0  0  0  0  0  0  0
   29.3550   28.7480   47.0150 C   0  0  0  0  0  0  0  0  0  0  0  0
   27.9830   28.6000   46.9780 C   0  0  0  0  0  0  0  0  0  0  0  0
   27.3410   27.7780   47.8480 N   0  0  0  0  0  0  0  0  0  0  0  0
   28.0080   27.0830   48.7700 C   0  0  0  0  0  0  0  0  0  0  0  0
   29.3640   27.1540   48.8970 N   0  0  0  0  0  0  0  0  0  0  0  0
   29.9740   27.9880   48.0080 C   0  0  0  0  0  0  0  0  0  0  0  0
   34.3298   27.7673   48.6833 H   0  0  0  0  0  0  0  0  0  0  0  0
   34.7527   28.6774   50.7637 H   0  0  0  0  0  0  0  0  0  0  0  0
   36.8424   28.8459   52.1404 H   0  0  0  0  0  0  0  0  0  0  0  0
   38.1654   32.1032   49.6904 H   0  0  0  0  0  0  0  0  0  0  0  0
   32.0459   27.8370   48.5073 H   0  0  0  0  0  0  0  0  0  0  0  0
   27.3994   29.1576   46.2307 H   0  0  0  0  0  0  0  0  0  0  0  0
   27.4447   26.4294   49.4522 H   0  0  0  0  0  0  0  0  0  0  0  0
  2  1  2  0
  2  3  1  0
  2  4  1  0
  4  5  1  0
  5  6  2  0
  6  7  1  0
  8  7  2  0
  9  8  1  0
 10  5  1  0
 10  9  2  0
 11 13  1  0
 11  2  1  0
 12 20  1  0
 13 12  1  0
 14 13  2  0
 14 15  1  0
 15 20  2  0
 16 15  1  0
 16 17  2  0
 17 18  1  0
 18 19  2  0
 20 19  1  0
  3 21  1  0
  6 22  1  0
  7 23  1  0
  9 24  1  0
 12 25  1  0
 16 26  1  0
 18 27  1  0
M  ISO  7  21   3  22  14  23  14  24  14  25   9  26  14  27  14
M  END
>  <minimizedAffinity>  (1) 
-4.69590235

>  <minimizedRMSD>  (1) 
3.09202051

$$$$
