
     RDKit          3D

 27 29  0  0  0  0  0  0  0  0999 V2000
   38.4440   32.1550   46.8870 C   0  0  0  0  0  0  0  0  0  0  0  0
   37.5200   31.2760   47.4520 C   0  0  0  0  0  0  0  0  0  0  0  0
   37.3290   31.3310   48.8310 C   0  0  0  0  0  0  0  0  0  0  0  0
   38.0480   32.2350   49.5740 N   0  0  0  0  0  0  0  0  0  0  0  0
   38.9340   33.0710   48.9800 C   0  0  0  0  0  0  0  0  0  0  0  0
   39.1420   33.0420   47.6410 N   0  0  0  0  0  0  0  0  0  0  0  0
   36.3870   30.4330   49.4090 N   0  0  0  0  0  0  0  0  0  0  0  0
   36.2770   30.0680   50.7090 C   0  0  0  0  0  0  0  0  0  0  0  0
   35.2420   29.1980   50.7970 N   0  0  0  0  0  0  0  0  0  0  0  0
   34.7140   29.0220   49.5750 C   0  0  0  0  0  0  0  0  0  0  0  0
   33.6520   28.2370   49.1440 C   0  0  0  0  0  0  0  0  0  0  0  0
   33.3450   28.2630   47.8210 N   0  0  0  0  0  0  0  0  0  0  0  0
   34.0440   29.0240   46.9390 C   0  0  0  0  0  0  0  0  0  0  0  0
   35.0720   29.7780   47.3790 N   0  0  0  0  0  0  0  0  0  0  0  0
   35.4310   29.8030   48.6660 C   0  0  0  0  0  0  0  0  0  0  0  0
   38.7600   32.2400   45.5390 O   0  0  0  0  0  0  0  0  0  0  0  0
   41.2960   31.3900   45.5460 O   0  0  0  0  0  0  0  0  0  0  0  0
   39.9680   31.2820   44.8190 P   0  0  0  0  0  0  0  0  0  0  0  0
   39.3810   29.6810   44.8390 O   0  0  0  0  0  0  0  0  0  0  0  0
   40.2570   31.7970   43.2270 O   0  0  0  0  0  0  0  0  0  0  0  0
   36.9604   30.5627   46.8291 H   0  0  0  0  0  0  0  0  0  0  0  0
   39.4957   33.7877   49.5971 H   0  0  0  0  0  0  0  0  0  0  0  0
   36.9105   30.4138   51.5391 H   0  0  0  0  0  0  0  0  0  0  0  0
   33.0798   27.6162   49.8492 H   0  0  0  0  0  0  0  0  0  0  0  0
   33.7733   29.0252   45.8728 H   0  0  0  0  0  0  0  0  0  0  0  0
   39.2712   29.3815   45.7762 H   0  0  0  0  0  0  0  0  0  0  0  0
   40.7414   32.6602   43.2422 H   0  0  0  0  0  0  0  0  0  0  0  0
  1  2  2  0
  1  6  1  0
  2  3  1  0
  3  7  1  0
  3  4  2  0
  5  4  1  0
  6  5  2  0
  7  8  1  0
  8  9  2  0
 10  9  1  0
 11 10  2  0
 12 11  1  0
 13 14  1  0
 13 12  2  0
 14 15  2  0
 15  7  1  0
 15 10  1  0
 16  1  1  0
 18 19  1  0
 18 16  1  0
 18 17  2  0
 20 18  1  0
  2 21  1  0
  5 22  1  0
  8 23  1  0
 11 24  1  0
 13 25  1  0
 19 26  1  0
 20 27  1  0
M  ISO  7  21  14  22  14  23  14  24  14  25  14  26   3  27   3
M  END
>  <minimizedAffinity>  (1) 
-6.05652761

>  <minimizedRMSD>  (1) 
5.29487705

$$$$
