
     RDKit          3D

 42 45  0  0  1  0  0  0  0  0999 V2000
   31.5710   26.4720   48.2520 C   0  0  1  0  0  0  0  0  0  0  0  0
   32.1970   27.8400   48.2080 C   0  0  2  0  0  0  0  0  0  0  0  0
   31.7530   28.5170   46.9620 C   0  0  0  0  0  0  0  0  0  0  0  0
   30.9280   27.7310   46.1710 O   0  0  0  0  0  0  0  0  0  0  0  0
   29.7720   27.3540   46.8510 C   0  0  0  0  0  0  0  0  0  0  0  0
   30.0640   26.6690   48.1560 C   0  0  2  0  0  0  0  0  0  0  0  0
   31.9410   25.7270   47.1260 O   0  0  0  0  0  0  0  0  0  0  0  0
   33.9950   27.7680   48.3360 S   0  0  0  0  0  0  0  0  0  0  0  0
   34.6360   29.3140   49.0330 C   0  0  0  0  0  0  0  0  0  0  0  0
   36.3160   29.1850   49.6270 S   0  0  0  0  0  0  0  0  0  0  0  0
   37.2420   30.5900   49.0580 C   0  0  0  0  0  0  0  0  0  0  0  0
   37.0990   31.7380   49.8270 C   0  0  0  0  0  0  0  0  0  0  0  0
   37.7940   32.8930   49.4480 C   0  0  0  0  0  0  0  0  0  0  0  0
   38.5830   32.8190   48.3310 N   0  0  0  0  0  0  0  0  0  0  0  0
   38.6820   31.6760   47.6250 C   0  0  0  0  0  0  0  0  0  0  0  0
   38.0330   30.5830   47.9700 N   0  0  0  0  0  0  0  0  0  0  0  0
   29.7450   27.5080   49.2200 O   0  0  0  0  0  0  0  0  0  0  0  0
   28.4380   29.6130   48.9220 N   0  0  0  0  0  0  0  0  0  0  0  0
   28.6060   28.3000   49.1630 C   0  0  0  0  0  0  0  0  0  0  0  0
   27.3600   27.7870   49.3680 N   0  0  0  0  0  0  0  0  0  0  0  0
   26.4430   28.7700   49.2560 C   0  0  0  0  0  0  0  0  0  0  0  0
   25.0680   28.8020   49.3660 C   0  0  0  0  0  0  0  0  0  0  0  0
   24.4020   29.9730   49.1960 N   0  0  0  0  0  0  0  0  0  0  0  0
   25.1020   31.1100   48.9150 C   0  0  0  0  0  0  0  0  0  0  0  0
   26.4630   31.1150   48.7990 N   0  0  0  0  0  0  0  0  0  0  0  0
   27.1350   29.9440   48.9690 C   0  0  0  0  0  0  0  0  0  0  0  0
   31.8875   25.9541   49.1694 H   0  0  0  0  0  0  0  0  0  0  0  0
   31.8641   28.4224   49.0798 H   0  0  0  0  0  0  0  0  0  0  0  0
   31.2048   29.4299   47.2378 H   0  0  0  0  0  0  0  0  0  0  0  0
   32.6555   28.7355   46.3723 H   0  0  0  0  0  0  0  0  0  0  0  0
   29.1729   28.2542   47.0525 H   0  0  0  0  0  0  0  0  0  0  0  0
   29.2304   26.6389   46.2144 H   0  0  0  0  0  0  0  0  0  0  0  0
   29.4921   25.7303   48.1976 H   0  0  0  0  0  0  0  0  0  0  0  0
   32.3622   24.8790   47.4152 H   0  0  0  0  0  0  0  0  0  0  0  0
   34.6010   30.0886   48.2528 H   0  0  0  0  0  0  0  0  0  0  0  0
   34.0051   29.5650   49.8984 H   0  0  0  0  0  0  0  0  0  0  0  0
   36.4521   31.7397   50.7167 H   0  0  0  0  0  0  0  0  0  0  0  0
   37.7094   33.8251   50.0259 H   0  0  0  0  0  0  0  0  0  0  0  0
   39.3248   31.6548   46.7326 H   0  0  0  0  0  0  0  0  0  0  0  0
   29.2031   30.2747   48.7279 H   0  0  0  0  0  0  0  0  0  0  0  0
   24.5120   27.8800   49.5911 H   0  0  0  0  0  0  0  0  0  0  0  0
   24.5526   32.0530   48.7774 H   0  0  0  0  0  0  0  0  0  0  0  0
  2  1  1  0
  2  8  1  0
  3  2  1  0
  4  5  1  0
  4  3  1  0
  5  6  1  0
  6  1  1  0
  6 17  1  0
  7  1  1  0
  8  9  1  0
  9 10  1  0
 11 10  1  0
 11 12  2  0
 13 12  1  0
 14 13  2  0
 15 16  2  0
 15 14  1  0
 16 11  1  0
 18 26  1  0
 18 19  1  0
 19 17  1  0
 19 20  2  0
 21 22  2  0
 21 20  1  0
 23 22  1  0
 24 23  2  0
 25 24  1  0
 25 26  2  0
 26 21  1  0
  1 27  1  1
  2 28  1  1
  3 29  1  0
  3 30  1  0
  5 31  1  0
  5 32  1  0
  6 33  1  1
  7 34  1  0
  9 35  1  0
  9 36  1  0
 12 37  1  0
 13 38  1  0
 15 39  1  0
 18 40  1  0
 22 41  1  0
 24 42  1  0
M  ISO  8  27  13  28  13  29  13  30  13  31  13  32  13  33  13  34   3
M  ISO  8  35   8  36   8  37  14  38  14  39  14  40   9  41  14  42  14
M  END
>  <minimizedAffinity>  (1) 
-6.41825581

>  <minimizedRMSD>  (1) 
2.29207158

$$$$
