
     RDKit          3D

 34 37  0  0  0  0  0  0  0  0999 V2000
   37.5480   31.6210   47.9390 C   0  0  0  0  0  0  0  0  0  0  0  0
   35.9100   29.9820   48.8960 C   0  0  0  0  0  0  0  0  0  0  0  0
   36.4390   30.6950   47.8130 C   0  0  0  0  0  0  0  0  0  0  0  0
   35.8650   30.4070   46.6030 C   0  0  0  0  0  0  0  0  0  0  0  0
   34.8570   29.4970   46.4870 N   0  0  0  0  0  0  0  0  0  0  0  0
   34.3680   28.8240   47.5480 C   0  0  0  0  0  0  0  0  0  0  0  0
   34.8950   29.0650   48.7580 N   0  0  0  0  0  0  0  0  0  0  0  0
   36.4590   30.3270   50.2720 C   0  0  0  0  0  0  0  0  0  0  0  0
   36.1890   29.5310   51.4090 C   0  0  0  0  0  0  0  0  0  0  0  0
   37.4800   29.2000   50.6800 C   0  0  0  0  0  0  0  0  0  0  0  0
   38.8940   31.2020   47.5370 C   0  0  0  0  0  0  0  0  0  0  0  0
   39.4720   31.8230   46.3920 N   0  0  0  0  0  0  0  0  0  0  0  0
   40.0420   32.9500   45.9930 C   0  0  0  0  0  0  0  0  0  0  0  0
   40.3950   32.9810   44.6970 N   0  0  0  0  0  0  0  0  0  0  0  0
   40.0470   31.7930   44.1480 C   0  0  0  0  0  0  0  0  0  0  0  0
   40.2020   31.3560   42.8630 C   0  0  0  0  0  0  0  0  0  0  0  0
   39.7480   30.1080   42.6280 N   0  0  0  0  0  0  0  0  0  0  0  0
   39.1940   29.3970   43.6180 C   0  0  0  0  0  0  0  0  0  0  0  0
   39.0570   29.8540   44.8630 N   0  0  0  0  0  0  0  0  0  0  0  0
   39.4800   31.0970   45.2150 C   0  0  0  0  0  0  0  0  0  0  0  0
   37.2955   32.5050   47.3350 H   0  0  0  0  0  0  0  0  0  0  0  0
   37.6388   31.7651   49.0257 H   0  0  0  0  0  0  0  0  0  0  0  0
   36.2269   30.9235   45.7018 H   0  0  0  0  0  0  0  0  0  0  0  0
   33.5549   28.0935   47.4243 H   0  0  0  0  0  0  0  0  0  0  0  0
   36.3890   31.4187   50.1570 H   0  0  0  0  0  0  0  0  0  0  0  0
   36.2395   29.9885   52.4081 H   0  0  0  0  0  0  0  0  0  0  0  0
   35.3220   28.9239   51.7088 H   0  0  0  0  0  0  0  0  0  0  0  0
   37.5728   28.2794   50.0851 H   0  0  0  0  0  0  0  0  0  0  0  0
   38.5505   29.1267   50.9223 H   0  0  0  0  0  0  0  0  0  0  0  0
   39.5646   31.3945   48.3875 H   0  0  0  0  0  0  0  0  0  0  0  0
   38.7798   30.1463   47.2498 H   0  0  0  0  0  0  0  0  0  0  0  0
   40.2137   33.7979   46.6724 H   0  0  0  0  0  0  0  0  0  0  0  0
   40.6624   31.9753   42.0791 H   0  0  0  0  0  0  0  0  0  0  0  0
   38.8330   28.3827   43.3924 H   0  0  0  0  0  0  0  0  0  0  0  0
  2  8  1  0
  3  1  1  0
  3  2  1  0
  4  3  2  0
  5  4  1  0
  5  6  2  0
  6  7  1  0
  7  2  2  0
  8 10  1  0
  8  9  1  0
 10  9  1  0
 11  1  1  0
 12 11  1  0
 13 12  1  0
 14 13  2  0
 15 14  1  0
 15 20  2  0
 16 15  1  0
 17 16  2  0
 17 18  1  0
 18 19  2  0
 19 20  1  0
 20 12  1  0
  1 21  1  0
  1 22  1  0
  4 23  1  0
  6 24  1  0
  8 25  1  0
  9 26  1  0
  9 27  1  0
 10 28  1  0
 10 29  1  0
 11 30  1  0
 11 31  1  0
 13 32  1  0
 16 33  1  0
 18 34  1  0
M  ISO  8  21   8  22   8  23  14  24  14  25  13  26  13  27  13  28  13
M  ISO  6  29  13  30   8  31   8  32  14  33  14  34  14
M  END
>  <minimizedAffinity>  (1) 
-5.41294861

>  <minimizedRMSD>  (1) 
4.38549995

$$$$
