
     RDKit          3D

 52 56  0  0  0  0  0  0  0  0999 V2000
   33.3630   28.0490   47.5700 C   0  0  0  0  0  0  0  0  0  0  0  0
   31.8860   27.9520   47.7430 C   0  0  0  0  0  0  0  0  0  0  0  0
   31.4090   27.5030   48.9580 C   0  0  0  0  0  0  0  0  0  0  0  0
   30.0640   27.3860   49.1890 C   0  0  0  0  0  0  0  0  0  0  0  0
   29.1960   27.7100   48.2300 N   0  0  0  0  0  0  0  0  0  0  0  0
   29.6740   28.1530   47.0280 C   0  0  0  0  0  0  0  0  0  0  0  0
   30.9830   28.2650   46.8100 N   0  0  0  0  0  0  0  0  0  0  0  0
   28.6510   28.5070   46.0130 C   0  0  0  0  0  0  0  0  0  0  0  0
   28.3600   27.3410   45.1440 C   0  0  0  0  0  0  0  0  0  0  0  0
   29.3560   26.4150   44.9960 N   0  0  0  0  0  0  0  0  0  0  0  0
   29.2550   25.3360   44.2120 C   0  0  0  0  0  0  0  0  0  0  0  0
   28.1480   25.0780   43.4960 N   0  0  0  0  0  0  0  0  0  0  0  0
   27.1260   25.9730   43.6110 C   0  0  0  0  0  0  0  0  0  0  0  0
   25.9470   25.7740   42.9180 C   0  0  0  0  0  0  0  0  0  0  0  0
   24.9020   26.6610   43.0350 C   0  0  0  0  0  0  0  0  0  0  0  0
   25.0370   27.7770   43.8640 C   0  0  0  0  0  0  0  0  0  0  0  0
   26.2020   27.9860   44.5550 C   0  0  0  0  0  0  0  0  0  0  0  0
   27.2210   27.0800   44.4130 C   0  0  0  0  0  0  0  0  0  0  0  0
   33.9960   29.0340   48.5040 C   0  0  0  0  0  0  0  0  0  0  0  0
   34.9930   28.3950   49.3040 O   0  0  0  0  0  0  0  0  0  0  0  0
   37.2780   30.1180   51.5210 C   0  0  0  0  0  0  0  0  0  0  0  0
   38.0440   30.8450   50.5740 C   0  0  0  0  0  0  0  0  0  0  0  0
   37.7200   30.6920   49.2370 C   0  0  0  0  0  0  0  0  0  0  0  0
   36.6830   29.8460   48.9460 N   0  0  0  0  0  0  0  0  0  0  0  0
   35.9700   29.1670   49.8480 C   0  0  0  0  0  0  0  0  0  0  0  0
   36.2840   29.3140   51.1630 N   0  0  0  0  0  0  0  0  0  0  0  0
   38.8440   33.3600   49.1520 F   0  0  0  0  0  0  0  0  0  0  0  0
   38.9110   32.5860   48.0770 C   0  0  0  0  0  0  0  0  0  0  0  0
   38.3820   31.3490   48.1410 C   0  0  0  0  0  0  0  0  0  0  0  0
   38.5130   30.6240   46.9450 C   0  0  0  0  0  0  0  0  0  0  0  0
   39.1180   31.1330   45.8300 C   0  0  0  0  0  0  0  0  0  0  0  0
   39.6400   32.4070   45.8260 C   0  0  0  0  0  0  0  0  0  0  0  0
   39.5270   33.1330   46.9750 C   0  0  0  0  0  0  0  0  0  0  0  0
   33.8037   27.0580   47.7537 H   0  0  0  0  0  0  0  0  0  0  0  0
   33.5529   28.3979   46.5442 H   0  0  0  0  0  0  0  0  0  0  0  0
   32.1202   27.2349   49.7532 H   0  0  0  0  0  0  0  0  0  0  0  0
   29.7009   27.0258   50.1629 H   0  0  0  0  0  0  0  0  0  0  0  0
   27.7274   28.8187   46.5227 H   0  0  0  0  0  0  0  0  0  0  0  0
   29.0351   29.3288   45.3908 H   0  0  0  0  0  0  0  0  0  0  0  0
   30.1039   24.6390   44.1517 H   0  0  0  0  0  0  0  0  0  0  0  0
   25.8428   24.8952   42.2646 H   0  0  0  0  0  0  0  0  0  0  0  0
   23.9673   26.4927   42.4800 H   0  0  0  0  0  0  0  0  0  0  0  0
   24.2056   28.4905   43.9626 H   0  0  0  0  0  0  0  0  0  0  0  0
   26.3170   28.8624   45.2098 H   0  0  0  0  0  0  0  0  0  0  0  0
   34.4631   29.8396   47.9185 H   0  0  0  0  0  0  0  0  0  0  0  0
   33.2200   29.4471   49.1652 H   0  0  0  0  0  0  0  0  0  0  0  0
   37.5159   30.2241   52.5897 H   0  0  0  0  0  0  0  0  0  0  0  0
   38.8647   31.5056   50.8903 H   0  0  0  0  0  0  0  0  0  0  0  0
   38.1108   29.6010   46.9039 H   0  0  0  0  0  0  0  0  0  0  0  0
   39.1889   30.5156   44.9224 H   0  0  0  0  0  0  0  0  0  0  0  0
   40.1284   32.8225   44.9322 H   0  0  0  0  0  0  0  0  0  0  0  0
   39.9284   34.1561   47.0207 H   0  0  0  0  0  0  0  0  0  0  0  0
  1  2  1  0
  1 19  1  0
  2  3  2  0
  3  4  1  0
  5  4  2  0
  6  5  1  0
  7  6  2  0
  7  2  1  0
  8  6  1  0
  9  8  1  0
 10  9  2  0
 11 10  1  0
 12 13  1  0
 12 11  2  0
 13 18  2  0
 14 15  2  0
 14 13  1  0
 15 16  1  0
 16 17  2  0
 18 17  1  0
 18  9  1  0
 19 20  1  0
 20 25  1  0
 22 21  2  0
 23 22  1  0
 24 23  2  0
 24 25  1  0
 25 26  2  0
 26 21  1  0
 28 29  2  0
 28 27  1  0
 29 23  1  0
 30 29  1  0
 31 30  2  0
 32 31  1  0
 32 33  2  0
 33 28  1  0
  1 34  1  0
  1 35  1  0
  3 36  1  0
  4 37  1  0
  8 38  1  0
  8 39  1  0
 11 40  1  0
 14 41  1  0
 15 42  1  0
 16 43  1  0
 17 44  1  0
 19 45  1  0
 19 46  1  0
 21 47  1  0
 22 48  1  0
 30 49  1  0
 31 50  1  0
 32 51  1  0
 33 52  1  0
M  END
>  <minimizedAffinity>  (1) 
-7.12194252

>  <minimizedRMSD>  (1) 
1.68232119

$$$$
