
     RDKit          3D

 46 51  0  0  0  0  0  0  0  0999 V2000
   36.3610   30.3930   46.0610 C   0  0  0  0  0  0  0  0  0  0  0  0
   36.9170   30.7790   47.2340 C   0  0  0  0  0  0  0  0  0  0  0  0
   36.2800   30.4760   48.4370 C   0  0  0  0  0  0  0  0  0  0  0  0
   35.0760   29.7770   48.3920 C   0  0  0  0  0  0  0  0  0  0  0  0
   34.5140   29.3840   47.1640 C   0  0  0  0  0  0  0  0  0  0  0  0
   35.1970   29.7180   46.0500 N   0  0  0  0  0  0  0  0  0  0  0  0
   33.2610   28.6530   47.0770 C   0  0  0  0  0  0  0  0  0  0  0  0
   32.8050   27.7910   46.1100 N   0  0  0  0  0  0  0  0  0  0  0  0
   31.5730   27.3620   46.4780 C   0  0  0  0  0  0  0  0  0  0  0  0
   31.2560   27.9530   47.6710 N   0  0  0  0  0  0  0  0  0  0  0  0
   32.2850   28.7330   48.0260 N   0  0  0  0  0  0  0  0  0  0  0  0
   30.0540   27.7690   48.3960 C   0  0  0  0  0  0  0  0  0  0  0  0
   30.2440   27.2150   49.6120 N   0  0  0  0  0  0  0  0  0  0  0  0
   29.1820   26.9730   50.4320 C   0  0  0  0  0  0  0  0  0  0  0  0
   27.9200   27.2880   50.0320 N   0  0  0  0  0  0  0  0  0  0  0  0
   27.7020   27.8420   48.8200 C   0  0  0  0  0  0  0  0  0  0  0  0
   26.4330   28.1800   48.3670 C   0  0  0  0  0  0  0  0  0  0  0  0
   26.2710   28.7410   47.1240 C   0  0  0  0  0  0  0  0  0  0  0  0
   27.3760   28.9680   46.3280 C   0  0  0  0  0  0  0  0  0  0  0  0
   28.6690   28.6470   46.7380 C   0  0  0  0  0  0  0  0  0  0  0  0
   28.7680   28.0910   47.9810 C   0  0  0  0  0  0  0  0  0  0  0  0
   37.0350   30.7110   44.7450 C   0  0  0  0  0  0  0  0  0  0  0  0
   36.7380   29.8640   43.5780 C   0  0  0  0  0  0  0  0  0  0  0  0
   36.1790   31.2620   43.6420 C   0  0  0  0  0  0  0  0  0  0  0  0
   39.6980   33.2670   45.0140 C   0  0  0  0  0  0  0  0  0  0  0  0
   40.8260   32.5050   45.3370 C   0  0  0  0  0  0  0  0  0  0  0  0
   40.6640   31.1110   45.4600 C   0  0  0  0  0  0  0  0  0  0  0  0
   39.4350   30.5740   45.2630 N   0  0  0  0  0  0  0  0  0  0  0  0
   38.3630   31.3480   44.9510 C   0  0  0  0  0  0  0  0  0  0  0  0
   38.4940   32.6730   44.8290 N   0  0  0  0  0  0  0  0  0  0  0  0
   37.8689   31.3303   47.2378 H   0  0  0  0  0  0  0  0  0  0  0  0
   36.7180   30.7817   49.3986 H   0  0  0  0  0  0  0  0  0  0  0  0
   34.5575   29.5289   49.3299 H   0  0  0  0  0  0  0  0  0  0  0  0
   30.9386   26.6610   45.9158 H   0  0  0  0  0  0  0  0  0  0  0  0
   29.3460   26.5211   51.4214 H   0  0  0  0  0  0  0  0  0  0  0  0
   25.5559   27.9979   49.0054 H   0  0  0  0  0  0  0  0  0  0  0  0
   25.2663   29.0080   46.7645 H   0  0  0  0  0  0  0  0  0  0  0  0
   27.2309   29.4182   45.3349 H   0  0  0  0  0  0  0  0  0  0  0  0
   29.5491   28.8291   46.1037 H   0  0  0  0  0  0  0  0  0  0  0  0
   36.0665   28.9992   43.6844 H   0  0  0  0  0  0  0  0  0  0  0  0
   37.3459   29.3050   42.8514 H   0  0  0  0  0  0  0  0  0  0  0  0
   36.5699   32.0458   42.9765 H   0  0  0  0  0  0  0  0  0  0  0  0
   35.1774   31.7118   43.5745 H   0  0  0  0  0  0  0  0  0  0  0  0
   39.7892   34.3582   44.9092 H   0  0  0  0  0  0  0  0  0  0  0  0
   41.8069   32.9787   45.4899 H   0  0  0  0  0  0  0  0  0  0  0  0
   41.5208   30.4688   45.7118 H   0  0  0  0  0  0  0  0  0  0  0  0
  1  2  2  0
  2  3  1  0
  4  3  2  0
  5  4  1  0
  6  1  1  0
  6  5  2  0
  7  5  1  0
  7 11  2  0
  8  9  2  0
  8  7  1  0
  9 10  1  0
 10 11  1  0
 10 12  1  0
 12 13  2  0
 13 14  1  0
 15 14  2  0
 16 15  1  0
 17 16  2  0
 18 17  1  0
 19 20  1  0
 19 18  2  0
 20 21  2  0
 21 12  1  0
 21 16  1  0
 22 29  1  0
 22  1  1  0
 23 24  1  0
 23 22  1  0
 24 22  1  0
 25 26  2  0
 26 27  1  0
 28 27  2  0
 29 28  1  0
 30 29  2  0
 30 25  1  0
  2 31  1  0
  3 32  1  0
  4 33  1  0
  9 34  1  0
 14 35  1  0
 17 36  1  0
 18 37  1  0
 19 38  1  0
 20 39  1  0
 23 40  1  0
 23 41  1  0
 24 42  1  0
 24 43  1  0
 25 44  1  0
 26 45  1  0
 27 46  1  0
M  ISO  8  31  14  32  14  33  14  34  14  35  14  36  14  37  14  38  14
M  ISO  8  39  14  40  13  41  13  42  13  43  13  44  14  45  14  46  14
M  END
>  <minimizedAffinity>  (1) 
-7.07564878

>  <minimizedRMSD>  (1) 
1.60832214

$$$$
