
     RDKit          3D

 32 35  0  0  1  0  0  0  0  0999 V2000
   36.0080   30.7660   50.0500 C   0  0  1  0  0  0  0  0  0  0  0  0
   35.0570   29.7220   49.7370 C   0  0  2  0  0  0  0  0  0  0  0  0
   36.2230   29.3670   50.6380 C   0  0  0  0  0  0  0  0  0  0  0  0
   37.0900   31.1590   49.0740 C   0  0  0  0  0  0  0  0  0  0  0  0
   37.7350   32.3720   49.3250 C   0  0  0  0  0  0  0  0  0  0  0  0
   38.7130   32.7220   48.3870 C   0  0  0  0  0  0  0  0  0  0  0  0
   38.9830   31.9140   47.3280 N   0  0  0  0  0  0  0  0  0  0  0  0
   38.3300   30.7490   47.1290 C   0  0  0  0  0  0  0  0  0  0  0  0
   37.3680   30.3620   48.0150 N   0  0  0  0  0  0  0  0  0  0  0  0
   35.0780   29.1390   48.4610 O   0  0  0  0  0  0  0  0  0  0  0  0
   33.9610   29.3460   47.6480 C   0  0  0  0  0  0  0  0  0  0  0  0
   33.8200   30.4980   46.9520 N   0  0  0  0  0  0  0  0  0  0  0  0
   32.7510   30.7200   46.1610 C   0  0  0  0  0  0  0  0  0  0  0  0
   31.7780   29.8010   46.0310 N   0  0  0  0  0  0  0  0  0  0  0  0
   31.8750   28.6500   46.6970 C   0  0  0  0  0  0  0  0  0  0  0  0
   30.8500   27.7270   46.5350 C   0  0  0  0  0  0  0  0  0  0  0  0
   30.9470   26.5340   47.2240 C   0  0  0  0  0  0  0  0  0  0  0  0
   32.0280   26.2900   48.0350 C   0  0  0  0  0  0  0  0  0  0  0  0
   33.0630   27.1890   48.2140 C   0  0  0  0  0  0  0  0  0  0  0  0
   32.9620   28.3870   47.5210 C   0  0  0  0  0  0  0  0  0  0  0  0
   35.8584   31.7950   50.4090 H   0  0  0  0  0  0  0  0  0  0  0  0
   33.9609   29.6673   49.8120 H   0  0  0  0  0  0  0  0  0  0  0  0
   37.0379   28.7256   50.2712 H   0  0  0  0  0  0  0  0  0  0  0  0
   36.3521   28.9355   51.6416 H   0  0  0  0  0  0  0  0  0  0  0  0
   37.4931   33.0034   50.1927 H   0  0  0  0  0  0  0  0  0  0  0  0
   39.2701   33.6627   48.5084 H   0  0  0  0  0  0  0  0  0  0  0  0
   38.5715   30.1182   46.2608 H   0  0  0  0  0  0  0  0  0  0  0  0
   32.6734   31.6701   45.6121 H   0  0  0  0  0  0  0  0  0  0  0  0
   29.9912   27.9387   45.8810 H   0  0  0  0  0  0  0  0  0  0  0  0
   30.1557   25.7767   47.1228 H   0  0  0  0  0  0  0  0  0  0  0  0
   32.0727   25.3298   48.5698 H   0  0  0  0  0  0  0  0  0  0  0  0
   33.9185   26.9671   48.8689 H   0  0  0  0  0  0  0  0  0  0  0  0
  1  3  1  0
  2  1  1  0
  2  3  1  0
  4  5  2  0
  4  1  1  0
  6  5  1  0
  7  6  2  0
  8  7  1  0
  8  9  2  0
  9  4  1  0
 10  2  1  0
 11 10  1  0
 12 11  2  0
 13 12  1  0
 14 13  2  0
 14 15  1  0
 15 20  2  0
 16 15  1  0
 16 17  2  0
 17 18  1  0
 18 19  2  0
 20 11  1  0
 20 19  1  0
  1 21  1  1
  2 22  1  1
  3 23  1  0
  3 24  1  0
  5 25  1  0
  6 26  1  0
  8 27  1  0
 13 28  1  0
 16 29  1  0
 17 30  1  0
 18 31  1  0
 19 32  1  0
M  ISO  8  21  13  22  13  23  13  24  13  25  14  26  14  27  14  28  14
M  ISO  4  29  14  30  14  31  14  32  14
M  END
>  <minimizedAffinity>  (1) 
-5.40340281

>  <minimizedRMSD>  (1) 
2.89365554

$$$$
