
     RDKit          3D

 45 49  0  0  0  0  0  0  0  0999 V2000
   31.4490   28.9560   46.6090 C   0  0  0  0  0  0  0  0  0  0  0  0
   32.6570   28.3580   46.9730 C   0  0  0  0  0  0  0  0  0  0  0  0
   32.7570   27.2020   47.7110 C   0  0  0  0  0  0  0  0  0  0  0  0
   31.6170   26.5430   48.1470 C   0  0  0  0  0  0  0  0  0  0  0  0
   30.3790   27.0610   47.8320 C   0  0  0  0  0  0  0  0  0  0  0  0
   30.3790   28.2070   47.1000 C   0  0  0  0  0  0  0  0  0  0  0  0
   35.7780   30.2890   46.8020 C   0  0  0  0  0  0  0  0  0  0  0  0
   36.0810   30.1030   45.5160 C   0  0  0  0  0  0  0  0  0  0  0  0
   35.3240   29.3660   44.7070 C   0  0  0  0  0  0  0  0  0  0  0  0
   34.2140   28.8020   45.2230 N   0  0  0  0  0  0  0  0  0  0  0  0
   33.8810   28.9780   46.5030 C   0  0  0  0  0  0  0  0  0  0  0  0
   34.6630   29.7200   47.2960 N   0  0  0  0  0  0  0  0  0  0  0  0
   37.1190   31.6720   49.9380 C   0  0  0  0  0  0  0  0  0  0  0  0
   38.2620   32.3620   49.4860 C   0  0  0  0  0  0  0  0  0  0  0  0
   38.5500   32.3290   48.1010 C   0  0  0  0  0  0  0  0  0  0  0  0
   37.7140   31.6350   47.2690 N   0  0  0  0  0  0  0  0  0  0  0  0
   36.6470   30.9970   47.7340 C   0  0  0  0  0  0  0  0  0  0  0  0
   36.3440   31.0140   49.0820 N   0  0  0  0  0  0  0  0  0  0  0  0
   31.2990   30.3790   45.6970 S   0  0  0  0  0  0  0  0  0  0  0  0
   31.7510   29.8730   44.3840 O   0  0  0  0  0  0  0  0  0  0  0  0
   32.4230   31.3210   45.9450 O   0  0  0  0  0  0  0  0  0  0  0  0
   29.9760   30.8930   44.7470 C   0  0  0  0  0  0  0  0  0  0  0  0
   28.8230   30.3210   44.4400 N   0  0  0  0  0  0  0  0  0  0  0  0
   27.8510   30.7080   43.6210 C   0  0  0  0  0  0  0  0  0  0  0  0
   28.0100   31.8600   42.9690 N   0  0  0  0  0  0  0  0  0  0  0  0
   29.1400   32.5390   43.1930 C   0  0  0  0  0  0  0  0  0  0  0  0
   29.2220   33.7250   42.4830 C   0  0  0  0  0  0  0  0  0  0  0  0
   30.3220   34.5420   42.6120 C   0  0  0  0  0  0  0  0  0  0  0  0
   31.3320   34.1490   43.4590 C   0  0  0  0  0  0  0  0  0  0  0  0
   31.1810   32.9590   44.1300 C   0  0  0  0  0  0  0  0  0  0  0  0
   30.1100   32.0940   44.0480 C   0  0  0  0  0  0  0  0  0  0  0  0
   33.7493   26.7965   47.9576 H   0  0  0  0  0  0  0  0  0  0  0  0
   31.6998   25.6183   48.7370 H   0  0  0  0  0  0  0  0  0  0  0  0
   29.4458   26.5758   48.1539 H   0  0  0  0  0  0  0  0  0  0  0  0
   29.3824   28.6046   46.8577 H   0  0  0  0  0  0  0  0  0  0  0  0
   36.9880   30.5752   45.1105 H   0  0  0  0  0  0  0  0  0  0  0  0
   35.5955   29.2217   43.6508 H   0  0  0  0  0  0  0  0  0  0  0  0
   36.8663   31.6782   51.0086 H   0  0  0  0  0  0  0  0  0  0  0  0
   38.9094   32.9086   50.1875 H   0  0  0  0  0  0  0  0  0  0  0  0
   39.4306   32.8521   47.7000 H   0  0  0  0  0  0  0  0  0  0  0  0
   26.9455   30.0984   43.4854 H   0  0  0  0  0  0  0  0  0  0  0  0
   28.4016   34.0164   41.8107 H   0  0  0  0  0  0  0  0  0  0  0  0
   30.3917   35.4860   42.0516 H   0  0  0  0  0  0  0  0  0  0  0  0
   32.2316   34.7672   43.5950 H   0  0  0  0  0  0  0  0  0  0  0  0
   32.0003   32.6658   44.8030 H   0  0  0  0  0  0  0  0  0  0  0  0
  1  2  1  0
  1  6  2  0
  2  3  2  0
  3  4  1  0
  5  4  2  0
  6  5  1  0
  7 12  1  0
  7 17  1  0
  8  7  2  0
  9 10  2  0
  9  8  1  0
 10 11  1  0
 11  2  1  0
 11 12  2  0
 14 13  2  0
 15 14  1  0
 16 17  1  0
 16 15  2  0
 17 18  2  0
 18 13  1  0
 19 21  2  0
 19  1  1  0
 20 19  2  0
 22 19  1  0
 23 22  2  0
 24 23  1  0
 25 26  1  0
 25 24  2  0
 26 31  2  0
 27 28  2  0
 27 26  1  0
 28 29  1  0
 29 30  2  0
 31 30  1  0
 31 22  1  0
  3 32  1  0
  4 33  1  0
  5 34  1  0
  6 35  1  0
  8 36  1  0
  9 37  1  0
 13 38  1  0
 14 39  1  0
 15 40  1  0
 24 41  1  0
 27 42  1  0
 28 43  1  0
 29 44  1  0
 30 45  1  0
M  ISO  8  32  14  33  14  34  14  35  14  36  14  37  14  38  14  39  14
M  ISO  6  40  14  41  14  42  14  43  14  44  14  45  14
M  END
>  <minimizedAffinity>  (1) 
-5.7348876

>  <minimizedRMSD>  (1) 
6.57513285

$$$$
