
     RDKit          3D

 45 48  0  0  1  0  0  0  0  0999 V2000
   36.5050   30.0790   50.0780 C   0  0  0  0  0  0  0  0  0  0  0  0
   37.5870   30.2920   49.2380 C   0  0  0  0  0  0  0  0  0  0  0  0
   37.3830   30.5000   47.9100 C   0  0  0  0  0  0  0  0  0  0  0  0
   36.0780   30.4780   47.5220 N   0  0  0  0  0  0  0  0  0  0  0  0
   35.0490   30.2750   48.3290 C   0  0  0  0  0  0  0  0  0  0  0  0
   35.2830   30.0780   49.6040 N   0  0  0  0  0  0  0  0  0  0  0  0
   33.9610   30.4120   47.3680 C   0  0  0  0  0  0  0  0  0  0  0  0
   33.0660   30.5230   46.5780 N   0  0  0  0  0  0  0  0  0  0  0  0
   32.1680   30.7600   45.7640 C   0  0  0  0  0  0  0  0  0  0  0  0
   31.8390   29.4760   45.6820 N   0  0  0  0  0  0  0  0  0  0  0  0
   32.5220   28.5530   46.4180 C   0  0  0  0  0  0  0  0  0  0  0  0
   32.0480   27.2270   46.2020 C   0  0  0  0  0  0  0  0  0  0  0  0
   32.6970   26.2580   46.8950 C   0  0  0  0  0  0  0  0  0  0  0  0
   33.7380   26.4590   47.7550 C   0  0  0  0  0  0  0  0  0  0  0  0
   34.0700   27.8110   47.8480 C   0  0  0  0  0  0  0  0  0  0  0  0
   33.5790   29.0160   47.2580 C   0  0  0  0  0  0  0  0  0  0  0  0
   38.6700   30.7870   46.7220 S   0  0  0  0  0  0  0  0  0  0  0  0
   39.7830   33.1180   45.9170 N   0  0  0  0  0  0  0  0  0  0  0  0
   38.5250   32.4830   46.0550 C   0  0  1  0  0  0  0  0  0  0  0  0
   37.8700   32.3280   44.7030 C   0  0  0  0  0  0  0  0  0  0  0  0
   38.7470   31.5150   43.8770 N   0  0  0  0  0  0  0  0  0  0  0  0
   39.9280   32.3750   43.6240 C   0  0  0  0  0  0  0  0  0  0  0  0
   40.6430   32.4910   44.9610 C   0  0  2  0  0  0  0  0  0  0  0  0
   41.1000   31.1710   45.3460 N   0  0  0  0  0  0  0  0  0  0  0  0
   36.6734   29.9093   51.1517 H   0  0  0  0  0  0  0  0  0  0  0  0
   38.6089   30.2927   49.6452 H   0  0  0  0  0  0  0  0  0  0  0  0
   34.6513   30.1574   46.5502 H   0  0  0  0  0  0  0  0  0  0  0  0
   33.4967   29.8319   45.9473 H   0  0  0  0  0  0  0  0  0  0  0  0
   31.3654   31.3962   46.1654 H   0  0  0  0  0  0  0  0  0  0  0  0
   32.4071   31.3145   44.8446 H   0  0  0  0  0  0  0  0  0  0  0  0
   31.0704   29.1781   45.0645 H   0  0  0  0  0  0  0  0  0  0  0  0
   31.2137   27.0043   45.5206 H   0  0  0  0  0  0  0  0  0  0  0  0
   32.3554   25.2222   46.7518 H   0  0  0  0  0  0  0  0  0  0  0  0
   34.2505   25.6562   48.3053 H   0  0  0  0  0  0  0  0  0  0  0  0
   34.9071   27.9917   48.5383 H   0  0  0  0  0  0  0  0  0  0  0  0
   39.6247   34.0921   45.6221 H   0  0  0  0  0  0  0  0  0  0  0  0
   37.9427   33.1174   46.7395 H   0  0  0  0  0  0  0  0  0  0  0  0
   36.8944   31.8322   44.8141 H   0  0  0  0  0  0  0  0  0  0  0  0
   37.7072   33.3120   44.2390 H   0  0  0  0  0  0  0  0  0  0  0  0
   39.0226   30.6566   44.3751 H   0  0  0  0  0  0  0  0  0  0  0  0
   40.5870   31.9117   42.8750 H   0  0  0  0  0  0  0  0  0  0  0  0
   39.6374   33.3604   43.2309 H   0  0  0  0  0  0  0  0  0  0  0  0
   41.5315   33.1363   44.8967 H   0  0  0  0  0  0  0  0  0  0  0  0
   41.1239   31.1021   46.3734 H   0  0  0  0  0  0  0  0  0  0  0  0
   40.4558   30.4612   44.9691 H   0  0  0  0  0  0  0  0  0  0  0  0
  2  1  2  0
  3  2  1  0
  4  3  2  0
  4  5  1  0
  5  6  2  0
  6  1  1  0
  7  5  1  0
  8  7  1  0
  9  8  1  0
 10  9  1  0
 10 11  1  0
 11 16  2  0
 12 11  1  0
 12 13  2  0
 13 14  1  0
 14 15  2  0
 16  7  1  0
 16 15  1  0
 17  3  1  0
 18 19  1  0
 19 17  1  0
 20 19  1  0
 21 20  1  0
 22 21  1  0
 22 23  1  0
 23 24  1  0
 23 18  1  0
  1 25  1  0
  2 26  1  0
  7 27  1  0
  8 28  1  0
  9 29  1  0
  9 30  1  0
 10 31  1  0
 12 32  1  0
 13 33  1  0
 14 34  1  0
 15 35  1  0
 18 36  1  0
 19 37  1  1
 20 38  1  0
 20 39  1  0
 21 40  1  0
 22 41  1  0
 22 42  1  0
 23 43  1  6
 24 44  1  0
 24 45  1  0
M  ISO  8  25  14  26  14  27  13  28   5  29  13  30  13  32  14  33  14
M  ISO  8  34  14  35  14  36   5  37  13  38  13  39  13  40   5  41  13
M  ISO  4  42  13  43  13  44   5  45   5
M  END
>  <minimizedAffinity>  (1) 
-6.42999315

>  <minimizedRMSD>  (1) 
3.22891331

$$$$
