
     RDKit          3D

 35 37  0  0  0  0  0  0  0  0999 V2000
   38.2910   32.1280   46.9260 C   0  0  0  0  0  0  0  0  0  0  0  0
   39.4530   32.7990   47.2130 C   0  0  0  0  0  0  0  0  0  0  0  0
   40.1450   33.3910   46.1660 C   0  0  0  0  0  0  0  0  0  0  0  0
   39.6300   33.2690   44.9190 N   0  0  0  0  0  0  0  0  0  0  0  0
   38.4930   32.6110   44.6380 C   0  0  0  0  0  0  0  0  0  0  0  0
   37.8960   32.0810   45.6650 N   0  0  0  0  0  0  0  0  0  0  0  0
   37.7680   32.3560   43.3800 C   0  0  0  0  0  0  0  0  0  0  0  0
   36.4650   32.6340   43.2040 N   0  0  0  0  0  0  0  0  0  0  0  0
   35.8500   32.3880   42.0500 C   0  0  0  0  0  0  0  0  0  0  0  0
   36.4560   31.8500   40.9780 N   0  0  0  0  0  0  0  0  0  0  0  0
   37.7780   31.5370   41.0690 C   0  0  0  0  0  0  0  0  0  0  0  0
   38.3960   30.9860   39.9730 C   0  0  0  0  0  0  0  0  0  0  0  0
   39.7330   30.6610   40.0470 C   0  0  0  0  0  0  0  0  0  0  0  0
   40.4050   30.9060   41.2350 C   0  0  0  0  0  0  0  0  0  0  0  0
   39.7110   31.4600   42.2850 C   0  0  0  0  0  0  0  0  0  0  0  0
   38.3800   31.8060   42.2760 C   0  0  0  0  0  0  0  0  0  0  0  0
   37.6550   31.5640   48.0180 O   0  0  0  0  0  0  0  0  0  0  0  0
   36.6000   30.7070   47.8010 C   0  0  0  0  0  0  0  0  0  0  0  0
   36.8390   29.8540   48.8190 C   0  0  0  0  0  0  0  0  0  0  0  0
   37.8090   30.2630   49.8770 C   0  0  0  0  0  0  0  0  0  0  0  0
   37.2370   29.9250   51.5290 S   0  0  0  0  0  0  0  0  0  0  0  0
   39.8261   32.8658   48.2456 H   0  0  0  0  0  0  0  0  0  0  0  0
   41.0809   33.9412   46.3428 H   0  0  0  0  0  0  0  0  0  0  0  0
   34.7823   32.6399   41.9687 H   0  0  0  0  0  0  0  0  0  0  0  0
   37.8301   30.8063   39.0470 H   0  0  0  0  0  0  0  0  0  0  0  0
   40.2542   30.2183   39.1854 H   0  0  0  0  0  0  0  0  0  0  0  0
   41.4728   30.6619   41.3356 H   0  0  0  0  0  0  0  0  0  0  0  0
   40.2701   31.6426   43.2146 H   0  0  0  0  0  0  0  0  0  0  0  0
   35.6270   31.2107   47.8990 H   0  0  0  0  0  0  0  0  0  0  0  0
   36.5409   30.2580   46.7985 H   0  0  0  0  0  0  0  0  0  0  0  0
   35.8765   29.6641   49.3165 H   0  0  0  0  0  0  0  0  0  0  0  0
   37.3146   28.9866   48.3379 H   0  0  0  0  0  0  0  0  0  0  0  0
   38.7510   29.7184   49.7158 H   0  0  0  0  0  0  0  0  0  0  0  0
   37.9393   31.3522   49.7948 H   0  0  0  0  0  0  0  0  0  0  0  0
   38.1220   30.4480   52.4346 H   0  0  0  0  0  0  0  0  0  0  0  0
  1  2  2  0
  1 17  1  0
  3  2  1  0
  4  3  2  0
  5  4  1  0
  5  6  2  0
  6  1  1  0
  7  5  1  0
  8  7  2  0
  9  8  1  0
 10 11  1  0
 10  9  2  0
 11 16  2  0
 12 13  2  0
 12 11  1  0
 13 14  1  0
 14 15  2  0
 16 15  1  0
 16  7  1  0
 18 17  1  0
 18 19  1  0
 19 20  1  0
 20 21  1  0
  2 22  1  0
  3 23  1  0
  9 24  1  0
 12 25  1  0
 13 26  1  0
 14 27  1  0
 15 28  1  0
 18 29  1  0
 18 30  1  0
 19 31  1  0
 19 32  1  0
 20 33  1  0
 20 34  1  0
 21 35  1  0
M  ISO  8  22  14  23  14  24  14  25  14  26  14  27  14  28  14  29   8
M  ISO  6  30   8  31   8  32   8  33   8  34   8  35  11
M  END
>  <minimizedAffinity>  (1) 
-4.69553995

>  <minimizedRMSD>  (1) 
1.26302779

$$$$
