
     RDKit          3D

 41 43  0  0  1  0  0  0  0  0999 V2000
   32.1500   28.5370   47.4370 C   0  0  2  0  0  0  0  0  0  0  0  0
   33.4020   28.3460   48.2440 C   0  0  1  0  0  0  0  0  0  0  0  0
   33.7780   27.0410   48.1340 O   0  0  0  0  0  0  0  0  0  0  0  0
   33.0480   26.4340   47.1170 C   0  0  0  0  0  0  0  0  0  0  0  0
   32.4460   27.5340   46.2820 C   0  0  1  0  0  0  0  0  0  0  0  0
   32.0900   29.8430   46.9140 O   0  0  0  0  0  0  0  0  0  0  0  0
   34.7130   29.3750   47.4740 S   0  0  0  0  0  0  0  0  0  0  0  0
   37.1250   29.3120   50.6140 C   0  0  0  0  0  0  0  0  0  0  0  0
   37.6340   30.5960   50.7110 C   0  0  0  0  0  0  0  0  0  0  0  0
   37.2130   31.5360   49.7560 C   0  0  0  0  0  0  0  0  0  0  0  0
   36.3400   31.1370   48.8030 N   0  0  0  0  0  0  0  0  0  0  0  0
   35.8680   29.8770   48.7440 C   0  0  0  0  0  0  0  0  0  0  0  0
   36.2520   28.9390   49.6490 N   0  0  0  0  0  0  0  0  0  0  0  0
   31.2870   27.0820   45.7060 O   0  0  0  0  0  0  0  0  0  0  0  0
   29.7100   29.1460   44.3280 Cl  0  0  0  0  0  0  0  0  0  0  0  0
   29.2330   28.1200   45.6620 C   0  0  0  0  0  0  0  0  0  0  0  0
   30.0630   27.1780   46.2250 C   0  0  0  0  0  0  0  0  0  0  0  0
   29.5610   26.4070   47.2760 C   0  0  0  0  0  0  0  0  0  0  0  0
   28.2760   26.5890   47.7290 C   0  0  0  0  0  0  0  0  0  0  0  0
   27.4360   27.5280   47.1740 C   0  0  0  0  0  0  0  0  0  0  0  0
   27.9180   28.3010   46.1320 C   0  0  0  0  0  0  0  0  0  0  0  0
   25.5030   27.9340   44.5300 N   0  0  0  0  0  0  0  0  0  0  0  0
   26.2720   28.9860   44.3890 C   0  0  0  0  0  0  0  0  0  0  0  0
   27.0820   29.2810   45.4950 N   0  0  0  0  0  0  0  0  0  0  0  0
   26.2770   29.7940   43.1990 N   0  0  0  0  0  0  0  0  0  0  0  0
   24.8550   27.5870   43.8080 H   0  0  0  0  0  0  0  0  0  0  0  0
   31.2100   28.3870   47.9883 H   0  0  0  0  0  0  0  0  0  0  0  0
   33.2433   28.6202   49.2974 H   0  0  0  0  0  0  0  0  0  0  0  0
   33.7103   25.8108   46.4982 H   0  0  0  0  0  0  0  0  0  0  0  0
   32.2627   25.7862   47.5337 H   0  0  0  0  0  0  0  0  0  0  0  0
   33.0493   27.9289   45.4513 H   0  0  0  0  0  0  0  0  0  0  0  0
   32.0600   30.4954   47.6580 H   0  0  0  0  0  0  0  0  0  0  0  0
   37.4439   28.5624   51.3532 H   0  0  0  0  0  0  0  0  0  0  0  0
   38.3422   30.8699   51.5069 H   0  0  0  0  0  0  0  0  0  0  0  0
   37.5841   32.5712   49.7825 H   0  0  0  0  0  0  0  0  0  0  0  0
   30.2009   25.6459   47.7463 H   0  0  0  0  0  0  0  0  0  0  0  0
   27.9085   25.9668   48.5584 H   0  0  0  0  0  0  0  0  0  0  0  0
   26.4101   27.6603   47.5483 H   0  0  0  0  0  0  0  0  0  0  0  0
   27.0776   30.2415   45.8668 H   0  0  0  0  0  0  0  0  0  0  0  0
   26.8995   30.6121   43.1346 H   0  0  0  0  0  0  0  0  0  0  0  0
   25.6581   29.5545   42.4113 H   0  0  0  0  0  0  0  0  0  0  0  0
  1  2  1  0
  3  2  1  0
  4  3  1  0
  5  4  1  0
  5  1  1  0
  6  1  1  0
  7  2  1  0
  7 12  1  0
  8  9  2  0
 10  9  1  0
 11 10  2  0
 12 11  1  0
 12 13  2  0
 13  8  1  0
 14 17  1  0
 14  5  1  0
 15 16  1  0
 16 21  2  0
 16 17  1  0
 17 18  2  0
 18 19  1  0
 20 19  2  0
 21 20  1  0
 23 22  2  0
 23 24  1  0
 24 21  1  0
 25 23  1  0
 26 22  1  0
  1 27  1  1
  2 28  1  1
  4 29  1  0
  4 30  1  0
  5 31  1  6
  6 32  1  0
  8 33  1  0
  9 34  1  0
 10 35  1  0
 18 36  1  0
 19 37  1  0
 20 38  1  0
 24 39  1  0
 25 40  1  0
 25 41  1  0
M  ISO  8  27  13  28  13  29  13  30  13  31  13  32   3  33  14  34  14
M  ISO  4  35  14  36  14  37  14  38  14
M  END
>  <minimizedAffinity>  (1) 
-4.96208811

>  <minimizedRMSD>  (1) 
0.898289382

$$$$
