
     RDKit          3D

 38 40  0  0  1  0  0  0  0  0999 V2000
   40.1300   32.1840   45.8300 C   0  0  2  0  0  0  0  0  0  0  0  0
   39.9470   33.1050   44.7010 C   0  0  0  0  0  0  0  0  0  0  0  0
   40.0710   32.1760   43.5130 C   0  0  0  0  0  0  0  0  0  0  0  0
   39.8700   30.7990   43.9830 C   0  0  0  0  0  0  0  0  0  0  0  0
   39.4920   30.9150   45.4580 C   0  0  2  0  0  0  0  0  0  0  0  0
   38.3250   32.0960   49.0250 C   0  0  0  0  0  0  0  0  0  0  0  0
   38.6580   33.3500   49.5050 C   0  0  0  0  0  0  0  0  0  0  0  0
   39.4660   34.2520   48.8070 C   0  0  0  0  0  0  0  0  0  0  0  0
   39.9410   33.8580   47.5870 N   0  0  0  0  0  0  0  0  0  0  0  0
   39.6060   32.6340   47.1380 C   0  0  0  0  0  0  0  0  0  0  0  0
   38.8400   31.7920   47.8110 N   0  0  0  0  0  0  0  0  0  0  0  0
   37.8690   30.5560   50.9440 C   0  0  0  0  0  0  0  0  0  0  0  0
   37.5050   31.1800   49.7570 C   0  0  0  0  0  0  0  0  0  0  0  0
   36.2480   30.8790   49.2660 C   0  0  0  0  0  0  0  0  0  0  0  0
   35.4530   30.0160   49.9410 N   0  0  0  0  0  0  0  0  0  0  0  0
   35.8520   29.4260   51.1020 C   0  0  0  0  0  0  0  0  0  0  0  0
   37.0830   29.7080   51.6030 N   0  0  0  0  0  0  0  0  0  0  0  0
   36.9710   31.9430   44.4210 N   0  0  0  0  0  0  0  0  0  0  0  0
   36.9440   31.0070   45.2690 C   0  0  0  0  0  0  0  0  0  0  0  0
   38.1970   30.5590   45.7670 N   0  0  0  0  0  0  0  0  0  0  0  0
   35.6480   30.5260   45.5990 N   0  0  0  0  0  0  0  0  0  0  0  0
   36.1810   32.3930   43.9560 H   0  0  0  0  0  0  0  0  0  0  0  0
   41.2148   32.1043   45.9938 H   0  0  0  0  0  0  0  0  0  0  0  0
   38.9571   33.5837   44.7323 H   0  0  0  0  0  0  0  0  0  0  0  0
   40.6643   33.9388   44.6884 H   0  0  0  0  0  0  0  0  0  0  0  0
   41.0714   32.2745   43.0663 H   0  0  0  0  0  0  0  0  0  0  0  0
   39.3189   32.4308   42.7518 H   0  0  0  0  0  0  0  0  0  0  0  0
   39.0605   30.3151   43.4168 H   0  0  0  0  0  0  0  0  0  0  0  0
   40.7733   30.1870   43.8430 H   0  0  0  0  0  0  0  0  0  0  0  0
   39.8623   30.1532   46.1599 H   0  0  0  0  0  0  0  0  0  0  0  0
   38.2665   33.6531   50.4873 H   0  0  0  0  0  0  0  0  0  0  0  0
   39.7102   35.2405   49.2231 H   0  0  0  0  0  0  0  0  0  0  0  0
   38.8624   30.7752   51.3624 H   0  0  0  0  0  0  0  0  0  0  0  0
   35.8955   31.3388   48.3309 H   0  0  0  0  0  0  0  0  0  0  0  0
   35.1843   28.7283   51.6287 H   0  0  0  0  0  0  0  0  0  0  0  0
   38.1239   29.8332   46.4942 H   0  0  0  0  0  0  0  0  0  0  0  0
   35.5404   29.7634   46.2829 H   0  0  0  0  0  0  0  0  0  0  0  0
   34.8163   30.9401   45.1543 H   0  0  0  0  0  0  0  0  0  0  0  0
  1 10  1  0
  2  1  1  0
  3  4  1  0
  3  2  1  0
  4  5  1  0
  5 20  1  0
  5  1  1  0
  6  7  2  0
  6 13  1  0
  8  7  1  0
  9  8  2  0
 10  9  1  0
 10 11  2  0
 11  6  1  0
 12 17  2  0
 13 12  1  0
 14 13  2  0
 14 15  1  0
 15 16  2  0
 16 17  1  0
 18 19  2  0
 19 21  1  0
 19 20  1  0
 22 18  1  0
  1 23  1  1
  2 24  1  0
  2 25  1  0
  3 26  1  0
  3 27  1  0
  4 28  1  0
  4 29  1  0
  5 30  1  1
  7 31  1  0
  8 32  1  0
 12 33  1  0
 14 34  1  0
 16 35  1  0
 20 36  1  0
 21 37  1  0
 21 38  1  0
M  ISO  8  23  13  24  13  25  13  26  13  27  13  28  13  29  13  30  13
M  ISO  5  31  14  32  14  33  14  34  14  35  14
M  END
>  <minimizedAffinity>  (1) 
-6.60308647

>  <minimizedRMSD>  (1) 
1.00594771

$$$$
