
     RDKit          3D

 30 31  0  0  0  0  0  0  0  0999 V2000
   36.3170   30.4360   46.6050 C   0  0  0  0  0  0  0  0  0  0  0  0
   35.0250   29.9220   46.5850 C   0  0  0  0  0  0  0  0  0  0  0  0
   34.3740   29.6210   45.4260 C   0  0  0  0  0  0  0  0  0  0  0  0
   34.9860   29.8190   44.1890 C   0  0  0  0  0  0  0  0  0  0  0  0
   36.2580   30.3240   44.1950 C   0  0  0  0  0  0  0  0  0  0  0  0
   36.9190   30.6300   45.3740 C   0  0  0  0  0  0  0  0  0  0  0  0
   37.4040   30.2700   50.0920 C   0  0  0  0  0  0  0  0  0  0  0  0
   38.2200   31.3960   50.2130 C   0  0  0  0  0  0  0  0  0  0  0  0
   38.3830   32.2040   49.0890 C   0  0  0  0  0  0  0  0  0  0  0  0
   37.7390   31.8370   47.9580 N   0  0  0  0  0  0  0  0  0  0  0  0
   36.9630   30.7510   47.8650 C   0  0  0  0  0  0  0  0  0  0  0  0
   36.8020   29.9730   48.9400 N   0  0  0  0  0  0  0  0  0  0  0  0
   37.2260   29.4100   51.3150 C   0  0  0  0  0  0  0  0  0  0  0  0
   35.8570   29.1630   51.5070 F   0  0  0  0  0  0  0  0  0  0  0  0
   37.9260   28.2710   51.1410 F   0  0  0  0  0  0  0  0  0  0  0  0
   37.6430   30.1360   52.4110 F   0  0  0  0  0  0  0  0  0  0  0  0
   37.9110   32.9610   43.8860 N   0  0  0  0  0  0  0  0  0  0  0  0
   38.5770   32.4630   44.8860 C   0  0  0  0  0  0  0  0  0  0  0  0
   38.2370   31.1330   45.2610 N   0  0  0  0  0  0  0  0  0  0  0  0
   39.5980   33.2520   45.5400 N   0  0  0  0  0  0  0  0  0  0  0  0
   38.1210   33.9120   43.5840 H   0  0  0  0  0  0  0  0  0  0  0  0
   34.5086   29.7518   47.5412 H   0  0  0  0  0  0  0  0  0  0  0  0
   33.3519   29.2164   45.4671 H   0  0  0  0  0  0  0  0  0  0  0  0
   34.4685   29.5795   43.2483 H   0  0  0  0  0  0  0  0  0  0  0  0
   36.7705   30.4919   43.2363 H   0  0  0  0  0  0  0  0  0  0  0  0
   38.7178   31.6376   51.1637 H   0  0  0  0  0  0  0  0  0  0  0  0
   39.0117   33.1061   49.1208 H   0  0  0  0  0  0  0  0  0  0  0  0
   39.0112   30.4854   45.4664 H   0  0  0  0  0  0  0  0  0  0  0  0
   40.1253   32.8574   46.3319 H   0  0  0  0  0  0  0  0  0  0  0  0
   39.7976   34.2083   45.2137 H   0  0  0  0  0  0  0  0  0  0  0  0
  1 11  1  0
  2  1  2  0
  3  2  1  0
  4  5  1  0
  4  3  2  0
  5  6  2  0
  6  1  1  0
  7  8  2  0
  7 13  1  0
  9  8  1  0
 10  9  2  0
 11 10  1  0
 11 12  2  0
 12  7  1  0
 13 14  1  0
 13 16  1  0
 15 13  1  0
 17 18  2  0
 18 19  1  0
 18 20  1  0
 19  6  1  0
 21 17  1  0
  2 22  1  0
  3 23  1  0
  4 24  1  0
  5 25  1  0
  8 26  1  0
  9 27  1  0
 19 28  1  0
 20 29  1  0
 20 30  1  0
M  ISO  6  22  14  23  14  24  14  25  14  26  14  27  14
M  END
>  <minimizedAffinity>  (1) 
-6.40231323

>  <minimizedRMSD>  (1) 
0.133816883

$$$$
