
     RDKit          3D

 18 18  0  0  0  0  0  0  0  0999 V2000
   36.8730   30.0500   51.0190 C   0  0  0  0  0  0  0  0  0  0  0  0
   36.8950   31.0060   50.0020 C   0  0  0  0  0  0  0  0  0  0  0  0
   35.7640   31.0340   49.2090 C   0  0  0  0  0  0  0  0  0  0  0  0
   34.7210   30.1840   49.4220 N   0  0  0  0  0  0  0  0  0  0  0  0
   34.7390   29.2730   50.4200 C   0  0  0  0  0  0  0  0  0  0  0  0
   35.8210   29.2390   51.1870 N   0  0  0  0  0  0  0  0  0  0  0  0
   38.9040   31.0010   47.9030 N   0  0  0  0  0  0  0  0  0  0  0  0
   38.6330   32.1150   48.5430 C   0  0  0  0  0  0  0  0  0  0  0  0
   37.9780   31.8970   49.7840 N   0  0  0  0  0  0  0  0  0  0  0  0
   38.9060   33.4830   48.1650 N   0  0  0  0  0  0  0  0  0  0  0  0
   39.3860   31.1500   46.9900 H   0  0  0  0  0  0  0  0  0  0  0  0
   38.0170   30.0480   51.7940 O   0  0  0  0  0  0  0  0  0  0  0  0
   35.7043   31.7606   48.3853 H   0  0  0  0  0  0  0  0  0  0  0  0
   33.8937   28.5897   50.5890 H   0  0  0  0  0  0  0  0  0  0  0  0
   38.3182   32.4316   50.5960 H   0  0  0  0  0  0  0  0  0  0  0  0
   38.6255   34.2548   48.7867 H   0  0  0  0  0  0  0  0  0  0  0  0
   39.3811   33.6861   47.2740 H   0  0  0  0  0  0  0  0  0  0  0  0
   38.7488   30.6853   51.5979 H   0  0  0  0  0  0  0  0  0  0  0  0
  1  6  2  0
  1 12  1  0
  2  1  1  0
  3  4  1  0
  3  2  2  0
  4  5  2  0
  5  6  1  0
  7  8  2  0
  8  9  1  0
  9  2  1  0
 10  8  1  0
 11  7  1  0
  3 13  1  0
  5 14  1  0
  9 15  1  0
 10 16  1  0
 10 17  1  0
 12 18  1  0
M  ISO  3  13  14  14  14  18   3
M  END
>  <minimizedAffinity>  (1) 
-4.63804674

>  <minimizedRMSD>  (1) 
1.49069202

$$$$
