
     RDKit          3D

 42 45  0  0  0  0  0  0  0  0999 V2000
   34.1660   30.4200   47.6950 F   0  0  0  0  0  0  0  0  0  0  0  0
   34.5740   29.9530   46.4710 C   0  0  0  0  0  0  0  0  0  0  0  0
   33.7010   29.3480   45.5810 C   0  0  0  0  0  0  0  0  0  0  0  0
   34.1800   28.9210   44.3650 C   0  0  0  0  0  0  0  0  0  0  0  0
   35.5260   29.0940   44.0260 C   0  0  0  0  0  0  0  0  0  0  0  0
   36.3450   29.7050   44.9590 C   0  0  0  0  0  0  0  0  0  0  0  0
   35.9190   30.1360   46.1590 C   0  0  0  0  0  0  0  0  0  0  0  0
   32.0770   28.2180   46.9590 C   0  0  0  0  0  0  0  0  0  0  0  0
   32.3460   29.2290   46.0480 C   0  0  0  0  0  0  0  0  0  0  0  0
   31.2990   30.0560   45.6670 C   0  0  0  0  0  0  0  0  0  0  0  0
   30.0580   29.8650   46.1840 N   0  0  0  0  0  0  0  0  0  0  0  0
   29.8400   28.8780   47.0610 C   0  0  0  0  0  0  0  0  0  0  0  0
   30.8170   28.0710   47.4450 N   0  0  0  0  0  0  0  0  0  0  0  0
   28.5210   28.7060   47.5880 N   0  0  0  0  0  0  0  0  0  0  0  0
   27.8950   29.8470   47.9320 C   0  0  0  0  0  0  0  0  0  0  0  0
   26.6040   29.7170   48.4500 C   0  0  0  0  0  0  0  0  0  0  0  0
   26.1130   28.4150   48.5490 C   0  0  0  0  0  0  0  0  0  0  0  0
   24.8060   28.1900   49.0660 N   0  0  0  0  0  0  0  0  0  0  0  0
   26.8060   27.3280   48.1810 N   0  0  0  0  0  0  0  0  0  0  0  0
   28.0290   27.4570   47.6920 C   0  0  0  0  0  0  0  0  0  0  0  0
   28.7540   26.4980   47.3210 O   0  0  0  0  0  0  0  0  0  0  0  0
   37.8850   32.3110   45.0560 Br  0  0  0  0  0  0  0  0  0  0  0  0
   37.7550   31.7460   46.8700 C   0  0  0  0  0  0  0  0  0  0  0  0
   36.8360   30.7550   47.0940 C   0  0  0  0  0  0  0  0  0  0  0  0
   36.7180   30.2560   48.4020 C   0  0  0  0  0  0  0  0  0  0  0  0
   37.4930   30.7460   49.4090 C   0  0  0  0  0  0  0  0  0  0  0  0
   38.3990   31.7470   49.1190 C   0  0  0  0  0  0  0  0  0  0  0  0
   38.5420   32.2690   47.8240 C   0  0  0  0  0  0  0  0  0  0  0  0
   39.4050   33.2530   47.4550 O   0  0  0  0  0  0  0  0  0  0  0  0
   33.4970   28.4379   43.6507 H   0  0  0  0  0  0  0  0  0  0  0  0
   35.9183   28.7573   43.0551 H   0  0  0  0  0  0  0  0  0  0  0  0
   37.4057   29.8462   44.7042 H   0  0  0  0  0  0  0  0  0  0  0  0
   32.8789   27.5396   47.2858 H   0  0  0  0  0  0  0  0  0  0  0  0
   31.4745   30.8673   44.9453 H   0  0  0  0  0  0  0  0  0  0  0  0
   28.3745   30.8296   47.8116 H   0  0  0  0  0  0  0  0  0  0  0  0
   26.0102   30.5891   48.7612 H   0  0  0  0  0  0  0  0  0  0  0  0
   24.4399   27.2302   49.1407 H   0  0  0  0  0  0  0  0  0  0  0  0
   24.2264   28.9870   49.3654 H   0  0  0  0  0  0  0  0  0  0  0  0
   35.9903   29.4593   48.6155 H   0  0  0  0  0  0  0  0  0  0  0  0
   37.3992   30.3526   50.4320 H   0  0  0  0  0  0  0  0  0  0  0  0
   39.0279   32.1475   49.9277 H   0  0  0  0  0  0  0  0  0  0  0  0
   40.0027   33.6652   48.1280 H   0  0  0  0  0  0  0  0  0  0  0  0
  2  1  1  0
  3  9  1  0
  3  2  2  0
  4  3  1  0
  5  4  2  0
  5  6  1  0
  6  7  2  0
  7  2  1  0
  7 24  1  0
  8 13  2  0
  9  8  1  0
 10  9  2  0
 10 11  1  0
 11 12  2  0
 12 13  1  0
 12 14  1  0
 14 20  1  0
 14 15  1  0
 15 16  2  0
 16 17  1  0
 17 18  1  0
 19 17  2  0
 20 19  1  0
 21 20  2  0
 22 23  1  0
 23 24  2  0
 23 28  1  0
 24 25  1  0
 25 26  2  0
 27 26  1  0
 28 27  2  0
 29 28  1  0
  4 30  1  0
  5 31  1  0
  6 32  1  0
  8 33  1  0
 10 34  1  0
 15 35  1  0
 16 36  1  0
 18 37  1  0
 18 38  1  0
 25 39  1  0
 26 40  1  0
 27 41  1  0
 29 42  1  0
M  END
>  <minimizedAffinity>  (1) 
-8.12908936

>  <minimizedRMSD>  (1) 
0.203981668

$$$$
