
     RDKit          3D

 38 40  0  0  1  0  0  0  0  0999 V2000
   35.3470   30.3700   49.9980 C   0  0  2  0  0  0  0  0  0  0  0  0
   36.2610   31.3640   49.3900 C   0  0  0  0  0  0  0  0  0  0  0  0
   37.7290   30.9160   49.4370 C   0  0  2  0  0  0  0  0  0  0  0  0
   38.2130   30.6000   50.7830 C   0  0  0  0  0  0  0  0  0  0  0  0
   37.1860   29.8760   51.6440 C   0  0  0  0  0  0  0  0  0  0  0  0
   36.0680   29.3110   50.8080 C   0  0  0  0  0  0  0  0  0  0  0  0
   38.5880   30.6200   46.6310 Cl  0  0  0  0  0  0  0  0  0  0  0  0
   38.9660   32.0410   47.5910 C   0  0  0  0  0  0  0  0  0  0  0  0
   38.4740   32.0880   48.8880 C   0  0  0  0  0  0  0  0  0  0  0  0
   38.7960   33.2490   49.5420 C   0  0  0  0  0  0  0  0  0  0  0  0
   39.5330   34.2650   48.9710 C   0  0  0  0  0  0  0  0  0  0  0  0
   39.9910   34.1390   47.6670 C   0  0  0  0  0  0  0  0  0  0  0  0
   39.6970   32.9890   46.9540 C   0  0  0  0  0  0  0  0  0  0  0  0
   40.1730   32.8470   45.5840 C   0  0  0  0  0  0  0  0  0  0  0  0
   40.0280   33.7890   44.7660 O   0  0  0  0  0  0  0  0  0  0  0  0
   34.5080   29.6720   49.0130 C   0  0  0  0  0  0  0  0  0  0  0  0
   34.5210   30.2190   47.7290 C   0  0  0  0  0  0  0  0  0  0  0  0
   33.7540   29.5880   46.7440 C   0  0  0  0  0  0  0  0  0  0  0  0
   33.0220   28.4570   47.0870 N   0  0  0  0  0  0  0  0  0  0  0  0
   33.0390   27.9640   48.3440 C   0  0  0  0  0  0  0  0  0  0  0  0
   33.7790   28.5860   49.2670 N   0  0  0  0  0  0  0  0  0  0  0  0
   34.7139   30.9789   50.6601 H   0  0  0  0  0  0  0  0  0  0  0  0
   36.1639   32.3137   49.9365 H   0  0  0  0  0  0  0  0  0  0  0  0
   35.9786   31.4763   48.3328 H   0  0  0  0  0  0  0  0  0  0  0  0
   37.8665   29.9821   48.8722 H   0  0  0  0  0  0  0  0  0  0  0  0
   39.1034   29.9606   50.6916 H   0  0  0  0  0  0  0  0  0  0  0  0
   38.4349   31.5561   51.2796 H   0  0  0  0  0  0  0  0  0  0  0  0
   37.6835   29.0537   52.1790 H   0  0  0  0  0  0  0  0  0  0  0  0
   36.7566   30.5996   52.3526 H   0  0  0  0  0  0  0  0  0  0  0  0
   35.3417   28.8240   51.4753 H   0  0  0  0  0  0  0  0  0  0  0  0
   36.5129   28.5975   50.0988 H   0  0  0  0  0  0  0  0  0  0  0  0
   38.4479   33.3769   50.5776 H   0  0  0  0  0  0  0  0  0  0  0  0
   39.7576   35.1740   49.5482 H   0  0  0  0  0  0  0  0  0  0  0  0
   40.5812   34.9440   47.2048 H   0  0  0  0  0  0  0  0  0  0  0  0
   40.6600   31.9134   45.2658 H   0  0  0  0  0  0  0  0  0  0  0  0
   35.1145   31.1162   47.4993 H   0  0  0  0  0  0  0  0  0  0  0  0
   33.7305   29.9797   45.7164 H   0  0  0  0  0  0  0  0  0  0  0  0
   32.4554   27.0683   48.6032 H   0  0  0  0  0  0  0  0  0  0  0  0
  1  6  1  0
  2  3  1  0
  2  1  1  0
  3  4  1  0
  4  5  1  0
  6  5  1  0
  7  8  1  0
  8  9  2  0
  9  3  1  0
  9 10  1  0
 11 10  2  0
 12 11  1  0
 13  8  1  0
 13 12  2  0
 14 13  1  0
 15 14  2  0
 16 21  1  0
 16  1  1  0
 17 16  2  0
 18 19  2  0
 18 17  1  0
 19 20  1  0
 20 21  2  0
  1 22  1  1
  2 23  1  0
  2 24  1  0
  3 25  1  6
  4 26  1  0
  4 27  1  0
  5 28  1  0
  5 29  1  0
  6 30  1  0
  6 31  1  0
 10 32  1  0
 11 33  1  0
 12 34  1  0
 14 35  1  0
 17 36  1  0
 18 37  1  0
 20 38  1  0
M  ISO  8  22  13  23  13  24  13  25  13  26  13  27  13  28  13  29  13
M  ISO  8  30  13  31  13  32  14  33  14  34  14  35   6  36  14  37  14
M  ISO  1  38  14
M  END
>  <minimizedAffinity>  (1) 
-7.61648178

>  <minimizedRMSD>  (1) 
0.354121089

$$$$
