
     RDKit          3D

 32 35  0  0  0  0  0  0  0  0999 V2000
   34.8100   29.0520   48.8430 C   0  0  0  0  0  0  0  0  0  0  0  0
   34.7320   28.4920   47.5680 C   0  0  0  0  0  0  0  0  0  0  0  0
   33.4670   27.9750   47.3970 C   0  0  0  0  0  0  0  0  0  0  0  0
   32.7950   28.2220   48.5580 N   0  0  0  0  0  0  0  0  0  0  0  0
   33.6290   28.8590   49.3800 N   0  0  0  0  0  0  0  0  0  0  0  0
   30.5820   27.5150   47.7680 N   0  0  0  0  0  0  0  0  0  0  0  0
   31.4410   27.8410   48.7820 C   0  0  0  0  0  0  0  0  0  0  0  0
   30.7390   27.7210   49.9070 N   0  0  0  0  0  0  0  0  0  0  0  0
   29.4740   27.3340   49.6570 C   0  0  0  0  0  0  0  0  0  0  0  0
   28.3420   27.0610   50.3670 C   0  0  0  0  0  0  0  0  0  0  0  0
   27.2260   26.6910   49.7280 N   0  0  0  0  0  0  0  0  0  0  0  0
   27.1770   26.5760   48.3830 C   0  0  0  0  0  0  0  0  0  0  0  0
   28.2610   26.8330   47.6430 N   0  0  0  0  0  0  0  0  0  0  0  0
   29.3850   27.2060   48.2810 C   0  0  0  0  0  0  0  0  0  0  0  0
   37.3890   30.0820   51.2260 C   0  0  0  0  0  0  0  0  0  0  0  0
   38.2090   30.9290   50.4180 C   0  0  0  0  0  0  0  0  0  0  0  0
   37.8570   31.1200   49.0950 C   0  0  0  0  0  0  0  0  0  0  0  0
   36.7550   30.5040   48.6100 N   0  0  0  0  0  0  0  0  0  0  0  0
   35.9810   29.6960   49.3940 C   0  0  0  0  0  0  0  0  0  0  0  0
   36.3120   29.5020   50.6760 N   0  0  0  0  0  0  0  0  0  0  0  0
   38.6620   31.9710   48.2460 C   0  0  0  0  0  0  0  0  0  0  0  0
   38.9930   33.1230   48.6280 O   0  0  0  0  0  0  0  0  0  0  0  0
   28.4070   27.1840   51.7800 N   0  0  0  0  0  0  0  0  0  0  0  0
   35.5430   28.4674   46.8253 H   0  0  0  0  0  0  0  0  0  0  0  0
   33.0770   27.4653   46.5037 H   0  0  0  0  0  0  0  0  0  0  0  0
   30.8196   27.5084   46.7658 H   0  0  0  0  0  0  0  0  0  0  0  0
   26.2407   26.2694   47.8938 H   0  0  0  0  0  0  0  0  0  0  0  0
   37.6375   29.9084   52.2834 H   0  0  0  0  0  0  0  0  0  0  0  0
   39.0999   31.4177   50.8393 H   0  0  0  0  0  0  0  0  0  0  0  0
   38.9869   31.6082   47.2597 H   0  0  0  0  0  0  0  0  0  0  0  0
   27.5741   26.9869   52.3530 H   0  0  0  0  0  0  0  0  0  0  0  0
   29.2871   27.4704   52.2321 H   0  0  0  0  0  0  0  0  0  0  0  0
  1  5  2  0
  1 19  1  0
  2  1  1  0
  3  2  2  0
  3  4  1  0
  4  7  1  0
  4  5  1  0
  6 14  1  0
  6  7  1  0
  7  8  2  0
  9  8  1  0
  9 10  2  0
 10 23  1  0
 11 10  1  0
 12 11  2  0
 13 14  2  0
 13 12  1  0
 14  9  1  0
 16 15  2  0
 17 16  1  0
 18 17  2  0
 18 19  1  0
 19 20  2  0
 20 15  1  0
 21 22  2  0
 21 17  1  0
  2 24  1  0
  3 25  1  0
  6 26  1  0
 12 27  1  0
 15 28  1  0
 16 29  1  0
 21 30  1  0
 23 31  1  0
 23 32  1  0
M  ISO  7  24  14  25  14  26   9  27  14  28  14  29  14  30   6
M  END
>  <minimizedAffinity>  (1) 
-6.75482464

>  <minimizedRMSD>  (1) 
0.594942391

$$$$
