
     RDKit          3D

 39 42  0  0  0  0  0  0  0  0999 V2000
   39.2660   31.9120   44.9390 C   0  0  0  0  0  0  0  0  0  0  0  0
   38.1760   32.5600   45.0610 O   0  0  0  0  0  0  0  0  0  0  0  0
   39.9570   31.6500   46.1530 N   0  0  0  0  0  0  0  0  0  0  0  0
   39.1420   32.1960   42.5540 C   0  0  0  0  0  0  0  0  0  0  0  0
   39.6940   31.5090   43.6220 C   0  0  0  0  0  0  0  0  0  0  0  0
   40.6100   30.4850   43.4630 C   0  0  0  0  0  0  0  0  0  0  0  0
   40.9960   30.1290   42.1900 C   0  0  0  0  0  0  0  0  0  0  0  0
   41.8450   29.2000   41.7170 N   0  0  0  0  0  0  0  0  0  0  0  0
   41.8420   29.2850   40.3910 C   0  0  0  0  0  0  0  0  0  0  0  0
   41.0050   30.2510   40.0170 N   0  0  0  0  0  0  0  0  0  0  0  0
   40.4420   30.8190   41.1200 C   0  0  0  0  0  0  0  0  0  0  0  0
   39.5320   31.8350   41.2710 C   0  0  0  0  0  0  0  0  0  0  0  0
   39.0040   32.5030   40.0860 C   0  0  0  0  0  0  0  0  0  0  0  0
   38.6810   33.7100   40.2020 O   0  0  0  0  0  0  0  0  0  0  0  0
   38.1120   30.1520   47.4930 F   0  0  0  0  0  0  0  0  0  0  0  0
   38.3670   31.3900   47.9860 C   0  0  0  0  0  0  0  0  0  0  0  0
   37.7130   31.8280   49.1000 C   0  0  0  0  0  0  0  0  0  0  0  0
   38.0210   33.0850   49.5400 C   0  0  0  0  0  0  0  0  0  0  0  0
   38.9350   33.8950   48.9210 C   0  0  0  0  0  0  0  0  0  0  0  0
   39.5840   33.4270   47.7920 C   0  0  0  0  0  0  0  0  0  0  0  0
   39.2980   32.1600   47.3190 C   0  0  0  0  0  0  0  0  0  0  0  0
   36.0780   29.3540   51.4490 C   0  0  0  0  0  0  0  0  0  0  0  0
   37.0350   30.2070   50.8660 C   0  0  0  0  0  0  0  0  0  0  0  0
   36.7440   30.9330   49.7330 C   0  0  0  0  0  0  0  0  0  0  0  0
   35.4930   30.7830   49.2130 N   0  0  0  0  0  0  0  0  0  0  0  0
   34.5850   29.9690   49.7730 C   0  0  0  0  0  0  0  0  0  0  0  0
   34.8730   29.2730   50.8640 N   0  0  0  0  0  0  0  0  0  0  0  0
   40.8508   31.1396   46.1914 H   0  0  0  0  0  0  0  0  0  0  0  0
   38.4149   33.0051   42.7173 H   0  0  0  0  0  0  0  0  0  0  0  0
   41.0233   29.9636   44.3389 H   0  0  0  0  0  0  0  0  0  0  0  0
   42.3988   28.5402   42.2817 H   0  0  0  0  0  0  0  0  0  0  0  0
   42.4362   28.6574   39.7105 H   0  0  0  0  0  0  0  0  0  0  0  0
   38.8936   31.9702   39.1300 H   0  0  0  0  0  0  0  0  0  0  0  0
   37.5089   33.4648   50.4363 H   0  0  0  0  0  0  0  0  0  0  0  0
   39.1495   34.8997   49.3141 H   0  0  0  0  0  0  0  0  0  0  0  0
   40.3217   34.0583   47.2750 H   0  0  0  0  0  0  0  0  0  0  0  0
   36.3105   28.7734   52.3539 H   0  0  0  0  0  0  0  0  0  0  0  0
   38.0315   30.2947   51.3235 H   0  0  0  0  0  0  0  0  0  0  0  0
   33.5867   29.8778   49.3200 H   0  0  0  0  0  0  0  0  0  0  0  0
  1  2  2  0
  1  3  1  0
  3 21  1  0
  4  5  2  0
  5  1  1  0
  6  5  1  0
  7  6  2  0
  8  7  1  0
  9  8  1  0
 10  9  2  0
 10 11  1  0
 11 12  2  0
 11  7  1  0
 12  4  1  0
 13 14  2  0
 13 12  1  0
 15 16  1  0
 16 17  2  0
 17 18  1  0
 17 24  1  0
 19 18  2  0
 20 19  1  0
 21 20  2  0
 21 16  1  0
 23 22  2  0
 24 23  1  0
 25 24  2  0
 25 26  1  0
 26 27  2  0
 27 22  1  0
  3 28  1  0
  4 29  1  0
  6 30  1  0
  8 31  1  0
  9 32  1  0
 13 33  1  0
 18 34  1  0
 19 35  1  0
 20 36  1  0
 22 37  1  0
 23 38  1  0
 26 39  1  0
M  ISO  8  29  14  30  14  31   9  32  14  33   6  34  14  35  14  36  14
M  ISO  3  37  14  38  14  39  14
M  END
>  <minimizedAffinity>  (1) 
-7.27300787

>  <minimizedRMSD>  (1) 
0.354485303

$$$$
