
     RDKit          3D

 22 23  0  0  0  0  0  0  0  0999 V2000
   36.9380   29.8740   48.9140 C   0  0  0  0  0  0  0  0  0  0  0  0
   37.4270   30.3070   50.1590 C   0  0  0  0  0  0  0  0  0  0  0  0
   38.3400   31.3950   50.1220 C   0  0  0  0  0  0  0  0  0  0  0  0
   38.6650   31.9250   48.9300 N   0  0  0  0  0  0  0  0  0  0  0  0
   38.1700   31.4780   47.7720 C   0  0  0  0  0  0  0  0  0  0  0  0
   37.2850   30.4300   47.7290 N   0  0  0  0  0  0  0  0  0  0  0  0
   38.5280   32.0570   46.4900 C   0  0  0  0  0  0  0  0  0  0  0  0
   39.7000   32.7330   46.2990 C   0  0  0  0  0  0  0  0  0  0  0  0
   40.1330   33.3180   45.1280 C   0  0  0  0  0  0  0  0  0  0  0  0
   39.2830   33.1980   44.0630 N   0  0  0  0  0  0  0  0  0  0  0  0
   38.1120   32.5350   44.2130 C   0  0  0  0  0  0  0  0  0  0  0  0
   37.7370   31.9770   45.3890 N   0  0  0  0  0  0  0  0  0  0  0  0
   37.2560   32.4440   43.0360 C   0  0  0  0  0  0  0  0  0  0  0  0
   36.0490   32.7790   43.1570 O   0  0  0  0  0  0  0  0  0  0  0  0
   37.0020   29.6580   51.3450 N   0  0  0  0  0  0  0  0  0  0  0  0
   36.2302   29.0320   48.9017 H   0  0  0  0  0  0  0  0  0  0  0  0
   38.7725   31.7959   51.0506 H   0  0  0  0  0  0  0  0  0  0  0  0
   40.3670   32.8194   47.1694 H   0  0  0  0  0  0  0  0  0  0  0  0
   41.0958   33.8450   45.0552 H   0  0  0  0  0  0  0  0  0  0  0  0
   37.6531   32.0933   42.0720 H   0  0  0  0  0  0  0  0  0  0  0  0
   37.3575   29.9717   52.2594 H   0  0  0  0  0  0  0  0  0  0  0  0
   36.3376   28.8727   51.2926 H   0  0  0  0  0  0  0  0  0  0  0  0
  1  2  2  0
  2 15  1  0
  3  2  1  0
  4  3  2  0
  5  4  1  0
  6  5  2  0
  6  1  1  0
  7  5  1  0
  8  7  2  0
  9  8  1  0
 10 11  1  0
 10  9  2  0
 11 12  2  0
 12  7  1  0
 13 14  2  0
 13 11  1  0
  1 16  1  0
  3 17  1  0
  8 18  1  0
  9 19  1  0
 13 20  1  0
 15 21  1  0
 15 22  1  0
M  ISO  5  16  14  17  14  18  14  19  14  20   6
M  END
>  <minimizedAffinity>  (1) 
-4.79620886

>  <minimizedRMSD>  (1) 
1.38261807

$$$$
