
     RDKit          3D

 39 41  0  0  0  0  0  0  0  0999 V2000
   38.7000   32.8250   48.3480 C   0  0  0  0  0  0  0  0  0  0  0  0
   39.0160   32.1760   47.1580 C   0  0  0  0  0  0  0  0  0  0  0  0
   38.5260   30.9000   46.9920 C   0  0  0  0  0  0  0  0  0  0  0  0
   37.7720   30.3580   47.9900 N   0  0  0  0  0  0  0  0  0  0  0  0
   37.5020   31.0030   49.0890 C   0  0  0  0  0  0  0  0  0  0  0  0
   37.9610   32.2860   49.3230 N   0  0  0  0  0  0  0  0  0  0  0  0
   39.7740   32.8260   46.2460 O   0  0  0  0  0  0  0  0  0  0  0  0
   39.9360   32.2990   44.9750 C   0  0  0  0  0  0  0  0  0  0  0  0
   40.6520   31.1730   44.6200 C   0  0  0  0  0  0  0  0  0  0  0  0
   40.7010   30.8030   43.3240 C   0  0  0  0  0  0  0  0  0  0  0  0
   40.0360   31.5580   42.3930 C   0  0  0  0  0  0  0  0  0  0  0  0
   39.3200   32.6880   42.7620 C   0  0  0  0  0  0  0  0  0  0  0  0
   39.2830   33.0440   44.0750 N   0  0  0  0  0  0  0  0  0  0  0  0
   38.6000   33.5040   41.7090 C   0  0  0  0  0  0  0  0  0  0  0  0
   36.4880   30.0320   50.2280 S   0  0  0  0  0  0  0  0  0  0  0  0
   34.7720   30.4760   49.8070 C   0  0  0  0  0  0  0  0  0  0  0  0
   34.3850   27.7540   49.8400 F   0  0  0  0  0  0  0  0  0  0  0  0
   34.2820   28.4280   48.6510 C   0  0  0  0  0  0  0  0  0  0  0  0
   34.4560   29.7970   48.5140 C   0  0  0  0  0  0  0  0  0  0  0  0
   34.3430   30.4170   47.3070 C   0  0  0  0  0  0  0  0  0  0  0  0
   34.0410   29.6750   46.1530 C   0  0  0  0  0  0  0  0  0  0  0  0
   33.8630   28.3030   46.2710 C   0  0  0  0  0  0  0  0  0  0  0  0
   33.9850   27.7020   47.5090 C   0  0  0  0  0  0  0  0  0  0  0  0
   33.7930   26.2580   47.6050 C   0  0  0  0  0  0  0  0  0  0  0  0
   34.1990   25.4800   46.7020 O   0  0  0  0  0  0  0  0  0  0  0  0
   39.0824   33.8458   48.4956 H   0  0  0  0  0  0  0  0  0  0  0  0
   38.7381   30.3309   46.0749 H   0  0  0  0  0  0  0  0  0  0  0  0
   41.1770   30.5838   45.3863 H   0  0  0  0  0  0  0  0  0  0  0  0
   41.2656   29.9096   43.0189 H   0  0  0  0  0  0  0  0  0  0  0  0
   40.0706   31.2627   41.3339 H   0  0  0  0  0  0  0  0  0  0  0  0
   37.9485   34.2423   42.1993 H   0  0  0  0  0  0  0  0  0  0  0  0
   39.3377   34.0254   41.0814 H   0  0  0  0  0  0  0  0  0  0  0  0
   37.9908   32.8370   41.0814 H   0  0  0  0  0  0  0  0  0  0  0  0
   34.0868   30.1290   50.5945 H   0  0  0  0  0  0  0  0  0  0  0  0
   34.6563   31.5664   49.7192 H   0  0  0  0  0  0  0  0  0  0  0  0
   34.4890   31.5049   47.2351 H   0  0  0  0  0  0  0  0  0  0  0  0
   33.9474   30.1709   45.1756 H   0  0  0  0  0  0  0  0  0  0  0  0
   33.6261   27.6978   45.3835 H   0  0  0  0  0  0  0  0  0  0  0  0
   33.2825   25.8405   48.4854 H   0  0  0  0  0  0  0  0  0  0  0  0
  1  6  2  0
  2  1  1  0
  3  2  2  0
  3  4  1  0
  4  5  2  0
  5  6  1  0
  5 15  1  0
  7  2  1  0
  8  7  1  0
  9  8  2  0
 10  9  1  0
 11 12  1  0
 11 10  2  0
 12 13  2  0
 13  8  1  0
 14 12  1  0
 16 15  1  0
 18 17  1  0
 19 18  2  0
 19 16  1  0
 20 19  1  0
 21 22  1  0
 21 20  2  0
 22 23  2  0
 23 24  1  0
 23 18  1  0
 25 24  2  0
  1 26  1  0
  3 27  1  0
  9 28  1  0
 10 29  1  0
 11 30  1  0
 14 31  1  0
 14 32  1  0
 14 33  1  0
 16 34  1  0
 16 35  1  0
 20 36  1  0
 21 37  1  0
 22 38  1  0
 24 39  1  0
M  ISO  8  26  14  27  14  28  14  29  14  30  14  31   8  32   8  33   8
M  ISO  6  34   8  35   8  36  14  37  14  38  14  39   6
M  END
>  <minimizedAffinity>  (1) 
-5.93782377

>  <minimizedRMSD>  (1) 
1.83339179

$$$$
