
     RDKit          3D

 26 27  0  0  1  0  0  0  0  0999 V2000
   36.6640   30.3720   47.7570 N   0  0  0  0  0  0  0  0  0  0  0  0
   36.4930   30.1470   49.1820 C   0  0  0  0  0  0  0  0  0  0  0  0
   37.1810   31.1310   50.0490 C   0  0  2  0  0  0  0  0  0  0  0  0
   38.3710   31.7220   49.5490 N   0  0  0  0  0  0  0  0  0  0  0  0
   38.2880   32.0390   48.1270 C   0  0  0  0  0  0  0  0  0  0  0  0
   38.0220   30.7020   47.4450 C   0  0  0  0  0  0  0  0  0  0  0  0
   35.5930   30.2680   46.8270 C   0  0  0  0  0  0  0  0  0  0  0  0
   35.7970   30.1690   45.4480 C   0  0  0  0  0  0  0  0  0  0  0  0
   34.6930   30.0700   44.6000 C   0  0  0  0  0  0  0  0  0  0  0  0
   33.4540   30.0730   45.1740 N   0  0  0  0  0  0  0  0  0  0  0  0
   33.2940   30.1710   46.5310 C   0  0  0  0  0  0  0  0  0  0  0  0
   34.3400   30.2660   47.3450 N   0  0  0  0  0  0  0  0  0  0  0  0
   37.5700   30.4170   51.3220 C   0  0  0  0  0  0  0  0  0  0  0  0
   36.7880   29.6440   51.8820 O   0  0  0  0  0  0  0  0  0  0  0  0
   35.4172   30.1836   49.4083 H   0  0  0  0  0  0  0  0  0  0  0  0
   36.9470   29.1690   49.3996 H   0  0  0  0  0  0  0  0  0  0  0  0
   36.4598   31.9545   50.1574 H   0  0  0  0  0  0  0  0  0  0  0  0
   38.5513   32.5917   50.0705 H   0  0  0  0  0  0  0  0  0  0  0  0
   37.4649   32.7429   47.9343 H   0  0  0  0  0  0  0  0  0  0  0  0
   39.2045   32.5201   47.7546 H   0  0  0  0  0  0  0  0  0  0  0  0
   38.7033   29.9308   47.8337 H   0  0  0  0  0  0  0  0  0  0  0  0
   38.1868   30.7600   46.3590 H   0  0  0  0  0  0  0  0  0  0  0  0
   36.8167   30.1691   45.0354 H   0  0  0  0  0  0  0  0  0  0  0  0
   34.8164   29.9924   43.5097 H   0  0  0  0  0  0  0  0  0  0  0  0
   32.2792   30.1711   46.9554 H   0  0  0  0  0  0  0  0  0  0  0  0
   38.5658   30.5888   51.7566 H   0  0  0  0  0  0  0  0  0  0  0  0
  1  2  1  0
  2  3  1  0
  3 13  1  0
  4  3  1  0
  5  4  1  0
  6  1  1  0
  6  5  1  0
  7 12  1  0
  7  1  1  0
  8  7  2  0
  9 10  2  0
  9  8  1  0
 10 11  1  0
 11 12  2  0
 13 14  2  0
  2 15  1  0
  2 16  1  0
  3 17  1  1
  4 18  1  0
  5 19  1  0
  5 20  1  0
  6 21  1  0
  6 22  1  0
  8 23  1  0
  9 24  1  0
 11 25  1  0
 13 26  1  0
M  ISO  8  15  13  16  13  17  13  18   5  19  13  20  13  21  13  22  13
M  ISO  4  23  14  24  14  25  14  26   6
M  END
>  <minimizedAffinity>  (1) 
-3.91714168

>  <minimizedRMSD>  (1) 
2.14366579

$$$$
