
     RDKit          3D

 19 20  0  0  0  0  0  0  0  0999 V2000
   36.0490   30.2140   48.6900 C   0  0  0  0  0  0  0  0  0  0  0  0
   35.9530   29.1610   49.5060 C   0  0  0  0  0  0  0  0  0  0  0  0
   34.8820   28.3160   49.4360 C   0  0  0  0  0  0  0  0  0  0  0  0
   33.9370   28.6180   48.4930 C   0  0  0  0  0  0  0  0  0  0  0  0
   34.6120   30.1200   47.7200 S   0  0  0  0  0  0  0  0  0  0  0  0
   38.0450   33.1510   49.4800 C   0  0  0  0  0  0  0  0  0  0  0  0
   38.9850   33.1840   48.4170 C   0  0  0  0  0  0  0  0  0  0  0  0
   38.9140   32.1930   47.4460 C   0  0  0  0  0  0  0  0  0  0  0  0
   37.9460   31.2380   47.5610 N   0  0  0  0  0  0  0  0  0  0  0  0
   37.0790   31.2420   48.5780 C   0  0  0  0  0  0  0  0  0  0  0  0
   37.1000   32.1760   49.5460 N   0  0  0  0  0  0  0  0  0  0  0  0
   32.6890   28.0080   48.0970 C   0  0  0  0  0  0  0  0  0  0  0  0
   31.8130   27.7860   48.9640 O   0  0  0  0  0  0  0  0  0  0  0  0
   36.7466   28.9718   50.2439 H   0  0  0  0  0  0  0  0  0  0  0  0
   34.7847   27.4436   50.0989 H   0  0  0  0  0  0  0  0  0  0  0  0
   38.0817   33.9248   50.2609 H   0  0  0  0  0  0  0  0  0  0  0  0
   39.7494   33.9732   48.3635 H   0  0  0  0  0  0  0  0  0  0  0  0
   39.6217   32.1785   46.6040 H   0  0  0  0  0  0  0  0  0  0  0  0
   32.5099   27.7413   47.0450 H   0  0  0  0  0  0  0  0  0  0  0  0
  1  2  2  0
  3  2  1  0
  4  3  2  0
  5  4  1  0
  5  1  1  0
  6 11  2  0
  7  6  1  0
  8  9  1  0
  8  7  2  0
  9 10  2  0
 10  1  1  0
 10 11  1  0
 12  4  1  0
 12 13  2  0
  2 14  1  0
  3 15  1  0
  6 16  1  0
  7 17  1  0
  8 18  1  0
 12 19  1  0
M  ISO  6  14  14  15  14  16  14  17  14  18  14  19   6
M  END
>  <minimizedAffinity>  (1) 
-4.57764196

>  <minimizedRMSD>  (1) 
0.0506137833

$$$$
