
     RDKit          3D

 27 28  0  0  0  0  0  0  0  0999 V2000
   33.7710   28.6110   48.7240 C   0  0  0  0  0  0  0  0  0  0  0  0
   32.8690   27.4710   48.3580 C   0  0  0  0  0  0  0  0  0  0  0  0
   31.4340   27.8800   48.2820 C   0  0  0  0  0  0  0  0  0  0  0  0
   30.6850   27.7220   49.4200 C   0  0  0  0  0  0  0  0  0  0  0  0
   29.3500   28.0650   49.4710 C   0  0  0  0  0  0  0  0  0  0  0  0
   28.7750   28.5680   48.3640 N   0  0  0  0  0  0  0  0  0  0  0  0
   29.5180   28.7210   47.2490 C   0  0  0  0  0  0  0  0  0  0  0  0
   30.8220   28.3880   47.1960 N   0  0  0  0  0  0  0  0  0  0  0  0
   34.6780   28.2290   49.7510 O   0  0  0  0  0  0  0  0  0  0  0  0
   37.2900   30.2040   51.2940 C   0  0  0  0  0  0  0  0  0  0  0  0
   37.9470   30.6620   50.1340 C   0  0  0  0  0  0  0  0  0  0  0  0
   37.4570   30.2700   48.9010 C   0  0  0  0  0  0  0  0  0  0  0  0
   36.3590   29.4560   48.9190 N   0  0  0  0  0  0  0  0  0  0  0  0
   35.7520   29.0330   50.0220 C   0  0  0  0  0  0  0  0  0  0  0  0
   36.2280   29.4140   51.2160 N   0  0  0  0  0  0  0  0  0  0  0  0
   38.0820   30.7020   47.6410 C   0  0  0  0  0  0  0  0  0  0  0  0
   38.8870   31.6670   47.7040 O   0  0  0  0  0  0  0  0  0  0  0  0
   33.1602   29.4546   49.0779 H   0  0  0  0  0  0  0  0  0  0  0  0
   34.3487   28.9026   47.8345 H   0  0  0  0  0  0  0  0  0  0  0  0
   33.1765   27.0783   47.3776 H   0  0  0  0  0  0  0  0  0  0  0  0
   32.9583   26.7076   49.1449 H   0  0  0  0  0  0  0  0  0  0  0  0
   31.1638   27.3089   50.3200 H   0  0  0  0  0  0  0  0  0  0  0  0
   28.7692   27.9303   50.3954 H   0  0  0  0  0  0  0  0  0  0  0  0
   29.0406   29.1337   46.3480 H   0  0  0  0  0  0  0  0  0  0  0  0
   37.6654   30.5077   52.2824 H   0  0  0  0  0  0  0  0  0  0  0  0
   38.8286   31.3157   50.2074 H   0  0  0  0  0  0  0  0  0  0  0  0
   37.8557   30.2037   46.6868 H   0  0  0  0  0  0  0  0  0  0  0  0
  1  9  1  0
  2  1  1  0
  3  2  1  0
  3  4  2  0
  4  5  1  0
  6  5  2  0
  7  6  1  0
  8  7  2  0
  8  3  1  0
  9 14  1  0
 11 10  2  0
 12 13  2  0
 12 11  1  0
 13 14  1  0
 14 15  2  0
 15 10  1  0
 16 17  2  0
 16 12  1  0
  1 18  1  0
  1 19  1  0
  2 20  1  0
  2 21  1  0
  4 22  1  0
  5 23  1  0
  7 24  1  0
 10 25  1  0
 11 26  1  0
 16 27  1  0
M  ISO  8  18   8  19   8  20   8  21   8  22  14  23  14  24  14  25  14
M  ISO  2  26  14  27   6
M  END
>  <minimizedAffinity>  (1) 
-4.74752283

>  <minimizedRMSD>  (1) 
0.247122094

$$$$
