
     RDKit          3D

 36 37  0  0  1  0  0  0  0  0999 V2000
   37.3130   31.3780   45.3090 C   0  0  2  0  0  0  0  0  0  0  0  0
   38.4090   31.1300   44.3490 C   0  0  0  0  0  0  0  0  0  0  0  0
   39.6890   30.6930   45.0260 C   0  0  0  0  0  0  0  0  0  0  0  0
   40.1570   31.6410   46.0960 C   0  0  0  0  0  0  0  0  0  0  0  0
   39.0370   32.2540   46.8850 C   0  0  0  0  0  0  0  0  0  0  0  0
   37.7490   31.4580   46.7360 C   0  0  2  0  0  0  0  0  0  0  0  0
   36.2200   30.3960   45.2220 C   0  0  0  0  0  0  0  0  0  0  0  0
   36.2100   29.6150   44.0490 C   0  0  0  0  0  0  0  0  0  0  0  0
   35.2050   28.6550   43.9550 C   0  0  0  0  0  0  0  0  0  0  0  0
   34.3030   28.5200   44.9690 N   0  0  0  0  0  0  0  0  0  0  0  0
   34.3530   29.2960   46.0790 C   0  0  0  0  0  0  0  0  0  0  0  0
   35.2960   30.1960   46.1680 N   0  0  0  0  0  0  0  0  0  0  0  0
   37.9170   30.2740   47.4600 N   0  0  0  0  0  0  0  0  0  0  0  0
   37.0550   30.1430   48.9240 S   0  0  0  0  0  0  0  0  0  0  0  0
   36.1700   31.3750   49.0170 O   0  0  0  0  0  0  0  0  0  0  0  0
   36.1890   28.9210   48.9890 O   0  0  0  0  0  0  0  0  0  0  0  0
   38.0480   30.1820   50.2660 O   0  0  0  0  0  0  0  0  0  0  0  0
   37.5420   30.0310   51.5330 C   0  0  0  0  0  0  0  0  0  0  0  0
   36.3650   29.6410   51.7630 O   0  0  0  0  0  0  0  0  0  0  0  0
   36.9451   32.3667   44.9973 H   0  0  0  0  0  0  0  0  0  0  0  0
   38.6048   32.0575   43.7909 H   0  0  0  0  0  0  0  0  0  0  0  0
   38.0898   30.3147   43.6831 H   0  0  0  0  0  0  0  0  0  0  0  0
   39.5214   29.7069   45.4838 H   0  0  0  0  0  0  0  0  0  0  0  0
   40.4709   30.6672   44.2527 H   0  0  0  0  0  0  0  0  0  0  0  0
   40.8095   31.0893   46.7887 H   0  0  0  0  0  0  0  0  0  0  0  0
   40.6848   32.4635   45.5910 H   0  0  0  0  0  0  0  0  0  0  0  0
   39.3205   32.2795   47.9475 H   0  0  0  0  0  0  0  0  0  0  0  0
   38.8610   33.2701   46.5021 H   0  0  0  0  0  0  0  0  0  0  0  0
   36.8697   31.9495   47.1778 H   0  0  0  0  0  0  0  0  0  0  0  0
   36.9547   29.7557   43.2517 H   0  0  0  0  0  0  0  0  0  0  0  0
   35.1392   28.0089   43.0672 H   0  0  0  0  0  0  0  0  0  0  0  0
   33.6166   29.1710   46.8865 H   0  0  0  0  0  0  0  0  0  0  0  0
   37.6242   29.4938   46.8546 H   0  0  0  0  0  0  0  0  0  0  0  0
   36.0112   31.5961   49.9688 H   0  0  0  0  0  0  0  0  0  0  0  0
   36.0218   28.6850   49.9358 H   0  0  0  0  0  0  0  0  0  0  0  0
   38.1942   30.2611   52.3884 H   0  0  0  0  0  0  0  0  0  0  0  0
  1  6  1  0
  2  3  1  0
  2  1  1  0
  3  4  1  0
  4  5  1  0
  6  5  1  0
  6 13  1  0
  7  1  1  0
  7 12  1  0
  8  7  2  0
  9  8  1  0
  9 10  2  0
 10 11  1  0
 11 12  2  0
 13 14  1  0
 14 16  1  0
 14 15  1  0
 14 17  1  0
 17 18  1  0
 18 19  2  0
  1 20  1  6
  2 21  1  0
  2 22  1  0
  3 23  1  0
  3 24  1  0
  4 25  1  0
  4 26  1  0
  5 27  1  0
  5 28  1  0
  6 29  1  1
  8 30  1  0
  9 31  1  0
 11 32  1  0
 13 33  1  0
 15 34  1  0
 16 35  1  0
 18 36  1  0
M  ISO  8  20  13  21  13  22  13  23  13  24  13  25  13  26  13  27  13
M  ISO  8  28  13  29  13  30  14  31  14  32  14  33   5  34   3  35   3
M  ISO  1  36   6
M  END
>  <minimizedAffinity>  (1) 
-4.26049566

>  <minimizedRMSD>  (1) 
2.78291726

$$$$
