
     RDKit          3D

 24 24  0  0  0  0  0  0  0  0999 V2000
   37.7440   30.5260   50.8390 C   0  0  0  0  0  0  0  0  0  0  0  0
   38.1140   31.2060   49.6080 C   0  0  0  0  0  0  0  0  0  0  0  0
   38.5480   32.5330   49.5810 C   0  0  0  0  0  0  0  0  0  0  0  0
   38.8820   33.0950   48.3470 C   0  0  0  0  0  0  0  0  0  0  0  0
   38.7590   32.2980   47.2230 N   0  0  0  0  0  0  0  0  0  0  0  0
   38.3330   31.0130   47.2980 C   0  0  0  0  0  0  0  0  0  0  0  0
   38.0120   30.4720   48.4980 N   0  0  0  0  0  0  0  0  0  0  0  0
   36.9630   29.2600   50.6350 C   0  0  0  0  0  0  0  0  0  0  0  0
   35.7340   29.4080   51.2600 O   0  0  0  0  0  0  0  0  0  0  0  0
   34.6920   30.5180   49.1250 O   0  0  0  0  0  0  0  0  0  0  0  0
   34.4680   29.3920   50.1290 P   0  0  2  0  0  0  0  0  0  0  0  0
   32.9800   29.6880   50.8360 O   0  0  0  0  0  0  0  0  0  0  0  0
   34.3990   27.9160   49.3400 O   0  0  0  0  0  0  0  0  0  0  0  0
   33.4670   27.7680   48.3030 C   0  0  0  0  0  0  0  0  0  0  0  0
   32.3160   27.7910   48.8100 O   0  0  0  0  0  0  0  0  0  0  0  0
   38.6656   30.2779   51.3859 H   0  0  0  0  0  0  0  0  0  0  0  0
   37.0894   31.2139   51.3942 H   0  0  0  0  0  0  0  0  0  0  0  0
   38.6248   33.1205   50.5078 H   0  0  0  0  0  0  0  0  0  0  0  0
   39.2308   34.1355   48.2714 H   0  0  0  0  0  0  0  0  0  0  0  0
   38.2478   30.4086   46.3829 H   0  0  0  0  0  0  0  0  0  0  0  0
   36.8156   29.0817   49.5596 H   0  0  0  0  0  0  0  0  0  0  0  0
   37.5067   28.4035   51.0602 H   0  0  0  0  0  0  0  0  0  0  0  0
   33.0733   29.6694   51.8214 H   0  0  0  0  0  0  0  0  0  0  0  0
   33.7011   27.6522   47.2344 H   0  0  0  0  0  0  0  0  0  0  0  0
  2  1  1  0
  3  2  2  0
  4  3  1  0
  5  6  1  0
  5  4  2  0
  6  7  2  0
  7  2  1  0
  8  1  1  0
  8  9  1  0
 11 10  2  0
 11 12  1  0
 11  9  1  0
 13 11  1  0
 14 15  2  0
 14 13  1  0
  1 16  1  0
  1 17  1  0
  3 18  1  0
  4 19  1  0
  6 20  1  0
  8 21  1  0
  8 22  1  0
 12 23  1  0
 14 24  1  0
M  ISO  8  16   8  17   8  18  14  19  14  20  14  21   8  22   8  23   3
M  ISO  1  24   6
M  END
>  <minimizedAffinity>  (1) 
-4.68364334

>  <minimizedRMSD>  (1) 
1.05551219

$$$$
