
     RDKit          3D

 27 28  0  0  0  0  0  0  0  0999 V2000
   37.9990   31.3450   47.6300 C   0  0  0  0  0  0  0  0  0  0  0  0
   37.0840   31.3050   48.6650 C   0  0  0  0  0  0  0  0  0  0  0  0
   37.1940   32.3490   49.5980 C   0  0  0  0  0  0  0  0  0  0  0  0
   38.1750   33.3400   49.4540 C   0  0  0  0  0  0  0  0  0  0  0  0
   39.0610   33.2960   48.3660 C   0  0  0  0  0  0  0  0  0  0  0  0
   38.9630   32.2810   47.4480 C   0  0  0  0  0  0  0  0  0  0  0  0
   34.9370   30.3280   48.0100 C   0  0  0  0  0  0  0  0  0  0  0  0
   36.0820   30.2890   48.8090 C   0  0  0  0  0  0  0  0  0  0  0  0
   36.2000   29.2440   49.7290 C   0  0  0  0  0  0  0  0  0  0  0  0
   35.1910   28.3310   49.7860 N   0  0  0  0  0  0  0  0  0  0  0  0
   34.1030   28.4010   49.0000 C   0  0  0  0  0  0  0  0  0  0  0  0
   33.9740   29.3980   48.1120 N   0  0  0  0  0  0  0  0  0  0  0  0
   37.3880   29.1550   50.5970 C   0  0  0  0  0  0  0  0  0  0  0  0
   37.9550   30.3340   46.6500 O   0  0  0  0  0  0  0  0  0  0  0  0
   39.8510   32.2640   46.3850 O   0  0  0  0  0  0  0  0  0  0  0  0
   39.5180   32.9260   45.1980 C   0  0  0  0  0  0  0  0  0  0  0  0
   40.1250   33.9820   44.8460 O   0  0  0  0  0  0  0  0  0  0  0  0
   36.5020   32.3896   50.4521 H   0  0  0  0  0  0  0  0  0  0  0  0
   38.2504   34.1514   50.1929 H   0  0  0  0  0  0  0  0  0  0  0  0
   39.8313   34.0727   48.2498 H   0  0  0  0  0  0  0  0  0  0  0  0
   34.8213   31.1414   47.2785 H   0  0  0  0  0  0  0  0  0  0  0  0
   33.3154   27.6378   49.0853 H   0  0  0  0  0  0  0  0  0  0  0  0
   37.0745   29.1785   51.6511 H   0  0  0  0  0  0  0  0  0  0  0  0
   37.9209   28.2144   50.3938 H   0  0  0  0  0  0  0  0  0  0  0  0
   38.0551   30.0057   50.3938 H   0  0  0  0  0  0  0  0  0  0  0  0
   38.6010   30.3433   45.8999 H   0  0  0  0  0  0  0  0  0  0  0  0
   38.7170   32.5239   44.5603 H   0  0  0  0  0  0  0  0  0  0  0  0
  1  2  2  0
  2  8  1  0
  2  3  1  0
  4  3  2  0
  5  4  1  0
  6  1  1  0
  6  5  2  0
  7 12  2  0
  7  8  1  0
  8  9  2  0
  9 10  1  0
  9 13  1  0
 11 10  2  0
 12 11  1  0
 14  1  1  0
 15  6  1  0
 16 15  1  0
 17 16  2  0
  3 18  1  0
  4 19  1  0
  5 20  1  0
  7 21  1  0
 11 22  1  0
 13 23  1  0
 13 24  1  0
 13 25  1  0
 14 26  1  0
 16 27  1  0
M  ISO  8  18  14  19  14  20  14  21  14  22  14  23   8  24   8  25   8
M  ISO  2  26   3  27   6
M  END
>  <minimizedAffinity>  (1) 
-5.85205841

>  <minimizedRMSD>  (1) 
0.182860792

$$$$
