
     RDKit          3D

 26 27  0  0  1  0  0  0  0  0999 V2000
   32.3430   28.3600   47.4170 C   0  0  2  0  0  0  0  0  0  0  0  0
   33.5420   28.3620   48.3490 C   0  0  1  0  0  0  0  0  0  0  0  0
   34.0880   27.1030   48.3330 O   0  0  0  0  0  0  0  0  0  0  0  0
   33.4890   26.3590   47.3490 C   0  0  0  0  0  0  0  0  0  0  0  0
   32.8220   27.3640   46.3970 C   0  0  1  0  0  0  0  0  0  0  0  0
   32.1210   29.6130   46.8690 O   0  0  0  0  0  0  0  0  0  0  0  0
   34.7510   29.5150   47.5930 S   0  0  0  0  0  0  0  0  0  0  0  0
   37.3220   29.3220   50.6130 C   0  0  0  0  0  0  0  0  0  0  0  0
   37.8200   30.6180   50.7490 C   0  0  0  0  0  0  0  0  0  0  0  0
   37.3450   31.5940   49.8760 C   0  0  0  0  0  0  0  0  0  0  0  0
   36.4300   31.2250   48.9470 N   0  0  0  0  0  0  0  0  0  0  0  0
   35.9620   29.9720   48.8310 C   0  0  0  0  0  0  0  0  0  0  0  0
   36.4030   29.0030   49.6640 N   0  0  0  0  0  0  0  0  0  0  0  0
   31.7980   26.7350   45.7090 O   0  0  0  0  0  0  0  0  0  0  0  0
   31.4320   27.1400   44.4170 C   0  0  0  0  0  0  0  0  0  0  0  0
   30.5960   28.0330   44.1320 O   0  0  0  0  0  0  0  0  0  0  0  0
   31.3788   28.1124   47.8850 H   0  0  0  0  0  0  0  0  0  0  0  0
   33.2768   28.6493   49.3772 H   0  0  0  0  0  0  0  0  0  0  0  0
   34.2409   25.7642   46.8097 H   0  0  0  0  0  0  0  0  0  0  0  0
   32.7540   25.6566   47.7691 H   0  0  0  0  0  0  0  0  0  0  0  0
   33.4409   27.8064   45.6025 H   0  0  0  0  0  0  0  0  0  0  0  0
   32.0037   30.2750   47.5957 H   0  0  0  0  0  0  0  0  0  0  0  0
   37.6833   28.5363   51.2929 H   0  0  0  0  0  0  0  0  0  0  0  0
   38.5644   30.8615   51.5214 H   0  0  0  0  0  0  0  0  0  0  0  0
   37.7018   32.6326   49.9388 H   0  0  0  0  0  0  0  0  0  0  0  0
   31.9224   26.6283   43.5757 H   0  0  0  0  0  0  0  0  0  0  0  0
  1  2  1  0
  3  2  1  0
  4  3  1  0
  5  4  1  0
  5  1  1  0
  6  1  1  0
  7  2  1  0
  7 12  1  0
  8  9  2  0
 10  9  1  0
 11 10  2  0
 12 11  1  0
 12 13  2  0
 13  8  1  0
 14  5  1  0
 15 14  1  0
 16 15  2  0
  1 17  1  1
  2 18  1  1
  4 19  1  0
  4 20  1  0
  5 21  1  6
  6 22  1  0
  8 23  1  0
  9 24  1  0
 10 25  1  0
 15 26  1  0
M  ISO  8  17  13  18  13  19  13  20  13  21  13  22   3  23  14  24  14
M  ISO  2  25  14  26   6
M  END
>  <minimizedAffinity>  (1) 
-3.66220236

>  <minimizedRMSD>  (1) 
0.334005743

$$$$
