
     RDKit          3D

 33 35  0  0  0  0  0  0  0  0999 V2000
   35.4400   28.8680   49.1450 C   0  0  0  0  0  0  0  0  0  0  0  0
   35.3660   30.0540   48.3940 C   0  0  0  0  0  0  0  0  0  0  0  0
   34.2770   30.2110   47.5270 C   0  0  0  0  0  0  0  0  0  0  0  0
   33.3480   29.2290   47.4480 N   0  0  0  0  0  0  0  0  0  0  0  0
   33.4440   28.1110   48.1760 C   0  0  0  0  0  0  0  0  0  0  0  0
   34.4880   27.9110   49.0360 N   0  0  0  0  0  0  0  0  0  0  0  0
   36.4010   31.0160   48.5610 N   0  0  0  0  0  0  0  0  0  0  0  0
   36.5560   31.7010   49.6980 C   0  0  0  0  0  0  0  0  0  0  0  0
   37.5850   32.6290   49.8060 C   0  0  0  0  0  0  0  0  0  0  0  0
   38.3660   32.7590   48.7020 C   0  0  0  0  0  0  0  0  0  0  0  0
   39.3190   33.5940   48.7520 O   0  0  0  0  0  0  0  0  0  0  0  0
   38.2420   32.0960   47.5540 N   0  0  0  0  0  0  0  0  0  0  0  0
   37.2290   31.1950   47.4750 C   0  0  0  0  0  0  0  0  0  0  0  0
   37.0830   30.5510   46.4040 O   0  0  0  0  0  0  0  0  0  0  0  0
   32.4950   27.0860   48.1070 O   0  0  0  0  0  0  0  0  0  0  0  0
   31.1660   27.4890   48.2530 C   0  0  0  0  0  0  0  0  0  0  0  0
   30.8170   27.7600   49.5630 C   0  0  0  0  0  0  0  0  0  0  0  0
   29.5410   28.1710   49.8870 C   0  0  0  0  0  0  0  0  0  0  0  0
   28.6120   28.3060   48.8480 C   0  0  0  0  0  0  0  0  0  0  0  0
   28.9800   28.0290   47.5370 C   0  0  0  0  0  0  0  0  0  0  0  0
   30.2440   27.6250   47.2390 C   0  0  0  0  0  0  0  0  0  0  0  0
   30.6770   27.3280   45.9090 C   0  0  0  0  0  0  0  0  0  0  0  0
   30.6120   26.1270   45.5070 O   0  0  0  0  0  0  0  0  0  0  0  0
   36.2850   28.7148   49.8324 H   0  0  0  0  0  0  0  0  0  0  0  0
   34.1777   31.1213   46.9175 H   0  0  0  0  0  0  0  0  0  0  0  0
   35.8731   31.5313   50.5435 H   0  0  0  0  0  0  0  0  0  0  0  0
   37.7550   33.2164   50.7203 H   0  0  0  0  0  0  0  0  0  0  0  0
   38.8831   32.2586   46.7644 H   0  0  0  0  0  0  0  0  0  0  0  0
   31.5681   27.6461   50.3586 H   0  0  0  0  0  0  0  0  0  0  0  0
   29.2618   28.3860   50.9290 H   0  0  0  0  0  0  0  0  0  0  0  0
   27.5856   28.6330   49.0708 H   0  0  0  0  0  0  0  0  0  0  0  0
   28.2400   28.1378   46.7304 H   0  0  0  0  0  0  0  0  0  0  0  0
   31.0575   28.1225   45.2501 H   0  0  0  0  0  0  0  0  0  0  0  0
  2  7  1  0
  2  1  2  0
  3  2  1  0
  4  3  2  0
  4  5  1  0
  5  6  2  0
  6  1  1  0
  7  8  1  0
  8  9  2  0
 10 11  2  0
 10  9  1  0
 12 10  1  0
 13 12  1  0
 13  7  1  0
 14 13  2  0
 15  5  1  0
 15 16  1  0
 16 17  2  0
 17 18  1  0
 19 18  2  0
 20 19  1  0
 21 20  2  0
 21 16  1  0
 22 21  1  0
 23 22  2  0
  1 24  1  0
  3 25  1  0
  8 26  1  0
  9 27  1  0
 12 28  1  0
 17 29  1  0
 18 30  1  0
 19 31  1  0
 20 32  1  0
 22 33  1  0
M  ISO  8  24  14  25  14  26  14  27  14  28   9  29  14  30  14  31  14
M  ISO  2  32  14  33   6
M  END
>  <minimizedAffinity>  (1) 
-5.57086182

>  <minimizedRMSD>  (1) 
0.166021183

$$$$
