
     RDKit          3D

 34 37  0  0  0  0  0  0  0  0999 V2000
   35.5240   29.5790   49.7140 C   0  0  0  0  0  0  0  0  0  0  0  0
   36.5490   29.2380   50.5740 C   0  0  0  0  0  0  0  0  0  0  0  0
   37.6810   29.7640   49.9560 C   0  0  0  0  0  0  0  0  0  0  0  0
   37.3030   30.3830   48.7790 C   0  0  0  0  0  0  0  0  0  0  0  0
   36.0080   30.2490   48.6740 O   0  0  0  0  0  0  0  0  0  0  0  0
   38.5770   32.3650   48.0960 C   0  0  0  0  0  0  0  0  0  0  0  0
   38.1750   31.0620   47.8270 C   0  0  0  0  0  0  0  0  0  0  0  0
   38.5750   30.3830   46.6840 C   0  0  0  0  0  0  0  0  0  0  0  0
   39.4040   31.0030   45.7610 C   0  0  0  0  0  0  0  0  0  0  0  0
   39.9540   30.6370   44.5940 N   0  0  0  0  0  0  0  0  0  0  0  0
   40.6630   31.6580   44.1540 N   0  0  0  0  0  0  0  0  0  0  0  0
   40.5820   32.6880   45.0230 C   0  0  0  0  0  0  0  0  0  0  0  0
   39.7710   32.2970   46.0800 C   0  0  0  0  0  0  0  0  0  0  0  0
   39.4150   33.0210   47.1840 C   0  0  0  0  0  0  0  0  0  0  0  0
   34.1170   29.2410   49.9330 C   0  0  0  0  0  0  0  0  0  0  0  0
   33.5180   29.8220   50.8560 O   0  0  0  0  0  0  0  0  0  0  0  0
   31.4990   27.2050   48.4240 C   0  0  0  0  0  0  0  0  0  0  0  0
   32.1840   26.4170   47.5170 C   0  0  0  0  0  0  0  0  0  0  0  0
   33.5420   26.5710   47.4120 C   0  0  0  0  0  0  0  0  0  0  0  0
   34.1620   27.4780   48.1890 N   0  0  0  0  0  0  0  0  0  0  0  0
   33.4750   28.2520   49.0810 C   0  0  0  0  0  0  0  0  0  0  0  0
   32.1430   28.1060   49.1900 N   0  0  0  0  0  0  0  0  0  0  0  0
   34.2730   25.7450   46.4590 C   0  0  0  0  0  0  0  0  0  0  0  0
   34.4490   24.5300   46.6450 O   0  0  0  0  0  0  0  0  0  0  0  0
   36.4865   28.6830   51.5217 H   0  0  0  0  0  0  0  0  0  0  0  0
   38.7090   29.6977   50.3418 H   0  0  0  0  0  0  0  0  0  0  0  0
   38.2422   32.8742   49.0118 H   0  0  0  0  0  0  0  0  0  0  0  0
   38.2339   29.3518   46.5102 H   0  0  0  0  0  0  0  0  0  0  0  0
   39.8430   29.7257   44.1271 H   0  0  0  0  0  0  0  0  0  0  0  0
   41.0728   33.6662   44.9129 H   0  0  0  0  0  0  0  0  0  0  0  0
   39.7638   34.0516   47.3459 H   0  0  0  0  0  0  0  0  0  0  0  0
   30.4090   27.0938   48.5214 H   0  0  0  0  0  0  0  0  0  0  0  0
   31.6512   25.6834   46.8941 H   0  0  0  0  0  0  0  0  0  0  0  0
   34.6801   26.2111   45.5496 H   0  0  0  0  0  0  0  0  0  0  0  0
  1 15  1  0
  1  2  2  0
  3  2  1  0
  4  3  2  0
  5  4  1  0
  5  1  1  0
  7  6  2  0
  7  4  1  0
  8  7  1  0
  9 13  1  0
  9  8  2  0
 10  9  1  0
 11 10  1  0
 11 12  2  0
 12 13  1  0
 13 14  2  0
 14  6  1  0
 15 16  2  0
 17 22  2  0
 18 17  1  0
 19 18  2  0
 19 20  1  0
 20 21  2  0
 21 22  1  0
 21 15  1  0
 23 24  2  0
 23 19  1  0
  2 25  1  0
  3 26  1  0
  6 27  1  0
  8 28  1  0
 10 29  1  0
 12 30  1  0
 14 31  1  0
 17 32  1  0
 18 33  1  0
 23 34  1  0
M  ISO  8  25  14  26  14  27  14  28  14  29   9  30  14  31  14  32  14
M  ISO  2  33  14  34   6
M  END
>  <minimizedAffinity>  (1) 
-6.29936171

>  <minimizedRMSD>  (1) 
0.314258844

$$$$
