
     RDKit          3D

 38 40  0  0  1  0  0  0  0  0999 V2000
   38.9230   32.4950   47.2720 C   0  0  0  0  0  0  0  0  0  0  0  0
   39.6390   33.6720   47.2090 C   0  0  0  0  0  0  0  0  0  0  0  0
   39.9360   34.4550   48.3020 C   0  0  0  0  0  0  0  0  0  0  0  0
   39.5080   34.0690   49.5490 C   0  0  0  0  0  0  0  0  0  0  0  0
   38.8020   32.9120   49.6230 C   0  0  0  0  0  0  0  0  0  0  0  0
   38.4780   32.0820   48.5310 C   0  0  0  0  0  0  0  0  0  0  0  0
   37.7010   30.8820   48.6930 C   0  0  1  0  0  0  0  0  0  0  0  0
   37.9610   30.4520   50.2170 C   0  0  0  0  0  0  0  0  0  0  0  0
   37.3520   29.0800   50.4940 C   0  0  0  0  0  0  0  0  0  0  0  0
   35.9670   28.9960   49.9250 C   0  0  0  0  0  0  0  0  0  0  0  0
   35.4820   30.3990   49.7850 C   0  0  0  0  0  0  0  0  0  0  0  0
   36.2290   31.0090   48.5990 C   0  0  2  0  0  0  0  0  0  0  0  0
   35.6820   30.3010   47.3650 C   0  0  0  0  0  0  0  0  0  0  0  0
   34.5290   30.2680   46.9660 O   0  0  0  0  0  0  0  0  0  0  0  0
   39.6430   30.7070   45.8070 C   0  0  0  0  0  0  0  0  0  0  0  0
   38.7350   31.7890   46.0510 C   0  0  0  0  0  0  0  0  0  0  0  0
   37.7800   32.0280   45.0950 C   0  0  0  0  0  0  0  0  0  0  0  0
   37.7290   31.2520   43.9900 N   0  0  0  0  0  0  0  0  0  0  0  0
   38.6180   30.2180   43.7850 C   0  0  0  0  0  0  0  0  0  0  0  0
   39.6040   29.9340   44.7140 N   0  0  0  0  0  0  0  0  0  0  0  0
   39.9953   34.0063   46.2235 H   0  0  0  0  0  0  0  0  0  0  0  0
   40.5123   35.3836   48.1775 H   0  0  0  0  0  0  0  0  0  0  0  0
   39.7269   34.6688   50.4447 H   0  0  0  0  0  0  0  0  0  0  0  0
   38.4540   32.5961   50.6175 H   0  0  0  0  0  0  0  0  0  0  0  0
   38.0062   30.2010   47.8849 H   0  0  0  0  0  0  0  0  0  0  0  0
   39.0445   30.4118   50.4024 H   0  0  0  0  0  0  0  0  0  0  0  0
   37.4910   31.1918   50.8817 H   0  0  0  0  0  0  0  0  0  0  0  0
   37.9809   28.3047   50.0320 H   0  0  0  0  0  0  0  0  0  0  0  0
   37.2997   28.9269   51.5820 H   0  0  0  0  0  0  0  0  0  0  0  0
   35.9889   28.5015   48.9427 H   0  0  0  0  0  0  0  0  0  0  0  0
   35.3037   28.4086   50.5769 H   0  0  0  0  0  0  0  0  0  0  0  0
   34.3986   30.4078   49.5951 H   0  0  0  0  0  0  0  0  0  0  0  0
   35.6660   30.9736   50.7048 H   0  0  0  0  0  0  0  0  0  0  0  0
   36.0610   32.0956   48.5649 H   0  0  0  0  0  0  0  0  0  0  0  0
   36.4175   29.7517   46.7589 H   0  0  0  0  0  0  0  0  0  0  0  0
   40.4165   30.4996   46.5611 H   0  0  0  0  0  0  0  0  0  0  0  0
   37.0589   32.8480   45.2277 H   0  0  0  0  0  0  0  0  0  0  0  0
   38.5426   29.6107   42.8709 H   0  0  0  0  0  0  0  0  0  0  0  0
  1  6  1  0
  2  1  2  0
  2  3  1  0
  3  4  2  0
  4  5  1  0
  6  7  1  0
  6  5  2  0
  7  8  1  0
  8  9  1  0
 10  9  1  0
 11 10  1  0
 12  7  1  0
 12 11  1  0
 13 12  1  0
 14 13  2  0
 15 16  2  0
 16  1  1  0
 17 16  1  0
 18 17  2  0
 19 18  1  0
 19 20  2  0
 20 15  1  0
  2 21  1  0
  3 22  1  0
  4 23  1  0
  5 24  1  0
  7 25  1  6
  8 26  1  0
  8 27  1  0
  9 28  1  0
  9 29  1  0
 10 30  1  0
 10 31  1  0
 11 32  1  0
 11 33  1  0
 12 34  1  6
 13 35  1  0
 15 36  1  0
 17 37  1  0
 19 38  1  0
M  ISO  8  21  14  22  14  23  14  24  14  25  13  26  13  27  13  28  13
M  ISO  8  29  13  30  13  31  13  32  13  33  13  34  13  35   6  36  14
M  ISO  2  37  14  38  14
M  END
>  <minimizedAffinity>  (1) 
-6.6910429

>  <minimizedRMSD>  (1) 
2.65875936

$$$$
