
     RDKit          3D

 39 42  0  0  1  0  0  0  0  0999 V2000
   35.9850   30.0910   46.9680 C   0  0  0  0  0  0  0  0  0  0  0  0
   36.9060   30.6450   47.8270 C   0  0  0  0  0  0  0  0  0  0  0  0
   37.8860   31.5420   47.3650 C   0  0  0  0  0  0  0  0  0  0  0  0
   37.8570   31.8230   46.0030 C   0  0  0  0  0  0  0  0  0  0  0  0
   38.7010   32.6650   45.3170 N   0  0  0  0  0  0  0  0  0  0  0  0
   38.2950   32.6270   44.0340 C   0  0  0  0  0  0  0  0  0  0  0  0
   37.2630   31.8150   43.9150 N   0  0  0  0  0  0  0  0  0  0  0  0
   36.9600   31.2950   45.1180 C   0  0  0  0  0  0  0  0  0  0  0  0
   35.9990   30.4050   45.6160 C   0  0  0  0  0  0  0  0  0  0  0  0
   37.5940   30.1610   51.4940 C   0  0  0  0  0  0  0  0  0  0  0  0
   37.8240   30.5720   50.1830 C   0  0  0  0  0  0  0  0  0  0  0  0
   36.8670   30.3020   49.2400 C   0  0  0  0  0  0  0  0  0  0  0  0
   35.7330   29.6350   49.6580 N   0  0  0  0  0  0  0  0  0  0  0  0
   35.5220   29.2410   50.9270 C   0  0  0  0  0  0  0  0  0  0  0  0
   36.4500   29.5060   51.8300 N   0  0  0  0  0  0  0  0  0  0  0  0
   38.9220   33.3660   43.0300 O   0  0  0  0  0  0  0  0  0  0  0  0
   39.7680   31.2800   42.5280 N   0  0  0  0  0  0  0  0  0  0  0  0
   39.5210   32.6100   41.9870 C   0  0  1  0  0  0  0  0  0  0  0  0
   38.6390   32.5310   40.8330 C   0  0  0  0  0  0  0  0  0  0  0  0
   39.2790   31.7930   39.8230 O   0  0  0  0  0  0  0  0  0  0  0  0
   39.7210   30.5570   40.1920 C   0  0  0  0  0  0  0  0  0  0  0  0
   40.5060   30.6000   41.4910 C   0  0  2  0  0  0  0  0  0  0  0  0
   40.7710   29.2150   41.9580 C   0  0  0  0  0  0  0  0  0  0  0  0
   41.9450   28.8400   42.0500 O   0  0  0  0  0  0  0  0  0  0  0  0
   35.2298   29.3920   47.3567 H   0  0  0  0  0  0  0  0  0  0  0  0
   38.6291   31.9932   48.0389 H   0  0  0  0  0  0  0  0  0  0  0  0
   39.4827   33.2120   45.7050 H   0  0  0  0  0  0  0  0  0  0  0  0
   35.2581   29.9567   44.9377 H   0  0  0  0  0  0  0  0  0  0  0  0
   38.3475   30.3689   52.2679 H   0  0  0  0  0  0  0  0  0  0  0  0
   38.7502   31.0998   49.9116 H   0  0  0  0  0  0  0  0  0  0  0  0
   34.5994   28.7111   51.2062 H   0  0  0  0  0  0  0  0  0  0  0  0
   40.3238   31.3363   43.3934 H   0  0  0  0  0  0  0  0  0  0  0  0
   40.4543   33.0830   41.6476 H   0  0  0  0  0  0  0  0  0  0  0  0
   37.7013   32.0315   41.1180 H   0  0  0  0  0  0  0  0  0  0  0  0
   38.4099   33.5431   40.4680 H   0  0  0  0  0  0  0  0  0  0  0  0
   38.8533   29.8936   40.3228 H   0  0  0  0  0  0  0  0  0  0  0  0
   40.3899   30.1847   39.4021 H   0  0  0  0  0  0  0  0  0  0  0  0
   41.4440   31.1402   41.2951 H   0  0  0  0  0  0  0  0  0  0  0  0
   39.9421   28.5393   42.2158 H   0  0  0  0  0  0  0  0  0  0  0  0
  1  2  2  0
  2 12  1  0
  3  2  1  0
  4  3  2  0
  5  4  1  0
  6  5  1  0
  7  6  2  0
  7  8  1  0
  8  9  2  0
  8  4  1  0
  9  1  1  0
 10 15  2  0
 11 10  1  0
 12 13  1  0
 12 11  2  0
 13 14  2  0
 14 15  1  0
 16  6  1  0
 18 17  1  0
 18 16  1  0
 19 18  1  0
 20 21  1  0
 20 19  1  0
 21 22  1  0
 22 23  1  0
 22 17  1  0
 23 24  2  0
  1 25  1  0
  3 26  1  0
  5 27  1  0
  9 28  1  0
 10 29  1  0
 11 30  1  0
 14 31  1  0
 17 32  1  0
 18 33  1  6
 19 34  1  0
 19 35  1  0
 21 36  1  0
 21 37  1  0
 22 38  1  6
 23 39  1  0
M  ISO  8  25  14  26  14  27   9  28  14  29  14  30  14  31  14  32   5
M  ISO  7  33  13  34  13  35  13  36  13  37  13  38  13  39   6
M  END
>  <minimizedAffinity>  (1) 
-5.64251757

>  <minimizedRMSD>  (1) 
1.06923199

$$$$
