
     RDKit          3D

 22 23  0  0  0  0  0  0  0  0999 V2000
   37.1080   31.4500   48.7640 N   0  0  0  0  0  0  0  0  0  0  0  0
   37.0700   32.4700   49.6370 C   0  0  0  0  0  0  0  0  0  0  0  0
   38.0270   33.4680   49.6010 C   0  0  0  0  0  0  0  0  0  0  0  0
   38.9620   33.2880   48.6140 C   0  0  0  0  0  0  0  0  0  0  0  0
   39.8770   34.1820   48.5310 O   0  0  0  0  0  0  0  0  0  0  0  0
   39.0400   32.2900   47.7250 N   0  0  0  0  0  0  0  0  0  0  0  0
   38.0700   31.3390   47.8110 C   0  0  0  0  0  0  0  0  0  0  0  0
   38.1120   30.3910   46.9920 O   0  0  0  0  0  0  0  0  0  0  0  0
   36.2550   29.3960   49.7500 C   0  0  0  0  0  0  0  0  0  0  0  0
   36.1380   30.4100   48.7890 C   0  0  0  0  0  0  0  0  0  0  0  0
   35.0470   30.3160   47.9110 C   0  0  0  0  0  0  0  0  0  0  0  0
   34.1930   29.2740   48.0420 N   0  0  0  0  0  0  0  0  0  0  0  0
   34.3390   28.3270   48.9710 C   0  0  0  0  0  0  0  0  0  0  0  0
   35.3690   28.3810   49.8310 N   0  0  0  0  0  0  0  0  0  0  0  0
   37.3350   29.3650   50.7200 C   0  0  0  0  0  0  0  0  0  0  0  0
   37.4610   29.8240   51.8800 O   0  0  0  0  0  0  0  0  0  0  0  0
   36.2686   32.5122   50.3893 H   0  0  0  0  0  0  0  0  0  0  0  0
   38.0371   34.3213   50.2951 H   0  0  0  0  0  0  0  0  0  0  0  0
   39.7885   32.2446   47.0189 H   0  0  0  0  0  0  0  0  0  0  0  0
   34.8889   31.0751   47.1308 H   0  0  0  0  0  0  0  0  0  0  0  0
   33.6148   27.5013   49.0323 H   0  0  0  0  0  0  0  0  0  0  0  0
   38.2265   28.8281   50.3637 H   0  0  0  0  0  0  0  0  0  0  0  0
  1 10  1  0
  1  2  1  0
  3  2  2  0
  4  3  1  0
  5  4  2  0
  6  7  1  0
  6  4  1  0
  7  1  1  0
  8  7  2  0
  9 14  2  0
  9 15  1  0
 10  9  1  0
 11 12  1  0
 11 10  2  0
 12 13  2  0
 13 14  1  0
 15 16  2  0
  2 17  1  0
  3 18  1  0
  6 19  1  0
 11 20  1  0
 13 21  1  0
 15 22  1  0
M  ISO  6  17  14  18  14  19   9  20  14  21  14  22   6
M  END
>  <minimizedAffinity>  (1) 
-5.21611595

>  <minimizedRMSD>  (1) 
0.482393324

$$$$
