
     RDKit          3D

 28 29  0  0  1  0  0  0  0  0999 V2000
   34.7460   30.5350   48.6820 C   0  0  1  0  0  0  0  0  0  0  0  0
   33.8250   30.3060   47.5720 C   0  0  0  0  0  0  0  0  0  0  0  0
   33.6220   28.8830   47.1300 C   0  0  0  0  0  0  0  0  0  0  0  0
   33.6200   27.8650   48.2060 C   0  0  2  0  0  0  0  0  0  0  0  0
   34.5260   28.0910   49.3680 C   0  0  0  0  0  0  0  0  0  0  0  0
   34.5820   29.5250   49.7800 C   0  0  0  0  0  0  0  0  0  0  0  0
   36.6480   30.6060   47.0190 C   0  0  0  0  0  0  0  0  0  0  0  0
   36.1670   30.7870   48.3240 C   0  0  0  0  0  0  0  0  0  0  0  0
   37.0700   31.2070   49.2810 C   0  0  0  0  0  0  0  0  0  0  0  0
   38.3650   31.4250   48.9300 N   0  0  0  0  0  0  0  0  0  0  0  0
   38.7900   31.2380   47.6540 C   0  0  0  0  0  0  0  0  0  0  0  0
   37.9200   30.8240   46.6940 N   0  0  0  0  0  0  0  0  0  0  0  0
   34.0340   26.5490   47.6170 C   0  0  0  0  0  0  0  0  0  0  0  0
   33.2930   25.5620   47.5160 O   0  0  0  0  0  0  0  0  0  0  0  0
   34.4274   31.5099   49.0796 H   0  0  0  0  0  0  0  0  0  0  0  0
   32.8433   30.7035   47.8691 H   0  0  0  0  0  0  0  0  0  0  0  0
   34.2895   30.8072   46.7100 H   0  0  0  0  0  0  0  0  0  0  0  0
   32.6540   28.8263   46.6107 H   0  0  0  0  0  0  0  0  0  0  0  0
   34.4871   28.6426   46.4946 H   0  0  0  0  0  0  0  0  0  0  0  0
   32.5938   27.9096   48.5997 H   0  0  0  0  0  0  0  0  0  0  0  0
   34.1648   27.4937   50.2182 H   0  0  0  0  0  0  0  0  0  0  0  0
   35.5398   27.7911   49.0642 H   0  0  0  0  0  0  0  0  0  0  0  0
   35.4313   29.6410   50.4694 H   0  0  0  0  0  0  0  0  0  0  0  0
   33.5982   29.7372   50.2240 H   0  0  0  0  0  0  0  0  0  0  0  0
   35.9498   30.2724   46.2372 H   0  0  0  0  0  0  0  0  0  0  0  0
   36.7436   31.3639   50.3197 H   0  0  0  0  0  0  0  0  0  0  0  0
   39.8432   31.4223   47.3954 H   0  0  0  0  0  0  0  0  0  0  0  0
   35.0665   26.4542   47.2496 H   0  0  0  0  0  0  0  0  0  0  0  0
  1  6  1  0
  2  1  1  0
  3  2  1  0
  3  4  1  0
  4  5  1  0
  5  6  1  0
  7  8  2  0
  8  1  1  0
  8  9  1  0
 10  9  2  0
 11 10  1  0
 12  7  1  0
 12 11  2  0
 13  4  1  0
 14 13  2  0
  1 15  1  1
  2 16  1  0
  2 17  1  0
  3 18  1  0
  3 19  1  0
  4 20  1  1
  5 21  1  0
  5 22  1  0
  6 23  1  0
  6 24  1  0
  7 25  1  0
  9 26  1  0
 11 27  1  0
 13 28  1  0
M  ISO  8  15  13  16  13  17  13  18  13  19  13  20  13  21  13  22  13
M  ISO  6  23  13  24  13  25  14  26  14  27  14  28   6
M  END
>  <minimizedAffinity>  (1) 
-4.12283373

>  <minimizedRMSD>  (1) 
1.62349272

$$$$
