
     RDKit          3D

 29 31  0  0  0  0  0  0  0  0999 V2000
   38.1010   32.6070   49.5120 C   0  0  0  0  0  0  0  0  0  0  0  0
   38.7990   32.9340   48.3530 C   0  0  0  0  0  0  0  0  0  0  0  0
   38.4000   32.2600   47.1800 C   0  0  0  0  0  0  0  0  0  0  0  0
   37.3880   31.3560   47.2460 N   0  0  0  0  0  0  0  0  0  0  0  0
   36.7430   31.0770   48.4060 C   0  0  0  0  0  0  0  0  0  0  0  0
   37.1200   31.7150   49.5220 N   0  0  0  0  0  0  0  0  0  0  0  0
   37.0280   28.9350   50.4340 Cl  0  0  0  0  0  0  0  0  0  0  0  0
   35.7060   29.0550   49.3220 C   0  0  0  0  0  0  0  0  0  0  0  0
   35.6710   30.1010   48.4120 C   0  0  0  0  0  0  0  0  0  0  0  0
   34.6450   30.2200   47.5260 C   0  0  0  0  0  0  0  0  0  0  0  0
   33.6020   29.3130   47.4970 C   0  0  0  0  0  0  0  0  0  0  0  0
   33.6120   28.2630   48.3920 C   0  0  0  0  0  0  0  0  0  0  0  0
   32.3550   27.0430   48.4620 Cl  0  0  0  0  0  0  0  0  0  0  0  0
   34.6610   28.1650   49.2750 C   0  0  0  0  0  0  0  0  0  0  0  0
   39.0470   32.5090   45.8950 C   0  0  0  0  0  0  0  0  0  0  0  0
   40.4140   32.5620   45.7180 C   0  0  0  0  0  0  0  0  0  0  0  0
   40.7090   32.8100   44.4110 N   0  0  0  0  0  0  0  0  0  0  0  0
   39.5300   32.9110   43.7810 C   0  0  0  0  0  0  0  0  0  0  0  0
   38.5620   32.7300   44.6760 N   0  0  0  0  0  0  0  0  0  0  0  0
   39.2430   33.1690   42.3740 C   0  0  0  0  0  0  0  0  0  0  0  0
   39.3700   32.3010   41.4490 O   0  0  0  0  0  0  0  0  0  0  0  0
   38.3730   33.1066   50.4535 H   0  0  0  0  0  0  0  0  0  0  0  0
   39.6131   33.6738   48.3519 H   0  0  0  0  0  0  0  0  0  0  0  0
   34.6455   31.0592   46.8148 H   0  0  0  0  0  0  0  0  0  0  0  0
   32.7803   29.4262   46.7745 H   0  0  0  0  0  0  0  0  0  0  0  0
   34.6636   27.3250   49.9852 H   0  0  0  0  0  0  0  0  0  0  0  0
   41.1581   32.4241   46.5163 H   0  0  0  0  0  0  0  0  0  0  0  0
   41.6459   32.9012   43.9928 H   0  0  0  0  0  0  0  0  0  0  0  0
   38.8956   34.1745   42.0941 H   0  0  0  0  0  0  0  0  0  0  0  0
  1  6  2  0
  2  1  1  0
  3  4  1  0
  3  2  2  0
  4  5  2  0
  5  9  1  0
  5  6  1  0
  8  7  1  0
  9  8  2  0
 10  9  1  0
 11 10  2  0
 11 12  1  0
 12 13  1  0
 12 14  2  0
 14  8  1  0
 15  3  1  0
 16 15  2  0
 17 16  1  0
 18 17  1  0
 18 19  2  0
 19 15  1  0
 20 18  1  0
 21 20  2  0
  1 22  1  0
  2 23  1  0
 10 24  1  0
 11 25  1  0
 14 26  1  0
 16 27  1  0
 17 28  1  0
 20 29  1  0
M  ISO  8  22  14  23  14  24  14  25  14  26  14  27  14  28   9  29   6
M  END
>  <minimizedAffinity>  (1) 
-6.46724367

>  <minimizedRMSD>  (1) 
1.26608276

$$$$
