
     RDKit          3D

 36 38  0  0  0  0  0  0  0  0999 V2000
   34.9880   28.3890   49.4670 C   0  0  0  0  0  0  0  0  0  0  0  0
   34.2740   28.7690   48.4550 C   0  0  0  0  0  0  0  0  0  0  0  0
   37.3950   30.1560   51.5760 C   0  0  0  0  0  0  0  0  0  0  0  0
   38.0990   30.9250   50.6320 C   0  0  0  0  0  0  0  0  0  0  0  0
   37.7260   30.8180   49.2700 C   0  0  0  0  0  0  0  0  0  0  0  0
   36.6910   29.9640   48.9460 N   0  0  0  0  0  0  0  0  0  0  0  0
   36.0650   29.2600   49.9140 C   0  0  0  0  0  0  0  0  0  0  0  0
   36.4130   29.3550   51.2100 N   0  0  0  0  0  0  0  0  0  0  0  0
   38.3750   31.5590   48.2040 C   0  0  0  0  0  0  0  0  0  0  0  0
   38.5950   31.0370   46.9550 C   0  0  0  0  0  0  0  0  0  0  0  0
   39.2350   32.0130   46.1850 C   0  0  0  0  0  0  0  0  0  0  0  0
   39.3780   33.0880   46.9980 N   0  0  0  0  0  0  0  0  0  0  0  0
   38.8670   32.8030   48.1820 N   0  0  0  0  0  0  0  0  0  0  0  0
   33.1470   28.0460   47.8470 C   0  0  0  0  0  0  0  0  0  0  0  0
   33.5660   26.8950   47.0110 C   0  0  0  0  0  0  0  0  0  0  0  0
   33.7410   25.6170   47.4770 C   0  0  0  0  0  0  0  0  0  0  0  0
   34.1330   24.6010   46.6330 C   0  0  0  0  0  0  0  0  0  0  0  0
   34.3650   24.8340   45.2850 C   0  0  0  0  0  0  0  0  0  0  0  0
   34.1960   26.1060   44.8080 C   0  0  0  0  0  0  0  0  0  0  0  0
   33.8070   27.0920   45.6670 C   0  0  0  0  0  0  0  0  0  0  0  0
   33.6470   28.4210   45.0880 C   0  0  0  0  0  0  0  0  0  0  0  0
   34.6200   29.1880   44.7780 O   0  0  0  0  0  0  0  0  0  0  0  0
   34.7858   27.4343   49.9745 H   0  0  0  0  0  0  0  0  0  0  0  0
   34.5391   29.7358   48.0021 H   0  0  0  0  0  0  0  0  0  0  0  0
   37.6684   30.2238   52.6393 H   0  0  0  0  0  0  0  0  0  0  0  0
   38.9170   31.5914   50.9431 H   0  0  0  0  0  0  0  0  0  0  0  0
   38.3168   30.0275   46.6181 H   0  0  0  0  0  0  0  0  0  0  0  0
   39.5560   31.9263   45.1365 H   0  0  0  0  0  0  0  0  0  0  0  0
   39.8148   33.9829   46.7349 H   0  0  0  0  0  0  0  0  0  0  0  0
   32.4970   27.6733   48.6524 H   0  0  0  0  0  0  0  0  0  0  0  0
   32.6265   28.7544   47.1857 H   0  0  0  0  0  0  0  0  0  0  0  0
   33.5657   25.3998   48.5410 H   0  0  0  0  0  0  0  0  0  0  0  0
   34.2646   23.5858   47.0355 H   0  0  0  0  0  0  0  0  0  0  0  0
   34.6767   24.0177   44.6168 H   0  0  0  0  0  0  0  0  0  0  0  0
   34.3716   26.3303   43.7455 H   0  0  0  0  0  0  0  0  0  0  0  0
   32.6250   28.7853   44.9071 H   0  0  0  0  0  0  0  0  0  0  0  0
  1  7  1  0
  2  1  2  0
  4  3  2  0
  5  4  1  0
  6  5  2  0
  6  7  1  0
  7  8  2  0
  8  3  1  0
  9  5  1  0
 10  9  1  0
 11 10  2  0
 11 12  1  0
 12 13  1  0
 13  9  2  0
 14  2  1  0
 15 16  2  0
 15 14  1  0
 17 16  1  0
 18 17  2  0
 19 18  1  0
 19 20  2  0
 20 15  1  0
 21 20  1  0
 22 21  2  0
  1 23  1  0
  2 24  1  0
  3 25  1  0
  4 26  1  0
 10 27  1  0
 11 28  1  0
 12 29  1  0
 14 30  1  0
 14 31  1  0
 16 32  1  0
 17 33  1  0
 18 34  1  0
 19 35  1  0
 21 36  1  0
M  ISO  8  25  14  26  14  27  14  28  14  29   9  30   8  31   8  32  14
M  ISO  4  33  14  34  14  35  14  36   6
M  END
>  <minimizedAffinity>  (1) 
-5.93634558

>  <minimizedRMSD>  (1) 
0.254358053

$$$$
