
     RDKit          3D

 35 37  0  0  0  0  0  0  0  0999 V2000
   34.1580   28.5790   47.5190 C   0  0  0  0  0  0  0  0  0  0  0  0
   31.6750   28.4860   47.3610 C   0  0  0  0  0  0  0  0  0  0  0  0
   32.8980   29.0060   46.9790 C   0  0  0  0  0  0  0  0  0  0  0  0
   32.7820   29.9280   45.9690 C   0  0  0  0  0  0  0  0  0  0  0  0
   31.6230   30.2870   45.4110 N   0  0  0  0  0  0  0  0  0  0  0  0
   30.4570   29.7700   45.7940 C   0  0  0  0  0  0  0  0  0  0  0  0
   30.4800   28.8650   46.7720 N   0  0  0  0  0  0  0  0  0  0  0  0
   31.6450   27.5400   48.5660 C   0  0  0  0  0  0  0  0  0  0  0  0
   30.5070   26.8140   48.9270 C   0  0  0  0  0  0  0  0  0  0  0  0
   31.4440   26.0830   47.9780 C   0  0  0  0  0  0  0  0  0  0  0  0
   35.2840   29.5320   47.4410 C   0  0  0  0  0  0  0  0  0  0  0  0
   37.0690   31.6160   47.4200 F   0  0  0  0  0  0  0  0  0  0  0  0
   36.8930   30.8760   48.5510 C   0  0  0  0  0  0  0  0  0  0  0  0
   36.0140   29.8010   48.6660 C   0  0  0  0  0  0  0  0  0  0  0  0
   35.9550   29.1470   49.8790 C   0  0  0  0  0  0  0  0  0  0  0  0
   36.7330   29.5440   50.9340 C   0  0  0  0  0  0  0  0  0  0  0  0
   37.6110   30.6230   50.8130 C   0  0  0  0  0  0  0  0  0  0  0  0
   37.6860   31.2830   49.6170 C   0  0  0  0  0  0  0  0  0  0  0  0
   38.6100   32.4090   49.5080 C   0  0  0  0  0  0  0  0  0  0  0  0
   38.2090   33.5910   49.4370 O   0  0  0  0  0  0  0  0  0  0  0  0
   33.9991   28.3408   48.5811 H   0  0  0  0  0  0  0  0  0  0  0  0
   34.4622   27.7289   46.8906 H   0  0  0  0  0  0  0  0  0  0  0  0
   33.7020   30.4013   45.5954 H   0  0  0  0  0  0  0  0  0  0  0  0
   29.5124   30.0778   45.3218 H   0  0  0  0  0  0  0  0  0  0  0  0
   32.3087   28.1319   49.2135 H   0  0  0  0  0  0  0  0  0  0  0  0
   30.4089   26.4551   49.9621 H   0  0  0  0  0  0  0  0  0  0  0  0
   29.4324   27.0443   48.8800 H   0  0  0  0  0  0  0  0  0  0  0  0
   31.1757   25.9294   46.9224 H   0  0  0  0  0  0  0  0  0  0  0  0
   31.9968   25.1324   47.9512 H   0  0  0  0  0  0  0  0  0  0  0  0
   36.0024   29.1355   46.7085 H   0  0  0  0  0  0  0  0  0  0  0  0
   34.8224   30.4931   47.1703 H   0  0  0  0  0  0  0  0  0  0  0  0
   35.2723   28.2931   50.0010 H   0  0  0  0  0  0  0  0  0  0  0  0
   36.6652   29.0050   51.8905 H   0  0  0  0  0  0  0  0  0  0  0  0
   38.2319   30.9370   51.6650 H   0  0  0  0  0  0  0  0  0  0  0  0
   39.6918   32.2109   49.4878 H   0  0  0  0  0  0  0  0  0  0  0  0
  2  8  1  0
  3  2  1  0
  3  1  1  0
  4  3  2  0
  5  6  2  0
  5  4  1  0
  6  7  1  0
  7  2  2  0
  8  9  1  0
 10  8  1  0
 10  9  1  0
 11  1  1  0
 11 14  1  0
 12 13  1  0
 13 14  2  0
 13 18  1  0
 14 15  1  0
 15 16  2  0
 17 16  1  0
 18 17  2  0
 19 18  1  0
 20 19  2  0
  1 21  1  0
  1 22  1  0
  4 23  1  0
  6 24  1  0
  8 25  1  0
  9 26  1  0
  9 27  1  0
 10 28  1  0
 10 29  1  0
 11 30  1  0
 11 31  1  0
 15 32  1  0
 16 33  1  0
 17 34  1  0
 19 35  1  0
M  ISO  8  21   8  22   8  23  14  24  14  25  13  26  13  27  13  28  13
M  ISO  7  29  13  30   8  31   8  32  14  33  14  34  14  35   6
M  END
>  <minimizedAffinity>  (1) 
-5.49861288

>  <minimizedRMSD>  (1) 
4.08042431

$$$$
