
     RDKit          3D

 35 36  0  0  1  0  0  0  0  0999 V2000
   39.5000   31.9900   46.9470 C   0  0  2  0  0  0  0  0  0  0  0  0
   40.1670   33.1220   46.2250 C   0  0  0  0  0  0  0  0  0  0  0  0
   40.7650   32.5800   45.0080 C   0  0  0  0  0  0  0  0  0  0  0  0
   40.3430   31.3550   44.4280 C   0  0  0  0  0  0  0  0  0  0  0  0
   39.4670   30.4040   45.1440 C   0  0  0  0  0  0  0  0  0  0  0  0
   38.5840   31.3390   45.9620 C   0  0  2  0  0  0  0  0  0  0  0  0
   37.8740   32.2850   45.0660 C   0  0  0  0  0  0  0  0  0  0  0  0
   37.0910   32.2720   44.1350 O   0  0  0  0  0  0  0  0  0  0  0  0
   38.5320   32.6610   48.3100 S   0  0  0  0  0  0  0  0  0  0  0  0
   38.2070   31.4930   49.6460 C   0  0  0  0  0  0  0  0  0  0  0  0
   36.7460   31.5470   49.9990 C   0  0  0  0  0  0  0  0  0  0  0  0
   34.8270   28.3770   49.4850 C   0  0  0  0  0  0  0  0  0  0  0  0
   35.5820   29.3830   50.0880 C   0  0  0  0  0  0  0  0  0  0  0  0
   35.9640   30.4900   49.3900 C   0  0  0  0  0  0  0  0  0  0  0  0
   35.5700   30.5640   48.0710 N   0  0  0  0  0  0  0  0  0  0  0  0
   34.8530   29.5980   47.5160 C   0  0  0  0  0  0  0  0  0  0  0  0
   34.4670   28.4980   48.1910 N   0  0  0  0  0  0  0  0  0  0  0  0
   40.2319   31.2721   47.3455 H   0  0  0  0  0  0  0  0  0  0  0  0
   39.4245   33.8915   45.9672 H   0  0  0  0  0  0  0  0  0  0  0  0
   40.9369   33.5844   46.8602 H   0  0  0  0  0  0  0  0  0  0  0  0
   40.6273   33.3479   44.2325 H   0  0  0  0  0  0  0  0  0  0  0  0
   41.7798   32.3284   45.3498 H   0  0  0  0  0  0  0  0  0  0  0  0
   39.8141   31.6208   43.5008 H   0  0  0  0  0  0  0  0  0  0  0  0
   41.2873   30.7941   44.3670 H   0  0  0  0  0  0  0  0  0  0  0  0
   38.8702   29.8039   44.4414 H   0  0  0  0  0  0  0  0  0  0  0  0
   40.0146   29.6679   45.7509 H   0  0  0  0  0  0  0  0  0  0  0  0
   37.7795   30.8209   46.5045 H   0  0  0  0  0  0  0  0  0  0  0  0
   38.1380   33.3212   45.3241 H   0  0  0  0  0  0  0  0  0  0  0  0
   38.4701   30.4762   49.3191 H   0  0  0  0  0  0  0  0  0  0  0  0
   38.8119   31.7571   50.5259 H   0  0  0  0  0  0  0  0  0  0  0  0
   36.6488   31.4664   51.0917 H   0  0  0  0  0  0  0  0  0  0  0  0
   36.3556   32.5007   49.6142 H   0  0  0  0  0  0  0  0  0  0  0  0
   34.5269   27.4898   50.0618 H   0  0  0  0  0  0  0  0  0  0  0  0
   35.8739   29.2815   51.1437 H   0  0  0  0  0  0  0  0  0  0  0  0
   34.5608   29.6984   46.4603 H   0  0  0  0  0  0  0  0  0  0  0  0
  1  9  1  0
  2  1  1  0
  3  2  1  0
  4  3  1  0
  4  5  1  0
  5  6  1  0
  6  1  1  0
  7  6  1  0
  8  7  2  0
  9 10  1  0
 10 11  1  0
 12 13  2  0
 14 11  1  0
 14 13  1  0
 15 14  2  0
 16 15  1  0
 16 17  2  0
 17 12  1  0
  1 18  1  1
  2 19  1  0
  2 20  1  0
  3 21  1  0
  3 22  1  0
  4 23  1  0
  4 24  1  0
  5 25  1  0
  5 26  1  0
  6 27  1  1
  7 28  1  0
 10 29  1  0
 10 30  1  0
 11 31  1  0
 11 32  1  0
 12 33  1  0
 13 34  1  0
 16 35  1  0
M  ISO  8  18  13  19  13  20  13  21  13  22  13  23  13  24  13  25  13
M  ISO  8  26  13  27  13  28   6  29   8  30   8  31   8  32   8  33  14
M  ISO  2  34  14  35  14
M  END
>  <minimizedAffinity>  (1) 
-5.26886797

>  <minimizedRMSD>  (1) 
2.86853242

$$$$
