
     RDKit          3D

 29 30  0  0  0  0  0  0  0  0999 V2000
   33.2700   27.3440   48.0500 C   0  0  0  0  0  0  0  0  0  0  0  0
   33.7010   26.3020   47.0690 C   0  0  0  0  0  0  0  0  0  0  0  0
   33.9500   24.9750   47.3390 C   0  0  0  0  0  0  0  0  0  0  0  0
   34.3420   24.1200   46.3290 C   0  0  0  0  0  0  0  0  0  0  0  0
   34.5010   24.5490   45.0200 C   0  0  0  0  0  0  0  0  0  0  0  0
   34.2540   25.8810   44.7370 C   0  0  0  0  0  0  0  0  0  0  0  0
   33.8630   26.7310   45.7450 C   0  0  0  0  0  0  0  0  0  0  0  0
   34.8290   28.3240   49.7240 C   0  0  0  0  0  0  0  0  0  0  0  0
   34.3830   28.1800   48.5250 C   0  0  0  0  0  0  0  0  0  0  0  0
   37.4480   30.2980   51.3450 C   0  0  0  0  0  0  0  0  0  0  0  0
   38.1210   30.8370   50.2280 C   0  0  0  0  0  0  0  0  0  0  0  0
   37.6490   30.5080   48.9410 C   0  0  0  0  0  0  0  0  0  0  0  0
   36.5570   29.6780   48.8460 N   0  0  0  0  0  0  0  0  0  0  0  0
   35.9610   29.1980   49.9570 C   0  0  0  0  0  0  0  0  0  0  0  0
   36.3920   29.4980   51.2010 N   0  0  0  0  0  0  0  0  0  0  0  0
   38.3070   31.0370   47.7520 C   0  0  0  0  0  0  0  0  0  0  0  0
   39.0170   32.0670   47.8730 O   0  0  0  0  0  0  0  0  0  0  0  0
   32.8134   26.8428   48.9162 H   0  0  0  0  0  0  0  0  0  0  0  0
   32.5570   28.0055   47.5361 H   0  0  0  0  0  0  0  0  0  0  0  0
   33.8359   24.5944   48.3647 H   0  0  0  0  0  0  0  0  0  0  0  0
   34.5345   23.0642   46.5702 H   0  0  0  0  0  0  0  0  0  0  0  0
   34.8143   23.8510   44.2296 H   0  0  0  0  0  0  0  0  0  0  0  0
   34.3699   26.2582   43.7102 H   0  0  0  0  0  0  0  0  0  0  0  0
   33.6703   27.7866   45.5029 H   0  0  0  0  0  0  0  0  0  0  0  0
   34.3564   27.7900   50.5616 H   0  0  0  0  0  0  0  0  0  0  0  0
   34.9052   28.7611   47.7506 H   0  0  0  0  0  0  0  0  0  0  0  0
   37.8028   30.5436   52.3568 H   0  0  0  0  0  0  0  0  0  0  0  0
   38.9914   31.4968   50.3581 H   0  0  0  0  0  0  0  0  0  0  0  0
   38.1851   30.5473   46.7746 H   0  0  0  0  0  0  0  0  0  0  0  0
  1  9  1  0
  2  3  2  0
  2  1  1  0
  4  3  1  0
  5  4  2  0
  6  5  1  0
  6  7  2  0
  7  2  1  0
  8 14  1  0
  9  8  2  0
 11 10  2  0
 12 11  1  0
 13 12  2  0
 13 14  1  0
 14 15  2  0
 15 10  1  0
 16 17  2  0
 16 12  1  0
  1 18  1  0
  1 19  1  0
  3 20  1  0
  4 21  1  0
  5 22  1  0
  6 23  1  0
  7 24  1  0
  8 25  1  0
  9 26  1  0
 10 27  1  0
 11 28  1  0
 16 29  1  0
M  ISO  8  18   8  19   8  20  14  21  14  22  14  23  14  24  14  27  14
M  ISO  2  28  14  29   6
M  END
>  <minimizedAffinity>  (1) 
-4.98452473

>  <minimizedRMSD>  (1) 
0.345701486

$$$$
