
     RDKit          3D

 24 25  0  0  0  0  0  0  0  0999 V2000
   37.1190   30.9930   49.0090 C   0  0  0  0  0  0  0  0  0  0  0  0
   36.9040   31.9310   50.0100 C   0  0  0  0  0  0  0  0  0  0  0  0
   37.5660   33.1700   49.9860 C   0  0  0  0  0  0  0  0  0  0  0  0
   38.4520   33.4880   48.9640 C   0  0  0  0  0  0  0  0  0  0  0  0
   38.6520   32.5500   47.9850 C   0  0  0  0  0  0  0  0  0  0  0  0
   37.9950   31.3440   48.0220 C   0  0  0  0  0  0  0  0  0  0  0  0
   38.3030   30.4580   46.9230 C   0  0  0  0  0  0  0  0  0  0  0  0
   37.8610   30.4860   45.7490 O   0  0  0  0  0  0  0  0  0  0  0  0
   36.4260   29.7210   49.0720 C   0  0  0  0  0  0  0  0  0  0  0  0
   36.9840   28.8770   49.8570 O   0  0  0  0  0  0  0  0  0  0  0  0
   33.6260   30.1830   46.8150 C   0  0  0  0  0  0  0  0  0  0  0  0
   32.9550   28.9700   46.8540 C   0  0  0  0  0  0  0  0  0  0  0  0
   33.4560   27.9540   47.6710 C   0  0  0  0  0  0  0  0  0  0  0  0
   34.5940   28.1870   48.4070 N   0  0  0  0  0  0  0  0  0  0  0  0
   35.2100   29.3820   48.3360 C   0  0  0  0  0  0  0  0  0  0  0  0
   34.7270   30.3590   47.5500 N   0  0  0  0  0  0  0  0  0  0  0  0
   36.2081   31.7016   50.8304 H   0  0  0  0  0  0  0  0  0  0  0  0
   37.3801   33.8992   50.7883 H   0  0  0  0  0  0  0  0  0  0  0  0
   38.9734   34.4563   48.9415 H   0  0  0  0  0  0  0  0  0  0  0  0
   39.3468   32.7653   47.1598 H   0  0  0  0  0  0  0  0  0  0  0  0
   39.0192   29.6530   47.1447 H   0  0  0  0  0  0  0  0  0  0  0  0
   33.2518   30.9991   46.1795 H   0  0  0  0  0  0  0  0  0  0  0  0
   32.0469   28.8113   46.2539 H   0  0  0  0  0  0  0  0  0  0  0  0
   32.9470   26.9803   47.7250 H   0  0  0  0  0  0  0  0  0  0  0  0
  1  9  1  0
  1  2  2  0
  3  2  1  0
  4  3  2  0
  5  6  2  0
  5  4  1  0
  6  1  1  0
  7  6  1  0
  8  7  2  0
  9 10  2  0
 11 12  2  0
 11 16  1  0
 12 13  1  0
 13 14  2  0
 15 14  1  0
 15  9  1  0
 16 15  2  0
  2 17  1  0
  3 18  1  0
  4 19  1  0
  5 20  1  0
  7 21  1  0
 11 22  1  0
 12 23  1  0
 13 24  1  0
M  ISO  8  17  14  18  14  19  14  20  14  21   6  22  14  23  14  24  14
M  END
>  <minimizedAffinity>  (1) 
-4.85631323

>  <minimizedRMSD>  (1) 
2.02340412

$$$$
