
     RDKit          3D

 33 35  0  0  1  0  0  0  0  0999 V2000
   37.9160   30.7260   47.2510 C   0  0  1  0  0  0  0  0  0  0  0  0
   36.8580   29.6680   47.5750 C   0  0  2  0  0  0  0  0  0  0  0  0
   35.7600   30.2690   46.7300 C   0  0  0  0  0  0  0  0  0  0  0  0
   36.3610   30.6210   45.5320 O   0  0  0  0  0  0  0  0  0  0  0  0
   37.7030   30.7860   45.7360 C   0  0  0  0  0  0  0  0  0  0  0  0
   36.5530   29.6030   49.0090 C   0  0  0  0  0  0  0  0  0  0  0  0
   37.5880   29.6580   49.9530 C   0  0  0  0  0  0  0  0  0  0  0  0
   37.2340   29.5700   51.3020 C   0  0  0  0  0  0  0  0  0  0  0  0
   35.9100   29.4340   51.6260 N   0  0  0  0  0  0  0  0  0  0  0  0
   34.9240   29.3840   50.6760 C   0  0  0  0  0  0  0  0  0  0  0  0
   35.2630   29.4700   49.3680 N   0  0  0  0  0  0  0  0  0  0  0  0
   37.6000   31.9590   47.7350 O   0  0  0  0  0  0  0  0  0  0  0  0
   38.7710   32.5410   48.2080 C   0  0  1  0  0  0  0  0  0  0  0  0
   39.3810   33.4610   47.1400 C   0  0  0  0  0  0  0  0  0  0  0  0
   40.3330   34.2210   48.0560 C   0  0  0  0  0  0  0  0  0  0  0  0
   39.5870   34.4860   49.1900 O   0  0  0  0  0  0  0  0  0  0  0  0
   38.5750   33.5400   49.2980 C   0  0  0  0  0  0  0  0  0  0  0  0
   38.9139   30.4878   47.6478 H   0  0  0  0  0  0  0  0  0  0  0  0
   37.1035   28.6160   47.3676 H   0  0  0  0  0  0  0  0  0  0  0  0
   34.9618   29.5321   46.5570 H   0  0  0  0  0  0  0  0  0  0  0  0
   35.2963   31.1363   47.2226 H   0  0  0  0  0  0  0  0  0  0  0  0
   38.2658   29.9816   45.2398 H   0  0  0  0  0  0  0  0  0  0  0  0
   38.0572   31.7404   45.3192 H   0  0  0  0  0  0  0  0  0  0  0  0
   38.6381   29.7662   49.6438 H   0  0  0  0  0  0  0  0  0  0  0  0
   38.0029   29.6091   52.0877 H   0  0  0  0  0  0  0  0  0  0  0  0
   33.8702   29.2754   50.9722 H   0  0  0  0  0  0  0  0  0  0  0  0
   39.3627   31.6681   48.5208 H   0  0  0  0  0  0  0  0  0  0  0  0
   38.6315   34.1188   46.6758 H   0  0  0  0  0  0  0  0  0  0  0  0
   39.8334   32.9650   46.2686 H   0  0  0  0  0  0  0  0  0  0  0  0
   41.2097   33.6043   48.3030 H   0  0  0  0  0  0  0  0  0  0  0  0
   40.7207   35.1376   47.5875 H   0  0  0  0  0  0  0  0  0  0  0  0
   37.5943   34.0262   49.1889 H   0  0  0  0  0  0  0  0  0  0  0  0
   38.6095   33.0491   50.2818 H   0  0  0  0  0  0  0  0  0  0  0  0
  1  2  1  0
  1 12  1  0
  2  6  1  0
  3  2  1  0
  4  5  1  0
  4  3  1  0
  5  1  1  0
  6 11  1  0
  6  7  2  0
  7  8  1  0
  8  9  2  0
 10  9  1  0
 11 10  2  0
 13 12  1  0
 13 17  1  0
 14 15  1  0
 14 13  1  0
 15 16  1  0
 16 17  1  0
  1 18  1  6
  2 19  1  6
  3 20  1  0
  3 21  1  0
  5 22  1  0
  5 23  1  0
  7 24  1  0
  8 25  1  0
 10 26  1  0
 13 27  1  1
 14 28  1  0
 14 29  1  0
 15 30  1  0
 15 31  1  0
 17 32  1  0
 17 33  1  0
M  ISO  8  18  13  19  13  20  13  21  13  22  13  23  13  24  14  25  14
M  ISO  8  26  14  27  13  28  13  29  13  30  13  31  13  32  13  33  13
M  END
>  <minimizedAffinity>  (1) 
-3.98150134

>  <minimizedRMSD>  (1) 
1.9577924

$$$$
