
     RDKit          3D

 31 33  0  0  1  0  0  0  0  0999 V2000
   33.9960   29.2510   45.2540 C   0  0  0  0  0  0  0  0  0  0  0  0
   32.6610   28.7780   45.3140 C   0  0  0  0  0  0  0  0  0  0  0  0
   32.1100   28.5100   46.5860 C   0  0  0  0  0  0  0  0  0  0  0  0
   32.8980   28.7260   47.6650 N   0  0  0  0  0  0  0  0  0  0  0  0
   34.1610   29.1770   47.5600 C   0  0  0  0  0  0  0  0  0  0  0  0
   34.7210   29.4430   46.3700 N   0  0  0  0  0  0  0  0  0  0  0  0
   34.9870   29.4030   48.6990 N   0  0  0  0  0  0  0  0  0  0  0  0
   34.7160   28.7410   49.8420 C   0  0  0  0  0  0  0  0  0  0  0  0
   35.5590   29.0140   50.8930 C   0  0  0  0  0  0  0  0  0  0  0  0
   36.6230   29.8990   50.8270 C   0  0  0  0  0  0  0  0  0  0  0  0
   37.3690   30.1250   51.8010 O   0  0  0  0  0  0  0  0  0  0  0  0
   36.8570   30.5500   49.6400 N   0  0  0  0  0  0  0  0  0  0  0  0
   36.0190   30.2650   48.6290 C   0  0  0  0  0  0  0  0  0  0  0  0
   36.2010   30.8450   47.5140 O   0  0  0  0  0  0  0  0  0  0  0  0
   37.9360   31.4880   49.4700 C   0  0  1  0  0  0  0  0  0  0  0  0
   38.4640   31.5640   48.0520 C   0  0  0  0  0  0  0  0  0  0  0  0
   39.1340   32.9280   48.1170 C   0  0  0  0  0  0  0  0  0  0  0  0
   38.3050   33.7240   48.8670 O   0  0  0  0  0  0  0  0  0  0  0  0
   37.5280   32.9130   49.6770 C   0  0  0  0  0  0  0  0  0  0  0  0
   34.4481   29.4654   44.2744 H   0  0  0  0  0  0  0  0  0  0  0  0
   32.0723   28.6245   44.3975 H   0  0  0  0  0  0  0  0  0  0  0  0
   31.0800   28.1399   46.6958 H   0  0  0  0  0  0  0  0  0  0  0  0
   33.8791   28.0323   49.9275 H   0  0  0  0  0  0  0  0  0  0  0  0
   35.3773   28.4971   51.8468 H   0  0  0  0  0  0  0  0  0  0  0  0
   38.6630   31.1093   50.2035 H   0  0  0  0  0  0  0  0  0  0  0  0
   37.6535   31.5381   47.3087 H   0  0  0  0  0  0  0  0  0  0  0  0
   39.1156   30.7323   47.7459 H   0  0  0  0  0  0  0  0  0  0  0  0
   40.1208   32.8461   48.5961 H   0  0  0  0  0  0  0  0  0  0  0  0
   39.2918   33.3465   47.1120 H   0  0  0  0  0  0  0  0  0  0  0  0
   36.4671   33.0354   49.4133 H   0  0  0  0  0  0  0  0  0  0  0  0
   37.6711   33.1924   50.7313 H   0  0  0  0  0  0  0  0  0  0  0  0
  1  2  2  0
  1  6  1  0
  2  3  1  0
  3  4  2  0
  5  4  1  0
  5  7  1  0
  6  5  2  0
  7  8  1  0
  8  9  2  0
 10  9  1  0
 10 11  2  0
 12 10  1  0
 13  7  1  0
 13 12  1  0
 14 13  2  0
 15 12  1  0
 15 19  1  0
 16 17  1  0
 16 15  1  0
 17 18  1  0
 18 19  1  0
  1 20  1  0
  2 21  1  0
  3 22  1  0
  8 23  1  0
  9 24  1  0
 15 25  1  1
 16 26  1  0
 16 27  1  0
 17 28  1  0
 17 29  1  0
 19 30  1  0
 19 31  1  0
M  ISO  8  20  14  21  14  22  14  23  14  24  14  25  13  26  13  27  13
M  ISO  4  28  13  29  13  30  13  31  13
M  END
>  <minimizedAffinity>  (1) 
-5.65294743

>  <minimizedRMSD>  (1) 
6.39599895

$$$$
