
     RDKit          3D

 33 35  0  0  1  0  0  0  0  0999 V2000
   38.7880   32.2950   47.8190 C   0  0  2  0  0  0  0  0  0  0  0  0
   37.9210   32.7110   49.0290 C   0  0  2  0  0  0  0  0  0  0  0  0
   38.9200   33.4510   49.8220 C   0  0  0  0  0  0  0  0  0  0  0  0
   39.6780   34.1750   48.9090 O   0  0  0  0  0  0  0  0  0  0  0  0
   39.5430   33.6220   47.6660 C   0  0  0  0  0  0  0  0  0  0  0  0
   37.2660   29.7120   51.2380 C   0  0  0  0  0  0  0  0  0  0  0  0
   37.9440   30.8170   50.6680 C   0  0  0  0  0  0  0  0  0  0  0  0
   37.2870   31.5830   49.6690 C   0  0  0  0  0  0  0  0  0  0  0  0
   36.0190   31.1910   49.3160 N   0  0  0  0  0  0  0  0  0  0  0  0
   35.4070   30.1450   49.8690 C   0  0  0  0  0  0  0  0  0  0  0  0
   36.0120   29.3960   50.8280 N   0  0  0  0  0  0  0  0  0  0  0  0
   37.9960   32.0540   46.7160 O   0  0  0  0  0  0  0  0  0  0  0  0
   38.0520   30.7880   46.2080 C   0  0  2  0  0  0  0  0  0  0  0  0
   39.4410   30.6650   45.5640 C   0  0  0  0  0  0  0  0  0  0  0  0
   39.1770   29.8750   44.3220 C   0  0  0  0  0  0  0  0  0  0  0  0
   37.8180   29.7270   44.1490 O   0  0  0  0  0  0  0  0  0  0  0  0
   37.1730   30.5730   45.0310 C   0  0  0  0  0  0  0  0  0  0  0  0
   39.3975   31.3860   47.9295 H   0  0  0  0  0  0  0  0  0  0  0  0
   37.0325   33.3210   48.8086 H   0  0  0  0  0  0  0  0  0  0  0  0
   38.4198   34.1311   50.5272 H   0  0  0  0  0  0  0  0  0  0  0  0
   39.5479   32.7691   50.4142 H   0  0  0  0  0  0  0  0  0  0  0  0
   40.5356   33.4389   47.2287 H   0  0  0  0  0  0  0  0  0  0  0  0
   38.9901   34.3028   47.0020 H   0  0  0  0  0  0  0  0  0  0  0  0
   37.7575   29.1083   52.0152 H   0  0  0  0  0  0  0  0  0  0  0  0
   38.9620   31.0774   50.9935 H   0  0  0  0  0  0  0  0  0  0  0  0
   34.3901   29.8819   49.5424 H   0  0  0  0  0  0  0  0  0  0  0  0
   37.7875   30.1031   47.0271 H   0  0  0  0  0  0  0  0  0  0  0  0
   39.8514   31.6561   45.3206 H   0  0  0  0  0  0  0  0  0  0  0  0
   40.1813   30.1914   46.2256 H   0  0  0  0  0  0  0  0  0  0  0  0
   39.6011   30.4029   43.4552 H   0  0  0  0  0  0  0  0  0  0  0  0
   39.6440   28.8832   44.4135 H   0  0  0  0  0  0  0  0  0  0  0  0
   36.9694   31.5358   44.5395 H   0  0  0  0  0  0  0  0  0  0  0  0
   36.2191   30.1277   45.3501 H   0  0  0  0  0  0  0  0  0  0  0  0
  1  2  1  0
  2  8  1  0
  2  3  1  0
  4  3  1  0
  5  1  1  0
  5  4  1  0
  7  6  2  0
  8  7  1  0
  9  8  2  0
  9 10  1  0
 10 11  2  0
 11  6  1  0
 12  1  1  0
 13 12  1  0
 14 13  1  0
 15 14  1  0
 16 15  1  0
 16 17  1  0
 17 13  1  0
  1 18  1  1
  2 19  1  6
  3 20  1  0
  3 21  1  0
  5 22  1  0
  5 23  1  0
  6 24  1  0
  7 25  1  0
 10 26  1  0
 13 27  1  1
 14 28  1  0
 14 29  1  0
 15 30  1  0
 15 31  1  0
 17 32  1  0
 17 33  1  0
M  ISO  8  18  13  19  13  20  13  21  13  22  13  23  13  24  14  25  14
M  ISO  8  26  14  27  13  28  13  29  13  30  13  31  13  32  13  33  13
M  END
>  <minimizedAffinity>  (1) 
-5.13948488

>  <minimizedRMSD>  (1) 
1.9933852

$$$$
