
     RDKit          3D

 42 44  0  0  1  0  0  0  0  0999 V2000
   31.9460   26.7040   48.1960 C   0  0  1  0  0  0  0  0  0  0  0  0
   32.5520   28.0950   48.2970 C   0  0  2  0  0  0  0  0  0  0  0  0
   32.4300   28.7400   46.9640 C   0  0  0  0  0  0  0  0  0  0  0  0
   31.8190   27.9580   46.0170 O   0  0  0  0  0  0  0  0  0  0  0  0
   30.5360   27.5610   46.4080 C   0  0  0  0  0  0  0  0  0  0  0  0
   30.5200   26.8970   47.7580 C   0  0  2  0  0  0  0  0  0  0  0  0
   32.5780   25.9530   47.2060 O   0  0  0  0  0  0  0  0  0  0  0  0
   34.2770   28.0400   48.8390 S   0  0  0  0  0  0  0  0  0  0  0  0
   34.6070   29.3420   50.0410 C   0  0  0  0  0  0  0  0  0  0  0  0
   36.3020   29.4520   50.5580 S   0  0  0  0  0  0  0  0  0  0  0  0
   37.1670   30.6220   49.5180 C   0  0  0  0  0  0  0  0  0  0  0  0
   37.2060   31.9100   50.0180 C   0  0  0  0  0  0  0  0  0  0  0  0
   37.8720   32.8960   49.2530 C   0  0  0  0  0  0  0  0  0  0  0  0
   38.4380   32.5080   48.0610 N   0  0  0  0  0  0  0  0  0  0  0  0
   38.3540   31.2240   47.6420 C   0  0  0  0  0  0  0  0  0  0  0  0
   37.7360   30.3100   48.3530 N   0  0  0  0  0  0  0  0  0  0  0  0
   29.9320   27.7700   48.6890 O   0  0  0  0  0  0  0  0  0  0  0  0
   28.7720   27.2340   49.2290 C   0  0  2  0  0  0  0  0  0  0  0  0
   27.7600   28.3580   49.3070 C   0  0  0  0  0  0  0  0  0  0  0  0
   27.3140   28.3850   50.7510 C   0  0  0  0  0  0  0  0  0  0  0  0
   27.9000   27.2980   51.3830 O   0  0  0  0  0  0  0  0  0  0  0  0
   29.0490   26.9690   50.6990 C   0  0  0  0  0  0  0  0  0  0  0  0
   32.0452   26.1839   49.1602 H   0  0  0  0  0  0  0  0  0  0  0  0
   32.0113   28.6793   49.0561 H   0  0  0  0  0  0  0  0  0  0  0  0
   31.8440   29.6637   47.0796 H   0  0  0  0  0  0  0  0  0  0  0  0
   33.4536   28.9278   46.6078 H   0  0  0  0  0  0  0  0  0  0  0  0
   29.8887   28.4496   46.4452 H   0  0  0  0  0  0  0  0  0  0  0  0
   30.1767   26.8265   45.6721 H   0  0  0  0  0  0  0  0  0  0  0  0
   29.9701   25.9460   47.7006 H   0  0  0  0  0  0  0  0  0  0  0  0
   33.1544   25.2681   47.6288 H   0  0  0  0  0  0  0  0  0  0  0  0
   34.3212   30.3048   49.5922 H   0  0  0  0  0  0  0  0  0  0  0  0
   34.0208   29.0959   50.9386 H   0  0  0  0  0  0  0  0  0  0  0  0
   36.7344   32.1602   50.9797 H   0  0  0  0  0  0  0  0  0  0  0  0
   37.9351   33.9380   49.5998 H   0  0  0  0  0  0  0  0  0  0  0  0
   38.8140   30.9399   46.6840 H   0  0  0  0  0  0  0  0  0  0  0  0
   28.4498   26.3563   48.6495 H   0  0  0  0  0  0  0  0  0  0  0  0
   28.2238   29.3156   49.0279 H   0  0  0  0  0  0  0  0  0  0  0  0
   26.9170   28.2029   48.6175 H   0  0  0  0  0  0  0  0  0  0  0  0
   27.6415   29.3201   51.2289 H   0  0  0  0  0  0  0  0  0  0  0  0
   26.2175   28.3325   50.8215 H   0  0  0  0  0  0  0  0  0  0  0  0
   29.2917   25.9073   50.8538 H   0  0  0  0  0  0  0  0  0  0  0  0
   29.9047   27.5621   51.0539 H   0  0  0  0  0  0  0  0  0  0  0  0
  1  2  1  0
  2  8  1  0
  3  2  1  0
  4  5  1  0
  4  3  1  0
  5  6  1  0
  6  1  1  0
  6 17  1  0
  7  1  1  0
  8  9  1  0
  9 10  1  0
 11 12  2  0
 11 10  1  0
 13 12  1  0
 14 13  2  0
 15 14  1  0
 15 16  2  0
 16 11  1  0
 18 17  1  0
 18 19  1  0
 18 22  1  0
 19 20  1  0
 20 21  1  0
 22 21  1  0
  1 23  1  1
  2 24  1  1
  3 25  1  0
  3 26  1  0
  5 27  1  0
  5 28  1  0
  6 29  1  6
  7 30  1  0
  9 31  1  0
  9 32  1  0
 12 33  1  0
 13 34  1  0
 15 35  1  0
 18 36  1  6
 19 37  1  0
 19 38  1  0
 20 39  1  0
 20 40  1  0
 22 41  1  0
 22 42  1  0
M  ISO  8  23  13  24  13  25  13  26  13  27  13  28  13  29  13  30   3
M  ISO  8  31   8  32   8  33  14  34  14  35  14  36  13  37  13  38  13
M  ISO  4  39  13  40  13  41  13  42  13
M  END
>  <minimizedAffinity>  (1) 
-5.15515423

>  <minimizedRMSD>  (1) 
1.39974797

$$$$
