
     RDKit          3D

 37 39  0  0  1  0  0  0  0  0999 V2000
   35.5280   30.2940   49.7220 C   0  0  0  0  0  0  0  0  0  0  0  0
   36.4590   31.1730   48.9180 C   0  0  0  0  0  0  0  0  0  0  0  0
   37.9040   30.8240   49.1160 C   0  0  0  0  0  0  0  0  0  0  0  0
   38.3170   30.8230   50.5630 C   0  0  0  0  0  0  0  0  0  0  0  0
   37.3190   30.1660   51.4640 C   0  0  0  0  0  0  0  0  0  0  0  0
   36.2270   29.4320   50.7130 C   0  0  0  0  0  0  0  0  0  0  0  0
   34.7620   29.4000   48.8000 C   0  0  0  0  0  0  0  0  0  0  0  0
   34.2390   29.9980   47.6420 C   0  0  0  0  0  0  0  0  0  0  0  0
   33.5140   29.1780   46.7760 C   0  0  0  0  0  0  0  0  0  0  0  0
   33.3460   27.8550   47.0860 N   0  0  0  0  0  0  0  0  0  0  0  0
   33.8720   27.3090   48.2280 C   0  0  0  0  0  0  0  0  0  0  0  0
   34.5690   28.0850   49.0630 N   0  0  0  0  0  0  0  0  0  0  0  0
   32.9040   29.6720   45.5150 C   0  0  2  0  0  0  0  0  0  0  0  0
   33.9520   30.1240   44.5380 C   0  0  0  0  0  0  0  0  0  0  0  0
   33.2310   31.2270   43.8090 C   0  0  0  0  0  0  0  0  0  0  0  0
   32.2670   31.7550   44.6410 O   0  0  0  0  0  0  0  0  0  0  0  0
   32.1300   30.9470   45.7360 C   0  0  0  0  0  0  0  0  0  0  0  0
   34.8692   30.9787   50.2762 H   0  0  0  0  0  0  0  0  0  0  0  0
   36.3052   32.2188   49.2225 H   0  0  0  0  0  0  0  0  0  0  0  0
   36.2239   31.0186   47.8546 H   0  0  0  0  0  0  0  0  0  0  0  0
   38.0824   29.8214   48.7001 H   0  0  0  0  0  0  0  0  0  0  0  0
   38.5008   31.5936   48.6046 H   0  0  0  0  0  0  0  0  0  0  0  0
   39.2736   30.2874   50.6525 H   0  0  0  0  0  0  0  0  0  0  0  0
   38.3984   31.8735   50.8788 H   0  0  0  0  0  0  0  0  0  0  0  0
   37.8480   29.4448   52.1043 H   0  0  0  0  0  0  0  0  0  0  0  0
   36.8344   30.9615   52.0491 H   0  0  0  0  0  0  0  0  0  0  0  0
   35.4885   29.0622   51.4396 H   0  0  0  0  0  0  0  0  0  0  0  0
   36.7023   28.6093   50.1587 H   0  0  0  0  0  0  0  0  0  0  0  0
   34.3939   31.0656   47.4269 H   0  0  0  0  0  0  0  0  0  0  0  0
   33.7218   26.2431   48.4546 H   0  0  0  0  0  0  0  0  0  0  0  0
   32.2899   28.8319   45.1586 H   0  0  0  0  0  0  0  0  0  0  0  0
   34.8462   30.5022   45.0550 H   0  0  0  0  0  0  0  0  0  0  0  0
   34.3267   29.3245   43.8820 H   0  0  0  0  0  0  0  0  0  0  0  0
   33.9469   32.0132   43.5274 H   0  0  0  0  0  0  0  0  0  0  0  0
   32.7601   30.8271   42.8989 H   0  0  0  0  0  0  0  0  0  0  0  0
   31.0665   30.7097   45.8867 H   0  0  0  0  0  0  0  0  0  0  0  0
   32.5181   31.4639   46.6260 H   0  0  0  0  0  0  0  0  0  0  0  0
  1  6  1  0
  2  3  1  0
  2  1  1  0
  3  4  1  0
  4  5  1  0
  6  5  1  0
  7 12  1  0
  7  1  1  0
  8  7  2  0
  9 10  2  0
  9  8  1  0
 10 11  1  0
 11 12  2  0
 13 17  1  0
 13  9  1  0
 14 13  1  0
 15 14  1  0
 15 16  1  0
 16 17  1  0
  1 18  1  0
  2 19  1  0
  2 20  1  0
  3 21  1  0
  3 22  1  0
  4 23  1  0
  4 24  1  0
  5 25  1  0
  5 26  1  0
  6 27  1  0
  6 28  1  0
  8 29  1  0
 11 30  1  0
 13 31  1  6
 14 32  1  0
 14 33  1  0
 15 34  1  0
 15 35  1  0
 17 36  1  0
 17 37  1  0
M  ISO  8  18  13  19  13  20  13  21  13  22  13  23  13  24  13  25  13
M  ISO  8  26  13  27  13  28  13  29  14  30  14  31  13  32  13  33  13
M  ISO  4  34  13  35  13  36  13  37  13
M  END
>  <minimizedAffinity>  (1) 
-5.27924061

>  <minimizedRMSD>  (1) 
0.418236583

$$$$
