
     RDKit          3D

 34 35  0  0  1  0  0  0  0  0999 V2000
   32.8950   28.1490   47.9980 C   0  0  0  0  0  0  0  0  0  0  0  0
   34.8870   28.3720   49.4310 C   0  0  0  0  0  0  0  0  0  0  0  0
   34.0790   28.8380   48.5430 C   0  0  0  0  0  0  0  0  0  0  0  0
   37.3230   30.1840   51.4960 C   0  0  0  0  0  0  0  0  0  0  0  0
   38.1560   30.7660   50.5250 C   0  0  0  0  0  0  0  0  0  0  0  0
   37.8510   30.5140   49.1790 C   0  0  0  0  0  0  0  0  0  0  0  0
   36.7660   29.7220   48.8860 N   0  0  0  0  0  0  0  0  0  0  0  0
   36.0100   29.1960   49.8570 C   0  0  0  0  0  0  0  0  0  0  0  0
   36.2850   29.4240   51.1340 N   0  0  0  0  0  0  0  0  0  0  0  0
   31.9320   27.9150   48.9800 O   0  0  0  0  0  0  0  0  0  0  0  0
   31.4990   25.5890   48.0190 O   0  0  0  0  0  0  0  0  0  0  0  0
   30.7470   26.8840   48.3370 P   0  0  2  0  0  0  0  0  0  0  0  0
   30.1600   27.5790   46.9010 O   0  0  0  0  0  0  0  0  0  0  0  0
   29.4780   26.6310   49.3990 O   0  0  0  0  0  0  0  0  0  0  0  0
   29.2490   27.6220   50.3010 C   0  0  1  0  0  0  0  0  0  0  0  0
   28.5530   28.8330   49.7330 C   0  0  0  0  0  0  0  0  0  0  0  0
   27.1460   28.6530   50.2060 C   0  0  0  0  0  0  0  0  0  0  0  0
   27.0690   27.5150   50.9730 O   0  0  0  0  0  0  0  0  0  0  0  0
   28.3330   27.2340   51.4350 C   0  0  0  0  0  0  0  0  0  0  0  0
   32.4527   28.7732   47.2076 H   0  0  0  0  0  0  0  0  0  0  0  0
   33.2195   27.1763   47.5998 H   0  0  0  0  0  0  0  0  0  0  0  0
   34.7320   27.3708   49.8596 H   0  0  0  0  0  0  0  0  0  0  0  0
   34.2923   29.8448   48.1546 H   0  0  0  0  0  0  0  0  0  0  0  0
   37.5272   30.3555   52.5632 H   0  0  0  0  0  0  0  0  0  0  0  0
   39.0131   31.3942   50.8092 H   0  0  0  0  0  0  0  0  0  0  0  0
   38.4674   30.9414   48.3744 H   0  0  0  0  0  0  0  0  0  0  0  0
   29.5373   28.3163   47.1217 H   0  0  0  0  0  0  0  0  0  0  0  0
   30.2775   27.8311   50.6305 H   0  0  0  0  0  0  0  0  0  0  0  0
   28.6044   28.8415   48.6342 H   0  0  0  0  0  0  0  0  0  0  0  0
   29.0028   29.7851   50.0510 H   0  0  0  0  0  0  0  0  0  0  0  0
   26.8461   29.5234   50.8080 H   0  0  0  0  0  0  0  0  0  0  0  0
   26.4740   28.5611   49.3400 H   0  0  0  0  0  0  0  0  0  0  0  0
   28.4328   26.1631   51.6655 H   0  0  0  0  0  0  0  0  0  0  0  0
   28.5671   27.7753   52.3635 H   0  0  0  0  0  0  0  0  0  0  0  0
  1  3  1  0
  1 10  1  0
  2  8  1  0
  3  2  2  0
  5  4  2  0
  6  5  1  0
  7  6  2  0
  7  8  1  0
  8  9  2  0
  9  4  1  0
 12 11  2  0
 12 10  1  0
 12 14  1  0
 13 12  1  0
 15 14  1  0
 15 19  1  0
 16 17  1  0
 16 15  1  0
 17 18  1  0
 18 19  1  0
  1 20  1  0
  1 21  1  0
  2 22  1  0
  3 23  1  0
  4 24  1  0
  5 25  1  0
  6 26  1  0
 13 27  1  0
 15 28  1  1
 16 29  1  0
 16 30  1  0
 17 31  1  0
 17 32  1  0
 19 33  1  0
 19 34  1  0
M  ISO  8  20   8  21   8  24  14  25  14  26  14  27   3  28  13  29  13
M  ISO  5  30  13  31  13  32  13  33  13  34  13
M  END
>  <minimizedAffinity>  (1) 
-5.33683729

>  <minimizedRMSD>  (1) 
2.55798006

$$$$
