
     RDKit          3D

 38 41  0  0  1  0  0  0  0  0999 V2000
   38.9190   30.8910   45.7740 C   0  0  0  0  0  0  0  0  0  0  0  0
   40.1140   31.5110   46.0280 C   0  0  0  0  0  0  0  0  0  0  0  0
   40.9430   31.4500   44.9130 C   0  0  0  0  0  0  0  0  0  0  0  0
   40.1930   30.7790   44.0100 N   0  0  0  0  0  0  0  0  0  0  0  0
   39.0110   30.4480   44.5000 N   0  0  0  0  0  0  0  0  0  0  0  0
   37.7980   30.7450   46.6810 C   0  0  0  0  0  0  0  0  0  0  0  0
   38.0160   30.9730   48.0660 C   0  0  0  0  0  0  0  0  0  0  0  0
   36.9340   30.8300   48.9240 C   0  0  0  0  0  0  0  0  0  0  0  0
   35.7260   30.4810   48.3890 N   0  0  0  0  0  0  0  0  0  0  0  0
   35.5410   30.2690   47.0640 C   0  0  0  0  0  0  0  0  0  0  0  0
   36.5840   30.4030   46.2200 N   0  0  0  0  0  0  0  0  0  0  0  0
   37.1350   31.0640   50.3750 C   0  0  0  0  0  0  0  0  0  0  0  0
   36.6020   32.3040   50.6290 F   0  0  0  0  0  0  0  0  0  0  0  0
   36.4710   30.1330   51.1600 F   0  0  0  0  0  0  0  0  0  0  0  0
   38.4890   31.0730   50.7100 F   0  0  0  0  0  0  0  0  0  0  0  0
   40.5420   30.4110   42.6390 C   0  0  0  0  0  0  0  0  0  0  0  0
   40.2110   31.2430   41.5540 C   0  0  0  0  0  0  0  0  0  0  0  0
   40.5600   30.8530   40.2950 C   0  0  0  0  0  0  0  0  0  0  0  0
   41.2450   29.6200   40.1150 C   0  0  0  0  0  0  0  0  0  0  0  0
   41.3980   28.9870   41.8530 S   0  0  0  0  0  0  0  0  0  0  0  0
   41.7920   28.8090   39.1070 C   0  0  1  0  0  0  0  0  0  0  0  0
   41.2850   27.4020   39.2290 C   0  0  0  0  0  0  0  0  0  0  0  0
   40.0660   27.3950   38.3680 C   0  0  0  0  0  0  0  0  0  0  0  0
   39.9090   28.6750   37.8570 O   0  0  0  0  0  0  0  0  0  0  0  0
   41.1570   29.2480   37.7830 C   0  0  0  0  0  0  0  0  0  0  0  0
   40.3807   31.9905   46.9814 H   0  0  0  0  0  0  0  0  0  0  0  0
   41.9608   31.8501   44.7946 H   0  0  0  0  0  0  0  0  0  0  0  0
   39.0093   31.2536   48.4462 H   0  0  0  0  0  0  0  0  0  0  0  0
   34.5487   29.9900   46.6799 H   0  0  0  0  0  0  0  0  0  0  0  0
   39.6797   32.1920   41.7185 H   0  0  0  0  0  0  0  0  0  0  0  0
   40.3145   31.4848   39.4286 H   0  0  0  0  0  0  0  0  0  0  0  0
   42.8879   28.8799   39.1694 H   0  0  0  0  0  0  0  0  0  0  0  0
   42.0307   26.6821   38.8607 H   0  0  0  0  0  0  0  0  0  0  0  0
   41.0766   27.1104   40.2690 H   0  0  0  0  0  0  0  0  0  0  0  0
   40.1911   26.6751   37.5458 H   0  0  0  0  0  0  0  0  0  0  0  0
   39.1814   27.0995   38.9513 H   0  0  0  0  0  0  0  0  0  0  0  0
   41.7227   28.8626   36.9219 H   0  0  0  0  0  0  0  0  0  0  0  0
   41.1351   30.3389   37.6433 H   0  0  0  0  0  0  0  0  0  0  0  0
  1  2  1  0
  1  6  1  0
  3  2  2  0
  4  5  1  0
  4  3  1  0
  5  1  2  0
  6  7  2  0
  7  8  1  0
  8 12  1  0
  9  8  2  0
 10  9  1  0
 11  6  1  0
 11 10  2  0
 12 13  1  0
 12 15  1  0
 12 14  1  0
 16  4  1  0
 17 16  2  0
 18 17  1  0
 19 18  2  0
 19 20  1  0
 20 16  1  0
 21 22  1  0
 21 19  1  0
 23 22  1  0
 24 23  1  0
 25 24  1  0
 25 21  1  0
  2 26  1  0
  3 27  1  0
  7 28  1  0
 10 29  1  0
 17 30  1  0
 18 31  1  0
 21 32  1  6
 22 33  1  0
 22 34  1  0
 23 35  1  0
 23 36  1  0
 25 37  1  0
 25 38  1  0
M  ISO  8  26  14  27  14  28  14  29  14  30  14  31  14  32  13  33  13
M  ISO  5  34  13  35  13  36  13  37  13  38  13
M  END
>  <minimizedAffinity>  (1) 
-6.14340973

>  <minimizedRMSD>  (1) 
0.591085911

$$$$
