
     RDKit          3D

 28 30  0  0  1  0  0  0  0  0999 V2000
   39.8390   31.8890   46.4590 C   0  0  2  0  0  0  0  0  0  0  0  0
   39.8600   33.0300   45.5480 C   0  0  0  0  0  0  0  0  0  0  0  0
   39.3240   31.7100   45.0730 C   0  0  2  0  0  0  0  0  0  0  0  0
   37.6350   32.7060   49.3670 C   0  0  0  0  0  0  0  0  0  0  0  0
   37.0140   31.4710   49.5880 C   0  0  0  0  0  0  0  0  0  0  0  0
   37.3430   30.3710   48.7450 C   0  0  0  0  0  0  0  0  0  0  0  0
   38.2570   30.5710   47.7520 N   0  0  0  0  0  0  0  0  0  0  0  0
   38.8350   31.7730   47.5680 C   0  0  0  0  0  0  0  0  0  0  0  0
   38.5410   32.8410   48.3560 N   0  0  0  0  0  0  0  0  0  0  0  0
   37.5230   31.5420   44.8810 S   0  0  0  0  0  0  0  0  0  0  0  0
   34.7460   30.2820   45.3720 Cl  0  0  0  0  0  0  0  0  0  0  0  0
   35.8880   29.5250   44.2600 C   0  0  0  0  0  0  0  0  0  0  0  0
   37.1470   30.0510   44.0050 C   0  0  0  0  0  0  0  0  0  0  0  0
   38.0100   29.4290   43.1290 C   0  0  0  0  0  0  0  0  0  0  0  0
   37.5590   28.2590   42.5210 C   0  0  0  0  0  0  0  0  0  0  0  0
   36.3030   27.7360   42.7770 C   0  0  0  0  0  0  0  0  0  0  0  0
   35.4490   28.3560   43.6460 C   0  0  0  0  0  0  0  0  0  0  0  0
   33.8620   27.6930   43.9700 Cl  0  0  0  0  0  0  0  0  0  0  0  0
   40.6159   31.4356   47.0921 H   0  0  0  0  0  0  0  0  0  0  0  0
   39.1743   33.8747   45.7102 H   0  0  0  0  0  0  0  0  0  0  0  0
   40.6351   33.7254   45.1935 H   0  0  0  0  0  0  0  0  0  0  0  0
   39.5368   31.0387   44.2280 H   0  0  0  0  0  0  0  0  0  0  0  0
   37.3927   33.5666   50.0078 H   0  0  0  0  0  0  0  0  0  0  0  0
   36.2826   31.3518   50.4009 H   0  0  0  0  0  0  0  0  0  0  0  0
   36.8730   29.3872   48.8906 H   0  0  0  0  0  0  0  0  0  0  0  0
   39.0095   29.8375   42.9192 H   0  0  0  0  0  0  0  0  0  0  0  0
   38.2212   27.7350   41.8161 H   0  0  0  0  0  0  0  0  0  0  0  0
   35.9881   26.8095   42.2746 H   0  0  0  0  0  0  0  0  0  0  0  0
  1  8  1  0
  2  1  1  0
  3  2  1  0
  3  1  1  0
  4  5  2  0
  6  5  1  0
  7  6  2  0
  8  7  1  0
  8  9  2  0
  9  4  1  0
 10  3  1  0
 12 11  1  0
 13 12  2  0
 13 10  1  0
 14 13  1  0
 15 16  1  0
 15 14  2  0
 16 17  2  0
 17 18  1  0
 17 12  1  0
  1 19  1  1
  2 20  1  0
  2 21  1  0
  3 22  1  6
  4 23  1  0
  5 24  1  0
  6 25  1  0
 14 26  1  0
 15 27  1  0
 16 28  1  0
M  ISO  8  19  13  20  13  21  13  22  13  23  14  24  14  25  14  26  14
M  ISO  2  27  14  28  14
M  END
>  <minimizedAffinity>  (1) 
-4.24588156

>  <minimizedRMSD>  (1) 
7.08209085

$$$$
