
     RDKit          3D

 34 36  0  0  0  0  0  0  0  0999 V2000
   37.7500   30.0810   49.7300 C   0  0  0  0  0  0  0  0  0  0  0  0
   37.6680   30.9300   48.6080 C   0  0  0  0  0  0  0  0  0  0  0  0
   36.4280   31.1030   48.0100 C   0  0  0  0  0  0  0  0  0  0  0  0
   35.3680   30.4430   48.5450 N   0  0  0  0  0  0  0  0  0  0  0  0
   35.4910   29.6590   49.5970 C   0  0  0  0  0  0  0  0  0  0  0  0
   36.6890   29.4380   50.2430 N   0  0  0  0  0  0  0  0  0  0  0  0
   38.8440   31.5030   48.2210 O   0  0  0  0  0  0  0  0  0  0  0  0
   39.1810   31.4490   46.8640 C   0  0  0  0  0  0  0  0  0  0  0  0
   39.2020   30.3580   46.0550 C   0  0  0  0  0  0  0  0  0  0  0  0
   39.5570   30.4830   44.7500 C   0  0  0  0  0  0  0  0  0  0  0  0
   39.8910   31.7280   44.2680 C   0  0  0  0  0  0  0  0  0  0  0  0
   39.8680   32.8320   45.0970 C   0  0  0  0  0  0  0  0  0  0  0  0
   39.5050   32.6550   46.4010 N   0  0  0  0  0  0  0  0  0  0  0  0
   40.2350   34.2000   44.5720 C   0  0  0  0  0  0  0  0  0  0  0  0
   33.9030   28.9260   50.0870 S   0  0  0  0  0  0  0  0  0  0  0  0
   30.7740   28.2760   49.8160 Cl  0  0  0  0  0  0  0  0  0  0  0  0
   31.8910   27.6190   48.6620 C   0  0  0  0  0  0  0  0  0  0  0  0
   33.2270   27.9140   48.8030 C   0  0  0  0  0  0  0  0  0  0  0  0
   34.1420   27.4090   47.9040 C   0  0  0  0  0  0  0  0  0  0  0  0
   33.6520   26.6020   46.8710 C   0  0  0  0  0  0  0  0  0  0  0  0
   32.3180   26.3150   46.7400 C   0  0  0  0  0  0  0  0  0  0  0  0
   31.3940   26.8160   47.6340 C   0  0  0  0  0  0  0  0  0  0  0  0
   29.6820   26.4960   47.5340 Cl  0  0  0  0  0  0  0  0  0  0  0  0
   38.7303   29.9384   50.2083 H   0  0  0  0  0  0  0  0  0  0  0  0
   36.3072   31.7535   47.1312 H   0  0  0  0  0  0  0  0  0  0  0  0
   38.9308   29.3710   46.4578 H   0  0  0  0  0  0  0  0  0  0  0  0
   39.5772   29.6037   44.0893 H   0  0  0  0  0  0  0  0  0  0  0  0
   40.1789   31.8447   43.2128 H   0  0  0  0  0  0  0  0  0  0  0  0
   40.4175   34.8802   45.4170 H   0  0  0  0  0  0  0  0  0  0  0  0
   41.1449   34.1253   43.9583 H   0  0  0  0  0  0  0  0  0  0  0  0
   39.4099   34.5907   43.9583 H   0  0  0  0  0  0  0  0  0  0  0  0
   35.2154   27.6317   47.9951 H   0  0  0  0  0  0  0  0  0  0  0  0
   34.3604   26.1844   46.1404 H   0  0  0  0  0  0  0  0  0  0  0  0
   31.9794   25.6765   45.9107 H   0  0  0  0  0  0  0  0  0  0  0  0
  1  6  2  0
  2  1  1  0
  3  4  1  0
  3  2  2  0
  4  5  2  0
  5 15  1  0
  5  6  1  0
  7  2  1  0
  8  7  1  0
  9  8  2  0
 10  9  1  0
 11 10  2  0
 11 12  1  0
 12 13  2  0
 13  8  1  0
 14 12  1  0
 17 18  2  0
 17 16  1  0
 18 15  1  0
 19 18  1  0
 20 19  2  0
 21 20  1  0
 21 22  2  0
 22 17  1  0
 23 22  1  0
  1 24  1  0
  3 25  1  0
  9 26  1  0
 10 27  1  0
 11 28  1  0
 14 29  1  0
 14 30  1  0
 14 31  1  0
 19 32  1  0
 20 33  1  0
 21 34  1  0
M  ISO  8  24  14  25  14  26  14  27  14  28  14  29   8  30   8  31   8
M  ISO  3  32  14  33  14  34  14
M  END
>  <minimizedAffinity>  (1) 
-5.1782012

>  <minimizedRMSD>  (1) 
1.980039

$$$$
