
     RDKit          3D

 42 45  0  0  1  0  0  0  0  0999 V2000
   38.9230   31.0710   43.6130 C   0  0  0  0  0  0  0  0  0  0  0  0
   40.0680   30.3260   43.6490 C   0  0  0  0  0  0  0  0  0  0  0  0
   40.7980   30.2120   42.4780 C   0  0  0  0  0  0  0  0  0  0  0  0
   40.3320   30.8510   41.3560 C   0  0  0  0  0  0  0  0  0  0  0  0
   39.1750   31.6050   41.3150 C   0  0  0  0  0  0  0  0  0  0  0  0
   38.5160   31.6770   42.4770 N   0  0  0  0  0  0  0  0  0  0  0  0
   38.1260   31.2110   44.8470 C   0  0  0  0  0  0  0  0  0  0  0  0
   37.1010   30.5150   45.0390 O   0  0  0  0  0  0  0  0  0  0  0  0
   38.5610   32.1800   45.8350 N   0  0  0  0  0  0  0  0  0  0  0  0
   38.6190   31.3190   48.1610 C   0  0  2  0  0  0  0  0  0  0  0  0
   38.8410   32.7860   48.2390 C   0  0  0  0  0  0  0  0  0  0  0  0
   37.9770   32.0920   47.1490 C   0  0  1  0  0  0  0  0  0  0  0  0
   36.0270   29.1400   49.7070 C   0  0  0  0  0  0  0  0  0  0  0  0
   36.2870   29.3330   51.1000 C   0  0  0  0  0  0  0  0  0  0  0  0
   37.3550   30.2260   51.4810 C   0  0  0  0  0  0  0  0  0  0  0  0
   38.0820   30.8570   50.5050 N   0  0  0  0  0  0  0  0  0  0  0  0
   37.7790   30.6260   49.2100 C   0  0  0  0  0  0  0  0  0  0  0  0
   36.7650   29.7790   48.7780 N   0  0  0  0  0  0  0  0  0  0  0  0
   38.7370   32.2580   40.0870 C   0  0  0  0  0  0  0  0  0  0  0  0
   39.5830   32.3770   39.1450 O   0  0  0  0  0  0  0  0  0  0  0  0
   36.8200   30.1450   39.1830 Cl  0  0  0  0  0  0  0  0  0  0  0  0
   36.4930   31.8450   39.4050 C   0  0  0  0  0  0  0  0  0  0  0  0
   37.4110   32.7920   39.8260 C   0  0  0  0  0  0  0  0  0  0  0  0
   37.0710   34.1200   39.9750 C   0  0  0  0  0  0  0  0  0  0  0  0
   35.7690   34.4700   39.6850 C   0  0  0  0  0  0  0  0  0  0  0  0
   34.8180   33.5680   39.2640 C   0  0  0  0  0  0  0  0  0  0  0  0
   35.1860   32.2380   39.1220 C   0  0  0  0  0  0  0  0  0  0  0  0
   33.9470   31.1290   38.5840 Cl  0  0  0  0  0  0  0  0  0  0  0  0
   40.3982   29.8341   44.5758 H   0  0  0  0  0  0  0  0  0  0  0  0
   41.7275   29.6245   42.4476 H   0  0  0  0  0  0  0  0  0  0  0  0
   40.9176   30.7566   40.4296 H   0  0  0  0  0  0  0  0  0  0  0  0
   39.2592   32.9018   45.6063 H   0  0  0  0  0  0  0  0  0  0  0  0
   39.3056   30.4601   48.1316 H   0  0  0  0  0  0  0  0  0  0  0  0
   38.3689   33.3834   49.0329 H   0  0  0  0  0  0  0  0  0  0  0  0
   39.7060   33.4652   48.2634 H   0  0  0  0  0  0  0  0  0  0  0  0
   36.9401   32.1173   46.7826 H   0  0  0  0  0  0  0  0  0  0  0  0
   35.2182   28.4646   49.3914 H   0  0  0  0  0  0  0  0  0  0  0  0
   35.6878   28.8136   51.8623 H   0  0  0  0  0  0  0  0  0  0  0  0
   37.5832   30.3984   52.5432 H   0  0  0  0  0  0  0  0  0  0  0  0
   37.8056   34.8670   40.3103 H   0  0  0  0  0  0  0  0  0  0  0  0
   35.4752   35.5242   39.7958 H   0  0  0  0  0  0  0  0  0  0  0  0
   33.7905   33.8942   39.0453 H   0  0  0  0  0  0  0  0  0  0  0  0
  1  2  2  0
  1  7  1  0
  3  2  1  0
  4  3  2  0
  5  4  1  0
  5  6  2  0
  6  1  1  0
  7  8  2  0
  7  9  1  0
  9 12  1  0
 10 11  1  0
 10 17  1  0
 12 10  1  0
 12 11  1  0
 13 14  2  0
 14 15  1  0
 16 15  2  0
 17 16  1  0
 18 17  2  0
 18 13  1  0
 19  5  1  0
 20 19  2  0
 21 22  1  0
 22 23  2  0
 23 24  1  0
 23 19  1  0
 25 24  2  0
 26 25  1  0
 27 26  2  0
 27 22  1  0
 28 27  1  0
  2 29  1  0
  3 30  1  0
  4 31  1  0
  9 32  1  0
 10 33  1  6
 11 34  1  0
 11 35  1  0
 12 36  1  6
 13 37  1  0
 14 38  1  0
 15 39  1  0
 24 40  1  0
 25 41  1  0
 26 42  1  0
M  ISO  8  29  14  30  14  31  14  33  13  34  13  35  13  36  13  37  14
M  ISO  5  38  14  39  14  40  14  41  14  42  14
M  END
>  <minimizedAffinity>  (1) 
-5.37894249

>  <minimizedRMSD>  (1) 
2.83040738

$$$$
