
     RDKit          3D

 38 41  0  0  1  0  0  0  0  0999 V2000
   33.0180   27.7080   48.3810 C   0  0  0  0  0  0  0  0  0  0  0  0
   31.8640   27.4950   48.8710 O   0  0  0  0  0  0  0  0  0  0  0  0
   35.9030   29.2260   49.8530 C   0  0  0  0  0  0  0  0  0  0  0  0
   34.9450   29.7230   50.7070 C   0  0  0  0  0  0  0  0  0  0  0  0
   33.7040   29.2260   50.2820 C   0  0  0  0  0  0  0  0  0  0  0  0
   33.9920   28.4490   49.1800 C   0  0  0  0  0  0  0  0  0  0  0  0
   35.2900   28.4790   48.9670 O   0  0  0  0  0  0  0  0  0  0  0  0
   37.3170   29.5380   49.9990 C   0  0  0  0  0  0  0  0  0  0  0  0
   37.9940   28.9050   50.8200 O   0  0  0  0  0  0  0  0  0  0  0  0
   37.8430   30.5840   49.1670 C   0  0  0  0  0  0  0  0  0  0  0  0
   38.2020   31.7660   49.7870 C   0  0  0  0  0  0  0  0  0  0  0  0
   38.7150   32.8060   49.0070 C   0  0  0  0  0  0  0  0  0  0  0  0
   38.8350   32.5940   47.6560 N   0  0  0  0  0  0  0  0  0  0  0  0
   38.4790   31.4400   47.0870 C   0  0  0  0  0  0  0  0  0  0  0  0
   37.9860   30.4380   47.8300 N   0  0  0  0  0  0  0  0  0  0  0  0
   33.3870   27.2090   47.0140 C   0  0  1  0  0  0  0  0  0  0  0  0
   33.1120   25.6600   46.9310 C   0  0  0  0  0  0  0  0  0  0  0  0
   32.3780   26.6520   46.1110 C   0  0  1  0  0  0  0  0  0  0  0  0
   31.7400   29.3120   45.0180 Cl  0  0  0  0  0  0  0  0  0  0  0  0
   30.6190   28.2840   45.9200 C   0  0  0  0  0  0  0  0  0  0  0  0
   30.9790   27.0250   46.4170 C   0  0  0  0  0  0  0  0  0  0  0  0
   29.9990   26.3320   47.1040 C   0  0  0  0  0  0  0  0  0  0  0  0
   28.7550   26.8590   47.2770 C   0  0  0  0  0  0  0  0  0  0  0  0
   28.4010   28.0990   46.7860 C   0  0  0  0  0  0  0  0  0  0  0  0
   29.3610   28.8130   46.0970 C   0  0  0  0  0  0  0  0  0  0  0  0
   28.9020   30.3870   45.4770 Cl  0  0  0  0  0  0  0  0  0  0  0  0
   35.1203   30.3881   51.5655 H   0  0  0  0  0  0  0  0  0  0  0  0
   32.7172   29.4148   50.7298 H   0  0  0  0  0  0  0  0  0  0  0  0
   38.0861   31.8859   50.8743 H   0  0  0  0  0  0  0  0  0  0  0  0
   39.0128   33.7628   49.4606 H   0  0  0  0  0  0  0  0  0  0  0  0
   38.5908   31.3099   46.0005 H   0  0  0  0  0  0  0  0  0  0  0  0
   34.1827   27.9486   46.8411 H   0  0  0  0  0  0  0  0  0  0  0  0
   33.8476   24.9870   46.4662 H   0  0  0  0  0  0  0  0  0  0  0  0
   32.8452   24.8616   47.6391 H   0  0  0  0  0  0  0  0  0  0  0  0
   32.1898   26.6812   45.0276 H   0  0  0  0  0  0  0  0  0  0  0  0
   30.2280   25.3388   47.5176 H   0  0  0  0  0  0  0  0  0  0  0  0
   28.0044   26.2742   47.8288 H   0  0  0  0  0  0  0  0  0  0  0  0
   27.3898   28.5043   46.9381 H   0  0  0  0  0  0  0  0  0  0  0  0
  1  2  2  0
  1  6  1  0
  3  8  1  0
  3  4  2  0
  5  4  1  0
  6  5  2  0
  7  6  1  0
  7  3  1  0
  8  9  2  0
 10 11  2  0
 10  8  1  0
 12 11  1  0
 13 12  2  0
 14 13  1  0
 14 15  2  0
 15 10  1  0
 16  1  1  0
 17 16  1  0
 18 21  1  0
 18 17  1  0
 18 16  1  0
 19 20  1  0
 20 25  2  0
 20 21  1  0
 21 22  2  0
 22 23  1  0
 24 23  2  0
 25 24  1  0
 26 25  1  0
  4 27  1  0
  5 28  1  0
 11 29  1  0
 12 30  1  0
 14 31  1  0
 16 32  1  6
 17 33  1  0
 17 34  1  0
 18 35  1  6
 22 36  1  0
 23 37  1  0
 24 38  1  0
M  ISO  8  27  14  28  14  29  14  30  14  31  14  32  13  33  13  34  13
M  ISO  4  35  13  36  14  37  14  38  14
M  END
>  <minimizedAffinity>  (1) 
-5.52590418

>  <minimizedRMSD>  (1) 
0.940635622

$$$$
