
     RDKit          3D

 28 30  0  0  1  0  0  0  0  0999 V2000
   36.6460   30.4000   50.3740 C   0  0  1  0  0  0  0  0  0  0  0  0
   35.7760   29.2590   50.2100 C   0  0  2  0  0  0  0  0  0  0  0  0
   37.2070   28.9990   50.6220 C   0  0  0  0  0  0  0  0  0  0  0  0
   37.2860   31.0780   49.1860 C   0  0  0  0  0  0  0  0  0  0  0  0
   38.2200   32.0880   49.4680 C   0  0  0  0  0  0  0  0  0  0  0  0
   38.7670   32.7040   48.3590 C   0  0  0  0  0  0  0  0  0  0  0  0
   38.4060   32.3350   47.0990 N   0  0  0  0  0  0  0  0  0  0  0  0
   37.5030   31.3580   46.8680 C   0  0  0  0  0  0  0  0  0  0  0  0
   36.9290   30.7130   47.9270 N   0  0  0  0  0  0  0  0  0  0  0  0
   35.4370   28.8340   48.9170 O   0  0  0  0  0  0  0  0  0  0  0  0
   33.1670   29.6640   50.5290 Cl  0  0  0  0  0  0  0  0  0  0  0  0
   33.1830   28.4350   49.2830 C   0  0  0  0  0  0  0  0  0  0  0  0
   34.3330   28.1050   48.5570 C   0  0  0  0  0  0  0  0  0  0  0  0
   34.2590   27.1250   47.5940 C   0  0  0  0  0  0  0  0  0  0  0  0
   33.1030   26.4380   47.2960 C   0  0  0  0  0  0  0  0  0  0  0  0
   31.9720   26.7900   48.0360 C   0  0  0  0  0  0  0  0  0  0  0  0
   32.0040   27.7610   49.0060 C   0  0  0  0  0  0  0  0  0  0  0  0
   30.5510   28.1730   49.9160 Cl  0  0  0  0  0  0  0  0  0  0  0  0
   36.5052   31.3408   50.9263 H   0  0  0  0  0  0  0  0  0  0  0  0
   34.7825   29.0196   50.6171 H   0  0  0  0  0  0  0  0  0  0  0  0
   37.9192   28.5489   49.9148 H   0  0  0  0  0  0  0  0  0  0  0  0
   37.7167   28.4794   51.4468 H   0  0  0  0  0  0  0  0  0  0  0  0
   38.4956   32.3679   50.4955 H   0  0  0  0  0  0  0  0  0  0  0  0
   39.5069   33.5063   48.4962 H   0  0  0  0  0  0  0  0  0  0  0  0
   37.2322   31.0841   45.8376 H   0  0  0  0  0  0  0  0  0  0  0  0
   35.1716   26.8770   47.0322 H   0  0  0  0  0  0  0  0  0  0  0  0
   33.0724   25.6581   46.5209 H   0  0  0  0  0  0  0  0  0  0  0  0
   31.0230   26.2714   47.8347 H   0  0  0  0  0  0  0  0  0  0  0  0
  1  3  1  0
  2  1  1  0
  2  3  1  0
  4  5  2  0
  4  1  1  0
  6  5  1  0
  7  6  2  0
  8  7  1  0
  8  9  2  0
  9  4  1  0
 10  2  1  0
 12 11  1  0
 13 10  1  0
 13 12  2  0
 14 13  1  0
 15 14  2  0
 15 16  1  0
 16 17  2  0
 17 12  1  0
 17 18  1  0
  1 19  1  1
  2 20  1  1
  3 21  1  0
  3 22  1  0
  5 23  1  0
  6 24  1  0
  8 25  1  0
 14 26  1  0
 15 27  1  0
 16 28  1  0
M  ISO  8  19  13  20  13  21  13  22  13  23  14  24  14  25  14  26  14
M  ISO  2  27  14  28  14
M  END
>  <minimizedAffinity>  (1) 
-5.02521992

>  <minimizedRMSD>  (1) 
1.35462189

$$$$
