
     RDKit          3D

 40 43  0  0  1  0  0  0  0  0999 V2000
   37.9350   31.5800   45.0540 C   0  0  0  0  0  0  0  0  0  0  0  0
   36.9090   30.8770   45.2710 O   0  0  0  0  0  0  0  0  0  0  0  0
   38.4380   32.4650   46.0670 N   0  0  0  0  0  0  0  0  0  0  0  0
   38.6500   31.5180   43.7620 C   0  0  0  0  0  0  0  0  0  0  0  0
   39.8800   30.9190   43.7210 C   0  0  0  0  0  0  0  0  0  0  0  0
   40.5200   30.8780   42.4930 C   0  0  0  0  0  0  0  0  0  0  0  0
   39.9040   31.4240   41.4110 C   0  0  0  0  0  0  0  0  0  0  0  0
   38.6610   32.0300   41.4430 C   0  0  0  0  0  0  0  0  0  0  0  0
   38.0900   32.0410   42.6540 N   0  0  0  0  0  0  0  0  0  0  0  0
   36.8580   30.1670   40.0680 Cl  0  0  0  0  0  0  0  0  0  0  0  0
   37.1460   31.8340   39.5580 C   0  0  0  0  0  0  0  0  0  0  0  0
   38.0120   32.6110   40.2820 C   0  0  0  0  0  0  0  0  0  0  0  0
   38.2100   33.8880   39.8640 C   0  0  0  0  0  0  0  0  0  0  0  0
   37.5630   34.3970   38.7450 C   0  0  0  0  0  0  0  0  0  0  0  0
   36.7010   33.5670   38.0560 C   0  0  0  0  0  0  0  0  0  0  0  0
   36.4660   32.2640   38.4390 C   0  0  0  0  0  0  0  0  0  0  0  0
   35.3730   31.1820   37.5810 Cl  0  0  0  0  0  0  0  0  0  0  0  0
   38.5770   31.4360   48.3310 C   0  0  2  0  0  0  0  0  0  0  0  0
   38.8630   32.8700   48.5010 C   0  0  0  0  0  0  0  0  0  0  0  0
   37.9090   32.3180   47.4090 C   0  0  1  0  0  0  0  0  0  0  0  0
   36.0720   29.1490   49.8100 C   0  0  0  0  0  0  0  0  0  0  0  0
   36.3200   29.2840   51.2040 C   0  0  0  0  0  0  0  0  0  0  0  0
   37.3620   30.1840   51.6080 C   0  0  0  0  0  0  0  0  0  0  0  0
   38.0660   30.8660   50.6580 N   0  0  0  0  0  0  0  0  0  0  0  0
   37.7630   30.6790   49.3350 C   0  0  0  0  0  0  0  0  0  0  0  0
   36.7750   29.8300   48.8770 N   0  0  0  0  0  0  0  0  0  0  0  0
   39.1484   33.1780   45.8483 H   0  0  0  0  0  0  0  0  0  0  0  0
   40.3399   30.4892   44.6231 H   0  0  0  0  0  0  0  0  0  0  0  0
   41.5111   30.4110   42.3949 H   0  0  0  0  0  0  0  0  0  0  0  0
   40.4292   31.3810   40.4455 H   0  0  0  0  0  0  0  0  0  0  0  0
   38.8998   34.5353   40.4254 H   0  0  0  0  0  0  0  0  0  0  0  0
   37.7328   35.4331   38.4167 H   0  0  0  0  0  0  0  0  0  0  0  0
   36.1828   33.9601   37.1689 H   0  0  0  0  0  0  0  0  0  0  0  0
   39.2343   30.5619   48.2133 H   0  0  0  0  0  0  0  0  0  0  0  0
   38.4635   33.4207   49.3654 H   0  0  0  0  0  0  0  0  0  0  0  0
   39.7608   33.5051   48.5267 H   0  0  0  0  0  0  0  0  0  0  0  0
   36.8581   32.4310   47.1044 H   0  0  0  0  0  0  0  0  0  0  0  0
   35.2777   28.4642   49.4781 H   0  0  0  0  0  0  0  0  0  0  0  0
   35.7348   28.7195   51.9448 H   0  0  0  0  0  0  0  0  0  0  0  0
   37.5916   30.3232   52.6747 H   0  0  0  0  0  0  0  0  0  0  0  0
  1  2  2  0
  1  3  1  0
  3 20  1  0
  4  1  1  0
  5  4  2  0
  6  5  1  0
  7  8  1  0
  7  6  2  0
  8  9  2  0
  9  4  1  0
 11 10  1  0
 11 12  2  0
 12  8  1  0
 13 12  1  0
 14 13  2  0
 15 16  2  0
 15 14  1  0
 16 11  1  0
 17 16  1  0
 18 19  1  0
 18 25  1  0
 20 18  1  0
 20 19  1  0
 21 22  2  0
 22 23  1  0
 24 23  2  0
 25 24  1  0
 26 25  2  0
 26 21  1  0
  3 27  1  0
  5 28  1  0
  6 29  1  0
  7 30  1  0
 13 31  1  0
 14 32  1  0
 15 33  1  0
 18 34  1  6
 19 35  1  0
 19 36  1  0
 20 37  1  6
 21 38  1  0
 22 39  1  0
 23 40  1  0
M  ISO  8  28  14  29  14  30  14  31  14  32  14  33  14  34  13  35  13
M  ISO  5  36  13  37  13  38  14  39  14  40  14
M  END
>  <minimizedAffinity>  (1) 
-5.52992439

>  <minimizedRMSD>  (1) 
1.97469962

$$$$
