
     RDKit          3D

 35 37  0  0  1  0  0  0  0  0999 V2000
   35.7590   29.2460   49.6400 C   0  0  0  0  0  0  0  0  0  0  0  0
   36.1710   29.2990   50.9890 C   0  0  0  0  0  0  0  0  0  0  0  0
   37.3260   29.9980   51.3070 C   0  0  0  0  0  0  0  0  0  0  0  0
   37.9950   30.5960   50.2730 N   0  0  0  0  0  0  0  0  0  0  0  0
   37.5980   30.5390   49.0030 C   0  0  0  0  0  0  0  0  0  0  0  0
   36.4830   29.8640   48.6980 N   0  0  0  0  0  0  0  0  0  0  0  0
   38.6370   33.2260   49.7490 Cl  0  0  0  0  0  0  0  0  0  0  0  0
   38.9010   32.4590   48.1900 C   0  0  0  0  0  0  0  0  0  0  0  0
   38.3680   31.2060   47.9560 C   0  0  0  0  0  0  0  0  0  0  0  0
   38.5680   30.5930   46.7330 C   0  0  0  0  0  0  0  0  0  0  0  0
   39.3000   31.2110   45.7210 C   0  0  0  0  0  0  0  0  0  0  0  0
   39.8310   32.4700   45.9660 C   0  0  0  0  0  0  0  0  0  0  0  0
   39.6330   33.0860   47.1870 C   0  0  0  0  0  0  0  0  0  0  0  0
   40.2910   34.6830   47.5340 Cl  0  0  0  0  0  0  0  0  0  0  0  0
   34.2660   28.3160   49.3900 S   0  0  0  0  0  0  0  0  0  0  0  0
   32.3990   28.9140   47.5240 N   0  0  0  0  0  0  0  0  0  0  0  0
   33.7480   28.3980   47.6200 C   0  0  2  0  0  0  0  0  0  0  0  0
   33.7500   27.0040   47.0570 C   0  0  0  0  0  0  0  0  0  0  0  0
   32.6120   26.7790   46.2540 O   0  0  0  0  0  0  0  0  0  0  0  0
   31.5490   26.7220   47.1650 C   0  0  0  0  0  0  0  0  0  0  0  0
   31.4990   27.9240   48.0650 C   0  0  2  0  0  0  0  0  0  0  0  0
   30.2000   28.4750   48.0670 O   0  0  0  0  0  0  0  0  0  0  0  0
   35.5870   28.7954   51.7734 H   0  0  0  0  0  0  0  0  0  0  0  0
   37.6882   30.0687   52.3433 H   0  0  0  0  0  0  0  0  0  0  0  0
   38.1399   29.5955   46.5549 H   0  0  0  0  0  0  0  0  0  0  0  0
   39.4533   30.7135   44.7520 H   0  0  0  0  0  0  0  0  0  0  0  0
   40.4125   32.9801   45.1839 H   0  0  0  0  0  0  0  0  0  0  0  0
   32.3207   29.7882   48.0630 H   0  0  0  0  0  0  0  0  0  0  0  0
   34.4395   29.0524   47.0690 H   0  0  0  0  0  0  0  0  0  0  0  0
   34.6541   26.8646   46.4461 H   0  0  0  0  0  0  0  0  0  0  0  0
   33.7345   26.2894   47.8932 H   0  0  0  0  0  0  0  0  0  0  0  0
   30.6053   26.6624   46.6030 H   0  0  0  0  0  0  0  0  0  0  0  0
   31.6984   25.8354   47.7987 H   0  0  0  0  0  0  0  0  0  0  0  0
   31.7766   27.6330   49.0888 H   0  0  0  0  0  0  0  0  0  0  0  0
   29.8974   28.6033   49.0008 H   0  0  0  0  0  0  0  0  0  0  0  0
  1  2  2  0
  2  3  1  0
  4  3  2  0
  5  4  1  0
  6  5  2  0
  6  1  1  0
  8  7  1  0
  9  8  2  0
  9  5  1  0
 10  9  1  0
 11 12  1  0
 11 10  2  0
 12 13  2  0
 13 14  1  0
 13  8  1  0
 15  1  1  0
 16 17  1  0
 16 21  1  0
 17 15  1  0
 18 17  1  0
 19 18  1  0
 19 20  1  0
 20 21  1  0
 21 22  1  0
  2 23  1  0
  3 24  1  0
 10 25  1  0
 11 26  1  0
 12 27  1  0
 16 28  1  0
 17 29  1  6
 18 30  1  0
 18 31  1  0
 20 32  1  0
 20 33  1  0
 21 34  1  1
 22 35  1  0
M  ISO  8  23  14  24  14  25  14  26  14  27  14  28   5  29  13  30  13
M  ISO  5  31  13  32  13  33  13  34  13  35   3
M  END
>  <minimizedAffinity>  (1) 
-6.39355707

>  <minimizedRMSD>  (1) 
2.8740108

$$$$
