
     RDKit          3D

 41 44  0  0  1  0  0  0  0  0999 V2000
   34.9890   30.0040   47.1700 C   0  0  0  0  0  0  0  0  0  0  0  0
   35.6620   30.0850   45.9380 C   0  0  0  0  0  0  0  0  0  0  0  0
   36.8650   30.7590   46.1760 C   0  0  0  0  0  0  0  0  0  0  0  0
   36.8760   31.0510   47.4840 N   0  0  0  0  0  0  0  0  0  0  0  0
   35.7620   30.5940   48.0420 N   0  0  0  0  0  0  0  0  0  0  0  0
   38.5860   32.7450   47.4830 N   0  0  0  0  0  0  0  0  0  0  0  0
   39.2290   33.5740   48.4900 C   0  0  0  0  0  0  0  0  0  0  0  0
   38.5470   33.2920   49.8070 C   0  0  0  0  0  0  0  0  0  0  0  0
   37.3000   32.5350   49.3510 C   0  0  0  0  0  0  0  0  0  0  0  0
   37.8760   31.7320   48.2290 C   0  0  1  0  0  0  0  0  0  0  0  0
   38.7880   30.7470   48.7910 N   0  0  0  0  0  0  0  0  0  0  0  0
   33.4460   28.3060   48.1630 C   0  0  0  0  0  0  0  0  0  0  0  0
   33.6970   29.3580   47.2790 C   0  0  0  0  0  0  0  0  0  0  0  0
   32.6340   29.7760   46.4850 C   0  0  0  0  0  0  0  0  0  0  0  0
   31.4400   29.1470   46.6140 N   0  0  0  0  0  0  0  0  0  0  0  0
   31.2390   28.1360   47.4810 C   0  0  0  0  0  0  0  0  0  0  0  0
   32.2800   27.7050   48.2800 N   0  0  0  0  0  0  0  0  0  0  0  0
   30.0070   28.3140   50.1540 Cl  0  0  0  0  0  0  0  0  0  0  0  0
   29.2630   27.5040   48.7820 C   0  0  0  0  0  0  0  0  0  0  0  0
   29.9390   27.4890   47.5870 C   0  0  0  0  0  0  0  0  0  0  0  0
   29.4430   26.8830   46.4580 C   0  0  0  0  0  0  0  0  0  0  0  0
   28.1980   26.2540   46.5210 C   0  0  0  0  0  0  0  0  0  0  0  0
   27.5180   26.2730   47.7430 C   0  0  0  0  0  0  0  0  0  0  0  0
   28.0340   26.8870   48.8610 C   0  0  0  0  0  0  0  0  0  0  0  0
   27.2250   26.9380   50.4050 Cl  0  0  0  0  0  0  0  0  0  0  0  0
   35.3102   29.6935   44.9721 H   0  0  0  0  0  0  0  0  0  0  0  0
   37.6444   31.0005   45.4383 H   0  0  0  0  0  0  0  0  0  0  0  0
   39.2893   32.3139   46.8663 H   0  0  0  0  0  0  0  0  0  0  0  0
   40.2977   33.3224   48.5582 H   0  0  0  0  0  0  0  0  0  0  0  0
   39.1451   34.6392   48.2286 H   0  0  0  0  0  0  0  0  0  0  0  0
   39.1772   32.6708   50.4605 H   0  0  0  0  0  0  0  0  0  0  0  0
   38.3318   34.1922   50.4015 H   0  0  0  0  0  0  0  0  0  0  0  0
   36.8988   31.8922   50.1484 H   0  0  0  0  0  0  0  0  0  0  0  0
   36.4480   33.1728   49.0730 H   0  0  0  0  0  0  0  0  0  0  0  0
   38.7484   30.7898   49.8193 H   0  0  0  0  0  0  0  0  0  0  0  0
   38.5135   29.8057   48.4757 H   0  0  0  0  0  0  0  0  0  0  0  0
   34.2725   27.9584   48.8002 H   0  0  0  0  0  0  0  0  0  0  0  0
   32.7597   30.6000   45.7672 H   0  0  0  0  0  0  0  0  0  0  0  0
   30.0173   26.8932   45.5199 H   0  0  0  0  0  0  0  0  0  0  0  0
   27.7661   25.7597   45.6383 H   0  0  0  0  0  0  0  0  0  0  0  0
   26.5370   25.7802   47.8127 H   0  0  0  0  0  0  0  0  0  0  0  0
  1 13  1  0
  1  5  2  0
  2  3  2  0
  2  1  1  0
  3  4  1  0
  4  5  1  0
  4 10  1  0
  6 10  1  0
  6  7  1  0
  7  8  1  0
  9  8  1  0
 10 11  1  1
 10  9  1  0
 12 17  2  0
 13 12  1  0
 14 15  1  0
 14 13  2  0
 15 16  2  0
 16 20  1  0
 16 17  1  0
 19 24  2  0
 19 18  1  0
 20 19  1  0
 21 22  1  0
 21 20  2  0
 22 23  2  0
 23 24  1  0
 24 25  1  0
  2 26  1  0
  3 27  1  0
  6 28  1  0
  7 29  1  0
  7 30  1  0
  8 31  1  0
  8 32  1  0
  9 33  1  0
  9 34  1  0
 11 35  1  0
 11 36  1  0
 12 37  1  0
 14 38  1  0
 21 39  1  0
 22 40  1  0
 23 41  1  0
M  ISO  8  26  14  27  14  28   5  29  13  30  13  31  13  32  13  33  13
M  ISO  8  34  13  35   5  36   5  37  14  38  14  39  14  40  14  41  14
M  END
>  <minimizedAffinity>  (1) 
-6.19655085

>  <minimizedRMSD>  (1) 
0.64753288

$$$$
