
     RDKit          3D

 48 52  0  0  0  0  0  0  0  0999 V2000
   32.2950   28.2180   47.3760 N   0  0  0  0  0  0  0  0  0  0  0  0
   32.6440   27.8090   48.6920 C   0  0  0  0  0  0  0  0  0  0  0  0
   33.8670   28.4030   49.2790 C   0  0  0  0  0  0  0  0  0  0  0  0
   35.0010   28.5990   48.3770 C   0  0  0  0  0  0  0  0  0  0  0  0
   34.5610   28.9600   46.9470 C   0  0  0  0  0  0  0  0  0  0  0  0
   33.4570   27.9750   46.5450 C   0  0  0  0  0  0  0  0  0  0  0  0
   36.1760   29.8490   50.1290 C   0  0  0  0  0  0  0  0  0  0  0  0
   35.9370   29.6810   48.7730 C   0  0  0  0  0  0  0  0  0  0  0  0
   36.4870   30.4660   47.7970 C   0  0  0  0  0  0  0  0  0  0  0  0
   37.3380   31.4950   48.1960 C   0  0  0  0  0  0  0  0  0  0  0  0
   37.5780   31.6660   49.5360 C   0  0  0  0  0  0  0  0  0  0  0  0
   37.0210   30.8690   50.5330 C   0  0  0  0  0  0  0  0  0  0  0  0
   38.4530   32.7470   49.7400 O   0  0  0  0  0  0  0  0  0  0  0  0
   38.9970   33.0110   48.4500 C   0  0  0  0  0  0  0  0  0  0  0  0
   38.0740   32.4810   47.5350 O   0  0  0  0  0  0  0  0  0  0  0  0
   31.0670   28.7620   46.9050 C   0  0  0  0  0  0  0  0  0  0  0  0
   30.8640   29.4240   45.6980 C   0  0  0  0  0  0  0  0  0  0  0  0
   29.5820   29.8760   45.4230 C   0  0  0  0  0  0  0  0  0  0  0  0
   28.5990   29.6530   46.3340 N   0  0  0  0  0  0  0  0  0  0  0  0
   28.8200   29.0090   47.4930 C   0  0  0  0  0  0  0  0  0  0  0  0
   30.0470   28.5700   47.7710 N   0  0  0  0  0  0  0  0  0  0  0  0
   29.1170   27.7240   50.2610 Cl  0  0  0  0  0  0  0  0  0  0  0  0
   27.6270   28.3130   49.5950 C   0  0  0  0  0  0  0  0  0  0  0  0
   27.6380   28.8690   48.3360 C   0  0  0  0  0  0  0  0  0  0  0  0
   26.4080   29.3030   47.8920 C   0  0  0  0  0  0  0  0  0  0  0  0
   25.2560   29.1860   48.6640 C   0  0  0  0  0  0  0  0  0  0  0  0
   25.2970   28.6220   49.9200 C   0  0  0  0  0  0  0  0  0  0  0  0
   26.5130   28.1770   50.3940 C   0  0  0  0  0  0  0  0  0  0  0  0
   26.5930   27.4560   51.9870 Cl  0  0  0  0  0  0  0  0  0  0  0  0
   31.8019   28.0629   49.3526 H   0  0  0  0  0  0  0  0  0  0  0  0
   32.8605   26.7337   48.6087 H   0  0  0  0  0  0  0  0  0  0  0  0
   33.5952   29.3861   49.6909 H   0  0  0  0  0  0  0  0  0  0  0  0
   34.2139   27.6720   50.0242 H   0  0  0  0  0  0  0  0  0  0  0  0
   35.5075   27.6240   48.4304 H   0  0  0  0  0  0  0  0  0  0  0  0
   34.1742   29.9894   46.9212 H   0  0  0  0  0  0  0  0  0  0  0  0
   35.4107   28.8964   46.2513 H   0  0  0  0  0  0  0  0  0  0  0  0
   33.1940   28.1247   45.4874 H   0  0  0  0  0  0  0  0  0  0  0  0
   33.8075   26.9414   46.6824 H   0  0  0  0  0  0  0  0  0  0  0  0
   35.7039   29.1854   50.8684 H   0  0  0  0  0  0  0  0  0  0  0  0
   36.2652   30.2911   46.7339 H   0  0  0  0  0  0  0  0  0  0  0  0
   37.2429   31.0424   51.5964 H   0  0  0  0  0  0  0  0  0  0  0  0
   39.1115   34.0941   48.2960 H   0  0  0  0  0  0  0  0  0  0  0  0
   39.9937   32.5616   48.3290 H   0  0  0  0  0  0  0  0  0  0  0  0
   31.6895   29.5829   44.9885 H   0  0  0  0  0  0  0  0  0  0  0  0
   29.3649   30.4058   44.4838 H   0  0  0  0  0  0  0  0  0  0  0  0
   26.3340   29.7576   46.8931 H   0  0  0  0  0  0  0  0  0  0  0  0
   24.2976   29.5496   48.2649 H   0  0  0  0  0  0  0  0  0  0  0  0
   24.3850   28.5292   50.5280 H   0  0  0  0  0  0  0  0  0  0  0  0
  1  2  1  0
  2  3  1  0
  4  8  1  0
  4  3  1  0
  5  4  1  0
  6  5  1  0
  6  1  1  0
  7 12  2  0
  8  7  1  0
  9 10  1  0
  9  8  2  0
 10 11  2  0
 11 13  1  0
 11 12  1  0
 14 13  1  0
 15 10  1  0
 15 14  1  0
 16  1  1  0
 16 21  1  0
 17 16  2  0
 18 17  1  0
 18 19  2  0
 19 20  1  0
 20 21  2  0
 20 24  1  0
 23 22  1  0
 23 28  2  0
 24 23  1  0
 25 24  2  0
 25 26  1  0
 26 27  2  0
 27 28  1  0
 28 29  1  0
  2 30  1  0
  2 31  1  0
  3 32  1  0
  3 33  1  0
  4 34  1  0
  5 35  1  0
  5 36  1  0
  6 37  1  0
  6 38  1  0
  7 39  1  0
  9 40  1  0
 12 41  1  0
 14 42  1  0
 14 43  1  0
 17 44  1  0
 18 45  1  0
 25 46  1  0
 26 47  1  0
 27 48  1  0
M  END
>  <minimizedAffinity>  (1) 
-8.30923176

>  <minimizedRMSD>  (1) 
1.14127207

$$$$
