
     RDKit          3D

 41 44  0  0  0  0  0  0  0  0999 V2000
   34.3920   30.1230   47.8470 F   0  0  0  0  0  0  0  0  0  0  0  0
   34.5230   29.6430   46.5690 C   0  0  0  0  0  0  0  0  0  0  0  0
   33.5100   28.9250   45.9440 C   0  0  0  0  0  0  0  0  0  0  0  0
   33.6990   28.4910   44.6550 C   0  0  0  0  0  0  0  0  0  0  0  0
   34.8930   28.7680   43.9760 C   0  0  0  0  0  0  0  0  0  0  0  0
   35.8580   29.4840   44.6550 C   0  0  0  0  0  0  0  0  0  0  0  0
   35.7160   29.9280   45.9150 C   0  0  0  0  0  0  0  0  0  0  0  0
   37.2920   32.0430   44.2250 Br  0  0  0  0  0  0  0  0  0  0  0  0
   37.5820   31.6510   46.0600 C   0  0  0  0  0  0  0  0  0  0  0  0
   36.7810   30.6620   46.5680 C   0  0  0  0  0  0  0  0  0  0  0  0
   36.9680   30.2920   47.9100 C   0  0  0  0  0  0  0  0  0  0  0  0
   37.9150   30.8990   48.6780 C   0  0  0  0  0  0  0  0  0  0  0  0
   38.6800   31.8810   48.1070 C   0  0  0  0  0  0  0  0  0  0  0  0
   38.5280   32.2790   46.7790 C   0  0  0  0  0  0  0  0  0  0  0  0
   39.2470   33.2510   46.1360 O   0  0  0  0  0  0  0  0  0  0  0  0
   32.4890   27.9800   47.9100 C   0  0  0  0  0  0  0  0  0  0  0  0
   32.3320   28.7100   46.7440 C   0  0  0  0  0  0  0  0  0  0  0  0
   31.0620   29.2110   46.4340 C   0  0  0  0  0  0  0  0  0  0  0  0
   30.0190   28.9780   47.2700 N   0  0  0  0  0  0  0  0  0  0  0  0
   30.2200   28.2640   48.3970 C   0  0  0  0  0  0  0  0  0  0  0  0
   31.4050   27.7760   48.7160 N   0  0  0  0  0  0  0  0  0  0  0  0
   27.5390   29.4480   47.5600 Cl  0  0  0  0  0  0  0  0  0  0  0  0
   27.8160   28.5080   49.0230 C   0  0  0  0  0  0  0  0  0  0  0  0
   29.0830   28.0260   49.2850 C   0  0  0  0  0  0  0  0  0  0  0  0
   29.2240   27.2950   50.4530 C   0  0  0  0  0  0  0  0  0  0  0  0
   28.1930   27.0300   51.3440 C   0  0  0  0  0  0  0  0  0  0  0  0
   26.9750   27.5610   50.9750 C   0  0  0  0  0  0  0  0  0  0  0  0
   26.7210   28.3020   49.8380 C   0  0  0  0  0  0  0  0  0  0  0  0
   25.1270   28.9280   49.4740 Cl  0  0  0  0  0  0  0  0  0  0  0  0
   32.9054   27.9203   44.1506 H   0  0  0  0  0  0  0  0  0  0  0  0
   35.0549   28.4282   42.9424 H   0  0  0  0  0  0  0  0  0  0  0  0
   36.8007   29.7045   44.1327 H   0  0  0  0  0  0  0  0  0  0  0  0
   36.3408   29.5009   48.3469 H   0  0  0  0  0  0  0  0  0  0  0  0
   38.0615   30.6083   49.7287 H   0  0  0  0  0  0  0  0  0  0  0  0
   39.4462   32.3765   48.7214 H   0  0  0  0  0  0  0  0  0  0  0  0
   39.9558   33.7443   46.6201 H   0  0  0  0  0  0  0  0  0  0  0  0
   33.4725   27.5702   48.1834 H   0  0  0  0  0  0  0  0  0  0  0  0
   30.9098   29.7932   45.5132 H   0  0  0  0  0  0  0  0  0  0  0  0
   30.2215   26.8971   50.6909 H   0  0  0  0  0  0  0  0  0  0  0  0
   28.3354   26.4464   52.2655 H   0  0  0  0  0  0  0  0  0  0  0  0
   26.1261   27.3769   51.6499 H   0  0  0  0  0  0  0  0  0  0  0  0
  2  1  1  0
  3  2  2  0
  3 17  1  0
  4  3  1  0
  5  4  2  0
  5  6  1  0
  6  7  2  0
  7 10  1  0
  7  2  1  0
  8  9  1  0
  9 10  2  0
  9 14  1  0
 10 11  1  0
 11 12  2  0
 13 12  1  0
 14 13  2  0
 15 14  1  0
 16 21  2  0
 17 16  1  0
 18 17  2  0
 18 19  1  0
 19 20  2  0
 20 21  1  0
 20 24  1  0
 22 23  1  0
 23 24  2  0
 23 28  1  0
 24 25  1  0
 25 26  2  0
 27 26  1  0
 28 27  2  0
 29 28  1  0
  4 30  1  0
  5 31  1  0
  6 32  1  0
 11 33  1  0
 12 34  1  0
 13 35  1  0
 15 36  1  0
 16 37  1  0
 18 38  1  0
 25 39  1  0
 26 40  1  0
 27 41  1  0
M  ISO  8  30  14  31  14  32  14  33  14  34  14  35  14  36   3  37  14
M  ISO  4  38  14  39  14  40  14  41  14
M  END
>  <minimizedAffinity>  (1) 
-7.61662292

>  <minimizedRMSD>  (1) 
1.50498235

$$$$
