
     RDKit          3D

 40 43  0  0  0  0  0  0  0  0999 V2000
   38.1400   31.8870   47.4060 C   0  0  0  0  0  0  0  0  0  0  0  0
   38.6520   32.7740   48.3060 C   0  0  0  0  0  0  0  0  0  0  0  0
   38.1940   32.8600   49.6240 C   0  0  0  0  0  0  0  0  0  0  0  0
   37.1310   31.9560   50.0180 C   0  0  0  0  0  0  0  0  0  0  0  0
   36.6650   31.0970   49.0750 C   0  0  0  0  0  0  0  0  0  0  0  0
   37.1120   31.0260   47.8150 C   0  0  0  0  0  0  0  0  0  0  0  0
   39.9860   31.2480   45.9320 C   0  0  0  0  0  0  0  0  0  0  0  0
   38.7400   31.9050   46.0910 C   0  0  0  0  0  0  0  0  0  0  0  0
   38.2530   32.4780   44.9430 C   0  0  0  0  0  0  0  0  0  0  0  0
   38.9270   32.4020   43.7900 N   0  0  0  0  0  0  0  0  0  0  0  0
   40.0860   31.7870   43.6600 C   0  0  0  0  0  0  0  0  0  0  0  0
   40.6040   31.2150   44.7350 N   0  0  0  0  0  0  0  0  0  0  0  0
   35.1410   30.0050   47.0370 C   0  0  0  0  0  0  0  0  0  0  0  0
   34.5490   30.6620   47.9790 O   0  0  0  0  0  0  0  0  0  0  0  0
   36.5790   30.1490   46.9060 N   0  0  0  0  0  0  0  0  0  0  0  0
   34.3900   29.2110   46.2200 O   0  0  0  0  0  0  0  0  0  0  0  0
   33.0460   29.3840   45.9430 C   0  0  0  0  0  0  0  0  0  0  0  0
   32.6230   30.0950   44.9190 O   0  0  0  0  0  0  0  0  0  0  0  0
   32.2940   27.8410   47.7710 C   0  0  0  0  0  0  0  0  0  0  0  0
   32.0110   28.7450   46.7880 C   0  0  0  0  0  0  0  0  0  0  0  0
   30.6790   29.0500   46.6040 C   0  0  0  0  0  0  0  0  0  0  0  0
   29.6580   28.5130   47.3320 C   0  0  0  0  0  0  0  0  0  0  0  0
   29.9910   27.5960   48.3250 C   0  0  0  0  0  0  0  0  0  0  0  0
   31.3120   27.2600   48.5440 C   0  0  0  0  0  0  0  0  0  0  0  0
   28.7960   27.1780   48.9400 O   0  0  0  0  0  0  0  0  0  0  0  0
   27.7920   28.1160   48.6060 C   0  0  0  0  0  0  0  0  0  0  0  0
   28.2640   28.6310   47.3670 O   0  0  0  0  0  0  0  0  0  0  0  0
   39.4578   33.4491   47.9820 H   0  0  0  0  0  0  0  0  0  0  0  0
   38.6224   33.5837   50.3330 H   0  0  0  0  0  0  0  0  0  0  0  0
   36.7193   31.9656   51.0380 H   0  0  0  0  0  0  0  0  0  0  0  0
   35.8596   30.4076   49.3685 H   0  0  0  0  0  0  0  0  0  0  0  0
   40.4551   30.7582   46.7980 H   0  0  0  0  0  0  0  0  0  0  0  0
   37.2905   33.0097   44.9715 H   0  0  0  0  0  0  0  0  0  0  0  0
   40.6048   31.7506   42.6907 H   0  0  0  0  0  0  0  0  0  0  0  0
   37.1400   29.6455   46.2042 H   0  0  0  0  0  0  0  0  0  0  0  0
   33.3436   27.5664   47.9527 H   0  0  0  0  0  0  0  0  0  0  0  0
   30.4225   29.7749   45.8174 H   0  0  0  0  0  0  0  0  0  0  0  0
   31.5782   26.5356   49.3278 H   0  0  0  0  0  0  0  0  0  0  0  0
   26.8132   27.6280   48.4884 H   0  0  0  0  0  0  0  0  0  0  0  0
   27.6345   28.8874   49.3742 H   0  0  0  0  0  0  0  0  0  0  0  0
  1  6  1  0
  1  2  2  0
  2  3  1  0
  3  4  2  0
  5  4  1  0
  6  5  2  0
  7  8  2  0
  8  1  1  0
  9  8  1  0
 10  9  2  0
 11 10  1  0
 11 12  2  0
 12  7  1  0
 13 14  2  0
 15 13  1  0
 15  6  1  0
 16 13  1  0
 17 16  1  0
 17 20  1  0
 18 17  2  0
 19 24  2  0
 20 19  1  0
 21 20  2  0
 21 22  1  0
 22 27  1  0
 22 23  2  0
 23 24  1  0
 23 25  1  0
 26 25  1  0
 27 26  1  0
  2 28  1  0
  3 29  1  0
  4 30  1  0
  5 31  1  0
  7 32  1  0
  9 33  1  0
 11 34  1  0
 15 35  1  0
 19 36  1  0
 21 37  1  0
 24 38  1  0
 26 39  1  0
 26 40  1  0
M  ISO  8  28  14  29  14  30  14  31  14  32  14  33  14  34  14  36  14
M  ISO  4  37  14  38  14  39  13  40  13
M  END
>  <minimizedAffinity>  (1) 
-6.46219349

>  <minimizedRMSD>  (1) 
2.39832449

$$$$
