
     RDKit          3D

 41 45  0  0  1  0  0  0  0  0999 V2000
   32.8830   27.7980   47.9660 C   0  0  0  0  0  0  0  0  0  0  0  0
   32.2440   26.7850   48.3890 O   0  0  0  0  0  0  0  0  0  0  0  0
   35.7090   29.1660   49.6760 C   0  0  0  0  0  0  0  0  0  0  0  0
   34.7200   29.5940   50.5330 C   0  0  0  0  0  0  0  0  0  0  0  0
   33.4950   29.1430   50.0180 C   0  0  0  0  0  0  0  0  0  0  0  0
   33.8260   28.4610   48.8640 C   0  0  0  0  0  0  0  0  0  0  0  0
   35.1320   28.5020   48.7050 O   0  0  0  0  0  0  0  0  0  0  0  0
   37.1150   29.4590   49.9080 C   0  0  0  0  0  0  0  0  0  0  0  0
   37.7390   28.8000   50.7520 O   0  0  0  0  0  0  0  0  0  0  0  0
   37.7000   30.5130   49.1270 C   0  0  0  0  0  0  0  0  0  0  0  0
   38.0300   31.6800   49.7910 C   0  0  0  0  0  0  0  0  0  0  0  0
   38.6000   32.7280   49.0590 C   0  0  0  0  0  0  0  0  0  0  0  0
   38.7990   32.5380   47.7130 N   0  0  0  0  0  0  0  0  0  0  0  0
   38.4690   31.3980   47.1060 C   0  0  0  0  0  0  0  0  0  0  0  0
   37.9220   30.3890   47.8010 N   0  0  0  0  0  0  0  0  0  0  0  0
   32.6750   28.2890   46.5790 C   0  0  1  0  0  0  0  0  0  0  0  0
   32.2530   27.1060   45.6180 C   0  0  0  0  0  0  0  0  0  0  0  0
   31.3760   28.2400   45.9020 C   0  0  1  0  0  0  0  0  0  0  0  0
   29.4570   26.8300   46.4490 C   0  0  0  0  0  0  0  0  0  0  0  0
   30.0850   28.0660   46.6020 C   0  0  0  0  0  0  0  0  0  0  0  0
   29.4220   28.9680   47.4050 C   0  0  0  0  0  0  0  0  0  0  0  0
   28.2230   28.6520   48.0060 C   0  0  0  0  0  0  0  0  0  0  0  0
   27.6110   27.4400   47.8530 C   0  0  0  0  0  0  0  0  0  0  0  0
   28.2400   26.5040   47.0570 C   0  0  0  0  0  0  0  0  0  0  0  0
   26.4300   27.4300   48.5760 O   0  0  0  0  0  0  0  0  0  0  0  0
   26.4730   28.5570   49.4310 C   0  0  0  0  0  0  0  0  0  0  0  0
   27.4260   29.4430   48.8440 O   0  0  0  0  0  0  0  0  0  0  0  0
   34.8636   30.1812   51.4520 H   0  0  0  0  0  0  0  0  0  0  0  0
   32.4915   29.2986   50.4408 H   0  0  0  0  0  0  0  0  0  0  0  0
   37.8485   31.7826   50.8711 H   0  0  0  0  0  0  0  0  0  0  0  0
   38.8798   33.6738   49.5460 H   0  0  0  0  0  0  0  0  0  0  0  0
   38.6466   31.2835   46.0265 H   0  0  0  0  0  0  0  0  0  0  0  0
   33.4129   29.0988   46.6782 H   0  0  0  0  0  0  0  0  0  0  0  0
   32.0260   26.1103   46.0267 H   0  0  0  0  0  0  0  0  0  0  0  0
   32.6674   26.6307   44.7167 H   0  0  0  0  0  0  0  0  0  0  0  0
   30.8531   28.9733   45.2704 H   0  0  0  0  0  0  0  0  0  0  0  0
   29.9439   26.0723   45.8175 H   0  0  0  0  0  0  0  0  0  0  0  0
   29.8599   29.9635   47.5702 H   0  0  0  0  0  0  0  0  0  0  0  0
   27.7892   25.5126   46.9024 H   0  0  0  0  0  0  0  0  0  0  0  0
   25.4845   29.0365   49.4855 H   0  0  0  0  0  0  0  0  0  0  0  0
   26.7511   28.2801   50.4586 H   0  0  0  0  0  0  0  0  0  0  0  0
  1  2  2  0
  1  6  1  0
  3  8  1  0
  3  4  2  0
  5  4  1  0
  6  5  2  0
  7  6  1  0
  7  3  1  0
  8  9  2  0
 10 11  2  0
 10  8  1  0
 12 11  1  0
 13 12  2  0
 14 13  1  0
 14 15  2  0
 15 10  1  0
 16  1  1  0
 17 18  1  0
 17 16  1  0
 18 16  1  0
 18 20  1  0
 19 20  2  0
 19 24  1  0
 20 21  1  0
 21 22  2  0
 22 27  1  0
 23 22  1  0
 23 25  1  0
 24 23  2  0
 25 26  1  0
 27 26  1  0
  4 28  1  0
  5 29  1  0
 11 30  1  0
 12 31  1  0
 14 32  1  0
 16 33  1  6
 17 34  1  0
 17 35  1  0
 18 36  1  6
 19 37  1  0
 21 38  1  0
 24 39  1  0
 26 40  1  0
 26 41  1  0
M  ISO  8  28  14  29  14  30  14  31  14  32  14  33  13  34  13  35  13
M  ISO  6  36  13  37  14  38  14  39  14  40  13  41  13
M  END
>  <minimizedAffinity>  (1) 
-6.29806232

>  <minimizedRMSD>  (1) 
2.32022882

$$$$
