
     RDKit          3D

 45 50  0  0  0  0  0  0  0  0999 V2000
   35.7010   29.1570   49.9130 C   0  0  0  0  0  0  0  0  0  0  0  0
   34.6320   29.6450   50.6110 C   0  0  0  0  0  0  0  0  0  0  0  0
   33.4930   29.0390   50.0720 C   0  0  0  0  0  0  0  0  0  0  0  0
   33.9560   28.1960   49.0500 C   0  0  0  0  0  0  0  0  0  0  0  0
   35.2470   28.3190   49.0190 O   0  0  0  0  0  0  0  0  0  0  0  0
   33.4940   26.4230   47.3740 C   0  0  0  0  0  0  0  0  0  0  0  0
   33.0470   27.3930   48.2560 C   0  0  0  0  0  0  0  0  0  0  0  0
   31.7060   27.6310   48.4140 C   0  0  0  0  0  0  0  0  0  0  0  0
   30.7980   26.8840   47.6740 C   0  0  0  0  0  0  0  0  0  0  0  0
   29.4590   26.9020   47.6290 N   0  0  0  0  0  0  0  0  0  0  0  0
   29.0770   25.9760   46.7480 N   0  0  0  0  0  0  0  0  0  0  0  0
   30.1660   25.3730   46.2390 C   0  0  0  0  0  0  0  0  0  0  0  0
   31.2990   25.9290   46.8100 C   0  0  0  0  0  0  0  0  0  0  0  0
   32.6370   25.6700   46.6310 C   0  0  0  0  0  0  0  0  0  0  0  0
   37.0590   29.5720   50.2060 C   0  0  0  0  0  0  0  0  0  0  0  0
   37.7110   28.9410   51.0810 O   0  0  0  0  0  0  0  0  0  0  0  0
   37.5880   30.6960   49.4680 C   0  0  0  0  0  0  0  0  0  0  0  0
   37.5190   31.9460   50.0760 C   0  0  0  0  0  0  0  0  0  0  0  0
   38.0230   33.0500   49.3870 C   0  0  0  0  0  0  0  0  0  0  0  0
   38.5540   32.8230   48.1540 N   0  0  0  0  0  0  0  0  0  0  0  0
   38.6080   31.6200   47.5960 C   0  0  0  0  0  0  0  0  0  0  0  0
   38.1230   30.5600   48.2580 N   0  0  0  0  0  0  0  0  0  0  0  0
   40.0330   32.3770   45.7290 C   0  0  0  0  0  0  0  0  0  0  0  0
   39.1880   31.4300   46.2710 C   0  0  0  0  0  0  0  0  0  0  0  0
   38.9200   30.3160   45.5140 C   0  0  0  0  0  0  0  0  0  0  0  0
   39.4820   30.1520   44.2520 C   0  0  0  0  0  0  0  0  0  0  0  0
   40.3280   31.0990   43.7100 C   0  0  0  0  0  0  0  0  0  0  0  0
   40.5900   32.2150   44.4770 C   0  0  0  0  0  0  0  0  0  0  0  0
   40.7240   30.6550   42.4430 O   0  0  0  0  0  0  0  0  0  0  0  0
   40.3450   29.2930   42.3540 C   0  0  0  0  0  0  0  0  0  0  0  0
   39.3350   29.1130   43.3470 O   0  0  0  0  0  0  0  0  0  0  0  0
   34.6619   30.3724   51.4357 H   0  0  0  0  0  0  0  0  0  0  0  0
   32.4494   29.1915   50.3845 H   0  0  0  0  0  0  0  0  0  0  0  0
   34.5763   26.2557   47.2706 H   0  0  0  0  0  0  0  0  0  0  0  0
   31.3545   28.4016   49.1159 H   0  0  0  0  0  0  0  0  0  0  0  0
   28.8388   27.5175   48.1743 H   0  0  0  0  0  0  0  0  0  0  0  0
   30.1583   24.5677   45.4897 H   0  0  0  0  0  0  0  0  0  0  0  0
   32.9937   24.9010   45.9300 H   0  0  0  0  0  0  0  0  0  0  0  0
   37.0773   32.0612   51.0768 H   0  0  0  0  0  0  0  0  0  0  0  0
   37.9926   34.0601   49.8214 H   0  0  0  0  0  0  0  0  0  0  0  0
   40.2679   33.2820   46.3085 H   0  0  0  0  0  0  0  0  0  0  0  0
   38.2496   29.5402   45.9123 H   0  0  0  0  0  0  0  0  0  0  0  0
   41.2585   32.9939   44.0815 H   0  0  0  0  0  0  0  0  0  0  0  0
   39.9451   29.0697   41.3539 H   0  0  0  0  0  0  0  0  0  0  0  0
   41.2001   28.6199   42.5146 H   0  0  0  0  0  0  0  0  0  0  0  0
  1 15  1  0
  1  2  2  0
  3  2  1  0
  4  3  2  0
  5  4  1  0
  5  1  1  0
  6  7  2  0
  7  8  1  0
  7  4  1  0
  9  8  2  0
 10  9  1  0
 11 10  1  0
 12 11  2  0
 12 13  1  0
 13  9  1  0
 14 13  2  0
 14  6  1  0
 15 16  2  0
 17 18  2  0
 17 15  1  0
 19 18  1  0
 20 19  2  0
 21 20  1  0
 21 22  2  0
 22 17  1  0
 23 24  2  0
 24 21  1  0
 25 24  1  0
 26 25  2  0
 27 26  1  0
 27 28  2  0
 28 23  1  0
 29 27  1  0
 30 29  1  0
 30 31  1  0
 31 26  1  0
  2 32  1  0
  3 33  1  0
  6 34  1  0
  8 35  1  0
 10 36  1  0
 12 37  1  0
 14 38  1  0
 18 39  1  0
 19 40  1  0
 23 41  1  0
 25 42  1  0
 28 43  1  0
 30 44  1  0
 30 45  1  0
M  ISO  8  32  14  33  14  34  14  35  14  36   9  37  14  38  14  39  14
M  ISO  6  40  14  41  14  42  14  43  14  44  13  45  13
M  END
>  <minimizedAffinity>  (1) 
-7.89907455

>  <minimizedRMSD>  (1) 
0.827908099

$$$$
