
     RDKit          3D

 33 36  0  0  0  0  0  0  0  0999 V2000
   38.8180   30.7990   45.7070 C   0  0  0  0  0  0  0  0  0  0  0  0
   40.0110   31.4450   45.8750 C   0  0  0  0  0  0  0  0  0  0  0  0
   40.7950   31.2970   44.7200 C   0  0  0  0  0  0  0  0  0  0  0  0
   40.0100   30.5420   43.8850 N   0  0  0  0  0  0  0  0  0  0  0  0
   38.8700   30.2640   44.4740 N   0  0  0  0  0  0  0  0  0  0  0  0
   41.3510   29.1240   42.3210 C   0  0  0  0  0  0  0  0  0  0  0  0
   40.5330   30.2120   42.6020 C   0  0  0  0  0  0  0  0  0  0  0  0
   40.1550   31.0940   41.5860 C   0  0  0  0  0  0  0  0  0  0  0  0
   40.6120   30.8630   40.2950 C   0  0  0  0  0  0  0  0  0  0  0  0
   41.4340   29.7650   40.0260 C   0  0  0  0  0  0  0  0  0  0  0  0
   41.8020   28.8990   41.0350 C   0  0  0  0  0  0  0  0  0  0  0  0
   41.6920   29.8480   38.6510 O   0  0  0  0  0  0  0  0  0  0  0  0
   41.5130   31.2100   38.2380 C   0  0  0  0  0  0  0  0  0  0  0  0
   40.4100   31.5540   39.0900 O   0  0  0  0  0  0  0  0  0  0  0  0
   37.7050   30.7000   46.6590 C   0  0  0  0  0  0  0  0  0  0  0  0
   37.9870   30.9560   48.0200 C   0  0  0  0  0  0  0  0  0  0  0  0
   36.9270   30.8630   48.9340 C   0  0  0  0  0  0  0  0  0  0  0  0
   35.7060   30.5300   48.4450 N   0  0  0  0  0  0  0  0  0  0  0  0
   35.4720   30.2930   47.1440 C   0  0  0  0  0  0  0  0  0  0  0  0
   36.4840   30.3820   46.2660 N   0  0  0  0  0  0  0  0  0  0  0  0
   37.1990   31.1280   50.3650 C   0  0  0  0  0  0  0  0  0  0  0  0
   36.6920   32.3810   50.6250 F   0  0  0  0  0  0  0  0  0  0  0  0
   36.5650   30.2140   51.2000 F   0  0  0  0  0  0  0  0  0  0  0  0
   38.5500   31.1510   50.6460 F   0  0  0  0  0  0  0  0  0  0  0  0
   40.3110   31.9969   46.7780 H   0  0  0  0  0  0  0  0  0  0  0  0
   41.8031   31.6935   44.5289 H   0  0  0  0  0  0  0  0  0  0  0  0
   41.6415   28.4367   43.1292 H   0  0  0  0  0  0  0  0  0  0  0  0
   39.5072   31.9557   41.8049 H   0  0  0  0  0  0  0  0  0  0  0  0
   42.4491   28.0366   40.8171 H   0  0  0  0  0  0  0  0  0  0  0  0
   42.4017   31.8246   38.4438 H   0  0  0  0  0  0  0  0  0  0  0  0
   41.3473   31.3623   37.1613 H   0  0  0  0  0  0  0  0  0  0  0  0
   39.0025   31.2191   48.3511 H   0  0  0  0  0  0  0  0  0  0  0  0
   34.4609   30.0285   46.8009 H   0  0  0  0  0  0  0  0  0  0  0  0
  1  2  1  0
  1 15  1  0
  3  2  2  0
  4  5  1  0
  4  3  1  0
  5  1  2  0
  6  7  2  0
  7  4  1  0
  8  7  1  0
  9  8  2  0
 10  9  1  0
 10 11  2  0
 11  6  1  0
 12 10  1  0
 13 12  1  0
 13 14  1  0
 14  9  1  0
 15 16  2  0
 16 17  1  0
 17 21  1  0
 18 17  2  0
 19 18  1  0
 20 15  1  0
 20 19  2  0
 21 22  1  0
 21 24  1  0
 21 23  1  0
  2 25  1  0
  3 26  1  0
  6 27  1  0
  8 28  1  0
 11 29  1  0
 13 30  1  0
 13 31  1  0
 16 32  1  0
 19 33  1  0
M  ISO  8  25  14  26  14  27  14  28  14  29  14  30  13  31  13  32  14
M  ISO  1  33  14
M  END
>  <minimizedAffinity>  (1) 
-6.48779202

>  <minimizedRMSD>  (1) 
1.24603713

$$$$
