
     RDKit          3D

 42 46  0  0  1  0  0  0  0  0999 V2000
   38.4560   31.4950   45.3610 C   0  0  1  0  0  0  0  0  0  0  0  0
   38.8430   32.4570   46.4010 C   0  0  2  0  0  0  0  0  0  0  0  0
   40.2940   32.8210   46.0440 C   0  0  0  0  0  0  0  0  0  0  0  0
   40.7860   31.6030   45.6680 O   0  0  0  0  0  0  0  0  0  0  0  0
   39.8240   30.8800   45.0140 C   0  0  0  0  0  0  0  0  0  0  0  0
   37.5980   32.4090   48.6940 C   0  0  1  0  0  0  0  0  0  0  0  0
   38.8350   33.1370   48.8400 C   0  0  0  0  0  0  0  0  0  0  0  0
   38.7790   31.9720   47.8290 C   0  0  2  0  0  0  0  0  0  0  0  0
   35.5350   29.8160   50.4320 C   0  0  0  0  0  0  0  0  0  0  0  0
   35.9150   30.7910   49.5230 C   0  0  0  0  0  0  0  0  0  0  0  0
   37.1700   31.3640   49.6420 C   0  0  0  0  0  0  0  0  0  0  0  0
   37.9740   30.9280   50.6660 N   0  0  0  0  0  0  0  0  0  0  0  0
   37.5930   29.9750   51.5500 C   0  0  0  0  0  0  0  0  0  0  0  0
   36.3510   29.4060   51.4340 N   0  0  0  0  0  0  0  0  0  0  0  0
   37.6050   30.4800   45.7690 O   0  0  0  0  0  0  0  0  0  0  0  0
   35.8030   30.7360   44.1510 C   0  0  0  0  0  0  0  0  0  0  0  0
   36.2610   30.4100   45.4290 C   0  0  0  0  0  0  0  0  0  0  0  0
   35.2380   30.0310   46.2440 C   0  0  0  0  0  0  0  0  0  0  0  0
   33.9090   29.9660   45.8890 C   0  0  0  0  0  0  0  0  0  0  0  0
   33.5260   30.2970   44.6240 C   0  0  0  0  0  0  0  0  0  0  0  0
   34.4940   30.6900   43.7350 C   0  0  0  0  0  0  0  0  0  0  0  0
   32.1600   30.1640   44.4770 O   0  0  0  0  0  0  0  0  0  0  0  0
   31.6140   30.0560   45.7800 C   0  0  0  0  0  0  0  0  0  0  0  0
   32.7320   29.6160   46.5440 O   0  0  0  0  0  0  0  0  0  0  0  0
   37.8969   31.9904   44.5535 H   0  0  0  0  0  0  0  0  0  0  0  0
   38.1248   33.2902   46.3945 H   0  0  0  0  0  0  0  0  0  0  0  0
   40.3366   33.5459   45.2178 H   0  0  0  0  0  0  0  0  0  0  0  0
   40.8533   33.3027   46.8595 H   0  0  0  0  0  0  0  0  0  0  0  0
   39.8567   29.8307   45.3423 H   0  0  0  0  0  0  0  0  0  0  0  0
   39.9938   30.9089   43.9276 H   0  0  0  0  0  0  0  0  0  0  0  0
   36.5729   32.7840   48.5579 H   0  0  0  0  0  0  0  0  0  0  0  0
   38.9052   34.1727   48.4762 H   0  0  0  0  0  0  0  0  0  0  0  0
   39.4852   33.3860   49.6916 H   0  0  0  0  0  0  0  0  0  0  0  0
   39.2707   31.0075   47.6342 H   0  0  0  0  0  0  0  0  0  0  0  0
   34.5385   29.3599   50.3372 H   0  0  0  0  0  0  0  0  0  0  0  0
   35.2310   31.1043   48.7205 H   0  0  0  0  0  0  0  0  0  0  0  0
   38.2743   29.6602   52.3542 H   0  0  0  0  0  0  0  0  0  0  0  0
   36.5540   31.0571   43.4142 H   0  0  0  0  0  0  0  0  0  0  0  0
   35.4958   29.7523   47.2764 H   0  0  0  0  0  0  0  0  0  0  0  0
   34.2263   30.9644   42.7040 H   0  0  0  0  0  0  0  0  0  0  0  0
   31.2446   31.0281   46.1386 H   0  0  0  0  0  0  0  0  0  0  0  0
   30.7478   29.3806   45.8392 H   0  0  0  0  0  0  0  0  0  0  0  0
  1 15  1  0
  1  2  1  0
  2  8  1  0
  3  2  1  0
  4  3  1  0
  5  1  1  0
  5  4  1  0
  6  7  1  0
  6 11  1  0
  8  6  1  0
  8  7  1  0
  9 14  2  0
 10 11  2  0
 10  9  1  0
 11 12  1  0
 12 13  2  0
 14 13  1  0
 16 17  2  0
 17 15  1  0
 17 18  1  0
 19 18  2  0
 19 24  1  0
 20 19  1  0
 21 16  1  0
 21 20  2  0
 22 20  1  0
 22 23  1  0
 23 24  1  0
  1 25  1  6
  2 26  1  1
  3 27  1  0
  3 28  1  0
  5 29  1  0
  5 30  1  0
  6 31  1  6
  7 32  1  0
  7 33  1  0
  8 34  1  1
  9 35  1  0
 10 36  1  0
 13 37  1  0
 16 38  1  0
 18 39  1  0
 21 40  1  0
 23 41  1  0
 23 42  1  0
M  ISO  8  25  13  26  13  27  13  28  13  29  13  30  13  31  13  32  13
M  ISO  8  33  13  34  13  35  14  36  14  37  14  38  14  39  14  40  14
M  ISO  2  41  13  42  13
M  END
>  <minimizedAffinity>  (1) 
-5.99148655

>  <minimizedRMSD>  (1) 
1.14702332

$$$$
