
     RDKit          3D

 53 58  0  0  1  0  0  0  0  0999 V2000
   38.3650   31.6060   44.4080 N   0  0  0  0  0  0  0  0  0  0  0  0
   38.8930   32.9260   44.7020 C   0  0  0  0  0  0  0  0  0  0  0  0
   39.9300   33.2100   43.6280 C   0  0  0  0  0  0  0  0  0  0  0  0
   39.2880   33.0160   42.3750 N   0  0  0  0  0  0  0  0  0  0  0  0
   38.9700   31.6510   42.1170 C   0  0  0  0  0  0  0  0  0  0  0  0
   39.0370   30.8210   43.3820 C   0  0  2  0  0  0  0  0  0  0  0  0
   38.6370   31.2260   47.3250 Cl  0  0  0  0  0  0  0  0  0  0  0  0
   37.2260   30.7620   46.4170 C   0  0  0  0  0  0  0  0  0  0  0  0
   36.1800   30.1940   47.0570 C   0  0  0  0  0  0  0  0  0  0  0  0
   35.0840   29.8820   46.2550 C   0  0  0  0  0  0  0  0  0  0  0  0
   35.0000   30.1030   44.9150 C   0  0  0  0  0  0  0  0  0  0  0  0
   36.0950   30.6840   44.3070 C   0  0  0  0  0  0  0  0  0  0  0  0
   37.2210   31.0190   45.0600 C   0  0  0  0  0  0  0  0  0  0  0  0
   37.4580   29.7930   50.5670 C   0  0  0  0  0  0  0  0  0  0  0  0
   37.4410   30.0260   49.1840 C   0  0  0  0  0  0  0  0  0  0  0  0
   36.2330   29.9460   48.4760 C   0  0  0  0  0  0  0  0  0  0  0  0
   35.1070   29.6330   49.1910 N   0  0  0  0  0  0  0  0  0  0  0  0
   35.1420   29.4110   50.5160 C   0  0  0  0  0  0  0  0  0  0  0  0
   36.3090   29.4880   51.2130 N   0  0  0  0  0  0  0  0  0  0  0  0
   38.4590   29.4720   43.2730 C   0  0  0  0  0  0  0  0  0  0  0  0
   39.2150   28.4380   42.5300 C   0  0  2  0  0  0  0  0  0  0  0  0
   40.6770   28.6280   42.4000 C   0  0  0  0  0  0  0  0  0  0  0  0
   40.9970   29.0140   41.0510 N   0  0  0  0  0  0  0  0  0  0  0  0
   41.4980   29.6640   39.8890 C   0  0  2  0  0  0  0  0  0  0  0  0
   42.4100   30.5260   39.6630 O   0  0  0  0  0  0  0  0  0  0  0  0
   40.5510   28.9680   38.9590 C   0  0  0  0  0  0  0  0  0  0  0  0
   40.3640   28.0770   40.1410 C   0  0  1  0  0  0  0  0  0  0  0  0
   38.6640   28.1270   40.8430 S   0  0  0  0  0  0  0  0  0  0  0  0
   38.9820   27.1340   43.2790 C   0  0  0  0  0  0  0  0  0  0  0  0
   38.0893   33.6762   44.6654 H   0  0  0  0  0  0  0  0  0  0  0  0
   39.3332   32.9692   45.7091 H   0  0  0  0  0  0  0  0  0  0  0  0
   40.2890   34.2463   43.7130 H   0  0  0  0  0  0  0  0  0  0  0  0
   40.7993   32.5442   43.7331 H   0  0  0  0  0  0  0  0  0  0  0  0
   38.4157   33.5637   42.3650 H   0  0  0  0  0  0  0  0  0  0  0  0
   37.9523   31.5923   41.7036 H   0  0  0  0  0  0  0  0  0  0  0  0
   39.7047   31.2529   41.4016 H   0  0  0  0  0  0  0  0  0  0  0  0
   40.0916   30.6209   43.6223 H   0  0  0  0  0  0  0  0  0  0  0  0
   34.2152   29.4189   46.7456 H   0  0  0  0  0  0  0  0  0  0  0  0
   34.1010   29.8312   44.3424 H   0  0  0  0  0  0  0  0  0  0  0  0
   36.0797   30.8835   43.2253 H   0  0  0  0  0  0  0  0  0  0  0  0
   38.4036   29.8581   51.1253 H   0  0  0  0  0  0  0  0  0  0  0  0
   38.3740   30.2712   48.6553 H   0  0  0  0  0  0  0  0  0  0  0  0
   34.2111   29.1626   51.0469 H   0  0  0  0  0  0  0  0  0  0  0  0
   38.3153   29.0964   44.2969 H   0  0  0  0  0  0  0  0  0  0  0  0
   37.5453   29.6175   42.6781 H   0  0  0  0  0  0  0  0  0  0  0  0
   41.0067   29.4154   43.0938 H   0  0  0  0  0  0  0  0  0  0  0  0
   41.1901   27.6853   42.6411 H   0  0  0  0  0  0  0  0  0  0  0  0
   42.7663   30.8627   40.5231 H   0  0  0  0  0  0  0  0  0  0  0  0
   39.6681   29.5482   38.6528 H   0  0  0  0  0  0  0  0  0  0  0  0
   40.8143   28.6170   37.9503 H   0  0  0  0  0  0  0  0  0  0  0  0
   39.0156   27.3223   44.3622 H   0  0  0  0  0  0  0  0  0  0  0  0
   37.9968   26.7265   43.0081 H   0  0  0  0  0  0  0  0  0  0  0  0
   39.7651   26.4106   43.0081 H   0  0  0  0  0  0  0  0  0  0  0  0
  1  2  1  0
  1 13  1  0
  3  2  1  0
  4  3  1  0
  5  4  1  0
  5  6  1  0
  6  1  1  0
  8  9  2  0
  8  7  1  0
  9 16  1  0
 10  9  1  0
 11 10  2  0
 12 11  1  0
 12 13  2  0
 13  8  1  0
 14 19  2  0
 15 14  1  0
 16 15  2  0
 16 17  1  0
 17 18  2  0
 18 19  1  0
 20  6  1  0
 21 20  1  1
 21 29  1  0
 22 21  1  0
 23 22  1  0
 24 25  1  1
 24 27  1  0
 24 23  1  0
 26 24  1  0
 27 26  1  0
 27 28  1  6
 27 23  1  0
 28 21  1  0
  2 30  1  0
  2 31  1  0
  3 32  1  0
  3 33  1  0
  4 34  1  0
  5 35  1  0
  5 36  1  0
  6 37  1  1
 10 38  1  0
 11 39  1  0
 12 40  1  0
 14 41  1  0
 15 42  1  0
 18 43  1  0
 20 44  1  0
 20 45  1  0
 22 46  1  0
 22 47  1  0
 25 48  1  0
 26 49  1  0
 26 50  1  0
 29 51  1  0
 29 52  1  0
 29 53  1  0
M  ISO  8  30  13  31  13  32  13  33  13  34   5  35  13  36  13  37  13
M  ISO  8  38  14  39  14  40  14  41  14  42  14  43  14  44   8  45   8
M  ISO  8  46  13  47  13  48   3  49  13  50  13  51   8  52   8  53   8
M  END
>  <minimizedAffinity>  (1) 
-6.02773857

>  <minimizedRMSD>  (1) 
1.02657819

$$$$
