
     RDKit          3D

 50 53  0  0  1  0  0  0  0  0999 V2000
   33.0550   27.0680   47.7850 C   0  0  1  0  0  0  0  0  0  0  0  0
   33.4070   28.4300   48.3460 C   0  0  2  0  0  0  0  0  0  0  0  0
   33.7040   29.3300   47.1960 C   0  0  0  0  0  0  0  0  0  0  0  0
   33.5940   28.7090   45.9700 O   0  0  0  0  0  0  0  0  0  0  0  0
   32.3160   28.1870   45.7590 C   0  0  0  0  0  0  0  0  0  0  0  0
   31.8760   27.2800   46.8560 C   0  0  2  0  0  0  0  0  0  0  0  0
   34.0910   26.5500   47.0170 O   0  0  0  0  0  0  0  0  0  0  0  0
   34.8070   28.3410   49.4950 S   0  0  0  0  0  0  0  0  0  0  0  0
   35.2110   29.9880   50.1170 C   0  0  0  0  0  0  0  0  0  0  0  0
   36.9290   30.2000   50.5560 S   0  0  0  0  0  0  0  0  0  0  0  0
   37.7710   31.0170   49.2030 C   0  0  0  0  0  0  0  0  0  0  0  0
   38.2130   32.2920   49.4920 C   0  0  0  0  0  0  0  0  0  0  0  0
   38.8850   33.0050   48.4870 C   0  0  0  0  0  0  0  0  0  0  0  0
   39.0590   32.3870   47.2800 N   0  0  0  0  0  0  0  0  0  0  0  0
   38.6000   31.1360   47.0650 C   0  0  0  0  0  0  0  0  0  0  0  0
   37.9710   30.4610   47.9990 N   0  0  0  0  0  0  0  0  0  0  0  0
   30.8880   27.9120   47.6410 O   0  0  0  0  0  0  0  0  0  0  0  0
   29.7550   27.1480   47.7530 C   0  0  0  0  0  0  0  0  0  0  0  0
   28.7780   27.8910   48.6740 C   0  0  1  0  0  0  0  0  0  0  0  0
   28.4230   29.1760   47.9780 C   0  0  0  0  0  0  0  0  0  0  0  0
   27.0830   29.5210   48.3300 N   0  0  0  0  0  0  0  0  0  0  0  0
   25.9240   30.2420   48.7930 C   0  0  0  0  0  0  0  0  0  0  0  0
   25.6690   31.4750   48.8970 O   0  0  0  0  0  0  0  0  0  0  0  0
   25.1930   28.9670   49.0810 C   0  0  0  0  0  0  0  0  0  0  0  0
   26.1680   28.4230   48.0670 C   0  0  2  0  0  0  0  0  0  0  0  0
   27.1740   27.0330   48.6740 S   0  0  0  0  0  0  0  0  0  0  0  0
   29.3500   28.0510   50.0390 C   0  0  0  0  0  0  0  0  0  0  0  0
   32.8466   26.3741   48.6127 H   0  0  0  0  0  0  0  0  0  0  0  0
   32.5610   28.8243   48.9281 H   0  0  0  0  0  0  0  0  0  0  0  0
   32.9994   30.1742   47.2233 H   0  0  0  0  0  0  0  0  0  0  0  0
   34.7493   29.6561   47.3014 H   0  0  0  0  0  0  0  0  0  0  0  0
   31.6030   29.0214   45.6852 H   0  0  0  0  0  0  0  0  0  0  0  0
   32.3480   27.5955   44.8321 H   0  0  0  0  0  0  0  0  0  0  0  0
   31.4961   26.3464   46.4153 H   0  0  0  0  0  0  0  0  0  0  0  0
   34.7983   26.1963   47.6126 H   0  0  0  0  0  0  0  0  0  0  0  0
   34.9603   30.7227   49.3377 H   0  0  0  0  0  0  0  0  0  0  0  0
   34.6279   30.1310   51.0387 H   0  0  0  0  0  0  0  0  0  0  0  0
   38.0432   32.7375   50.4833 H   0  0  0  0  0  0  0  0  0  0  0  0
   39.2583   34.0245   48.6642 H   0  0  0  0  0  0  0  0  0  0  0  0
   38.7571   30.6697   46.0812 H   0  0  0  0  0  0  0  0  0  0  0  0
   29.3001   27.0056   46.7617 H   0  0  0  0  0  0  0  0  0  0  0  0
   29.9979   26.1587   48.1682 H   0  0  0  0  0  0  0  0  0  0  0  0
   28.4988   29.0423   46.8888 H   0  0  0  0  0  0  0  0  0  0  0  0
   29.1132   29.9760   48.2840 H   0  0  0  0  0  0  0  0  0  0  0  0
   25.2973   28.5756   50.1037 H   0  0  0  0  0  0  0  0  0  0  0  0
   24.1011   28.8472   49.0232 H   0  0  0  0  0  0  0  0  0  0  0  0
   25.7310   28.1356   47.0993 H   0  0  0  0  0  0  0  0  0  0  0  0
   28.5751   27.8342   50.7890 H   0  0  0  0  0  0  0  0  0  0  0  0
   30.1907   27.3536   50.1683 H   0  0  0  0  0  0  0  0  0  0  0  0
   29.7069   29.0834   50.1683 H   0  0  0  0  0  0  0  0  0  0  0  0
  1  2  1  0
  2  8  1  0
  3  2  1  0
  4  3  1  0
  5  4  1  0
  5  6  1  0
  6 17  1  0
  6  1  1  0
  7  1  1  0
  8  9  1  0
  9 10  1  0
 11 12  2  0
 11 10  1  0
 13 12  1  0
 14 13  2  0
 15 14  1  0
 15 16  2  0
 16 11  1  0
 17 18  1  0
 19 18  1  6
 19 27  1  0
 20 21  1  0
 20 19  1  0
 21 22  1  0
 22 23  2  0
 22 24  1  0
 25 21  1  0
 25 26  1  0
 25 24  1  0
 26 19  1  0
  1 28  1  1
  2 29  1  1
  3 30  1  0
  3 31  1  0
  5 32  1  0
  5 33  1  0
  6 34  1  6
  7 35  1  0
  9 36  1  0
  9 37  1  0
 12 38  1  0
 13 39  1  0
 15 40  1  0
 18 41  1  0
 18 42  1  0
 20 43  1  0
 20 44  1  0
 24 45  1  0
 24 46  1  0
 25 47  1  6
 27 48  1  0
 27 49  1  0
 27 50  1  0
M  ISO  8  28  13  29  13  30  13  31  13  32  13  33  13  34  13  35   3
M  ISO  8  36   8  37   8  38  14  39  14  40  14  41   8  42   8  43  13
M  ISO  7  44  13  45  13  46  13  47  13  48   8  49   8  50   8
M  END
>  <minimizedAffinity>  (1) 
-6.13073015

>  <minimizedRMSD>  (1) 
1.36298621

$$$$
