
     RDKit          3D

 57 61  0  0  1  0  0  0  0  0999 V2000
   34.7820   30.5150   49.7910 C   0  0  0  0  0  0  0  0  0  0  0  0
   34.4460   27.7840   49.9120 F   0  0  0  0  0  0  0  0  0  0  0  0
   34.3230   28.4230   48.7040 C   0  0  0  0  0  0  0  0  0  0  0  0
   34.4720   29.8000   48.5240 C   0  0  0  0  0  0  0  0  0  0  0  0
   34.3360   30.3730   47.2950 C   0  0  0  0  0  0  0  0  0  0  0  0
   34.0420   29.5900   46.1740 C   0  0  0  0  0  0  0  0  0  0  0  0
   33.8900   28.2310   46.3220 C   0  0  0  0  0  0  0  0  0  0  0  0
   34.0320   27.6650   47.5860 C   0  0  0  0  0  0  0  0  0  0  0  0
   33.8670   26.2820   47.6780 O   0  0  0  0  0  0  0  0  0  0  0  0
   33.6910   25.4650   46.5390 C   0  0  0  0  0  0  0  0  0  0  0  0
   32.4010   24.6730   46.7980 C   0  0  2  0  0  0  0  0  0  0  0  0
   32.6730   23.6950   47.8940 C   0  0  0  0  0  0  0  0  0  0  0  0
   32.1800   22.4070   47.5250 N   0  0  0  0  0  0  0  0  0  0  0  0
   31.5160   21.1480   47.4890 C   0  0  0  0  0  0  0  0  0  0  0  0
   30.9350   20.4570   48.3700 O   0  0  0  0  0  0  0  0  0  0  0  0
   31.7400   20.9180   46.0460 C   0  0  0  0  0  0  0  0  0  0  0  0
   32.7220   22.0440   46.2100 C   0  0  1  0  0  0  0  0  0  0  0  0
   32.2210   23.5810   45.3350 S   0  0  0  0  0  0  0  0  0  0  0  0
   31.2320   25.5680   47.0020 C   0  0  0  0  0  0  0  0  0  0  0  0
   36.4880   30.0890   50.2370 S   0  0  0  0  0  0  0  0  0  0  0  0
   38.7290   32.8560   48.3440 C   0  0  0  0  0  0  0  0  0  0  0  0
   39.0400   32.1900   47.1450 C   0  0  0  0  0  0  0  0  0  0  0  0
   38.5400   30.9320   46.9950 C   0  0  0  0  0  0  0  0  0  0  0  0
   37.7800   30.3930   47.9930 N   0  0  0  0  0  0  0  0  0  0  0  0
   37.5140   31.0400   49.0900 C   0  0  0  0  0  0  0  0  0  0  0  0
   37.9820   32.3180   49.3190 N   0  0  0  0  0  0  0  0  0  0  0  0
   39.8040   32.8340   46.2330 O   0  0  0  0  0  0  0  0  0  0  0  0
   39.9540   32.2970   44.9660 C   0  0  0  0  0  0  0  0  0  0  0  0
   40.6540   31.1680   44.6070 C   0  0  0  0  0  0  0  0  0  0  0  0
   40.7000   30.7830   43.3240 C   0  0  0  0  0  0  0  0  0  0  0  0
   40.0450   31.5250   42.3890 C   0  0  0  0  0  0  0  0  0  0  0  0
   39.3340   32.6730   42.7630 C   0  0  0  0  0  0  0  0  0  0  0  0
   39.2980   33.0520   44.0740 N   0  0  0  0  0  0  0  0  0  0  0  0
   38.6000   33.5060   41.7120 C   0  0  0  0  0  0  0  0  0  0  0  0
   34.0923   30.1928   50.5850 H   0  0  0  0  0  0  0  0  0  0  0  0
   34.6688   31.6020   49.6660 H   0  0  0  0  0  0  0  0  0  0  0  0
   34.4585   31.4605   47.1837 H   0  0  0  0  0  0  0  0  0  0  0  0
   33.9334   30.0564   45.1837 H   0  0  0  0  0  0  0  0  0  0  0  0
   33.6590   27.5988   45.4519 H   0  0  0  0  0  0  0  0  0  0  0  0
   33.5878   26.0829   45.6348 H   0  0  0  0  0  0  0  0  0  0  0  0
   34.5523   24.8005   46.3762 H   0  0  0  0  0  0  0  0  0  0  0  0
   33.7573   23.6348   48.0691 H   0  0  0  0  0  0  0  0  0  0  0  0
   32.1676   24.0283   48.8124 H   0  0  0  0  0  0  0  0  0  0  0  0
   30.8809   21.1270   45.3916 H   0  0  0  0  0  0  0  0  0  0  0  0
   31.9893   19.9402   45.6081 H   0  0  0  0  0  0  0  0  0  0  0  0
   33.7595   21.7762   45.9611 H   0  0  0  0  0  0  0  0  0  0  0  0
   31.0566   25.7023   48.0796 H   0  0  0  0  0  0  0  0  0  0  0  0
   31.4331   26.5452   46.5387 H   0  0  0  0  0  0  0  0  0  0  0  0
   30.3411   25.1189   46.5387 H   0  0  0  0  0  0  0  0  0  0  0  0
   39.1199   33.8738   48.4899 H   0  0  0  0  0  0  0  0  0  0  0  0
   38.7461   30.3568   46.0803 H   0  0  0  0  0  0  0  0  0  0  0  0
   41.1773   30.5798   45.3752 H   0  0  0  0  0  0  0  0  0  0  0  0
   41.2582   29.8816   43.0310 H   0  0  0  0  0  0  0  0  0  0  0  0
   40.0742   31.2210   41.3322 H   0  0  0  0  0  0  0  0  0  0  0  0
   37.9526   34.2407   42.2131 H   0  0  0  0  0  0  0  0  0  0  0  0
   39.3335   34.0321   41.0834 H   0  0  0  0  0  0  0  0  0  0  0  0
   37.9858   32.8445   41.0834 H   0  0  0  0  0  0  0  0  0  0  0  0
  1 20  1  0
  3  2  1  0
  4  3  2  0
  4  1  1  0
  5  4  1  0
  6  7  1  0
  6  5  2  0
  7  8  2  0
  8  9  1  0
  8  3  1  0
 10  9  1  0
 11 10  1  6
 11 19  1  0
 11 12  1  0
 13 12  1  0
 14 13  1  0
 14 15  2  0
 16 17  1  0
 16 14  1  0
 17 18  1  0
 17 13  1  0
 18 11  1  0
 21 26  2  0
 22 21  1  0
 23 22  2  0
 23 24  1  0
 24 25  2  0
 25 26  1  0
 25 20  1  0
 27 22  1  0
 28 27  1  0
 29 28  2  0
 30 29  1  0
 31 32  1  0
 31 30  2  0
 32 33  2  0
 33 28  1  0
 34 32  1  0
  1 35  1  0
  1 36  1  0
  5 37  1  0
  6 38  1  0
  7 39  1  0
 10 40  1  0
 10 41  1  0
 12 42  1  0
 12 43  1  0
 16 44  1  0
 16 45  1  0
 17 46  1  1
 19 47  1  0
 19 48  1  0
 19 49  1  0
 21 50  1  0
 23 51  1  0
 29 52  1  0
 30 53  1  0
 31 54  1  0
 34 55  1  0
 34 56  1  0
 34 57  1  0
M  ISO  8  35   8  36   8  37  14  38  14  39  14  40   8  41   8  42  13
M  ISO  8  43  13  44  13  45  13  46  13  47   8  48   8  49   8  50  14
M  ISO  7  51  14  52  14  53  14  54  14  55   8  56   8  57   8
M  END
>  <minimizedAffinity>  (1) 
-6.21816158

>  <minimizedRMSD>  (1) 
0.6323843

$$$$
