
     RDKit          3D

 56 61  0  0  1  0  0  0  0  0999 V2000
   39.5270   32.9790   43.7520 C   0  0  0  0  0  0  0  0  0  0  0  0
   38.1020   29.8020   43.1570 C   0  0  1  0  0  0  0  0  0  0  0  0
   38.0800   31.2450   42.7180 C   0  0  0  0  0  0  0  0  0  0  0  0
   39.4930   31.6660   42.9980 C   0  0  2  0  0  0  0  0  0  0  0  0
   40.1130   30.6470   43.6640 O   0  0  0  0  0  0  0  0  0  0  0  0
   39.1350   29.8480   44.2500 C   0  0  0  0  0  0  0  0  0  0  0  0
   36.8550   29.3870   43.6330 O   0  0  0  0  0  0  0  0  0  0  0  0
   36.2900   28.4200   42.8510 C   0  0  0  0  0  0  0  0  0  0  0  0
   34.7790   28.4120   43.1220 C   0  0  1  0  0  0  0  0  0  0  0  0
   34.4190   27.8130   44.4020 C   0  0  0  0  0  0  0  0  0  0  0  0
   33.5250   28.5780   45.1430 N   0  0  0  0  0  0  0  0  0  0  0  0
   32.7800   28.9820   46.2600 C   0  0  1  0  0  0  0  0  0  0  0  0
   32.1760   28.5230   47.2600 O   0  0  0  0  0  0  0  0  0  0  0  0
   32.9830   30.3930   45.7710 C   0  0  0  0  0  0  0  0  0  0  0  0
   32.9000   29.6810   44.4600 C   0  0  2  0  0  0  0  0  0  0  0  0
   34.1490   30.1090   43.2230 S   0  0  0  0  0  0  0  0  0  0  0  0
   34.1150   27.6890   41.9550 C   0  0  0  0  0  0  0  0  0  0  0  0
   40.6360   32.7350   45.1770 S   0  0  0  0  0  0  0  0  0  0  0  0
   37.7200   31.6720   47.6480 C   0  0  0  0  0  0  0  0  0  0  0  0
   37.9010   32.4990   48.7630 C   0  0  0  0  0  0  0  0  0  0  0  0
   38.9260   33.4180   48.8060 C   0  0  0  0  0  0  0  0  0  0  0  0
   39.7460   33.4700   47.7020 C   0  0  0  0  0  0  0  0  0  0  0  0
   39.5490   32.6580   46.6310 C   0  0  0  0  0  0  0  0  0  0  0  0
   38.5440   31.7480   46.5760 N   0  0  0  0  0  0  0  0  0  0  0  0
   36.6250   30.7370   47.6790 C   0  0  0  0  0  0  0  0  0  0  0  0
   36.0980   30.3380   46.6430 O   0  0  0  0  0  0  0  0  0  0  0  0
   36.9820   29.6540   49.8650 C   0  0  0  0  0  0  0  0  0  0  0  0
   36.0810   30.2090   48.9450 C   0  0  0  0  0  0  0  0  0  0  0  0
   34.7220   30.2460   49.2490 C   0  0  0  0  0  0  0  0  0  0  0  0
   34.3010   29.7360   50.4440 N   0  0  0  0  0  0  0  0  0  0  0  0
   35.1900   29.2040   51.3150 C   0  0  0  0  0  0  0  0  0  0  0  0
   36.4840   29.1690   51.0270 N   0  0  0  0  0  0  0  0  0  0  0  0
   38.5171   33.2436   44.0984 H   0  0  0  0  0  0  0  0  0  0  0  0
   39.8838   33.7963   43.1080 H   0  0  0  0  0  0  0  0  0  0  0  0
   38.3301   29.0868   42.3530 H   0  0  0  0  0  0  0  0  0  0  0  0
   37.3614   31.8332   43.3076 H   0  0  0  0  0  0  0  0  0  0  0  0
   37.7679   31.3907   41.6733 H   0  0  0  0  0  0  0  0  0  0  0  0
   40.0386   31.8530   42.0613 H   0  0  0  0  0  0  0  0  0  0  0  0
   38.7336   30.3080   45.1650 H   0  0  0  0  0  0  0  0  0  0  0  0
   39.4937   28.8600   44.5742 H   0  0  0  0  0  0  0  0  0  0  0  0
   36.7193   27.4389   43.1023 H   0  0  0  0  0  0  0  0  0  0  0  0
   36.4861   28.6257   41.7883 H   0  0  0  0  0  0  0  0  0  0  0  0
   33.9609   26.8315   44.2100 H   0  0  0  0  0  0  0  0  0  0  0  0
   35.3435   27.7349   44.9929 H   0  0  0  0  0  0  0  0  0  0  0  0
   32.6093   28.8523   48.0870 H   0  0  0  0  0  0  0  0  0  0  0  0
   32.1726   31.1039   45.9896 H   0  0  0  0  0  0  0  0  0  0  0  0
   33.7962   31.0654   46.0818 H   0  0  0  0  0  0  0  0  0  0  0  0
   33.4185   26.9306   42.3420 H   0  0  0  0  0  0  0  0  0  0  0  0
   33.5623   28.4149   41.3406 H   0  0  0  0  0  0  0  0  0  0  0  0
   34.8853   27.1999   41.3406 H   0  0  0  0  0  0  0  0  0  0  0  0
   37.2141   32.4135   49.6179 H   0  0  0  0  0  0  0  0  0  0  0  0
   39.0807   34.0744   49.6751 H   0  0  0  0  0  0  0  0  0  0  0  0
   40.5808   34.1861   47.6865 H   0  0  0  0  0  0  0  0  0  0  0  0
   38.0599   29.6139   49.6494 H   0  0  0  0  0  0  0  0  0  0  0  0
   34.0010   30.6781   48.5394 H   0  0  0  0  0  0  0  0  0  0  0  0
   34.8350   28.7959   52.2729 H   0  0  0  0  0  0  0  0  0  0  0  0
  1 18  1  0
  2  7  1  0
  2  6  1  0
  3  4  1  0
  3  2  1  0
  4  5  1  0
  4  1  1  0
  5  6  1  0
  9  8  1  6
  8  7  1  0
  9 17  1  0
  9 16  1  0
  9 10  1  0
 11 10  1  0
 11 12  1  0
 12 13  1  6
 14 12  1  0
 15 16  1  6
 15 11  1  0
 15 14  1  0
 15 12  1  0
 18 23  1  0
 19 25  1  0
 19 20  2  0
 20 21  1  0
 22 21  2  0
 23 22  1  0
 24 23  2  0
 24 19  1  0
 25 28  1  0
 26 25  2  0
 27 32  2  0
 28 29  2  0
 28 27  1  0
 29 30  1  0
 30 31  2  0
 32 31  1  0
  1 33  1  0
  1 34  1  0
  2 35  1  6
  3 36  1  0
  3 37  1  0
  4 38  1  6
  6 39  1  0
  6 40  1  0
  8 41  1  0
  8 42  1  0
 10 43  1  0
 10 44  1  0
 13 45  1  0
 14 46  1  0
 14 47  1  0
 17 48  1  0
 17 49  1  0
 17 50  1  0
 20 51  1  0
 21 52  1  0
 22 53  1  0
 27 54  1  0
 29 55  1  0
 31 56  1  0
M  ISO  8  33   8  34   8  35  13  36  13  37  13  38  13  39  13  40  13
M  ISO  8  41   8  42   8  43  13  44  13  45   3  46  13  47  13  48   8
M  ISO  8  49   8  50   8  51  14  52  14  53  14  54  14  55  14  56  14
M  END
>  <minimizedAffinity>  (1) 
-5.4683466

>  <minimizedRMSD>  (1) 
2.20385885

$$$$
