
     RDKit          3D

 42 44  0  0  1  0  0  0  0  0999 V2000
   31.3160   26.6050   46.5500 O   0  0  0  0  0  0  0  0  0  0  0  0
   30.8390   27.5020   47.7100 P   0  0  2  0  0  0  0  0  0  0  0  0
   30.5940   29.0780   47.1940 O   0  0  0  0  0  0  0  0  0  0  0  0
   32.1730   27.4770   48.7830 O   0  0  0  0  0  0  0  0  0  0  0  0
   33.3240   27.2160   48.0270 C   0  0  0  0  0  0  0  0  0  0  0  0
   34.7030   28.3860   49.7180 C   0  0  0  0  0  0  0  0  0  0  0  0
   34.4710   28.0330   48.4830 C   0  0  0  0  0  0  0  0  0  0  0  0
   37.3740   30.2430   51.4150 C   0  0  0  0  0  0  0  0  0  0  0  0
   38.1310   30.7190   50.3430 C   0  0  0  0  0  0  0  0  0  0  0  0
   37.7180   30.3980   49.0550 C   0  0  0  0  0  0  0  0  0  0  0  0
   36.5810   29.6270   48.9250 N   0  0  0  0  0  0  0  0  0  0  0  0
   35.8920   29.1960   49.9740 C   0  0  0  0  0  0  0  0  0  0  0  0
   36.2950   29.5090   51.2110 N   0  0  0  0  0  0  0  0  0  0  0  0
   29.4800   26.8310   48.4310 O   0  0  0  0  0  0  0  0  0  0  0  0
   29.4420   26.9940   49.8110 C   0  0  0  0  0  0  0  0  0  0  0  0
   28.1860   27.8100   50.0860 C   0  0  1  0  0  0  0  0  0  0  0  0
   28.5020   29.2360   50.0430 C   0  0  0  0  0  0  0  0  0  0  0  0
   27.5490   29.9740   49.3160 N   0  0  0  0  0  0  0  0  0  0  0  0
   26.6490   30.9810   48.9570 C   0  0  0  0  0  0  0  0  0  0  0  0
   26.4350   32.1930   49.2440 O   0  0  0  0  0  0  0  0  0  0  0  0
   25.9530   30.0560   48.0250 C   0  0  0  0  0  0  0  0  0  0  0  0
   27.2340   29.2990   48.1130 C   0  0  2  0  0  0  0  0  0  0  0  0
   27.0500   27.5700   48.6900 S   0  0  0  0  0  0  0  0  0  0  0  0
   27.5830   27.3320   51.3840 C   0  0  0  0  0  0  0  0  0  0  0  0
   30.5016   29.6721   47.9805 H   0  0  0  0  0  0  0  0  0  0  0  0
   33.1181   27.4471   46.9715 H   0  0  0  0  0  0  0  0  0  0  0  0
   33.5853   26.1549   48.1525 H   0  0  0  0  0  0  0  0  0  0  0  0
   34.0297   28.0855   50.5343 H   0  0  0  0  0  0  0  0  0  0  0  0
   35.1864   28.3702   47.7185 H   0  0  0  0  0  0  0  0  0  0  0  0
   37.6804   30.4825   52.4440 H   0  0  0  0  0  0  0  0  0  0  0  0
   39.0292   31.3310   50.5127 H   0  0  0  0  0  0  0  0  0  0  0  0
   38.2763   30.7454   48.1731 H   0  0  0  0  0  0  0  0  0  0  0  0
   29.3839   26.0168   50.3127 H   0  0  0  0  0  0  0  0  0  0  0  0
   30.3460   27.4935   50.1895 H   0  0  0  0  0  0  0  0  0  0  0  0
   28.5371   29.6215   51.0726 H   0  0  0  0  0  0  0  0  0  0  0  0
   29.4722   29.3500   49.5373 H   0  0  0  0  0  0  0  0  0  0  0  0
   25.0689   29.5447   48.4337 H   0  0  0  0  0  0  0  0  0  0  0  0
   25.4848   30.3689   47.0801 H   0  0  0  0  0  0  0  0  0  0  0  0
   27.8438   29.2650   47.1981 H   0  0  0  0  0  0  0  0  0  0  0  0
   28.1356   27.7700   52.2283 H   0  0  0  0  0  0  0  0  0  0  0  0
   26.5290   27.6426   51.4350 H   0  0  0  0  0  0  0  0  0  0  0  0
   27.6448   26.2349   51.4350 H   0  0  0  0  0  0  0  0  0  0  0  0
  2  1  2  0
  2 14  1  0
  2  4  1  0
  3  2  1  0
  5  7  1  0
  5  4  1  0
  6 12  1  0
  7  6  2  0
  9  8  2  0
 10  9  1  0
 11 10  2  0
 11 12  1  0
 12 13  2  0
 13  8  1  0
 14 15  1  0
 16 15  1  6
 16 24  1  0
 17 16  1  0
 18 17  1  0
 19 20  2  0
 19 18  1  0
 21 19  1  0
 22 21  1  0
 22 23  1  0
 22 18  1  0
 23 16  1  0
  3 25  1  0
  5 26  1  0
  5 27  1  0
  6 28  1  0
  7 29  1  0
  8 30  1  0
  9 31  1  0
 10 32  1  0
 15 33  1  0
 15 34  1  0
 17 35  1  0
 17 36  1  0
 21 37  1  0
 21 38  1  0
 22 39  1  6
 24 40  1  0
 24 41  1  0
 24 42  1  0
M  ISO  8  25   3  26   8  27   8  30  14  31  14  32  14  33   8  34   8
M  ISO  8  35  13  36  13  37  13  38  13  39  13  40   8  41   8  42   8
M  END
>  <minimizedAffinity>  (1) 
-6.29066324

>  <minimizedRMSD>  (1) 
2.18965816

$$$$
