
     RDKit          3D

 38 41  0  0  1  0  0  0  0  0999 V2000
   36.7110   29.1880   50.5020 C   0  0  0  0  0  0  0  0  0  0  0  0
   37.2060   29.6440   49.2760 C   0  0  0  0  0  0  0  0  0  0  0  0
   36.3050   30.2460   48.4160 C   0  0  0  0  0  0  0  0  0  0  0  0
   35.0040   30.3580   48.8110 N   0  0  0  0  0  0  0  0  0  0  0  0
   34.5630   29.9120   49.9920 C   0  0  0  0  0  0  0  0  0  0  0  0
   35.4240   29.3140   50.8600 N   0  0  0  0  0  0  0  0  0  0  0  0
   36.5600   30.7830   47.1200 N   0  0  0  0  0  0  0  0  0  0  0  0
   37.6820   31.6180   46.8030 C   0  0  0  0  0  0  0  0  0  0  0  0
   38.4280   31.3090   45.5700 C   0  0  0  0  0  0  0  0  0  0  0  0
   37.6260   30.8040   44.4100 C   0  0  0  0  0  0  0  0  0  0  0  0
   36.6060   29.8230   44.8960 C   0  0  0  0  0  0  0  0  0  0  0  0
   35.7660   30.5910   45.9430 C   0  0  1  0  0  0  0  0  0  0  0  0
   34.6140   28.3510   46.4100 C   0  0  0  0  0  0  0  0  0  0  0  0
   34.5700   29.7070   46.1730 C   0  0  0  0  0  0  0  0  0  0  0  0
   33.2790   30.2440   46.1600 C   0  0  0  0  0  0  0  0  0  0  0  0
   32.1140   29.5560   46.3530 C   0  0  0  0  0  0  0  0  0  0  0  0
   30.8300   29.9400   46.3660 N   0  0  0  0  0  0  0  0  0  0  0  0
   30.1010   28.8590   46.6020 N   0  0  0  0  0  0  0  0  0  0  0  0
   30.9070   27.7700   46.7430 C   0  0  0  0  0  0  0  0  0  0  0  0
   32.2240   28.2060   46.5840 C   0  0  0  0  0  0  0  0  0  0  0  0
   33.4690   27.6150   46.6100 C   0  0  0  0  0  0  0  0  0  0  0  0
   37.4072   28.7049   51.2034 H   0  0  0  0  0  0  0  0  0  0  0  0
   38.2664   29.5289   49.0071 H   0  0  0  0  0  0  0  0  0  0  0  0
   33.5031   30.0286   50.2623 H   0  0  0  0  0  0  0  0  0  0  0  0
   37.3114   32.6500   46.7150 H   0  0  0  0  0  0  0  0  0  0  0  0
   38.4006   31.4466   47.6181 H   0  0  0  0  0  0  0  0  0  0  0  0
   38.9371   32.2295   45.2483 H   0  0  0  0  0  0  0  0  0  0  0  0
   39.1024   30.4824   45.8383 H   0  0  0  0  0  0  0  0  0  0  0  0
   38.2947   30.3105   43.6894 H   0  0  0  0  0  0  0  0  0  0  0  0
   37.1179   31.6483   43.9212 H   0  0  0  0  0  0  0  0  0  0  0  0
   35.9699   29.4851   44.0646 H   0  0  0  0  0  0  0  0  0  0  0  0
   37.0736   28.9245   45.3251 H   0  0  0  0  0  0  0  0  0  0  0  0
   35.4460   31.5954   45.6286 H   0  0  0  0  0  0  0  0  0  0  0  0
   35.5895   27.8435   46.4401 H   0  0  0  0  0  0  0  0  0  0  0  0
   33.1927   31.3252   45.9766 H   0  0  0  0  0  0  0  0  0  0  0  0
   30.4762   30.8962   46.2199 H   0  0  0  0  0  0  0  0  0  0  0  0
   30.5811   26.7389   46.9446 H   0  0  0  0  0  0  0  0  0  0  0  0
   33.5486   26.5335   46.7943 H   0  0  0  0  0  0  0  0  0  0  0  0
  1  6  2  0
  2  1  1  0
  3  4  1  0
  3  2  2  0
  4  5  2  0
  5  6  1  0
  7  3  1  0
  8  7  1  0
  9  8  1  0
 10 11  1  0
 10  9  1  0
 11 12  1  0
 12 14  1  0
 12  7  1  0
 13 21  2  0
 14 13  1  0
 15 14  2  0
 15 16  1  0
 16 17  1  0
 16 20  2  0
 17 18  1  0
 18 19  2  0
 20 21  1  0
 20 19  1  0
  1 22  1  0
  2 23  1  0
  5 24  1  0
  8 25  1  0
  8 26  1  0
  9 27  1  0
  9 28  1  0
 10 29  1  0
 10 30  1  0
 11 31  1  0
 11 32  1  0
 12 33  1  6
 13 34  1  0
 15 35  1  0
 17 36  1  0
 19 37  1  0
 21 38  1  0
M  ISO  8  22  14  23  14  24  14  25  13  26  13  27  13  28  13  29  13
M  ISO  8  30  13  31  13  32  13  33  13  34  14  35  14  36   9  37  14
M  ISO  1  38  14
M  END
>  <minimizedAffinity>  (1) 
-4.6036725

>  <minimizedRMSD>  (1) 
3.12363291

$$$$
