
     RDKit          3D

 38 41  0  0  0  0  0  0  0  0999 V2000
   37.2850   30.1190   51.2990 C   0  0  0  0  0  0  0  0  0  0  0  0
   37.7990   30.7300   50.1260 C   0  0  0  0  0  0  0  0  0  0  0  0
   37.1700   30.4860   48.9230 C   0  0  0  0  0  0  0  0  0  0  0  0
   36.0870   29.6630   48.9770 N   0  0  0  0  0  0  0  0  0  0  0  0
   35.6090   29.0930   50.0770 C   0  0  0  0  0  0  0  0  0  0  0  0
   36.2190   29.3270   51.2510 N   0  0  0  0  0  0  0  0  0  0  0  0
   37.0610   30.7080   46.4520 C   0  0  0  0  0  0  0  0  0  0  0  0
   37.6140   31.0610   47.6610 C   0  0  0  0  0  0  0  0  0  0  0  0
   38.6290   31.9960   47.6840 C   0  0  0  0  0  0  0  0  0  0  0  0
   39.1110   32.5910   46.5350 C   0  0  0  0  0  0  0  0  0  0  0  0
   40.0590   33.5070   46.2340 N   0  0  0  0  0  0  0  0  0  0  0  0
   40.0660   33.6840   44.9240 N   0  0  0  0  0  0  0  0  0  0  0  0
   39.1340   32.8980   44.3570 C   0  0  0  0  0  0  0  0  0  0  0  0
   38.5150   32.1950   45.3620 C   0  0  0  0  0  0  0  0  0  0  0  0
   37.4990   31.2700   45.2620 C   0  0  0  0  0  0  0  0  0  0  0  0
   34.5080   28.3120   49.8350 O   0  0  0  0  0  0  0  0  0  0  0  0
   33.7030   28.5830   48.7030 C   0  0  0  0  0  0  0  0  0  0  0  0
   32.7830   27.4400   48.4120 C   0  0  0  0  0  0  0  0  0  0  0  0
   31.3560   27.8500   48.3790 C   0  0  0  0  0  0  0  0  0  0  0  0
   30.6420   27.7470   49.5570 C   0  0  0  0  0  0  0  0  0  0  0  0
   29.3170   28.0890   49.6760 C   0  0  0  0  0  0  0  0  0  0  0  0
   28.6870   28.5460   48.5950 N   0  0  0  0  0  0  0  0  0  0  0  0
   29.3800   28.6510   47.4350 C   0  0  0  0  0  0  0  0  0  0  0  0
   30.6850   28.3160   47.3110 N   0  0  0  0  0  0  0  0  0  0  0  0
   37.7776   30.3042   52.2650 H   0  0  0  0  0  0  0  0  0  0  0  0
   38.6813   31.3851   50.1751 H   0  0  0  0  0  0  0  0  0  0  0  0
   36.2525   29.9625   46.4284 H   0  0  0  0  0  0  0  0  0  0  0  0
   39.0695   32.2771   48.6519 H   0  0  0  0  0  0  0  0  0  0  0  0
   40.6713   33.9853   46.9102 H   0  0  0  0  0  0  0  0  0  0  0  0
   38.9080   32.8301   43.2826 H   0  0  0  0  0  0  0  0  0  0  0  0
   37.0596   30.9926   44.2925 H   0  0  0  0  0  0  0  0  0  0  0  0
   33.1049   29.4860   48.8950 H   0  0  0  0  0  0  0  0  0  0  0  0
   34.3604   28.7331   47.8339 H   0  0  0  0  0  0  0  0  0  0  0  0
   33.0497   27.0132   47.4339 H   0  0  0  0  0  0  0  0  0  0  0  0
   32.8997   26.7039   49.2211 H   0  0  0  0  0  0  0  0  0  0  0  0
   31.1634   27.3702   50.4493 H   0  0  0  0  0  0  0  0  0  0  0  0
   28.7910   27.9883   50.6368 H   0  0  0  0  0  0  0  0  0  0  0  0
   28.8531   29.0289   46.5464 H   0  0  0  0  0  0  0  0  0  0  0  0
  2  1  2  0
  3  4  2  0
  3  2  1  0
  4  5  1  0
  5  6  2  0
  6  1  1  0
  7  8  2  0
  8  9  1  0
  8  3  1  0
 10  9  2  0
 11 10  1  0
 12 11  1  0
 13 12  2  0
 13 14  1  0
 14 10  1  0
 15 14  2  0
 15  7  1  0
 16  5  1  0
 17 16  1  0
 18 17  1  0
 19 18  1  0
 19 20  2  0
 20 21  1  0
 22 21  2  0
 23 22  1  0
 24 23  2  0
 24 19  1  0
  1 25  1  0
  2 26  1  0
  7 27  1  0
  9 28  1  0
 11 29  1  0
 13 30  1  0
 15 31  1  0
 17 32  1  0
 17 33  1  0
 18 34  1  0
 18 35  1  0
 20 36  1  0
 21 37  1  0
 23 38  1  0
M  ISO  8  25  14  26  14  27  14  28  14  29   9  30  14  31  14  32   8
M  ISO  6  33   8  34   8  35   8  36  14  37  14  38  14
M  END
>  <minimizedAffinity>  (1) 
-6.89756918

>  <minimizedRMSD>  (1) 
0.784053445

$$$$
