
     RDKit          3D

 37 41  0  0  0  0  0  0  0  0999 V2000
   36.0660   30.1320   46.9800 C   0  0  0  0  0  0  0  0  0  0  0  0
   36.9440   30.6730   47.9040 C   0  0  0  0  0  0  0  0  0  0  0  0
   37.9400   31.5520   47.5040 C   0  0  0  0  0  0  0  0  0  0  0  0
   38.0010   31.8510   46.1390 C   0  0  0  0  0  0  0  0  0  0  0  0
   38.8730   32.6740   45.5030 N   0  0  0  0  0  0  0  0  0  0  0  0
   38.5510   32.6520   44.2030 C   0  0  0  0  0  0  0  0  0  0  0  0
   37.5090   31.8480   43.9980 N   0  0  0  0  0  0  0  0  0  0  0  0
   37.1460   31.3340   45.1900 C   0  0  0  0  0  0  0  0  0  0  0  0
   36.1540   30.4530   45.6240 C   0  0  0  0  0  0  0  0  0  0  0  0
   37.4250   30.1180   51.5920 C   0  0  0  0  0  0  0  0  0  0  0  0
   37.7080   30.5430   50.3050 C   0  0  0  0  0  0  0  0  0  0  0  0
   36.7870   30.2900   49.3010 C   0  0  0  0  0  0  0  0  0  0  0  0
   35.6350   29.6260   49.6410 N   0  0  0  0  0  0  0  0  0  0  0  0
   35.3980   29.2300   50.9070 C   0  0  0  0  0  0  0  0  0  0  0  0
   36.2770   29.4720   51.8640 N   0  0  0  0  0  0  0  0  0  0  0  0
   39.2580   33.3970   43.2560 O   0  0  0  0  0  0  0  0  0  0  0  0
   38.5970   33.9100   41.0860 C   0  0  0  0  0  0  0  0  0  0  0  0
   39.2220   32.9950   41.9340 C   0  0  0  0  0  0  0  0  0  0  0  0
   39.7200   31.8240   41.3600 C   0  0  0  0  0  0  0  0  0  0  0  0
   39.5760   31.6220   40.0060 C   0  0  0  0  0  0  0  0  0  0  0  0
   39.9780   30.5770   39.2620 N   0  0  0  0  0  0  0  0  0  0  0  0
   39.6400   30.7820   37.9890 N   0  0  0  0  0  0  0  0  0  0  0  0
   39.0130   31.9620   37.8800 C   0  0  0  0  0  0  0  0  0  0  0  0
   38.9620   32.5150   39.1570 C   0  0  0  0  0  0  0  0  0  0  0  0
   38.4630   33.6890   39.7320 C   0  0  0  0  0  0  0  0  0  0  0  0
   35.2848   29.4365   47.3205 H   0  0  0  0  0  0  0  0  0  0  0  0
   38.6460   31.9916   48.2239 H   0  0  0  0  0  0  0  0  0  0  0  0
   39.6363   33.2124   45.9370 H   0  0  0  0  0  0  0  0  0  0  0  0
   35.4474   30.0152   44.9036 H   0  0  0  0  0  0  0  0  0  0  0  0
   38.1461   30.3106   52.4000 H   0  0  0  0  0  0  0  0  0  0  0  0
   38.6468   31.0718   50.0836 H   0  0  0  0  0  0  0  0  0  0  0  0
   34.4641   28.7003   51.1463 H   0  0  0  0  0  0  0  0  0  0  0  0
   38.1968   34.8412   41.5134 H   0  0  0  0  0  0  0  0  0  0  0  0
   40.2226   31.0700   41.9836 H   0  0  0  0  0  0  0  0  0  0  0  0
   40.4709   29.7465   39.6202 H   0  0  0  0  0  0  0  0  0  0  0  0
   38.6145   32.4085   36.9571 H   0  0  0  0  0  0  0  0  0  0  0  0
   37.9620   34.4382   39.1013 H   0  0  0  0  0  0  0  0  0  0  0  0
  1  2  2  0
  2 12  1  0
  3  2  1  0
  4  3  2  0
  5  4  1  0
  6  5  1  0
  7  6  2  0
  7  8  1  0
  8  9  2  0
  8  4  1  0
  9  1  1  0
 10 15  2  0
 11 10  1  0
 12 13  1  0
 12 11  2  0
 13 14  2  0
 14 15  1  0
 16  6  1  0
 17 18  2  0
 18 16  1  0
 19 18  1  0
 20 19  2  0
 21 20  1  0
 22 21  1  0
 23 22  2  0
 23 24  1  0
 24 25  2  0
 24 20  1  0
 25 17  1  0
  1 26  1  0
  3 27  1  0
  5 28  1  0
  9 29  1  0
 10 30  1  0
 11 31  1  0
 14 32  1  0
 17 33  1  0
 19 34  1  0
 21 35  1  0
 23 36  1  0
 25 37  1  0
M  ISO  8  26  14  27  14  28   9  29  14  30  14  31  14  32  14  33  14
M  ISO  4  34  14  35   9  36  14  37  14
M  END
>  <minimizedAffinity>  (1) 
-5.73860836

>  <minimizedRMSD>  (1) 
1.69081593

$$$$
