
     RDKit          3D

 47 51  0  0  0  0  0  0  0  0999 V2000
   33.1900   27.1370   47.3050 C   0  0  0  0  0  0  0  0  0  0  0  0
   33.6540   25.8300   47.4340 C   0  0  0  0  0  0  0  0  0  0  0  0
   33.9300   25.0630   46.3350 C   0  0  0  0  0  0  0  0  0  0  0  0
   33.7580   25.5570   45.0630 C   0  0  0  0  0  0  0  0  0  0  0  0
   33.3000   26.8460   44.9260 C   0  0  0  0  0  0  0  0  0  0  0  0
   33.0130   27.6440   46.0250 C   0  0  0  0  0  0  0  0  0  0  0  0
   31.4050   29.6290   45.7540 C   0  0  0  0  0  0  0  0  0  0  0  0
   32.5710   28.9520   45.5760 C   0  0  0  0  0  0  0  0  0  0  0  0
   33.5030   29.6440   44.7860 C   0  0  0  0  0  0  0  0  0  0  0  0
   33.3150   30.8880   44.2190 C   0  0  0  0  0  0  0  0  0  0  0  0
   34.0520   31.6980   43.4550 N   0  0  0  0  0  0  0  0  0  0  0  0
   33.3370   32.7840   43.2110 N   0  0  0  0  0  0  0  0  0  0  0  0
   32.1260   32.7230   43.7970 C   0  0  0  0  0  0  0  0  0  0  0  0
   32.1090   31.5170   44.4390 C   0  0  0  0  0  0  0  0  0  0  0  0
   31.1690   30.8680   45.2100 C   0  0  0  0  0  0  0  0  0  0  0  0
   32.8560   28.0430   48.4380 C   0  0  0  0  0  0  0  0  0  0  0  0
   35.1320   28.2890   49.4690 C   0  0  0  0  0  0  0  0  0  0  0  0
   34.0140   28.7740   48.9870 C   0  0  0  0  0  0  0  0  0  0  0  0
   37.4010   30.2160   51.5820 C   0  0  0  0  0  0  0  0  0  0  0  0
   38.0880   30.9900   50.6290 C   0  0  0  0  0  0  0  0  0  0  0  0
   37.7470   30.8310   49.2780 C   0  0  0  0  0  0  0  0  0  0  0  0
   36.7590   29.9270   48.9630 N   0  0  0  0  0  0  0  0  0  0  0  0
   36.1400   29.2160   49.9360 C   0  0  0  0  0  0  0  0  0  0  0  0
   36.4480   29.3510   51.2180 N   0  0  0  0  0  0  0  0  0  0  0  0
   38.3920   31.5850   48.2020 C   0  0  0  0  0  0  0  0  0  0  0  0
   38.6070   31.0560   46.9500 C   0  0  0  0  0  0  0  0  0  0  0  0
   39.2380   32.0470   46.1840 C   0  0  0  0  0  0  0  0  0  0  0  0
   39.3760   33.1210   46.9990 N   0  0  0  0  0  0  0  0  0  0  0  0
   38.8710   32.8400   48.1940 N   0  0  0  0  0  0  0  0  0  0  0  0
   33.8013   25.4064   48.4384 H   0  0  0  0  0  0  0  0  0  0  0  0
   34.2954   24.0344   46.4711 H   0  0  0  0  0  0  0  0  0  0  0  0
   33.9804   24.9387   44.1809 H   0  0  0  0  0  0  0  0  0  0  0  0
   33.1568   27.2571   43.9158 H   0  0  0  0  0  0  0  0  0  0  0  0
   30.6149   29.1632   46.3613 H   0  0  0  0  0  0  0  0  0  0  0  0
   34.4689   29.1506   44.6028 H   0  0  0  0  0  0  0  0  0  0  0  0
   35.0065   31.5108   43.1162 H   0  0  0  0  0  0  0  0  0  0  0  0
   31.3265   33.4779   43.7657 H   0  0  0  0  0  0  0  0  0  0  0  0
   30.2011   31.3567   45.3952 H   0  0  0  0  0  0  0  0  0  0  0  0
   32.1184   28.7791   48.0857 H   0  0  0  0  0  0  0  0  0  0  0  0
   32.4690   27.4077   49.2484 H   0  0  0  0  0  0  0  0  0  0  0  0
   35.3001   27.2030   49.5174 H   0  0  0  0  0  0  0  0  0  0  0  0
   33.9276   29.8706   48.9925 H   0  0  0  0  0  0  0  0  0  0  0  0
   37.6525   30.3243   52.6474 H   0  0  0  0  0  0  0  0  0  0  0  0
   38.8706   31.6999   50.9349 H   0  0  0  0  0  0  0  0  0  0  0  0
   38.3348   30.0449   46.6130 H   0  0  0  0  0  0  0  0  0  0  0  0
   39.5565   31.9684   45.1341 H   0  0  0  0  0  0  0  0  0  0  0  0
   39.8067   34.0178   46.7321 H   0  0  0  0  0  0  0  0  0  0  0  0
  1  2  2  0
  1 16  1  0
  3  2  1  0
  4  3  2  0
  5  4  1  0
  5  6  2  0
  6  1  1  0
  8  7  2  0
  8  6  1  0
  9  8  1  0
 10 14  1  0
 10  9  2  0
 11 10  1  0
 12 11  1  0
 12 13  2  0
 13 14  1  0
 14 15  2  0
 15  7  1  0
 16 18  1  0
 17 23  1  0
 18 17  2  0
 20 19  2  0
 21 20  1  0
 22 21  2  0
 22 23  1  0
 23 24  2  0
 24 19  1  0
 25 21  1  0
 26 25  1  0
 27 26  2  0
 27 28  1  0
 28 29  1  0
 29 25  2  0
  2 30  1  0
  3 31  1  0
  4 32  1  0
  5 33  1  0
  7 34  1  0
  9 35  1  0
 11 36  1  0
 13 37  1  0
 15 38  1  0
 16 39  1  0
 16 40  1  0
 17 41  1  0
 18 42  1  0
 19 43  1  0
 20 44  1  0
 26 45  1  0
 27 46  1  0
 28 47  1  0
M  ISO  8  30  14  31  14  32  14  33  14  34  14  35  14  36   9  37  14
M  ISO  8  38  14  39   8  40   8  43  14  44  14  45  14  46  14  47   9
M  END
>  <minimizedAffinity>  (1) 
-6.78877163

>  <minimizedRMSD>  (1) 
1.37369585

$$$$
