
     RDKit          3D

 38 41  0  0  1  0  0  0  0  0999 V2000
   37.1400   30.6000   49.1690 C   0  0  0  0  0  0  0  0  0  0  0  0
   37.2800   31.7590   49.9390 C   0  0  0  0  0  0  0  0  0  0  0  0
   38.0690   32.7920   49.4540 C   0  0  0  0  0  0  0  0  0  0  0  0
   38.6730   32.6130   48.2330 N   0  0  0  0  0  0  0  0  0  0  0  0
   38.5260   31.5020   47.5160 C   0  0  0  0  0  0  0  0  0  0  0  0
   37.7600   30.5130   48.0000 N   0  0  0  0  0  0  0  0  0  0  0  0
   39.9980   32.3710   45.7370 C   0  0  0  0  0  0  0  0  0  0  0  0
   39.1890   31.3580   46.2220 C   0  0  0  0  0  0  0  0  0  0  0  0
   38.9830   30.1850   45.5000 C   0  0  0  0  0  0  0  0  0  0  0  0
   39.5880   30.0060   44.2750 C   0  0  0  0  0  0  0  0  0  0  0  0
   39.5510   28.9880   43.4020 N   0  0  0  0  0  0  0  0  0  0  0  0
   40.3110   29.2840   42.3410 N   0  0  0  0  0  0  0  0  0  0  0  0
   40.8410   30.5210   42.5510 C   0  0  0  0  0  0  0  0  0  0  0  0
   40.3960   30.9860   43.7610 C   0  0  0  0  0  0  0  0  0  0  0  0
   40.5730   32.1310   44.5050 C   0  0  0  0  0  0  0  0  0  0  0  0
   36.1030   29.3790   49.9230 S   0  0  0  0  0  0  0  0  0  0  0  0
   33.7310   28.3010   49.2100 N   0  0  0  0  0  0  0  0  0  0  0  0
   34.3620   29.5880   49.4090 C   0  0  2  0  0  0  0  0  0  0  0  0
   34.3330   30.3210   48.0910 C   0  0  0  0  0  0  0  0  0  0  0  0
   33.3880   29.7520   47.2110 O   0  0  0  0  0  0  0  0  0  0  0  0
   33.9490   28.5060   46.8510 C   0  0  0  0  0  0  0  0  0  0  0  0
   34.3130   27.6870   48.0550 C   0  0  2  0  0  0  0  0  0  0  0  0
   33.7820   26.3880   47.9360 O   0  0  0  0  0  0  0  0  0  0  0  0
   36.7738   31.8499   50.9114 H   0  0  0  0  0  0  0  0  0  0  0  0
   38.2061   33.7212   50.0266 H   0  0  0  0  0  0  0  0  0  0  0  0
   40.1709   33.3032   46.2948 H   0  0  0  0  0  0  0  0  0  0  0  0
   38.3338   29.3972   45.9099 H   0  0  0  0  0  0  0  0  0  0  0  0
   39.0202   28.1144   43.5287 H   0  0  0  0  0  0  0  0  0  0  0  0
   41.5133   31.0568   41.8647 H   0  0  0  0  0  0  0  0  0  0  0  0
   41.2219   32.9141   44.0859 H   0  0  0  0  0  0  0  0  0  0  0  0
   33.8864   27.7058   50.0361 H   0  0  0  0  0  0  0  0  0  0  0  0
   33.8275   30.1442   50.1932 H   0  0  0  0  0  0  0  0  0  0  0  0
   34.0672   31.3731   48.2714 H   0  0  0  0  0  0  0  0  0  0  0  0
   35.3284   30.2460   47.6289 H   0  0  0  0  0  0  0  0  0  0  0  0
   33.2174   27.9473   46.2489 H   0  0  0  0  0  0  0  0  0  0  0  0
   34.8687   28.6988   46.2792 H   0  0  0  0  0  0  0  0  0  0  0  0
   35.4083   27.6313   48.1403 H   0  0  0  0  0  0  0  0  0  0  0  0
   33.6277   26.0106   48.8382 H   0  0  0  0  0  0  0  0  0  0  0  0
  1 16  1  0
  1  2  2  0
  3  2  1  0
  4  3  2  0
  5  6  2  0
  5  4  1  0
  6  1  1  0
  7  8  2  0
  8  5  1  0
  9  8  1  0
 10  9  2  0
 11 10  1  0
 12 13  2  0
 12 11  1  0
 13 14  1  0
 14 10  1  0
 14 15  2  0
 15  7  1  0
 17 18  1  0
 18 16  1  0
 19 18  1  0
 20 19  1  0
 21 20  1  0
 21 22  1  0
 22 17  1  0
 23 22  1  0
  2 24  1  0
  3 25  1  0
  7 26  1  0
  9 27  1  0
 11 28  1  0
 13 29  1  0
 15 30  1  0
 17 31  1  0
 18 32  1  1
 19 33  1  0
 19 34  1  0
 21 35  1  0
 21 36  1  0
 22 37  1  1
 23 38  1  0
M  ISO  8  24  14  25  14  26  14  27  14  28   9  29  14  30  14  31   5
M  ISO  7  32  13  33  13  34  13  35  13  36  13  37  13  38   3
M  END
>  <minimizedAffinity>  (1) 
-6.53662491

>  <minimizedRMSD>  (1) 
1.36489522

$$$$
