
     RDKit          3D

 47 51  0  0  0  0  0  0  0  0999 V2000
   35.0150   30.2520   47.7420 S   0  0  0  0  0  0  0  0  0  0  0  0
   37.2490   30.5010   49.1980 C   0  0  0  0  0  0  0  0  0  0  0  0
   37.9730   30.3490   50.3620 C   0  0  0  0  0  0  0  0  0  0  0  0
   37.4420   29.8150   51.5430 C   0  0  0  0  0  0  0  0  0  0  0  0
   36.0890   29.4090   51.5380 C   0  0  0  0  0  0  0  0  0  0  0  0
   35.3960   29.5700   50.3720 C   0  0  0  0  0  0  0  0  0  0  0  0
   35.9180   30.0890   49.2250 C   0  0  0  0  0  0  0  0  0  0  0  0
   38.0720   30.2980   46.9330 C   0  0  0  0  0  0  0  0  0  0  0  0
   37.9450   31.0890   48.0820 C   0  0  0  0  0  0  0  0  0  0  0  0
   38.4950   32.3770   48.0650 C   0  0  0  0  0  0  0  0  0  0  0  0
   39.1260   32.8020   46.9400 N   0  0  0  0  0  0  0  0  0  0  0  0
   39.2360   32.0100   45.8330 C   0  0  0  0  0  0  0  0  0  0  0  0
   38.7080   30.7610   45.8340 N   0  0  0  0  0  0  0  0  0  0  0  0
   38.4390   33.3270   49.2100 C   0  0  0  0  0  0  0  0  0  0  0  0
   38.9600   34.5720   48.8080 F   0  0  0  0  0  0  0  0  0  0  0  0
   37.2190   33.5290   49.7500 F   0  0  0  0  0  0  0  0  0  0  0  0
   39.3170   32.9120   50.2080 F   0  0  0  0  0  0  0  0  0  0  0  0
   32.3980   30.8110   46.1590 Cl  0  0  0  0  0  0  0  0  0  0  0  0
   32.8120   29.1940   46.6570 C   0  0  0  0  0  0  0  0  0  0  0  0
   33.9560   28.8820   47.3660 C   0  0  0  0  0  0  0  0  0  0  0  0
   34.2430   27.5980   47.7430 C   0  0  0  0  0  0  0  0  0  0  0  0
   33.3310   26.5970   47.3830 C   0  0  0  0  0  0  0  0  0  0  0  0
   32.1790   26.8970   46.6730 C   0  0  0  0  0  0  0  0  0  0  0  0
   31.9040   28.1990   46.3000 C   0  0  0  0  0  0  0  0  0  0  0  0
   30.5140   28.9820   44.2840 C   0  0  0  0  0  0  0  0  0  0  0  0
   30.6780   28.4680   45.5530 C   0  0  0  0  0  0  0  0  0  0  0  0
   29.5210   28.1410   46.2690 C   0  0  0  0  0  0  0  0  0  0  0  0
   28.2570   28.3120   45.7590 C   0  0  0  0  0  0  0  0  0  0  0  0
   27.0130   28.0940   46.2010 N   0  0  0  0  0  0  0  0  0  0  0  0
   26.1190   28.4360   45.2960 N   0  0  0  0  0  0  0  0  0  0  0  0
   26.7690   28.9000   44.2110 C   0  0  0  0  0  0  0  0  0  0  0  0
   28.1150   28.8190   44.5070 C   0  0  0  0  0  0  0  0  0  0  0  0
   29.2430   29.1490   43.7830 C   0  0  0  0  0  0  0  0  0  0  0  0
   39.0267   30.6649   50.3629 H   0  0  0  0  0  0  0  0  0  0  0  0
   38.0601   29.7148   52.4474 H   0  0  0  0  0  0  0  0  0  0  0  0
   35.6144   28.9820   52.4337 H   0  0  0  0  0  0  0  0  0  0  0  0
   34.3411   29.2585   50.3577 H   0  0  0  0  0  0  0  0  0  0  0  0
   37.6472   29.2834   46.9250 H   0  0  0  0  0  0  0  0  0  0  0  0
   39.7541   32.3861   44.9385 H   0  0  0  0  0  0  0  0  0  0  0  0
   35.1564   27.3605   48.3081 H   0  0  0  0  0  0  0  0  0  0  0  0
   33.5329   25.5542   47.6690 H   0  0  0  0  0  0  0  0  0  0  0  0
   31.4783   26.0927   46.4044 H   0  0  0  0  0  0  0  0  0  0  0  0
   31.3903   29.2558   43.6781 H   0  0  0  0  0  0  0  0  0  0  0  0
   29.6283   27.7295   47.2835 H   0  0  0  0  0  0  0  0  0  0  0  0
   26.7842   27.7088   47.1284 H   0  0  0  0  0  0  0  0  0  0  0  0
   26.3183   29.2689   43.2778 H   0  0  0  0  0  0  0  0  0  0  0  0
   29.1218   29.5600   42.7699 H   0  0  0  0  0  0  0  0  0  0  0  0
  1  7  1  0
  2  7  1  0
  2  3  2  0
  3  4  1  0
  5  4  2  0
  6  5  1  0
  7  6  2  0
  8  9  2  0
  9  2  1  0
 10  9  1  0
 10 14  1  0
 11 10  2  0
 12 13  2  0
 12 11  1  0
 13  8  1  0
 14 16  1  0
 14 17  1  0
 15 14  1  0
 18 19  1  0
 19 20  2  0
 20  1  1  0
 20 21  1  0
 22 21  2  0
 23 22  1  0
 24 19  1  0
 24 23  2  0
 25 26  2  0
 26 27  1  0
 26 24  1  0
 28 29  1  0
 28 27  2  0
 30 29  1  0
 31 32  1  0
 31 30  2  0
 32 28  1  0
 33 25  1  0
 33 32  2  0
  3 34  1  0
  4 35  1  0
  5 36  1  0
  6 37  1  0
  8 38  1  0
 12 39  1  0
 21 40  1  0
 22 41  1  0
 23 42  1  0
 25 43  1  0
 27 44  1  0
 29 45  1  0
 31 46  1  0
 33 47  1  0
M  END
>  <minimizedAffinity>  (1) 
-7.85298014

>  <minimizedRMSD>  (1) 
9.1485033

$$$$
