
     RDKit          3D

 45 49  0  0  0  0  0  0  0  0999 V2000
   37.2220   32.6580   43.4120 Cl  0  0  0  0  0  0  0  0  0  0  0  0
   38.7330   31.9000   43.8160 C   0  0  0  0  0  0  0  0  0  0  0  0
   39.1790   32.0800   45.1170 C   0  0  0  0  0  0  0  0  0  0  0  0
   40.3760   31.4810   45.4460 C   0  0  0  0  0  0  0  0  0  0  0  0
   41.1330   30.7330   44.5720 C   0  0  0  0  0  0  0  0  0  0  0  0
   40.6790   30.5600   43.2760 C   0  0  0  0  0  0  0  0  0  0  0  0
   39.4700   31.1570   42.9250 C   0  0  0  0  0  0  0  0  0  0  0  0
   38.1630   29.9580   41.1540 C   0  0  0  0  0  0  0  0  0  0  0  0
   38.9810   30.9810   41.5620 C   0  0  0  0  0  0  0  0  0  0  0  0
   39.3940   31.9400   40.6340 C   0  0  0  0  0  0  0  0  0  0  0  0
   38.9980   31.8850   39.3010 C   0  0  0  0  0  0  0  0  0  0  0  0
   39.2130   32.6260   38.1980 N   0  0  0  0  0  0  0  0  0  0  0  0
   38.5740   32.1020   37.1660 N   0  0  0  0  0  0  0  0  0  0  0  0
   37.9370   31.0080   37.6080 C   0  0  0  0  0  0  0  0  0  0  0  0
   38.1710   30.8170   38.9740 C   0  0  0  0  0  0  0  0  0  0  0  0
   37.7360   29.8480   39.8470 C   0  0  0  0  0  0  0  0  0  0  0  0
   38.5640   32.7900   46.1260 O   0  0  0  0  0  0  0  0  0  0  0  0
   37.1390   31.3560   47.4440 C   0  0  0  0  0  0  0  0  0  0  0  0
   36.6830   30.7930   48.6290 C   0  0  0  0  0  0  0  0  0  0  0  0
   37.3400   31.2190   49.7710 C   0  0  0  0  0  0  0  0  0  0  0  0
   38.3860   32.1500   49.7040 C   0  0  0  0  0  0  0  0  0  0  0  0
   38.7870   32.6680   48.4900 C   0  0  0  0  0  0  0  0  0  0  0  0
   38.1530   32.2630   47.3430 C   0  0  0  0  0  0  0  0  0  0  0  0
   34.4710   30.0070   47.8950 C   0  0  0  0  0  0  0  0  0  0  0  0
   35.6170   29.8480   48.6800 C   0  0  0  0  0  0  0  0  0  0  0  0
   35.6640   28.7150   49.5200 C   0  0  0  0  0  0  0  0  0  0  0  0
   34.6000   27.8620   49.5050 N   0  0  0  0  0  0  0  0  0  0  0  0
   33.5180   28.0640   48.7260 C   0  0  0  0  0  0  0  0  0  0  0  0
   33.4480   29.1490   47.9080 N   0  0  0  0  0  0  0  0  0  0  0  0
   36.5320   30.9850   46.2280 O   0  0  0  0  0  0  0  0  0  0  0  0
   40.7506   31.6086   46.4724 H   0  0  0  0  0  0  0  0  0  0  0  0
   42.0814   30.2811   44.8980 H   0  0  0  0  0  0  0  0  0  0  0  0
   41.2540   29.9704   42.5468 H   0  0  0  0  0  0  0  0  0  0  0  0
   37.8392   29.2058   41.8884 H   0  0  0  0  0  0  0  0  0  0  0  0
   40.0488   32.7594   40.9653 H   0  0  0  0  0  0  0  0  0  0  0  0
   39.7914   33.4776   38.1631 H   0  0  0  0  0  0  0  0  0  0  0  0
   37.3155   30.3507   36.9822 H   0  0  0  0  0  0  0  0  0  0  0  0
   37.0810   29.0270   39.5199 H   0  0  0  0  0  0  0  0  0  0  0  0
   37.0354   30.8193   50.7495 H   0  0  0  0  0  0  0  0  0  0  0  0
   38.8912   32.4701   50.6272 H   0  0  0  0  0  0  0  0  0  0  0  0
   39.6075   33.3990   48.4422 H   0  0  0  0  0  0  0  0  0  0  0  0
   34.4090   30.8834   47.2331 H   0  0  0  0  0  0  0  0  0  0  0  0
   36.5328   28.5255   50.1675 H   0  0  0  0  0  0  0  0  0  0  0  0
   32.6852   27.3458   48.7521 H   0  0  0  0  0  0  0  0  0  0  0  0
   36.8479   31.3792   45.3766 H   0  0  0  0  0  0  0  0  0  0  0  0
  1  2  1  0
  2  3  2  0
  3  4  1  0
  3 17  1  0
  5  4  2  0
  6  5  1  0
  7  6  2  0
  7  2  1  0
  8  9  2  0
  9  7  1  0
 10  9  1  0
 11 10  2  0
 12 11  1  0
 13 14  2  0
 13 12  1  0
 14 15  1  0
 15 11  1  0
 15 16  2  0
 16  8  1  0
 17 23  1  0
 18 19  2  0
 19 25  1  0
 19 20  1  0
 21 20  2  0
 22 21  1  0
 23 18  1  0
 23 22  2  0
 24 29  2  0
 24 25  1  0
 25 26  2  0
 27 26  1  0
 28 27  2  0
 29 28  1  0
 30 18  1  0
  4 31  1  0
  5 32  1  0
  6 33  1  0
  8 34  1  0
 10 35  1  0
 12 36  1  0
 14 37  1  0
 16 38  1  0
 20 39  1  0
 21 40  1  0
 22 41  1  0
 24 42  1  0
 26 43  1  0
 28 44  1  0
 30 45  1  0
M  ISO  8  31  14  32  14  33  14  34  14  35  14  36   9  37  14  38  14
M  ISO  7  39  14  40  14  41  14  42  14  43  14  44  14  45   3
M  END
>  <minimizedAffinity>  (1) 
-6.21613312

>  <minimizedRMSD>  (1) 
2.32753444

$$$$
