
     RDKit          3D

 57 61  0  0  1  0  0  0  0  0999 V2000
   39.0430   29.5750   42.5710 C   0  0  1  0  0  0  0  0  0  0  0  0
   38.8110   31.0300   42.2030 C   0  0  0  0  0  0  0  0  0  0  0  0
   39.9300   31.7110   42.9410 C   0  0  2  0  0  0  0  0  0  0  0  0
   40.5390   30.7770   43.7450 O   0  0  0  0  0  0  0  0  0  0  0  0
   39.6420   29.7330   43.9470 C   0  0  0  0  0  0  0  0  0  0  0  0
   39.4350   32.9080   43.7180 C   0  0  0  0  0  0  0  0  0  0  0  0
   40.5420   33.1440   45.1380 S   0  0  0  0  0  0  0  0  0  0  0  0
   37.7510   31.7420   47.5880 C   0  0  0  0  0  0  0  0  0  0  0  0
   37.9490   32.4800   48.7770 C   0  0  0  0  0  0  0  0  0  0  0  0
   38.9380   33.4240   48.8630 C   0  0  0  0  0  0  0  0  0  0  0  0
   39.7130   33.6080   47.7440 C   0  0  0  0  0  0  0  0  0  0  0  0
   39.5150   32.8940   46.6050 C   0  0  0  0  0  0  0  0  0  0  0  0
   38.5370   31.9520   46.5050 N   0  0  0  0  0  0  0  0  0  0  0  0
   36.6970   30.7740   47.5790 C   0  0  0  0  0  0  0  0  0  0  0  0
   36.2190   30.3640   46.5140 O   0  0  0  0  0  0  0  0  0  0  0  0
   36.9930   29.6000   49.7200 C   0  0  0  0  0  0  0  0  0  0  0  0
   36.1240   30.2130   48.8110 C   0  0  0  0  0  0  0  0  0  0  0  0
   34.7630   30.2670   49.1040 C   0  0  0  0  0  0  0  0  0  0  0  0
   34.3190   29.7160   50.2800 N   0  0  0  0  0  0  0  0  0  0  0  0
   35.1780   29.1330   51.1350 C   0  0  0  0  0  0  0  0  0  0  0  0
   36.4870   29.0750   50.8630 N   0  0  0  0  0  0  0  0  0  0  0  0
   37.8430   28.8690   42.5980 O   0  0  0  0  0  0  0  0  0  0  0  0
   38.0290   27.6750   41.8490 C   0  0  0  0  0  0  0  0  0  0  0  0
   37.7520   26.5100   42.6970 C   0  0  0  0  0  0  0  0  0  0  0  0
   36.5220   26.0780   42.9150 C   0  0  0  0  0  0  0  0  0  0  0  0
   36.3620   24.9290   43.7750 N   0  0  0  0  0  0  0  0  0  0  0  0
   35.5470   24.2710   44.7140 C   0  0  0  0  0  0  0  0  0  0  0  0
   34.3270   24.2070   45.0310 O   0  0  0  0  0  0  0  0  0  0  0  0
   36.7180   23.5880   45.2840 C   0  0  0  0  0  0  0  0  0  0  0  0
   37.3100   23.8430   43.9160 C   0  0  2  0  0  0  0  0  0  0  0  0
   38.9990   24.4640   44.0830 S   0  0  0  0  0  0  0  0  0  0  0  0
   39.0310   26.0140   43.1900 C   0  0  0  0  0  0  0  0  0  0  0  0
   35.2940   26.6640   42.3730 C   0  0  0  0  0  0  0  0  0  0  0  0
   35.0330   27.6240   41.6460 O   0  0  0  0  0  0  0  0  0  0  0  0
   34.0500   26.1470   42.6360 O   0  0  0  0  0  0  0  0  0  0  0  0
   39.6724   29.0085   41.8689 H   0  0  0  0  0  0  0  0  0  0  0  0
   38.8921   31.1872   41.1173 H   0  0  0  0  0  0  0  0  0  0  0  0
   37.8100   31.4035   42.4647 H   0  0  0  0  0  0  0  0  0  0  0  0
   40.6670   32.1093   42.2281 H   0  0  0  0  0  0  0  0  0  0  0  0
   38.8759   30.0004   44.6897 H   0  0  0  0  0  0  0  0  0  0  0  0
   40.1048   28.8161   44.3409 H   0  0  0  0  0  0  0  0  0  0  0  0
   39.4514   33.8025   43.0780 H   0  0  0  0  0  0  0  0  0  0  0  0
   38.4020   32.7445   44.0589 H   0  0  0  0  0  0  0  0  0  0  0  0
   37.3000   32.2938   49.6454 H   0  0  0  0  0  0  0  0  0  0  0  0
   39.1032   34.0054   49.7820 H   0  0  0  0  0  0  0  0  0  0  0  0
   40.5187   34.3564   47.7707 H   0  0  0  0  0  0  0  0  0  0  0  0
   38.0714   29.5448   49.5103 H   0  0  0  0  0  0  0  0  0  0  0  0
   34.0578   30.7421   48.4062 H   0  0  0  0  0  0  0  0  0  0  0  0
   34.7991   28.6976   52.0714 H   0  0  0  0  0  0  0  0  0  0  0  0
   37.3431   27.6724   40.9890 H   0  0  0  0  0  0  0  0  0  0  0  0
   39.0687   27.6270   41.4930 H   0  0  0  0  0  0  0  0  0  0  0  0
   37.2108   24.1077   46.1189 H   0  0  0  0  0  0  0  0  0  0  0  0
   36.6793   22.5978   45.7616 H   0  0  0  0  0  0  0  0  0  0  0  0
   37.4046   23.0575   43.1518 H   0  0  0  0  0  0  0  0  0  0  0  0
   39.6958   25.8860   42.3230 H   0  0  0  0  0  0  0  0  0  0  0  0
   39.3700   26.7628   43.9210 H   0  0  0  0  0  0  0  0  0  0  0  0
   33.2447   26.5738   42.2495 H   0  0  0  0  0  0  0  0  0  0  0  0
  1 22  1  0
  1  5  1  0
  2  1  1  0
  2  3  1  0
  3  6  1  0
  3  4  1  0
  4  5  1  0
  6  7  1  0
  7 12  1  0
  8  9  2  0
  9 10  1  0
 11 10  2  0
 12 11  1  0
 13 12  2  0
 13  8  1  0
 14  8  1  0
 14 17  1  0
 15 14  2  0
 16 21  2  0
 17 18  2  0
 17 16  1  0
 18 19  1  0
 19 20  2  0
 21 20  1  0
 23 22  1  0
 23 24  1  0
 24 25  2  0
 24 32  1  0
 25 26  1  0
 26 30  1  0
 26 27  1  0
 27 28  2  0
 27 29  1  0
 30 31  1  0
 30 29  1  0
 32 31  1  0
 33 35  1  0
 33 25  1  0
 34 33  2  0
  1 36  1  6
  2 37  1  0
  2 38  1  0
  3 39  1  6
  5 40  1  0
  5 41  1  0
  6 42  1  0
  6 43  1  0
  9 44  1  0
 10 45  1  0
 11 46  1  0
 16 47  1  0
 18 48  1  0
 20 49  1  0
 23 50  1  0
 23 51  1  0
 29 52  1  0
 29 53  1  0
 30 54  1  6
 32 55  1  0
 32 56  1  0
 35 57  1  0
M  ISO  8  36  13  37  13  38  13  39  13  40  13  41  13  42   8  43   8
M  ISO  8  44  14  45  14  46  14  47  14  48  14  49  14  50   8  51   8
M  ISO  6  52  13  53  13  54  13  55  13  56  13  57   3
M  END
>  <minimizedAffinity>  (1) 
-5.56007481

>  <minimizedRMSD>  (1) 
1.0642271

$$$$
