
     RDKit          3D

 42 46  0  0  1  0  0  0  0  0999 V2000
   37.7690   31.8340   47.8400 C   0  0  0  0  0  0  0  0  0  0  0  0
   37.8150   32.6260   48.9940 C   0  0  0  0  0  0  0  0  0  0  0  0
   38.7910   33.5900   49.1170 C   0  0  0  0  0  0  0  0  0  0  0  0
   39.6780   33.7100   48.0690 C   0  0  0  0  0  0  0  0  0  0  0  0
   39.6230   32.9340   46.9500 C   0  0  0  0  0  0  0  0  0  0  0  0
   38.6530   31.9800   46.8320 N   0  0  0  0  0  0  0  0  0  0  0  0
   36.7180   30.8480   47.7860 C   0  0  0  0  0  0  0  0  0  0  0  0
   36.2740   30.4440   46.6890 O   0  0  0  0  0  0  0  0  0  0  0  0
   36.9190   29.6550   49.9350 C   0  0  0  0  0  0  0  0  0  0  0  0
   36.1140   30.2670   48.9850 C   0  0  0  0  0  0  0  0  0  0  0  0
   34.7360   30.2940   49.2330 C   0  0  0  0  0  0  0  0  0  0  0  0
   34.2460   29.7340   50.3690 N   0  0  0  0  0  0  0  0  0  0  0  0
   35.0840   29.1450   51.2690 C   0  0  0  0  0  0  0  0  0  0  0  0
   36.3790   29.1110   51.0530 N   0  0  0  0  0  0  0  0  0  0  0  0
   40.7740   33.0820   45.5760 S   0  0  0  0  0  0  0  0  0  0  0  0
   39.7460   33.2700   44.0610 C   0  0  0  0  0  0  0  0  0  0  0  0
   39.4270   31.9030   43.5950 C   0  0  0  0  0  0  0  0  0  0  0  0
   38.2850   31.5680   43.0720 C   0  0  0  0  0  0  0  0  0  0  0  0
   38.0110   30.2550   42.6290 N   0  0  0  0  0  0  0  0  0  0  0  0
   37.1320   29.2440   42.1460 C   0  0  1  0  0  0  0  0  0  0  0  0
   35.9450   28.9050   42.4000 O   0  0  0  0  0  0  0  0  0  0  0  0
   38.2920   28.8480   41.2560 C   0  0  0  0  0  0  0  0  0  0  0  0
   39.0080   29.1800   42.5150 C   0  0  2  0  0  0  0  0  0  0  0  0
   40.6670   29.8780   42.3940 S   0  0  0  0  0  0  0  0  0  0  0  0
   40.5860   31.0360   43.8270 C   0  0  0  0  0  0  0  0  0  0  0  0
   37.1550   32.5060   42.8730 C   0  0  0  0  0  0  0  0  0  0  0  0
   36.7120   33.2060   41.9470 O   0  0  0  0  0  0  0  0  0  0  0  0
   36.2350   32.8320   43.8410 O   0  0  0  0  0  0  0  0  0  0  0  0
   37.0770   32.4793   49.7964 H   0  0  0  0  0  0  0  0  0  0  0  0
   38.8592   34.2322   50.0074 H   0  0  0  0  0  0  0  0  0  0  0  0
   40.4700   34.4702   48.1393 H   0  0  0  0  0  0  0  0  0  0  0  0
   38.0070   29.6108   49.7793 H   0  0  0  0  0  0  0  0  0  0  0  0
   34.0537   30.7666   48.5111 H   0  0  0  0  0  0  0  0  0  0  0  0
   34.6718   28.6944   52.1839 H   0  0  0  0  0  0  0  0  0  0  0  0
   38.8207   33.8167   44.2955 H   0  0  0  0  0  0  0  0  0  0  0  0
   40.2812   33.8386   43.2863 H   0  0  0  0  0  0  0  0  0  0  0  0
   35.8151   28.8679   43.3807 H   0  0  0  0  0  0  0  0  0  0  0  0
   38.3265   27.7961   40.9363 H   0  0  0  0  0  0  0  0  0  0  0  0
   38.5120   29.2586   40.2595 H   0  0  0  0  0  0  0  0  0  0  0  0
   41.5055   31.6372   43.8825 H   0  0  0  0  0  0  0  0  0  0  0  0
   40.4903   30.4887   44.7764 H   0  0  0  0  0  0  0  0  0  0  0  0
   35.5046   33.4680   43.6356 H   0  0  0  0  0  0  0  0  0  0  0  0
  1  2  2  0
  2  3  1  0
  4  3  2  0
  5  4  1  0
  6  5  2  0
  6  1  1  0
  7  1  1  0
  7 10  1  0
  8  7  2  0
  9 14  2  0
 10 11  2  0
 10  9  1  0
 11 12  1  0
 12 13  2  0
 14 13  1  0
 15  5  1  0
 16 15  1  0
 17 25  1  0
 17 16  1  0
 18 17  2  0
 19 18  1  0
 20 21  1  1
 20 23  1  0
 20 19  1  0
 22 20  1  0
 23 22  1  0
 23 19  1  0
 23 24  1  1
 24 25  1  0
 26 18  1  0
 26 28  1  0
 27 26  2  0
  2 29  1  0
  3 30  1  0
  4 31  1  0
  9 32  1  0
 11 33  1  0
 13 34  1  0
 16 35  1  0
 16 36  1  0
 21 37  1  0
 22 38  1  0
 22 39  1  0
 25 40  1  0
 25 41  1  0
 28 42  1  0
M  ISO  8  29  14  30  14  31  14  32  14  33  14  34  14  35   8  36   8
M  ISO  6  37   3  38  13  39  13  40  13  41  13  42   3
M  END
>  <minimizedAffinity>  (1) 
-6.02445984

>  <minimizedRMSD>  (1) 
2.64611197

$$$$
