
     RDKit          3D

 46 49  0  0  1  0  0  0  0  0999 V2000
   33.2750   28.4020   47.0710 N   0  0  0  0  0  0  0  0  0  0  0  0
   33.7600   28.0900   45.7400 C   0  0  0  0  0  0  0  0  0  0  0  0
   34.9540   28.9900   45.5910 C   0  0  0  0  0  0  0  0  0  0  0  0
   34.9250   29.9240   46.8780 C   0  0  1  0  0  0  0  0  0  0  0  0
   34.3910   28.9740   47.8590 C   0  0  0  0  0  0  0  0  0  0  0  0
   36.3290   31.3890   44.9170 F   0  0  0  0  0  0  0  0  0  0  0  0
   36.8620   31.1310   46.1190 C   0  0  0  0  0  0  0  0  0  0  0  0
   36.2900   30.4040   47.1230 C   0  0  0  0  0  0  0  0  0  0  0  0
   36.9940   30.2630   48.3310 C   0  0  0  0  0  0  0  0  0  0  0  0
   38.2260   30.8350   48.5210 C   0  0  0  0  0  0  0  0  0  0  0  0
   38.7930   31.5720   47.4790 C   0  0  0  0  0  0  0  0  0  0  0  0
   38.0970   31.7200   46.2600 C   0  0  0  0  0  0  0  0  0  0  0  0
   38.7790   32.5180   45.2080 C   0  0  0  0  0  0  0  0  0  0  0  0
   40.2050   32.8170   45.4580 C   0  0  0  0  0  0  0  0  0  0  0  0
   41.0460   31.5750   45.3560 C   0  0  0  0  0  0  0  0  0  0  0  0
   40.8240   30.8860   44.1690 O   0  0  0  0  0  0  0  0  0  0  0  0
   40.0300   31.5480   43.2650 C   0  0  0  0  0  0  0  0  0  0  0  0
   38.6820   31.8870   43.8440 C   0  0  0  0  0  0  0  0  0  0  0  0
   31.9720   28.2190   47.5730 C   0  0  0  0  0  0  0  0  0  0  0  0
   30.9280   28.6220   46.7250 C   0  0  0  0  0  0  0  0  0  0  0  0
   29.6030   28.4840   47.1560 C   0  0  0  0  0  0  0  0  0  0  0  0
   29.4280   27.9470   48.4180 N   0  0  0  0  0  0  0  0  0  0  0  0
   30.4410   27.5720   49.2010 C   0  0  0  0  0  0  0  0  0  0  0  0
   31.7250   27.7100   48.7740 N   0  0  0  0  0  0  0  0  0  0  0  0
   34.0514   27.0320   45.6641 H   0  0  0  0  0  0  0  0  0  0  0  0
   33.0026   28.2443   44.9573 H   0  0  0  0  0  0  0  0  0  0  0  0
   35.8820   28.4002   45.5616 H   0  0  0  0  0  0  0  0  0  0  0  0
   34.9213   29.5704   44.6571 H   0  0  0  0  0  0  0  0  0  0  0  0
   34.3300   30.8488   46.8507 H   0  0  0  0  0  0  0  0  0  0  0  0
   34.0332   29.4810   48.7672 H   0  0  0  0  0  0  0  0  0  0  0  0
   35.1165   28.2403   48.2402 H   0  0  0  0  0  0  0  0  0  0  0  0
   36.5446   29.6777   49.1467 H   0  0  0  0  0  0  0  0  0  0  0  0
   38.7577   30.7155   49.4765 H   0  0  0  0  0  0  0  0  0  0  0  0
   39.7815   32.0369   47.6082 H   0  0  0  0  0  0  0  0  0  0  0  0
   38.2235   33.4667   45.2442 H   0  0  0  0  0  0  0  0  0  0  0  0
   40.5540   33.5489   44.7147 H   0  0  0  0  0  0  0  0  0  0  0  0
   40.3031   33.2219   46.4760 H   0  0  0  0  0  0  0  0  0  0  0  0
   42.1071   31.8606   45.4066 H   0  0  0  0  0  0  0  0  0  0  0  0
   40.7698   30.9110   46.1884 H   0  0  0  0  0  0  0  0  0  0  0  0
   39.8869   30.9080   42.3818 H   0  0  0  0  0  0  0  0  0  0  0  0
   40.5317   32.4891   42.9958 H   0  0  0  0  0  0  0  0  0  0  0  0
   38.1741   32.5891   43.1664 H   0  0  0  0  0  0  0  0  0  0  0  0
   38.1198   30.9476   43.9510 H   0  0  0  0  0  0  0  0  0  0  0  0
   31.1487   29.0417   45.7325 H   0  0  0  0  0  0  0  0  0  0  0  0
   28.7517   28.7850   46.5278 H   0  0  0  0  0  0  0  0  0  0  0  0
   30.2370   27.1495   50.1959 H   0  0  0  0  0  0  0  0  0  0  0  0
  1 19  1  0
  1  5  1  0
  2  1  1  0
  3  2  1  0
  3  4  1  0
  4  8  1  0
  4  5  1  0
  6  7  1  0
  7 12  2  0
  7  8  1  0
  8  9  2  0
  9 10  1  0
 11 10  2  0
 12 11  1  0
 13 14  1  0
 13 12  1  0
 15 14  1  0
 16 15  1  0
 17 18  1  0
 17 16  1  0
 18 13  1  0
 19 24  2  0
 20 21  2  0
 20 19  1  0
 21 22  1  0
 22 23  2  0
 24 23  1  0
  2 25  1  0
  2 26  1  0
  3 27  1  0
  3 28  1  0
  4 29  1  6
  5 30  1  0
  5 31  1  0
  9 32  1  0
 10 33  1  0
 11 34  1  0
 13 35  1  0
 14 36  1  0
 14 37  1  0
 15 38  1  0
 15 39  1  0
 17 40  1  0
 17 41  1  0
 18 42  1  0
 18 43  1  0
 20 44  1  0
 21 45  1  0
 23 46  1  0
M  ISO  8  25  13  26  13  27  13  28  13  29  13  30  13  31  13  32  14
M  ISO  8  33  14  34  14  35  13  36  13  37  13  38  13  39  13  40  13
M  ISO  6  41  13  42  13  43  13  44  14  45  14  46  14
M  END
>  <minimizedAffinity>  (1) 
-5.82111549

>  <minimizedRMSD>  (1) 
4.13609695

$$$$
