
     RDKit          3D

 46 49  0  0  0  0  0  0  0  0999 V2000
   34.7780   28.4690   49.8770 O   0  0  0  0  0  0  0  0  0  0  0  0
   33.5370   26.7860   46.8490 N   0  0  0  0  0  0  0  0  0  0  0  0
   34.1010   26.8970   48.0640 C   0  0  0  0  0  0  0  0  0  0  0  0
   34.2320   28.1430   48.6510 C   0  0  0  0  0  0  0  0  0  0  0  0
   33.7760   29.2510   47.9600 C   0  0  0  0  0  0  0  0  0  0  0  0
   33.7920   30.4640   48.3000 O   0  0  0  0  0  0  0  0  0  0  0  0
   33.2160   29.0980   46.7360 N   0  0  0  0  0  0  0  0  0  0  0  0
   33.0950   27.8580   46.1770 C   0  0  0  0  0  0  0  0  0  0  0  0
   32.5820   27.6590   45.0460 O   0  0  0  0  0  0  0  0  0  0  0  0
   32.7040   30.1580   45.9140 C   0  0  0  0  0  0  0  0  0  0  0  0
   33.5640   30.4230   44.6820 C   0  0  0  0  0  0  0  0  0  0  0  0
   32.7230   30.7840   43.4840 C   0  0  0  0  0  0  0  0  0  0  0  0
   31.6660   31.6110   43.7270 O   0  0  0  0  0  0  0  0  0  0  0  0
   30.9730   31.4210   44.8890 C   0  0  0  0  0  0  0  0  0  0  0  0
   31.3110   30.0230   45.4470 C   0  0  0  0  0  0  0  0  0  0  0  0
   37.6890   30.2700   51.0260 C   0  0  0  0  0  0  0  0  0  0  0  0
   38.1640   30.8340   49.8260 C   0  0  0  0  0  0  0  0  0  0  0  0
   37.4500   30.5600   48.6770 C   0  0  0  0  0  0  0  0  0  0  0  0
   36.3630   29.7820   48.7890 N   0  0  0  0  0  0  0  0  0  0  0  0
   35.9210   29.2500   49.9440 C   0  0  0  0  0  0  0  0  0  0  0  0
   36.6000   29.5040   51.0710 N   0  0  0  0  0  0  0  0  0  0  0  0
   37.8180   31.0820   47.3810 C   0  0  0  0  0  0  0  0  0  0  0  0
   37.0860   30.7510   46.2450 C   0  0  0  0  0  0  0  0  0  0  0  0
   37.3850   31.2240   44.9950 C   0  0  0  0  0  0  0  0  0  0  0  0
   38.4470   32.0550   44.8520 N   0  0  0  0  0  0  0  0  0  0  0  0
   39.1410   32.3650   45.9490 C   0  0  0  0  0  0  0  0  0  0  0  0
   38.8690   31.9150   47.1920 N   0  0  0  0  0  0  0  0  0  0  0  0
   40.3080   33.2750   45.8100 C   0  0  0  0  0  0  0  0  0  0  0  0
   40.4140   34.0050   47.0080 F   0  0  0  0  0  0  0  0  0  0  0  0
   41.4580   32.5700   45.5670 F   0  0  0  0  0  0  0  0  0  0  0  0
   40.1130   34.2190   44.8240 F   0  0  0  0  0  0  0  0  0  0  0  0
   33.4420   25.8529   46.4234 H   0  0  0  0  0  0  0  0  0  0  0  0
   34.4576   25.9993   48.5904 H   0  0  0  0  0  0  0  0  0  0  0  0
   32.7346   30.9997   46.6215 H   0  0  0  0  0  0  0  0  0  0  0  0
   34.2514   31.2539   44.8988 H   0  0  0  0  0  0  0  0  0  0  0  0
   34.1201   29.5035   44.4469 H   0  0  0  0  0  0  0  0  0  0  0  0
   32.3294   29.8508   43.0547 H   0  0  0  0  0  0  0  0  0  0  0  0
   33.3890   31.3417   42.8092 H   0  0  0  0  0  0  0  0  0  0  0  0
   31.2603   32.1904   45.6207 H   0  0  0  0  0  0  0  0  0  0  0  0
   29.8926   31.4950   44.6960 H   0  0  0  0  0  0  0  0  0  0  0  0
   30.6420   29.7613   46.2800 H   0  0  0  0  0  0  0  0  0  0  0  0
   31.1883   29.2254   44.6994 H   0  0  0  0  0  0  0  0  0  0  0  0
   38.2366   30.4690   51.9590 H   0  0  0  0  0  0  0  0  0  0  0  0
   39.0646   31.4652   49.8054 H   0  0  0  0  0  0  0  0  0  0  0  0
   36.2246   30.0761   46.3564 H   0  0  0  0  0  0  0  0  0  0  0  0
   36.7764   30.9358   44.1252 H   0  0  0  0  0  0  0  0  0  0  0  0
  1 20  1  0
  2  3  1  0
  3  4  2  0
  4  1  1  0
  5  6  2  0
  5  4  1  0
  7  5  1  0
  8  7  1  0
  8  2  1  0
  9  8  2  0
 10  7  1  0
 11 10  1  0
 12 13  1  0
 12 11  1  0
 13 14  1  0
 14 15  1  0
 15 10  1  0
 16 21  2  0
 17 16  1  0
 18 19  1  0
 18 17  2  0
 19 20  2  0
 20 21  1  0
 22 18  1  0
 23 22  2  0
 24 23  1  0
 25 24  2  0
 25 26  1  0
 26 27  2  0
 27 22  1  0
 28 26  1  0
 28 29  1  0
 30 28  1  0
 31 28  1  0
  2 32  1  0
  3 33  1  0
 10 34  1  0
 11 35  1  0
 11 36  1  0
 12 37  1  0
 12 38  1  0
 14 39  1  0
 14 40  1  0
 15 41  1  0
 15 42  1  0
 16 43  1  0
 17 44  1  0
 23 45  1  0
 24 46  1  0
M  ISO  8  32   9  33  14  34  13  35  13  36  13  37  13  38  13  39  13
M  ISO  7  40  13  41  13  42  13  43  14  44  14  45  14  46  14
M  END
>  <minimizedAffinity>  (1) 
-6.79306507

>  <minimizedRMSD>  (1) 
1.19328737

$$$$
