
     RDKit          3D

 31 33  0  0  0  0  0  0  0  0999 V2000
   37.1770   31.3210   49.1960 C   0  0  0  0  0  0  0  0  0  0  0  0
   37.3320   32.5970   49.7620 C   0  0  0  0  0  0  0  0  0  0  0  0
   38.2950   33.4100   49.1880 C   0  0  0  0  0  0  0  0  0  0  0  0
   39.0320   32.9540   48.1300 N   0  0  0  0  0  0  0  0  0  0  0  0
   38.8520   31.7050   47.6060 C   0  0  0  0  0  0  0  0  0  0  0  0
   37.9150   30.8910   48.1520 N   0  0  0  0  0  0  0  0  0  0  0  0
   39.6860   31.2750   46.4560 C   0  0  0  0  0  0  0  0  0  0  0  0
   38.8250   30.4270   45.5600 C   0  0  0  0  0  0  0  0  0  0  0  0
   39.3770   30.2720   44.1640 C   0  0  0  0  0  0  0  0  0  0  0  0
   40.5030   31.0640   43.9520 O   0  0  0  0  0  0  0  0  0  0  0  0
   40.2580   32.3930   44.2680 C   0  0  0  0  0  0  0  0  0  0  0  0
   40.1060   32.5680   45.7530 C   0  0  0  0  0  0  0  0  0  0  0  0
   36.1150   30.4250   49.7900 C   0  0  0  0  0  0  0  0  0  0  0  0
   36.1620   28.9820   49.5970 C   0  0  0  0  0  0  0  0  0  0  0  0
   36.6620   29.5340   50.9000 C   0  0  0  0  0  0  0  0  0  0  0  0
   36.7223   32.9320   50.6140 H   0  0  0  0  0  0  0  0  0  0  0  0
   38.4671   34.4222   49.5829 H   0  0  0  0  0  0  0  0  0  0  0  0
   40.5704   30.6878   46.7441 H   0  0  0  0  0  0  0  0  0  0  0  0
   38.7323   29.4278   46.0105 H   0  0  0  0  0  0  0  0  0  0  0  0
   37.8540   30.9358   45.4689 H   0  0  0  0  0  0  0  0  0  0  0  0
   39.6504   29.2183   44.0062 H   0  0  0  0  0  0  0  0  0  0  0  0
   38.5994   30.5945   43.4559 H   0  0  0  0  0  0  0  0  0  0  0  0
   41.0991   33.0085   43.9163 H   0  0  0  0  0  0  0  0  0  0  0  0
   39.3242   32.7060   43.7782 H   0  0  0  0  0  0  0  0  0  0  0  0
   41.0687   32.8992   46.1695 H   0  0  0  0  0  0  0  0  0  0  0  0
   39.3143   33.3126   45.9223 H   0  0  0  0  0  0  0  0  0  0  0  0
   35.3041   31.1530   49.6400 H   0  0  0  0  0  0  0  0  0  0  0  0
   35.2256   28.4052   49.5738 H   0  0  0  0  0  0  0  0  0  0  0  0
   36.5946   28.3263   48.8270 H   0  0  0  0  0  0  0  0  0  0  0  0
   37.7375   29.5289   51.1306 H   0  0  0  0  0  0  0  0  0  0  0  0
   36.4423   29.3712   51.9655 H   0  0  0  0  0  0  0  0  0  0  0  0
  1  2  2  0
  1 13  1  0
  3  2  1  0
  4  3  2  0
  5  4  1  0
  5  6  2  0
  6  1  1  0
  7  5  1  0
  8  7  1  0
  9  8  1  0
 10  9  1  0
 10 11  1  0
 11 12  1  0
 12  7  1  0
 13 15  1  0
 14 13  1  0
 14 15  1  0
  2 16  1  0
  3 17  1  0
  7 18  1  0
  8 19  1  0
  8 20  1  0
  9 21  1  0
  9 22  1  0
 11 23  1  0
 11 24  1  0
 12 25  1  0
 12 26  1  0
 13 27  1  0
 14 28  1  0
 14 29  1  0
 15 30  1  0
 15 31  1  0
M  ISO  8  16  14  17  14  18  13  19  13  20  13  21  13  22  13  23  13
M  ISO  8  24  13  25  13  26  13  27  13  28  13  29  13  30  13  31  13
M  END
>  <minimizedAffinity>  (1) 
-5.78564024

>  <minimizedRMSD>  (1) 
1.45884168

$$$$
