
     RDKit          3D

 31 33  0  0  1  0  0  0  0  0999 V2000
   37.1120   31.3790   46.8240 C   0  0  1  0  0  0  0  0  0  0  0  0
   37.0170   29.9290   46.6590 C   0  0  0  0  0  0  0  0  0  0  0  0
   37.4790   30.4700   47.9760 C   0  0  2  0  0  0  0  0  0  0  0  0
   36.5550   30.5080   49.1700 C   0  0  0  0  0  0  0  0  0  0  0  0
   37.3680   30.9160   50.3770 C   0  0  0  0  0  0  0  0  0  0  0  0
   37.4060   29.8240   51.4270 C   0  0  0  0  0  0  0  0  0  0  0  0
   36.1570   29.4170   51.8260 O   0  0  0  0  0  0  0  0  0  0  0  0
   35.2520   29.2400   50.7940 C   0  0  0  0  0  0  0  0  0  0  0  0
   35.9690   29.1610   49.4670 C   0  0  0  0  0  0  0  0  0  0  0  0
   38.2030   32.3570   44.7560 C   0  0  0  0  0  0  0  0  0  0  0  0
   38.2100   32.1410   46.1570 C   0  0  0  0  0  0  0  0  0  0  0  0
   39.2680   32.6480   46.9090 C   0  0  0  0  0  0  0  0  0  0  0  0
   40.2670   33.3390   46.2590 N   0  0  0  0  0  0  0  0  0  0  0  0
   40.2240   33.5240   44.9070 C   0  0  0  0  0  0  0  0  0  0  0  0
   39.1960   33.0330   44.1690 N   0  0  0  0  0  0  0  0  0  0  0  0
   36.4100   32.2114   46.6685 H   0  0  0  0  0  0  0  0  0  0  0  0
   36.0289   29.4520   46.5811 H   0  0  0  0  0  0  0  0  0  0  0  0
   37.4282   29.2086   45.9366 H   0  0  0  0  0  0  0  0  0  0  0  0
   38.3522   30.2713   48.6148 H   0  0  0  0  0  0  0  0  0  0  0  0
   35.7389   31.2114   48.9482 H   0  0  0  0  0  0  0  0  0  0  0  0
   38.3966   31.1362   50.0553 H   0  0  0  0  0  0  0  0  0  0  0  0
   36.8943   31.8026   50.8237 H   0  0  0  0  0  0  0  0  0  0  0  0
   37.9406   28.9571   51.0114 H   0  0  0  0  0  0  0  0  0  0  0  0
   37.9146   30.2364   52.3109 H   0  0  0  0  0  0  0  0  0  0  0  0
   34.6930   28.3071   50.9592 H   0  0  0  0  0  0  0  0  0  0  0  0
   34.5633   30.0975   50.7749 H   0  0  0  0  0  0  0  0  0  0  0  0
   35.2579   28.8817   48.6756 H   0  0  0  0  0  0  0  0  0  0  0  0
   36.7640   28.4019   49.5095 H   0  0  0  0  0  0  0  0  0  0  0  0
   37.3745   31.9656   44.1474 H   0  0  0  0  0  0  0  0  0  0  0  0
   39.3047   32.4996   47.9983 H   0  0  0  0  0  0  0  0  0  0  0  0
   41.0332   34.0783   44.4091 H   0  0  0  0  0  0  0  0  0  0  0  0
  1  3  1  0
  2  1  1  0
  2  3  1  0
  3  4  1  0
  4  9  1  0
  4  5  1  0
  5  6  1  0
  6  7  1  0
  8  7  1  0
  9  8  1  0
 10 11  2  0
 11  1  1  0
 11 12  1  0
 13 12  2  0
 14 13  1  0
 15 10  1  0
 15 14  2  0
  1 16  1  1
  2 17  1  0
  2 18  1  0
  3 19  1  1
  4 20  1  0
  5 21  1  0
  5 22  1  0
  6 23  1  0
  6 24  1  0
  8 25  1  0
  8 26  1  0
  9 27  1  0
  9 28  1  0
 10 29  1  0
 12 30  1  0
 14 31  1  0
M  ISO  8  16  13  17  13  18  13  19  13  20  13  21  13  22  13  23  13
M  ISO  8  24  13  25  13  26  13  27  13  28  13  29  14  30  14  31  14
M  END
>  <minimizedAffinity>  (1) 
-4.82632017

>  <minimizedRMSD>  (1) 
3.71848607

$$$$
