
     RDKit          3D

 30 32  0  0  0  0  0  0  0  0999 V2000
   38.4720   30.4350   47.3070 F   0  0  0  0  0  0  0  0  0  0  0  0
   38.7520   31.6580   47.7980 C   0  0  0  0  0  0  0  0  0  0  0  0
   38.2000   32.0780   48.9830 C   0  0  0  0  0  0  0  0  0  0  0  0
   38.5260   33.3280   49.4220 C   0  0  0  0  0  0  0  0  0  0  0  0
   39.3700   34.1580   48.7280 C   0  0  0  0  0  0  0  0  0  0  0  0
   39.9180   33.7240   47.5380 C   0  0  0  0  0  0  0  0  0  0  0  0
   39.6090   32.4600   47.0620 C   0  0  0  0  0  0  0  0  0  0  0  0
   36.7980   29.5810   51.4610 C   0  0  0  0  0  0  0  0  0  0  0  0
   37.6810   30.4640   50.8190 C   0  0  0  0  0  0  0  0  0  0  0  0
   37.3070   31.1520   49.6780 C   0  0  0  0  0  0  0  0  0  0  0  0
   36.0330   30.9250   49.2140 N   0  0  0  0  0  0  0  0  0  0  0  0
   35.2050   30.0730   49.8490 C   0  0  0  0  0  0  0  0  0  0  0  0
   35.5740   29.4160   50.9450 N   0  0  0  0  0  0  0  0  0  0  0  0
   39.3030   32.1920   44.7050 C   0  0  0  0  0  0  0  0  0  0  0  0
   38.2060   32.7750   44.9460 O   0  0  0  0  0  0  0  0  0  0  0  0
   40.1580   31.9710   45.8290 N   0  0  0  0  0  0  0  0  0  0  0  0
   39.6520   31.7790   43.3510 C   0  0  0  0  0  0  0  0  0  0  0  0
   40.4140   30.7030   43.0870 N   0  0  0  0  0  0  0  0  0  0  0  0
   40.5550   30.5890   41.7320 C   0  0  0  0  0  0  0  0  0  0  0  0
   39.8510   31.6310   41.2080 N   0  0  0  0  0  0  0  0  0  0  0  0
   39.3130   32.3380   42.2010 N   0  0  0  0  0  0  0  0  0  0  0  0
   38.0954   33.6844   50.3694 H   0  0  0  0  0  0  0  0  0  0  0  0
   39.6075   35.1594   49.1163 H   0  0  0  0  0  0  0  0  0  0  0  0
   40.5964   34.3780   46.9705 H   0  0  0  0  0  0  0  0  0  0  0  0
   37.1049   29.0376   52.3668 H   0  0  0  0  0  0  0  0  0  0  0  0
   38.6901   30.6118   51.2312 H   0  0  0  0  0  0  0  0  0  0  0  0
   34.1925   29.9158   49.4488 H   0  0  0  0  0  0  0  0  0  0  0  0
   41.0754   31.5077   45.7611 H   0  0  0  0  0  0  0  0  0  0  0  0
   41.1171   29.8199   41.1820 H   0  0  0  0  0  0  0  0  0  0  0  0
   39.7506   31.8391   40.2042 H   0  0  0  0  0  0  0  0  0  0  0  0
  1  2  1  0
  2  3  2  0
  3  4  1  0
  3 10  1  0
  5  4  2  0
  6  5  1  0
  7  6  2  0
  7  2  1  0
  9  8  2  0
 10  9  1  0
 11 10  2  0
 11 12  1  0
 12 13  2  0
 13  8  1  0
 14 15  2  0
 14 16  1  0
 16  7  1  0
 17 14  1  0
 18 17  1  0
 19 18  2  0
 20 19  1  0
 20 21  1  0
 21 17  2  0
  4 22  1  0
  5 23  1  0
  6 24  1  0
  8 25  1  0
  9 26  1  0
 12 27  1  0
 16 28  1  0
 19 29  1  0
 20 30  1  0
M  ISO  8  22  14  23  14  24  14  25  14  26  14  27  14  29  14  30   9
M  END
>  <minimizedAffinity>  (1) 
-6.49080181

>  <minimizedRMSD>  (1) 
0.130846232

$$$$
