
     RDKit          3D

 36 38  0  0  1  0  0  0  0  0999 V2000
   36.2500   30.7050   48.9880 C   0  0  2  0  0  0  0  0  0  0  0  0
   37.2300   31.5910   49.7000 C   0  0  0  0  0  0  0  0  0  0  0  0
   38.1540   30.8220   50.6210 C   0  0  0  0  0  0  0  0  0  0  0  0
   37.3360   30.0410   51.6460 C   0  0  0  0  0  0  0  0  0  0  0  0
   36.0690   29.4420   51.0900 C   0  0  0  0  0  0  0  0  0  0  0  0
   36.2230   29.3270   49.5610 C   0  0  1  0  0  0  0  0  0  0  0  0
   36.5690   30.6150   47.5390 C   0  0  0  0  0  0  0  0  0  0  0  0
   37.9040   30.8720   47.1930 C   0  0  0  0  0  0  0  0  0  0  0  0
   38.2290   30.7860   45.8320 C   0  0  0  0  0  0  0  0  0  0  0  0
   37.2370   30.4590   44.9330 N   0  0  0  0  0  0  0  0  0  0  0  0
   35.9470   30.2170   45.3270 C   0  0  0  0  0  0  0  0  0  0  0  0
   35.6350   30.3000   46.6320 N   0  0  0  0  0  0  0  0  0  0  0  0
   33.9150   28.3460   49.1320 C   0  0  0  0  0  0  0  0  0  0  0  0
   33.1240   29.0420   49.8640 O   0  0  0  0  0  0  0  0  0  0  0  0
   35.3190   28.4320   48.9360 N   0  0  0  0  0  0  0  0  0  0  0  0
   33.0980   27.3130   48.4310 C   0  0  0  0  0  0  0  0  0  0  0  0
   31.7810   27.1560   48.4700 N   0  0  0  0  0  0  0  0  0  0  0  0
   31.4720   26.0880   47.6790 C   0  0  0  0  0  0  0  0  0  0  0  0
   32.6180   25.6350   47.1870 N   0  0  0  0  0  0  0  0  0  0  0  0
   33.6090   26.3630   47.6310 N   0  0  0  0  0  0  0  0  0  0  0  0
   35.2595   31.1637   49.1239 H   0  0  0  0  0  0  0  0  0  0  0  0
   37.8390   32.1161   48.9494 H   0  0  0  0  0  0  0  0  0  0  0  0
   36.6527   32.2926   50.3201 H   0  0  0  0  0  0  0  0  0  0  0  0
   38.7596   30.1212   50.0276 H   0  0  0  0  0  0  0  0  0  0  0  0
   38.8117   31.5299   51.1468 H   0  0  0  0  0  0  0  0  0  0  0  0
   37.9610   29.2255   52.0388 H   0  0  0  0  0  0  0  0  0  0  0  0
   37.0350   30.7564   52.4255 H   0  0  0  0  0  0  0  0  0  0  0  0
   35.9067   28.4445   51.5242 H   0  0  0  0  0  0  0  0  0  0  0  0
   35.2065   30.0777   51.3388 H   0  0  0  0  0  0  0  0  0  0  0  0
   37.1829   28.8383   49.3378 H   0  0  0  0  0  0  0  0  0  0  0  0
   38.6581   31.1282   47.9517 H   0  0  0  0  0  0  0  0  0  0  0  0
   39.2565   30.9760   45.4881 H   0  0  0  0  0  0  0  0  0  0  0  0
   35.1770   29.9583   44.5853 H   0  0  0  0  0  0  0  0  0  0  0  0
   35.7270   27.7680   48.2626 H   0  0  0  0  0  0  0  0  0  0  0  0
   30.4681   25.6816   47.4866 H   0  0  0  0  0  0  0  0  0  0  0  0
   32.7126   24.8305   46.5508 H   0  0  0  0  0  0  0  0  0  0  0  0
  1  6  1  0
  1  2  1  0
  2  3  1  0
  3  4  1  0
  5  4  1  0
  6  5  1  0
  7  1  1  0
  8  7  2  0
  9  8  1  0
 10 11  1  0
 10  9  2  0
 11 12  2  0
 12  7  1  0
 13 14  2  0
 15 13  1  0
 15  6  1  0
 16 17  1  0
 16 13  1  0
 18 17  2  0
 19 20  1  0
 19 18  1  0
 20 16  2  0
  1 21  1  6
  2 22  1  0
  2 23  1  0
  3 24  1  0
  3 25  1  0
  4 26  1  0
  4 27  1  0
  5 28  1  0
  5 29  1  0
  6 30  1  1
  8 31  1  0
  9 32  1  0
 11 33  1  0
 15 34  1  0
 18 35  1  0
 19 36  1  0
M  ISO  8  21  13  22  13  23  13  24  13  25  13  26  13  27  13  28  13
M  ISO  7  29  13  30  13  31  14  32  14  33  14  35  14  36   9
M  END
>  <minimizedAffinity>  (1) 
-5.76514149

>  <minimizedRMSD>  (1) 
0.306884646

$$$$
