
     RDKit          3D

 32 34  0  0  0  0  0  0  0  0999 V2000
   36.6270   29.5920   44.1170 Cl  0  0  0  0  0  0  0  0  0  0  0  0
   38.2590   29.9390   43.5190 C   0  0  0  0  0  0  0  0  0  0  0  0
   39.3010   30.3860   44.3370 C   0  0  0  0  0  0  0  0  0  0  0  0
   40.5350   30.6230   43.7440 C   0  0  0  0  0  0  0  0  0  0  0  0
   40.7170   30.4220   42.4000 C   0  0  0  0  0  0  0  0  0  0  0  0
   39.7050   29.9840   41.5860 C   0  0  0  0  0  0  0  0  0  0  0  0
   38.4860   29.7460   42.1510 C   0  0  0  0  0  0  0  0  0  0  0  0
   37.3900   29.2780   41.3010 C   0  0  0  0  0  0  0  0  0  0  0  0
   37.1430   27.9770   41.0600 N   0  0  0  0  0  0  0  0  0  0  0  0
   36.0620   27.8740   40.2360 C   0  0  0  0  0  0  0  0  0  0  0  0
   35.6500   29.1510   39.9770 N   0  0  0  0  0  0  0  0  0  0  0  0
   36.4690   29.9900   40.6310 N   0  0  0  0  0  0  0  0  0  0  0  0
   38.9310   30.5260   45.6400 O   0  0  0  0  0  0  0  0  0  0  0  0
   39.4610   32.5290   47.1660 O   0  0  0  0  0  0  0  0  0  0  0  0
   38.3400   31.8690   46.4430 P   0  0  1  0  0  0  0  0  0  0  0  0
   37.7740   32.9060   45.2130 O   0  0  0  0  0  0  0  0  0  0  0  0
   37.0510   31.4020   47.4440 O   0  0  0  0  0  0  0  0  0  0  0  0
   37.6010   30.5320   50.9850 C   0  0  0  0  0  0  0  0  0  0  0  0
   37.7130   31.3070   49.8280 C   0  0  0  0  0  0  0  0  0  0  0  0
   37.0880   30.8440   48.6680 C   0  0  0  0  0  0  0  0  0  0  0  0
   36.4040   29.6570   48.7310 N   0  0  0  0  0  0  0  0  0  0  0  0
   36.3210   28.9400   49.8690 C   0  0  0  0  0  0  0  0  0  0  0  0
   36.9180   29.3770   50.9920 N   0  0  0  0  0  0  0  0  0  0  0  0
   41.3754   30.9759   44.3598 H   0  0  0  0  0  0  0  0  0  0  0  0
   41.7064   30.6184   41.9612 H   0  0  0  0  0  0  0  0  0  0  0  0
   39.8705   29.8290   40.5096 H   0  0  0  0  0  0  0  0  0  0  0  0
   35.6105   26.9462   39.8548 H   0  0  0  0  0  0  0  0  0  0  0  0
   34.8521   29.4219   39.3847 H   0  0  0  0  0  0  0  0  0  0  0  0
   37.3420   33.6975   45.6216 H   0  0  0  0  0  0  0  0  0  0  0  0
   38.0838   30.8765   51.9114 H   0  0  0  0  0  0  0  0  0  0  0  0
   38.2757   32.2522   49.8306 H   0  0  0  0  0  0  0  0  0  0  0  0
   35.7622   27.9926   49.8794 H   0  0  0  0  0  0  0  0  0  0  0  0
  2  1  1  0
  2  3  2  0
  3 13  1  0
  4  3  1  0
  5  4  2  0
  6  7  2  0
  6  5  1  0
  7  2  1  0
  8  7  1  0
  9  8  1  0
 10  9  2  0
 11 10  1  0
 11 12  1  0
 12  8  2  0
 13 15  1  0
 15 14  2  0
 15 17  1  0
 16 15  1  0
 17 20  1  0
 18 23  2  0
 19 18  1  0
 20 21  1  0
 20 19  2  0
 21 22  2  0
 22 23  1  0
  4 24  1  0
  5 25  1  0
  6 26  1  0
 10 27  1  0
 11 28  1  0
 16 29  1  0
 18 30  1  0
 19 31  1  0
 22 32  1  0
M  ISO  8  24  14  25  14  26  14  27  14  28   9  29   3  30  14  31  14
M  ISO  1  32  14
M  END
>  <minimizedAffinity>  (1) 
-4.82702208

>  <minimizedRMSD>  (1) 
0.546306014

$$$$
