
     RDKit          3D

 38 41  0  0  0  0  0  0  0  0999 V2000
   38.3280   32.2370   47.4220 C   0  0  0  0  0  0  0  0  0  0  0  0
   38.1520   32.1110   48.7980 C   0  0  0  0  0  0  0  0  0  0  0  0
   38.8500   33.0290   49.5640 C   0  0  0  0  0  0  0  0  0  0  0  0
   39.6600   33.9940   48.9680 C   0  0  0  0  0  0  0  0  0  0  0  0
   39.7860   34.0590   47.5940 C   0  0  0  0  0  0  0  0  0  0  0  0
   39.1110   33.1690   46.8130 C   0  0  0  0  0  0  0  0  0  0  0  0
   35.9340   31.2150   49.3430 C   0  0  0  0  0  0  0  0  0  0  0  0
   37.3140   31.1100   49.3870 C   0  0  0  0  0  0  0  0  0  0  0  0
   37.8480   29.9780   50.0340 C   0  0  0  0  0  0  0  0  0  0  0  0
   36.9790   29.0700   50.5700 N   0  0  0  0  0  0  0  0  0  0  0  0
   35.6450   29.2240   50.4970 C   0  0  0  0  0  0  0  0  0  0  0  0
   35.1080   30.3010   49.8820 N   0  0  0  0  0  0  0  0  0  0  0  0
   37.6520   31.3410   46.5580 O   0  0  0  0  0  0  0  0  0  0  0  0
   39.2430   33.2390   45.4340 O   0  0  0  0  0  0  0  0  0  0  0  0
   37.0620   32.5340   43.4480 Cl  0  0  0  0  0  0  0  0  0  0  0  0
   38.5710   31.6820   43.6080 C   0  0  0  0  0  0  0  0  0  0  0  0
   39.4350   32.1720   44.5850 C   0  0  0  0  0  0  0  0  0  0  0  0
   40.6430   31.5180   44.7370 C   0  0  0  0  0  0  0  0  0  0  0  0
   41.0210   30.4340   43.9880 C   0  0  0  0  0  0  0  0  0  0  0  0
   40.1590   29.9580   43.0250 C   0  0  0  0  0  0  0  0  0  0  0  0
   38.9340   30.5950   42.8470 C   0  0  0  0  0  0  0  0  0  0  0  0
   37.9950   30.1160   41.8320 C   0  0  0  0  0  0  0  0  0  0  0  0
   37.0000   29.2210   41.9570 N   0  0  0  0  0  0  0  0  0  0  0  0
   36.3740   29.0690   40.7600 C   0  0  0  0  0  0  0  0  0  0  0  0
   37.0080   29.8910   39.8910 N   0  0  0  0  0  0  0  0  0  0  0  0
   37.9750   30.5110   40.5460 N   0  0  0  0  0  0  0  0  0  0  0  0
   38.7640   32.9963   50.6601 H   0  0  0  0  0  0  0  0  0  0  0  0
   40.2049   34.7118   49.5988 H   0  0  0  0  0  0  0  0  0  0  0  0
   40.4273   34.8245   47.1328 H   0  0  0  0  0  0  0  0  0  0  0  0
   35.4917   32.0890   48.8425 H   0  0  0  0  0  0  0  0  0  0  0  0
   38.9355   29.8292   50.1057 H   0  0  0  0  0  0  0  0  0  0  0  0
   34.9842   28.4657   50.9424 H   0  0  0  0  0  0  0  0  0  0  0  0
   37.7666   31.4174   45.5776 H   0  0  0  0  0  0  0  0  0  0  0  0
   41.3407   31.8884   45.5025 H   0  0  0  0  0  0  0  0  0  0  0  0
   41.9961   29.9525   44.1532 H   0  0  0  0  0  0  0  0  0  0  0  0
   40.4336   29.0900   42.4076 H   0  0  0  0  0  0  0  0  0  0  0  0
   35.5216   28.4092   40.5409 H   0  0  0  0  0  0  0  0  0  0  0  0
   36.7775   30.0122   38.8945 H   0  0  0  0  0  0  0  0  0  0  0  0
  1  2  2  0
  2  8  1  0
  2  3  1  0
  4  3  2  0
  5  4  1  0
  6  1  1  0
  6  5  2  0
  7  8  2  0
  7 12  1  0
  8  9  1  0
  9 10  2  0
 11 10  1  0
 12 11  2  0
 13  1  1  0
 14  6  1  0
 15 16  1  0
 16 17  2  0
 17 18  1  0
 17 14  1  0
 19 18  2  0
 20 19  1  0
 21 20  2  0
 21 16  1  0
 22 23  1  0
 22 21  1  0
 24 23  2  0
 25 26  1  0
 25 24  1  0
 26 22  2  0
  3 27  1  0
  4 28  1  0
  5 29  1  0
  7 30  1  0
  9 31  1  0
 11 32  1  0
 13 33  1  0
 18 34  1  0
 19 35  1  0
 20 36  1  0
 24 37  1  0
 25 38  1  0
M  ISO  8  27  14  28  14  29  14  30  14  31  14  32  14  33   3  34  14
M  ISO  4  35  14  36  14  37  14  38   9
M  END
>  <minimizedAffinity>  (1) 
-5.35572195

>  <minimizedRMSD>  (1) 
0.280440032

$$$$
