
     RDKit          3D

 23 25  0  0  0  0  0  0  0  0999 V2000
   37.3200   31.3500   49.2380 C   0  0  0  0  0  0  0  0  0  0  0  0
   37.6770   32.6200   49.7420 C   0  0  0  0  0  0  0  0  0  0  0  0
   38.5780   33.3320   48.9730 C   0  0  0  0  0  0  0  0  0  0  0  0
   39.0630   32.8170   47.8200 N   0  0  0  0  0  0  0  0  0  0  0  0
   38.7050   31.5970   47.3600 C   0  0  0  0  0  0  0  0  0  0  0  0
   37.8180   30.8560   48.0860 N   0  0  0  0  0  0  0  0  0  0  0  0
   36.3230   30.5490   50.0350 C   0  0  0  0  0  0  0  0  0  0  0  0
   36.2900   29.0930   49.9340 C   0  0  0  0  0  0  0  0  0  0  0  0
   36.9860   29.7100   51.1160 C   0  0  0  0  0  0  0  0  0  0  0  0
   39.2280   31.0390   46.1160 C   0  0  0  0  0  0  0  0  0  0  0  0
   38.6010   30.3540   45.1180 N   0  0  0  0  0  0  0  0  0  0  0  0
   39.5310   30.0490   44.1680 C   0  0  0  0  0  0  0  0  0  0  0  0
   40.7280   30.5540   44.5940 N   0  0  0  0  0  0  0  0  0  0  0  0
   40.5460   31.1550   45.7750 N   0  0  0  0  0  0  0  0  0  0  0  0
   37.2660   33.0156   50.6825 H   0  0  0  0  0  0  0  0  0  0  0  0
   38.9046   34.3294   49.3025 H   0  0  0  0  0  0  0  0  0  0  0  0
   35.5264   31.3030   49.9514 H   0  0  0  0  0  0  0  0  0  0  0  0
   35.3400   28.5578   50.0790 H   0  0  0  0  0  0  0  0  0  0  0  0
   36.5868   28.3703   49.1597 H   0  0  0  0  0  0  0  0  0  0  0  0
   38.0824   29.6732   51.1974 H   0  0  0  0  0  0  0  0  0  0  0  0
   36.9107   29.6269   52.2103 H   0  0  0  0  0  0  0  0  0  0  0  0
   39.3513   29.4988   43.2326 H   0  0  0  0  0  0  0  0  0  0  0  0
   41.6227   30.4833   44.0886 H   0  0  0  0  0  0  0  0  0  0  0  0
  1  2  2  0
  1  7  1  0
  3  2  1  0
  4  3  2  0
  5  4  1  0
  5  6  2  0
  6  1  1  0
  7  9  1  0
  8  7  1  0
  8  9  1  0
 10  5  1  0
 11 10  1  0
 12 13  1  0
 12 11  2  0
 13 14  1  0
 14 10  2  0
  2 15  1  0
  3 16  1  0
  7 17  1  0
  8 18  1  0
  8 19  1  0
  9 20  1  0
  9 21  1  0
 12 22  1  0
 13 23  1  0
M  ISO  8  15  14  16  14  17  13  18  13  19  13  20  13  21  13  22  14
M  ISO  1  23   9
M  END
>  <minimizedAffinity>  (1) 
-5.43907452

>  <minimizedRMSD>  (1) 
0.615503967

$$$$
