
     RDKit          3D

 40 43  0  0  0  0  0  0  0  0999 V2000
   31.6670   26.3270   47.6360 C   0  0  0  0  0  0  0  0  0  0  0  0
   31.6730   24.9540   47.7950 C   0  0  0  0  0  0  0  0  0  0  0  0
   32.6860   24.1130   47.3420 C   0  0  0  0  0  0  0  0  0  0  0  0
   33.7820   24.6950   46.6750 C   0  0  0  0  0  0  0  0  0  0  0  0
   33.7610   26.0650   46.5260 C   0  0  0  0  0  0  0  0  0  0  0  0
   32.7640   26.8790   46.9740 C   0  0  0  0  0  0  0  0  0  0  0  0
   30.6750   27.5660   49.4570 C   0  0  0  0  0  0  0  0  0  0  0  0
   30.5370   27.0350   48.1650 C   0  0  0  0  0  0  0  0  0  0  0  0
   29.3210   27.2340   47.4960 C   0  0  0  0  0  0  0  0  0  0  0  0
   28.3310   27.9270   48.1190 N   0  0  0  0  0  0  0  0  0  0  0  0
   28.4920   28.4320   49.3770 C   0  0  0  0  0  0  0  0  0  0  0  0
   29.6650   28.2480   50.0410 N   0  0  0  0  0  0  0  0  0  0  0  0
   29.0330   26.7260   46.1240 C   0  0  0  0  0  0  0  0  0  0  0  0
   27.7890   27.2240   45.6950 F   0  0  0  0  0  0  0  0  0  0  0  0
   29.9560   27.0030   45.1840 F   0  0  0  0  0  0  0  0  0  0  0  0
   28.8310   25.3410   46.1720 F   0  0  0  0  0  0  0  0  0  0  0  0
   32.7550   28.6220   46.7760 S   0  0  0  0  0  0  0  0  0  0  0  0
   34.1290   28.4700   49.5610 Cl  0  0  0  0  0  0  0  0  0  0  0  0
   34.9240   29.2490   48.2210 C   0  0  0  0  0  0  0  0  0  0  0  0
   34.3500   29.3680   46.9560 C   0  0  0  0  0  0  0  0  0  0  0  0
   35.0080   30.0120   45.9490 C   0  0  0  0  0  0  0  0  0  0  0  0
   36.2630   30.5440   46.2090 C   0  0  0  0  0  0  0  0  0  0  0  0
   36.8440   30.4260   47.4760 C   0  0  0  0  0  0  0  0  0  0  0  0
   36.1780   29.7770   48.4940 C   0  0  0  0  0  0  0  0  0  0  0  0
   36.8140   29.6740   49.8020 C   0  0  0  0  0  0  0  0  0  0  0  0
   36.6770   30.6310   50.7370 N   0  0  0  0  0  0  0  0  0  0  0  0
   37.3870   30.2400   51.8380 C   0  0  0  0  0  0  0  0  0  0  0  0
   37.9410   29.0320   51.5240 N   0  0  0  0  0  0  0  0  0  0  0  0
   37.5920   28.6940   50.2940 N   0  0  0  0  0  0  0  0  0  0  0  0
   30.8194   24.4945   48.3148 H   0  0  0  0  0  0  0  0  0  0  0  0
   32.6321   23.0258   47.5003 H   0  0  0  0  0  0  0  0  0  0  0  0
   34.6139   24.0857   46.2919 H   0  0  0  0  0  0  0  0  0  0  0  0
   34.6100   26.5352   46.0082 H   0  0  0  0  0  0  0  0  0  0  0  0
   31.6197   27.4248   50.0025 H   0  0  0  0  0  0  0  0  0  0  0  0
   27.6721   28.9885   49.8545 H   0  0  0  0  0  0  0  0  0  0  0  0
   34.5532   30.1075   44.9520 H   0  0  0  0  0  0  0  0  0  0  0  0
   36.8081   31.0653   45.4083 H   0  0  0  0  0  0  0  0  0  0  0  0
   37.8400   30.8543   47.6616 H   0  0  0  0  0  0  0  0  0  0  0  0
   37.4910   30.7882   52.7860 H   0  0  0  0  0  0  0  0  0  0  0  0
   38.5381   28.4711   52.1483 H   0  0  0  0  0  0  0  0  0  0  0  0
  1  2  2  0
  1  8  1  0
  3  2  1  0
  4  3  2  0
  5  4  1  0
  5  6  2  0
  6  1  1  0
  7 12  2  0
  8  7  1  0
  9 10  1  0
  9  8  2  0
 10 11  2  0
 11 12  1  0
 13 16  1  0
 13  9  1  0
 14 13  1  0
 15 13  1  0
 17 20  1  0
 17  6  1  0
 19 24  2  0
 19 18  1  0
 20 19  1  0
 21 22  1  0
 21 20  2  0
 22 23  2  0
 23 24  1  0
 24 25  1  0
 25 29  2  0
 25 26  1  0
 26 27  2  0
 28 27  1  0
 29 28  1  0
  2 30  1  0
  3 31  1  0
  4 32  1  0
  5 33  1  0
  7 34  1  0
 11 35  1  0
 21 36  1  0
 22 37  1  0
 23 38  1  0
 27 39  1  0
 28 40  1  0
M  ISO  8  30  14  31  14  32  14  33  14  34  14  35  14  36  14  37  14
M  ISO  3  38  14  39  14  40   9
M  END
>  <minimizedAffinity>  (1) 
-5.869699

>  <minimizedRMSD>  (1) 
3.72531295

$$$$
