
     RDKit          3D

 32 34  0  0  1  0  0  0  0  0999 V2000
   35.4880   30.0660   49.7970 C   0  0  2  0  0  0  0  0  0  0  0  0
   36.3450   31.1250   49.1480 C   0  0  0  0  0  0  0  0  0  0  0  0
   37.8060   30.9280   49.3800 C   0  0  2  0  0  0  0  0  0  0  0  0
   38.1750   30.7570   50.8290 C   0  0  0  0  0  0  0  0  0  0  0  0
   37.2160   29.9160   51.6010 C   0  0  0  0  0  0  0  0  0  0  0  0
   36.2460   29.1670   50.7090 C   0  0  0  0  0  0  0  0  0  0  0  0
   34.8490   29.2240   48.7480 C   0  0  0  0  0  0  0  0  0  0  0  0
   34.6810   29.8240   47.4870 C   0  0  0  0  0  0  0  0  0  0  0  0
   34.0640   29.0320   46.4990 C   0  0  0  0  0  0  0  0  0  0  0  0
   33.6660   27.7470   46.8040 N   0  0  0  0  0  0  0  0  0  0  0  0
   33.8560   27.2190   48.0450 C   0  0  0  0  0  0  0  0  0  0  0  0
   34.4420   27.9620   48.9940 N   0  0  0  0  0  0  0  0  0  0  0  0
   38.4860   32.1830   48.9280 C   0  0  0  0  0  0  0  0  0  0  0  0
   38.8250   33.2430   49.6860 N   0  0  0  0  0  0  0  0  0  0  0  0
   39.4270   34.1870   48.9120 C   0  0  0  0  0  0  0  0  0  0  0  0
   39.4510   33.6870   47.6610 N   0  0  0  0  0  0  0  0  0  0  0  0
   38.8840   32.4710   47.6530 N   0  0  0  0  0  0  0  0  0  0  0  0
   34.7410   30.6051   50.3982 H   0  0  0  0  0  0  0  0  0  0  0  0
   36.0562   32.1053   49.5550 H   0  0  0  0  0  0  0  0  0  0  0  0
   36.1764   31.0599   48.0630 H   0  0  0  0  0  0  0  0  0  0  0  0
   38.1037   30.0160   48.8419 H   0  0  0  0  0  0  0  0  0  0  0  0
   39.1678   30.2862   50.8804 H   0  0  0  0  0  0  0  0  0  0  0  0
   38.1588   31.7587   51.2832 H   0  0  0  0  0  0  0  0  0  0  0  0
   37.7863   29.1849   52.1928 H   0  0  0  0  0  0  0  0  0  0  0  0
   36.6268   30.5876   52.2427 H   0  0  0  0  0  0  0  0  0  0  0  0
   35.5295   28.6266   51.3450 H   0  0  0  0  0  0  0  0  0  0  0  0
   36.8349   28.4807   50.0828 H   0  0  0  0  0  0  0  0  0  0  0  0
   35.0125   30.8530   47.2840 H   0  0  0  0  0  0  0  0  0  0  0  0
   33.9004   29.4363   45.4892 H   0  0  0  0  0  0  0  0  0  0  0  0
   33.5313   26.1916   48.2664 H   0  0  0  0  0  0  0  0  0  0  0  0
   39.8157   35.1619   49.2414 H   0  0  0  0  0  0  0  0  0  0  0  0
   39.8441   34.1648   46.8375 H   0  0  0  0  0  0  0  0  0  0  0  0
  1  6  1  0
  2  3  1  0
  2  1  1  0
  3  4  1  0
  4  5  1  0
  6  5  1  0
  7 12  1  0
  7  1  1  0
  8  7  2  0
  9 10  2  0
  9  8  1  0
 10 11  1  0
 11 12  2  0
 13  3  1  0
 13 14  1  0
 15 14  2  0
 16 15  1  0
 17 16  1  0
 17 13  2  0
  1 18  1  1
  2 19  1  0
  2 20  1  0
  3 21  1  6
  4 22  1  0
  4 23  1  0
  5 24  1  0
  5 25  1  0
  6 26  1  0
  6 27  1  0
  8 28  1  0
  9 29  1  0
 11 30  1  0
 15 31  1  0
 16 32  1  0
M  ISO  8  18  13  19  13  20  13  21  13  22  13  23  13  24  13  25  13
M  ISO  7  26  13  27  13  28  14  29  14  30  14  31  14  32   9
M  END
>  <minimizedAffinity>  (1) 
-6.43992853

>  <minimizedRMSD>  (1) 
0.665059566

$$$$
