
     RDKit          3D

 23 25  0  0  1  0  0  0  0  0999 V2000
   37.3190   31.5690   49.4200 C   0  0  1  0  0  0  0  0  0  0  0  0
   37.0170   30.1990   49.0080 C   0  0  1  0  0  0  0  0  0  0  0  0
   37.9470   30.4110   50.1730 C   0  0  0  0  0  0  0  0  0  0  0  0
   38.3280   32.3920   48.6570 C   0  0  0  0  0  0  0  0  0  0  0  0
   38.8300   33.5380   49.2990 C   0  0  0  0  0  0  0  0  0  0  0  0
   39.7380   34.2940   48.5730 C   0  0  0  0  0  0  0  0  0  0  0  0
   40.0970   33.9120   47.3080 N   0  0  0  0  0  0  0  0  0  0  0  0
   39.5830   32.7890   46.7230 C   0  0  0  0  0  0  0  0  0  0  0  0
   38.6910   32.0270   47.4100 N   0  0  0  0  0  0  0  0  0  0  0  0
   35.6450   29.6660   49.2420 C   0  0  0  0  0  0  0  0  0  0  0  0
   35.1380   28.4540   48.9090 N   0  0  0  0  0  0  0  0  0  0  0  0
   33.8420   28.3880   49.3110 C   0  0  0  0  0  0  0  0  0  0  0  0
   33.5640   29.5760   49.8980 N   0  0  0  0  0  0  0  0  0  0  0  0
   34.6600   30.3450   49.8520 N   0  0  0  0  0  0  0  0  0  0  0  0
   36.6673   32.4283   49.6366 H   0  0  0  0  0  0  0  0  0  0  0  0
   37.0920   29.6386   48.0644 H   0  0  0  0  0  0  0  0  0  0  0  0
   39.0218   30.1998   50.0719 H   0  0  0  0  0  0  0  0  0  0  0  0
   37.9889   30.0798   51.2211 H   0  0  0  0  0  0  0  0  0  0  0  0
   38.5208   33.8182   50.3168 H   0  0  0  0  0  0  0  0  0  0  0  0
   40.1713   35.2035   49.0147 H   0  0  0  0  0  0  0  0  0  0  0  0
   39.8883   32.5041   45.7053 H   0  0  0  0  0  0  0  0  0  0  0  0
   33.1550   27.5382   49.1847 H   0  0  0  0  0  0  0  0  0  0  0  0
   32.6595   29.8441   50.3115 H   0  0  0  0  0  0  0  0  0  0  0  0
  1  3  1  0
  2 10  1  0
  2  1  1  0
  2  3  1  0
  4  5  2  0
  4  1  1  0
  6  5  1  0
  7  6  2  0
  8  7  1  0
  8  9  2  0
  9  4  1  0
 10 14  2  0
 11 10  1  0
 11 12  2  0
 12 13  1  0
 14 13  1  0
  1 15  1  1
  2 16  1  6
  3 17  1  0
  3 18  1  0
  5 19  1  0
  6 20  1  0
  8 21  1  0
 12 22  1  0
 13 23  1  0
M  ISO  8  15  13  16  13  17  13  18  13  19  14  20  14  21  14  22  14
M  ISO  1  23   9
M  END
>  <minimizedAffinity>  (1) 
-5.0880332

>  <minimizedRMSD>  (1) 
1.94054699

$$$$
