
     RDKit          3D

 39 42  0  0  0  0  0  0  0  0999 V2000
   38.3270   31.5930   48.8620 C   0  0  0  0  0  0  0  0  0  0  0  0
   38.5070   32.8540   49.3850 C   0  0  0  0  0  0  0  0  0  0  0  0
   39.1650   33.6070   48.4080 C   0  0  0  0  0  0  0  0  0  0  0  0
   39.3550   32.8000   47.3590 N   0  0  0  0  0  0  0  0  0  0  0  0
   38.8630   31.6350   47.6370 N   0  0  0  0  0  0  0  0  0  0  0  0
   40.0000   33.1560   46.1290 C   0  0  0  0  0  0  0  0  0  0  0  0
   40.6540   31.9590   45.5420 C   0  0  0  0  0  0  0  0  0  0  0  0
   40.4100   31.6370   44.1570 C   0  0  0  0  0  0  0  0  0  0  0  0
   39.7410   32.4830   43.3190 N   0  0  0  0  0  0  0  0  0  0  0  0
   39.6490   31.9590   42.0880 C   0  0  0  0  0  0  0  0  0  0  0  0
   40.2640   30.7670   42.1310 N   0  0  0  0  0  0  0  0  0  0  0  0
   40.7070   30.5950   43.3600 N   0  0  0  0  0  0  0  0  0  0  0  0
   37.6850   30.7050   49.7010 O   0  0  0  0  0  0  0  0  0  0  0  0
   34.1230   28.8890   48.3950 C   0  0  0  0  0  0  0  0  0  0  0  0
   34.8500   28.3610   49.4160 C   0  0  0  0  0  0  0  0  0  0  0  0
   36.0170   28.8990   49.8920 C   0  0  0  0  0  0  0  0  0  0  0  0
   36.5270   30.0320   49.3460 C   0  0  0  0  0  0  0  0  0  0  0  0
   35.7930   30.5850   48.2980 C   0  0  0  0  0  0  0  0  0  0  0  0
   34.6460   30.0300   47.8530 N   0  0  0  0  0  0  0  0  0  0  0  0
   31.9910   27.6310   48.6730 C   0  0  0  0  0  0  0  0  0  0  0  0
   32.9040   28.3380   47.8860 C   0  0  0  0  0  0  0  0  0  0  0  0
   32.5870   28.4940   46.5540 C   0  0  0  0  0  0  0  0  0  0  0  0
   31.4240   27.9680   46.0630 N   0  0  0  0  0  0  0  0  0  0  0  0
   30.5760   27.2910   46.8730 C   0  0  0  0  0  0  0  0  0  0  0  0
   30.8420   27.1090   48.1940 N   0  0  0  0  0  0  0  0  0  0  0  0
   38.1933   33.2020   50.3802 H   0  0  0  0  0  0  0  0  0  0  0  0
   39.4683   34.6614   48.4871 H   0  0  0  0  0  0  0  0  0  0  0  0
   39.2519   33.5468   45.4236 H   0  0  0  0  0  0  0  0  0  0  0  0
   40.7600   33.9265   46.3259 H   0  0  0  0  0  0  0  0  0  0  0  0
   41.7395   32.0971   45.6544 H   0  0  0  0  0  0  0  0  0  0  0  0
   40.2060   31.1178   46.0912 H   0  0  0  0  0  0  0  0  0  0  0  0
   39.1639   32.4170   41.2134 H   0  0  0  0  0  0  0  0  0  0  0  0
   40.3703   30.1075   41.3470 H   0  0  0  0  0  0  0  0  0  0  0  0
   34.4767   27.4417   49.8909 H   0  0  0  0  0  0  0  0  0  0  0  0
   36.5446   28.4086   50.7233 H   0  0  0  0  0  0  0  0  0  0  0  0
   36.1606   31.5039   47.8179 H   0  0  0  0  0  0  0  0  0  0  0  0
   32.2209   27.4925   49.7397 H   0  0  0  0  0  0  0  0  0  0  0  0
   33.2688   29.0411   45.8863 H   0  0  0  0  0  0  0  0  0  0  0  0
   29.6479   26.8776   46.4514 H   0  0  0  0  0  0  0  0  0  0  0  0
  1  2  1  0
  1 13  1  0
  3  2  2  0
  4  5  1  0
  4  3  1  0
  5  1  2  0
  6  4  1  0
  7  6  1  0
  8  7  1  0
  9  8  1  0
 10 11  1  0
 10  9  2  0
 11 12  1  0
 12  8  2  0
 14 15  2  0
 15 16  1  0
 17 13  1  0
 17 16  2  0
 18 17  1  0
 19 18  2  0
 19 14  1  0
 21 14  1  0
 21 20  2  0
 22 21  1  0
 23 22  2  0
 23 24  1  0
 24 25  2  0
 25 20  1  0
  2 26  1  0
  3 27  1  0
  6 28  1  0
  6 29  1  0
  7 30  1  0
  7 31  1  0
 10 32  1  0
 11 33  1  0
 15 34  1  0
 16 35  1  0
 18 36  1  0
 20 37  1  0
 22 38  1  0
 24 39  1  0
M  ISO  8  26  14  27  14  28   8  29   8  30   8  31   8  32  14  33   9
M  ISO  6  34  14  35  14  36  14  37  14  38  14  39  14
M  END
>  <minimizedAffinity>  (1) 
-6.18907642

>  <minimizedRMSD>  (1) 
1.21352327

$$$$
