
     RDKit          3D

 44 47  0  0  0  0  0  0  0  0999 V2000
   34.4200   28.6500   48.1230 C   0  0  0  0  0  0  0  0  0  0  0  0
   33.5240   27.5470   47.6390 C   0  0  0  0  0  0  0  0  0  0  0  0
   32.0880   27.8960   47.7380 C   0  0  0  0  0  0  0  0  0  0  0  0
   31.3770   27.4220   48.8340 C   0  0  0  0  0  0  0  0  0  0  0  0
   30.0450   27.6890   49.0140 C   0  0  0  0  0  0  0  0  0  0  0  0
   29.4040   28.4270   48.1160 N   0  0  0  0  0  0  0  0  0  0  0  0
   30.1070   28.8860   47.0470 C   0  0  0  0  0  0  0  0  0  0  0  0
   31.4060   28.6460   46.8370 N   0  0  0  0  0  0  0  0  0  0  0  0
   29.3460   29.7170   46.0540 C   0  0  0  0  0  0  0  0  0  0  0  0
   28.1310   28.9010   45.7170 C   0  0  0  0  0  0  0  0  0  0  0  0
   28.1600   27.7960   44.9240 N   0  0  0  0  0  0  0  0  0  0  0  0
   26.9090   27.3150   44.8340 C   0  0  0  0  0  0  0  0  0  0  0  0
   26.1010   28.1260   45.5740 N   0  0  0  0  0  0  0  0  0  0  0  0
   26.8430   29.0680   46.0960 N   0  0  0  0  0  0  0  0  0  0  0  0
   34.9700   28.3490   49.3910 O   0  0  0  0  0  0  0  0  0  0  0  0
   37.2950   30.1550   51.4690 C   0  0  0  0  0  0  0  0  0  0  0  0
   38.0460   30.8420   50.4940 C   0  0  0  0  0  0  0  0  0  0  0  0
   37.6950   30.6350   49.1700 C   0  0  0  0  0  0  0  0  0  0  0  0
   36.6540   29.7820   48.9420 N   0  0  0  0  0  0  0  0  0  0  0  0
   35.9570   29.1410   49.8770 C   0  0  0  0  0  0  0  0  0  0  0  0
   36.3010   29.3450   51.1730 N   0  0  0  0  0  0  0  0  0  0  0  0
   38.9430   33.2370   49.0020 F   0  0  0  0  0  0  0  0  0  0  0  0
   38.9160   32.4510   47.9240 C   0  0  0  0  0  0  0  0  0  0  0  0
   38.3310   31.2400   48.0140 C   0  0  0  0  0  0  0  0  0  0  0  0
   38.3600   30.5040   46.8370 C   0  0  0  0  0  0  0  0  0  0  0  0
   38.9310   30.9700   45.6830 C   0  0  0  0  0  0  0  0  0  0  0  0
   39.5190   32.2150   45.6320 C   0  0  0  0  0  0  0  0  0  0  0  0
   39.5060   32.9620   46.7810 C   0  0  0  0  0  0  0  0  0  0  0  0
   33.8357   29.5790   48.1977 H   0  0  0  0  0  0  0  0  0  0  0  0
   35.2460   28.7651   47.4057 H   0  0  0  0  0  0  0  0  0  0  0  0
   33.7111   26.6489   48.2460 H   0  0  0  0  0  0  0  0  0  0  0  0
   33.7526   27.3733   46.5771 H   0  0  0  0  0  0  0  0  0  0  0  0
   31.9018   26.8111   49.5832 H   0  0  0  0  0  0  0  0  0  0  0  0
   29.5129   27.2961   49.8929 H   0  0  0  0  0  0  0  0  0  0  0  0
   29.0543   30.6801   46.4983 H   0  0  0  0  0  0  0  0  0  0  0  0
   29.9473   29.9513   45.1632 H   0  0  0  0  0  0  0  0  0  0  0  0
   26.5937   26.4274   44.2660 H   0  0  0  0  0  0  0  0  0  0  0  0
   25.0846   28.0162   45.6999 H   0  0  0  0  0  0  0  0  0  0  0  0
   37.5521   30.3030   52.5282 H   0  0  0  0  0  0  0  0  0  0  0  0
   38.8731   31.5119   50.7717 H   0  0  0  0  0  0  0  0  0  0  0  0
   37.9044   29.5028   46.8314 H   0  0  0  0  0  0  0  0  0  0  0  0
   38.9201   30.3398   44.7815 H   0  0  0  0  0  0  0  0  0  0  0  0
   39.9797   32.5936   44.7076 H   0  0  0  0  0  0  0  0  0  0  0  0
   39.9623   33.9628   46.7947 H   0  0  0  0  0  0  0  0  0  0  0  0
  1 15  1  0
  2  3  1  0
  2  1  1  0
  3  4  2  0
  4  5  1  0
  6  5  2  0
  7  6  1  0
  8  7  2  0
  8  3  1  0
  9  7  1  0
 10  9  1  0
 10 14  2  0
 11 10  1  0
 12 11  2  0
 12 13  1  0
 13 14  1  0
 15 20  1  0
 17 16  2  0
 18 17  1  0
 19 18  2  0
 19 20  1  0
 20 21  2  0
 21 16  1  0
 23 24  2  0
 23 22  1  0
 24 18  1  0
 25 24  1  0
 26 25  2  0
 27 26  1  0
 27 28  2  0
 28 23  1  0
  1 29  1  0
  1 30  1  0
  2 31  1  0
  2 32  1  0
  4 33  1  0
  5 34  1  0
  9 35  1  0
  9 36  1  0
 12 37  1  0
 13 38  1  0
 16 39  1  0
 17 40  1  0
 25 41  1  0
 26 42  1  0
 27 43  1  0
 28 44  1  0
M  ISO  8  29   8  30   8  31   8  32   8  33  14  34  14  35   8  36   8
M  ISO  8  37  14  38   9  39  14  40  14  41  14  42  14  43  14  44  14
M  END
>  <minimizedAffinity>  (1) 
-6.59692335

>  <minimizedRMSD>  (1) 
0.878475666

$$$$
