
     RDKit          3D

 28 30  0  0  0  0  0  0  0  0999 V2000
   34.4950   30.5080   49.1690 Cl  0  0  0  0  0  0  0  0  0  0  0  0
   35.5120   30.5260   47.7640 C   0  0  0  0  0  0  0  0  0  0  0  0
   34.8940   30.0550   46.6250 C   0  0  0  0  0  0  0  0  0  0  0  0
   35.6190   30.0400   45.4290 C   0  0  0  0  0  0  0  0  0  0  0  0
   36.9100   30.4800   45.3740 C   0  0  0  0  0  0  0  0  0  0  0  0
   37.5050   30.9470   46.5270 C   0  0  0  0  0  0  0  0  0  0  0  0
   39.1480   31.5250   46.4750 Cl  0  0  0  0  0  0  0  0  0  0  0  0
   36.8030   30.9610   47.6940 C   0  0  0  0  0  0  0  0  0  0  0  0
   32.5190   30.4520   46.0560 C   0  0  0  0  0  0  0  0  0  0  0  0
   33.5320   29.5320   46.4540 C   0  0  0  0  0  0  0  0  0  0  0  0
   33.1650   28.2180   46.6510 C   0  0  0  0  0  0  0  0  0  0  0  0
   31.8700   27.8550   46.4600 N   0  0  0  0  0  0  0  0  0  0  0  0
   30.9330   28.7630   46.0790 C   0  0  0  0  0  0  0  0  0  0  0  0
   31.2560   30.0750   45.8750 N   0  0  0  0  0  0  0  0  0  0  0  0
   37.4000   31.4080   48.9520 C   0  0  0  0  0  0  0  0  0  0  0  0
   37.8470   32.5550   49.2380 O   0  0  0  0  0  0  0  0  0  0  0  0
   37.5470   30.4730   50.0930 C   0  0  0  0  0  0  0  0  0  0  0  0
   37.2870   30.7720   51.3770 N   0  0  0  0  0  0  0  0  0  0  0  0
   37.5380   29.6860   52.1630 C   0  0  0  0  0  0  0  0  0  0  0  0
   37.9590   28.7110   51.3390 N   0  0  0  0  0  0  0  0  0  0  0  0
   37.9570   29.1930   50.1280 N   0  0  0  0  0  0  0  0  0  0  0  0
   35.1385   29.6656   44.5130 H   0  0  0  0  0  0  0  0  0  0  0  0
   37.4666   30.4623   44.4254 H   0  0  0  0  0  0  0  0  0  0  0  0
   32.7895   31.5058   45.8935 H   0  0  0  0  0  0  0  0  0  0  0  0
   33.9122   27.4719   46.9593 H   0  0  0  0  0  0  0  0  0  0  0  0
   29.8934   28.4350   45.9319 H   0  0  0  0  0  0  0  0  0  0  0  0
   37.4194   29.6209   53.2547 H   0  0  0  0  0  0  0  0  0  0  0  0
   38.2331   27.7571   51.6143 H   0  0  0  0  0  0  0  0  0  0  0  0
  2  1  1  0
  3  2  2  0
  4  3  1  0
  5  4  2  0
  5  6  1  0
  6  8  2  0
  7  6  1  0
  8  2  1  0
  8 15  1  0
  9 10  2  0
 10  3  1  0
 10 11  1  0
 12 11  2  0
 13 12  1  0
 14  9  1  0
 14 13  2  0
 15 16  2  0
 15 17  1  0
 17 21  2  0
 17 18  1  0
 18 19  2  0
 20 19  1  0
 21 20  1  0
  4 22  1  0
  5 23  1  0
  9 24  1  0
 11 25  1  0
 13 26  1  0
 19 27  1  0
 20 28  1  0
M  ISO  7  22  14  23  14  24  14  25  14  26  14  27  14  28   9
M  END
>  <minimizedAffinity>  (1) 
-5.24635172

>  <minimizedRMSD>  (1) 
3.11409545

$$$$
