
     RDKit          3D

 45 48  0  0  1  0  0  0  0  0999 V2000
   36.0640   30.2140   46.9780 C   0  0  0  0  0  0  0  0  0  0  0  0
   36.9740   30.7130   47.9090 C   0  0  0  0  0  0  0  0  0  0  0  0
   38.0060   31.5570   47.5240 C   0  0  0  0  0  0  0  0  0  0  0  0
   38.0840   31.8730   46.1720 C   0  0  0  0  0  0  0  0  0  0  0  0
   38.9980   32.6770   45.5520 N   0  0  0  0  0  0  0  0  0  0  0  0
   38.6690   32.6840   44.2480 C   0  0  0  0  0  0  0  0  0  0  0  0
   37.6090   31.9300   44.0460 N   0  0  0  0  0  0  0  0  0  0  0  0
   37.2100   31.4050   45.2180 C   0  0  0  0  0  0  0  0  0  0  0  0
   36.1700   30.5510   45.6320 C   0  0  0  0  0  0  0  0  0  0  0  0
   37.4210   30.1060   51.5900 C   0  0  0  0  0  0  0  0  0  0  0  0
   37.7010   30.5390   50.3030 C   0  0  0  0  0  0  0  0  0  0  0  0
   36.7840   30.3060   49.2830 C   0  0  0  0  0  0  0  0  0  0  0  0
   35.6410   29.6510   49.6210 N   0  0  0  0  0  0  0  0  0  0  0  0
   35.3670   29.2290   50.8700 C   0  0  0  0  0  0  0  0  0  0  0  0
   36.2440   29.4550   51.8320 N   0  0  0  0  0  0  0  0  0  0  0  0
   39.3930   33.4110   43.3010 O   0  0  0  0  0  0  0  0  0  0  0  0
   39.1870   31.4610   42.1180 N   0  0  0  0  0  0  0  0  0  0  0  0
   39.4110   32.8750   41.9910 C   0  0  1  0  0  0  0  0  0  0  0  0
   38.3800   33.4860   41.1610 C   0  0  0  0  0  0  0  0  0  0  0  0
   38.4500   32.9300   39.8710 O   0  0  0  0  0  0  0  0  0  0  0  0
   38.3810   31.5700   39.8120 C   0  0  0  0  0  0  0  0  0  0  0  0
   39.2910   30.8900   40.8110 C   0  0  1  0  0  0  0  0  0  0  0  0
   40.6230   30.8800   40.2880 N   0  0  0  0  0  0  0  0  0  0  0  0
   41.4760   29.4490   40.7410 S   0  0  0  0  0  0  0  0  0  0  0  0
   40.6750   28.2540   40.2990 O   0  0  0  0  0  0  0  0  0  0  0  0
   41.7170   29.3410   42.2060 O   0  0  0  0  0  0  0  0  0  0  0  0
   42.9400   29.4120   39.9040 O   0  0  0  0  0  0  0  0  0  0  0  0
   35.2545   29.5476   47.3106 H   0  0  0  0  0  0  0  0  0  0  0  0
   38.7270   31.9565   48.2525 H   0  0  0  0  0  0  0  0  0  0  0  0
   39.7819   33.1775   45.9945 H   0  0  0  0  0  0  0  0  0  0  0  0
   35.4502   30.1551   44.9005 H   0  0  0  0  0  0  0  0  0  0  0  0
   38.1370   30.2842   52.4058 H   0  0  0  0  0  0  0  0  0  0  0  0
   38.6436   31.0642   50.0894 H   0  0  0  0  0  0  0  0  0  0  0  0
   34.4255   28.7031   51.0865 H   0  0  0  0  0  0  0  0  0  0  0  0
   39.8961   31.0471   42.7400 H   0  0  0  0  0  0  0  0  0  0  0  0
   40.3748   33.0797   41.5019 H   0  0  0  0  0  0  0  0  0  0  0  0
   37.3893   33.2879   41.5960 H   0  0  0  0  0  0  0  0  0  0  0  0
   38.5371   34.5735   41.1089 H   0  0  0  0  0  0  0  0  0  0  0  0
   37.3447   31.2621   40.0151 H   0  0  0  0  0  0  0  0  0  0  0  0
   38.7091   31.2663   38.8069 H   0  0  0  0  0  0  0  0  0  0  0  0
   38.9729   29.8462   40.9498 H   0  0  0  0  0  0  0  0  0  0  0  0
   41.1302   31.6999   40.6506 H   0  0  0  0  0  0  0  0  0  0  0  0
   40.3467   27.7643   41.0943 H   0  0  0  0  0  0  0  0  0  0  0  0
   40.9322   29.6927   42.6964 H   0  0  0  0  0  0  0  0  0  0  0  0
   43.6894   29.3931   40.5506 H   0  0  0  0  0  0  0  0  0  0  0  0
  1  2  2  0
  2 12  1  0
  3  2  1  0
  4  3  2  0
  5  4  1  0
  6  5  1  0
  7  6  2  0
  7  8  1  0
  8  9  2  0
  8  4  1  0
  9  1  1  0
 10 15  2  0
 11 10  1  0
 12 13  1  0
 12 11  2  0
 13 14  2  0
 14 15  1  0
 16  6  1  0
 18 17  1  0
 18 16  1  0
 19 18  1  0
 20 19  1  0
 21 20  1  0
 21 22  1  0
 22 17  1  0
 23 24  1  0
 23 22  1  0
 24 26  1  0
 25 24  1  0
 27 24  1  0
  1 28  1  0
  3 29  1  0
  5 30  1  0
  9 31  1  0
 10 32  1  0
 11 33  1  0
 14 34  1  0
 17 35  1  0
 18 36  1  6
 19 37  1  0
 19 38  1  0
 21 39  1  0
 21 40  1  0
 22 41  1  1
 23 42  1  0
 25 43  1  0
 26 44  1  0
 27 45  1  0
M  ISO  8  28  14  29  14  30   9  31  14  32  14  33  14  34  14  35   5
M  ISO  8  36  13  37  13  38  13  39  13  40  13  41  13  42   5  43   3
M  ISO  2  44   3  45   3
M  END
>  <minimizedAffinity>  (1) 
-6.01229191

>  <minimizedRMSD>  (1) 
1.08731568

$$$$
