
     RDKit          3D

 28 29  0  0  0  0  0  0  0  0999 V2000
   38.1780   32.0520   46.9400 C   0  0  0  0  0  0  0  0  0  0  0  0
   38.2600   32.0520   45.5310 C   0  0  0  0  0  0  0  0  0  0  0  0
   37.3510   31.2460   44.8660 C   0  0  0  0  0  0  0  0  0  0  0  0
   36.4330   30.4990   45.5660 N   0  0  0  0  0  0  0  0  0  0  0  0
   36.4100   30.5460   46.9350 C   0  0  0  0  0  0  0  0  0  0  0  0
   37.2850   31.3240   47.6110 N   0  0  0  0  0  0  0  0  0  0  0  0
   39.0870   32.8610   47.6750 N   0  0  0  0  0  0  0  0  0  0  0  0
   37.5300   29.5110   49.6650 Br  0  0  0  0  0  0  0  0  0  0  0  0
   35.7780   29.2340   48.9310 C   0  0  0  0  0  0  0  0  0  0  0  0
   35.4480   29.7650   47.7020 C   0  0  0  0  0  0  0  0  0  0  0  0
   34.1720   29.5270   47.2350 C   0  0  0  0  0  0  0  0  0  0  0  0
   33.2240   28.7930   47.9260 C   0  0  0  0  0  0  0  0  0  0  0  0
   33.6010   28.2800   49.1520 C   0  0  0  0  0  0  0  0  0  0  0  0
   34.8720   28.5040   49.6420 C   0  0  0  0  0  0  0  0  0  0  0  0
   38.7500   33.1710   49.3350 S   0  0  0  0  0  0  0  0  0  0  0  0
   39.4860   34.3980   49.8050 O   0  0  0  0  0  0  0  0  0  0  0  0
   39.2080   32.0320   50.2030 O   0  0  0  0  0  0  0  0  0  0  0  0
   37.1070   33.3670   49.6060 O   0  0  0  0  0  0  0  0  0  0  0  0
   39.0034   32.6575   44.9918 H   0  0  0  0  0  0  0  0  0  0  0  0
   37.3635   31.2030   43.7669 H   0  0  0  0  0  0  0  0  0  0  0  0
   39.9270   33.2523   47.2254 H   0  0  0  0  0  0  0  0  0  0  0  0
   33.8919   29.9448   46.2568 H   0  0  0  0  0  0  0  0  0  0  0  0
   32.2164   28.6257   47.5177 H   0  0  0  0  0  0  0  0  0  0  0  0
   32.8841   27.6895   49.7413 H   0  0  0  0  0  0  0  0  0  0  0  0
   35.1578   28.0879   50.6193 H   0  0  0  0  0  0  0  0  0  0  0  0
   39.4974   34.4171   50.7948 H   0  0  0  0  0  0  0  0  0  0  0  0
   39.1075   32.2820   51.1556 H   0  0  0  0  0  0  0  0  0  0  0  0
   36.9334   33.3877   50.5804 H   0  0  0  0  0  0  0  0  0  0  0  0
  1  6  2  0
  1  7  1  0
  2  1  1  0
  3  2  2  0
  3  4  1  0
  4  5  2  0
  5  6  1  0
  5 10  1  0
  7 15  1  0
  9 14  2  0
  9  8  1  0
 10  9  1  0
 11 10  2  0
 11 12  1  0
 12 13  2  0
 13 14  1  0
 15 18  1  0
 15 16  1  0
 15 17  1  0
  2 19  1  0
  3 20  1  0
  7 21  1  0
 11 22  1  0
 12 23  1  0
 13 24  1  0
 14 25  1  0
 16 26  1  0
 17 27  1  0
 18 28  1  0
M  ISO  8  19  14  20  14  22  14  23  14  24  14  25  14  26   3  27   3
M  ISO  1  28   3
M  END
>  <minimizedAffinity>  (1) 
-5.35006905

>  <minimizedRMSD>  (1) 
2.51310587

$$$$
