
     RDKit          3D

 44 46  0  0  1  0  0  0  0  0999 V2000
   37.8280   30.7910   48.6140 C   0  0  1  0  0  0  0  0  0  0  0  0
   37.8370   30.4720   50.1810 C   0  0  0  0  0  0  0  0  0  0  0  0
   37.2820   29.0780   50.4510 C   0  0  0  0  0  0  0  0  0  0  0  0
   36.0400   28.8400   49.6400 C   0  0  0  0  0  0  0  0  0  0  0  0
   35.4790   30.1620   49.2990 C   0  0  0  0  0  0  0  0  0  0  0  0
   36.3750   30.8590   48.3020 C   0  0  2  0  0  0  0  0  0  0  0  0
   38.9650   32.5070   47.2580 C   0  0  0  0  0  0  0  0  0  0  0  0
   39.6110   33.7300   47.2370 C   0  0  0  0  0  0  0  0  0  0  0  0
   39.8470   34.4990   48.3580 C   0  0  0  0  0  0  0  0  0  0  0  0
   39.4260   34.0550   49.5940 C   0  0  0  0  0  0  0  0  0  0  0  0
   38.7940   32.8550   49.6110 C   0  0  0  0  0  0  0  0  0  0  0  0
   38.5330   32.0350   48.4950 C   0  0  0  0  0  0  0  0  0  0  0  0
   39.6190   30.6670   45.8190 C   0  0  0  0  0  0  0  0  0  0  0  0
   38.8200   31.8370   46.0140 C   0  0  0  0  0  0  0  0  0  0  0  0
   37.9900   32.2040   44.9800 C   0  0  0  0  0  0  0  0  0  0  0  0
   37.9580   31.4630   43.8520 N   0  0  0  0  0  0  0  0  0  0  0  0
   38.7440   30.3400   43.6980 C   0  0  0  0  0  0  0  0  0  0  0  0
   39.5980   29.9290   44.7030 N   0  0  0  0  0  0  0  0  0  0  0  0
   36.0580   30.5250   46.9450 N   0  0  0  0  0  0  0  0  0  0  0  0
   34.5310   29.9820   46.5370 S   0  0  0  0  0  0  0  0  0  0  0  0
   33.5270   30.7520   47.3470 O   0  0  0  0  0  0  0  0  0  0  0  0
   34.1520   30.3400   45.0990 O   0  0  0  0  0  0  0  0  0  0  0  0
   34.2360   28.3720   46.8360 O   0  0  0  0  0  0  0  0  0  0  0  0
   38.3075   30.0781   47.9271 H   0  0  0  0  0  0  0  0  0  0  0  0
   38.8700   30.5279   50.5548 H   0  0  0  0  0  0  0  0  0  0  0  0
   37.2041   31.2101   50.6955 H   0  0  0  0  0  0  0  0  0  0  0  0
   38.0400   28.3280   50.1809 H   0  0  0  0  0  0  0  0  0  0  0  0
   37.0308   28.9957   51.5188 H   0  0  0  0  0  0  0  0  0  0  0  0
   36.2900   28.2888   48.7215 H   0  0  0  0  0  0  0  0  0  0  0  0
   35.3120   28.2426   50.2085 H   0  0  0  0  0  0  0  0  0  0  0  0
   34.4783   30.0317   48.8613 H   0  0  0  0  0  0  0  0  0  0  0  0
   35.4091   30.7721   50.2116 H   0  0  0  0  0  0  0  0  0  0  0  0
   36.1404   31.9279   48.4137 H   0  0  0  0  0  0  0  0  0  0  0  0
   39.9582   34.1133   46.2662 H   0  0  0  0  0  0  0  0  0  0  0  0
   40.3691   35.4628   48.2662 H   0  0  0  0  0  0  0  0  0  0  0  0
   39.5928   34.6391   50.5111 H   0  0  0  0  0  0  0  0  0  0  0  0
   38.4525   32.4866   50.5896 H   0  0  0  0  0  0  0  0  0  0  0  0
   40.2896   30.3558   46.6335 H   0  0  0  0  0  0  0  0  0  0  0  0
   37.3551   33.0975   45.0720 H   0  0  0  0  0  0  0  0  0  0  0  0
   38.6901   29.7640   42.7624 H   0  0  0  0  0  0  0  0  0  0  0  0
   36.2285   31.3727   46.3854 H   0  0  0  0  0  0  0  0  0  0  0  0
   33.7058   30.6149   48.3110 H   0  0  0  0  0  0  0  0  0  0  0  0
   33.4323   31.0198   45.1069 H   0  0  0  0  0  0  0  0  0  0  0  0
   34.2077   28.2177   47.8135 H   0  0  0  0  0  0  0  0  0  0  0  0
  1  2  1  0
  2  3  1  0
  4  3  1  0
  5  4  1  0
  6  1  1  0
  6  5  1  0
  7 12  1  0
  8  7  2  0
  8  9  1  0
  9 10  2  0
 10 11  1  0
 12  1  1  0
 12 11  2  0
 13 14  2  0
 14  7  1  0
 15 14  1  0
 16 15  2  0
 17 16  1  0
 17 18  2  0
 18 13  1  0
 19  6  1  0
 20 23  1  0
 20 19  1  0
 20 21  1  0
 22 20  1  0
  1 24  1  6
  2 25  1  0
  2 26  1  0
  3 27  1  0
  3 28  1  0
  4 29  1  0
  4 30  1  0
  5 31  1  0
  5 32  1  0
  6 33  1  6
  8 34  1  0
  9 35  1  0
 10 36  1  0
 11 37  1  0
 13 38  1  0
 15 39  1  0
 17 40  1  0
 19 41  1  0
 21 42  1  0
 22 43  1  0
 23 44  1  0
M  ISO  8  24  13  25  13  26  13  27  13  28  13  29  13  30  13  31  13
M  ISO  8  32  13  33  13  34  14  35  14  36  14  37  14  38  14  39  14
M  ISO  5  40  14  41   5  42   3  43   3  44   3
M  END
>  <minimizedAffinity>  (1) 
-6.76119423

>  <minimizedRMSD>  (1) 
3.09207249

$$$$
