
     RDKit          3D

 28 29  0  0  0  0  0  0  0  0999 V2000
   37.6030   30.4640   50.8470 C   0  0  0  0  0  0  0  0  0  0  0  0
   37.1210   30.8650   49.5840 C   0  0  0  0  0  0  0  0  0  0  0  0
   35.8550   30.4260   49.2100 C   0  0  0  0  0  0  0  0  0  0  0  0
   35.1440   29.6480   50.0490 N   0  0  0  0  0  0  0  0  0  0  0  0
   35.6370   29.2770   51.2630 C   0  0  0  0  0  0  0  0  0  0  0  0
   36.8720   29.6890   51.6610 N   0  0  0  0  0  0  0  0  0  0  0  0
   38.0070   31.7020   48.7860 C   0  0  0  0  0  0  0  0  0  0  0  0
   38.4750   31.1440   47.6030 C   0  0  0  0  0  0  0  0  0  0  0  0
   39.3250   31.7970   46.7270 C   0  0  0  0  0  0  0  0  0  0  0  0
   39.7510   33.0850   47.0260 C   0  0  0  0  0  0  0  0  0  0  0  0
   39.2810   33.6280   48.1990 C   0  0  0  0  0  0  0  0  0  0  0  0
   38.4310   32.9860   49.0810 C   0  0  0  0  0  0  0  0  0  0  0  0
   35.3760   30.8230   47.9590 N   0  0  0  0  0  0  0  0  0  0  0  0
   34.1440   29.9640   47.1080 S   0  0  0  0  0  0  0  0  0  0  0  0
   33.5180   28.8910   47.9680 O   0  0  0  0  0  0  0  0  0  0  0  0
   34.7470   29.3520   45.8880 O   0  0  0  0  0  0  0  0  0  0  0  0
   32.8910   31.0310   46.7000 O   0  0  0  0  0  0  0  0  0  0  0  0
   38.6008   30.7943   51.1716 H   0  0  0  0  0  0  0  0  0  0  0  0
   35.0334   28.6402   51.9264 H   0  0  0  0  0  0  0  0  0  0  0  0
   38.1514   30.1242   47.3476 H   0  0  0  0  0  0  0  0  0  0  0  0
   39.6596   31.3012   45.8038 H   0  0  0  0  0  0  0  0  0  0  0  0
   40.4278   33.6407   46.3604 H   0  0  0  0  0  0  0  0  0  0  0  0
   39.6050   34.6477   48.4543 H   0  0  0  0  0  0  0  0  0  0  0  0
   38.0975   33.4874   50.0015 H   0  0  0  0  0  0  0  0  0  0  0  0
   35.7763   31.6668   47.5247 H   0  0  0  0  0  0  0  0  0  0  0  0
   33.6490   29.1155   48.9233 H   0  0  0  0  0  0  0  0  0  0  0  0
   35.4160   28.6731   46.1556 H   0  0  0  0  0  0  0  0  0  0  0  0
   32.4761   31.3843   47.5266 H   0  0  0  0  0  0  0  0  0  0  0  0
  1  6  2  0
  2  1  1  0
  3  2  2  0
  3  4  1  0
  4  5  2  0
  5  6  1  0
  7 12  1  0
  7  2  1  0
  8  7  2  0
  9 10  2  0
  9  8  1  0
 10 11  1  0
 11 12  2  0
 13  3  1  0
 14 13  1  0
 14 15  1  0
 16 14  1  0
 17 14  1  0
  1 18  1  0
  5 19  1  0
  8 20  1  0
  9 21  1  0
 10 22  1  0
 11 23  1  0
 12 24  1  0
 13 25  1  0
 15 26  1  0
 16 27  1  0
 17 28  1  0
M  ISO  8  18  14  19  14  20  14  21  14  22  14  23  14  24  14  26   3
M  ISO  2  27   3  28   3
M  END
>  <minimizedAffinity>  (1) 
-5.82208776

>  <minimizedRMSD>  (1) 
1.04423964

$$$$
