
     RDKit          3D

 42 44  0  0  0  0  0  0  0  0999 V2000
   32.8990   27.8660   48.3820 C   0  0  0  0  0  0  0  0  0  0  0  0
   33.2970   26.9340   47.3040 C   0  0  0  0  0  0  0  0  0  0  0  0
   33.7620   25.6620   47.5130 C   0  0  0  0  0  0  0  0  0  0  0  0
   34.1330   24.8070   46.5130 C   0  0  0  0  0  0  0  0  0  0  0  0
   34.0410   25.2280   45.1920 C   0  0  0  0  0  0  0  0  0  0  0  0
   33.5830   26.4810   44.9530 C   0  0  0  0  0  0  0  0  0  0  0  0
   33.2240   27.3030   45.9780 C   0  0  0  0  0  0  0  0  0  0  0  0
   32.7480   28.6150   45.7100 N   0  0  0  0  0  0  0  0  0  0  0  0
   33.4810   30.1550   45.5050 S   0  0  0  0  0  0  0  0  0  0  0  0
   33.2240   30.7460   44.1340 O   0  0  0  0  0  0  0  0  0  0  0  0
   34.9650   30.0860   45.7160 O   0  0  0  0  0  0  0  0  0  0  0  0
   32.8160   31.2760   46.5960 O   0  0  0  0  0  0  0  0  0  0  0  0
   35.1560   28.1860   49.3720 C   0  0  0  0  0  0  0  0  0  0  0  0
   34.0270   28.6590   48.9060 C   0  0  0  0  0  0  0  0  0  0  0  0
   37.3230   30.1680   51.5550 C   0  0  0  0  0  0  0  0  0  0  0  0
   38.0200   30.9640   50.6240 C   0  0  0  0  0  0  0  0  0  0  0  0
   37.7230   30.7940   49.2570 C   0  0  0  0  0  0  0  0  0  0  0  0
   36.7680   29.8630   48.8860 N   0  0  0  0  0  0  0  0  0  0  0  0
   36.1530   29.1470   49.8480 C   0  0  0  0  0  0  0  0  0  0  0  0
   36.4120   29.2840   51.1600 N   0  0  0  0  0  0  0  0  0  0  0  0
   38.3800   31.5660   48.1920 C   0  0  0  0  0  0  0  0  0  0  0  0
   38.5980   31.0590   46.9350 C   0  0  0  0  0  0  0  0  0  0  0  0
   39.2380   32.0550   46.1860 C   0  0  0  0  0  0  0  0  0  0  0  0
   39.3810   33.1240   47.0280 N   0  0  0  0  0  0  0  0  0  0  0  0
   38.8660   32.8160   48.2150 N   0  0  0  0  0  0  0  0  0  0  0  0
   32.4677   27.2820   49.2084 H   0  0  0  0  0  0  0  0  0  0  0  0
   32.1722   28.5720   47.9539 H   0  0  0  0  0  0  0  0  0  0  0  0
   33.8418   25.3065   48.5509 H   0  0  0  0  0  0  0  0  0  0  0  0
   34.5000   23.7978   46.7512 H   0  0  0  0  0  0  0  0  0  0  0  0
   34.3313   24.5639   44.3646 H   0  0  0  0  0  0  0  0  0  0  0  0
   33.5000   26.8393   43.9163 H   0  0  0  0  0  0  0  0  0  0  0  0
   31.7229   28.6509   45.6168 H   0  0  0  0  0  0  0  0  0  0  0  0
   32.8312   31.6494   44.2324 H   0  0  0  0  0  0  0  0  0  0  0  0
   35.1603   30.0769   46.6865 H   0  0  0  0  0  0  0  0  0  0  0  0
   32.9926   30.9784   47.5235 H   0  0  0  0  0  0  0  0  0  0  0  0
   35.3487   27.1035   49.4047 H   0  0  0  0  0  0  0  0  0  0  0  0
   33.9086   29.7526   48.9053 H   0  0  0  0  0  0  0  0  0  0  0  0
   37.5367   30.2802   52.6282 H   0  0  0  0  0  0  0  0  0  0  0  0
   38.7725   31.6953   50.9542 H   0  0  0  0  0  0  0  0  0  0  0  0
   38.3210   30.0551   46.5809 H   0  0  0  0  0  0  0  0  0  0  0  0
   39.5597   31.9908   45.1360 H   0  0  0  0  0  0  0  0  0  0  0  0
   39.8178   34.0237   46.7819 H   0  0  0  0  0  0  0  0  0  0  0  0
  1 14  1  0
  2  3  2  0
  2  1  1  0
  4  3  1  0
  5  4  2  0
  6  5  1  0
  6  7  2  0
  7  2  1  0
  8  7  1  0
  9  8  1  0
  9 11  1  0
  9 12  1  0
 10  9  1  0
 13 19  1  0
 14 13  2  0
 16 15  2  0
 17 16  1  0
 18 17  2  0
 18 19  1  0
 19 20  2  0
 20 15  1  0
 21 25  2  0
 21 17  1  0
 22 21  1  0
 23 22  2  0
 23 24  1  0
 24 25  1  0
  1 26  1  0
  1 27  1  0
  3 28  1  0
  4 29  1  0
  5 30  1  0
  6 31  1  0
  8 32  1  0
 10 33  1  0
 11 34  1  0
 12 35  1  0
 13 36  1  0
 14 37  1  0
 15 38  1  0
 16 39  1  0
 22 40  1  0
 23 41  1  0
 24 42  1  0
M  ISO  8  26   8  27   8  28  14  29  14  30  14  31  14  33   3  34   3
M  ISO  6  35   3  38  14  39  14  40  14  41  14  42   9
M  END
>  <minimizedAffinity>  (1) 
-6.38073349

>  <minimizedRMSD>  (1) 
0.612479031

$$$$
