
     RDKit          3D

 40 42  0  0  1  0  0  0  0  0999 V2000
   38.7640   32.2720   47.8470 C   0  0  2  0  0  0  0  0  0  0  0  0
   37.8920   32.6900   49.0680 C   0  0  2  0  0  0  0  0  0  0  0  0
   38.8550   33.4550   49.8460 C   0  0  0  0  0  0  0  0  0  0  0  0
   39.6840   34.1380   48.9590 O   0  0  0  0  0  0  0  0  0  0  0  0
   39.4830   33.6430   47.7130 C   0  0  0  0  0  0  0  0  0  0  0  0
   37.2190   29.7080   51.2660 C   0  0  0  0  0  0  0  0  0  0  0  0
   37.9130   30.8170   50.7090 C   0  0  0  0  0  0  0  0  0  0  0  0
   37.2500   31.5570   49.6890 C   0  0  0  0  0  0  0  0  0  0  0  0
   35.9860   31.1700   49.2940 N   0  0  0  0  0  0  0  0  0  0  0  0
   35.3800   30.1180   49.8510 C   0  0  0  0  0  0  0  0  0  0  0  0
   35.9690   29.3830   50.8260 N   0  0  0  0  0  0  0  0  0  0  0  0
   38.0220   32.0620   46.7330 O   0  0  0  0  0  0  0  0  0  0  0  0
   40.5730   30.8490   45.5010 Cl  0  0  0  0  0  0  0  0  0  0  0  0
   38.9210   30.4790   45.0250 C   0  0  0  0  0  0  0  0  0  0  0  0
   37.9660   31.1540   45.7320 C   0  0  0  0  0  0  0  0  0  0  0  0
   36.6620   30.8640   45.3650 C   0  0  0  0  0  0  0  0  0  0  0  0
   36.3630   29.9620   44.3600 C   0  0  0  0  0  0  0  0  0  0  0  0
   37.3700   29.3210   43.6910 C   0  0  0  0  0  0  0  0  0  0  0  0
   38.6680   29.5770   44.0210 C   0  0  0  0  0  0  0  0  0  0  0  0
   39.7770   28.9850   43.4100 N   0  0  0  0  0  0  0  0  0  0  0  0
   40.6470   29.3310   41.9690 S   0  0  0  0  0  0  0  0  0  0  0  0
   40.6390   30.8020   41.6720 O   0  0  0  0  0  0  0  0  0  0  0  0
   40.0520   28.5810   40.7970 O   0  0  0  0  0  0  0  0  0  0  0  0
   42.2420   28.8100   42.2340 O   0  0  0  0  0  0  0  0  0  0  0  0
   39.3587   31.3537   47.9618 H   0  0  0  0  0  0  0  0  0  0  0  0
   36.9988   33.2973   48.8597 H   0  0  0  0  0  0  0  0  0  0  0  0
   38.3270   34.1730   50.4908 H   0  0  0  0  0  0  0  0  0  0  0  0
   39.4497   32.7834   50.4826 H   0  0  0  0  0  0  0  0  0  0  0  0
   40.4494   33.5089   47.2050 H   0  0  0  0  0  0  0  0  0  0  0  0
   38.8692   34.3384   47.1217 H   0  0  0  0  0  0  0  0  0  0  0  0
   37.6930   29.1081   52.0569 H   0  0  0  0  0  0  0  0  0  0  0  0
   38.9212   31.0921   51.0522 H   0  0  0  0  0  0  0  0  0  0  0  0
   34.3725   29.8396   49.5082 H   0  0  0  0  0  0  0  0  0  0  0  0
   35.8371   31.3677   45.8902 H   0  0  0  0  0  0  0  0  0  0  0  0
   35.3140   29.7596   44.0981 H   0  0  0  0  0  0  0  0  0  0  0  0
   37.1337   28.6033   42.8916 H   0  0  0  0  0  0  0  0  0  0  0  0
   40.1484   28.1767   43.9292 H   0  0  0  0  0  0  0  0  0  0  0  0
   40.6362   31.3102   42.5216 H   0  0  0  0  0  0  0  0  0  0  0  0
   39.4730   27.8512   41.1319 H   0  0  0  0  0  0  0  0  0  0  0  0
   42.4134   28.7540   43.2074 H   0  0  0  0  0  0  0  0  0  0  0  0
  1  2  1  0
  2  8  1  0
  2  3  1  0
  4  3  1  0
  5  1  1  0
  5  4  1  0
  7  6  2  0
  8  7  1  0
  9  8  2  0
  9 10  1  0
 10 11  2  0
 11  6  1  0
 12  1  1  0
 14 13  1  0
 14 15  2  0
 15 12  1  0
 16 15  1  0
 17 16  2  0
 18 19  2  0
 18 17  1  0
 19 14  1  0
 20 19  1  0
 21 24  1  0
 21 20  1  0
 22 21  1  0
 23 21  1  0
  1 25  1  1
  2 26  1  6
  3 27  1  0
  3 28  1  0
  5 29  1  0
  5 30  1  0
  6 31  1  0
  7 32  1  0
 10 33  1  0
 16 34  1  0
 17 35  1  0
 18 36  1  0
 20 37  1  0
 22 38  1  0
 23 39  1  0
 24 40  1  0
M  ISO  8  25  13  26  13  27  13  28  13  29  13  30  13  31  14  32  14
M  ISO  7  33  14  34  14  35  14  36  14  38   3  39   3  40   3
M  END
>  <minimizedAffinity>  (1) 
-6.39720631

>  <minimizedRMSD>  (1) 
0.957061946

$$$$
