
     RDKit          3D

 22 22  0  0  0  0  0  0  0  0999 V2000
   37.3340   29.4570   50.6570 S   0  0  0  0  0  0  0  0  0  0  0  0
   37.8770   30.7650   49.5770 C   0  0  0  0  0  0  0  0  0  0  0  0
   37.7470   30.3930   48.2360 C   0  0  0  0  0  0  0  0  0  0  0  0
   38.1400   31.3320   47.2600 C   0  0  0  0  0  0  0  0  0  0  0  0
   38.6260   32.5500   47.6700 N   0  0  0  0  0  0  0  0  0  0  0  0
   38.7220   32.8380   48.9890 C   0  0  0  0  0  0  0  0  0  0  0  0
   38.3500   31.9520   49.9200 N   0  0  0  0  0  0  0  0  0  0  0  0
   35.5290   29.4040   50.5650 C   0  0  0  0  0  0  0  0  0  0  0  0
   35.1430   28.2940   49.7170 N   0  0  0  0  0  0  0  0  0  0  0  0
   33.9630   28.7670   48.5490 S   0  0  0  0  0  0  0  0  0  0  0  0
   34.1160   27.8650   47.3500 O   0  0  0  0  0  0  0  0  0  0  0  0
   34.2420   30.1940   48.1690 O   0  0  0  0  0  0  0  0  0  0  0  0
   32.4390   28.5920   49.2390 O   0  0  0  0  0  0  0  0  0  0  0  0
   37.3533   29.4057   47.9528 H   0  0  0  0  0  0  0  0  0  0  0  0
   38.0589   31.0935   46.1892 H   0  0  0  0  0  0  0  0  0  0  0  0
   39.1128   33.8178   49.3011 H   0  0  0  0  0  0  0  0  0  0  0  0
   35.1103   29.2640   51.5725 H   0  0  0  0  0  0  0  0  0  0  0  0
   35.1455   30.3471   50.1483 H   0  0  0  0  0  0  0  0  0  0  0  0
   35.9774   27.9427   49.2258 H   0  0  0  0  0  0  0  0  0  0  0  0
   34.2736   26.9361   47.6539 H   0  0  0  0  0  0  0  0  0  0  0  0
   34.3485   30.7390   48.9886 H   0  0  0  0  0  0  0  0  0  0  0  0
   32.5204   28.6013   50.2256 H   0  0  0  0  0  0  0  0  0  0  0  0
  2  7  2  0
  2  1  1  0
  3  2  1  0
  4  5  1  0
  4  3  2  0
  5  6  2  0
  6  7  1  0
  8  1  1  0
  9  8  1  0
 10 13  1  0
 10  9  1  0
 11 10  1  0
 12 10  1  0
  3 14  1  0
  4 15  1  0
  6 16  1  0
  8 17  1  0
  8 18  1  0
  9 19  1  0
 11 20  1  0
 12 21  1  0
 13 22  1  0
M  ISO  8  14  14  15  14  16  14  17   8  18   8  19   5  20   3  21   3
M  ISO  1  22   3
M  END
>  <minimizedAffinity>  (1) 
-3.95567846

>  <minimizedRMSD>  (1) 
2.40261555

$$$$
