
     RDKit          3D

 46 48  0  0  0  0  0  0  0  0999 V2000
   34.5090   28.6940   48.1660 C   0  0  0  0  0  0  0  0  0  0  0  0
   33.6620   27.5770   47.6600 C   0  0  0  0  0  0  0  0  0  0  0  0
   32.2040   27.8380   47.7920 C   0  0  0  0  0  0  0  0  0  0  0  0
   31.5990   27.5390   48.9980 C   0  0  0  0  0  0  0  0  0  0  0  0
   30.2610   27.7440   49.2160 C   0  0  0  0  0  0  0  0  0  0  0  0
   29.5120   28.2530   48.2230 N   0  0  0  0  0  0  0  0  0  0  0  0
   30.1220   28.5380   47.0510 C   0  0  0  0  0  0  0  0  0  0  0  0
   31.4230   28.3510   46.8040 N   0  0  0  0  0  0  0  0  0  0  0  0
   29.2510   29.1060   45.9620 C   0  0  0  0  0  0  0  0  0  0  0  0
   28.2480   28.0930   45.7040 N   0  0  0  0  0  0  0  0  0  0  0  0
   26.6510   28.7400   45.8090 S   0  0  0  0  0  0  0  0  0  0  0  0
   26.6990   30.1570   45.3610 O   0  0  0  0  0  0  0  0  0  0  0  0
   26.2190   28.5830   47.2450 O   0  0  0  0  0  0  0  0  0  0  0  0
   25.5740   27.8900   44.8690 O   0  0  0  0  0  0  0  0  0  0  0  0
   35.0460   28.3850   49.4480 O   0  0  0  0  0  0  0  0  0  0  0  0
   37.3710   30.1760   51.5640 C   0  0  0  0  0  0  0  0  0  0  0  0
   38.0960   30.8850   50.5840 C   0  0  0  0  0  0  0  0  0  0  0  0
   37.7430   30.7050   49.2610 C   0  0  0  0  0  0  0  0  0  0  0  0
   36.7080   29.8440   49.0150 N   0  0  0  0  0  0  0  0  0  0  0  0
   36.0280   29.1760   49.9580 C   0  0  0  0  0  0  0  0  0  0  0  0
   36.3700   29.3510   51.2480 N   0  0  0  0  0  0  0  0  0  0  0  0
   38.8910   33.3550   49.1060 F   0  0  0  0  0  0  0  0  0  0  0  0
   38.9150   32.5740   48.0400 C   0  0  0  0  0  0  0  0  0  0  0  0
   38.3770   31.3500   48.1300 C   0  0  0  0  0  0  0  0  0  0  0  0
   38.4560   30.6090   46.9460 C   0  0  0  0  0  0  0  0  0  0  0  0
   39.0290   31.0980   45.8030 C   0  0  0  0  0  0  0  0  0  0  0  0
   39.5660   32.3540   45.7520 C   0  0  0  0  0  0  0  0  0  0  0  0
   39.4980   33.0910   46.8980 C   0  0  0  0  0  0  0  0  0  0  0  0
   33.8963   29.6044   48.2422 H   0  0  0  0  0  0  0  0  0  0  0  0
   35.3420   28.8486   47.4644 H   0  0  0  0  0  0  0  0  0  0  0  0
   33.9068   26.6678   48.2288 H   0  0  0  0  0  0  0  0  0  0  0  0
   33.8771   27.4652   46.5871 H   0  0  0  0  0  0  0  0  0  0  0  0
   32.2119   27.1223   49.8108 H   0  0  0  0  0  0  0  0  0  0  0  0
   29.8082   27.4960   50.1873 H   0  0  0  0  0  0  0  0  0  0  0  0
   28.7770   30.0406   46.2965 H   0  0  0  0  0  0  0  0  0  0  0  0
   29.8305   29.3473   45.0587 H   0  0  0  0  0  0  0  0  0  0  0  0
   28.3492   27.3380   46.3973 H   0  0  0  0  0  0  0  0  0  0  0  0
   26.7192   30.7525   46.1516 H   0  0  0  0  0  0  0  0  0  0  0  0
   26.9599   28.8523   47.8438 H   0  0  0  0  0  0  0  0  0  0  0  0
   24.9462   27.3945   45.4525 H   0  0  0  0  0  0  0  0  0  0  0  0
   37.6388   30.3069   52.6228 H   0  0  0  0  0  0  0  0  0  0  0  0
   38.9174   31.5606   50.8647 H   0  0  0  0  0  0  0  0  0  0  0  0
   38.0402   29.5907   46.9330 H   0  0  0  0  0  0  0  0  0  0  0  0
   39.0580   30.4649   44.9039 H   0  0  0  0  0  0  0  0  0  0  0  0
   40.0284   32.7495   44.8356 H   0  0  0  0  0  0  0  0  0  0  0  0
   39.9124   34.1098   46.9136 H   0  0  0  0  0  0  0  0  0  0  0  0
  1 15  1  0
  2  3  1  0
  2  1  1  0
  3  4  2  0
  4  5  1  0
  6  5  2  0
  7  6  1  0
  8  7  2  0
  8  3  1  0
  9  7  1  0
 10 11  1  0
 10  9  1  0
 11 13  1  0
 12 11  1  0
 14 11  1  0
 15 20  1  0
 17 16  2  0
 18 17  1  0
 19 18  2  0
 19 20  1  0
 20 21  2  0
 21 16  1  0
 23 24  2  0
 23 22  1  0
 24 18  1  0
 25 24  1  0
 26 25  2  0
 27 26  1  0
 27 28  2  0
 28 23  1  0
  1 29  1  0
  1 30  1  0
  2 31  1  0
  2 32  1  0
  4 33  1  0
  5 34  1  0
  9 35  1  0
  9 36  1  0
 10 37  1  0
 12 38  1  0
 13 39  1  0
 14 40  1  0
 16 41  1  0
 17 42  1  0
 25 43  1  0
 26 44  1  0
 27 45  1  0
 28 46  1  0
M  ISO  8  29   8  30   8  31   8  32   8  33  14  34  14  35   8  36   8
M  ISO  8  37   5  38   3  39   3  40   3  41  14  42  14  43  14  44  14
M  ISO  2  45  14  46  14
M  END
>  <minimizedAffinity>  (1) 
-6.48701191

>  <minimizedRMSD>  (1) 
1.22452354

$$$$
