
     RDKit          3D

 25 26  0  0  0  0  0  0  0  0999 V2000
   35.9780   30.2970   46.4980 C   0  0  0  0  0  0  0  0  0  0  0  0
   37.2780   30.6040   46.8960 C   0  0  0  0  0  0  0  0  0  0  0  0
   38.2190   30.7620   45.8520 C   0  0  0  0  0  0  0  0  0  0  0  0
   37.8030   30.6080   44.5590 N   0  0  0  0  0  0  0  0  0  0  0  0
   36.5220   30.3090   44.2340 C   0  0  0  0  0  0  0  0  0  0  0  0
   35.6340   30.1600   45.2240 N   0  0  0  0  0  0  0  0  0  0  0  0
   34.9890   30.2370   47.6420 C   0  0  0  0  0  0  0  0  0  0  0  0
   33.6940   29.6270   47.4450 C   0  0  0  0  0  0  0  0  0  0  0  0
   34.7650   28.7770   48.0830 C   0  0  0  0  0  0  0  0  0  0  0  0
   37.7820   30.7710   48.2070 N   0  0  0  0  0  0  0  0  0  0  0  0
   37.9240   32.0700   49.3240 S   0  0  0  0  0  0  0  0  0  0  0  0
   38.9780   31.7490   50.3450 O   0  0  0  0  0  0  0  0  0  0  0  0
   36.6300   32.2310   50.0740 O   0  0  0  0  0  0  0  0  0  0  0  0
   38.3800   33.4940   48.5490 O   0  0  0  0  0  0  0  0  0  0  0  0
   39.2681   31.0047   46.0768 H   0  0  0  0  0  0  0  0  0  0  0  0
   36.2196   30.1917   43.1829 H   0  0  0  0  0  0  0  0  0  0  0  0
   35.2713   31.2044   48.0830 H   0  0  0  0  0  0  0  0  0  0  0  0
   32.8386   29.9643   48.0488 H   0  0  0  0  0  0  0  0  0  0  0  0
   33.0400   29.4964   46.5702 H   0  0  0  0  0  0  0  0  0  0  0  0
   35.2262   27.9476   47.5267 H   0  0  0  0  0  0  0  0  0  0  0  0
   34.8761   28.1984   49.0119 H   0  0  0  0  0  0  0  0  0  0  0  0
   38.1594   29.8920   48.5890 H   0  0  0  0  0  0  0  0  0  0  0  0
   38.6026   31.8633   51.2539 H   0  0  0  0  0  0  0  0  0  0  0  0
   36.8079   32.2089   51.0476 H   0  0  0  0  0  0  0  0  0  0  0  0
   38.6003   34.1821   49.2258 H   0  0  0  0  0  0  0  0  0  0  0  0
  1  2  2  0
  1  7  1  0
  2 10  1  0
  3  2  1  0
  4  3  2  0
  5  4  1  0
  5  6  2  0
  6  1  1  0
  7  9  1  0
  8  7  1  0
  8  9  1  0
 10 11  1  0
 11 13  1  0
 11 12  1  0
 14 11  1  0
  3 15  1  0
  5 16  1  0
  7 17  1  0
  8 18  1  0
  8 19  1  0
  9 20  1  0
  9 21  1  0
 10 22  1  0
 12 23  1  0
 13 24  1  0
 14 25  1  0
M  ISO  8  15  14  16  14  17  13  18  13  19  13  20  13  21  13  23   3
M  ISO  2  24   3  25   3
M  END
>  <minimizedAffinity>  (1) 
-3.68340182

>  <minimizedRMSD>  (1) 
3.7673223

$$$$
