
     RDKit          3D

 28 29  0  0  0  0  0  0  0  0999 V2000
   38.4490   32.4730   48.2460 Br  0  0  0  0  0  0  0  0  0  0  0  0
   37.5030   31.6100   46.8590 C   0  0  0  0  0  0  0  0  0  0  0  0
   36.6390   30.6240   47.2410 C   0  0  0  0  0  0  0  0  0  0  0  0
   35.9000   29.9370   46.2770 C   0  0  0  0  0  0  0  0  0  0  0  0
   36.0560   30.2680   44.9360 C   0  0  0  0  0  0  0  0  0  0  0  0
   36.9310   31.2580   44.6250 C   0  0  0  0  0  0  0  0  0  0  0  0
   37.6660   31.9450   45.5510 C   0  0  0  0  0  0  0  0  0  0  0  0
   37.3200   29.6190   49.4680 C   0  0  0  0  0  0  0  0  0  0  0  0
   36.3620   30.1570   48.6040 C   0  0  0  0  0  0  0  0  0  0  0  0
   35.0300   30.2560   49.0870 C   0  0  0  0  0  0  0  0  0  0  0  0
   34.7900   29.8140   50.3660 N   0  0  0  0  0  0  0  0  0  0  0  0
   35.7510   29.3090   51.1410 C   0  0  0  0  0  0  0  0  0  0  0  0
   37.0120   29.2070   50.7030 N   0  0  0  0  0  0  0  0  0  0  0  0
   38.5830   32.9800   45.2380 N   0  0  0  0  0  0  0  0  0  0  0  0
   40.0870   33.0150   44.4540 S   0  0  0  0  0  0  0  0  0  0  0  0
   40.0820   32.1410   43.2350 O   0  0  0  0  0  0  0  0  0  0  0  0
   41.1590   32.4840   45.3780 O   0  0  0  0  0  0  0  0  0  0  0  0
   40.4340   34.6110   44.0110 O   0  0  0  0  0  0  0  0  0  0  0  0
   35.2011   29.1416   46.5753 H   0  0  0  0  0  0  0  0  0  0  0  0
   35.4887   29.7446   44.1522 H   0  0  0  0  0  0  0  0  0  0  0  0
   37.0563   31.5234   43.5649 H   0  0  0  0  0  0  0  0  0  0  0  0
   38.3603   29.5316   49.1215 H   0  0  0  0  0  0  0  0  0  0  0  0
   34.2238   30.6694   48.4632 H   0  0  0  0  0  0  0  0  0  0  0  0
   35.5031   28.9704   52.1578 H   0  0  0  0  0  0  0  0  0  0  0  0
   38.2691   33.9087   45.5540 H   0  0  0  0  0  0  0  0  0  0  0  0
   40.0766   31.1902   43.5107 H   0  0  0  0  0  0  0  0  0  0  0  0
   40.8818   32.6213   46.3184 H   0  0  0  0  0  0  0  0  0  0  0  0
   40.5536   35.1610   44.8254 H   0  0  0  0  0  0  0  0  0  0  0  0
  2  3  2  0
  2  1  1  0
  3  9  1  0
  4  3  1  0
  5  4  2  0
  6  5  1  0
  6  7  2  0
  7  2  1  0
  8 13  2  0
  9 10  2  0
  9  8  1  0
 10 11  1  0
 11 12  2  0
 13 12  1  0
 14  7  1  0
 15 14  1  0
 15 17  1  0
 16 15  1  0
 18 15  1  0
  4 19  1  0
  5 20  1  0
  6 21  1  0
  8 22  1  0
 10 23  1  0
 12 24  1  0
 14 25  1  0
 16 26  1  0
 17 27  1  0
 18 28  1  0
M  ISO  8  19  14  20  14  21  14  22  14  23  14  24  14  26   3  27   3
M  ISO  1  28   3
M  END
>  <minimizedAffinity>  (1) 
-4.99006891

>  <minimizedRMSD>  (1) 
2.4756763

$$$$
