
     RDKit          3D

 53 57  0  0  1  0  0  0  0  0999 V2000
   39.4600   30.2180   42.0060 N   0  0  0  0  0  0  0  0  0  0  0  0
   39.9790   31.5440   41.8470 C   0  0  1  0  0  0  0  0  0  0  0  0
   39.0460   32.3930   41.1190 C   0  0  0  0  0  0  0  0  0  0  0  0
   38.8750   31.8660   39.8290 O   0  0  0  0  0  0  0  0  0  0  0  0
   38.4980   30.5510   39.7820 C   0  0  0  0  0  0  0  0  0  0  0  0
   39.2750   29.6570   40.6870 C   0  0  1  0  0  0  0  0  0  0  0  0
   40.7620   27.7100   40.6560 C   0  0  2  0  0  0  0  0  0  0  0  0
   40.5510   29.1090   40.1240 C   0  0  1  0  0  0  0  0  0  0  0  0
   40.5450   29.0530   38.6400 C   0  0  0  0  0  0  0  0  0  0  0  0
   39.6190   28.1530   38.1200 O   0  0  0  0  0  0  0  0  0  0  0  0
   40.1440   26.8790   38.4350 C   0  0  0  0  0  0  0  0  0  0  0  0
   39.9250   26.6910   39.9110 C   0  0  1  0  0  0  0  0  0  0  0  0
   40.4760   27.5870   41.9920 O   0  0  0  0  0  0  0  0  0  0  0  0
   40.3520   25.4360   40.3460 O   0  0  0  0  0  0  0  0  0  0  0  0
   40.2060   32.0540   43.1560 O   0  0  0  0  0  0  0  0  0  0  0  0
   36.0530   30.3150   46.9690 C   0  0  0  0  0  0  0  0  0  0  0  0
   37.1080   30.4270   47.8640 C   0  0  0  0  0  0  0  0  0  0  0  0
   38.3790   30.8290   47.4330 C   0  0  0  0  0  0  0  0  0  0  0  0
   38.5170   31.1020   46.0760 C   0  0  0  0  0  0  0  0  0  0  0  0
   39.6470   31.5090   45.4210 N   0  0  0  0  0  0  0  0  0  0  0  0
   39.2960   31.6470   44.1320 C   0  0  0  0  0  0  0  0  0  0  0  0
   38.0210   31.3470   43.9720 N   0  0  0  0  0  0  0  0  0  0  0  0
   37.4880   31.0000   45.1570 C   0  0  0  0  0  0  0  0  0  0  0  0
   36.2310   30.5970   45.6190 C   0  0  0  0  0  0  0  0  0  0  0  0
   37.3360   30.0190   51.5900 C   0  0  0  0  0  0  0  0  0  0  0  0
   37.7270   30.3780   50.3060 C   0  0  0  0  0  0  0  0  0  0  0  0
   36.8720   30.1240   49.2610 C   0  0  0  0  0  0  0  0  0  0  0  0
   35.6680   29.5220   49.5620 N   0  0  0  0  0  0  0  0  0  0  0  0
   35.2990   29.1770   50.8110 C   0  0  0  0  0  0  0  0  0  0  0  0
   36.1260   29.4250   51.8060 N   0  0  0  0  0  0  0  0  0  0  0  0
   40.1256   29.6427   42.5416 H   0  0  0  0  0  0  0  0  0  0  0  0
   40.9097   31.5265   41.2610 H   0  0  0  0  0  0  0  0  0  0  0  0
   38.0785   32.4143   41.6420 H   0  0  0  0  0  0  0  0  0  0  0  0
   39.4399   33.4182   41.0573 H   0  0  0  0  0  0  0  0  0  0  0  0
   37.4364   30.4868   40.0628 H   0  0  0  0  0  0  0  0  0  0  0  0
   38.6907   30.2047   38.7559 H   0  0  0  0  0  0  0  0  0  0  0  0
   38.6253   28.7749   40.7865 H   0  0  0  0  0  0  0  0  0  0  0  0
   41.8336   27.5160   40.5013 H   0  0  0  0  0  0  0  0  0  0  0  0
   41.3618   29.7857   40.4316 H   0  0  0  0  0  0  0  0  0  0  0  0
   40.3090   30.0561   38.2551 H   0  0  0  0  0  0  0  0  0  0  0  0
   41.5413   28.7082   38.3262 H   0  0  0  0  0  0  0  0  0  0  0  0
   39.6163   26.0978   37.8682 H   0  0  0  0  0  0  0  0  0  0  0  0
   41.2104   26.8082   38.1747 H   0  0  0  0  0  0  0  0  0  0  0  0
   38.8472   26.8002   40.1018 H   0  0  0  0  0  0  0  0  0  0  0  0
   41.2423   27.9166   42.5252 H   0  0  0  0  0  0  0  0  0  0  0  0
   40.3593   25.4147   41.3357 H   0  0  0  0  0  0  0  0  0  0  0  0
   35.0638   29.9992   47.3321 H   0  0  0  0  0  0  0  0  0  0  0  0
   39.2237   30.9238   48.1312 H   0  0  0  0  0  0  0  0  0  0  0  0
   40.5766   31.6755   45.8322 H   0  0  0  0  0  0  0  0  0  0  0  0
   35.3880   30.5036   44.9185 H   0  0  0  0  0  0  0  0  0  0  0  0
   38.0069   30.2150   52.4394 H   0  0  0  0  0  0  0  0  0  0  0  0
   38.7018   30.8561   50.1296 H   0  0  0  0  0  0  0  0  0  0  0  0
   34.3264   28.6977   50.9963 H   0  0  0  0  0  0  0  0  0  0  0  0
  2  1  1  0
  2 15  1  0
  3  2  1  0
  4  3  1  0
  5  4  1  0
  5  6  1  0
  6  1  1  0
  7 13  1  0
  8  9  1  0
  8  7  1  0
  8  6  1  0
 10 11  1  0
 10  9  1  0
 11 12  1  0
 12 14  1  0
 12  7  1  0
 15 21  1  0
 16 17  2  0
 17 27  1  0
 18 17  1  0
 19 18  2  0
 20 19  1  0
 21 20  1  0
 22 21  2  0
 22 23  1  0
 23 24  2  0
 23 19  1  0
 24 16  1  0
 25 30  2  0
 26 25  1  0
 27 28  1  0
 27 26  2  0
 28 29  2  0
 29 30  1  0
  1 31  1  0
  2 32  1  6
  3 33  1  0
  3 34  1  0
  5 35  1  0
  5 36  1  0
  6 37  1  1
  7 38  1  1
  8 39  1  6
  9 40  1  0
  9 41  1  0
 11 42  1  0
 11 43  1  0
 12 44  1  6
 13 45  1  0
 14 46  1  0
 16 47  1  0
 18 48  1  0
 20 49  1  0
 24 50  1  0
 25 51  1  0
 26 52  1  0
 29 53  1  0
M  ISO  8  31   5  32  13  33  13  34  13  35  13  36  13  37  13  38  13
M  ISO  8  39  13  40  13  41  13  42  13  43  13  44  13  45   3  46   3
M  ISO  7  47  14  48  14  49   9  50  14  51  14  52  14  53  14
M  END
>  <minimizedAffinity>  (1) 
-6.07576799

>  <minimizedRMSD>  (1) 
3.55986953

$$$$
