
     RDKit          3D

 52 54  0  0  1  0  0  0  0  0999 V2000
   28.2300   27.6130   48.3920 C   0  0  0  0  0  0  0  0  0  0  0  0
   29.5420   27.6990   48.8890 C   0  0  0  0  0  0  0  0  0  0  0  0
   29.8530   27.3020   50.1700 C   0  0  0  0  0  0  0  0  0  0  0  0
   28.8610   26.8100   50.9820 C   0  0  0  0  0  0  0  0  0  0  0  0
   27.5870   26.7230   50.5070 C   0  0  0  0  0  0  0  0  0  0  0  0
   27.2220   27.1090   49.2270 C   0  0  0  0  0  0  0  0  0  0  0  0
   27.7640   28.0980   46.7800 S   0  0  0  0  0  0  0  0  0  0  0  0
   28.9440   28.2270   45.8960 O   0  0  0  0  0  0  0  0  0  0  0  0
   26.7790   27.0550   46.2440 O   0  0  0  0  0  0  0  0  0  0  0  0
   25.6590   29.5900   47.6280 C   0  0  2  0  0  0  0  0  0  0  0  0
   26.9010   29.6360   46.7990 C   0  0  1  0  0  0  0  0  0  0  0  0
   27.8440   30.6420   47.4720 C   0  0  0  0  0  0  0  0  0  0  0  0
   28.0340   30.2830   48.7830 O   0  0  0  0  0  0  0  0  0  0  0  0
   26.9470   30.5000   49.5940 C   0  0  0  0  0  0  0  0  0  0  0  0
   25.6940   30.5930   48.7840 C   0  0  1  0  0  0  0  0  0  0  0  0
   25.4050   28.3290   48.1510 O   0  0  0  0  0  0  0  0  0  0  0  0
   25.4570   31.8500   48.2410 O   0  0  0  0  0  0  0  0  0  0  0  0
   30.4160   28.2090   47.9580 O   0  0  0  0  0  0  0  0  0  0  0  0
   32.2550   26.3200   47.8090 O   0  0  0  0  0  0  0  0  0  0  0  0
   32.0460   27.8380   47.7830 P   0  0  1  0  0  0  0  0  0  0  0  0
   32.6750   28.5150   46.3480 O   0  0  0  0  0  0  0  0  0  0  0  0
   32.9580   28.4240   49.0940 O   0  0  0  0  0  0  0  0  0  0  0  0
   34.2620   27.8990   48.9900 C   0  0  0  0  0  0  0  0  0  0  0  0
   35.6740   29.8250   49.6140 C   0  0  0  0  0  0  0  0  0  0  0  0
   35.2660   28.9570   48.7260 C   0  0  0  0  0  0  0  0  0  0  0  0
   37.7620   32.8230   49.4610 C   0  0  0  0  0  0  0  0  0  0  0  0
   38.5840   32.5520   48.3470 C   0  0  0  0  0  0  0  0  0  0  0  0
   38.4000   31.3350   47.6660 C   0  0  0  0  0  0  0  0  0  0  0  0
   37.4160   30.5250   48.1760 N   0  0  0  0  0  0  0  0  0  0  0  0
   36.6660   30.8100   49.2210 C   0  0  0  0  0  0  0  0  0  0  0  0
   36.8470   31.9630   49.8570 N   0  0  0  0  0  0  0  0  0  0  0  0
   30.8863   27.3782   50.5395 H   0  0  0  0  0  0  0  0  0  0  0  0
   29.0931   26.4886   52.0081 H   0  0  0  0  0  0  0  0  0  0  0  0
   26.8077   26.3258   51.1741 H   0  0  0  0  0  0  0  0  0  0  0  0
   26.1819   27.0234   48.8793 H   0  0  0  0  0  0  0  0  0  0  0  0
   24.8498   29.8578   46.9326 H   0  0  0  0  0  0  0  0  0  0  0  0
   26.6153   29.8951   45.7688 H   0  0  0  0  0  0  0  0  0  0  0  0
   28.8114   30.6449   46.9485 H   0  0  0  0  0  0  0  0  0  0  0  0
   27.4005   31.6476   47.4273 H   0  0  0  0  0  0  0  0  0  0  0  0
   26.8556   29.6666   50.3062 H   0  0  0  0  0  0  0  0  0  0  0  0
   27.0912   31.4481   50.1327 H   0  0  0  0  0  0  0  0  0  0  0  0
   24.9087   30.3650   49.5197 H   0  0  0  0  0  0  0  0  0  0  0  0
   25.4141   28.3740   49.1399 H   0  0  0  0  0  0  0  0  0  0  0  0
   25.3331   32.5069   48.9712 H   0  0  0  0  0  0  0  0  0  0  0  0
   33.3308   29.2208   46.5759 H   0  0  0  0  0  0  0  0  0  0  0  0
   34.5179   27.3937   49.9330 H   0  0  0  0  0  0  0  0  0  0  0  0
   34.2790   27.1953   48.1447 H   0  0  0  0  0  0  0  0  0  0  0  0
   35.2739   29.8097   50.6385 H   0  0  0  0  0  0  0  0  0  0  0  0
   35.6964   29.0156   47.7154 H   0  0  0  0  0  0  0  0  0  0  0  0
   37.8876   33.7690   50.0082 H   0  0  0  0  0  0  0  0  0  0  0  0
   39.3479   33.2727   48.0198 H   0  0  0  0  0  0  0  0  0  0  0  0
   39.0008   31.0529   46.7888 H   0  0  0  0  0  0  0  0  0  0  0  0
  1  2  1  0
  1  6  2  0
  2  3  2  0
  3  4  1  0
  5  4  2  0
  6  5  1  0
  7  1  1  0
  8  7  2  0
  9  7  2  0
 10 16  1  0
 10 15  1  0
 11  7  1  0
 11 12  1  0
 11 10  1  0
 12 13  1  0
 13 14  1  0
 15 17  1  0
 15 14  1  0
 18  2  1  0
 20 19  2  0
 20 18  1  0
 20 22  1  0
 21 20  1  0
 23 22  1  0
 25 23  1  0
 25 24  2  0
 26 31  2  0
 27 26  1  0
 28 29  1  0
 28 27  2  0
 29 30  2  0
 30 24  1  0
 30 31  1  0
  3 32  1  0
  4 33  1  0
  5 34  1  0
  6 35  1  0
 10 36  1  6
 11 37  1  6
 12 38  1  0
 12 39  1  0
 14 40  1  0
 14 41  1  0
 15 42  1  1
 16 43  1  0
 17 44  1  0
 21 45  1  0
 23 46  1  0
 23 47  1  0
 24 48  1  0
 25 49  1  0
 26 50  1  0
 27 51  1  0
 28 52  1  0
M  ISO  8  32  14  33  14  34  14  35  14  36  13  37  13  38  13  39  13
M  ISO  8  40  13  41  13  42  13  43   3  44   3  45   3  46   8  47   8
M  ISO  3  50  14  51  14  52  14
M  END
>  <minimizedAffinity>  (1) 
-5.84736347

>  <minimizedRMSD>  (1) 
2.35806489

$$$$
