
     RDKit          3D

 27 28  0  0  1  0  0  0  0  0999 V2000
   39.8920   31.7420   46.1270 C   0  0  2  0  0  0  0  0  0  0  0  0
   38.6860   31.1630   46.7820 C   0  0  2  0  0  0  0  0  0  0  0  0
   37.4630   31.1290   45.9130 C   0  0  0  0  0  0  0  0  0  0  0  0
   37.7380   31.2350   44.5540 O   0  0  0  0  0  0  0  0  0  0  0  0
   38.2790   32.4960   44.3500 C   0  0  0  0  0  0  0  0  0  0  0  0
   39.6970   32.4530   44.8430 C   0  0  2  0  0  0  0  0  0  0  0  0
   40.8590   30.7200   45.9830 O   0  0  0  0  0  0  0  0  0  0  0  0
   40.5010   31.8750   43.8570 O   0  0  0  0  0  0  0  0  0  0  0  0
   38.3020   32.0830   48.3160 S   0  0  0  0  0  0  0  0  0  0  0  0
   37.2440   29.8490   51.5620 C   0  0  0  0  0  0  0  0  0  0  0  0
   38.0040   30.6600   50.7080 C   0  0  0  0  0  0  0  0  0  0  0  0
   37.4510   31.0550   49.4940 C   0  0  0  0  0  0  0  0  0  0  0  0
   36.1980   30.6360   49.1910 N   0  0  0  0  0  0  0  0  0  0  0  0
   35.4860   29.8560   50.0270 C   0  0  0  0  0  0  0  0  0  0  0  0
   36.0110   29.4700   51.1990 N   0  0  0  0  0  0  0  0  0  0  0  0
   40.2204   32.5464   46.8016 H   0  0  0  0  0  0  0  0  0  0  0  0
   38.9452   30.1163   46.9992 H   0  0  0  0  0  0  0  0  0  0  0  0
   36.9394   30.1775   46.0879 H   0  0  0  0  0  0  0  0  0  0  0  0
   36.8515   32.0018   46.1856 H   0  0  0  0  0  0  0  0  0  0  0  0
   38.2593   32.7463   43.2790 H   0  0  0  0  0  0  0  0  0  0  0  0
   37.7006   33.2619   44.8875 H   0  0  0  0  0  0  0  0  0  0  0  0
   39.9828   33.4960   45.0439 H   0  0  0  0  0  0  0  0  0  0  0  0
   41.1499   30.4125   46.8779 H   0  0  0  0  0  0  0  0  0  0  0  0
   41.2256   31.3541   44.2856 H   0  0  0  0  0  0  0  0  0  0  0  0
   37.6587   29.5245   52.5278 H   0  0  0  0  0  0  0  0  0  0  0  0
   39.0180   30.9780   50.9921 H   0  0  0  0  0  0  0  0  0  0  0  0
   34.4716   29.5349   49.7477 H   0  0  0  0  0  0  0  0  0  0  0  0
  1  7  1  0
  1  2  1  0
  2  9  1  0
  3  2  1  0
  4  3  1  0
  5  4  1  0
  5  6  1  0
  6  8  1  0
  6  1  1  0
  9 12  1  0
 11 10  2  0
 12 11  1  0
 13 12  2  0
 13 14  1  0
 14 15  2  0
 15 10  1  0
  1 16  1  1
  2 17  1  1
  3 18  1  0
  3 19  1  0
  5 20  1  0
  5 21  1  0
  6 22  1  1
  7 23  1  0
  8 24  1  0
 10 25  1  0
 11 26  1  0
 14 27  1  0
M  ISO  8  16  13  17  13  18  13  19  13  20  13  21  13  22  13  23   3
M  ISO  4  24   3  25  14  26  14  27  14
M  END
>  <minimizedAffinity>  (1) 
-5.27357531

>  <minimizedRMSD>  (1) 
1.94610393

$$$$
