
     RDKit          3D

 54 57  0  0  1  0  0  0  0  0999 V2000
   37.9800   30.5380   45.1240 C   0  0  2  0  0  0  0  0  0  0  0  0
   38.5370   31.2020   46.3680 C   0  0  2  0  0  0  0  0  0  0  0  0
   40.0230   31.2180   46.2440 C   0  0  0  0  0  0  0  0  0  0  0  0
   40.4180   31.3790   44.9480 O   0  0  0  0  0  0  0  0  0  0  0  0
   39.5780   32.2650   44.3010 C   0  0  0  0  0  0  0  0  0  0  0  0
   38.2930   31.5400   43.9800 C   0  0  2  0  0  0  0  0  0  0  0  0
   36.6400   30.3500   45.0730 O   0  0  0  0  0  0  0  0  0  0  0  0
   38.0940   30.7230   47.5620 O   0  0  0  0  0  0  0  0  0  0  0  0
   37.4090   31.6400   48.2490 C   0  0  1  0  0  0  0  0  0  0  0  0
   36.5610   31.0930   49.3690 C   0  0  2  0  0  0  0  0  0  0  0  0
   37.6980   30.4750   50.2010 C   0  0  0  0  0  0  0  0  0  0  0  0
   38.7220   31.3900   50.1960 O   0  0  0  0  0  0  0  0  0  0  0  0
   38.4770   32.2610   49.2100 C   0  0  0  0  0  0  0  0  0  0  0  0
   35.6170   30.0690   48.9000 C   0  0  0  0  0  0  0  0  0  0  0  0
   34.7350   30.4170   47.8750 C   0  0  0  0  0  0  0  0  0  0  0  0
   33.8240   29.4100   47.4550 C   0  0  0  0  0  0  0  0  0  0  0  0
   33.8620   28.1840   48.0660 N   0  0  0  0  0  0  0  0  0  0  0  0
   34.7370   27.8980   49.0550 C   0  0  0  0  0  0  0  0  0  0  0  0
   35.6070   28.8420   49.4640 N   0  0  0  0  0  0  0  0  0  0  0  0
   37.3050   32.5180   43.9370 O   0  0  0  0  0  0  0  0  0  0  0  0
   37.3520   32.2080   41.5180 C   0  0  1  0  0  0  0  0  0  0  0  0
   36.7950   32.8520   42.7320 C   0  0  1  0  0  0  0  0  0  0  0  0
   35.2960   32.5400   42.7870 C   0  0  0  0  0  0  0  0  0  0  0  0
   35.0930   31.2130   42.4790 O   0  0  0  0  0  0  0  0  0  0  0  0
   35.2550   30.9430   41.1150 C   0  0  0  0  0  0  0  0  0  0  0  0
   36.2510   31.9090   40.5180 C   0  0  1  0  0  0  0  0  0  0  0  0
   38.2190   33.0890   40.8820 O   0  0  0  0  0  0  0  0  0  0  0  0
   35.6540   33.0530   40.0200 O   0  0  0  0  0  0  0  0  0  0  0  0
   38.4271   29.5341   45.0751 H   0  0  0  0  0  0  0  0  0  0  0  0
   38.1380   32.2265   46.4023 H   0  0  0  0  0  0  0  0  0  0  0  0
   40.4222   32.0487   46.8445 H   0  0  0  0  0  0  0  0  0  0  0  0
   40.4082   30.2523   46.6032 H   0  0  0  0  0  0  0  0  0  0  0  0
   39.3683   33.1251   44.9539 H   0  0  0  0  0  0  0  0  0  0  0  0
   40.0494   32.6339   43.3781 H   0  0  0  0  0  0  0  0  0  0  0  0
   38.3558   30.9850   43.0324 H   0  0  0  0  0  0  0  0  0  0  0  0
   36.2786   30.2993   45.9933 H   0  0  0  0  0  0  0  0  0  0  0  0
   36.8473   32.2195   47.5015 H   0  0  0  0  0  0  0  0  0  0  0  0
   35.9118   31.8175   49.8824 H   0  0  0  0  0  0  0  0  0  0  0  0
   37.3586   30.2892   51.2307 H   0  0  0  0  0  0  0  0  0  0  0  0
   38.0217   29.5112   49.7811 H   0  0  0  0  0  0  0  0  0  0  0  0
   39.4045   32.4612   48.6535 H   0  0  0  0  0  0  0  0  0  0  0  0
   38.1014   33.2064   49.6285 H   0  0  0  0  0  0  0  0  0  0  0  0
   34.7447   31.4171   47.4170 H   0  0  0  0  0  0  0  0  0  0  0  0
   33.0998   29.6117   46.6520 H   0  0  0  0  0  0  0  0  0  0  0  0
   34.7391   26.9023   49.5226 H   0  0  0  0  0  0  0  0  0  0  0  0
   37.8586   31.2842   41.8340 H   0  0  0  0  0  0  0  0  0  0  0  0
   37.0641   33.9105   42.6011 H   0  0  0  0  0  0  0  0  0  0  0  0
   34.9156   32.7442   43.7987 H   0  0  0  0  0  0  0  0  0  0  0  0
   34.7626   33.1713   42.0611 H   0  0  0  0  0  0  0  0  0  0  0  0
   35.6224   29.9140   40.9873 H   0  0  0  0  0  0  0  0  0  0  0  0
   34.2873   31.0566   40.6044 H   0  0  0  0  0  0  0  0  0  0  0  0
   36.7109   31.4248   39.6439 H   0  0  0  0  0  0  0  0  0  0  0  0
   38.7244   33.6025   41.5610 H   0  0  0  0  0  0  0  0  0  0  0  0
   35.3561   33.6239   40.7720 H   0  0  0  0  0  0  0  0  0  0  0  0
  1  2  1  0
  2  8  1  0
  3  2  1  0
  4  3  1  0
  5  4  1  0
  6  5  1  0
  6  1  1  0
  7  1  1  0
  8  9  1  0
  9 13  1  0
  9 10  1  0
 10 11  1  0
 12 11  1  0
 13 12  1  0
 14 10  1  0
 14 19  1  0
 15 14  2  0
 16 15  1  0
 16 17  2  0
 17 18  1  0
 18 19  2  0
 20  6  1  0
 21 27  1  0
 21 22  1  0
 22 23  1  0
 22 20  1  0
 24 23  1  0
 25 24  1  0
 26 28  1  0
 26 25  1  0
 26 21  1  0
  1 29  1  6
  2 30  1  6
  3 31  1  0
  3 32  1  0
  5 33  1  0
  5 34  1  0
  6 35  1  6
  7 36  1  0
  9 37  1  6
 10 38  1  1
 11 39  1  0
 11 40  1  0
 13 41  1  0
 13 42  1  0
 15 43  1  0
 16 44  1  0
 18 45  1  0
 21 46  1  1
 22 47  1  6
 23 48  1  0
 23 49  1  0
 25 50  1  0
 25 51  1  0
 26 52  1  6
 27 53  1  0
 28 54  1  0
M  ISO  8  29  13  30  13  31  13  32  13  33  13  34  13  35  13  36   3
M  ISO  8  37  13  38  13  39  13  40  13  41  13  42  13  43  14  44  14
M  ISO  8  45  14  46  13  47  13  48  13  49  13  50  13  51  13  52  13
M  ISO  2  53   3  54   3
M  END
>  <minimizedAffinity>  (1) 
-5.56795835

>  <minimizedRMSD>  (1) 
3.12611413

$$$$
