
     RDKit          3D

 54 57  0  0  1  0  0  0  0  0999 V2000
   34.7820   30.4500   49.8370 C   0  0  0  0  0  0  0  0  0  0  0  0
   34.5960   27.7060   49.8430 F   0  0  0  0  0  0  0  0  0  0  0  0
   34.4010   28.3750   48.6590 C   0  0  0  0  0  0  0  0  0  0  0  0
   34.4750   29.7590   48.5540 C   0  0  0  0  0  0  0  0  0  0  0  0
   34.2710   30.3870   47.3530 C   0  0  0  0  0  0  0  0  0  0  0  0
   33.9820   29.6210   46.2030 C   0  0  0  0  0  0  0  0  0  0  0  0
   33.9110   28.2510   46.3130 C   0  0  0  0  0  0  0  0  0  0  0  0
   34.1170   27.6350   47.5220 C   0  0  0  0  0  0  0  0  0  0  0  0
   34.0260   26.2680   47.5660 O   0  0  0  0  0  0  0  0  0  0  0  0
   32.5140   24.4640   47.0390 C   0  0  1  0  0  0  0  0  0  0  0  0
   33.5720   25.4700   46.5280 C   0  0  2  0  0  0  0  0  0  0  0  0
   34.7100   24.6860   45.8690 C   0  0  0  0  0  0  0  0  0  0  0  0
   34.3840   23.3330   45.8530 O   0  0  0  0  0  0  0  0  0  0  0  0
   34.4010   22.8770   47.1640 C   0  0  0  0  0  0  0  0  0  0  0  0
   33.1840   23.3910   47.8700 C   0  0  2  0  0  0  0  0  0  0  0  0
   31.5920   25.2150   47.7560 O   0  0  0  0  0  0  0  0  0  0  0  0
   32.2730   22.3530   48.0330 O   0  0  0  0  0  0  0  0  0  0  0  0
   36.4910   30.0230   50.2640 S   0  0  0  0  0  0  0  0  0  0  0  0
   38.6840   32.8340   48.3730 C   0  0  0  0  0  0  0  0  0  0  0  0
   38.9950   32.1820   47.1740 C   0  0  0  0  0  0  0  0  0  0  0  0
   38.5100   30.9110   47.0160 C   0  0  0  0  0  0  0  0  0  0  0  0
   37.7670   30.3660   48.0170 N   0  0  0  0  0  0  0  0  0  0  0  0
   37.4970   31.0010   49.1220 C   0  0  0  0  0  0  0  0  0  0  0  0
   37.9490   32.2830   49.3540 N   0  0  0  0  0  0  0  0  0  0  0  0
   39.7460   32.8430   46.2600 O   0  0  0  0  0  0  0  0  0  0  0  0
   39.9170   32.3030   44.9980 C   0  0  0  0  0  0  0  0  0  0  0  0
   40.6300   31.1820   44.6560 C   0  0  0  0  0  0  0  0  0  0  0  0
   40.6910   30.7930   43.3560 C   0  0  0  0  0  0  0  0  0  0  0  0
   40.0330   31.5420   42.4170 C   0  0  0  0  0  0  0  0  0  0  0  0
   39.3120   32.6800   42.7760 C   0  0  0  0  0  0  0  0  0  0  0  0
   39.2700   33.0420   44.0880 N   0  0  0  0  0  0  0  0  0  0  0  0
   38.5940   33.4900   41.7250 C   0  0  0  0  0  0  0  0  0  0  0  0
   34.0970   30.1060   50.6260 H   0  0  0  0  0  0  0  0  0  0  0  0
   34.6594   31.5387   49.7388 H   0  0  0  0  0  0  0  0  0  0  0  0
   34.3322   31.4832   47.2855 H   0  0  0  0  0  0  0  0  0  0  0  0
   33.8159   30.1121   45.2328 H   0  0  0  0  0  0  0  0  0  0  0  0
   33.6870   27.6439   45.4234 H   0  0  0  0  0  0  0  0  0  0  0  0
   32.0017   23.9300   46.2251 H   0  0  0  0  0  0  0  0  0  0  0  0
   33.1271   26.1446   45.7817 H   0  0  0  0  0  0  0  0  0  0  0  0
   34.8534   25.0421   44.8382 H   0  0  0  0  0  0  0  0  0  0  0  0
   35.6397   24.8355   46.4377 H   0  0  0  0  0  0  0  0  0  0  0  0
   34.3965   21.7770   47.1729 H   0  0  0  0  0  0  0  0  0  0  0  0
   35.3077   23.2362   47.6728 H   0  0  0  0  0  0  0  0  0  0  0  0
   33.4914   23.8012   48.8433 H   0  0  0  0  0  0  0  0  0  0  0  0
   31.7466   25.0891   48.7257 H   0  0  0  0  0  0  0  0  0  0  0  0
   32.1290   22.1889   48.9986 H   0  0  0  0  0  0  0  0  0  0  0  0
   39.0630   33.8560   48.5208 H   0  0  0  0  0  0  0  0  0  0  0  0
   38.7171   30.3419   46.0977 H   0  0  0  0  0  0  0  0  0  0  0  0
   41.1502   30.6005   45.4314 H   0  0  0  0  0  0  0  0  0  0  0  0
   41.2566   29.8959   43.0638 H   0  0  0  0  0  0  0  0  0  0  0  0
   40.0741   31.2401   41.3600 H   0  0  0  0  0  0  0  0  0  0  0  0
   37.9403   34.2275   42.2136 H   0  0  0  0  0  0  0  0  0  0  0  0
   39.3312   34.0123   41.0975 H   0  0  0  0  0  0  0  0  0  0  0  0
   37.9870   32.8208   41.0975 H   0  0  0  0  0  0  0  0  0  0  0  0
  1 18  1  0
  3  2  1  0
  4  3  2  0
  4  1  1  0
  5  4  1  0
  6  7  1  0
  6  5  2  0
  7  8  2  0
  8  9  1  0
  8  3  1  0
 10 16  1  0
 10 15  1  0
 11 10  1  0
 11  9  1  0
 12 11  1  0
 13 12  1  0
 13 14  1  0
 14 15  1  0
 15 17  1  0
 19 24  2  0
 20 19  1  0
 21 20  2  0
 21 22  1  0
 22 23  2  0
 23 24  1  0
 23 18  1  0
 25 20  1  0
 26 25  1  0
 27 26  2  0
 28 27  1  0
 29 30  1  0
 29 28  2  0
 30 31  2  0
 31 26  1  0
 32 30  1  0
  1 33  1  0
  1 34  1  0
  5 35  1  0
  6 36  1  0
  7 37  1  0
 10 38  1  6
 11 39  1  6
 12 40  1  0
 12 41  1  0
 14 42  1  0
 14 43  1  0
 15 44  1  1
 16 45  1  0
 17 46  1  0
 19 47  1  0
 21 48  1  0
 27 49  1  0
 28 50  1  0
 29 51  1  0
 32 52  1  0
 32 53  1  0
 32 54  1  0
M  ISO  8  33   8  34   8  35  14  36  14  37  14  38  13  39  13  40  13
M  ISO  8  41  13  42  13  43  13  44  13  45   3  46   3  47  14  48  14
M  ISO  6  49  14  50  14  51  14  52   8  53   8  54   8
M  END
>  <minimizedAffinity>  (1) 
-6.22858381

>  <minimizedRMSD>  (1) 
0.477957368

$$$$
