
     RDKit          3D

 35 37  0  0  1  0  0  0  0  0999 V2000
   38.7010   32.2140   46.8870 C   0  0  1  0  0  0  0  0  0  0  0  0
   39.8590   32.9740   46.2570 C   0  0  0  0  0  0  0  0  0  0  0  0
   39.8510   31.5000   46.3030 C   0  0  2  0  0  0  0  0  0  0  0  0
   38.5720   32.3870   48.3830 C   0  0  0  0  0  0  0  0  0  0  0  0
   37.4380   29.9370   50.9620 C   0  0  0  0  0  0  0  0  0  0  0  0
   38.1150   31.0080   50.3250 C   0  0  0  0  0  0  0  0  0  0  0  0
   37.8440   31.2630   49.0060 C   0  0  0  0  0  0  0  0  0  0  0  0
   36.9500   30.4890   48.3690 N   0  0  0  0  0  0  0  0  0  0  0  0
   36.3170   29.4790   48.9880 C   0  0  0  0  0  0  0  0  0  0  0  0
   36.5660   29.2130   50.2720 N   0  0  0  0  0  0  0  0  0  0  0  0
   39.5430   30.6460   45.1050 C   0  0  0  0  0  0  0  0  0  0  0  0
   40.4020   30.9950   43.8960 C   0  0  0  0  0  0  0  0  0  0  0  0
   40.4700   29.8730   42.9330 C   0  0  0  0  0  0  0  0  0  0  0  0
   39.4450   28.9610   43.0200 C   0  0  0  0  0  0  0  0  0  0  0  0
   39.3100   27.8440   42.2250 C   0  0  0  0  0  0  0  0  0  0  0  0
   40.3020   27.6400   41.2600 C   0  0  0  0  0  0  0  0  0  0  0  0
   41.3330   28.5850   41.1950 C   0  0  0  0  0  0  0  0  0  0  0  0
   41.4170   29.6740   42.0100 N   0  0  0  0  0  0  0  0  0  0  0  0
   37.6135   32.1172   46.7528 H   0  0  0  0  0  0  0  0  0  0  0  0
   40.5561   33.5432   46.8895 H   0  0  0  0  0  0  0  0  0  0  0  0
   39.9616   33.7333   45.4678 H   0  0  0  0  0  0  0  0  0  0  0  0
   40.6159   30.7850   46.6404 H   0  0  0  0  0  0  0  0  0  0  0  0
   39.5787   32.4460   48.8224 H   0  0  0  0  0  0  0  0  0  0  0  0
   38.0025   33.3089   48.5720 H   0  0  0  0  0  0  0  0  0  0  0  0
   37.6342   29.7082   52.0199 H   0  0  0  0  0  0  0  0  0  0  0  0
   38.8421   31.6210   50.8778 H   0  0  0  0  0  0  0  0  0  0  0  0
   35.5895   28.8678   48.4338 H   0  0  0  0  0  0  0  0  0  0  0  0
   39.7191   29.5928   45.3693 H   0  0  0  0  0  0  0  0  0  0  0  0
   38.4935   30.8270   44.8296 H   0  0  0  0  0  0  0  0  0  0  0  0
   39.9695   31.8720   43.3922 H   0  0  0  0  0  0  0  0  0  0  0  0
   41.4220   31.2075   44.2488 H   0  0  0  0  0  0  0  0  0  0  0  0
   38.6729   29.1367   43.7835 H   0  0  0  0  0  0  0  0  0  0  0  0
   38.4659   27.1486   42.3429 H   0  0  0  0  0  0  0  0  0  0  0  0
   40.2733   26.7746   40.5816 H   0  0  0  0  0  0  0  0  0  0  0  0
   42.1215   28.4399   40.4419 H   0  0  0  0  0  0  0  0  0  0  0  0
  1  4  1  0
  2  3  1  0
  2  1  1  0
  3  1  1  0
  4  7  1  0
  6  5  2  0
  7  6  1  0
  8  9  1  0
  8  7  2  0
  9 10  2  0
 10  5  1  0
 11  3  1  0
 12 11  1  0
 13 14  2  0
 13 12  1  0
 15 14  1  0
 16 15  2  0
 17 16  1  0
 17 18  2  0
 18 13  1  0
  1 19  1  6
  2 20  1  0
  2 21  1  0
  3 22  1  1
  4 23  1  0
  4 24  1  0
  5 25  1  0
  6 26  1  0
  9 27  1  0
 11 28  1  0
 11 29  1  0
 12 30  1  0
 12 31  1  0
 14 32  1  0
 15 33  1  0
 16 34  1  0
 17 35  1  0
M  ISO  8  19  13  20  13  21  13  22  13  23   8  24   8  25  14  26  14
M  ISO  8  27  14  28   8  29   8  30   8  31   8  32  14  33  14  34  14
M  ISO  1  35  14
M  END
>  <minimizedAffinity>  (1) 
-5.23085976

>  <minimizedRMSD>  (1) 
0.985282362

$$$$
