
     RDKit          3D

 41 45  0  0  0  0  0  0  0  0999 V2000
   35.6760   29.0900   49.8700 C   0  0  0  0  0  0  0  0  0  0  0  0
   34.6240   29.6140   50.5730 C   0  0  0  0  0  0  0  0  0  0  0  0
   33.4610   29.0390   50.0580 C   0  0  0  0  0  0  0  0  0  0  0  0
   33.8830   28.1800   49.0490 C   0  0  0  0  0  0  0  0  0  0  0  0
   35.1920   28.2630   48.9970 O   0  0  0  0  0  0  0  0  0  0  0  0
   33.3920   26.4080   47.3670 C   0  0  0  0  0  0  0  0  0  0  0  0
   32.9680   27.3710   48.2440 C   0  0  0  0  0  0  0  0  0  0  0  0
   31.6160   27.6460   48.4230 C   0  0  0  0  0  0  0  0  0  0  0  0
   30.7000   26.9210   47.6890 C   0  0  0  0  0  0  0  0  0  0  0  0
   29.3660   26.9660   47.6500 N   0  0  0  0  0  0  0  0  0  0  0  0
   28.9580   26.0540   46.7710 N   0  0  0  0  0  0  0  0  0  0  0  0
   30.0410   25.4300   46.2500 C   0  0  0  0  0  0  0  0  0  0  0  0
   31.1780   25.9550   46.8120 C   0  0  0  0  0  0  0  0  0  0  0  0
   32.5110   25.6700   46.6240 C   0  0  0  0  0  0  0  0  0  0  0  0
   37.0470   29.4820   50.1570 C   0  0  0  0  0  0  0  0  0  0  0  0
   37.7030   28.8330   50.9880 O   0  0  0  0  0  0  0  0  0  0  0  0
   37.5660   30.6210   49.4390 C   0  0  0  0  0  0  0  0  0  0  0  0
   37.4570   31.8710   50.0550 C   0  0  0  0  0  0  0  0  0  0  0  0
   37.9430   33.0060   49.4030 C   0  0  0  0  0  0  0  0  0  0  0  0
   38.5070   32.8120   48.1700 N   0  0  0  0  0  0  0  0  0  0  0  0
   38.6060   31.6160   47.5930 C   0  0  0  0  0  0  0  0  0  0  0  0
   38.1320   30.5240   48.2330 N   0  0  0  0  0  0  0  0  0  0  0  0
   39.2240   31.5000   46.2730 C   0  0  0  0  0  0  0  0  0  0  0  0
   40.0720   32.4240   45.7570 C   0  0  0  0  0  0  0  0  0  0  0  0
   40.6370   32.2660   44.4890 C   0  0  0  0  0  0  0  0  0  0  0  0
   40.2900   31.1250   43.7920 C   0  0  0  0  0  0  0  0  0  0  0  0
   39.4320   30.1980   44.3270 C   0  0  0  0  0  0  0  0  0  0  0  0
   38.9020   30.3850   45.5610 N   0  0  0  0  0  0  0  0  0  0  0  0
   34.6841   30.3490   51.3892 H   0  0  0  0  0  0  0  0  0  0  0  0
   32.4268   29.2262   50.3825 H   0  0  0  0  0  0  0  0  0  0  0  0
   34.4707   26.2227   47.2569 H   0  0  0  0  0  0  0  0  0  0  0  0
   31.2862   28.4207   49.1308 H   0  0  0  0  0  0  0  0  0  0  0  0
   28.7622   27.5930   48.2006 H   0  0  0  0  0  0  0  0  0  0  0  0
   30.0139   24.6295   45.4961 H   0  0  0  0  0  0  0  0  0  0  0  0
   32.8481   24.8958   45.9191 H   0  0  0  0  0  0  0  0  0  0  0  0
   36.9911   31.9600   51.0475 H   0  0  0  0  0  0  0  0  0  0  0  0
   37.8763   34.0058   49.8568 H   0  0  0  0  0  0  0  0  0  0  0  0
   40.3203   33.3170   46.3494 H   0  0  0  0  0  0  0  0  0  0  0  0
   41.3245   33.0136   44.0664 H   0  0  0  0  0  0  0  0  0  0  0  0
   40.7095   30.9566   42.7892 H   0  0  0  0  0  0  0  0  0  0  0  0
   39.1723   29.2973   43.7514 H   0  0  0  0  0  0  0  0  0  0  0  0
  1 15  1  0
  1  2  2  0
  3  2  1  0
  4  3  2  0
  5  4  1  0
  5  1  1  0
  6  7  2  0
  7  8  1  0
  7  4  1  0
  9  8  2  0
 10  9  1  0
 11 10  1  0
 12 11  2  0
 12 13  1  0
 13  9  1  0
 14 13  2  0
 14  6  1  0
 15 16  2  0
 17 18  2  0
 17 15  1  0
 19 18  1  0
 20 19  2  0
 21 20  1  0
 21 22  2  0
 22 17  1  0
 23 21  1  0
 24 23  2  0
 25 24  1  0
 26 27  1  0
 26 25  2  0
 27 28  2  0
 28 23  1  0
  2 29  1  0
  3 30  1  0
  6 31  1  0
  8 32  1  0
 10 33  1  0
 12 34  1  0
 14 35  1  0
 18 36  1  0
 19 37  1  0
 24 38  1  0
 25 39  1  0
 26 40  1  0
 27 41  1  0
M  ISO  8  29  14  30  14  31  14  32  14  33   9  34  14  35  14  36  14
M  ISO  5  37  14  38  14  39  14  40  14  41  14
M  END
>  <minimizedAffinity>  (1) 
-7.23720741

>  <minimizedRMSD>  (1) 
0.650172234

$$$$
