
     RDKit          3D

 31 33  0  0  1  0  0  0  0  0999 V2000
   39.1910   32.7670   45.8950 C   0  0  0  0  0  0  0  0  0  0  0  0
   40.2590   31.8950   45.5580 C   0  0  0  0  0  0  0  0  0  0  0  0
   39.9600   30.5340   45.3760 C   0  0  0  0  0  0  0  0  0  0  0  0
   38.6770   30.1130   45.5270 N   0  0  0  0  0  0  0  0  0  0  0  0
   37.6900   30.9700   45.8470 C   0  0  0  0  0  0  0  0  0  0  0  0
   37.9470   32.2650   46.0260 N   0  0  0  0  0  0  0  0  0  0  0  0
   36.3440   30.4710   45.9960 N   0  0  0  0  0  0  0  0  0  0  0  0
   35.6350   29.8020   44.9120 C   0  0  0  0  0  0  0  0  0  0  0  0
   34.4650   29.1620   45.5720 C   0  0  0  0  0  0  0  0  0  0  0  0
   34.6370   29.3640   47.0500 C   0  0  0  0  0  0  0  0  0  0  0  0
   35.5350   30.5580   47.1900 C   0  0  1  0  0  0  0  0  0  0  0  0
   36.3340   30.5230   48.4410 C   0  0  0  0  0  0  0  0  0  0  0  0
   36.3840   29.2840   49.0840 C   0  0  0  0  0  0  0  0  0  0  0  0
   37.1380   29.2610   50.2610 C   0  0  0  0  0  0  0  0  0  0  0  0
   37.7960   30.3470   50.7840 C   0  0  0  0  0  0  0  0  0  0  0  0
   37.6930   31.5430   50.0800 C   0  0  0  0  0  0  0  0  0  0  0  0
   36.9650   31.5820   48.9340 N   0  0  0  0  0  0  0  0  0  0  0  0
   39.3765   33.8405   46.0476 H   0  0  0  0  0  0  0  0  0  0  0  0
   41.2861   32.2718   45.4432 H   0  0  0  0  0  0  0  0  0  0  0  0
   40.7541   29.8190   45.1148 H   0  0  0  0  0  0  0  0  0  0  0  0
   36.2760   29.0446   44.4371 H   0  0  0  0  0  0  0  0  0  0  0  0
   35.3365   30.4984   44.1146 H   0  0  0  0  0  0  0  0  0  0  0  0
   33.5322   29.6350   45.2311 H   0  0  0  0  0  0  0  0  0  0  0  0
   34.4081   28.0919   45.3237 H   0  0  0  0  0  0  0  0  0  0  0  0
   33.6648   29.5562   47.5274 H   0  0  0  0  0  0  0  0  0  0  0  0
   35.0628   28.4741   47.5365 H   0  0  0  0  0  0  0  0  0  0  0  0
   34.9933   31.5117   47.2736 H   0  0  0  0  0  0  0  0  0  0  0  0
   35.8691   28.3937   48.6938 H   0  0  0  0  0  0  0  0  0  0  0  0
   37.2091   28.3078   50.8054 H   0  0  0  0  0  0  0  0  0  0  0  0
   38.3770   30.2749   51.7153 H   0  0  0  0  0  0  0  0  0  0  0  0
   38.1967   32.4488   50.4484 H   0  0  0  0  0  0  0  0  0  0  0  0
  1  6  2  0
  2  1  1  0
  3  4  1  0
  3  2  2  0
  4  5  2  0
  5  7  1  0
  5  6  1  0
  7 11  1  0
  8  9  1  0
  8  7  1  0
  9 10  1  0
 10 11  1  0
 11 12  1  0
 12 17  1  0
 12 13  2  0
 13 14  1  0
 14 15  2  0
 16 15  1  0
 17 16  2  0
  1 18  1  0
  2 19  1  0
  3 20  1  0
  8 21  1  0
  8 22  1  0
  9 23  1  0
  9 24  1  0
 10 25  1  0
 10 26  1  0
 11 27  1  6
 13 28  1  0
 14 29  1  0
 15 30  1  0
 16 31  1  0
M  ISO  8  18  14  19  14  20  14  21  13  22  13  23  13  24  13  25  13
M  ISO  6  26  13  27  13  28  14  29  14  30  14  31  14
M  END
>  <minimizedAffinity>  (1) 
-5.21237516

>  <minimizedRMSD>  (1) 
3.14207792

$$$$
