
     RDKit          3D

 43 46  0  0  0  0  0  0  0  0999 V2000
   34.6280   29.2740   48.0790 C   0  0  0  0  0  0  0  0  0  0  0  0
   34.6560   27.9860   48.4810 C   0  0  0  0  0  0  0  0  0  0  0  0
   33.7240   27.1150   48.0780 C   0  0  0  0  0  0  0  0  0  0  0  0
   32.7350   27.5440   47.2490 N   0  0  0  0  0  0  0  0  0  0  0  0
   32.7160   28.8130   46.8590 C   0  0  0  0  0  0  0  0  0  0  0  0
   33.6460   29.6920   47.2600 N   0  0  0  0  0  0  0  0  0  0  0  0
   30.3130   28.9850   46.3780 C   0  0  0  0  0  0  0  0  0  0  0  0
   31.6350   29.1560   45.9650 C   0  0  0  0  0  0  0  0  0  0  0  0
   32.0010   29.6230   44.7170 C   0  0  0  0  0  0  0  0  0  0  0  0
   31.0150   29.9450   43.8060 C   0  0  0  0  0  0  0  0  0  0  0  0
   29.6840   29.8060   44.1280 C   0  0  0  0  0  0  0  0  0  0  0  0
   29.4210   29.3410   45.3760 C   0  0  0  0  0  0  0  0  0  0  0  0
   29.8320   28.4480   47.8800 S   0  0  0  0  0  0  0  0  0  0  0  0
   29.3930   27.0150   47.4340 O   0  0  0  0  0  0  0  0  0  0  0  0
   28.6020   29.2330   48.2610 O   0  0  0  0  0  0  0  0  0  0  0  0
   30.1300   27.8460   49.3300 C   0  0  0  0  0  0  0  0  0  0  0  0
   29.7180   26.5730   49.7790 F   0  0  0  0  0  0  0  0  0  0  0  0
   29.2360   28.4720   50.3200 F   0  0  0  0  0  0  0  0  0  0  0  0
   31.2080   28.3310   50.1340 F   0  0  0  0  0  0  0  0  0  0  0  0
   36.7130   31.5290   50.0980 C   0  0  0  0  0  0  0  0  0  0  0  0
   37.5760   32.0810   49.1330 C   0  0  0  0  0  0  0  0  0  0  0  0
   37.4200   31.6670   47.8190 C   0  0  0  0  0  0  0  0  0  0  0  0
   36.4480   30.7550   47.5320 N   0  0  0  0  0  0  0  0  0  0  0  0
   35.6280   30.2420   48.4960 C   0  0  0  0  0  0  0  0  0  0  0  0
   35.7710   30.6340   49.7660 N   0  0  0  0  0  0  0  0  0  0  0  0
   38.2240   32.1320   46.6950 C   0  0  0  0  0  0  0  0  0  0  0  0
   39.4960   32.6420   46.8380 C   0  0  0  0  0  0  0  0  0  0  0  0
   40.2880   33.0920   45.8040 C   0  0  0  0  0  0  0  0  0  0  0  0
   39.7860   33.0360   44.5160 C   0  0  0  0  0  0  0  0  0  0  0  0
   38.5050   32.5220   44.3840 C   0  0  0  0  0  0  0  0  0  0  0  0
   37.7930   32.1040   45.4210 N   0  0  0  0  0  0  0  0  0  0  0  0
   35.4591   27.6465   49.1517 H   0  0  0  0  0  0  0  0  0  0  0  0
   33.7571   26.0675   48.4122 H   0  0  0  0  0  0  0  0  0  0  0  0
   33.0628   29.7366   44.4532 H   0  0  0  0  0  0  0  0  0  0  0  0
   31.2966   30.3174   42.8100 H   0  0  0  0  0  0  0  0  0  0  0  0
   28.8824   30.0564   43.4175 H   0  0  0  0  0  0  0  0  0  0  0  0
   28.3557   29.2314   45.6274 H   0  0  0  0  0  0  0  0  0  0  0  0
   36.8134   31.8388   51.1487 H   0  0  0  0  0  0  0  0  0  0  0  0
   38.3468   32.8147   49.4113 H   0  0  0  0  0  0  0  0  0  0  0  0
   39.9110   32.6939   47.8554 H   0  0  0  0  0  0  0  0  0  0  0  0
   41.2962   33.4867   45.9982 H   0  0  0  0  0  0  0  0  0  0  0  0
   40.3685   33.3789   43.6482 H   0  0  0  0  0  0  0  0  0  0  0  0
   38.0621   32.4586   43.3791 H   0  0  0  0  0  0  0  0  0  0  0  0
  1  2  2  0
  1 24  1  0
  3  2  1  0
  4  3  2  0
  5  4  1  0
  5  6  2  0
  6  1  1  0
  7 13  1  0
  8  7  2  0
  8  5  1  0
  9  8  1  0
 10 11  1  0
 10  9  2  0
 11 12  2  0
 12  7  1  0
 13 15  2  0
 13 16  1  0
 14 13  2  0
 16 17  1  0
 16 19  1  0
 16 18  1  0
 21 20  2  0
 22 21  1  0
 23 22  2  0
 23 24  1  0
 24 25  2  0
 25 20  1  0
 26 27  2  0
 26 22  1  0
 28 27  1  0
 29 28  2  0
 30 29  1  0
 30 31  2  0
 31 26  1  0
  2 32  1  0
  3 33  1  0
  9 34  1  0
 10 35  1  0
 11 36  1  0
 12 37  1  0
 20 38  1  0
 21 39  1  0
 27 40  1  0
 28 41  1  0
 29 42  1  0
 30 43  1  0
M  ISO  8  32  14  33  14  34  14  35  14  36  14  37  14  38  14  39  14
M  ISO  4  40  14  41  14  42  14  43  14
M  END
>  <minimizedAffinity>  (1) 
-6.94462585

>  <minimizedRMSD>  (1) 
1.73806703

$$$$
