
     RDKit          3D

 37 40  0  0  1  0  0  0  0  0999 V2000
   36.4620   30.5930   49.2360 C   0  0  0  0  0  0  0  0  0  0  0  0
   35.4350   30.7710   50.1390 C   0  0  0  0  0  0  0  0  0  0  0  0
   34.2410   30.4090   49.4930 C   0  0  0  0  0  0  0  0  0  0  0  0
   34.6270   30.0300   48.2260 C   0  0  0  0  0  0  0  0  0  0  0  0
   35.9330   30.1530   48.1190 O   0  0  0  0  0  0  0  0  0  0  0  0
   37.8450   30.8740   49.5740 C   0  0  0  0  0  0  0  0  0  0  0  0
   38.3860   30.2380   50.4930 O   0  0  0  0  0  0  0  0  0  0  0  0
   38.5140   31.8900   48.8090 C   0  0  0  0  0  0  0  0  0  0  0  0
   38.7710   33.0920   49.4380 C   0  0  0  0  0  0  0  0  0  0  0  0
   39.4160   34.1030   48.7300 C   0  0  0  0  0  0  0  0  0  0  0  0
   39.7670   33.8450   47.4260 N   0  0  0  0  0  0  0  0  0  0  0  0
   39.5050   32.6720   46.8430 C   0  0  0  0  0  0  0  0  0  0  0  0
   38.8850   31.6980   47.5250 N   0  0  0  0  0  0  0  0  0  0  0  0
   33.7330   29.5600   47.1670 C   0  0  0  0  0  0  0  0  0  0  0  0
   32.9760   30.3980   46.5920 O   0  0  0  0  0  0  0  0  0  0  0  0
   33.6990   28.1300   46.7720 C   0  0  1  0  0  0  0  0  0  0  0  0
   34.0680   27.2000   47.9970 C   0  0  0  0  0  0  0  0  0  0  0  0
   32.7530   27.1630   47.3250 C   0  0  1  0  0  0  0  0  0  0  0  0
   31.5270   27.6140   47.9740 C   0  0  0  0  0  0  0  0  0  0  0  0
   30.4740   27.9820   47.1260 C   0  0  0  0  0  0  0  0  0  0  0  0
   29.2210   28.4190   47.5670 C   0  0  0  0  0  0  0  0  0  0  0  0
   28.9870   28.4980   48.9050 C   0  0  0  0  0  0  0  0  0  0  0  0
   30.0490   28.1260   49.6960 C   0  0  0  0  0  0  0  0  0  0  0  0
   31.2420   27.7120   49.2820 N   0  0  0  0  0  0  0  0  0  0  0  0
   35.5326   31.1302   51.1741 H   0  0  0  0  0  0  0  0  0  0  0  0
   33.2222   30.4247   49.9076 H   0  0  0  0  0  0  0  0  0  0  0  0
   38.4703   33.2489   50.4844 H   0  0  0  0  0  0  0  0  0  0  0  0
   39.6369   35.0738   49.1976 H   0  0  0  0  0  0  0  0  0  0  0  0
   39.7998   32.5040   45.7966 H   0  0  0  0  0  0  0  0  0  0  0  0
   33.9859   28.3398   45.7310 H   0  0  0  0  0  0  0  0  0  0  0  0
   34.7812   26.3716   47.8741 H   0  0  0  0  0  0  0  0  0  0  0  0
   34.4321   27.3457   49.0247 H   0  0  0  0  0  0  0  0  0  0  0  0
   32.1734   26.3348   46.8913 H   0  0  0  0  0  0  0  0  0  0  0  0
   30.6444   27.9232   46.0409 H   0  0  0  0  0  0  0  0  0  0  0  0
   28.4382   28.6941   46.8448 H   0  0  0  0  0  0  0  0  0  0  0  0
   28.0252   28.8327   49.3210 H   0  0  0  0  0  0  0  0  0  0  0  0
   29.8949   28.1764   50.7840 H   0  0  0  0  0  0  0  0  0  0  0  0
  1  6  1  0
  1  2  2  0
  3  2  1  0
  4  3  2  0
  5  4  1  0
  5  1  1  0
  6  7  2  0
  8  9  2  0
  8  6  1  0
 10  9  1  0
 11 10  2  0
 12 11  1  0
 12 13  2  0
 13  8  1  0
 14  4  1  0
 15 14  2  0
 16 14  1  0
 16 18  1  0
 16 17  1  0
 18 19  1  0
 18 17  1  0
 19 24  2  0
 20 21  2  0
 20 19  1  0
 21 22  1  0
 22 23  2  0
 24 23  1  0
  2 25  1  0
  3 26  1  0
  9 27  1  0
 10 28  1  0
 12 29  1  0
 16 30  1  6
 17 31  1  0
 17 32  1  0
 18 33  1  6
 20 34  1  0
 21 35  1  0
 22 36  1  0
 23 37  1  0
M  ISO  8  25  14  26  14  27  14  28  14  29  14  30  13  31  13  32  13
M  ISO  5  33  13  34  14  35  14  36  14  37  14
M  END
>  <minimizedAffinity>  (1) 
-5.53714895

>  <minimizedRMSD>  (1) 
2.31010032

$$$$
