
     RDKit          3D

 26 28  0  0  0  0  0  0  0  0999 V2000
   36.3450   30.3160   48.8490 C   0  0  0  0  0  0  0  0  0  0  0  0
   36.1790   29.4910   49.8850 C   0  0  0  0  0  0  0  0  0  0  0  0
   35.2140   28.5250   49.8580 C   0  0  0  0  0  0  0  0  0  0  0  0
   34.4630   28.4810   48.7190 C   0  0  0  0  0  0  0  0  0  0  0  0
   35.1610   29.8340   47.7060 S   0  0  0  0  0  0  0  0  0  0  0  0
   38.1990   33.3930   49.4770 C   0  0  0  0  0  0  0  0  0  0  0  0
   39.0830   33.4690   48.3930 C   0  0  0  0  0  0  0  0  0  0  0  0
   39.0320   32.4540   47.4470 C   0  0  0  0  0  0  0  0  0  0  0  0
   38.1330   31.4420   47.6180 N   0  0  0  0  0  0  0  0  0  0  0  0
   37.3090   31.4130   48.6730 C   0  0  0  0  0  0  0  0  0  0  0  0
   37.3160   32.3710   49.6200 N   0  0  0  0  0  0  0  0  0  0  0  0
   33.3470   27.5780   48.3470 C   0  0  0  0  0  0  0  0  0  0  0  0
   33.6000   26.4990   47.5720 C   0  0  0  0  0  0  0  0  0  0  0  0
   32.5200   25.6980   47.2610 C   0  0  0  0  0  0  0  0  0  0  0  0
   31.2600   26.0120   47.7370 C   0  0  0  0  0  0  0  0  0  0  0  0
   31.0670   27.1210   48.5200 C   0  0  0  0  0  0  0  0  0  0  0  0
   32.1360   27.8680   48.7960 N   0  0  0  0  0  0  0  0  0  0  0  0
   36.8258   29.5901   50.7692 H   0  0  0  0  0  0  0  0  0  0  0  0
   35.0531   27.8307   50.6959 H   0  0  0  0  0  0  0  0  0  0  0  0
   38.2207   34.1874   50.2376 H   0  0  0  0  0  0  0  0  0  0  0  0
   39.7927   34.3036   48.2947 H   0  0  0  0  0  0  0  0  0  0  0  0
   39.7038   32.4655   46.5760 H   0  0  0  0  0  0  0  0  0  0  0  0
   34.6131   26.2718   47.2087 H   0  0  0  0  0  0  0  0  0  0  0  0
   32.6619   24.8066   46.6323 H   0  0  0  0  0  0  0  0  0  0  0  0
   30.4055   25.3667   47.4853 H   0  0  0  0  0  0  0  0  0  0  0  0
   30.0705   27.3836   48.9048 H   0  0  0  0  0  0  0  0  0  0  0  0
  1  2  2  0
  3  2  1  0
  4  3  2  0
  5  4  1  0
  5  1  1  0
  6 11  2  0
  7  6  1  0
  8  9  1  0
  8  7  2  0
  9 10  2  0
 10  1  1  0
 10 11  1  0
 12  4  1  0
 12 17  1  0
 13 12  2  0
 14 13  1  0
 14 15  2  0
 15 16  1  0
 16 17  2  0
  2 18  1  0
  3 19  1  0
  6 20  1  0
  7 21  1  0
  8 22  1  0
 13 23  1  0
 14 24  1  0
 15 25  1  0
 16 26  1  0
M  ISO  8  18  14  19  14  20  14  21  14  22  14  23  14  24  14  25  14
M  ISO  1  26  14
M  END
>  <minimizedAffinity>  (1) 
-5.36924696

>  <minimizedRMSD>  (1) 
0.695765555

$$$$
