
     RDKit          3D

 21 22  0  0  0  0  0  0  0  0999 V2000
   37.8490   32.9870   49.5420 C   0  0  0  0  0  0  0  0  0  0  0  0
   38.7460   33.2130   48.4910 C   0  0  0  0  0  0  0  0  0  0  0  0
   38.6560   32.3120   47.4090 C   0  0  0  0  0  0  0  0  0  0  0  0
   37.7350   31.3030   47.4410 N   0  0  0  0  0  0  0  0  0  0  0  0
   36.9080   31.1460   48.4810 C   0  0  0  0  0  0  0  0  0  0  0  0
   36.9500   31.9810   49.5470 N   0  0  0  0  0  0  0  0  0  0  0  0
   35.9280   30.0660   48.5050 C   0  0  0  0  0  0  0  0  0  0  0  0
   35.1380   29.8490   47.3960 C   0  0  0  0  0  0  0  0  0  0  0  0
   34.2000   28.8400   47.3740 C   0  0  0  0  0  0  0  0  0  0  0  0
   34.0550   28.0340   48.4870 C   0  0  0  0  0  0  0  0  0  0  0  0
   34.8590   28.2670   49.5930 C   0  0  0  0  0  0  0  0  0  0  0  0
   35.7640   29.2590   49.5810 N   0  0  0  0  0  0  0  0  0  0  0  0
   39.6650   34.2830   48.5440 N   0  0  0  0  0  0  0  0  0  0  0  0
   37.8788   33.6644   50.4081 H   0  0  0  0  0  0  0  0  0  0  0  0
   39.3249   32.4214   46.5426 H   0  0  0  0  0  0  0  0  0  0  0  0
   35.2588   30.4932   46.5126 H   0  0  0  0  0  0  0  0  0  0  0  0
   33.5754   28.6784   46.4831 H   0  0  0  0  0  0  0  0  0  0  0  0
   33.3141   27.2210   48.4958 H   0  0  0  0  0  0  0  0  0  0  0  0
   34.7545   27.6343   50.4868 H   0  0  0  0  0  0  0  0  0  0  0  0
   40.3197   34.4386   47.7643 H   0  0  0  0  0  0  0  0  0  0  0  0
   39.6809   34.9082   49.3624 H   0  0  0  0  0  0  0  0  0  0  0  0
  1  6  2  0
  2 13  1  0
  2  1  1  0
  3  4  1  0
  3  2  2  0
  4  5  2  0
  5  7  1  0
  5  6  1  0
  7 12  1  0
  8  7  2  0
  9  8  1  0
  9 10  2  0
 10 11  1  0
 12 11  2  0
  1 14  1  0
  3 15  1  0
  8 16  1  0
  9 17  1  0
 10 18  1  0
 11 19  1  0
 13 20  1  0
 13 21  1  0
M  ISO  6  14  14  15  14  16  14  17  14  18  14  19  14
M  END
>  <minimizedAffinity>  (1) 
-4.84229946

>  <minimizedRMSD>  (1) 
3.62564039

$$$$
