
     RDKit          3D

 22 23  0  0  0  0  0  0  0  0999 V2000
   36.7110   29.8740   49.5070 C   0  0  0  0  0  0  0  0  0  0  0  0
   37.8040   30.4170   48.8020 C   0  0  0  0  0  0  0  0  0  0  0  0
   37.6240   30.7570   47.4650 C   0  0  0  0  0  0  0  0  0  0  0  0
   36.4030   30.5450   46.9070 N   0  0  0  0  0  0  0  0  0  0  0  0
   35.3760   30.0230   47.6090 C   0  0  0  0  0  0  0  0  0  0  0  0
   35.5360   29.6920   48.8980 N   0  0  0  0  0  0  0  0  0  0  0  0
   38.7190   31.3200   46.6930 C   0  0  0  0  0  0  0  0  0  0  0  0
   39.1210   32.6120   46.9610 C   0  0  0  0  0  0  0  0  0  0  0  0
   40.1460   33.1790   46.2570 C   0  0  0  0  0  0  0  0  0  0  0  0
   40.7560   32.4050   45.2720 C   0  0  0  0  0  0  0  0  0  0  0  0
   40.3350   31.1000   45.0160 C   0  0  0  0  0  0  0  0  0  0  0  0
   39.3060   30.5930   45.7540 N   0  0  0  0  0  0  0  0  0  0  0  0
   36.8850   29.5060   50.9380 C   0  0  0  0  0  0  0  0  0  0  0  0
   35.6650   29.1580   51.4930 F   0  0  0  0  0  0  0  0  0  0  0  0
   37.8350   28.5180   51.0070 F   0  0  0  0  0  0  0  0  0  0  0  0
   37.3270   30.6450   51.6060 F   0  0  0  0  0  0  0  0  0  0  0  0
   38.7749   30.5682   49.2964 H   0  0  0  0  0  0  0  0  0  0  0  0
   34.4024   29.8682   47.1211 H   0  0  0  0  0  0  0  0  0  0  0  0
   38.6129   33.1901   47.7470 H   0  0  0  0  0  0  0  0  0  0  0  0
   40.4771   34.2081   46.4604 H   0  0  0  0  0  0  0  0  0  0  0  0
   41.5840   32.8305   44.6860 H   0  0  0  0  0  0  0  0  0  0  0  0
   40.8214   30.4941   44.2373 H   0  0  0  0  0  0  0  0  0  0  0  0
  1 13  1  0
  2  1  2  0
  3  2  1  0
  4  3  2  0
  4  5  1  0
  5  6  2  0
  6  1  1  0
  7  8  2  0
  7  3  1  0
  9  8  1  0
 10  9  2  0
 11 10  1  0
 11 12  2  0
 12  7  1  0
 13 15  1  0
 13 14  1  0
 13 16  1  0
  2 17  1  0
  5 18  1  0
  8 19  1  0
  9 20  1  0
 10 21  1  0
 11 22  1  0
M  ISO  6  17  14  18  14  19  14  20  14  21  14  22  14
M  END
>  <minimizedAffinity>  (1) 
-6.02884388

>  <minimizedRMSD>  (1) 
2.60104394

$$$$
