
     RDKit          3D

 46 50  0  0  1  0  0  0  0  0999 V2000
   36.1590   30.2190   46.8730 C   0  0  0  0  0  0  0  0  0  0  0  0
   37.0580   30.7630   47.7860 C   0  0  0  0  0  0  0  0  0  0  0  0
   38.0580   31.6270   47.3660 C   0  0  0  0  0  0  0  0  0  0  0  0
   38.1060   31.9080   46.0060 C   0  0  0  0  0  0  0  0  0  0  0  0
   39.0030   32.7270   45.3710 N   0  0  0  0  0  0  0  0  0  0  0  0
   38.6690   32.6960   44.0720 C   0  0  0  0  0  0  0  0  0  0  0  0
   37.6300   31.9110   43.8820 N   0  0  0  0  0  0  0  0  0  0  0  0
   37.2460   31.3980   45.0750 C   0  0  0  0  0  0  0  0  0  0  0  0
   36.2460   30.5300   45.5230 C   0  0  0  0  0  0  0  0  0  0  0  0
   37.5560   30.2020   51.4580 C   0  0  0  0  0  0  0  0  0  0  0  0
   37.8260   30.6290   50.1700 C   0  0  0  0  0  0  0  0  0  0  0  0
   36.8920   30.3730   49.1720 C   0  0  0  0  0  0  0  0  0  0  0  0
   35.7600   29.7110   49.5350 N   0  0  0  0  0  0  0  0  0  0  0  0
   35.5060   29.3000   50.7860 C   0  0  0  0  0  0  0  0  0  0  0  0
   36.4010   29.5480   51.7330 N   0  0  0  0  0  0  0  0  0  0  0  0
   39.3900   33.4350   43.1160 O   0  0  0  0  0  0  0  0  0  0  0  0
   39.1470   31.5950   41.7930 N   0  0  0  0  0  0  0  0  0  0  0  0
   39.1810   33.0430   41.7580 C   0  0  1  0  0  0  0  0  0  0  0  0
   37.9130   33.5470   41.2390 C   0  0  0  0  0  0  0  0  0  0  0  0
   37.7800   33.1340   39.9030 O   0  0  0  0  0  0  0  0  0  0  0  0
   37.8850   31.7940   39.6950 C   0  0  0  0  0  0  0  0  0  0  0  0
   39.0320   31.1470   40.4070 C   0  0  1  0  0  0  0  0  0  0  0  0
   40.2990   31.1200   39.6790 C   0  0  0  0  0  0  0  0  0  0  0  0
   40.4170   31.7220   38.4170 C   0  0  0  0  0  0  0  0  0  0  0  0
   41.5420   31.7750   37.6230 C   0  0  0  0  0  0  0  0  0  0  0  0
   42.6710   31.1730   38.1160 C   0  0  0  0  0  0  0  0  0  0  0  0
   42.5580   30.5790   39.3570 C   0  0  0  0  0  0  0  0  0  0  0  0
   41.4410   30.5510   40.1010 N   0  0  0  0  0  0  0  0  0  0  0  0
   35.3719   29.5359   47.2248 H   0  0  0  0  0  0  0  0  0  0  0  0
   38.7764   32.0673   48.0731 H   0  0  0  0  0  0  0  0  0  0  0  0
   39.7741   33.2567   45.8020 H   0  0  0  0  0  0  0  0  0  0  0  0
   35.5312   30.0953   44.8088 H   0  0  0  0  0  0  0  0  0  0  0  0
   38.2816   30.3940   52.2622 H   0  0  0  0  0  0  0  0  0  0  0  0
   38.7611   31.1606   49.9399 H   0  0  0  0  0  0  0  0  0  0  0  0
   34.5731   28.7673   51.0223 H   0  0  0  0  0  0  0  0  0  0  0  0
   40.0129   31.2292   42.2141 H   0  0  0  0  0  0  0  0  0  0  0  0
   39.9690   33.4444   41.1038 H   0  0  0  0  0  0  0  0  0  0  0  0
   37.0817   33.1439   41.8360 H   0  0  0  0  0  0  0  0  0  0  0  0
   37.8932   34.6453   41.2967 H   0  0  0  0  0  0  0  0  0  0  0  0
   36.9544   31.3184   40.0381 H   0  0  0  0  0  0  0  0  0  0  0  0
   38.0648   31.6559   38.6186 H   0  0  0  0  0  0  0  0  0  0  0  0
   38.7662   30.0802   40.4442 H   0  0  0  0  0  0  0  0  0  0  0  0
   39.5126   32.2044   38.0179 H   0  0  0  0  0  0  0  0  0  0  0  0
   41.5347   32.2750   36.6432 H   0  0  0  0  0  0  0  0  0  0  0  0
   43.6159   31.1639   37.5529 H   0  0  0  0  0  0  0  0  0  0  0  0
   43.4535   30.0903   39.7685 H   0  0  0  0  0  0  0  0  0  0  0  0
  1  2  2  0
  2 12  1  0
  3  2  1  0
  4  3  2  0
  5  4  1  0
  6  5  1  0
  7  6  2  0
  7  8  1  0
  8  9  2  0
  8  4  1  0
  9  1  1  0
 10 15  2  0
 11 10  1  0
 12 13  1  0
 12 11  2  0
 13 14  2  0
 14 15  1  0
 16  6  1  0
 18 17  1  0
 18 16  1  0
 19 18  1  0
 20 19  1  0
 21 20  1  0
 21 22  1  0
 22 17  1  0
 23 28  1  0
 23 22  1  0
 24 23  2  0
 25 26  2  0
 25 24  1  0
 26 27  1  0
 27 28  2  0
  1 29  1  0
  3 30  1  0
  5 31  1  0
  9 32  1  0
 10 33  1  0
 11 34  1  0
 14 35  1  0
 17 36  1  0
 18 37  1  6
 19 38  1  0
 19 39  1  0
 21 40  1  0
 21 41  1  0
 22 42  1  1
 24 43  1  0
 25 44  1  0
 26 45  1  0
 27 46  1  0
M  ISO  8  29  14  30  14  31   9  32  14  33  14  34  14  35  14  36   5
M  ISO  8  37  13  38  13  39  13  40  13  41  13  42  13  43  14  44  14
M  ISO  2  45  14  46  14
M  END
>  <minimizedAffinity>  (1) 
-5.94879103

>  <minimizedRMSD>  (1) 
0.635714948

$$$$
