
     RDKit          3D

 21 22  0  0  0  0  0  0  0  0999 V2000
   37.2890   30.3930   50.9640 C   0  0  0  0  0  0  0  0  0  0  0  0
   38.2670   31.0560   50.1820 C   0  0  0  0  0  0  0  0  0  0  0  0
   38.0560   31.0720   48.8100 C   0  0  0  0  0  0  0  0  0  0  0  0
   36.9560   30.4710   48.2850 N   0  0  0  0  0  0  0  0  0  0  0  0
   36.0530   29.8520   49.0660 C   0  0  0  0  0  0  0  0  0  0  0  0
   36.2200   29.8160   50.3890 N   0  0  0  0  0  0  0  0  0  0  0  0
   39.0460   31.7400   48.0430 N   0  0  0  0  0  0  0  0  0  0  0  0
   34.8770   29.2120   48.4880 C   0  0  0  0  0  0  0  0  0  0  0  0
   34.3900   28.0050   48.9490 C   0  0  0  0  0  0  0  0  0  0  0  0
   33.2660   27.4020   48.3880 C   0  0  0  0  0  0  0  0  0  0  0  0
   32.6040   28.0200   47.3340 C   0  0  0  0  0  0  0  0  0  0  0  0
   33.1140   29.2310   46.8900 C   0  0  0  0  0  0  0  0  0  0  0  0
   34.2020   29.7660   47.4680 N   0  0  0  0  0  0  0  0  0  0  0  0
   37.4063   30.3499   52.0569 H   0  0  0  0  0  0  0  0  0  0  0  0
   39.1471   31.5329   50.6380 H   0  0  0  0  0  0  0  0  0  0  0  0
   38.9555   31.7918   47.0183 H   0  0  0  0  0  0  0  0  0  0  0  0
   39.8549   32.1729   48.5111 H   0  0  0  0  0  0  0  0  0  0  0  0
   34.9041   27.5051   49.7831 H   0  0  0  0  0  0  0  0  0  0  0  0
   32.9038   26.4395   48.7784 H   0  0  0  0  0  0  0  0  0  0  0  0
   31.7139   27.5683   46.8718 H   0  0  0  0  0  0  0  0  0  0  0  0
   32.6236   29.7574   46.0579 H   0  0  0  0  0  0  0  0  0  0  0  0
  2  1  2  0
  3  2  1  0
  4  3  2  0
  4  5  1  0
  5  6  2  0
  6  1  1  0
  7  3  1  0
  8  9  2  0
  8  5  1  0
 10  9  1  0
 11 10  2  0
 12 11  1  0
 12 13  2  0
 13  8  1  0
  1 14  1  0
  2 15  1  0
  7 16  1  0
  7 17  1  0
  9 18  1  0
 10 19  1  0
 11 20  1  0
 12 21  1  0
M  ISO  6  14  14  15  14  18  14  19  14  20  14  21  14
M  END
>  <minimizedAffinity>  (1) 
-4.65696955

>  <minimizedRMSD>  (1) 
1.76379979

$$$$
