
     RDKit          3D

 39 42  0  0  1  0  0  0  0  0999 V2000
   38.4360   31.8130   44.6340 C   0  0  0  0  0  0  0  0  0  0  0  0
   37.3100   32.3910   44.5760 O   0  0  0  0  0  0  0  0  0  0  0  0
   39.0240   31.4780   45.8970 N   0  0  0  0  0  0  0  0  0  0  0  0
   39.1650   31.4740   43.3980 C   0  0  0  0  0  0  0  0  0  0  0  0
   40.1490   30.5260   43.4710 C   0  0  0  0  0  0  0  0  0  0  0  0
   40.8310   30.2030   42.3150 C   0  0  0  0  0  0  0  0  0  0  0  0
   40.4810   30.8530   41.1480 C   0  0  0  0  0  0  0  0  0  0  0  0
   39.4760   31.8230   41.0660 C   0  0  0  0  0  0  0  0  0  0  0  0
   38.8650   32.0780   42.2320 N   0  0  0  0  0  0  0  0  0  0  0  0
   39.1380   32.4850   39.8160 C   0  0  0  0  0  0  0  0  0  0  0  0
   39.7010   31.9790   38.6720 C   0  0  0  0  0  0  0  0  0  0  0  0
   39.3900   32.5940   37.4760 C   0  0  0  0  0  0  0  0  0  0  0  0
   38.5330   33.6720   37.5480 C   0  0  0  0  0  0  0  0  0  0  0  0
   37.9570   34.1900   38.7130 C   0  0  0  0  0  0  0  0  0  0  0  0
   38.3090   33.5320   39.8510 N   0  0  0  0  0  0  0  0  0  0  0  0
   38.6950   31.1540   48.3410 C   0  0  2  0  0  0  0  0  0  0  0  0
   38.7210   32.6080   48.1180 C   0  0  0  0  0  0  0  0  0  0  0  0
   38.1760   31.6030   47.0730 C   0  0  1  0  0  0  0  0  0  0  0  0
   35.9270   29.1720   49.7670 C   0  0  0  0  0  0  0  0  0  0  0  0
   36.1320   29.3280   51.1760 C   0  0  0  0  0  0  0  0  0  0  0  0
   37.2480   30.1420   51.5930 C   0  0  0  0  0  0  0  0  0  0  0  0
   38.0360   30.7120   50.6520 N   0  0  0  0  0  0  0  0  0  0  0  0
   37.7870   30.5250   49.3330 C   0  0  0  0  0  0  0  0  0  0  0  0
   36.7390   29.7590   48.8620 N   0  0  0  0  0  0  0  0  0  0  0  0
   40.0020   31.1632   45.9692 H   0  0  0  0  0  0  0  0  0  0  0  0
   40.3901   30.0345   44.4251 H   0  0  0  0  0  0  0  0  0  0  0  0
   41.6314   29.4485   42.3233 H   0  0  0  0  0  0  0  0  0  0  0  0
   41.0248   30.5926   40.2279 H   0  0  0  0  0  0  0  0  0  0  0  0
   40.3775   31.1123   38.7066 H   0  0  0  0  0  0  0  0  0  0  0  0
   39.8029   32.2436   36.5185 H   0  0  0  0  0  0  0  0  0  0  0  0
   38.2786   34.1711   36.6013 H   0  0  0  0  0  0  0  0  0  0  0  0
   37.2777   35.0552   38.7094 H   0  0  0  0  0  0  0  0  0  0  0  0
   39.4751   30.4375   48.6378 H   0  0  0  0  0  0  0  0  0  0  0  0
   38.0348   33.2694   48.6673 H   0  0  0  0  0  0  0  0  0  0  0  0
   39.4822   33.4018   48.1362 H   0  0  0  0  0  0  0  0  0  0  0  0
   37.2362   31.4204   46.5314 H   0  0  0  0  0  0  0  0  0  0  0  0
   35.0859   28.5578   49.4130 H   0  0  0  0  0  0  0  0  0  0  0  0
   35.4670   28.8477   51.9089 H   0  0  0  0  0  0  0  0  0  0  0  0
   37.4556   30.2972   52.6620 H   0  0  0  0  0  0  0  0  0  0  0  0
  1  3  1  0
  2  1  2  0
  3 18  1  0
  4  5  2  0
  4  1  1  0
  6  5  1  0
  7  6  2  0
  8  7  1  0
  8  9  2  0
  9  4  1  0
 10 15  1  0
 10  8  1  0
 11 10  2  0
 12 13  2  0
 12 11  1  0
 13 14  1  0
 14 15  2  0
 16 23  1  0
 17 16  1  0
 18 17  1  0
 18 16  1  0
 19 20  2  0
 20 21  1  0
 22 21  2  0
 23 22  1  0
 24 23  2  0
 24 19  1  0
  3 25  1  0
  5 26  1  0
  6 27  1  0
  7 28  1  0
 11 29  1  0
 12 30  1  0
 13 31  1  0
 14 32  1  0
 16 33  1  6
 17 34  1  0
 17 35  1  0
 18 36  1  6
 19 37  1  0
 20 38  1  0
 21 39  1  0
M  ISO  8  26  14  27  14  28  14  29  14  30  14  31  14  32  14  33  13
M  ISO  6  34  13  35  13  36  13  37  14  38  14  39  14
M  END
>  <minimizedAffinity>  (1) 
-5.37440634

>  <minimizedRMSD>  (1) 
0.837747633

$$$$
