
     RDKit          3D

 33 35  0  0  1  0  0  0  0  0999 V2000
   37.2460   29.2550   50.3810 C   0  0  0  0  0  0  0  0  0  0  0  0
   37.3460   30.5880   50.7720 C   0  0  0  0  0  0  0  0  0  0  0  0
   36.5440   31.5390   50.0990 C   0  0  0  0  0  0  0  0  0  0  0  0
   35.7300   31.0820   49.1140 N   0  0  0  0  0  0  0  0  0  0  0  0
   35.6640   29.7890   48.7700 C   0  0  0  0  0  0  0  0  0  0  0  0
   36.4230   28.8890   49.4060 N   0  0  0  0  0  0  0  0  0  0  0  0
   34.7930   29.3750   47.7350 N   0  0  0  0  0  0  0  0  0  0  0  0
   34.1950   28.0450   47.7220 C   0  0  0  0  0  0  0  0  0  0  0  0
   32.7300   28.1620   47.5960 C   0  0  0  0  0  0  0  0  0  0  0  0
   32.2110   29.3810   47.1670 N   0  0  0  0  0  0  0  0  0  0  0  0
   33.0170   30.3070   46.4500 C   0  0  0  0  0  0  0  0  0  0  0  0
   34.4660   30.2860   46.6320 C   0  0  2  0  0  0  0  0  0  0  0  0
   35.2170   29.8190   45.4530 C   0  0  0  0  0  0  0  0  0  0  0  0
   34.9590   28.9390   44.4320 C   0  0  0  0  0  0  0  0  0  0  0  0
   35.8340   28.6590   43.4140 C   0  0  0  0  0  0  0  0  0  0  0  0
   37.0620   29.2680   43.3580 C   0  0  0  0  0  0  0  0  0  0  0  0
   37.3140   30.1500   44.3840 C   0  0  0  0  0  0  0  0  0  0  0  0
   36.4440   30.4010   45.3620 N   0  0  0  0  0  0  0  0  0  0  0  0
   37.8581   28.4943   50.8876 H   0  0  0  0  0  0  0  0  0  0  0  0
   38.0280   30.8920   51.5797 H   0  0  0  0  0  0  0  0  0  0  0  0
   36.5787   32.6062   50.3634 H   0  0  0  0  0  0  0  0  0  0  0  0
   34.5912   27.4738   46.8695 H   0  0  0  0  0  0  0  0  0  0  0  0
   34.4405   27.5251   48.6598 H   0  0  0  0  0  0  0  0  0  0  0  0
   32.3998   27.3946   46.8804 H   0  0  0  0  0  0  0  0  0  0  0  0
   32.3533   28.0463   48.6230 H   0  0  0  0  0  0  0  0  0  0  0  0
   31.4080   29.1606   46.5608 H   0  0  0  0  0  0  0  0  0  0  0  0
   32.6734   31.3141   46.7287 H   0  0  0  0  0  0  0  0  0  0  0  0
   32.8827   30.0095   45.3995 H   0  0  0  0  0  0  0  0  0  0  0  0
   34.7591   31.3281   46.8272 H   0  0  0  0  0  0  0  0  0  0  0  0
   33.9867   28.4246   44.4301 H   0  0  0  0  0  0  0  0  0  0  0  0
   35.5481   27.9382   42.6338 H   0  0  0  0  0  0  0  0  0  0  0  0
   37.7879   29.0672   42.5563 H   0  0  0  0  0  0  0  0  0  0  0  0
   38.2813   30.6737   44.3975 H   0  0  0  0  0  0  0  0  0  0  0  0
  1  2  2  0
  3  2  1  0
  4  3  2  0
  5  4  1  0
  5  6  2  0
  6  1  1  0
  7  5  1  0
  8  7  1  0
  9  8  1  0
 10  9  1  0
 11 12  1  0
 11 10  1  0
 12  7  1  0
 13 12  1  0
 14 13  2  0
 15 14  1  0
 16 15  2  0
 16 17  1  0
 17 18  2  0
 18 13  1  0
  1 19  1  0
  2 20  1  0
  3 21  1  0
  8 22  1  0
  8 23  1  0
  9 24  1  0
  9 25  1  0
 10 26  1  0
 11 27  1  0
 11 28  1  0
 12 29  1  1
 14 30  1  0
 15 31  1  0
 16 32  1  0
 17 33  1  0
M  ISO  8  19  14  20  14  21  14  22  13  23  13  24  13  25  13  26   5
M  ISO  7  27  13  28  13  29  13  30  14  31  14  32  14  33  14
M  END
>  <minimizedAffinity>  (1) 
-4.66603947

>  <minimizedRMSD>  (1) 
1.16651189

$$$$
