
     RDKit          3D

 35 37  0  0  0  0  0  0  0  0999 V2000
   36.6520   29.5210   44.0470 Cl  0  0  0  0  0  0  0  0  0  0  0  0
   38.2940   29.8810   43.4800 C   0  0  0  0  0  0  0  0  0  0  0  0
   39.3050   30.3470   44.3210 C   0  0  0  0  0  0  0  0  0  0  0  0
   40.5460   30.5900   43.7570 C   0  0  0  0  0  0  0  0  0  0  0  0
   40.7740   30.3810   42.4230 C   0  0  0  0  0  0  0  0  0  0  0  0
   39.7970   29.9290   41.6010 C   0  0  0  0  0  0  0  0  0  0  0  0
   38.5690   29.6810   42.1250 C   0  0  0  0  0  0  0  0  0  0  0  0
   37.4900   29.1940   41.2740 C   0  0  0  0  0  0  0  0  0  0  0  0
   36.6330   30.0200   40.5850 C   0  0  0  0  0  0  0  0  0  0  0  0
   35.6080   29.5740   39.7780 C   0  0  0  0  0  0  0  0  0  0  0  0
   35.4040   28.2170   39.6320 C   0  0  0  0  0  0  0  0  0  0  0  0
   36.2640   27.3910   40.3230 C   0  0  0  0  0  0  0  0  0  0  0  0
   37.2500   27.8790   41.0980 N   0  0  0  0  0  0  0  0  0  0  0  0
   38.8910   30.4940   45.6190 O   0  0  0  0  0  0  0  0  0  0  0  0
   39.4650   32.5070   47.1250 O   0  0  0  0  0  0  0  0  0  0  0  0
   38.3370   31.8510   46.4180 P   0  0  1  0  0  0  0  0  0  0  0  0
   37.7470   32.8790   45.1800 O   0  0  0  0  0  0  0  0  0  0  0  0
   37.0600   31.4140   47.4380 O   0  0  0  0  0  0  0  0  0  0  0  0
   37.6090   30.5270   50.9820 C   0  0  0  0  0  0  0  0  0  0  0  0
   37.7160   31.3080   49.8090 C   0  0  0  0  0  0  0  0  0  0  0  0
   37.0930   30.8500   48.6490 C   0  0  0  0  0  0  0  0  0  0  0  0
   36.4110   29.6590   48.7200 N   0  0  0  0  0  0  0  0  0  0  0  0
   36.3350   28.9500   49.8550 C   0  0  0  0  0  0  0  0  0  0  0  0
   36.9330   29.3830   50.9830 N   0  0  0  0  0  0  0  0  0  0  0  0
   41.3646   30.9581   44.3929 H   0  0  0  0  0  0  0  0  0  0  0  0
   41.7729   30.5847   42.0098 H   0  0  0  0  0  0  0  0  0  0  0  0
   39.9942   29.7662   40.5311 H   0  0  0  0  0  0  0  0  0  0  0  0
   36.7744   31.1064   40.6842 H   0  0  0  0  0  0  0  0  0  0  0  0
   34.9593   30.2926   39.2557 H   0  0  0  0  0  0  0  0  0  0  0  0
   34.5988   27.8164   38.9986 H   0  0  0  0  0  0  0  0  0  0  0  0
   36.1409   26.3012   40.2386 H   0  0  0  0  0  0  0  0  0  0  0  0
   37.2978   33.6617   45.5871 H   0  0  0  0  0  0  0  0  0  0  0  0
   38.0926   30.8713   51.9081 H   0  0  0  0  0  0  0  0  0  0  0  0
   38.2771   32.2541   49.8112 H   0  0  0  0  0  0  0  0  0  0  0  0
   35.7771   28.0020   49.8662 H   0  0  0  0  0  0  0  0  0  0  0  0
  2  1  1  0
  2  3  2  0
  3 14  1  0
  4  3  1  0
  5  4  2  0
  6  7  2  0
  6  5  1  0
  7  2  1  0
  8  7  1  0
  9  8  2  0
 10  9  1  0
 11 10  2  0
 11 12  1  0
 12 13  2  0
 13  8  1  0
 14 16  1  0
 16 15  2  0
 16 18  1  0
 17 16  1  0
 18 21  1  0
 19 24  2  0
 20 19  1  0
 21 22  1  0
 21 20  2  0
 22 23  2  0
 23 24  1  0
  4 25  1  0
  5 26  1  0
  6 27  1  0
  9 28  1  0
 10 29  1  0
 11 30  1  0
 12 31  1  0
 17 32  1  0
 19 33  1  0
 20 34  1  0
 23 35  1  0
M  ISO  8  25  14  26  14  27  14  28  14  29  14  30  14  31  14  32   3
M  ISO  3  33  14  34  14  35  14
M  END
>  <minimizedAffinity>  (1) 
-4.82843971

>  <minimizedRMSD>  (1) 
0.680777311

$$$$
