
     RDKit          3D

 47 51  0  0  0  0  0  0  0  0999 V2000
   37.9820   31.2750   47.7790 C   0  0  0  0  0  0  0  0  0  0  0  0
   37.0630   31.2960   48.8130 C   0  0  0  0  0  0  0  0  0  0  0  0
   37.1800   32.4040   49.6660 C   0  0  0  0  0  0  0  0  0  0  0  0
   38.1510   33.3880   49.4670 C   0  0  0  0  0  0  0  0  0  0  0  0
   39.0460   33.2770   48.3800 C   0  0  0  0  0  0  0  0  0  0  0  0
   38.9370   32.1790   47.5260 C   0  0  0  0  0  0  0  0  0  0  0  0
   34.9060   30.3000   48.2710 C   0  0  0  0  0  0  0  0  0  0  0  0
   36.0730   30.2940   49.0180 C   0  0  0  0  0  0  0  0  0  0  0  0
   36.2310   29.2690   49.9720 C   0  0  0  0  0  0  0  0  0  0  0  0
   35.2460   28.3530   50.1110 N   0  0  0  0  0  0  0  0  0  0  0  0
   34.1170   28.4010   49.3520 C   0  0  0  0  0  0  0  0  0  0  0  0
   33.9480   29.3690   48.4380 N   0  0  0  0  0  0  0  0  0  0  0  0
   37.4600   29.2120   50.8010 C   0  0  0  0  0  0  0  0  0  0  0  0
   37.9490   30.2100   46.8710 O   0  0  0  0  0  0  0  0  0  0  0  0
   39.8470   32.1340   46.4820 O   0  0  0  0  0  0  0  0  0  0  0  0
   40.2420   31.3350   44.1760 C   0  0  0  0  0  0  0  0  0  0  0  0
   39.5500   31.9930   45.1620 C   0  0  0  0  0  0  0  0  0  0  0  0
   38.3620   32.6300   44.8190 C   0  0  0  0  0  0  0  0  0  0  0  0
   37.8790   32.6010   43.4980 C   0  0  0  0  0  0  0  0  0  0  0  0
   36.8070   33.0960   42.8610 N   0  0  0  0  0  0  0  0  0  0  0  0
   36.8290   32.7680   41.5660 C   0  0  0  0  0  0  0  0  0  0  0  0
   37.9530   32.0420   41.3810 N   0  0  0  0  0  0  0  0  0  0  0  0
   38.6210   31.9220   42.5530 C   0  0  0  0  0  0  0  0  0  0  0  0
   39.7920   31.2910   42.8780 C   0  0  0  0  0  0  0  0  0  0  0  0
   40.5270   30.5920   41.8340 C   0  0  0  0  0  0  0  0  0  0  0  0
   41.0800   29.3430   41.9760 C   0  0  0  0  0  0  0  0  0  0  0  0
   41.7780   28.6740   40.9910 C   0  0  0  0  0  0  0  0  0  0  0  0
   41.9480   29.2790   39.7650 C   0  0  0  0  0  0  0  0  0  0  0  0
   41.3890   30.5320   39.6330 C   0  0  0  0  0  0  0  0  0  0  0  0
   40.7170   31.1460   40.6210 N   0  0  0  0  0  0  0  0  0  0  0  0
   36.4875   32.5003   50.5152 H   0  0  0  0  0  0  0  0  0  0  0  0
   38.2184   34.2450   50.1533 H   0  0  0  0  0  0  0  0  0  0  0  0
   39.8163   34.0436   48.2095 H   0  0  0  0  0  0  0  0  0  0  0  0
   34.7579   31.0891   47.5190 H   0  0  0  0  0  0  0  0  0  0  0  0
   33.3357   27.6390   49.4892 H   0  0  0  0  0  0  0  0  0  0  0  0
   37.1849   29.2248   51.8660 H   0  0  0  0  0  0  0  0  0  0  0  0
   38.0116   28.2873   50.5759 H   0  0  0  0  0  0  0  0  0  0  0  0
   38.0948   30.0817   50.5759 H   0  0  0  0  0  0  0  0  0  0  0  0
   38.5978   30.1761   46.1240 H   0  0  0  0  0  0  0  0  0  0  0  0
   41.1841   30.8282   44.4320 H   0  0  0  0  0  0  0  0  0  0  0  0
   37.7913   33.1647   45.5926 H   0  0  0  0  0  0  0  0  0  0  0  0
   36.0666   33.6539   43.3099 H   0  0  0  0  0  0  0  0  0  0  0  0
   36.0822   33.0353   40.8039 H   0  0  0  0  0  0  0  0  0  0  0  0
   40.9577   28.8387   42.9459 H   0  0  0  0  0  0  0  0  0  0  0  0
   42.1922   27.6730   41.1820 H   0  0  0  0  0  0  0  0  0  0  0  0
   42.4950   28.7930   38.9437 H   0  0  0  0  0  0  0  0  0  0  0  0
   41.4985   31.0549   38.6714 H   0  0  0  0  0  0  0  0  0  0  0  0
  1  2  2  0
  2  8  1  0
  2  3  1  0
  4  3  2  0
  5  4  1  0
  6  1  1  0
  6  5  2  0
  7 12  2  0
  7  8  1  0
  8  9  2  0
  9 10  1  0
  9 13  1  0
 11 10  2  0
 12 11  1  0
 14  1  1  0
 15  6  1  0
 16 17  2  0
 17 15  1  0
 18 17  1  0
 19 18  2  0
 20 19  1  0
 21 20  1  0
 22 21  2  0
 22 23  1  0
 23 24  2  0
 23 19  1  0
 24 16  1  0
 25 26  2  0
 25 24  1  0
 27 26  1  0
 28 27  2  0
 29 28  1  0
 29 30  2  0
 30 25  1  0
  3 31  1  0
  4 32  1  0
  5 33  1  0
  7 34  1  0
 11 35  1  0
 13 36  1  0
 13 37  1  0
 13 38  1  0
 14 39  1  0
 16 40  1  0
 18 41  1  0
 20 42  1  0
 21 43  1  0
 26 44  1  0
 27 45  1  0
 28 46  1  0
 29 47  1  0
M  ISO  8  31  14  32  14  33  14  34  14  35  14  36   8  37   8  38   8
M  ISO  8  39   3  40  14  41  14  42   9  43  14  44  14  45  14  46  14
M  ISO  1  47  14
M  END
>  <minimizedAffinity>  (1) 
-7.78209019

>  <minimizedRMSD>  (1) 
0.495433599

$$$$
