
     RDKit          3D

 35 37  0  0  1  0  0  0  0  0999 V2000
   35.4160   30.1210   49.9160 C   0  0  2  0  0  0  0  0  0  0  0  0
   36.2150   31.2110   49.2470 C   0  0  0  0  0  0  0  0  0  0  0  0
   37.6900   30.9690   49.3460 C   0  0  2  0  0  0  0  0  0  0  0  0
   38.1380   30.8120   50.7850 C   0  0  0  0  0  0  0  0  0  0  0  0
   37.2770   29.8720   51.5660 C   0  0  0  0  0  0  0  0  0  0  0  0
   36.2360   29.1710   50.7210 C   0  0  0  0  0  0  0  0  0  0  0  0
   34.6780   29.3240   48.8870 C   0  0  0  0  0  0  0  0  0  0  0  0
   34.2890   30.0130   47.7240 C   0  0  0  0  0  0  0  0  0  0  0  0
   33.5940   29.2860   46.7600 C   0  0  0  0  0  0  0  0  0  0  0  0
   33.3280   27.9510   46.9970 N   0  0  0  0  0  0  0  0  0  0  0  0
   33.7220   27.3290   48.1310 C   0  0  0  0  0  0  0  0  0  0  0  0
   34.3890   28.0140   49.0620 N   0  0  0  0  0  0  0  0  0  0  0  0
   38.4800   32.0310   48.7330 C   0  0  0  0  0  0  0  0  0  0  0  0
   38.7740   33.1880   49.4000 C   0  0  0  0  0  0  0  0  0  0  0  0
   39.5270   34.1940   48.8060 C   0  0  0  0  0  0  0  0  0  0  0  0
   39.9930   34.0340   47.5200 C   0  0  0  0  0  0  0  0  0  0  0  0
   39.6860   32.8600   46.8630 C   0  0  0  0  0  0  0  0  0  0  0  0
   38.9640   31.9350   47.4750 N   0  0  0  0  0  0  0  0  0  0  0  0
   34.7335   30.6412   50.6042 H   0  0  0  0  0  0  0  0  0  0  0  0
   35.9797   32.1709   49.7300 H   0  0  0  0  0  0  0  0  0  0  0  0
   35.9443   31.2242   48.1809 H   0  0  0  0  0  0  0  0  0  0  0  0
   37.8654   30.0335   48.7946 H   0  0  0  0  0  0  0  0  0  0  0  0
   39.1694   30.4298   50.7912 H   0  0  0  0  0  0  0  0  0  0  0  0
   38.0632   31.8002   51.2624 H   0  0  0  0  0  0  0  0  0  0  0  0
   37.9220   29.1103   52.0284 H   0  0  0  0  0  0  0  0  0  0  0  0
   36.7387   30.4703   52.3159 H   0  0  0  0  0  0  0  0  0  0  0  0
   35.5673   28.6035   51.3849 H   0  0  0  0  0  0  0  0  0  0  0  0
   36.7664   28.5111   50.0187 H   0  0  0  0  0  0  0  0  0  0  0  0
   34.5231   31.0784   47.5820 H   0  0  0  0  0  0  0  0  0  0  0  0
   33.2631   29.7660   45.8272 H   0  0  0  0  0  0  0  0  0  0  0  0
   33.4940   26.2640   48.2854 H   0  0  0  0  0  0  0  0  0  0  0  0
   38.4070   33.3254   50.4278 H   0  0  0  0  0  0  0  0  0  0  0  0
   39.7503   35.1164   49.3622 H   0  0  0  0  0  0  0  0  0  0  0  0
   40.5912   34.8175   47.0318 H   0  0  0  0  0  0  0  0  0  0  0  0
   40.0399   32.6937   45.8349 H   0  0  0  0  0  0  0  0  0  0  0  0
  1  6  1  0
  2  3  1  0
  2  1  1  0
  3  4  1  0
  4  5  1  0
  6  5  1  0
  7 12  1  0
  7  1  1  0
  8  7  2  0
  9 10  2  0
  9  8  1  0
 10 11  1  0
 11 12  2  0
 13  3  1  0
 13 14  2  0
 15 14  1  0
 16 15  2  0
 17 18  2  0
 17 16  1  0
 18 13  1  0
  1 19  1  1
  2 20  1  0
  2 21  1  0
  3 22  1  6
  4 23  1  0
  4 24  1  0
  5 25  1  0
  5 26  1  0
  6 27  1  0
  6 28  1  0
  8 29  1  0
  9 30  1  0
 11 31  1  0
 14 32  1  0
 15 33  1  0
 16 34  1  0
 17 35  1  0
M  ISO  8  19  13  20  13  21  13  22  13  23  13  24  13  25  13  26  13
M  ISO  8  27  13  28  13  29  14  30  14  31  14  32  14  33  14  34  14
M  ISO  1  35  14
M  END
>  <minimizedAffinity>  (1) 
-6.53898001

>  <minimizedRMSD>  (1) 
0.555941939

$$$$
