
     RDKit          3D

 29 31  0  0  0  0  0  0  0  0999 V2000
   37.3910   29.2180   50.8860 Br  0  0  0  0  0  0  0  0  0  0  0  0
   36.0050   29.2820   49.5680 C   0  0  0  0  0  0  0  0  0  0  0  0
   36.0040   30.2590   48.5860 C   0  0  0  0  0  0  0  0  0  0  0  0
   34.9640   30.2350   47.6710 C   0  0  0  0  0  0  0  0  0  0  0  0
   33.9560   29.3020   47.6980 C   0  0  0  0  0  0  0  0  0  0  0  0
   33.9880   28.3510   48.6850 C   0  0  0  0  0  0  0  0  0  0  0  0
   35.0110   28.3510   49.6080 C   0  0  0  0  0  0  0  0  0  0  0  0
   38.0030   33.1740   49.4510 C   0  0  0  0  0  0  0  0  0  0  0  0
   39.0260   33.2010   48.4790 C   0  0  0  0  0  0  0  0  0  0  0  0
   39.0070   32.1880   47.5190 C   0  0  0  0  0  0  0  0  0  0  0  0
   38.0220   31.2480   47.5730 N   0  0  0  0  0  0  0  0  0  0  0  0
   37.0570   31.2610   48.5280 C   0  0  0  0  0  0  0  0  0  0  0  0
   37.0490   32.2350   49.4750 N   0  0  0  0  0  0  0  0  0  0  0  0
   32.9240   29.3900   46.6780 C   0  0  0  0  0  0  0  0  0  0  0  0
   32.5940   30.5550   46.0160 C   0  0  0  0  0  0  0  0  0  0  0  0
   31.6070   30.6160   45.0480 C   0  0  0  0  0  0  0  0  0  0  0  0
   30.9370   29.4380   44.7520 C   0  0  0  0  0  0  0  0  0  0  0  0
   31.2710   28.2710   45.4180 C   0  0  0  0  0  0  0  0  0  0  0  0
   32.2450   28.2900   46.3500 N   0  0  0  0  0  0  0  0  0  0  0  0
   34.9444   31.0020   46.8828 H   0  0  0  0  0  0  0  0  0  0  0  0
   33.1973   27.5883   48.7400 H   0  0  0  0  0  0  0  0  0  0  0  0
   35.0255   27.5823   50.3947 H   0  0  0  0  0  0  0  0  0  0  0  0
   37.9889   33.9583   50.2221 H   0  0  0  0  0  0  0  0  0  0  0  0
   39.8004   33.9822   48.4781 H   0  0  0  0  0  0  0  0  0  0  0  0
   39.7744   32.1491   46.7319 H   0  0  0  0  0  0  0  0  0  0  0  0
   33.1397   31.4760   46.2690 H   0  0  0  0  0  0  0  0  0  0  0  0
   31.3641   31.5583   44.5352 H   0  0  0  0  0  0  0  0  0  0  0  0
   30.1430   29.4310   43.9907 H   0  0  0  0  0  0  0  0  0  0  0  0
   30.7443   27.3331   45.1879 H   0  0  0  0  0  0  0  0  0  0  0  0
  2  7  2  0
  2  1  1  0
  3  2  1  0
  4  5  1  0
  4  3  2  0
  5  6  2  0
  6  7  1  0
  8 13  2  0
  9  8  1  0
 10 11  1  0
 10  9  2  0
 11 12  2  0
 12  3  1  0
 12 13  1  0
 14  5  1  0
 15 14  2  0
 16 15  1  0
 17 16  2  0
 17 18  1  0
 18 19  2  0
 19 14  1  0
  4 20  1  0
  6 21  1  0
  7 22  1  0
  8 23  1  0
  9 24  1  0
 10 25  1  0
 15 26  1  0
 16 27  1  0
 17 28  1  0
 18 29  1  0
M  ISO  8  20  14  21  14  22  14  23  14  24  14  25  14  26  14  27  14
M  ISO  2  28  14  29  14
M  END
>  <minimizedAffinity>  (1) 
-5.91514778

>  <minimizedRMSD>  (1) 
0.275733352

$$$$
