
     RDKit          3D

 35 37  0  0  0  0  0  0  0  0999 V2000
   35.4700   30.3030   49.8770 C   0  0  0  0  0  0  0  0  0  0  0  0
   36.4610   31.1500   49.1040 C   0  0  0  0  0  0  0  0  0  0  0  0
   37.8800   30.6990   49.2890 C   0  0  0  0  0  0  0  0  0  0  0  0
   38.2630   30.6630   50.7530 C   0  0  0  0  0  0  0  0  0  0  0  0
   37.2440   29.9750   51.6070 C   0  0  0  0  0  0  0  0  0  0  0  0
   36.1280   29.3410   50.8060 C   0  0  0  0  0  0  0  0  0  0  0  0
   34.6550   29.4930   48.9190 C   0  0  0  0  0  0  0  0  0  0  0  0
   34.2230   30.1650   47.7520 C   0  0  0  0  0  0  0  0  0  0  0  0
   33.4560   29.4340   46.8450 C   0  0  0  0  0  0  0  0  0  0  0  0
   33.1570   28.1130   47.1180 N   0  0  0  0  0  0  0  0  0  0  0  0
   33.6020   27.5130   48.2650 C   0  0  0  0  0  0  0  0  0  0  0  0
   34.3340   28.1960   49.1390 N   0  0  0  0  0  0  0  0  0  0  0  0
   32.9660   30.0460   45.6140 C   0  0  0  0  0  0  0  0  0  0  0  0
   33.3190   29.4920   44.4020 C   0  0  0  0  0  0  0  0  0  0  0  0
   32.7920   30.1630   43.2960 C   0  0  0  0  0  0  0  0  0  0  0  0
   31.9910   31.2800   43.4130 C   0  0  0  0  0  0  0  0  0  0  0  0
   31.6780   31.7810   44.6620 C   0  0  0  0  0  0  0  0  0  0  0  0
   32.1840   31.1350   45.7280 N   0  0  0  0  0  0  0  0  0  0  0  0
   34.8568   31.0025   50.4641 H   0  0  0  0  0  0  0  0  0  0  0  0
   36.3757   32.1917   49.4470 H   0  0  0  0  0  0  0  0  0  0  0  0
   36.2187   31.0511   48.0356 H   0  0  0  0  0  0  0  0  0  0  0  0
   37.9929   29.6904   48.8649 H   0  0  0  0  0  0  0  0  0  0  0  0
   38.5397   31.4147   48.7766 H   0  0  0  0  0  0  0  0  0  0  0  0
   39.2205   30.1306   50.8519 H   0  0  0  0  0  0  0  0  0  0  0  0
   38.3346   31.7043   51.1003 H   0  0  0  0  0  0  0  0  0  0  0  0
   37.7479   29.1888   52.1883 H   0  0  0  0  0  0  0  0  0  0  0  0
   36.7894   30.7391   52.2546 H   0  0  0  0  0  0  0  0  0  0  0  0
   35.3716   28.9513   51.5032 H   0  0  0  0  0  0  0  0  0  0  0  0
   36.5700   28.5391   50.1964 H   0  0  0  0  0  0  0  0  0  0  0  0
   34.4807   31.2184   47.5677 H   0  0  0  0  0  0  0  0  0  0  0  0
   33.3525   26.4604   48.4643 H   0  0  0  0  0  0  0  0  0  0  0  0
   33.9584   28.6013   44.3138 H   0  0  0  0  0  0  0  0  0  0  0  0
   33.0255   29.7849   42.2897 H   0  0  0  0  0  0  0  0  0  0  0  0
   31.6008   31.7727   42.5103 H   0  0  0  0  0  0  0  0  0  0  0  0
   31.0418   32.6706   44.7798 H   0  0  0  0  0  0  0  0  0  0  0  0
  1  6  1  0
  2  3  1  0
  2  1  1  0
  3  4  1  0
  4  5  1  0
  6  5  1  0
  7 12  1  0
  7  1  1  0
  8  7  2  0
  9 10  2  0
  9  8  1  0
 10 11  1  0
 11 12  2  0
 13 18  1  0
 13  9  1  0
 14 13  2  0
 15 16  2  0
 15 14  1  0
 16 17  1  0
 17 18  2  0
  1 19  1  0
  2 20  1  0
  2 21  1  0
  3 22  1  0
  3 23  1  0
  4 24  1  0
  4 25  1  0
  5 26  1  0
  5 27  1  0
  6 28  1  0
  6 29  1  0
  8 30  1  0
 11 31  1  0
 14 32  1  0
 15 33  1  0
 16 34  1  0
 17 35  1  0
M  ISO  8  19  13  20  13  21  13  22  13  23  13  24  13  25  13  26  13
M  ISO  8  27  13  28  13  29  13  30  14  31  14  32  14  33  14  34  14
M  ISO  1  35  14
M  END
>  <minimizedAffinity>  (1) 
-5.32841158

>  <minimizedRMSD>  (1) 
0.320527226

$$$$
