
     RDKit          3D

 21 22  0  0  0  0  0  0  0  0999 V2000
   34.9230   28.7490   48.7060 C   0  0  0  0  0  0  0  0  0  0  0  0
   34.5840   27.8040   49.4630 O   0  0  0  0  0  0  0  0  0  0  0  0
   33.0550   30.6110   46.2000 C   0  0  0  0  0  0  0  0  0  0  0  0
   32.9170   29.6920   45.1550 C   0  0  0  0  0  0  0  0  0  0  0  0
   33.4710   28.4150   45.3110 C   0  0  0  0  0  0  0  0  0  0  0  0
   34.1090   28.1510   46.4690 N   0  0  0  0  0  0  0  0  0  0  0  0
   34.2310   29.0580   47.4680 C   0  0  0  0  0  0  0  0  0  0  0  0
   33.7030   30.2790   47.3240 N   0  0  0  0  0  0  0  0  0  0  0  0
   36.0700   29.5340   49.1500 C   0  0  0  0  0  0  0  0  0  0  0  0
   36.2930   29.7020   50.5010 C   0  0  0  0  0  0  0  0  0  0  0  0
   37.3580   30.4320   51.0400 C   0  0  0  0  0  0  0  0  0  0  0  0
   38.2300   31.0130   50.1300 C   0  0  0  0  0  0  0  0  0  0  0  0
   37.9940   30.8370   48.7770 C   0  0  0  0  0  0  0  0  0  0  0  0
   36.9500   30.1220   48.3060 N   0  0  0  0  0  0  0  0  0  0  0  0
   32.6261   31.6187   46.0975 H   0  0  0  0  0  0  0  0  0  0  0  0
   32.3855   29.9657   44.2316 H   0  0  0  0  0  0  0  0  0  0  0  0
   33.3887   27.6563   44.5188 H   0  0  0  0  0  0  0  0  0  0  0  0
   35.5869   29.2309   51.2007 H   0  0  0  0  0  0  0  0  0  0  0  0
   37.4966   30.5396   52.1259 H   0  0  0  0  0  0  0  0  0  0  0  0
   39.0919   31.6019   50.4768 H   0  0  0  0  0  0  0  0  0  0  0  0
   38.6853   31.2985   48.0565 H   0  0  0  0  0  0  0  0  0  0  0  0
  1  9  1  0
  1  2  2  0
  3  8  2  0
  4  5  2  0
  4  3  1  0
  5  6  1  0
  6  7  2  0
  7  1  1  0
  8  7  1  0
  9 10  2  0
 10 11  1  0
 12 11  2  0
 13 12  1  0
 14 13  2  0
 14  9  1  0
  3 15  1  0
  4 16  1  0
  5 17  1  0
 10 18  1  0
 11 19  1  0
 12 20  1  0
 13 21  1  0
M  ISO  7  15  14  16  14  17  14  18  14  19  14  20  14  21  14
M  END
>  <minimizedAffinity>  (1) 
-4.23397732

>  <minimizedRMSD>  (1) 
5.11046648

$$$$
