
     RDKit          3D

 49 52  0  0  1  0  0  0  0  0999 V2000
   37.1960   31.4930   47.6200 C   0  0  0  0  0  0  0  0  0  0  0  0
   37.8220   32.1950   48.6380 C   0  0  0  0  0  0  0  0  0  0  0  0
   38.9900   32.8470   48.3080 C   0  0  0  0  0  0  0  0  0  0  0  0
   39.4610   32.7730   47.0270 N   0  0  0  0  0  0  0  0  0  0  0  0
   38.8300   32.0760   46.0340 C   0  0  0  0  0  0  0  0  0  0  0  0
   37.6850   31.4360   46.3570 N   0  0  0  0  0  0  0  0  0  0  0  0
   39.3590   32.0310   44.7150 N   0  0  0  0  0  0  0  0  0  0  0  0
   35.8960   30.7820   47.9620 C   0  0  1  0  0  0  0  0  0  0  0  0
   35.2620   29.9170   47.0330 C   0  0  0  0  0  0  0  0  0  0  0  0
   36.0760   29.3100   48.1310 C   0  0  2  0  0  0  0  0  0  0  0  0
   36.0390   28.6330   50.5030 C   0  0  2  0  0  0  0  0  0  0  0  0
   35.3450   28.5780   49.2220 C   0  0  1  0  0  0  0  0  0  0  0  0
   34.0420   29.1750   49.4710 C   0  0  0  0  0  0  0  0  0  0  0  0
   34.1470   30.0340   50.5820 O   0  0  0  0  0  0  0  0  0  0  0  0
   34.8450   29.2480   51.4260 C   0  0  0  0  0  0  0  0  0  0  0  0
   36.9300   29.6870   50.5770 O   0  0  0  0  0  0  0  0  0  0  0  0
   37.4120   30.0420   51.7150 C   0  0  0  0  0  0  0  0  0  0  0  0
   39.4020   30.5810   43.8180 S   0  0  0  0  0  0  0  0  0  0  0  0
   38.2370   30.4320   42.8960 O   0  0  0  0  0  0  0  0  0  0  0  0
   39.3760   29.4290   44.7760 O   0  0  0  0  0  0  0  0  0  0  0  0
   40.8340   30.4490   42.9420 O   0  0  0  0  0  0  0  0  0  0  0  0
   40.8540   29.4640   41.9670 C   0  0  0  0  0  0  0  0  0  0  0  0
   41.6230   29.7380   40.8810 C   0  0  0  0  0  0  0  0  0  0  0  0
   41.7730   28.8870   39.8090 C   0  0  0  0  0  0  0  0  0  0  0  0
   41.0830   27.6890   39.8730 C   0  0  0  0  0  0  0  0  0  0  0  0
   40.3080   27.4060   40.9580 C   0  0  0  0  0  0  0  0  0  0  0  0
   40.1980   28.2700   41.9740 N   0  0  0  0  0  0  0  0  0  0  0  0
   37.4078   32.2298   49.6565 H   0  0  0  0  0  0  0  0  0  0  0  0
   39.5386   33.4219   49.0686 H   0  0  0  0  0  0  0  0  0  0  0  0
   39.7252   32.8952   44.2908 H   0  0  0  0  0  0  0  0  0  0  0  0
   35.4985   31.6304   48.5383 H   0  0  0  0  0  0  0  0  0  0  0  0
   34.1670   29.8128   47.0439 H   0  0  0  0  0  0  0  0  0  0  0  0
   35.2654   29.8315   45.9363 H   0  0  0  0  0  0  0  0  0  0  0  0
   36.9377   28.6324   48.2221 H   0  0  0  0  0  0  0  0  0  0  0  0
   36.5295   27.6745   50.7280 H   0  0  0  0  0  0  0  0  0  0  0  0
   35.2712   27.5410   48.8625 H   0  0  0  0  0  0  0  0  0  0  0  0
   33.7220   29.7481   48.5883 H   0  0  0  0  0  0  0  0  0  0  0  0
   33.3002   28.3882   49.6727 H   0  0  0  0  0  0  0  0  0  0  0  0
   34.2092   28.4452   51.8275 H   0  0  0  0  0  0  0  0  0  0  0  0
   35.2273   29.8000   52.2973 H   0  0  0  0  0  0  0  0  0  0  0  0
   36.8104   29.5989   52.5223 H   0  0  0  0  0  0  0  0  0  0  0  0
   38.4516   29.6922   51.7981 H   0  0  0  0  0  0  0  0  0  0  0  0
   37.3863   31.1386   51.7981 H   0  0  0  0  0  0  0  0  0  0  0  0
   37.4078   30.3260   43.4264 H   0  0  0  0  0  0  0  0  0  0  0  0
   39.3837   29.7719   45.7047 H   0  0  0  0  0  0  0  0  0  0  0  0
   42.1586   30.6985   40.8566 H   0  0  0  0  0  0  0  0  0  0  0  0
   42.4071   29.1454   38.9481 H   0  0  0  0  0  0  0  0  0  0  0  0
   41.1600   26.9652   39.0483 H   0  0  0  0  0  0  0  0  0  0  0  0
   39.7636   26.4510   40.9992 H   0  0  0  0  0  0  0  0  0  0  0  0
  1  8  1  0
  1  2  2  0
  3  2  1  0
  4  3  2  0
  5  6  2  0
  5  4  1  0
  6  1  1  0
  7  5  1  0
  8 10  1  0
  9  8  1  0
  9 10  1  0
 10 12  1  0
 11 16  1  0
 11 15  1  0
 12 13  1  0
 12 11  1  0
 13 14  1  0
 14 15  1  0
 16 17  1  0
 18  7  1  0
 18 20  1  0
 19 18  1  0
 21 18  1  0
 22 27  1  0
 22 21  1  0
 23 22  2  0
 24 25  2  0
 24 23  1  0
 25 26  1  0
 26 27  2  0
  2 28  1  0
  3 29  1  0
  7 30  1  0
  8 31  1  1
  9 32  1  0
  9 33  1  0
 10 34  1  6
 11 35  1  1
 12 36  1  6
 13 37  1  0
 13 38  1  0
 15 39  1  0
 15 40  1  0
 17 41  1  0
 17 42  1  0
 17 43  1  0
 19 44  1  0
 20 45  1  0
 23 46  1  0
 24 47  1  0
 25 48  1  0
 26 49  1  0
M  ISO  8  28  14  29  14  31  13  32  13  33  13  34  13  35  13  36  13
M  ISO  8  37  13  38  13  39  13  40  13  41   8  42   8  43   8  44   3
M  ISO  5  45   3  46  14  47  14  48  14  49  14
M  END
>  <minimizedAffinity>  (1) 
-5.45913744

>  <minimizedRMSD>  (1) 
2.44090199

$$$$
