
     RDKit          3D

 42 44  0  0  1  0  0  0  0  0999 V2000
   34.4790   29.5650   46.4720 C   0  0  0  0  0  0  0  0  0  0  0  0
   35.4290   30.3390   45.7760 C   0  0  0  0  0  0  0  0  0  0  0  0
   35.8190   29.8770   44.5180 C   0  0  0  0  0  0  0  0  0  0  0  0
   35.2810   28.7400   44.0410 N   0  0  0  0  0  0  0  0  0  0  0  0
   34.3750   28.0260   44.7390 C   0  0  0  0  0  0  0  0  0  0  0  0
   33.9800   28.4360   45.9390 N   0  0  0  0  0  0  0  0  0  0  0  0
   36.7570   30.5760   43.7660 N   0  0  0  0  0  0  0  0  0  0  0  0
   36.9520   32.0510   43.7770 C   0  0  0  0  0  0  0  0  0  0  0  0
   37.8410   32.4000   42.6450 C   0  0  0  0  0  0  0  0  0  0  0  0
   37.8060   31.2160   41.7960 C   0  0  0  0  0  0  0  0  0  0  0  0
   37.7280   30.1420   42.8140 C   0  0  2  0  0  0  0  0  0  0  0  0
   37.4000   28.8070   42.1390 C   0  0  0  0  0  0  0  0  0  0  0  0
   36.0870   28.8470   41.7240 F   0  0  0  0  0  0  0  0  0  0  0  0
   37.5290   27.7050   42.9300 F   0  0  0  0  0  0  0  0  0  0  0  0
   38.1710   28.7430   40.9990 F   0  0  0  0  0  0  0  0  0  0  0  0
   38.9650   29.9350   43.5130 C   0  0  2  0  0  0  0  0  0  0  0  0
   39.2890   30.8610   44.7620 C   0  0  0  0  0  0  0  0  0  0  0  0
   40.0390   32.0440   44.5690 C   0  0  0  0  0  0  0  0  0  0  0  0
   40.3230   32.9900   45.4940 C   0  0  0  0  0  0  0  0  0  0  0  0
   39.8060   32.7320   46.7410 C   0  0  0  0  0  0  0  0  0  0  0  0
   39.0730   31.5900   46.9550 C   0  0  0  0  0  0  0  0  0  0  0  0
   38.8190   30.6850   46.0100 N   0  0  0  0  0  0  0  0  0  0  0  0
   39.9070   30.2590   42.7430 O   0  0  0  0  0  0  0  0  0  0  0  0
   40.9960   29.7230   42.1710 C   0  0  0  0  0  0  0  0  0  0  0  0
   41.2010   30.1870   41.0480 O   0  0  0  0  0  0  0  0  0  0  0  0
   42.0910   28.8230   42.2570 N   0  0  0  0  0  0  0  0  0  0  0  0
   34.1404   29.8896   47.4670 H   0  0  0  0  0  0  0  0  0  0  0  0
   35.8436   31.2636   46.2040 H   0  0  0  0  0  0  0  0  0  0  0  0
   33.9613   27.1001   44.3129 H   0  0  0  0  0  0  0  0  0  0  0  0
   35.9824   32.5573   43.6608 H   0  0  0  0  0  0  0  0  0  0  0  0
   37.3995   32.3717   44.7293 H   0  0  0  0  0  0  0  0  0  0  0  0
   37.4610   33.2801   42.1055 H   0  0  0  0  0  0  0  0  0  0  0  0
   38.8594   32.6604   42.9692 H   0  0  0  0  0  0  0  0  0  0  0  0
   36.9235   31.2154   41.1394 H   0  0  0  0  0  0  0  0  0  0  0  0
   38.6582   31.1267   41.1062 H   0  0  0  0  0  0  0  0  0  0  0  0
   38.8688   28.8904   43.8440 H   0  0  0  0  0  0  0  0  0  0  0  0
   40.4347   32.2138   43.5568 H   0  0  0  0  0  0  0  0  0  0  0  0
   40.9165   33.8880   45.2674 H   0  0  0  0  0  0  0  0  0  0  0  0
   39.9788   33.4386   47.5662 H   0  0  0  0  0  0  0  0  0  0  0  0
   38.6728   31.4123   47.9641 H   0  0  0  0  0  0  0  0  0  0  0  0
   42.7509   28.7382   41.4708 H   0  0  0  0  0  0  0  0  0  0  0  0
   42.2253   28.2549   43.1056 H   0  0  0  0  0  0  0  0  0  0  0  0
  2  1  2  0
  3  2  1  0
  4  3  2  0
  4  5  1  0
  5  6  2  0
  6  1  1  0
  7  8  1  0
  7  3  1  0
  9  8  1  0
 10  9  1  0
 10 11  1  0
 11 12  1  6
 11 16  1  0
 11  7  1  0
 12 14  1  0
 13 12  1  0
 15 12  1  0
 16 17  1  0
 17 22  1  0
 18 17  2  0
 18 19  1  0
 19 20  2  0
 20 21  1  0
 22 21  2  0
 23 16  1  0
 24 26  1  0
 24 23  1  0
 25 24  2  0
  1 27  1  0
  2 28  1  0
  5 29  1  0
  8 30  1  0
  8 31  1  0
  9 32  1  0
  9 33  1  0
 10 34  1  0
 10 35  1  0
 16 36  1  1
 18 37  1  0
 19 38  1  0
 20 39  1  0
 21 40  1  0
 26 41  1  0
 26 42  1  0
M  ISO  8  27  14  28  14  29  14  30  13  31  13  32  13  33  13  34  13
M  ISO  6  35  13  36   8  37  14  38  14  39  14  40  14
M  END
>  <minimizedAffinity>  (1) 
-4.8243885

>  <minimizedRMSD>  (1) 
2.91051531

$$$$
