
     RDKit          3D

 36 39  0  0  0  0  0  0  0  0999 V2000
   32.6790   28.0850   48.1780 C   0  0  0  0  0  0  0  0  0  0  0  0
   32.2560   28.3980   46.8960 C   0  0  0  0  0  0  0  0  0  0  0  0
   30.9020   28.5760   46.7050 C   0  0  0  0  0  0  0  0  0  0  0  0
   29.9390   28.4690   47.6810 C   0  0  0  0  0  0  0  0  0  0  0  0
   30.3990   28.1590   48.9310 C   0  0  0  0  0  0  0  0  0  0  0  0
   31.7130   27.9760   49.1620 C   0  0  0  0  0  0  0  0  0  0  0  0
   29.2260   27.9990   50.2600 S   0  0  0  0  0  0  0  0  0  0  0  0
   27.6350   28.3160   49.5210 C   0  0  0  0  0  0  0  0  0  0  0  0
   26.5690   28.2430   50.3830 C   0  0  0  0  0  0  0  0  0  0  0  0
   25.2960   28.4740   49.9040 C   0  0  0  0  0  0  0  0  0  0  0  0
   25.1210   28.7730   48.5680 C   0  0  0  0  0  0  0  0  0  0  0  0
   26.2490   28.8250   47.7740 C   0  0  0  0  0  0  0  0  0  0  0  0
   27.5460   28.6040   48.1920 C   0  0  0  0  0  0  0  0  0  0  0  0
   28.6140   28.6830   47.3000 N   0  0  0  0  0  0  0  0  0  0  0  0
   34.3830   27.8200   48.6140 S   0  0  0  0  0  0  0  0  0  0  0  0
   34.9870   29.1010   49.7790 C   0  0  0  0  0  0  0  0  0  0  0  0
   36.7780   28.9930   50.0020 S   0  0  0  0  0  0  0  0  0  0  0  0
   37.5240   30.3820   49.1660 C   0  0  0  0  0  0  0  0  0  0  0  0
   37.9410   31.4130   49.9960 C   0  0  0  0  0  0  0  0  0  0  0  0
   38.5300   32.5270   49.4090 C   0  0  0  0  0  0  0  0  0  0  0  0
   38.6790   32.5680   48.0430 N   0  0  0  0  0  0  0  0  0  0  0  0
   38.2450   31.5200   47.2970 C   0  0  0  0  0  0  0  0  0  0  0  0
   37.6860   30.4610   47.8420 N   0  0  0  0  0  0  0  0  0  0  0  0
   32.9703   28.5002   46.0657 H   0  0  0  0  0  0  0  0  0  0  0  0
   30.5642   28.8241   45.6880 H   0  0  0  0  0  0  0  0  0  0  0  0
   32.0342   27.7274   50.1843 H   0  0  0  0  0  0  0  0  0  0  0  0
   26.7282   28.0028   51.4446 H   0  0  0  0  0  0  0  0  0  0  0  0
   24.4297   28.4204   50.5797 H   0  0  0  0  0  0  0  0  0  0  0  0
   24.1206   28.9627   48.1517 H   0  0  0  0  0  0  0  0  0  0  0  0
   26.1008   29.0645   46.7107 H   0  0  0  0  0  0  0  0  0  0  0  0
   28.4161   28.9096   46.3149 H   0  0  0  0  0  0  0  0  0  0  0  0
   34.7346   30.0950   49.3811 H   0  0  0  0  0  0  0  0  0  0  0  0
   34.5050   28.9387   50.7544 H   0  0  0  0  0  0  0  0  0  0  0  0
   37.8094   31.3506   51.0863 H   0  0  0  0  0  0  0  0  0  0  0  0
   38.8732   33.3668   50.0310 H   0  0  0  0  0  0  0  0  0  0  0  0
   38.3643   31.5574   46.2041 H   0  0  0  0  0  0  0  0  0  0  0  0
  1 15  1  0
  1  6  1  0
  2  1  2  0
  3  2  1  0
  3  4  2  0
  4  5  1  0
  5  6  2  0
  5  7  1  0
  8  7  1  0
  8  9  2  0
 10  9  1  0
 11 10  2  0
 12 13  2  0
 12 11  1  0
 13  8  1  0
 14  4  1  0
 14 13  1  0
 15 16  1  0
 16 17  1  0
 18 19  2  0
 18 17  1  0
 20 19  1  0
 21 20  2  0
 22 23  2  0
 22 21  1  0
 23 18  1  0
  2 24  1  0
  3 25  1  0
  6 26  1  0
  9 27  1  0
 10 28  1  0
 11 29  1  0
 12 30  1  0
 14 31  1  0
 16 32  1  0
 16 33  1  0
 19 34  1  0
 20 35  1  0
 22 36  1  0
M  ISO  8  24  14  25  14  26  14  27  14  28  14  29  14  30  14  32   8
M  ISO  4  33   8  34  14  35  14  36  14
M  END
>  <minimizedAffinity>  (1) 
-5.69203568

>  <minimizedRMSD>  (1) 
2.1723237

$$$$
