
     RDKit          3D

 38 42  0  0  0  0  0  0  0  0999 V2000
   32.1670   28.7630   46.1280 C   0  0  0  0  0  0  0  0  0  0  0  0
   32.9150   29.5660   45.2930 C   0  0  0  0  0  0  0  0  0  0  0  0
   34.0750   30.1060   45.8070 C   0  0  0  0  0  0  0  0  0  0  0  0
   34.5660   29.9210   47.0810 C   0  0  0  0  0  0  0  0  0  0  0  0
   33.7610   29.1100   47.8440 C   0  0  0  0  0  0  0  0  0  0  0  0
   32.5940   28.5330   47.4140 C   0  0  0  0  0  0  0  0  0  0  0  0
   34.2410   28.7600   49.5250 S   0  0  0  0  0  0  0  0  0  0  0  0
   35.7650   29.6240   49.8030 C   0  0  0  0  0  0  0  0  0  0  0  0
   36.3950   29.5620   50.9940 C   0  0  0  0  0  0  0  0  0  0  0  0
   37.5970   30.2110   51.2950 C   0  0  0  0  0  0  0  0  0  0  0  0
   38.1190   30.9530   50.2490 C   0  0  0  0  0  0  0  0  0  0  0  0
   37.4680   31.0110   49.0340 C   0  0  0  0  0  0  0  0  0  0  0  0
   36.2830   30.3570   48.7730 C   0  0  0  0  0  0  0  0  0  0  0  0
   35.7690   30.5370   47.4710 N   0  0  0  0  0  0  0  0  0  0  0  0
   28.9420   28.0060   44.8190 C   0  0  0  0  0  0  0  0  0  0  0  0
   29.4310   26.7390   45.1040 C   0  0  0  0  0  0  0  0  0  0  0  0
   30.6900   26.8510   45.6270 C   0  0  0  0  0  0  0  0  0  0  0  0
   30.9600   28.1770   45.6560 N   0  0  0  0  0  0  0  0  0  0  0  0
   29.9120   28.8370   45.1740 N   0  0  0  0  0  0  0  0  0  0  0  0
   26.2400   29.7510   43.0580 C   0  0  0  0  0  0  0  0  0  0  0  0
   25.1590   28.8480   43.2040 C   0  0  0  0  0  0  0  0  0  0  0  0
   25.3840   27.6630   43.9030 C   0  0  0  0  0  0  0  0  0  0  0  0
   26.6230   27.4310   44.4080 N   0  0  0  0  0  0  0  0  0  0  0  0
   27.6360   28.3190   44.2490 C   0  0  0  0  0  0  0  0  0  0  0  0
   27.4460   29.4700   43.5790 N   0  0  0  0  0  0  0  0  0  0  0  0
   32.5991   29.7676   44.2588 H   0  0  0  0  0  0  0  0  0  0  0  0
   34.6654   30.7463   45.1351 H   0  0  0  0  0  0  0  0  0  0  0  0
   32.0068   27.8939   48.0898 H   0  0  0  0  0  0  0  0  0  0  0  0
   35.9297   28.9571   51.7862 H   0  0  0  0  0  0  0  0  0  0  0  0
   38.0854   30.1382   52.2779 H   0  0  0  0  0  0  0  0  0  0  0  0
   39.0622   31.5017   50.3881 H   0  0  0  0  0  0  0  0  0  0  0  0
   37.9189   31.6115   48.2302 H   0  0  0  0  0  0  0  0  0  0  0  0
   36.2806   31.1262   46.7986 H   0  0  0  0  0  0  0  0  0  0  0  0
   28.8920   25.7949   44.9361 H   0  0  0  0  0  0  0  0  0  0  0  0
   31.3472   26.0326   45.9560 H   0  0  0  0  0  0  0  0  0  0  0  0
   26.0905   30.6938   42.5114 H   0  0  0  0  0  0  0  0  0  0  0  0
   24.1705   29.0750   42.7782 H   0  0  0  0  0  0  0  0  0  0  0  0
   24.5747   26.9311   44.0426 H   0  0  0  0  0  0  0  0  0  0  0  0
  1  6  2  0
  2  3  2  0
  2  1  1  0
  3  4  1  0
  4 14  1  0
  4  5  2  0
  5  7  1  0
  6  5  1  0
  7  8  1  0
  8  9  2  0
  9 10  1  0
 11 10  2  0
 12 11  1  0
 13 12  2  0
 13  8  1  0
 14 13  1  0
 15 16  1  0
 15 19  2  0
 16 17  2  0
 17 18  1  0
 18  1  1  0
 19 18  1  0
 20 21  2  0
 20 25  1  0
 21 22  1  0
 22 23  2  0
 24 23  1  0
 24 15  1  0
 25 24  2  0
  2 26  1  0
  3 27  1  0
  6 28  1  0
  9 29  1  0
 10 30  1  0
 11 31  1  0
 12 32  1  0
 14 33  1  0
 16 34  1  0
 17 35  1  0
 20 36  1  0
 21 37  1  0
 22 38  1  0
M  ISO  8  26  14  27  14  28  14  29  14  30  14  31  14  32  14  34  14
M  ISO  4  35  14  36  14  37  14  38  14
M  END
>  <minimizedAffinity>  (1) 
-6.0308423

>  <minimizedRMSD>  (1) 
9.52030087

$$$$
