
     RDKit          3D

 54 60  0  0  0  0  0  0  0  0999 V2000
   37.3300   30.9310   50.4200 C   0  0  0  0  0  0  0  0  0  0  0  0
   38.2420   31.3920   49.4520 C   0  0  0  0  0  0  0  0  0  0  0  0
   37.9430   31.1120   48.1040 C   0  0  0  0  0  0  0  0  0  0  0  0
   36.8250   30.4340   47.8270 N   0  0  0  0  0  0  0  0  0  0  0  0
   35.9660   30.0040   48.7880 C   0  0  0  0  0  0  0  0  0  0  0  0
   36.2260   30.2560   50.0570 N   0  0  0  0  0  0  0  0  0  0  0  0
   34.7670   29.2710   48.4000 C   0  0  0  0  0  0  0  0  0  0  0  0
   34.4390   28.0570   48.9690 C   0  0  0  0  0  0  0  0  0  0  0  0
   33.2760   27.4510   48.5230 C   0  0  0  0  0  0  0  0  0  0  0  0
   32.4170   27.9420   47.5640 C   0  0  0  0  0  0  0  0  0  0  0  0
   32.8040   29.1510   47.0400 C   0  0  0  0  0  0  0  0  0  0  0  0
   33.9260   29.7890   47.4360 C   0  0  0  0  0  0  0  0  0  0  0  0
   31.7780   29.9010   45.7870 S   0  0  0  0  0  0  0  0  0  0  0  0
   30.4150   28.7790   45.5380 C   0  0  0  0  0  0  0  0  0  0  0  0
   29.4760   29.1200   44.6200 C   0  0  0  0  0  0  0  0  0  0  0  0
   28.3860   28.3130   44.3620 C   0  0  0  0  0  0  0  0  0  0  0  0
   28.2850   27.1360   45.0750 C   0  0  0  0  0  0  0  0  0  0  0  0
   29.2700   26.8380   45.9950 C   0  0  0  0  0  0  0  0  0  0  0  0
   30.3670   27.6260   46.2720 C   0  0  0  0  0  0  0  0  0  0  0  0
   31.2840   27.1980   47.2320 N   0  0  0  0  0  0  0  0  0  0  0  0
   38.8100   31.5360   47.0120 C   0  0  0  0  0  0  0  0  0  0  0  0
   39.4710   32.7370   46.9780 C   0  0  0  0  0  0  0  0  0  0  0  0
   40.2860   33.1190   45.9390 C   0  0  0  0  0  0  0  0  0  0  0  0
   40.4690   32.2910   44.8730 C   0  0  0  0  0  0  0  0  0  0  0  0
   39.7950   31.0880   44.9280 C   0  0  0  0  0  0  0  0  0  0  0  0
   39.0150   30.7330   45.9360 N   0  0  0  0  0  0  0  0  0  0  0  0
   39.1550   29.0340   43.6240 C   0  0  0  0  0  0  0  0  0  0  0  0
   39.9370   30.1410   43.8270 C   0  0  0  0  0  0  0  0  0  0  0  0
   40.9280   30.3050   42.8560 C   0  0  0  0  0  0  0  0  0  0  0  0
   41.1300   29.4540   41.7820 C   0  0  0  0  0  0  0  0  0  0  0  0
   42.0100   29.4480   40.7690 N   0  0  0  0  0  0  0  0  0  0  0  0
   41.7310   28.3610   40.0100 C   0  0  0  0  0  0  0  0  0  0  0  0
   40.6700   27.6630   40.5330 C   0  0  0  0  0  0  0  0  0  0  0  0
   40.3010   28.3710   41.6550 C   0  0  0  0  0  0  0  0  0  0  0  0
   39.3100   28.1580   42.5780 C   0  0  0  0  0  0  0  0  0  0  0  0
   37.5230   31.1254   51.4853 H   0  0  0  0  0  0  0  0  0  0  0  0
   39.1486   31.9467   49.7356 H   0  0  0  0  0  0  0  0  0  0  0  0
   35.0713   27.5927   49.7402 H   0  0  0  0  0  0  0  0  0  0  0  0
   33.0129   26.4848   48.9782 H   0  0  0  0  0  0  0  0  0  0  0  0
   34.1786   30.7550   46.9744 H   0  0  0  0  0  0  0  0  0  0  0  0
   29.5861   30.0643   44.0667 H   0  0  0  0  0  0  0  0  0  0  0  0
   27.6279   28.5971   43.6173 H   0  0  0  0  0  0  0  0  0  0  0  0
   27.4393   26.4512   44.9140 H   0  0  0  0  0  0  0  0  0  0  0  0
   29.1717   25.8949   46.5526 H   0  0  0  0  0  0  0  0  0  0  0  0
   31.1192   26.3019   47.7124 H   0  0  0  0  0  0  0  0  0  0  0  0
   39.3428   33.4287   47.8237 H   0  0  0  0  0  0  0  0  0  0  0  0
   40.7915   34.0955   45.9685 H   0  0  0  0  0  0  0  0  0  0  0  0
   41.1123   32.5636   44.0234 H   0  0  0  0  0  0  0  0  0  0  0  0
   38.3501   28.8340   44.3466 H   0  0  0  0  0  0  0  0  0  0  0  0
   41.5966   31.1733   42.9514 H   0  0  0  0  0  0  0  0  0  0  0  0
   42.7556   30.1383   40.6005 H   0  0  0  0  0  0  0  0  0  0  0  0
   42.2791   28.0765   39.0997 H   0  0  0  0  0  0  0  0  0  0  0  0
   40.2150   26.7411   40.1417 H   0  0  0  0  0  0  0  0  0  0  0  0
   38.6421   27.2894   42.4811 H   0  0  0  0  0  0  0  0  0  0  0  0
  2  1  2  0
  3  2  1  0
  4  3  2  0
  4  5  1  0
  5  6  2  0
  6  1  1  0
  7  5  1  0
  7  8  2  0
  9  8  1  0
 10  9  2  0
 11 12  2  0
 11 10  1  0
 12  7  1  0
 13 11  1  0
 14 13  1  0
 14 19  2  0
 15 14  1  0
 16 15  2  0
 16 17  1  0
 17 18  2  0
 18 19  1  0
 19 20  1  0
 20 10  1  0
 21  3  1  0
 22 21  2  0
 23 22  1  0
 24 25  1  0
 24 23  2  0
 25 26  2  0
 26 21  1  0
 27 28  2  0
 28 25  1  0
 29 28  1  0
 30 29  2  0
 31 30  1  0
 32 33  2  0
 32 31  1  0
 33 34  1  0
 34 30  1  0
 34 35  2  0
 35 27  1  0
  1 36  1  0
  2 37  1  0
  8 38  1  0
  9 39  1  0
 12 40  1  0
 15 41  1  0
 16 42  1  0
 17 43  1  0
 18 44  1  0
 20 45  1  0
 22 46  1  0
 23 47  1  0
 24 48  1  0
 27 49  1  0
 29 50  1  0
 31 51  1  0
 32 52  1  0
 33 53  1  0
 35 54  1  0
M  ISO  8  36  14  37  14  38  14  39  14  40  14  41  14  42  14  43  14
M  ISO  8  44  14  46  14  47  14  48  14  49  14  50  14  51   9  52  14
M  ISO  2  53  14  54  14
M  END
>  <minimizedAffinity>  (1) 
-8.56560421

>  <minimizedRMSD>  (1) 
1.39618039

$$$$
