
     RDKit          3D

 41 43  0  0  1  0  0  0  0  0999 V2000
   37.0600   30.9530   49.0580 C   0  0  0  0  0  0  0  0  0  0  0  0
   36.7970   31.8710   50.0800 C   0  0  0  0  0  0  0  0  0  0  0  0
   37.3990   33.1230   50.1280 C   0  0  0  0  0  0  0  0  0  0  0  0
   38.2990   33.4860   49.1260 C   0  0  0  0  0  0  0  0  0  0  0  0
   38.5460   32.5810   48.1360 C   0  0  0  0  0  0  0  0  0  0  0  0
   37.9350   31.3440   48.1100 C   0  0  0  0  0  0  0  0  0  0  0  0
   36.3810   29.6740   49.0970 C   0  0  0  0  0  0  0  0  0  0  0  0
   36.9280   28.8040   49.8790 O   0  0  0  0  0  0  0  0  0  0  0  0
   33.6170   30.1650   46.8070 C   0  0  0  0  0  0  0  0  0  0  0  0
   32.9390   28.9570   46.8210 C   0  0  0  0  0  0  0  0  0  0  0  0
   33.4380   27.9450   47.6350 C   0  0  0  0  0  0  0  0  0  0  0  0
   34.5540   28.1630   48.3810 N   0  0  0  0  0  0  0  0  0  0  0  0
   35.1780   29.3350   48.3430 C   0  0  0  0  0  0  0  0  0  0  0  0
   34.6970   30.3240   47.5510 N   0  0  0  0  0  0  0  0  0  0  0  0
   38.3040   30.5000   46.9980 C   0  0  0  0  0  0  0  0  0  0  0  0
   38.9900   30.8440   45.9290 C   0  0  0  0  0  0  0  0  0  0  0  0
   39.4430   30.1030   44.7420 C   0  0  0  0  0  0  0  0  0  0  0  0
   41.2260   29.4900   42.3940 Cl  0  0  0  0  0  0  0  0  0  0  0  0
   40.0300   30.7910   42.3760 C   0  0  0  0  0  0  0  0  0  0  0  0
   39.2950   30.9420   43.5300 C   0  0  0  0  0  0  0  0  0  0  0  0
   38.3490   31.9730   43.5150 C   0  0  0  0  0  0  0  0  0  0  0  0
   38.2040   32.7590   42.3910 C   0  0  0  0  0  0  0  0  0  0  0  0
   38.9660   32.5620   41.2690 C   0  0  0  0  0  0  0  0  0  0  0  0
   39.9200   31.5510   41.2310 C   0  0  0  0  0  0  0  0  0  0  0  0
   36.0886   31.5923   50.8740 H   0  0  0  0  0  0  0  0  0  0  0  0
   37.1682   33.8199   50.9472 H   0  0  0  0  0  0  0  0  0  0  0  0
   38.7928   34.4689   49.1340 H   0  0  0  0  0  0  0  0  0  0  0  0
   39.2526   32.8447   47.3353 H   0  0  0  0  0  0  0  0  0  0  0  0
   37.0047   29.3175   48.2640 H   0  0  0  0  0  0  0  0  0  0  0  0
   36.7669   29.0602   50.8216 H   0  0  0  0  0  0  0  0  0  0  0  0
   33.2563   30.9913   46.1768 H   0  0  0  0  0  0  0  0  0  0  0  0
   32.0375   28.8033   46.2098 H   0  0  0  0  0  0  0  0  0  0  0  0
   32.9305   26.9699   47.6751 H   0  0  0  0  0  0  0  0  0  0  0  0
   37.9747   29.4518   47.0504 H   0  0  0  0  0  0  0  0  0  0  0  0
   39.2854   31.9036   45.9217 H   0  0  0  0  0  0  0  0  0  0  0  0
   40.5007   29.8277   44.8668 H   0  0  0  0  0  0  0  0  0  0  0  0
   38.8307   29.1962   44.6287 H   0  0  0  0  0  0  0  0  0  0  0  0
   37.7212   32.1565   44.3994 H   0  0  0  0  0  0  0  0  0  0  0  0
   37.4564   33.5659   42.3952 H   0  0  0  0  0  0  0  0  0  0  0  0
   38.8217   33.2090   40.3912 H   0  0  0  0  0  0  0  0  0  0  0  0
   40.5462   31.3694   40.3450 H   0  0  0  0  0  0  0  0  0  0  0  0
  1  7  1  0
  1  2  2  0
  2  3  1  0
  4  3  2  0
  5  4  1  0
  6  5  2  0
  6  1  1  0
  7  8  1  0
  9 10  2  0
  9 14  1  0
 10 11  1  0
 11 12  2  0
 13 12  1  0
 13  7  1  0
 14 13  2  0
 15  6  1  0
 16 15  2  0
 17 16  1  0
 19 18  1  0
 19 20  2  0
 20 17  1  0
 21 20  1  0
 22 21  2  0
 23 22  1  0
 24 23  2  0
 24 19  1  0
  2 25  1  0
  3 26  1  0
  4 27  1  0
  5 28  1  0
  7 29  1  0
  8 30  1  0
  9 31  1  0
 10 32  1  0
 11 33  1  0
 15 34  1  0
 16 35  1  0
 17 36  1  0
 17 37  1  0
 21 38  1  0
 22 39  1  0
 23 40  1  0
 24 41  1  0
M  ISO  8  25  14  26  14  27  14  28  14  29   8  30   3  31  14  32  14
M  ISO  7  33  14  36   8  37   8  38  14  39  14  40  14  41  14
M  END
>  <minimizedAffinity>  (1) 
-6.19559336

>  <minimizedRMSD>  (1) 
0.97150445

$$$$
