
     RDKit          3D

 34 36  0  0  1  0  0  0  0  0999 V2000
   32.1770   28.5310   47.3950 C   0  0  2  0  0  0  0  0  0  0  0  0
   33.4120   28.3670   48.2510 C   0  0  1  0  0  0  0  0  0  0  0  0
   33.8160   27.0590   48.1500 O   0  0  0  0  0  0  0  0  0  0  0  0
   33.0850   26.4230   47.1730 C   0  0  0  0  0  0  0  0  0  0  0  0
   32.5030   27.5370   46.2870 C   0  0  1  0  0  0  0  0  0  0  0  0
   32.0880   29.8330   46.8960 O   0  0  0  0  0  0  0  0  0  0  0  0
   34.7210   29.4030   47.4970 S   0  0  0  0  0  0  0  0  0  0  0  0
   37.1380   29.2980   50.6350 C   0  0  0  0  0  0  0  0  0  0  0  0
   37.6370   30.5890   50.7600 C   0  0  0  0  0  0  0  0  0  0  0  0
   37.2080   31.5380   49.8320 C   0  0  0  0  0  0  0  0  0  0  0  0
   36.3330   31.1530   48.8630 N   0  0  0  0  0  0  0  0  0  0  0  0
   35.8720   29.8880   48.7780 C   0  0  0  0  0  0  0  0  0  0  0  0
   36.2690   28.9470   49.6600 N   0  0  0  0  0  0  0  0  0  0  0  0
   31.3790   27.0890   45.6380 O   0  0  0  0  0  0  0  0  0  0  0  0
   29.8660   29.1270   44.2170 Cl  0  0  0  0  0  0  0  0  0  0  0  0
   29.3400   28.0980   45.5500 C   0  0  0  0  0  0  0  0  0  0  0  0
   30.1280   27.1340   46.1880 C   0  0  0  0  0  0  0  0  0  0  0  0
   29.5610   26.4160   47.2120 C   0  0  0  0  0  0  0  0  0  0  0  0
   28.2600   26.6530   47.5840 C   0  0  0  0  0  0  0  0  0  0  0  0
   27.4620   27.5930   46.9780 C   0  0  0  0  0  0  0  0  0  0  0  0
   28.0170   28.3320   45.9370 C   0  0  0  0  0  0  0  0  0  0  0  0
   31.2189   28.3616   47.9081 H   0  0  0  0  0  0  0  0  0  0  0  0
   33.2209   28.6446   49.2981 H   0  0  0  0  0  0  0  0  0  0  0  0
   33.7337   25.7621   46.5794 H   0  0  0  0  0  0  0  0  0  0  0  0
   32.2914   25.7969   47.6067 H   0  0  0  0  0  0  0  0  0  0  0  0
   33.1398   27.9249   45.4783 H   0  0  0  0  0  0  0  0  0  0  0  0
   32.0442   30.4731   47.6500 H   0  0  0  0  0  0  0  0  0  0  0  0
   37.4619   28.5330   51.3560 H   0  0  0  0  0  0  0  0  0  0  0  0
   38.3437   30.8526   51.5607 H   0  0  0  0  0  0  0  0  0  0  0  0
   37.5693   32.5758   49.8822 H   0  0  0  0  0  0  0  0  0  0  0  0
   30.1502   25.6489   47.7359 H   0  0  0  0  0  0  0  0  0  0  0  0
   27.8360   26.0606   48.4082 H   0  0  0  0  0  0  0  0  0  0  0  0
   26.4238   27.7555   47.3031 H   0  0  0  0  0  0  0  0  0  0  0  0
   27.4174   29.0965   45.4212 H   0  0  0  0  0  0  0  0  0  0  0  0
  1  2  1  0
  3  2  1  0
  4  3  1  0
  5  4  1  0
  5  1  1  0
  6  1  1  0
  7  2  1  0
  7 12  1  0
  8  9  2  0
 10  9  1  0
 11 10  2  0
 12 11  1  0
 12 13  2  0
 13  8  1  0
 14 17  1  0
 14  5  1  0
 15 16  1  0
 16 21  2  0
 16 17  1  0
 17 18  2  0
 18 19  1  0
 20 19  2  0
 21 20  1  0
  1 22  1  1
  2 23  1  1
  4 24  1  0
  4 25  1  0
  5 26  1  6
  6 27  1  0
  8 28  1  0
  9 29  1  0
 10 30  1  0
 18 31  1  0
 19 32  1  0
 20 33  1  0
 21 34  1  0
M  ISO  8  22  13  23  13  24  13  25  13  26  13  27   3  28  14  29  14
M  ISO  5  30  14  31  14  32  14  33  14  34  14
M  END
>  <minimizedAffinity>  (1) 
-4.50383997

>  <minimizedRMSD>  (1) 
2.90886259

$$$$
