
     RDKit          3D

 48 51  0  0  0  0  0  0  0  0999 V2000
   34.3120   28.5820   48.3780 C   0  0  0  0  0  0  0  0  0  0  0  0
   33.4690   27.3420   48.3080 C   0  0  0  0  0  0  0  0  0  0  0  0
   32.0480   27.6350   47.9420 C   0  0  0  0  0  0  0  0  0  0  0  0
   31.1090   27.6180   48.9820 C   0  0  0  0  0  0  0  0  0  0  0  0
   29.7780   27.8780   48.7320 C   0  0  0  0  0  0  0  0  0  0  0  0
   29.3830   28.1490   47.4970 N   0  0  0  0  0  0  0  0  0  0  0  0
   30.3180   28.1600   46.4990 C   0  0  0  0  0  0  0  0  0  0  0  0
   31.6130   27.9130   46.7040 N   0  0  0  0  0  0  0  0  0  0  0  0
   29.8170   28.4690   45.1310 C   0  0  0  0  0  0  0  0  0  0  0  0
   27.1500   29.9430   45.3100 Cl  0  0  0  0  0  0  0  0  0  0  0  0
   28.6690   30.6490   44.8740 C   0  0  0  0  0  0  0  0  0  0  0  0
   29.8330   29.9110   44.8140 C   0  0  0  0  0  0  0  0  0  0  0  0
   31.0710   30.4630   44.4640 C   0  0  0  0  0  0  0  0  0  0  0  0
   31.1310   31.8270   44.1590 C   0  0  0  0  0  0  0  0  0  0  0  0
   29.9790   32.6110   44.2060 C   0  0  0  0  0  0  0  0  0  0  0  0
   28.8140   31.9700   44.5630 C   0  0  0  0  0  0  0  0  0  0  0  0
   34.3800   29.0780   49.7110 O   0  0  0  0  0  0  0  0  0  0  0  0
   37.2640   29.9570   51.7130 C   0  0  0  0  0  0  0  0  0  0  0  0
   38.0430   30.6070   50.7320 C   0  0  0  0  0  0  0  0  0  0  0  0
   37.5380   30.7050   49.4510 C   0  0  0  0  0  0  0  0  0  0  0  0
   36.3000   30.1480   49.2550 N   0  0  0  0  0  0  0  0  0  0  0  0
   35.5680   29.5360   50.1810 C   0  0  0  0  0  0  0  0  0  0  0  0
   36.0730   29.4470   51.4320 N   0  0  0  0  0  0  0  0  0  0  0  0
   38.8830   33.2610   49.3630 F   0  0  0  0  0  0  0  0  0  0  0  0
   38.8270   32.5170   48.2680 C   0  0  0  0  0  0  0  0  0  0  0  0
   38.2000   31.3350   48.3280 C   0  0  0  0  0  0  0  0  0  0  0  0
   38.1960   30.6280   47.1220 C   0  0  0  0  0  0  0  0  0  0  0  0
   38.7830   31.1040   45.9810 C   0  0  0  0  0  0  0  0  0  0  0  0
   39.4160   32.3290   45.9750 C   0  0  0  0  0  0  0  0  0  0  0  0
   39.4300   33.0330   47.1440 C   0  0  0  0  0  0  0  0  0  0  0  0
   33.8717   29.3534   47.7291 H   0  0  0  0  0  0  0  0  0  0  0  0
   35.3301   28.3330   48.0443 H   0  0  0  0  0  0  0  0  0  0  0  0
   33.8962   26.6673   47.5515 H   0  0  0  0  0  0  0  0  0  0  0  0
   33.4687   26.8813   49.3069 H   0  0  0  0  0  0  0  0  0  0  0  0
   31.4369   27.3950   50.0081 H   0  0  0  0  0  0  0  0  0  0  0  0
   29.0477   27.8604   49.5544 H   0  0  0  0  0  0  0  0  0  0  0  0
   30.4503   27.9441   44.4006 H   0  0  0  0  0  0  0  0  0  0  0  0
   28.7691   28.1375   45.0857 H   0  0  0  0  0  0  0  0  0  0  0  0
   31.9759   29.8385   44.4296 H   0  0  0  0  0  0  0  0  0  0  0  0
   32.0923   32.2835   43.8806 H   0  0  0  0  0  0  0  0  0  0  0  0
   29.9998   33.6852   43.9702 H   0  0  0  0  0  0  0  0  0  0  0  0
   27.9045   32.5874   44.6016 H   0  0  0  0  0  0  0  0  0  0  0  0
   37.6552   29.8713   52.7375 H   0  0  0  0  0  0  0  0  0  0  0  0
   39.0290   31.0255   50.9822 H   0  0  0  0  0  0  0  0  0  0  0  0
   37.6997   29.6469   47.0887 H   0  0  0  0  0  0  0  0  0  0  0  0
   38.7495   30.5036   45.0599 H   0  0  0  0  0  0  0  0  0  0  0  0
   39.8907   32.7230   45.0643 H   0  0  0  0  0  0  0  0  0  0  0  0
   39.9242   34.0147   47.1878 H   0  0  0  0  0  0  0  0  0  0  0  0
  1 17  1  0
  2  1  1  0
  3  2  1  0
  3  4  2  0
  5  4  1  0
  6  5  2  0
  7  8  2  0
  7  6  1  0
  8  3  1  0
  9  7  1  0
 11 10  1  0
 12 11  2  0
 12  9  1  0
 13 12  1  0
 14 15  1  0
 14 13  2  0
 15 16  2  0
 16 11  1  0
 17 22  1  0
 19 18  2  0
 20 19  1  0
 21 20  2  0
 21 22  1  0
 22 23  2  0
 23 18  1  0
 25 26  2  0
 25 24  1  0
 26 20  1  0
 27 26  1  0
 28 27  2  0
 29 28  1  0
 29 30  2  0
 30 25  1  0
  1 31  1  0
  1 32  1  0
  2 33  1  0
  2 34  1  0
  4 35  1  0
  5 36  1  0
  9 37  1  0
  9 38  1  0
 13 39  1  0
 14 40  1  0
 15 41  1  0
 16 42  1  0
 18 43  1  0
 19 44  1  0
 27 45  1  0
 28 46  1  0
 29 47  1  0
 30 48  1  0
M  ISO  8  31   8  32   8  33   8  34   8  35  14  36  14  37   8  38   8
M  ISO  8  39  14  40  14  41  14  42  14  43  14  44  14  45  14  46  14
M  ISO  2  47  14  48  14
M  END
>  <minimizedAffinity>  (1) 
-6.41455984

>  <minimizedRMSD>  (1) 
1.16002858

$$$$
