
     RDKit          3D

 25 26  0  0  0  0  0  0  0  0999 V2000
   34.3830   30.3190   47.7210 C   0  0  0  0  0  0  0  0  0  0  0  0
   35.7210   30.5150   47.3390 C   0  0  0  0  0  0  0  0  0  0  0  0
   36.0640   30.4330   45.9950 C   0  0  0  0  0  0  0  0  0  0  0  0
   35.0570   30.1620   45.1290 N   0  0  0  0  0  0  0  0  0  0  0  0
   33.7770   29.9750   45.4990 C   0  0  0  0  0  0  0  0  0  0  0  0
   33.4640   30.0580   46.8010 N   0  0  0  0  0  0  0  0  0  0  0  0
   32.8620   29.6990   44.4380 N   0  0  0  0  0  0  0  0  0  0  0  0
   35.7050   28.3180   49.2830 Cl  0  0  0  0  0  0  0  0  0  0  0  0
   36.6800   29.7690   49.3610 C   0  0  0  0  0  0  0  0  0  0  0  0
   36.6550   30.7930   48.4140 C   0  0  0  0  0  0  0  0  0  0  0  0
   37.4880   31.9030   48.5980 C   0  0  0  0  0  0  0  0  0  0  0  0
   38.3050   31.9460   49.7080 C   0  0  0  0  0  0  0  0  0  0  0  0
   38.3250   30.9300   50.6410 C   0  0  0  0  0  0  0  0  0  0  0  0
   37.5060   29.8330   50.4670 C   0  0  0  0  0  0  0  0  0  0  0  0
   37.4780   30.6440   45.6020 C   0  0  0  0  0  0  0  0  0  0  0  0
   38.2490   30.0080   46.5080 F   0  0  0  0  0  0  0  0  0  0  0  0
   37.7350   30.2140   44.3250 F   0  0  0  0  0  0  0  0  0  0  0  0
   37.8050   32.0160   45.6510 F   0  0  0  0  0  0  0  0  0  0  0  0
   34.0982   30.3820   48.7816 H   0  0  0  0  0  0  0  0  0  0  0  0
   31.8649   29.5446   44.6449 H   0  0  0  0  0  0  0  0  0  0  0  0
   33.1991   29.6543   43.4658 H   0  0  0  0  0  0  0  0  0  0  0  0
   37.4907   32.7270   47.8693 H   0  0  0  0  0  0  0  0  0  0  0  0
   38.9608   32.8170   49.8540 H   0  0  0  0  0  0  0  0  0  0  0  0
   38.9882   30.9938   51.5163 H   0  0  0  0  0  0  0  0  0  0  0  0
   37.5107   29.0157   51.2032 H   0  0  0  0  0  0  0  0  0  0  0  0
  2  1  2  0
  2 10  1  0
  3  2  1  0
  4  5  1  0
  4  3  2  0
  5  6  2  0
  6  1  1  0
  7  5  1  0
  8  9  1  0
  9 14  2  0
 10 11  2  0
 10  9  1  0
 11 12  1  0
 12 13  2  0
 14 13  1  0
 15 18  1  0
 15  3  1  0
 15 16  1  0
 17 15  1  0
  1 19  1  0
  7 20  1  0
  7 21  1  0
 11 22  1  0
 12 23  1  0
 13 24  1  0
 14 25  1  0
M  ISO  5  19  14  22  14  23  14  24  14  25  14
M  END
>  <minimizedAffinity>  (1) 
-5.20433187

>  <minimizedRMSD>  (1) 
4.1822319

$$$$
