
     RDKit          3D

 36 39  0  0  0  0  0  0  0  0999 V2000
   35.0300   29.2990   49.4140 C   0  0  0  0  0  0  0  0  0  0  0  0
   35.4310   30.0070   48.2420 C   0  0  0  0  0  0  0  0  0  0  0  0
   34.8290   29.6740   47.0380 C   0  0  0  0  0  0  0  0  0  0  0  0
   33.8910   28.6950   47.0350 N   0  0  0  0  0  0  0  0  0  0  0  0
   33.5210   28.0290   48.1650 C   0  0  0  0  0  0  0  0  0  0  0  0
   34.0970   28.3420   49.3460 N   0  0  0  0  0  0  0  0  0  0  0  0
   36.5100   31.5840   49.7550 C   0  0  0  0  0  0  0  0  0  0  0  0
   36.4410   31.0140   48.4850 C   0  0  0  0  0  0  0  0  0  0  0  0
   37.3540   31.4550   47.5370 C   0  0  0  0  0  0  0  0  0  0  0  0
   38.2860   32.4390   47.9030 C   0  0  0  0  0  0  0  0  0  0  0  0
   39.2660   33.0510   47.2230 N   0  0  0  0  0  0  0  0  0  0  0  0
   39.8890   33.9300   48.0200 C   0  0  0  0  0  0  0  0  0  0  0  0
   39.3030   33.8870   49.2320 N   0  0  0  0  0  0  0  0  0  0  0  0
   38.3190   32.9750   49.1680 C   0  0  0  0  0  0  0  0  0  0  0  0
   37.4210   32.5420   50.1030 C   0  0  0  0  0  0  0  0  0  0  0  0
   32.4730   26.9670   48.0480 C   0  0  0  0  0  0  0  0  0  0  0  0
   30.9280   27.8810   45.5630 Cl  0  0  0  0  0  0  0  0  0  0  0  0
   30.3360   27.9960   47.2050 C   0  0  0  0  0  0  0  0  0  0  0  0
   31.1260   27.5510   48.2380 C   0  0  0  0  0  0  0  0  0  0  0  0
   30.6260   27.6580   49.5340 C   0  0  0  0  0  0  0  0  0  0  0  0
   29.3890   28.1800   49.8600 C   0  0  0  0  0  0  0  0  0  0  0  0
   28.6160   28.6220   48.7800 C   0  0  0  0  0  0  0  0  0  0  0  0
   29.0840   28.5300   47.4830 C   0  0  0  0  0  0  0  0  0  0  0  0
   35.4919   29.5420   50.3823 H   0  0  0  0  0  0  0  0  0  0  0  0
   35.1058   30.1917   46.1077 H   0  0  0  0  0  0  0  0  0  0  0  0
   35.7935   31.2451   50.5177 H   0  0  0  0  0  0  0  0  0  0  0  0
   37.3474   31.0411   46.5178 H   0  0  0  0  0  0  0  0  0  0  0  0
   39.5041   32.8726   46.2369 H   0  0  0  0  0  0  0  0  0  0  0  0
   40.7329   34.5750   47.7339 H   0  0  0  0  0  0  0  0  0  0  0  0
   37.4312   32.9585   51.1211 H   0  0  0  0  0  0  0  0  0  0  0  0
   32.5318   26.5075   47.0503 H   0  0  0  0  0  0  0  0  0  0  0  0
   32.6460   26.2067   48.8239 H   0  0  0  0  0  0  0  0  0  0  0  0
   31.2622   27.3010   50.3573 H   0  0  0  0  0  0  0  0  0  0  0  0
   29.0350   28.2440   50.8995 H   0  0  0  0  0  0  0  0  0  0  0  0
   27.6198   29.0495   48.9667 H   0  0  0  0  0  0  0  0  0  0  0  0
   28.4533   28.8863   46.6552 H   0  0  0  0  0  0  0  0  0  0  0  0
  2  8  1  0
  2  1  2  0
  3  2  1  0
  4  3  2  0
  4  5  1  0
  5  6  2  0
  6  1  1  0
  7 15  2  0
  8  7  1  0
  9 10  1  0
  9  8  2  0
 10 14  2  0
 11 10  1  0
 11 12  1  0
 12 13  2  0
 14 13  1  0
 14 15  1  0
 16  5  1  0
 16 19  1  0
 17 18  1  0
 18 23  2  0
 18 19  1  0
 19 20  2  0
 20 21  1  0
 22 21  2  0
 23 22  1  0
  1 24  1  0
  3 25  1  0
  7 26  1  0
  9 27  1  0
 11 28  1  0
 12 29  1  0
 15 30  1  0
 16 31  1  0
 16 32  1  0
 20 33  1  0
 21 34  1  0
 22 35  1  0
 23 36  1  0
M  ISO  8  24  14  25  14  26  14  27  14  28   9  29  14  30  14  31   8
M  ISO  5  32   8  33  14  34  14  35  14  36  14
M  END
>  <minimizedAffinity>  (1) 
-6.56996393

>  <minimizedRMSD>  (1) 
1.86349785

$$$$
