
     RDKit          3D

 32 34  0  0  1  0  0  0  0  0999 V2000
   37.4430   30.4690   47.0690 C   0  0  1  0  0  0  0  0  0  0  0  0
   36.3970   29.4700   47.5810 C   0  0  2  0  0  0  0  0  0  0  0  0
   35.1980   30.1010   46.9100 C   0  0  0  0  0  0  0  0  0  0  0  0
   35.6110   30.3890   45.6180 O   0  0  0  0  0  0  0  0  0  0  0  0
   36.9690   30.5080   45.6010 C   0  0  0  0  0  0  0  0  0  0  0  0
   36.3330   29.4570   49.0490 C   0  0  0  0  0  0  0  0  0  0  0  0
   37.5130   29.4460   49.8080 C   0  0  0  0  0  0  0  0  0  0  0  0
   37.3750   29.4090   51.1990 C   0  0  0  0  0  0  0  0  0  0  0  0
   36.1160   29.3880   51.7390 N   0  0  0  0  0  0  0  0  0  0  0  0
   34.9870   29.4000   50.9650 C   0  0  0  0  0  0  0  0  0  0  0  0
   35.1150   29.4340   49.6180 N   0  0  0  0  0  0  0  0  0  0  0  0
   37.2470   31.7260   47.5410 O   0  0  0  0  0  0  0  0  0  0  0  0
   36.9430   32.8820   50.1790 Cl  0  0  0  0  0  0  0  0  0  0  0  0
   38.2060   33.1850   48.9760 C   0  0  0  0  0  0  0  0  0  0  0  0
   38.3080   32.5970   47.7100 C   0  0  0  0  0  0  0  0  0  0  0  0
   39.3720   32.9670   46.9140 C   0  0  0  0  0  0  0  0  0  0  0  0
   40.2900   33.8850   47.3730 C   0  0  0  0  0  0  0  0  0  0  0  0
   40.1940   34.4610   48.6100 C   0  0  0  0  0  0  0  0  0  0  0  0
   39.1430   34.1160   49.4340 C   0  0  0  0  0  0  0  0  0  0  0  0
   38.4792   30.1942   47.3157 H   0  0  0  0  0  0  0  0  0  0  0  0
   36.5528   28.4041   47.3582 H   0  0  0  0  0  0  0  0  0  0  0  0
   34.3507   29.3996   46.8963 H   0  0  0  0  0  0  0  0  0  0  0  0
   34.8572   31.0015   47.4419 H   0  0  0  0  0  0  0  0  0  0  0  0
   37.4143   29.6746   45.0378 H   0  0  0  0  0  0  0  0  0  0  0  0
   37.2751   31.4457   45.1141 H   0  0  0  0  0  0  0  0  0  0  0  0
   38.5034   29.4656   49.3297 H   0  0  0  0  0  0  0  0  0  0  0  0
   38.2624   29.3970   51.8488 H   0  0  0  0  0  0  0  0  0  0  0  0
   33.9906   29.3823   51.4308 H   0  0  0  0  0  0  0  0  0  0  0  0
   39.4873   32.5284   45.9118 H   0  0  0  0  0  0  0  0  0  0  0  0
   41.1308   34.1652   46.7215 H   0  0  0  0  0  0  0  0  0  0  0  0
   40.9463   35.1909   48.9438 H   0  0  0  0  0  0  0  0  0  0  0  0
   39.0439   34.5652   50.4332 H   0  0  0  0  0  0  0  0  0  0  0  0
  1 12  1  0
  1  2  1  0
  2  6  1  0
  3  2  1  0
  4  3  1  0
  5  4  1  0
  5  1  1  0
  6 11  1  0
  6  7  2  0
  7  8  1  0
  8  9  2  0
 10  9  1  0
 11 10  2  0
 12 15  1  0
 14 19  2  0
 14 13  1  0
 15 14  1  0
 16 17  1  0
 16 15  2  0
 17 18  2  0
 18 19  1  0
  1 20  1  6
  2 21  1  6
  3 22  1  0
  3 23  1  0
  5 24  1  0
  5 25  1  0
  7 26  1  0
  8 27  1  0
 10 28  1  0
 16 29  1  0
 17 30  1  0
 18 31  1  0
 19 32  1  0
M  ISO  8  20  13  21  13  22  13  23  13  24  13  25  13  26  14  27  14
M  ISO  5  28  14  29  14  30  14  31  14  32  14
M  END
>  <minimizedAffinity>  (1) 
-4.44201517

>  <minimizedRMSD>  (1) 
2.61350441

$$$$
