
     RDKit          3D

 36 38  0  0  0  0  0  0  0  0999 V2000
   35.1620   29.3120   50.4790 C   0  0  0  0  0  0  0  0  0  0  0  0
   36.1640   30.0810   49.8360 C   0  0  0  0  0  0  0  0  0  0  0  0
   36.1200   30.2320   48.4510 C   0  0  0  0  0  0  0  0  0  0  0  0
   35.0970   29.6200   47.8010 N   0  0  0  0  0  0  0  0  0  0  0  0
   34.1720   28.9080   48.4060 C   0  0  0  0  0  0  0  0  0  0  0  0
   34.1860   28.7430   49.7330 N   0  0  0  0  0  0  0  0  0  0  0  0
   32.7790   30.6620   46.3970 Cl  0  0  0  0  0  0  0  0  0  0  0  0
   32.4150   28.9740   46.6550 C   0  0  0  0  0  0  0  0  0  0  0  0
   33.1220   28.2600   47.6070 C   0  0  0  0  0  0  0  0  0  0  0  0
   32.8690   26.8960   47.8470 C   0  0  0  0  0  0  0  0  0  0  0  0
   31.8680   26.3090   47.0720 C   0  0  0  0  0  0  0  0  0  0  0  0
   31.1570   26.9980   46.1260 C   0  0  0  0  0  0  0  0  0  0  0  0
   29.9230   26.1570   45.2220 Cl  0  0  0  0  0  0  0  0  0  0  0  0
   31.4420   28.3430   45.9240 C   0  0  0  0  0  0  0  0  0  0  0  0
   30.6810   29.1140   44.8980 C   0  0  0  0  0  0  0  0  0  0  0  0
   29.5920   28.3580   44.4480 F   0  0  0  0  0  0  0  0  0  0  0  0
   31.4660   29.5030   43.8580 F   0  0  0  0  0  0  0  0  0  0  0  0
   30.1410   30.2480   45.4910 F   0  0  0  0  0  0  0  0  0  0  0  0
   36.1100   30.0480   45.3710 Cl  0  0  0  0  0  0  0  0  0  0  0  0
   37.2150   31.0120   46.3240 C   0  0  0  0  0  0  0  0  0  0  0  0
   37.0660   31.0300   47.6940 C   0  0  0  0  0  0  0  0  0  0  0  0
   37.9840   31.8390   48.3270 C   0  0  0  0  0  0  0  0  0  0  0  0
   38.9450   32.5550   47.6670 C   0  0  0  0  0  0  0  0  0  0  0  0
   39.0620   32.5120   46.2930 C   0  0  0  0  0  0  0  0  0  0  0  0
   38.1670   31.7140   45.6110 C   0  0  0  0  0  0  0  0  0  0  0  0
   37.2200   30.7210   50.6830 C   0  0  0  0  0  0  0  0  0  0  0  0
   38.4850   30.4190   50.2090 F   0  0  0  0  0  0  0  0  0  0  0  0
   37.0610   32.0870   50.6400 F   0  0  0  0  0  0  0  0  0  0  0  0
   37.1450   30.3310   52.0050 F   0  0  0  0  0  0  0  0  0  0  0  0
   35.1772   29.1791   51.5708 H   0  0  0  0  0  0  0  0  0  0  0  0
   33.4287   26.3253   48.6027 H   0  0  0  0  0  0  0  0  0  0  0  0
   31.6397   25.2443   47.2281 H   0  0  0  0  0  0  0  0  0  0  0  0
   37.9420   31.9134   49.4237 H   0  0  0  0  0  0  0  0  0  0  0  0
   39.6411   33.1799   48.2457 H   0  0  0  0  0  0  0  0  0  0  0  0
   39.8352   33.0889   45.7644 H   0  0  0  0  0  0  0  0  0  0  0  0
   38.2109   31.6378   44.5145 H   0  0  0  0  0  0  0  0  0  0  0  0
  2  1  2  0
  2 26  1  0
  3  2  1  0
  4  5  1  0
  4  3  2  0
  5  6  2  0
  6  1  1  0
  7  8  1  0
  8  9  2  0
  9 10  1  0
  9  5  1  0
 11 10  2  0
 12 11  1  0
 13 12  1  0
 14 12  2  0
 14  8  1  0
 15 18  1  0
 15 14  1  0
 16 15  1  0
 17 15  1  0
 19 20  1  0
 20 21  2  0
 21 22  1  0
 21  3  1  0
 23 22  2  0
 24 23  1  0
 25 24  2  0
 25 20  1  0
 26 29  1  0
 27 26  1  0
 28 26  1  0
  1 30  1  0
 10 31  1  0
 11 32  1  0
 22 33  1  0
 23 34  1  0
 24 35  1  0
 25 36  1  0
M  ISO  7  30  14  31  14  32  14  33  14  34  14  35  14  36  14
M  END
>  <minimizedAffinity>  (1) 
-7.0480299

>  <minimizedRMSD>  (1) 
0.512630045

$$$$
