
     RDKit          3D

 33 35  0  0  0  0  0  0  0  0999 V2000
   37.0800   30.6280   46.8160 C   0  0  0  0  0  0  0  0  0  0  0  0
   36.5090   29.8290   45.8520 C   0  0  0  0  0  0  0  0  0  0  0  0
   36.5170   30.0900   44.5050 C   0  0  0  0  0  0  0  0  0  0  0  0
   37.1600   31.2670   44.0540 C   0  0  0  0  0  0  0  0  0  0  0  0
   37.7350   32.0710   45.0220 C   0  0  0  0  0  0  0  0  0  0  0  0
   37.7130   31.7900   46.3620 C   0  0  0  0  0  0  0  0  0  0  0  0
   40.4790   32.8960   45.8430 Cl  0  0  0  0  0  0  0  0  0  0  0  0
   39.5490   33.1780   47.3200 C   0  0  0  0  0  0  0  0  0  0  0  0
   38.2980   32.6050   47.4200 C   0  0  0  0  0  0  0  0  0  0  0  0
   37.5950   32.8530   48.6070 C   0  0  0  0  0  0  0  0  0  0  0  0
   38.0920   33.6210   49.6390 C   0  0  0  0  0  0  0  0  0  0  0  0
   39.3430   34.1860   49.5210 C   0  0  0  0  0  0  0  0  0  0  0  0
   40.0610   33.9520   48.3470 C   0  0  0  0  0  0  0  0  0  0  0  0
   38.1800   30.1970   48.9490 C   0  0  0  0  0  0  0  0  0  0  0  0
   36.9760   30.1960   48.1880 C   0  0  0  0  0  0  0  0  0  0  0  0
   35.8070   29.7790   48.8250 C   0  0  0  0  0  0  0  0  0  0  0  0
   35.8830   29.4010   50.1250 N   0  0  0  0  0  0  0  0  0  0  0  0
   37.0420   29.4080   50.8380 C   0  0  0  0  0  0  0  0  0  0  0  0
   38.1960   29.8120   50.2340 N   0  0  0  0  0  0  0  0  0  0  0  0
   34.5020   29.7370   48.1560 C   0  0  0  0  0  0  0  0  0  0  0  0
   33.4980   29.3680   49.0780 F   0  0  0  0  0  0  0  0  0  0  0  0
   34.0950   30.8650   47.5180 F   0  0  0  0  0  0  0  0  0  0  0  0
   34.4660   28.6680   47.2410 F   0  0  0  0  0  0  0  0  0  0  0  0
   36.0071   28.9095   46.1875 H   0  0  0  0  0  0  0  0  0  0  0  0
   36.0360   29.4021   43.7941 H   0  0  0  0  0  0  0  0  0  0  0  0
   37.2007   31.5297   42.9866 H   0  0  0  0  0  0  0  0  0  0  0  0
   38.2405   32.9918   44.6954 H   0  0  0  0  0  0  0  0  0  0  0  0
   36.5939   32.4117   48.7214 H   0  0  0  0  0  0  0  0  0  0  0  0
   37.4947   33.7811   50.5487 H   0  0  0  0  0  0  0  0  0  0  0  0
   39.7637   34.8034   50.3283 H   0  0  0  0  0  0  0  0  0  0  0  0
   41.0616   34.3950   48.2349 H   0  0  0  0  0  0  0  0  0  0  0  0
   39.1172   30.5205   48.4726 H   0  0  0  0  0  0  0  0  0  0  0  0
   37.0480   29.0909   51.8913 H   0  0  0  0  0  0  0  0  0  0  0  0
  1 15  1  0
  2  1  2  0
  3  2  1  0
  4  3  2  0
  4  5  1  0
  5  6  2  0
  6  1  1  0
  6  9  1  0
  7  8  1  0
  8  9  2  0
  8 13  1  0
  9 10  1  0
 10 11  2  0
 12 11  1  0
 13 12  2  0
 14 19  2  0
 15 16  2  0
 15 14  1  0
 16 17  1  0
 17 18  2  0
 19 18  1  0
 20 16  1  0
 20 21  1  0
 22 20  1  0
 23 20  1  0
  2 24  1  0
  3 25  1  0
  4 26  1  0
  5 27  1  0
 10 28  1  0
 11 29  1  0
 12 30  1  0
 13 31  1  0
 14 32  1  0
 18 33  1  0
M  ISO  8  24  14  25  14  26  14  27  14  28  14  29  14  30  14  31  14
M  ISO  2  32  14  33  14
M  END
>  <minimizedAffinity>  (1) 
-5.06278706

>  <minimizedRMSD>  (1) 
2.56862378

$$$$
