
     RDKit          3D

 23 24  0  0  0  0  0  0  0  0999 V2000
   37.4340   30.1730   51.4080 C   0  0  0  0  0  0  0  0  0  0  0  0
   38.2160   30.7540   50.3830 C   0  0  0  0  0  0  0  0  0  0  0  0
   37.6980   30.7760   49.0980 C   0  0  0  0  0  0  0  0  0  0  0  0
   36.4660   30.2320   48.9210 N   0  0  0  0  0  0  0  0  0  0  0  0
   35.7440   29.6880   49.9020 C   0  0  0  0  0  0  0  0  0  0  0  0
   36.2320   29.6620   51.1370 N   0  0  0  0  0  0  0  0  0  0  0  0
   38.7280   33.6140   49.4570 Cl  0  0  0  0  0  0  0  0  0  0  0  0
   38.9040   32.6210   48.0370 C   0  0  0  0  0  0  0  0  0  0  0  0
   38.4070   31.3470   47.9610 C   0  0  0  0  0  0  0  0  0  0  0  0
   38.6220   30.6800   46.7760 C   0  0  0  0  0  0  0  0  0  0  0  0
   39.2960   31.2430   45.7150 C   0  0  0  0  0  0  0  0  0  0  0  0
   39.7940   32.5270   45.8010 C   0  0  0  0  0  0  0  0  0  0  0  0
   39.5930   33.2310   46.9910 C   0  0  0  0  0  0  0  0  0  0  0  0
   34.4220   29.1310   49.5530 C   0  0  0  0  0  0  0  0  0  0  0  0
   33.4510   29.4220   50.5070 F   0  0  0  0  0  0  0  0  0  0  0  0
   33.9490   29.6420   48.3580 F   0  0  0  0  0  0  0  0  0  0  0  0
   34.4250   27.7550   49.4020 F   0  0  0  0  0  0  0  0  0  0  0  0
   37.8202   30.1422   52.4375 H   0  0  0  0  0  0  0  0  0  0  0  0
   39.2081   31.1768   50.5998 H   0  0  0  0  0  0  0  0  0  0  0  0
   38.2393   29.6540   46.6722 H   0  0  0  0  0  0  0  0  0  0  0  0
   39.4386   30.6639   44.7907 H   0  0  0  0  0  0  0  0  0  0  0  0
   40.3333   32.9828   44.9576 H   0  0  0  0  0  0  0  0  0  0  0  0
   39.9750   34.2567   47.1009 H   0  0  0  0  0  0  0  0  0  0  0  0
  2  1  2  0
  3  2  1  0
  4  3  2  0
  4  5  1  0
  5  6  2  0
  6  1  1  0
  8  7  1  0
  9  8  2  0
  9  3  1  0
 10  9  1  0
 11 12  1  0
 11 10  2  0
 12 13  2  0
 13  8  1  0
 14  5  1  0
 14 15  1  0
 16 14  1  0
 17 14  1  0
  1 18  1  0
  2 19  1  0
 10 20  1  0
 11 21  1  0
 12 22  1  0
 13 23  1  0
M  ISO  6  18  14  19  14  20  14  21  14  22  14  23  14
M  END
>  <minimizedAffinity>  (1) 
-6.42814827

>  <minimizedRMSD>  (1) 
2.13790655

$$$$
