
     RDKit          3D

 42 46  0  0  0  0  0  0  0  0999 V2000
   35.7150   29.1390   49.8560 C   0  0  0  0  0  0  0  0  0  0  0  0
   34.6710   29.6110   50.5840 C   0  0  0  0  0  0  0  0  0  0  0  0
   33.5200   29.0120   50.0680 C   0  0  0  0  0  0  0  0  0  0  0  0
   33.9570   28.1880   49.0230 C   0  0  0  0  0  0  0  0  0  0  0  0
   35.2450   28.3160   48.9610 O   0  0  0  0  0  0  0  0  0  0  0  0
   33.4630   26.4010   47.3710 C   0  0  0  0  0  0  0  0  0  0  0  0
   33.0230   27.3920   48.2400 C   0  0  0  0  0  0  0  0  0  0  0  0
   31.6830   27.6570   48.3970 C   0  0  0  0  0  0  0  0  0  0  0  0
   30.7870   26.9060   47.6640 C   0  0  0  0  0  0  0  0  0  0  0  0
   29.4400   26.9480   47.6270 N   0  0  0  0  0  0  0  0  0  0  0  0
   29.0340   26.0130   46.7640 N   0  0  0  0  0  0  0  0  0  0  0  0
   30.1070   25.3900   46.2630 C   0  0  0  0  0  0  0  0  0  0  0  0
   31.2650   25.9350   46.8170 C   0  0  0  0  0  0  0  0  0  0  0  0
   32.5970   25.6460   46.6370 C   0  0  0  0  0  0  0  0  0  0  0  0
   37.0860   29.5540   50.1190 C   0  0  0  0  0  0  0  0  0  0  0  0
   37.7400   28.9710   51.0130 O   0  0  0  0  0  0  0  0  0  0  0  0
   37.6150   30.6300   49.3170 C   0  0  0  0  0  0  0  0  0  0  0  0
   37.6060   31.9090   49.8760 C   0  0  0  0  0  0  0  0  0  0  0  0
   38.1030   32.9850   49.1500 C   0  0  0  0  0  0  0  0  0  0  0  0
   38.5770   32.6930   47.9000 N   0  0  0  0  0  0  0  0  0  0  0  0
   38.5840   31.4770   47.3730 C   0  0  0  0  0  0  0  0  0  0  0  0
   38.0980   30.4490   48.0930 N   0  0  0  0  0  0  0  0  0  0  0  0
   40.3880   33.6820   46.2780 Cl  0  0  0  0  0  0  0  0  0  0  0  0
   39.9440   32.2230   45.4240 C   0  0  0  0  0  0  0  0  0  0  0  0
   39.1190   31.2990   46.0280 C   0  0  0  0  0  0  0  0  0  0  0  0
   38.7750   30.1510   45.3430 C   0  0  0  0  0  0  0  0  0  0  0  0
   39.2460   29.9190   44.0680 C   0  0  0  0  0  0  0  0  0  0  0  0
   40.0660   30.8300   43.4560 C   0  0  0  0  0  0  0  0  0  0  0  0
   40.4190   31.9950   44.1420 C   0  0  0  0  0  0  0  0  0  0  0  0
   34.7218   30.3262   51.4182 H   0  0  0  0  0  0  0  0  0  0  0  0
   32.4850   29.1571   50.4110 H   0  0  0  0  0  0  0  0  0  0  0  0
   34.5435   26.2201   47.2722 H   0  0  0  0  0  0  0  0  0  0  0  0
   31.3364   28.4424   49.0848 H   0  0  0  0  0  0  0  0  0  0  0  0
   28.8350   27.5844   48.1655 H   0  0  0  0  0  0  0  0  0  0  0  0
   30.0799   24.5731   45.5269 H   0  0  0  0  0  0  0  0  0  0  0  0
   32.9403   24.8599   45.9484 H   0  0  0  0  0  0  0  0  0  0  0  0
   37.2064   32.0650   50.8889 H   0  0  0  0  0  0  0  0  0  0  0  0
   38.1146   34.0076   49.5551 H   0  0  0  0  0  0  0  0  0  0  0  0
   38.1161   29.4111   45.8208 H   0  0  0  0  0  0  0  0  0  0  0  0
   38.9617   28.9972   43.5393 H   0  0  0  0  0  0  0  0  0  0  0  0
   40.4414   30.6468   42.4384 H   0  0  0  0  0  0  0  0  0  0  0  0
   41.0769   32.7346   43.6624 H   0  0  0  0  0  0  0  0  0  0  0  0
  1 15  1  0
  1  2  2  0
  3  2  1  0
  4  3  2  0
  5  4  1  0
  5  1  1  0
  6  7  2  0
  7  8  1  0
  7  4  1  0
  9  8  2  0
 10  9  1  0
 11 10  1  0
 12 11  2  0
 12 13  1  0
 13  9  1  0
 14 13  2  0
 14  6  1  0
 15 16  2  0
 17 18  2  0
 17 15  1  0
 19 18  1  0
 20 19  2  0
 21 20  1  0
 21 22  2  0
 22 17  1  0
 24 25  2  0
 24 23  1  0
 25 21  1  0
 26 25  1  0
 27 26  2  0
 28 27  1  0
 28 29  2  0
 29 24  1  0
  2 30  1  0
  3 31  1  0
  6 32  1  0
  8 33  1  0
 10 34  1  0
 12 35  1  0
 14 36  1  0
 18 37  1  0
 19 38  1  0
 26 39  1  0
 27 40  1  0
 28 41  1  0
 29 42  1  0
M  END
>  <minimizedAffinity>  (1) 
-7.47871542

>  <minimizedRMSD>  (1) 
0.478139997

$$$$
