
     RDKit          3D

 31 33  0  0  0  0  0  0  0  0999 V2000
   35.0950   29.3480   48.4010 C   0  0  0  0  0  0  0  0  0  0  0  0
   34.5960   28.1760   48.8660 C   0  0  0  0  0  0  0  0  0  0  0  0
   33.5420   27.6630   48.1590 C   0  0  0  0  0  0  0  0  0  0  0  0
   33.0190   28.2920   47.0510 C   0  0  0  0  0  0  0  0  0  0  0  0
   33.5670   29.4810   46.6230 C   0  0  0  0  0  0  0  0  0  0  0  0
   34.6040   29.9790   47.3240 N   0  0  0  0  0  0  0  0  0  0  0  0
   35.0780   29.4250   43.8680 Cl  0  0  0  0  0  0  0  0  0  0  0  0
   33.6920   30.3820   44.2480 C   0  0  0  0  0  0  0  0  0  0  0  0
   33.1490   30.2970   45.5010 C   0  0  0  0  0  0  0  0  0  0  0  0
   32.0740   31.1450   45.6590 C   0  0  0  0  0  0  0  0  0  0  0  0
   31.5880   31.9840   44.6830 C   0  0  0  0  0  0  0  0  0  0  0  0
   32.1760   32.0230   43.4400 C   0  0  0  0  0  0  0  0  0  0  0  0
   33.2560   31.1950   43.2310 C   0  0  0  0  0  0  0  0  0  0  0  0
   37.6400   30.1450   50.9140 C   0  0  0  0  0  0  0  0  0  0  0  0
   38.3480   31.2010   50.3330 C   0  0  0  0  0  0  0  0  0  0  0  0
   37.9470   31.6340   49.0760 C   0  0  0  0  0  0  0  0  0  0  0  0
   36.8970   31.0030   48.5040 N   0  0  0  0  0  0  0  0  0  0  0  0
   36.2240   29.9850   49.0800 C   0  0  0  0  0  0  0  0  0  0  0  0
   36.6180   29.5650   50.3060 N   0  0  0  0  0  0  0  0  0  0  0  0
   37.9840   29.6300   52.2120 N   0  0  0  0  0  0  0  0  0  0  0  0
   35.0102   27.6716   49.7515 H   0  0  0  0  0  0  0  0  0  0  0  0
   33.0961   26.7128   48.4882 H   0  0  0  0  0  0  0  0  0  0  0  0
   32.1695   27.8479   46.5115 H   0  0  0  0  0  0  0  0  0  0  0  0
   31.5682   31.1514   46.6358 H   0  0  0  0  0  0  0  0  0  0  0  0
   30.7229   32.6284   44.8982 H   0  0  0  0  0  0  0  0  0  0  0  0
   31.7998   32.6867   42.6476 H   0  0  0  0  0  0  0  0  0  0  0  0
   33.7659   31.1849   42.2564 H   0  0  0  0  0  0  0  0  0  0  0  0
   39.1941   31.6730   50.8539 H   0  0  0  0  0  0  0  0  0  0  0  0
   38.4642   32.4594   48.5649 H   0  0  0  0  0  0  0  0  0  0  0  0
   37.4451   28.8509   52.6163 H   0  0  0  0  0  0  0  0  0  0  0  0
   38.7693   30.0403   52.7373 H   0  0  0  0  0  0  0  0  0  0  0  0
  1  2  2  0
  1 18  1  0
  3  2  1  0
  4  3  2  0
  5  4  1  0
  5  6  2  0
  6  1  1  0
  7  8  1  0
  8  9  2  0
  9 10  1  0
  9  5  1  0
 11 10  2  0
 12 11  1  0
 13 12  2  0
 13  8  1  0
 14 20  1  0
 15 14  2  0
 16 15  1  0
 17 16  2  0
 17 18  1  0
 18 19  2  0
 19 14  1  0
  2 21  1  0
  3 22  1  0
  4 23  1  0
 10 24  1  0
 11 25  1  0
 12 26  1  0
 13 27  1  0
 15 28  1  0
 16 29  1  0
 20 30  1  0
 20 31  1  0
M  ISO  8  21  14  22  14  23  14  24  14  25  14  26  14  27  14  28  14
M  ISO  1  29  14
M  END
>  <minimizedAffinity>  (1) 
-5.56337118

>  <minimizedRMSD>  (1) 
0.774323165

$$$$
