
     RDKit          3D

 28 30  0  0  0  0  0  0  0  0999 V2000
   37.5960   31.1280   49.5830 C   0  0  0  0  0  0  0  0  0  0  0  0
   37.8310   30.7080   50.8500 C   0  0  0  0  0  0  0  0  0  0  0  0
   37.0340   29.7690   51.4210 C   0  0  0  0  0  0  0  0  0  0  0  0
   35.9920   29.2460   50.7150 N   0  0  0  0  0  0  0  0  0  0  0  0
   35.7790   29.6750   49.4700 C   0  0  0  0  0  0  0  0  0  0  0  0
   36.5610   30.6130   48.8740 N   0  0  0  0  0  0  0  0  0  0  0  0
   39.5220   34.1880   48.9280 C   0  0  0  0  0  0  0  0  0  0  0  0
   39.9570   33.9980   47.5970 C   0  0  0  0  0  0  0  0  0  0  0  0
   39.5720   32.8090   46.9560 C   0  0  0  0  0  0  0  0  0  0  0  0
   38.8120   31.9230   47.6470 N   0  0  0  0  0  0  0  0  0  0  0  0
   38.4090   32.1270   48.9130 C   0  0  0  0  0  0  0  0  0  0  0  0
   38.7720   33.2750   49.5540 N   0  0  0  0  0  0  0  0  0  0  0  0
   35.8040   30.2320   46.5520 Cl  0  0  0  0  0  0  0  0  0  0  0  0
   34.5390   29.2920   47.3490 C   0  0  0  0  0  0  0  0  0  0  0  0
   34.6650   29.1200   48.7050 C   0  0  0  0  0  0  0  0  0  0  0  0
   33.6870   28.3890   49.3490 C   0  0  0  0  0  0  0  0  0  0  0  0
   32.6350   27.8690   48.6060 C   0  0  0  0  0  0  0  0  0  0  0  0
   32.5520   28.0720   47.2390 C   0  0  0  0  0  0  0  0  0  0  0  0
   33.5270   28.8080   46.5560 C   0  0  0  0  0  0  0  0  0  0  0  0
   38.6724   31.1304   51.4189 H   0  0  0  0  0  0  0  0  0  0  0  0
   37.2285   29.4315   52.4497 H   0  0  0  0  0  0  0  0  0  0  0  0
   39.8067   35.1073   49.4609 H   0  0  0  0  0  0  0  0  0  0  0  0
   40.5726   34.7512   47.0834 H   0  0  0  0  0  0  0  0  0  0  0  0
   39.8789   32.6016   45.9202 H   0  0  0  0  0  0  0  0  0  0  0  0
   33.7401   28.2208   50.4348 H   0  0  0  0  0  0  0  0  0  0  0  0
   31.8530   27.2849   49.1133 H   0  0  0  0  0  0  0  0  0  0  0  0
   31.7051   27.6475   46.6800 H   0  0  0  0  0  0  0  0  0  0  0  0
   33.4862   28.9848   45.4711 H   0  0  0  0  0  0  0  0  0  0  0  0
  1  2  2  0
  2  3  1  0
  4  3  2  0
  5  4  1  0
  6  5  2  0
  6  1  1  0
  7 12  2  0
  8  7  1  0
  9  8  2  0
  9 10  1  0
 10 11  2  0
 11 12  1  0
 11  1  1  0
 13 14  1  0
 14 15  2  0
 15 16  1  0
 15  5  1  0
 17 16  2  0
 18 17  1  0
 19 18  2  0
 19 14  1  0
  2 20  1  0
  3 21  1  0
  7 22  1  0
  8 23  1  0
  9 24  1  0
 16 25  1  0
 17 26  1  0
 18 27  1  0
 19 28  1  0
M  ISO  8  20  14  21  14  22  14  23  14  24  14  25  14  26  14  27  14
M  ISO  1  28  14
M  END
>  <minimizedAffinity>  (1) 
-5.99445105

>  <minimizedRMSD>  (1) 
2.5431385

$$$$
