
     RDKit          3D

 44 47  0  0  0  0  0  0  0  0999 V2000
   36.4310   30.2880   48.9160 C   0  0  0  0  0  0  0  0  0  0  0  0
   36.4970   30.0830   50.2970 C   0  0  0  0  0  0  0  0  0  0  0  0
   35.5430   29.3150   50.9410 C   0  0  0  0  0  0  0  0  0  0  0  0
   34.5490   28.7810   50.1410 C   0  0  0  0  0  0  0  0  0  0  0  0
   34.4780   28.9770   48.7790 C   0  0  0  0  0  0  0  0  0  0  0  0
   35.4340   29.7370   48.1920 N   0  0  0  0  0  0  0  0  0  0  0  0
   33.4160   28.3780   48.0710 N   0  0  0  0  0  0  0  0  0  0  0  0
   32.2930   27.8580   48.8040 C   0  0  0  0  0  0  0  0  0  0  0  0
   31.3790   27.1770   47.8110 C   0  0  0  0  0  0  0  0  0  0  0  0
   30.9430   28.1620   46.7460 C   0  0  0  0  0  0  0  0  0  0  0  0
   32.1110   28.8450   46.1100 C   0  0  0  0  0  0  0  0  0  0  0  0
   33.3920   28.2510   46.6200 C   0  0  0  0  0  0  0  0  0  0  0  0
   38.9080   32.9160   48.3210 C   0  0  0  0  0  0  0  0  0  0  0  0
   39.3730   32.6020   47.0250 C   0  0  0  0  0  0  0  0  0  0  0  0
   38.8390   31.5100   46.3830 C   0  0  0  0  0  0  0  0  0  0  0  0
   37.8840   30.7950   47.0490 N   0  0  0  0  0  0  0  0  0  0  0  0
   37.4470   31.0990   48.2790 C   0  0  0  0  0  0  0  0  0  0  0  0
   37.9680   32.1590   48.8990 N   0  0  0  0  0  0  0  0  0  0  0  0
   39.9960   33.6330   44.6750 Cl  0  0  0  0  0  0  0  0  0  0  0  0
   39.7750   31.9550   44.1650 C   0  0  0  0  0  0  0  0  0  0  0  0
   39.2270   31.0870   45.0660 C   0  0  0  0  0  0  0  0  0  0  0  0
   39.0790   29.7960   44.6090 C   0  0  0  0  0  0  0  0  0  0  0  0
   39.4370   29.3460   43.3560 C   0  0  0  0  0  0  0  0  0  0  0  0
   39.9950   30.2710   42.4690 C   0  0  0  0  0  0  0  0  0  0  0  0
   40.1560   31.5660   42.8870 C   0  0  0  0  0  0  0  0  0  0  0  0
   37.3145   30.5362   50.8770 H   0  0  0  0  0  0  0  0  0  0  0  0
   35.5734   29.1393   52.0265 H   0  0  0  0  0  0  0  0  0  0  0  0
   33.7722   28.1658   50.6186 H   0  0  0  0  0  0  0  0  0  0  0  0
   32.6382   27.1327   49.5555 H   0  0  0  0  0  0  0  0  0  0  0  0
   31.7629   28.6676   49.3269 H   0  0  0  0  0  0  0  0  0  0  0  0
   31.9147   26.3415   47.3367 H   0  0  0  0  0  0  0  0  0  0  0  0
   30.4905   26.7999   48.3386 H   0  0  0  0  0  0  0  0  0  0  0  0
   30.3806   27.6218   45.9702 H   0  0  0  0  0  0  0  0  0  0  0  0
   30.3176   28.9294   47.2255 H   0  0  0  0  0  0  0  0  0  0  0  0
   32.0837   29.9171   46.3545 H   0  0  0  0  0  0  0  0  0  0  0  0
   32.0589   28.7101   45.0196 H   0  0  0  0  0  0  0  0  0  0  0  0
   33.4456   27.1887   46.3397 H   0  0  0  0  0  0  0  0  0  0  0  0
   34.2522   28.7782   46.1816 H   0  0  0  0  0  0  0  0  0  0  0  0
   39.3193   33.7845   48.8563 H   0  0  0  0  0  0  0  0  0  0  0  0
   40.1451   33.2174   46.5401 H   0  0  0  0  0  0  0  0  0  0  0  0
   38.6386   29.0633   45.3013 H   0  0  0  0  0  0  0  0  0  0  0  0
   39.2887   28.2957   43.0645 H   0  0  0  0  0  0  0  0  0  0  0  0
   40.2985   29.9658   41.4567 H   0  0  0  0  0  0  0  0  0  0  0  0
   40.5927   32.3073   42.2016 H   0  0  0  0  0  0  0  0  0  0  0  0
  1  2  2  0
  2  3  1  0
  4  3  2  0
  5  4  1  0
  6  5  2  0
  6  1  1  0
  7  5  1  0
  7  8  1  0
  9  8  1  0
 10  9  1  0
 11 12  1  0
 11 10  1  0
 12  7  1  0
 13 18  2  0
 14 13  1  0
 15 14  2  0
 15 16  1  0
 16 17  2  0
 17 18  1  0
 17  1  1  0
 20 19  1  0
 20 21  2  0
 21 15  1  0
 22 21  1  0
 23 22  2  0
 24 25  2  0
 24 23  1  0
 25 20  1  0
  2 26  1  0
  3 27  1  0
  4 28  1  0
  8 29  1  0
  8 30  1  0
  9 31  1  0
  9 32  1  0
 10 33  1  0
 10 34  1  0
 11 35  1  0
 11 36  1  0
 12 37  1  0
 12 38  1  0
 13 39  1  0
 14 40  1  0
 22 41  1  0
 23 42  1  0
 24 43  1  0
 25 44  1  0
M  ISO  8  26  14  27  14  28  14  29  13  30  13  31  13  32  13  33  13
M  ISO  8  34  13  35  13  36  13  37  13  38  13  39  14  40  14  41  14
M  ISO  3  42  14  43  14  44  14
M  END
>  <minimizedAffinity>  (1) 
-7.16543007

>  <minimizedRMSD>  (1) 
1.78002465

$$$$
