
     RDKit          3D

 41 44  0  0  0  0  0  0  0  0999 V2000
   34.7030   29.0050   48.2620 C   0  0  0  0  0  0  0  0  0  0  0  0
   34.3110   27.7660   48.7370 C   0  0  0  0  0  0  0  0  0  0  0  0
   33.1500   27.2910   48.1840 C   0  0  0  0  0  0  0  0  0  0  0  0
   32.4330   27.9820   47.2370 C   0  0  0  0  0  0  0  0  0  0  0  0
   32.8910   29.2030   46.8230 C   0  0  0  0  0  0  0  0  0  0  0  0
   34.0260   29.7010   47.3440 N   0  0  0  0  0  0  0  0  0  0  0  0
   29.8710   29.0910   46.9370 Cl  0  0  0  0  0  0  0  0  0  0  0  0
   30.8030   30.0020   45.7910 C   0  0  0  0  0  0  0  0  0  0  0  0
   32.1710   29.9810   45.8290 C   0  0  0  0  0  0  0  0  0  0  0  0
   32.7820   30.7570   44.8540 C   0  0  0  0  0  0  0  0  0  0  0  0
   32.1210   31.4970   43.9150 C   0  0  0  0  0  0  0  0  0  0  0  0
   30.7360   31.4880   43.9130 C   0  0  0  0  0  0  0  0  0  0  0  0
   29.8310   32.4130   42.7380 Cl  0  0  0  0  0  0  0  0  0  0  0  0
   30.0820   30.7320   44.8630 C   0  0  0  0  0  0  0  0  0  0  0  0
   37.3860   30.0500   50.5450 C   0  0  0  0  0  0  0  0  0  0  0  0
   38.2700   30.7230   49.6990 C   0  0  0  0  0  0  0  0  0  0  0  0
   37.9350   30.8140   48.3670 C   0  0  0  0  0  0  0  0  0  0  0  0
   36.7690   30.2440   47.9560 N   0  0  0  0  0  0  0  0  0  0  0  0
   35.9330   29.6010   48.7800 C   0  0  0  0  0  0  0  0  0  0  0  0
   36.2490   29.5060   50.0850 N   0  0  0  0  0  0  0  0  0  0  0  0
   38.5950   33.6730   49.0230 Cl  0  0  0  0  0  0  0  0  0  0  0  0
   39.1480   32.8060   47.6060 C   0  0  0  0  0  0  0  0  0  0  0  0
   38.7850   31.4930   47.4010 C   0  0  0  0  0  0  0  0  0  0  0  0
   39.2670   30.8970   46.2600 C   0  0  0  0  0  0  0  0  0  0  0  0
   40.0760   31.5340   45.3330 C   0  0  0  0  0  0  0  0  0  0  0  0
   40.4100   32.8440   45.5830 C   0  0  0  0  0  0  0  0  0  0  0  0
   39.9620   33.4900   46.7000 C   0  0  0  0  0  0  0  0  0  0  0  0
   37.6240   29.8890   51.9610 N   0  0  0  0  0  0  0  0  0  0  0  0
   34.8825   27.2093   49.4942 H   0  0  0  0  0  0  0  0  0  0  0  0
   32.7748   26.3109   48.5137 H   0  0  0  0  0  0  0  0  0  0  0  0
   31.5068   27.5607   46.8190 H   0  0  0  0  0  0  0  0  0  0  0  0
   33.8817   30.7778   44.8359 H   0  0  0  0  0  0  0  0  0  0  0  0
   32.6784   32.0890   43.1742 H   0  0  0  0  0  0  0  0  0  0  0  0
   28.9824   30.7093   44.8830 H   0  0  0  0  0  0  0  0  0  0  0  0
   39.2011   31.1648   50.0835 H   0  0  0  0  0  0  0  0  0  0  0  0
   38.9932   29.8485   46.0710 H   0  0  0  0  0  0  0  0  0  0  0  0
   40.4363   31.0129   44.4338 H   0  0  0  0  0  0  0  0  0  0  0  0
   41.0507   33.3826   44.8693 H   0  0  0  0  0  0  0  0  0  0  0  0
   40.2394   34.5384   46.8843 H   0  0  0  0  0  0  0  0  0  0  0  0
   36.9413   29.3839   52.5438 H   0  0  0  0  0  0  0  0  0  0  0  0
   38.4764   30.2793   52.3876 H   0  0  0  0  0  0  0  0  0  0  0  0
  1  2  2  0
  1 19  1  0
  3  2  1  0
  4  3  2  0
  5  4  1  0
  5  6  2  0
  6  1  1  0
  8  9  2  0
  8  7  1  0
  9  5  1  0
 10  9  1  0
 11 10  2  0
 12 11  1  0
 12 14  2  0
 13 12  1  0
 14  8  1  0
 15 28  1  0
 16 15  2  0
 17 16  1  0
 18 17  2  0
 18 19  1  0
 19 20  2  0
 20 15  1  0
 22 21  1  0
 23 22  2  0
 23 17  1  0
 24 23  1  0
 25 26  1  0
 25 24  2  0
 26 27  2  0
 27 22  1  0
  2 29  1  0
  3 30  1  0
  4 31  1  0
 10 32  1  0
 11 33  1  0
 14 34  1  0
 16 35  1  0
 24 36  1  0
 25 37  1  0
 26 38  1  0
 27 39  1  0
 28 40  1  0
 28 41  1  0
M  END
>  <minimizedAffinity>  (1) 
-7.86233807

>  <minimizedRMSD>  (1) 
1.07808149

$$$$
