
     RDKit          3D

 30 32  0  0  0  0  0  0  0  0999 V2000
   36.1200   31.0340   48.6630 F   0  0  0  0  0  0  0  0  0  0  0  0
   36.4010   30.8110   47.3400 C   0  0  0  0  0  0  0  0  0  0  0  0
   35.6610   29.9410   46.5630 C   0  0  0  0  0  0  0  0  0  0  0  0
   35.9830   29.7490   45.2340 C   0  0  0  0  0  0  0  0  0  0  0  0
   37.0600   30.4340   44.6600 C   0  0  0  0  0  0  0  0  0  0  0  0
   37.7720   31.2960   45.4800 C   0  0  0  0  0  0  0  0  0  0  0  0
   37.4720   31.5020   46.7990 C   0  0  0  0  0  0  0  0  0  0  0  0
   34.9210   28.6250   48.4200 C   0  0  0  0  0  0  0  0  0  0  0  0
   34.5760   29.2780   47.2200 C   0  0  0  0  0  0  0  0  0  0  0  0
   33.2390   29.2070   46.8130 C   0  0  0  0  0  0  0  0  0  0  0  0
   32.3510   28.5190   47.5890 N   0  0  0  0  0  0  0  0  0  0  0  0
   32.7160   27.9110   48.7230 C   0  0  0  0  0  0  0  0  0  0  0  0
   33.9880   27.9620   49.1390 N   0  0  0  0  0  0  0  0  0  0  0  0
   39.6400   32.5870   45.1420 Cl  0  0  0  0  0  0  0  0  0  0  0  0
   39.3570   32.9960   46.8240 C   0  0  0  0  0  0  0  0  0  0  0  0
   38.3060   32.4330   47.5290 C   0  0  0  0  0  0  0  0  0  0  0  0
   38.1270   32.7900   48.8490 C   0  0  0  0  0  0  0  0  0  0  0  0
   38.9320   33.6770   49.5250 C   0  0  0  0  0  0  0  0  0  0  0  0
   39.9870   34.2350   48.7950 C   0  0  0  0  0  0  0  0  0  0  0  0
   40.1740   33.8840   47.4720 C   0  0  0  0  0  0  0  0  0  0  0  0
   35.3893   29.0534   44.6227 H   0  0  0  0  0  0  0  0  0  0  0  0
   37.3302   30.2944   43.6029 H   0  0  0  0  0  0  0  0  0  0  0  0
   38.6227   31.8430   45.0475 H   0  0  0  0  0  0  0  0  0  0  0  0
   35.9615   28.6551   48.7757 H   0  0  0  0  0  0  0  0  0  0  0  0
   32.9095   29.6966   45.8847 H   0  0  0  0  0  0  0  0  0  0  0  0
   31.9675   27.3662   49.3171 H   0  0  0  0  0  0  0  0  0  0  0  0
   37.2872   32.3366   49.3959 H   0  0  0  0  0  0  0  0  0  0  0  0
   38.7562   33.9332   50.5802 H   0  0  0  0  0  0  0  0  0  0  0  0
   40.6679   34.9535   49.2747 H   0  0  0  0  0  0  0  0  0  0  0  0
   41.0107   34.3347   46.9181 H   0  0  0  0  0  0  0  0  0  0  0  0
  2  1  1  0
  3  9  1  0
  3  2  2  0
  4  3  1  0
  5  4  2  0
  5  6  1  0
  6  7  2  0
  7  2  1  0
  7 16  1  0
  8 13  2  0
  9  8  1  0
 10  9  2  0
 10 11  1  0
 11 12  2  0
 12 13  1  0
 14 15  1  0
 15 20  2  0
 15 16  1  0
 16 17  2  0
 17 18  1  0
 19 18  2  0
 20 19  1  0
  4 21  1  0
  5 22  1  0
  6 23  1  0
  8 24  1  0
 10 25  1  0
 12 26  1  0
 17 27  1  0
 18 28  1  0
 19 29  1  0
 20 30  1  0
M  ISO  8  21  14  22  14  23  14  24  14  25  14  26  14  27  14  28  14
M  ISO  2  29  14  30  14
M  END
>  <minimizedAffinity>  (1) 
-5.21593857

>  <minimizedRMSD>  (1) 
2.93009615

$$$$
