
     RDKit          3D

 30 32  0  0  0  0  0  0  0  0999 V2000
   37.4360   32.2880   49.6600 C   0  0  0  0  0  0  0  0  0  0  0  0
   38.3550   32.3410   48.5890 C   0  0  0  0  0  0  0  0  0  0  0  0
   38.0990   31.5220   47.4850 C   0  0  0  0  0  0  0  0  0  0  0  0
   36.9960   30.7380   47.5120 N   0  0  0  0  0  0  0  0  0  0  0  0
   36.1380   30.7110   48.5520 C   0  0  0  0  0  0  0  0  0  0  0  0
   36.3570   31.4910   49.6350 N   0  0  0  0  0  0  0  0  0  0  0  0
   35.5790   29.2090   51.0420 Cl  0  0  0  0  0  0  0  0  0  0  0  0
   34.6270   29.0930   49.5940 C   0  0  0  0  0  0  0  0  0  0  0  0
   34.9780   29.8370   48.4930 C   0  0  0  0  0  0  0  0  0  0  0  0
   34.2480   29.7720   47.3210 C   0  0  0  0  0  0  0  0  0  0  0  0
   33.1370   28.9520   47.2260 C   0  0  0  0  0  0  0  0  0  0  0  0
   32.7630   28.1980   48.3110 C   0  0  0  0  0  0  0  0  0  0  0  0
   31.3830   27.1030   48.3780 Cl  0  0  0  0  0  0  0  0  0  0  0  0
   33.5180   28.2840   49.4780 C   0  0  0  0  0  0  0  0  0  0  0  0
   39.9090   33.8330   47.3340 Cl  0  0  0  0  0  0  0  0  0  0  0  0
   39.8800   32.5370   46.1540 C   0  0  0  0  0  0  0  0  0  0  0  0
   38.9850   31.5040   46.3310 C   0  0  0  0  0  0  0  0  0  0  0  0
   39.0080   30.5230   45.3790 C   0  0  0  0  0  0  0  0  0  0  0  0
   39.8710   30.5490   44.2970 C   0  0  0  0  0  0  0  0  0  0  0  0
   40.7590   31.5920   44.1380 C   0  0  0  0  0  0  0  0  0  0  0  0
   40.7510   32.5890   45.0860 C   0  0  0  0  0  0  0  0  0  0  0  0
   37.6104   32.9204   50.5430 H   0  0  0  0  0  0  0  0  0  0  0  0
   39.2357   32.9993   48.6219 H   0  0  0  0  0  0  0  0  0  0  0  0
   34.5531   30.3780   46.4552 H   0  0  0  0  0  0  0  0  0  0  0  0
   32.5596   28.9048   46.2909 H   0  0  0  0  0  0  0  0  0  0  0  0
   33.2155   27.6792   50.3456 H   0  0  0  0  0  0  0  0  0  0  0  0
   38.3113   29.6774   45.4770 H   0  0  0  0  0  0  0  0  0  0  0  0
   39.8483   29.7330   43.5597 H   0  0  0  0  0  0  0  0  0  0  0  0
   41.4499   31.6257   43.2827 H   0  0  0  0  0  0  0  0  0  0  0  0
   41.4463   33.4361   44.9912 H   0  0  0  0  0  0  0  0  0  0  0  0
  2  1  2  0
  3  4  2  0
  3  2  1  0
  4  5  1  0
  5  6  2  0
  6  1  1  0
  8  7  1  0
  9  5  1  0
  9  8  2  0
 10  9  1  0
 11 10  2  0
 11 12  1  0
 12 13  1  0
 12 14  2  0
 14  8  1  0
 16 17  2  0
 16 15  1  0
 17  3  1  0
 18 17  1  0
 19 18  2  0
 20 19  1  0
 20 21  2  0
 21 16  1  0
  1 22  1  0
  2 23  1  0
 10 24  1  0
 11 25  1  0
 14 26  1  0
 18 27  1  0
 19 28  1  0
 20 29  1  0
 21 30  1  0
M  ISO  8  22  14  23  14  24  14  25  14  26  14  27  14  28  14  29  14
M  ISO  1  30  14
M  END
>  <minimizedAffinity>  (1) 
-6.69931412

>  <minimizedRMSD>  (1) 
1.30199611

$$$$
