
     RDKit          3D

 35 38  0  0  0  0  0  0  0  0999 V2000
   32.7940   27.6900   48.3890 C   0  0  0  0  0  0  0  0  0  0  0  0
   32.8300   26.7460   47.4340 C   0  0  0  0  0  0  0  0  0  0  0  0
   31.6610   26.0620   47.1910 C   0  0  0  0  0  0  0  0  0  0  0  0
   30.5090   26.3130   47.8750 N   0  0  0  0  0  0  0  0  0  0  0  0
   30.5780   27.2830   48.8150 C   0  0  0  0  0  0  0  0  0  0  0  0
   31.6860   27.9900   49.1050 N   0  0  0  0  0  0  0  0  0  0  0  0
   28.8040   29.2940   47.5690 Cl  0  0  0  0  0  0  0  0  0  0  0  0
   28.4270   28.4910   49.1010 C   0  0  0  0  0  0  0  0  0  0  0  0
   29.3540   27.5710   49.5610 C   0  0  0  0  0  0  0  0  0  0  0  0
   29.0960   26.9200   50.7570 C   0  0  0  0  0  0  0  0  0  0  0  0
   27.9230   27.1980   51.4680 C   0  0  0  0  0  0  0  0  0  0  0  0
   27.0270   28.1210   50.9740 C   0  0  0  0  0  0  0  0  0  0  0  0
   27.2710   28.7710   49.7920 C   0  0  0  0  0  0  0  0  0  0  0  0
   36.0330   30.1260   48.8390 C   0  0  0  0  0  0  0  0  0  0  0  0
   35.9040   29.2190   49.8040 C   0  0  0  0  0  0  0  0  0  0  0  0
   34.8470   28.3340   49.7670 C   0  0  0  0  0  0  0  0  0  0  0  0
   33.9960   28.4650   48.7120 C   0  0  0  0  0  0  0  0  0  0  0  0
   34.7130   29.8530   47.7800 S   0  0  0  0  0  0  0  0  0  0  0  0
   38.0230   33.1220   49.4220 C   0  0  0  0  0  0  0  0  0  0  0  0
   38.9690   33.1010   48.4030 C   0  0  0  0  0  0  0  0  0  0  0  0
   38.9180   32.0250   47.4870 C   0  0  0  0  0  0  0  0  0  0  0  0
   37.9510   31.0720   47.6530 N   0  0  0  0  0  0  0  0  0  0  0  0
   37.0680   31.1610   48.6690 C   0  0  0  0  0  0  0  0  0  0  0  0
   37.0880   32.1550   49.5430 N   0  0  0  0  0  0  0  0  0  0  0  0
   33.7509   26.5299   46.8725 H   0  0  0  0  0  0  0  0  0  0  0  0
   31.6560   25.2826   46.4148 H   0  0  0  0  0  0  0  0  0  0  0  0
   29.8140   26.1840   51.1479 H   0  0  0  0  0  0  0  0  0  0  0  0
   27.7172   26.6818   52.4173 H   0  0  0  0  0  0  0  0  0  0  0  0
   26.1058   28.3386   51.5343 H   0  0  0  0  0  0  0  0  0  0  0  0
   26.5522   29.5064   49.4014 H   0  0  0  0  0  0  0  0  0  0  0  0
   36.6348   29.1754   50.6250 H   0  0  0  0  0  0  0  0  0  0  0  0
   34.7002   27.5683   50.5430 H   0  0  0  0  0  0  0  0  0  0  0  0
   38.0366   33.9478   50.1485 H   0  0  0  0  0  0  0  0  0  0  0  0
   39.7284   33.8917   48.3129 H   0  0  0  0  0  0  0  0  0  0  0  0
   39.6396   31.9559   46.6597 H   0  0  0  0  0  0  0  0  0  0  0  0
  1 17  1  0
  1  6  1  0
  2  1  2  0
  3  2  1  0
  3  4  2  0
  4  5  1  0
  5  6  2  0
  5  9  1  0
  7  8  1  0
  8  9  2  0
  8 13  1  0
  9 10  1  0
 10 11  2  0
 12 11  1  0
 13 12  2  0
 14 15  2  0
 16 15  1  0
 17 16  2  0
 18 17  1  0
 18 14  1  0
 19 24  2  0
 20 19  1  0
 21 22  1  0
 21 20  2  0
 22 23  2  0
 23 14  1  0
 23 24  1  0
  2 25  1  0
  3 26  1  0
 10 27  1  0
 11 28  1  0
 12 29  1  0
 13 30  1  0
 15 31  1  0
 16 32  1  0
 19 33  1  0
 20 34  1  0
 21 35  1  0
M  ISO  8  25  14  26  14  27  14  28  14  29  14  30  14  31  14  32  14
M  ISO  3  33  14  34  14  35  14
M  END
>  <minimizedAffinity>  (1) 
-7.56486416

>  <minimizedRMSD>  (1) 
1.14755428

$$$$
