
     RDKit          3D

 41 45  0  0  0  0  0  0  0  0999 V2000
   38.1800   32.5840   49.3100 C   0  0  0  0  0  0  0  0  0  0  0  0
   38.8670   32.7200   48.0910 C   0  0  0  0  0  0  0  0  0  0  0  0
   38.4220   31.9320   47.0260 C   0  0  0  0  0  0  0  0  0  0  0  0
   37.3700   31.0850   47.2030 N   0  0  0  0  0  0  0  0  0  0  0  0
   36.7400   30.9950   48.4120 C   0  0  0  0  0  0  0  0  0  0  0  0
   37.1460   31.7360   49.4440 N   0  0  0  0  0  0  0  0  0  0  0  0
   35.6290   29.1250   49.5350 C   0  0  0  0  0  0  0  0  0  0  0  0
   35.6200   30.0660   48.5250 C   0  0  0  0  0  0  0  0  0  0  0  0
   34.5740   30.1180   47.6510 C   0  0  0  0  0  0  0  0  0  0  0  0
   33.5210   29.2450   47.7580 C   0  0  0  0  0  0  0  0  0  0  0  0
   32.3760   29.0800   47.0370 N   0  0  0  0  0  0  0  0  0  0  0  0
   31.7400   28.0490   47.6390 C   0  0  0  0  0  0  0  0  0  0  0  0
   32.4500   27.5960   48.6780 N   0  0  0  0  0  0  0  0  0  0  0  0
   33.5750   28.3250   48.7800 C   0  0  0  0  0  0  0  0  0  0  0  0
   34.5970   28.2260   49.6880 C   0  0  0  0  0  0  0  0  0  0  0  0
   39.0150   31.9430   45.6930 C   0  0  0  0  0  0  0  0  0  0  0  0
   39.5510   33.0530   45.0960 C   0  0  0  0  0  0  0  0  0  0  0  0
   40.1170   33.0940   43.8430 C   0  0  0  0  0  0  0  0  0  0  0  0
   40.1420   31.9490   43.1590 N   0  0  0  0  0  0  0  0  0  0  0  0
   39.6300   30.8330   43.7000 C   0  0  0  0  0  0  0  0  0  0  0  0
   39.0920   30.8400   44.9160 N   0  0  0  0  0  0  0  0  0  0  0  0
   40.7440   30.9880   40.8750 Cl  0  0  0  0  0  0  0  0  0  0  0  0
   40.1410   29.5530   41.6710 C   0  0  0  0  0  0  0  0  0  0  0  0
   39.6510   29.5640   42.9570 C   0  0  0  0  0  0  0  0  0  0  0  0
   39.1870   28.3840   43.5290 C   0  0  0  0  0  0  0  0  0  0  0  0
   39.2110   27.2050   42.8240 C   0  0  0  0  0  0  0  0  0  0  0  0
   39.6830   27.1270   41.5490 C   0  0  0  0  0  0  0  0  0  0  0  0
   40.1310   28.3280   41.0310 C   0  0  0  0  0  0  0  0  0  0  0  0
   38.4963   33.1860   50.1747 H   0  0  0  0  0  0  0  0  0  0  0  0
   39.7139   33.4132   47.9808 H   0  0  0  0  0  0  0  0  0  0  0  0
   36.4788   29.0925   50.2327 H   0  0  0  0  0  0  0  0  0  0  0  0
   34.5747   30.8707   46.8489 H   0  0  0  0  0  0  0  0  0  0  0  0
   32.0646   29.6198   46.2169 H   0  0  0  0  0  0  0  0  0  0  0  0
   30.7711   27.6391   47.3178 H   0  0  0  0  0  0  0  0  0  0  0  0
   34.5931   27.4738   50.4906 H   0  0  0  0  0  0  0  0  0  0  0  0
   39.5268   33.9925   45.6677 H   0  0  0  0  0  0  0  0  0  0  0  0
   40.5286   34.0248   43.4257 H   0  0  0  0  0  0  0  0  0  0  0  0
   38.7965   28.3949   44.5573 H   0  0  0  0  0  0  0  0  0  0  0  0
   38.8353   26.2909   43.3070 H   0  0  0  0  0  0  0  0  0  0  0  0
   39.7059   26.1867   40.9787 H   0  0  0  0  0  0  0  0  0  0  0  0
   40.5200   28.3064   40.0023 H   0  0  0  0  0  0  0  0  0  0  0  0
  1  6  2  0
  2  1  1  0
  3  4  1  0
  3  2  2  0
  4  5  2  0
  5  8  1  0
  5  6  1  0
  7 15  2  0
  8  7  1  0
  9 10  1  0
  9  8  2  0
 10 14  2  0
 11 12  1  0
 11 10  1  0
 12 13  2  0
 13 14  1  0
 14 15  1  0
 16  3  1  0
 17 16  2  0
 18 17  1  0
 19 20  1  0
 19 18  2  0
 20 21  2  0
 21 16  1  0
 22 23  1  0
 23 24  2  0
 24 25  1  0
 24 20  1  0
 26 25  2  0
 27 26  1  0
 28 27  2  0
 28 23  1  0
  1 29  1  0
  2 30  1  0
  7 31  1  0
  9 32  1  0
 11 33  1  0
 12 34  1  0
 15 35  1  0
 17 36  1  0
 18 37  1  0
 25 38  1  0
 26 39  1  0
 27 40  1  0
 28 41  1  0
M  END
>  <minimizedAffinity>  (1) 
-7.48907232

>  <minimizedRMSD>  (1) 
1.9014523

$$$$
