
     RDKit          3D

 44 48  0  0  0  0  0  0  0  0999 V2000
   34.4120   28.1080   48.1080 C   0  0  0  0  0  0  0  0  0  0  0  0
   32.9310   28.1940   47.7910 C   0  0  0  0  0  0  0  0  0  0  0  0
   31.9130   27.4130   48.2860 C   0  0  0  0  0  0  0  0  0  0  0  0
   30.7150   27.8360   47.7250 C   0  0  0  0  0  0  0  0  0  0  0  0
   31.0530   28.8660   46.9050 N   0  0  0  0  0  0  0  0  0  0  0  0
   32.3520   29.0680   46.9500 N   0  0  0  0  0  0  0  0  0  0  0  0
   28.6910   29.2980   46.2220 N   0  0  0  0  0  0  0  0  0  0  0  0
   30.0110   29.5100   46.1820 C   0  0  0  0  0  0  0  0  0  0  0  0
   30.2120   30.5070   45.2780 N   0  0  0  0  0  0  0  0  0  0  0  0
   29.0530   30.9080   44.7660 C   0  0  0  0  0  0  0  0  0  0  0  0
   28.7680   31.8710   43.8350 C   0  0  0  0  0  0  0  0  0  0  0  0
   27.4870   32.0890   43.4760 N   0  0  0  0  0  0  0  0  0  0  0  0
   26.5040   31.3400   44.0560 C   0  0  0  0  0  0  0  0  0  0  0  0
   26.7890   30.3800   44.9860 N   0  0  0  0  0  0  0  0  0  0  0  0
   28.0700   30.1540   45.3500 C   0  0  0  0  0  0  0  0  0  0  0  0
   34.5260   28.4200   49.5770 C   0  0  0  0  0  0  0  0  0  0  0  0
   37.3530   30.0690   51.2960 C   0  0  0  0  0  0  0  0  0  0  0  0
   38.0230   30.6660   50.2220 C   0  0  0  0  0  0  0  0  0  0  0  0
   37.5070   30.5030   48.9010 C   0  0  0  0  0  0  0  0  0  0  0  0
   36.3810   29.7710   48.7470 N   0  0  0  0  0  0  0  0  0  0  0  0
   35.7620   29.2080   49.8290 C   0  0  0  0  0  0  0  0  0  0  0  0
   36.2380   29.3550   51.0660 N   0  0  0  0  0  0  0  0  0  0  0  0
   38.3630   33.4420   49.3310 Cl  0  0  0  0  0  0  0  0  0  0  0  0
   38.7470   32.4390   47.9650 C   0  0  0  0  0  0  0  0  0  0  0  0
   38.3040   31.1400   47.8910 C   0  0  0  0  0  0  0  0  0  0  0  0
   38.6910   30.5290   46.7400 C   0  0  0  0  0  0  0  0  0  0  0  0
   39.4370   31.1110   45.7490 C   0  0  0  0  0  0  0  0  0  0  0  0
   39.8600   32.4140   45.8610 C   0  0  0  0  0  0  0  0  0  0  0  0
   39.4970   33.0950   47.0170 C   0  0  0  0  0  0  0  0  0  0  0  0
   34.9759   28.8422   47.5139 H   0  0  0  0  0  0  0  0  0  0  0  0
   34.8247   27.1172   47.8673 H   0  0  0  0  0  0  0  0  0  0  0  0
   32.0284   26.5900   49.0066 H   0  0  0  0  0  0  0  0  0  0  0  0
   29.7102   27.4262   47.9052 H   0  0  0  0  0  0  0  0  0  0  0  0
   28.2163   28.6017   46.8143 H   0  0  0  0  0  0  0  0  0  0  0  0
   29.5783   32.4622   43.3835 H   0  0  0  0  0  0  0  0  0  0  0  0
   25.4567   31.5135   43.7677 H   0  0  0  0  0  0  0  0  0  0  0  0
   33.6495   29.0032   49.8958 H   0  0  0  0  0  0  0  0  0  0  0  0
   34.5718   27.4797   50.1461 H   0  0  0  0  0  0  0  0  0  0  0  0
   37.7362   30.1834   52.3207 H   0  0  0  0  0  0  0  0  0  0  0  0
   38.9366   31.2540   50.3938 H   0  0  0  0  0  0  0  0  0  0  0  0
   38.3805   29.4841   46.5925 H   0  0  0  0  0  0  0  0  0  0  0  0
   39.7004   30.5289   44.8536 H   0  0  0  0  0  0  0  0  0  0  0  0
   40.4577   32.8952   45.0728 H   0  0  0  0  0  0  0  0  0  0  0  0
   39.8041   34.1400   47.1709 H   0  0  0  0  0  0  0  0  0  0  0  0
  1 16  1  0
  2  1  1  0
  2  3  1  0
  4  3  2  0
  5  6  1  0
  5  4  1  0
  6  2  2  0
  8  7  1  0
  8  5  1  0
  9  8  2  0
 10  9  1  0
 10 15  2  0
 11 10  1  0
 12 11  2  0
 12 13  1  0
 13 14  2  0
 14 15  1  0
 15  7  1  0
 16 21  1  0
 18 17  2  0
 19 18  1  0
 20 19  2  0
 20 21  1  0
 21 22  2  0
 22 17  1  0
 24 23  1  0
 25 24  2  0
 25 19  1  0
 26 25  1  0
 27 28  1  0
 27 26  2  0
 28 29  2  0
 29 24  1  0
  1 30  1  0
  1 31  1  0
  3 32  1  0
  4 33  1  0
  7 34  1  0
 11 35  1  0
 13 36  1  0
 16 37  1  0
 16 38  1  0
 17 39  1  0
 18 40  1  0
 26 41  1  0
 27 42  1  0
 28 43  1  0
 29 44  1  0
M  ISO  8  30   8  31   8  32  14  33  14  34   9  35  14  36  14  37   8
M  ISO  7  38   8  39  14  40  14  41  14  42  14  43  14  44  14
M  END
>  <minimizedAffinity>  (1) 
-7.57512236

>  <minimizedRMSD>  (1) 
0.391282469

$$$$
