
     RDKit          3D

 42 45  0  0  0  0  0  0  0  0999 V2000
   38.3340   32.2320   47.4340 C   0  0  0  0  0  0  0  0  0  0  0  0
   38.1600   32.1130   48.8040 C   0  0  0  0  0  0  0  0  0  0  0  0
   38.8490   33.0330   49.5710 C   0  0  0  0  0  0  0  0  0  0  0  0
   39.6620   34.0080   48.9810 C   0  0  0  0  0  0  0  0  0  0  0  0
   39.7900   34.0710   47.6120 C   0  0  0  0  0  0  0  0  0  0  0  0
   39.1130   33.1670   46.8290 C   0  0  0  0  0  0  0  0  0  0  0  0
   35.9400   31.2170   49.3460 C   0  0  0  0  0  0  0  0  0  0  0  0
   37.3290   31.1150   49.4000 C   0  0  0  0  0  0  0  0  0  0  0  0
   37.8540   29.9920   50.0630 C   0  0  0  0  0  0  0  0  0  0  0  0
   37.0030   29.0820   50.6050 N   0  0  0  0  0  0  0  0  0  0  0  0
   35.6640   29.2310   50.5230 C   0  0  0  0  0  0  0  0  0  0  0  0
   35.1220   30.2980   49.8930 N   0  0  0  0  0  0  0  0  0  0  0  0
   37.6750   31.3440   46.5710 O   0  0  0  0  0  0  0  0  0  0  0  0
   39.2550   33.2440   45.4330 O   0  0  0  0  0  0  0  0  0  0  0  0
   37.0310   32.5300   43.5040 Cl  0  0  0  0  0  0  0  0  0  0  0  0
   38.5510   31.6600   43.6440 C   0  0  0  0  0  0  0  0  0  0  0  0
   39.4320   32.1670   44.6020 C   0  0  0  0  0  0  0  0  0  0  0  0
   40.6400   31.5070   44.7420 C   0  0  0  0  0  0  0  0  0  0  0  0
   40.9940   30.4070   43.9960 C   0  0  0  0  0  0  0  0  0  0  0  0
   40.1110   29.9160   43.0490 C   0  0  0  0  0  0  0  0  0  0  0  0
   38.8960   30.5570   42.8900 C   0  0  0  0  0  0  0  0  0  0  0  0
   38.8810   31.7770   40.0890 Cl  0  0  0  0  0  0  0  0  0  0  0  0
   37.7020   30.6050   40.6390 C   0  0  0  0  0  0  0  0  0  0  0  0
   37.8630   30.1600   41.9370 C   0  0  0  0  0  0  0  0  0  0  0  0
   36.9930   29.2330   42.4890 C   0  0  0  0  0  0  0  0  0  0  0  0
   35.9380   28.7400   41.7190 C   0  0  0  0  0  0  0  0  0  0  0  0
   35.8020   29.2010   40.4270 C   0  0  0  0  0  0  0  0  0  0  0  0
   36.6620   30.1250   39.8690 C   0  0  0  0  0  0  0  0  0  0  0  0
   38.7568   32.9986   50.6666 H   0  0  0  0  0  0  0  0  0  0  0  0
   40.2013   34.7274   49.6147 H   0  0  0  0  0  0  0  0  0  0  0  0
   40.4283   34.8379   47.1489 H   0  0  0  0  0  0  0  0  0  0  0  0
   35.4940   32.0835   48.8358 H   0  0  0  0  0  0  0  0  0  0  0  0
   38.9421   29.8515   50.1421 H   0  0  0  0  0  0  0  0  0  0  0  0
   35.0050   28.4747   50.9745 H   0  0  0  0  0  0  0  0  0  0  0  0
   37.7956   31.4243   45.5917 H   0  0  0  0  0  0  0  0  0  0  0  0
   41.3549   31.8818   45.4893 H   0  0  0  0  0  0  0  0  0  0  0  0
   41.9692   29.9220   44.1502 H   0  0  0  0  0  0  0  0  0  0  0  0
   40.3695   29.0382   42.4386 H   0  0  0  0  0  0  0  0  0  0  0  0
   37.1325   28.8888   43.5244 H   0  0  0  0  0  0  0  0  0  0  0  0
   35.2337   28.0030   42.1324 H   0  0  0  0  0  0  0  0  0  0  0  0
   34.9730   28.8161   39.8149 H   0  0  0  0  0  0  0  0  0  0  0  0
   36.5218   30.4710   38.8343 H   0  0  0  0  0  0  0  0  0  0  0  0
  1  2  2  0
  2  8  1  0
  2  3  1  0
  4  3  2  0
  5  4  1  0
  6  1  1  0
  6  5  2  0
  7  8  2  0
  7 12  1  0
  8  9  1  0
  9 10  2  0
 11 10  1  0
 12 11  2  0
 13  1  1  0
 14  6  1  0
 15 16  1  0
 16 17  2  0
 17 18  1  0
 17 14  1  0
 19 18  2  0
 20 19  1  0
 21 20  2  0
 21 16  1  0
 22 23  1  0
 23 24  2  0
 24 25  1  0
 24 21  1  0
 26 25  2  0
 27 26  1  0
 28 27  2  0
 28 23  1  0
  3 29  1  0
  4 30  1  0
  5 31  1  0
  7 32  1  0
  9 33  1  0
 11 34  1  0
 13 35  1  0
 18 36  1  0
 19 37  1  0
 20 38  1  0
 25 39  1  0
 26 40  1  0
 27 41  1  0
 28 42  1  0
M  ISO  8  29  14  30  14  31  14  32  14  33  14  34  14  35   3  36  14
M  ISO  6  37  14  38  14  39  14  40  14  41  14  42  14
M  END
>  <minimizedAffinity>  (1) 
-5.5341897

>  <minimizedRMSD>  (1) 
0.372366577

$$$$
