
     RDKit          3D

 35 37  0  0  0  0  0  0  0  0999 V2000
   32.4420   28.1950   47.4530 N   0  0  0  0  0  0  0  0  0  0  0  0
   33.5580   27.4350   47.9390 C   0  0  0  0  0  0  0  0  0  0  0  0
   34.8020   28.1270   48.2560 C   0  0  0  0  0  0  0  0  0  0  0  0
   35.0710   29.4060   47.5190 C   0  0  0  0  0  0  0  0  0  0  0  0
   33.8680   30.1040   46.9900 C   0  0  0  0  0  0  0  0  0  0  0  0
   32.9140   29.0540   46.3950 C   0  0  0  0  0  0  0  0  0  0  0  0
   31.0930   28.1260   47.9250 C   0  0  0  0  0  0  0  0  0  0  0  0
   29.9580   28.4680   47.1750 C   0  0  0  0  0  0  0  0  0  0  0  0
   28.7330   28.3330   47.8070 C   0  0  0  0  0  0  0  0  0  0  0  0
   28.6710   27.8880   49.0900 N   0  0  0  0  0  0  0  0  0  0  0  0
   29.7910   27.5720   49.7740 C   0  0  0  0  0  0  0  0  0  0  0  0
   30.9970   27.6910   49.1880 N   0  0  0  0  0  0  0  0  0  0  0  0
   34.4960   30.5070   50.3690 Cl  0  0  0  0  0  0  0  0  0  0  0  0
   35.8950   30.8720   49.4240 C   0  0  0  0  0  0  0  0  0  0  0  0
   36.0340   30.3030   48.1740 C   0  0  0  0  0  0  0  0  0  0  0  0
   37.2340   30.6990   47.5640 C   0  0  0  0  0  0  0  0  0  0  0  0
   38.1950   31.5400   48.0810 C   0  0  0  0  0  0  0  0  0  0  0  0
   37.9580   32.0530   49.3350 C   0  0  0  0  0  0  0  0  0  0  0  0
   36.8190   31.7210   49.9970 C   0  0  0  0  0  0  0  0  0  0  0  0
   33.2275   26.9294   48.8583 H   0  0  0  0  0  0  0  0  0  0  0  0
   33.8255   26.7883   47.0904 H   0  0  0  0  0  0  0  0  0  0  0  0
   34.7893   28.3588   49.3312 H   0  0  0  0  0  0  0  0  0  0  0  0
   35.6017   27.4401   47.9421 H   0  0  0  0  0  0  0  0  0  0  0  0
   35.5885   29.0531   46.6148 H   0  0  0  0  0  0  0  0  0  0  0  0
   33.3637   30.6431   47.8055 H   0  0  0  0  0  0  0  0  0  0  0  0
   34.1630   30.8263   46.2146 H   0  0  0  0  0  0  0  0  0  0  0  0
   32.0594   29.5589   45.9210 H   0  0  0  0  0  0  0  0  0  0  0  0
   33.4445   28.4558   45.6395 H   0  0  0  0  0  0  0  0  0  0  0  0
   30.0369   28.8253   46.1376 H   0  0  0  0  0  0  0  0  0  0  0  0
   27.8076   28.5866   47.2692 H   0  0  0  0  0  0  0  0  0  0  0  0
   29.7180   27.2165   50.8124 H   0  0  0  0  0  0  0  0  0  0  0  0
   37.4293   30.2925   46.5607 H   0  0  0  0  0  0  0  0  0  0  0  0
   39.1070   31.7890   47.5186 H   0  0  0  0  0  0  0  0  0  0  0  0
   38.6889   32.7304   49.8007 H   0  0  0  0  0  0  0  0  0  0  0  0
   36.6318   32.1332   50.9995 H   0  0  0  0  0  0  0  0  0  0  0  0
  1  7  1  0
  1  2  1  0
  2  3  1  0
  4 15  1  0
  4  3  1  0
  5  4  1  0
  6  5  1  0
  6  1  1  0
  7 12  2  0
  8  9  2  0
  8  7  1  0
  9 10  1  0
 10 11  2  0
 12 11  1  0
 14 19  2  0
 14 13  1  0
 15 14  1  0
 16 17  1  0
 16 15  2  0
 17 18  2  0
 18 19  1  0
  2 20  1  0
  2 21  1  0
  3 22  1  0
  3 23  1  0
  4 24  1  0
  5 25  1  0
  5 26  1  0
  6 27  1  0
  6 28  1  0
  8 29  1  0
  9 30  1  0
 11 31  1  0
 16 32  1  0
 17 33  1  0
 18 34  1  0
 19 35  1  0
M  ISO  8  20  13  21  13  22  13  23  13  24  13  25  13  26  13  27  13
M  ISO  8  28  13  29  14  30  14  31  14  32  14  33  14  34  14  35  14
M  END
>  <minimizedAffinity>  (1) 
-5.59323406

>  <minimizedRMSD>  (1) 
4.43513536

$$$$
