
     RDKit          3D

 27 29  0  0  1  0  0  0  0  0999 V2000
   36.3310   31.1180   49.3720 C   0  0  1  0  0  0  0  0  0  0  0  0
   37.4020   30.8280   50.3280 C   0  0  0  0  0  0  0  0  0  0  0  0
   37.7540   30.9890   48.8800 C   0  0  2  0  0  0  0  0  0  0  0  0
   35.2950   28.8290   49.7320 C   0  0  0  0  0  0  0  0  0  0  0  0
   35.3560   30.0470   48.9830 C   0  0  0  0  0  0  0  0  0  0  0  0
   34.5030   30.2040   47.8920 C   0  0  0  0  0  0  0  0  0  0  0  0
   33.6560   29.1850   47.6000 N   0  0  0  0  0  0  0  0  0  0  0  0
   33.6050   28.0380   48.3120 C   0  0  0  0  0  0  0  0  0  0  0  0
   34.4280   27.8650   49.3790 N   0  0  0  0  0  0  0  0  0  0  0  0
   38.9730   30.9590   46.1190 Cl  0  0  0  0  0  0  0  0  0  0  0  0
   39.1300   32.1850   47.3400 C   0  0  0  0  0  0  0  0  0  0  0  0
   38.5670   32.1880   48.5970 C   0  0  0  0  0  0  0  0  0  0  0  0
   38.8060   33.2580   49.4330 C   0  0  0  0  0  0  0  0  0  0  0  0
   39.5860   34.3240   49.0600 C   0  0  0  0  0  0  0  0  0  0  0  0
   40.1600   34.3280   47.7860 C   0  0  0  0  0  0  0  0  0  0  0  0
   39.9240   33.2500   46.9320 C   0  0  0  0  0  0  0  0  0  0  0  0
   35.5444   31.8852   49.3199 H   0  0  0  0  0  0  0  0  0  0  0  0
   37.7093   31.5955   51.0536 H   0  0  0  0  0  0  0  0  0  0  0  0
   37.5719   30.0425   51.0791 H   0  0  0  0  0  0  0  0  0  0  0  0
   38.2153   30.4063   48.0690 H   0  0  0  0  0  0  0  0  0  0  0  0
   35.9582   28.6819   50.5971 H   0  0  0  0  0  0  0  0  0  0  0  0
   34.5160   31.1232   47.2879 H   0  0  0  0  0  0  0  0  0  0  0  0
   32.8977   27.2448   48.0281 H   0  0  0  0  0  0  0  0  0  0  0  0
   38.3548   33.2573   50.4362 H   0  0  0  0  0  0  0  0  0  0  0  0
   39.7565   35.1614   49.7526 H   0  0  0  0  0  0  0  0  0  0  0  0
   40.7893   35.1695   47.4607 H   0  0  0  0  0  0  0  0  0  0  0  0
   40.3705   33.2432   45.9267 H   0  0  0  0  0  0  0  0  0  0  0  0
  1  2  1  0
  3  1  1  0
  3  2  1  0
  5  1  1  0
  5  4  2  0
  6  5  1  0
  7  6  2  0
  7  8  1  0
  8  9  2  0
  9  4  1  0
 10 11  1  0
 11 12  2  0
 12  3  1  0
 12 13  1  0
 14 13  2  0
 15 14  1  0
 16 11  1  0
 16 15  2  0
  1 17  1  1
  2 18  1  0
  2 19  1  0
  3 20  1  6
  4 21  1  0
  6 22  1  0
  8 23  1  0
 13 24  1  0
 14 25  1  0
 15 26  1  0
 16 27  1  0
M  ISO  8  17  13  18  13  19  13  20  13  21  14  22  14  23  14  24  14
M  ISO  3  25  14  26  14  27  14
M  END
>  <minimizedAffinity>  (1) 
-5.97101974

>  <minimizedRMSD>  (1) 
6.08829927

$$$$
