
     RDKit          3D

 42 45  0  0  1  0  0  0  0  0999 V2000
   37.8970   31.6180   45.2610 C   0  0  0  0  0  0  0  0  0  0  0  0
   36.8600   30.9380   45.4480 O   0  0  0  0  0  0  0  0  0  0  0  0
   38.4090   32.5080   46.2940 N   0  0  0  0  0  0  0  0  0  0  0  0
   38.6470   31.5490   43.9880 C   0  0  0  0  0  0  0  0  0  0  0  0
   39.8110   30.8360   43.9460 C   0  0  0  0  0  0  0  0  0  0  0  0
   40.4930   30.7900   42.7420 C   0  0  0  0  0  0  0  0  0  0  0  0
   39.9540   31.4660   41.6630 C   0  0  0  0  0  0  0  0  0  0  0  0
   38.7650   32.1920   41.7080 C   0  0  0  0  0  0  0  0  0  0  0  0
   38.1570   32.1960   42.9010 N   0  0  0  0  0  0  0  0  0  0  0  0
   38.2580   32.8780   40.5300 C   0  0  0  0  0  0  0  0  0  0  0  0
   38.8200   33.9330   40.1590 O   0  0  0  0  0  0  0  0  0  0  0  0
   35.8410   34.3460   41.3170 Cl  0  0  0  0  0  0  0  0  0  0  0  0
   35.9580   33.0620   40.1310 C   0  0  0  0  0  0  0  0  0  0  0  0
   37.1110   32.3720   39.7670 C   0  0  0  0  0  0  0  0  0  0  0  0
   37.0610   31.3890   38.8250 C   0  0  0  0  0  0  0  0  0  0  0  0
   35.8570   31.0750   38.2280 C   0  0  0  0  0  0  0  0  0  0  0  0
   34.6840   31.7520   38.5760 C   0  0  0  0  0  0  0  0  0  0  0  0
   34.7300   32.7530   39.5340 C   0  0  0  0  0  0  0  0  0  0  0  0
   38.4620   31.4570   48.5390 C   0  0  2  0  0  0  0  0  0  0  0  0
   38.7720   32.8980   48.7360 C   0  0  0  0  0  0  0  0  0  0  0  0
   37.8560   32.3610   47.6170 C   0  0  1  0  0  0  0  0  0  0  0  0
   35.6600   29.4860   49.9910 C   0  0  0  0  0  0  0  0  0  0  0  0
   36.0670   29.3760   51.3630 C   0  0  0  0  0  0  0  0  0  0  0  0
   37.3140   30.0010   51.7570 C   0  0  0  0  0  0  0  0  0  0  0  0
   38.0520   30.6680   50.8180 N   0  0  0  0  0  0  0  0  0  0  0  0
   37.5960   30.7250   49.5430 C   0  0  0  0  0  0  0  0  0  0  0  0
   36.4130   30.1520   49.0900 N   0  0  0  0  0  0  0  0  0  0  0  0
   39.1335   33.2107   46.0884 H   0  0  0  0  0  0  0  0  0  0  0  0
   40.1932   30.3166   44.8372 H   0  0  0  0  0  0  0  0  0  0  0  0
   41.4361   30.2319   42.6466 H   0  0  0  0  0  0  0  0  0  0  0  0
   40.4984   31.4285   40.7079 H   0  0  0  0  0  0  0  0  0  0  0  0
   37.9760   30.8482   38.5416 H   0  0  0  0  0  0  0  0  0  0  0  0
   35.8196   30.2810   37.4677 H   0  0  0  0  0  0  0  0  0  0  0  0
   33.7307   31.4919   38.0926 H   0  0  0  0  0  0  0  0  0  0  0  0
   33.8169   33.2954   39.8203 H   0  0  0  0  0  0  0  0  0  0  0  0
   39.0915   30.5628   48.4200 H   0  0  0  0  0  0  0  0  0  0  0  0
   38.3503   33.4505   49.5886 H   0  0  0  0  0  0  0  0  0  0  0  0
   39.6770   33.5200   48.7992 H   0  0  0  0  0  0  0  0  0  0  0  0
   36.8175   32.4970   47.2808 H   0  0  0  0  0  0  0  0  0  0  0  0
   34.7177   29.0193   49.6680 H   0  0  0  0  0  0  0  0  0  0  0  0
   35.4503   28.8330   52.0944 H   0  0  0  0  0  0  0  0  0  0  0  0
   37.6627   29.9397   52.7985 H   0  0  0  0  0  0  0  0  0  0  0  0
  1  2  2  0
  1  3  1  0
  3 21  1  0
  4  1  1  0
  5  4  2  0
  6  5  1  0
  7  8  1  0
  7  6  2  0
  8  9  2  0
  9  4  1  0
 10  8  1  0
 11 10  2  0
 13 12  1  0
 14 13  2  0
 14 10  1  0
 15 14  1  0
 16 17  1  0
 16 15  2  0
 17 18  2  0
 18 13  1  0
 19 20  1  0
 19 26  1  0
 21 19  1  0
 21 20  1  0
 22 23  2  0
 23 24  1  0
 25 24  2  0
 26 25  1  0
 27 26  2  0
 27 22  1  0
  3 28  1  0
  5 29  1  0
  6 30  1  0
  7 31  1  0
 15 32  1  0
 16 33  1  0
 17 34  1  0
 18 35  1  0
 19 36  1  6
 20 37  1  0
 20 38  1  0
 21 39  1  6
 22 40  1  0
 23 41  1  0
 24 42  1  0
M  ISO  8  29  14  30  14  31  14  32  14  33  14  34  14  35  14  36  13
M  ISO  6  37  13  38  13  39  13  40  14  41  14  42  14
M  END
>  <minimizedAffinity>  (1) 
-5.47103786

>  <minimizedRMSD>  (1) 
2.33585453

$$$$
