
     RDKit          3D

 42 44  0  0  1  0  0  0  0  0999 V2000
   37.0160   30.9260   49.0480 C   0  0  0  0  0  0  0  0  0  0  0  0
   36.6800   31.8170   50.0690 C   0  0  0  0  0  0  0  0  0  0  0  0
   37.2570   33.0740   50.1630 C   0  0  0  0  0  0  0  0  0  0  0  0
   38.2030   33.4680   49.2110 C   0  0  0  0  0  0  0  0  0  0  0  0
   38.5230   32.5880   48.2160 C   0  0  0  0  0  0  0  0  0  0  0  0
   37.9250   31.3390   48.1560 C   0  0  0  0  0  0  0  0  0  0  0  0
   36.4380   29.6020   48.9670 C   0  0  2  0  0  0  0  0  0  0  0  0
   33.6280   30.0660   46.7090 C   0  0  0  0  0  0  0  0  0  0  0  0
   32.9280   28.8790   46.7970 C   0  0  0  0  0  0  0  0  0  0  0  0
   33.3800   27.9220   47.6850 C   0  0  0  0  0  0  0  0  0  0  0  0
   34.5010   28.1800   48.4450 N   0  0  0  0  0  0  0  0  0  0  0  0
   35.1260   29.3310   48.3120 C   0  0  0  0  0  0  0  0  0  0  0  0
   34.6980   30.2810   47.4510 N   0  0  0  0  0  0  0  0  0  0  0  0
   36.8690   28.8200   49.8900 O   0  0  0  0  0  0  0  0  0  0  0  0
   38.3780   30.4970   47.0730 C   0  0  0  0  0  0  0  0  0  0  0  0
   38.4620   30.8980   45.8000 C   0  0  0  0  0  0  0  0  0  0  0  0
   38.9540   30.1410   44.6250 C   0  0  0  0  0  0  0  0  0  0  0  0
   40.4780   30.8760   44.0240 S   0  0  0  0  0  0  0  0  0  0  0  0
   39.2530   32.4690   41.6810 Cl  0  0  0  0  0  0  0  0  0  0  0  0
   40.2040   31.0110   41.4000 C   0  0  0  0  0  0  0  0  0  0  0  0
   40.7870   30.2380   42.3830 C   0  0  0  0  0  0  0  0  0  0  0  0
   41.5120   29.1140   42.0490 C   0  0  0  0  0  0  0  0  0  0  0  0
   41.6410   28.7780   40.7060 C   0  0  0  0  0  0  0  0  0  0  0  0
   41.0560   29.5560   39.7320 C   0  0  0  0  0  0  0  0  0  0  0  0
   40.3250   30.6870   40.0470 C   0  0  0  0  0  0  0  0  0  0  0  0
   35.9362   31.5129   50.8202 H   0  0  0  0  0  0  0  0  0  0  0  0
   36.9735   33.7553   50.9788 H   0  0  0  0  0  0  0  0  0  0  0  0
   38.6765   34.4595   49.2620 H   0  0  0  0  0  0  0  0  0  0  0  0
   39.2633   32.8739   47.4542 H   0  0  0  0  0  0  0  0  0  0  0  0
   36.8505   29.2475   48.0109 H   0  0  0  0  0  0  0  0  0  0  0  0
   33.2886   30.8443   46.0097 H   0  0  0  0  0  0  0  0  0  0  0  0
   32.0364   28.7006   46.1780 H   0  0  0  0  0  0  0  0  0  0  0  0
   32.8504   26.9631   47.7847 H   0  0  0  0  0  0  0  0  0  0  0  0
   36.6559   29.2066   50.7762 H   0  0  0  0  0  0  0  0  0  0  0  0
   38.6715   29.4637   47.3098 H   0  0  0  0  0  0  0  0  0  0  0  0
   38.1212   31.9243   45.5988 H   0  0  0  0  0  0  0  0  0  0  0  0
   39.1417   29.0968   44.9156 H   0  0  0  0  0  0  0  0  0  0  0  0
   38.1960   30.1730   43.8285 H   0  0  0  0  0  0  0  0  0  0  0  0
   41.9791   28.4953   42.8294 H   0  0  0  0  0  0  0  0  0  0  0  0
   42.2146   27.8842   40.4195 H   0  0  0  0  0  0  0  0  0  0  0  0
   41.1731   29.2706   38.6762 H   0  0  0  0  0  0  0  0  0  0  0  0
   39.8589   31.3048   39.2653 H   0  0  0  0  0  0  0  0  0  0  0  0
  1  2  2  0
  2  3  1  0
  4  3  2  0
  5  4  1  0
  6  5  2  0
  6  1  1  0
  7  1  1  0
  7 14  1  0
  8  9  2  0
  8 13  1  0
  9 10  1  0
 10 11  2  0
 12 11  1  0
 12  7  1  0
 13 12  2  0
 15  6  1  0
 16 15  2  0
 17 16  1  0
 18 17  1  0
 20 19  1  0
 20 21  2  0
 21 18  1  0
 22 21  1  0
 23 22  2  0
 24 25  2  0
 24 23  1  0
 25 20  1  0
  2 26  1  0
  3 27  1  0
  4 28  1  0
  5 29  1  0
  7 30  1  6
  8 31  1  0
  9 32  1  0
 10 33  1  0
 14 34  1  0
 15 35  1  0
 16 36  1  0
 17 37  1  0
 17 38  1  0
 22 39  1  0
 23 40  1  0
 24 41  1  0
 25 42  1  0
M  ISO  8  26  14  27  14  28  14  29  14  30   8  31  14  32  14  33  14
M  ISO  7  34   3  37   8  38   8  39  14  40  14  41  14  42  14
M  END
>  <minimizedAffinity>  (1) 
-6.1340189

>  <minimizedRMSD>  (1) 
0.990753055

$$$$
