
     RDKit          3D

 27 29  0  0  0  0  0  0  0  0999 V2000
   36.2210   30.3680   47.4990 C   0  0  0  0  0  0  0  0  0  0  0  0
   35.5330   29.9430   46.3620 C   0  0  0  0  0  0  0  0  0  0  0  0
   36.1670   30.4920   45.2570 C   0  0  0  0  0  0  0  0  0  0  0  0
   37.1990   31.2190   45.7330 N   0  0  0  0  0  0  0  0  0  0  0  0
   37.2030   31.1250   47.0510 N   0  0  0  0  0  0  0  0  0  0  0  0
   36.7690   29.7770   49.8750 C   0  0  0  0  0  0  0  0  0  0  0  0
   35.8300   29.9820   48.8420 C   0  0  0  0  0  0  0  0  0  0  0  0
   34.4880   29.8030   49.1440 C   0  0  0  0  0  0  0  0  0  0  0  0
   34.1410   29.4400   50.4110 N   0  0  0  0  0  0  0  0  0  0  0  0
   35.0820   29.2540   51.3790 C   0  0  0  0  0  0  0  0  0  0  0  0
   36.3860   29.4210   51.1120 N   0  0  0  0  0  0  0  0  0  0  0  0
   39.1430   32.2710   47.7050 Cl  0  0  0  0  0  0  0  0  0  0  0  0
   39.1970   32.5660   45.9950 C   0  0  0  0  0  0  0  0  0  0  0  0
   38.2250   32.0170   45.1520 C   0  0  0  0  0  0  0  0  0  0  0  0
   38.2200   32.2200   43.7850 C   0  0  0  0  0  0  0  0  0  0  0  0
   39.2370   33.0070   43.2490 C   0  0  0  0  0  0  0  0  0  0  0  0
   40.2210   33.5680   44.0470 C   0  0  0  0  0  0  0  0  0  0  0  0
   40.2070   33.3510   45.4270 C   0  0  0  0  0  0  0  0  0  0  0  0
   34.6477   29.2904   46.3449 H   0  0  0  0  0  0  0  0  0  0  0  0
   35.8844   30.3606   44.2021 H   0  0  0  0  0  0  0  0  0  0  0  0
   37.8397   29.9119   49.6622 H   0  0  0  0  0  0  0  0  0  0  0  0
   33.7168   29.9515   48.3738 H   0  0  0  0  0  0  0  0  0  0  0  0
   34.7682   28.9632   52.3924 H   0  0  0  0  0  0  0  0  0  0  0  0
   37.4429   31.7772   43.1447 H   0  0  0  0  0  0  0  0  0  0  0  0
   39.2594   33.1877   42.1642 H   0  0  0  0  0  0  0  0  0  0  0  0
   41.0124   34.1836   43.5944 H   0  0  0  0  0  0  0  0  0  0  0  0
   40.9861   33.7950   46.0642 H   0  0  0  0  0  0  0  0  0  0  0  0
  1  7  1  0
  2  1  1  0
  3  4  1  0
  3  2  2  0
  4  5  1  0
  5  1  2  0
  6 11  2  0
  7  8  2  0
  7  6  1  0
  8  9  1  0
  9 10  2  0
 11 10  1  0
 13 12  1  0
 14  4  1  0
 14 13  2  0
 15 14  1  0
 16 15  2  0
 16 17  1  0
 17 18  2  0
 18 13  1  0
  2 19  1  0
  3 20  1  0
  6 21  1  0
  8 22  1  0
 10 23  1  0
 15 24  1  0
 16 25  1  0
 17 26  1  0
 18 27  1  0
M  ISO  8  19  14  20  14  21  14  22  14  23  14  24  14  25  14  26  14
M  ISO  1  27  14
M  END
>  <minimizedAffinity>  (1) 
-5.08230877

>  <minimizedRMSD>  (1) 
4.0771594

$$$$
