
     RDKit          3D

 27 28  0  0  0  0  0  0  0  0999 V2000
   37.9670   30.4520   50.9050 C   0  0  0  0  0  0  0  0  0  0  0  0
   38.4350   31.4810   50.0760 C   0  0  0  0  0  0  0  0  0  0  0  0
   37.6310   31.8690   49.0080 C   0  0  0  0  0  0  0  0  0  0  0  0
   36.4400   31.2280   48.8320 N   0  0  0  0  0  0  0  0  0  0  0  0
   36.0260   30.2420   49.6560 C   0  0  0  0  0  0  0  0  0  0  0  0
   36.7780   29.8530   50.6830 N   0  0  0  0  0  0  0  0  0  0  0  0
   34.7620   29.5550   49.4760 C   0  0  0  0  0  0  0  0  0  0  0  0
   33.8190   29.5980   50.3190 O   0  0  0  0  0  0  0  0  0  0  0  0
   34.3770   28.7490   48.3680 N   0  0  0  0  0  0  0  0  0  0  0  0
   34.3660   29.4180   47.0810 C   0  0  0  0  0  0  0  0  0  0  0  0
   32.9070   29.3090   46.6220 C   0  0  0  0  0  0  0  0  0  0  0  0
   32.7320   27.8500   46.2720 C   0  0  0  0  0  0  0  0  0  0  0  0
   32.8640   26.9860   47.4970 C   0  0  0  0  0  0  0  0  0  0  0  0
   34.0050   27.3610   48.3910 C   0  0  0  0  0  0  0  0  0  0  0  0
   38.5828   30.1253   51.7559 H   0  0  0  0  0  0  0  0  0  0  0  0
   39.4047   31.9654   50.2631 H   0  0  0  0  0  0  0  0  0  0  0  0
   37.9475   32.6707   48.3246 H   0  0  0  0  0  0  0  0  0  0  0  0
   34.6662   30.4712   47.1847 H   0  0  0  0  0  0  0  0  0  0  0  0
   35.0710   28.9714   46.3644 H   0  0  0  0  0  0  0  0  0  0  0  0
   32.2214   29.6002   47.4314 H   0  0  0  0  0  0  0  0  0  0  0  0
   32.6830   29.9736   45.7745 H   0  0  0  0  0  0  0  0  0  0  0  0
   31.7347   27.7019   45.8323 H   0  0  0  0  0  0  0  0  0  0  0  0
   33.5142   27.5640   45.5534 H   0  0  0  0  0  0  0  0  0  0  0  0
   31.9319   27.0633   48.0760 H   0  0  0  0  0  0  0  0  0  0  0  0
   33.0617   25.9633   47.1434 H   0  0  0  0  0  0  0  0  0  0  0  0
   34.8818   26.7698   48.0880 H   0  0  0  0  0  0  0  0  0  0  0  0
   33.6657   27.1556   49.4170 H   0  0  0  0  0  0  0  0  0  0  0  0
  2  1  2  0
  3  2  1  0
  4  3  2  0
  4  5  1  0
  5  6  2  0
  6  1  1  0
  7  5  1  0
  7  8  2  0
  9 14  1  0
  9  7  1  0
 10  9  1  0
 11 10  1  0
 12 11  1  0
 12 13  1  0
 13 14  1  0
  1 15  1  0
  2 16  1  0
  3 17  1  0
 10 18  1  0
 10 19  1  0
 11 20  1  0
 11 21  1  0
 12 22  1  0
 12 23  1  0
 13 24  1  0
 13 25  1  0
 14 26  1  0
 14 27  1  0
M  ISO  8  15  14  16  14  17  14  18  13  19  13  20  13  21  13  22  13
M  ISO  5  23  13  24  13  25  13  26  13  27  13
M  END
>  <minimizedAffinity>  (1) 
-4.09559774

>  <minimizedRMSD>  (1) 
2.13434935

$$$$
