
     RDKit          3D

 27 28  0  0  0  0  0  0  0  0999 V2000
   37.4340   30.0470   50.5220 C   0  0  0  0  0  0  0  0  0  0  0  0
   38.2850   31.0710   50.0670 C   0  0  0  0  0  0  0  0  0  0  0  0
   37.9420   31.7240   48.8740 C   0  0  0  0  0  0  0  0  0  0  0  0
   36.8130   31.3250   48.2410 N   0  0  0  0  0  0  0  0  0  0  0  0
   36.0300   30.3490   48.7060 C   0  0  0  0  0  0  0  0  0  0  0  0
   36.3180   29.6960   49.8410 N   0  0  0  0  0  0  0  0  0  0  0  0
   38.8020   32.7780   48.3880 C   0  0  0  0  0  0  0  0  0  0  0  0
   39.0580   33.8300   49.0470 O   0  0  0  0  0  0  0  0  0  0  0  0
   39.3670   32.5780   47.0940 N   0  0  0  0  0  0  0  0  0  0  0  0
   40.0130   33.5590   46.2190 C   0  0  0  0  0  0  0  0  0  0  0  0
   39.7880   33.1640   44.7740 C   0  0  0  0  0  0  0  0  0  0  0  0
   40.4830   31.8630   44.4270 C   0  0  0  0  0  0  0  0  0  0  0  0
   40.6060   31.0030   45.6860 C   0  0  0  0  0  0  0  0  0  0  0  0
   39.3300   31.2430   46.5010 C   0  0  0  0  0  0  0  0  0  0  0  0
   37.6818   29.5185   51.4544 H   0  0  0  0  0  0  0  0  0  0  0  0
   39.1890   31.3501   50.6281 H   0  0  0  0  0  0  0  0  0  0  0  0
   35.1256   30.0735   48.1437 H   0  0  0  0  0  0  0  0  0  0  0  0
   39.5804   34.5541   46.3998 H   0  0  0  0  0  0  0  0  0  0  0  0
   41.0922   33.5875   46.4300 H   0  0  0  0  0  0  0  0  0  0  0  0
   38.7079   33.0467   44.6018 H   0  0  0  0  0  0  0  0  0  0  0  0
   40.2087   33.9550   44.1358 H   0  0  0  0  0  0  0  0  0  0  0  0
   39.8955   31.3234   43.6696 H   0  0  0  0  0  0  0  0  0  0  0  0
   41.4855   32.0763   44.0276 H   0  0  0  0  0  0  0  0  0  0  0  0
   40.6894   29.9404   45.4141 H   0  0  0  0  0  0  0  0  0  0  0  0
   41.5037   31.2682   46.2637 H   0  0  0  0  0  0  0  0  0  0  0  0
   38.4539   31.1604   45.8410 H   0  0  0  0  0  0  0  0  0  0  0  0
   39.2625   30.4912   47.3011 H   0  0  0  0  0  0  0  0  0  0  0  0
  2  1  2  0
  3  2  1  0
  4  5  1  0
  4  3  2  0
  5  6  2  0
  6  1  1  0
  7  3  1  0
  7  8  2  0
  9  7  1  0
 10  9  1  0
 11 10  1  0
 12 11  1  0
 12 13  1  0
 13 14  1  0
 14  9  1  0
  1 15  1  0
  2 16  1  0
  5 17  1  0
 10 18  1  0
 10 19  1  0
 11 20  1  0
 11 21  1  0
 12 22  1  0
 12 23  1  0
 13 24  1  0
 13 25  1  0
 14 26  1  0
 14 27  1  0
M  ISO  8  15  14  16  14  17  14  18  13  19  13  20  13  21  13  22  13
M  ISO  5  23  13  24  13  25  13  26  13  27  13
M  END
>  <minimizedAffinity>  (1) 
-5.41741896

>  <minimizedRMSD>  (1) 
2.70204949

$$$$
