
     RDKit          3D

 48 51  0  0  1  0  0  0  0  0999 V2000
   38.4860   31.1180   45.8990 C   0  0  0  0  0  0  0  0  0  0  0  0
   39.8250   31.0130   46.1610 C   0  0  0  0  0  0  0  0  0  0  0  0
   40.4390   31.3830   44.9620 C   0  0  0  0  0  0  0  0  0  0  0  0
   39.5100   31.6870   44.0570 N   0  0  0  0  0  0  0  0  0  0  0  0
   38.3120   31.5290   44.6180 N   0  0  0  0  0  0  0  0  0  0  0  0
   39.9080   30.9160   41.7770 C   0  0  2  0  0  0  0  0  0  0  0  0
   39.8300   32.1050   42.7180 C   0  0  1  0  0  0  0  0  0  0  0  0
   38.6810   32.8350   42.0500 C   0  0  0  0  0  0  0  0  0  0  0  0
   38.7940   32.6440   40.6950 O   0  0  0  0  0  0  0  0  0  0  0  0
   39.6990   31.6620   40.4400 C   0  0  0  0  0  0  0  0  0  0  0  0
   38.8050   30.1170   42.0070 O   0  0  0  0  0  0  0  0  0  0  0  0
   39.7010   26.2700   41.7060 N   0  0  0  0  0  0  0  0  0  0  0  0
   39.1820   26.5900   43.0160 C   0  0  0  0  0  0  0  0  0  0  0  0
   39.0720   28.0730   43.2780 C   0  0  0  0  0  0  0  0  0  0  0  0
   39.0510   28.7680   41.9340 C   0  0  0  0  0  0  0  0  0  0  0  0
   38.1050   28.0140   41.0410 C   0  0  0  0  0  0  0  0  0  0  0  0
   38.8430   26.7330   40.6410 C   0  0  0  0  0  0  0  0  0  0  0  0
   36.5200   30.6340   49.0540 C   0  0  0  0  0  0  0  0  0  0  0  0
   37.5730   30.9210   48.2040 C   0  0  0  0  0  0  0  0  0  0  0  0
   37.4310   30.8350   46.8420 C   0  0  0  0  0  0  0  0  0  0  0  0
   36.2060   30.4540   46.3770 N   0  0  0  0  0  0  0  0  0  0  0  0
   35.1790   30.1750   47.2330 C   0  0  0  0  0  0  0  0  0  0  0  0
   35.3190   30.2580   48.5400 N   0  0  0  0  0  0  0  0  0  0  0  0
   36.8550   30.7770   50.4010 O   0  0  0  0  0  0  0  0  0  0  0  0
   36.8980   29.6940   51.3080 C   0  0  0  0  0  0  0  0  0  0  0  0
   35.6240   29.2500   51.6260 F   0  0  0  0  0  0  0  0  0  0  0  0
   37.5680   30.0790   52.4330 F   0  0  0  0  0  0  0  0  0  0  0  0
   37.6130   28.6610   50.7230 F   0  0  0  0  0  0  0  0  0  0  0  0
   40.3076   30.7071   47.1010 H   0  0  0  0  0  0  0  0  0  0  0  0
   41.5251   31.4180   44.7911 H   0  0  0  0  0  0  0  0  0  0  0  0
   40.8082   30.2879   41.8491 H   0  0  0  0  0  0  0  0  0  0  0  0
   40.7511   32.6923   42.8466 H   0  0  0  0  0  0  0  0  0  0  0  0
   37.7225   32.4299   42.4064 H   0  0  0  0  0  0  0  0  0  0  0  0
   38.7150   33.9077   42.2911 H   0  0  0  0  0  0  0  0  0  0  0  0
   39.3103   30.9736   39.6751 H   0  0  0  0  0  0  0  0  0  0  0  0
   40.6441   32.0751   40.0577 H   0  0  0  0  0  0  0  0  0  0  0  0
   40.6255   26.7116   41.6005 H   0  0  0  0  0  0  0  0  0  0  0  0
   38.1806   26.1450   43.1113 H   0  0  0  0  0  0  0  0  0  0  0  0
   39.8922   26.1847   43.7517 H   0  0  0  0  0  0  0  0  0  0  0  0
   38.1447   28.2901   43.8284 H   0  0  0  0  0  0  0  0  0  0  0  0
   39.9194   28.4248   43.8847 H   0  0  0  0  0  0  0  0  0  0  0  0
   40.0585   28.7406   41.4934 H   0  0  0  0  0  0  0  0  0  0  0  0
   37.1792   27.7698   41.5825 H   0  0  0  0  0  0  0  0  0  0  0  0
   37.8177   28.6081   40.1609 H   0  0  0  0  0  0  0  0  0  0  0  0
   38.1047   25.9511   40.4095 H   0  0  0  0  0  0  0  0  0  0  0  0
   39.4665   26.9507   39.7613 H   0  0  0  0  0  0  0  0  0  0  0  0
   38.5419   31.2237   48.6278 H   0  0  0  0  0  0  0  0  0  0  0  0
   34.2061   29.8720   46.8186 H   0  0  0  0  0  0  0  0  0  0  0  0
  1  2  1  0
  1 20  1  0
  3  2  2  0
  4  5  1  0
  4  3  1  0
  5  1  2  0
  6 11  1  0
  6  7  1  0
  7  4  1  0
  8  7  1  0
  9  8  1  0
 10  9  1  0
 10  6  1  0
 12 13  1  0
 13 14  1  0
 15 11  1  0
 15 14  1  0
 16 15  1  0
 17 16  1  0
 17 12  1  0
 18 24  1  0
 19 18  2  0
 20 19  1  0
 21 20  2  0
 21 22  1  0
 22 23  2  0
 23 18  1  0
 24 25  1  0
 25 26  1  0
 25 27  1  0
 28 25  1  0
  2 29  1  0
  3 30  1  0
  6 31  1  6
  7 32  1  1
  8 33  1  0
  8 34  1  0
 10 35  1  0
 10 36  1  0
 12 37  1  0
 13 38  1  0
 13 39  1  0
 14 40  1  0
 14 41  1  0
 15 42  1  0
 16 43  1  0
 16 44  1  0
 17 45  1  0
 17 46  1  0
 19 47  1  0
 22 48  1  0
M  ISO  8  29  14  30  14  31  13  32  13  33  13  34  13  35  13  36  13
M  ISO  8  37   5  38  13  39  13  40  13  41  13  42  13  43  13  44  13
M  ISO  4  45  13  46  13  47  14  48  14
M  END
>  <minimizedAffinity>  (1) 
-6.38669634

>  <minimizedRMSD>  (1) 
0.399072587

$$$$
