
     RDKit          3D

 46 48  0  0  1  0  0  0  0  0999 V2000
   38.9020   32.3420   47.8430 C   0  0  2  0  0  0  0  0  0  0  0  0
   38.2060   31.3660   48.7710 C   0  0  1  0  0  0  0  0  0  0  0  0
   38.6900   31.9450   50.1040 C   0  0  0  0  0  0  0  0  0  0  0  0
   38.4030   33.2770   49.9410 O   0  0  0  0  0  0  0  0  0  0  0  0
   38.6880   33.6350   48.6420 C   0  0  0  0  0  0  0  0  0  0  0  0
   36.8510   31.5890   48.6390 O   0  0  0  0  0  0  0  0  0  0  0  0
   35.9070   29.8500   46.9500 O   0  0  0  0  0  0  0  0  0  0  0  0
   35.9710   30.1740   48.4170 P   0  0  1  0  0  0  0  0  0  0  0  0
   36.7540   28.8790   49.2090 O   0  0  0  0  0  0  0  0  0  0  0  0
   34.4120   30.3420   49.0510 O   0  0  0  0  0  0  0  0  0  0  0  0
   34.1370   29.2130   49.7920 C   0  0  0  0  0  0  0  0  0  0  0  0
   33.2730   28.2390   49.0870 C   0  0  0  0  0  0  0  0  0  0  0  0
   33.9010   27.3420   48.2550 C   0  0  0  0  0  0  0  0  0  0  0  0
   33.1410   26.3990   47.5610 C   0  0  0  0  0  0  0  0  0  0  0  0
   31.7920   26.4260   47.7580 N   0  0  0  0  0  0  0  0  0  0  0  0
   31.1910   27.3180   48.5820 C   0  0  0  0  0  0  0  0  0  0  0  0
   31.9400   28.2300   49.2510 N   0  0  0  0  0  0  0  0  0  0  0  0
   38.2310   32.3610   46.6510 O   0  0  0  0  0  0  0  0  0  0  0  0
   39.9860   31.5590   43.2140 N   0  0  0  0  0  0  0  0  0  0  0  0
   39.7570   32.9530   43.4110 C   0  0  0  0  0  0  0  0  0  0  0  0
   39.4670   33.3400   44.8450 C   0  0  0  0  0  0  0  0  0  0  0  0
   38.9240   32.1050   45.5310 C   0  0  0  0  0  0  0  0  0  0  0  0
   40.0610   31.1380   45.6330 C   0  0  0  0  0  0  0  0  0  0  0  0
   40.6730   30.8880   44.2890 C   0  0  0  0  0  0  0  0  0  0  0  0
   39.9529   32.1370   47.5908 H   0  0  0  0  0  0  0  0  0  0  0  0
   38.3939   30.2922   48.6237 H   0  0  0  0  0  0  0  0  0  0  0  0
   38.1382   31.5156   50.9532 H   0  0  0  0  0  0  0  0  0  0  0  0
   39.7468   31.7368   50.3274 H   0  0  0  0  0  0  0  0  0  0  0  0
   39.6000   34.2494   48.6133 H   0  0  0  0  0  0  0  0  0  0  0  0
   37.8637   34.2235   48.2128 H   0  0  0  0  0  0  0  0  0  0  0  0
   36.6813   28.9992   50.1890 H   0  0  0  0  0  0  0  0  0  0  0  0
   35.0881   28.7191   50.0397 H   0  0  0  0  0  0  0  0  0  0  0  0
   33.5904   29.5401   50.6888 H   0  0  0  0  0  0  0  0  0  0  0  0
   34.9944   27.3674   48.1372 H   0  0  0  0  0  0  0  0  0  0  0  0
   33.6090   25.6674   46.8859 H   0  0  0  0  0  0  0  0  0  0  0  0
   30.0984   27.3027   48.7082 H   0  0  0  0  0  0  0  0  0  0  0  0
   39.0720   31.1016   43.0863 H   0  0  0  0  0  0  0  0  0  0  0  0
   40.6530   33.4993   43.0812 H   0  0  0  0  0  0  0  0  0  0  0  0
   38.8605   33.2104   42.8278 H   0  0  0  0  0  0  0  0  0  0  0  0
   40.3904   33.6735   45.3412 H   0  0  0  0  0  0  0  0  0  0  0  0
   38.7434   34.1672   44.8915 H   0  0  0  0  0  0  0  0  0  0  0  0
   38.1293   31.6294   44.9376 H   0  0  0  0  0  0  0  0  0  0  0  0
   40.8265   31.5520   46.3058 H   0  0  0  0  0  0  0  0  0  0  0  0
   39.6775   30.1853   46.0270 H   0  0  0  0  0  0  0  0  0  0  0  0
   40.6543   29.8057   44.0931 H   0  0  0  0  0  0  0  0  0  0  0  0
   41.6976   31.2871   44.3191 H   0  0  0  0  0  0  0  0  0  0  0  0
  1  5  1  0
  1  2  1  0
  2  3  1  0
  4  3  1  0
  5  4  1  0
  6  2  1  0
  8  7  2  0
  8  6  1  0
  8 10  1  0
  8  9  1  0
 10 11  1  0
 12 17  1  0
 12 11  1  0
 13 12  2  0
 14 15  2  0
 14 13  1  0
 15 16  1  0
 16 17  2  0
 18  1  1  0
 19 20  1  0
 19 24  1  0
 20 21  1  0
 21 22  1  0
 22 23  1  0
 22 18  1  0
 24 23  1  0
  1 25  1  6
  2 26  1  6
  3 27  1  0
  3 28  1  0
  5 29  1  0
  5 30  1  0
  9 31  1  0
 11 32  1  0
 11 33  1  0
 13 34  1  0
 14 35  1  0
 16 36  1  0
 19 37  1  0
 20 38  1  0
 20 39  1  0
 21 40  1  0
 21 41  1  0
 22 42  1  0
 23 43  1  0
 23 44  1  0
 24 45  1  0
 24 46  1  0
M  ISO  8  25  13  26  13  27  13  28  13  29  13  30  13  31   3  32   8
M  ISO  8  33   8  34  14  35  14  36  14  37   5  38  13  39  13  40  13
M  ISO  6  41  13  42  13  43  13  44  13  45  13  46  13
M  END
>  <minimizedAffinity>  (1) 
-4.89293861

>  <minimizedRMSD>  (1) 
0.477331966

$$$$
