
     RDKit          3D

 42 45  0  0  0  0  0  0  0  0999 V2000
   36.9340   30.7790   47.2830 C   0  0  0  0  0  0  0  0  0  0  0  0
   37.8670   31.7260   47.3670 C   0  0  0  0  0  0  0  0  0  0  0  0
   38.3960   32.2700   46.2470 C   0  0  0  0  0  0  0  0  0  0  0  0
   37.9150   31.7900   45.0460 C   0  0  0  0  0  0  0  0  0  0  0  0
   36.6770   30.5300   45.5600 S   0  0  0  0  0  0  0  0  0  0  0  0
   35.7540   29.4710   50.6160 C   0  0  0  0  0  0  0  0  0  0  0  0
   36.5120   30.2130   49.6870 C   0  0  0  0  0  0  0  0  0  0  0  0
   36.2190   30.0550   48.3350 C   0  0  0  0  0  0  0  0  0  0  0  0
   35.2320   29.2050   47.9570 N   0  0  0  0  0  0  0  0  0  0  0  0
   34.5310   28.5130   48.8860 C   0  0  0  0  0  0  0  0  0  0  0  0
   34.7900   28.6460   50.1860 N   0  0  0  0  0  0  0  0  0  0  0  0
   33.4870   27.6180   48.4540 N   0  0  0  0  0  0  0  0  0  0  0  0
   33.8080   26.5090   47.5780 C   0  0  0  0  0  0  0  0  0  0  0  0
   32.7300   26.2560   46.5760 C   0  0  0  0  0  0  0  0  0  0  0  0
   31.3310   26.4390   47.0940 C   0  0  0  0  0  0  0  0  0  0  0  0
   31.2190   27.8520   47.6770 C   0  0  0  0  0  0  0  0  0  0  0  0
   32.1230   27.8350   48.8990 C   0  0  0  0  0  0  0  0  0  0  0  0
   40.6870   30.9920   44.0780 Cl  0  0  0  0  0  0  0  0  0  0  0  0
   39.4340   31.7820   43.1690 C   0  0  0  0  0  0  0  0  0  0  0  0
   38.2140   32.1080   43.6740 C   0  0  0  0  0  0  0  0  0  0  0  0
   37.2090   32.7280   42.9920 C   0  0  0  0  0  0  0  0  0  0  0  0
   37.4180   33.0710   41.6550 C   0  0  0  0  0  0  0  0  0  0  0  0
   38.6330   32.7680   41.0830 C   0  0  0  0  0  0  0  0  0  0  0  0
   38.9650   33.1670   39.4150 Cl  0  0  0  0  0  0  0  0  0  0  0  0
   39.6390   32.1270   41.8310 C   0  0  0  0  0  0  0  0  0  0  0  0
   38.2099   32.0683   48.3545 H   0  0  0  0  0  0  0  0  0  0  0  0
   39.1678   33.0526   46.2913 H   0  0  0  0  0  0  0  0  0  0  0  0
   35.9541   29.5695   51.6932 H   0  0  0  0  0  0  0  0  0  0  0  0
   37.3089   30.8945   50.0195 H   0  0  0  0  0  0  0  0  0  0  0  0
   34.7423   26.7373   47.0442 H   0  0  0  0  0  0  0  0  0  0  0  0
   33.9136   25.6065   48.1979 H   0  0  0  0  0  0  0  0  0  0  0  0
   32.8301   25.2200   46.2202 H   0  0  0  0  0  0  0  0  0  0  0  0
   32.8655   27.0037   45.7807 H   0  0  0  0  0  0  0  0  0  0  0  0
   30.6103   26.3168   46.2720 H   0  0  0  0  0  0  0  0  0  0  0  0
   31.1106   25.6892   47.8681 H   0  0  0  0  0  0  0  0  0  0  0  0
   31.5641   28.6010   46.9490 H   0  0  0  0  0  0  0  0  0  0  0  0
   30.1819   28.1185   47.9288 H   0  0  0  0  0  0  0  0  0  0  0  0
   31.8188   27.0226   49.5754 H   0  0  0  0  0  0  0  0  0  0  0  0
   32.0481   28.7904   49.4390 H   0  0  0  0  0  0  0  0  0  0  0  0
   36.2522   32.9535   43.4857 H   0  0  0  0  0  0  0  0  0  0  0  0
   36.6306   33.5715   41.0724 H   0  0  0  0  0  0  0  0  0  0  0  0
   40.6023   31.8940   41.3538 H   0  0  0  0  0  0  0  0  0  0  0  0
  1  2  2  0
  1  8  1  0
  3  2  1  0
  4  5  1  0
  4  3  2  0
  5  1  1  0
  7  6  2  0
  8  7  1  0
  9  8  2  0
  9 10  1  0
 10 11  2  0
 11  6  1  0
 12 10  1  0
 12 17  1  0
 13 12  1  0
 14 15  1  0
 14 13  1  0
 15 16  1  0
 16 17  1  0
 19 20  2  0
 19 18  1  0
 20  4  1  0
 21 20  1  0
 22 21  2  0
 23 22  1  0
 23 25  2  0
 24 23  1  0
 25 19  1  0
  2 26  1  0
  3 27  1  0
  6 28  1  0
  7 29  1  0
 13 30  1  0
 13 31  1  0
 14 32  1  0
 14 33  1  0
 15 34  1  0
 15 35  1  0
 16 36  1  0
 16 37  1  0
 17 38  1  0
 17 39  1  0
 21 40  1  0
 22 41  1  0
 25 42  1  0
M  ISO  8  26  14  27  14  28  14  29  14  30  13  31  13  32  13  33  13
M  ISO  8  34  13  35  13  36  13  37  13  38  13  39  13  40  14  41  14
M  ISO  1  42  14
M  END
>  <minimizedAffinity>  (1) 
-5.93848991

>  <minimizedRMSD>  (1) 
1.79021251

$$$$
