
     RDKit          3D

 47 51  0  0  0  0  0  0  0  0999 V2000
   35.6410   29.8760   49.7090 C   0  0  0  0  0  0  0  0  0  0  0  0
   36.5840   29.8720   50.7230 C   0  0  0  0  0  0  0  0  0  0  0  0
   37.7190   30.4020   50.1050 C   0  0  0  0  0  0  0  0  0  0  0  0
   37.4110   30.6910   48.7890 C   0  0  0  0  0  0  0  0  0  0  0  0
   36.1570   30.3610   48.5900 O   0  0  0  0  0  0  0  0  0  0  0  0
   38.8180   32.5210   47.9790 C   0  0  0  0  0  0  0  0  0  0  0  0
   38.3040   31.2570   47.7930 C   0  0  0  0  0  0  0  0  0  0  0  0
   38.6260   30.5120   46.6700 C   0  0  0  0  0  0  0  0  0  0  0  0
   39.4730   31.0240   45.7040 C   0  0  0  0  0  0  0  0  0  0  0  0
   39.9620   30.5570   44.5310 N   0  0  0  0  0  0  0  0  0  0  0  0
   40.7440   31.5080   44.0280 N   0  0  0  0  0  0  0  0  0  0  0  0
   40.7630   32.5740   44.8590 C   0  0  0  0  0  0  0  0  0  0  0  0
   39.9570   32.2960   45.9450 C   0  0  0  0  0  0  0  0  0  0  0  0
   39.6830   33.0900   47.0340 C   0  0  0  0  0  0  0  0  0  0  0  0
   34.2710   29.4040   49.8770 C   0  0  0  0  0  0  0  0  0  0  0  0
   33.6870   29.6370   50.9530 O   0  0  0  0  0  0  0  0  0  0  0  0
   31.9130   27.2370   48.1230 C   0  0  0  0  0  0  0  0  0  0  0  0
   32.3540   27.2780   46.8030 C   0  0  0  0  0  0  0  0  0  0  0  0
   33.4530   28.0450   46.5170 C   0  0  0  0  0  0  0  0  0  0  0  0
   34.0700   28.7260   47.4930 N   0  0  0  0  0  0  0  0  0  0  0  0
   33.6250   28.6760   48.7880 C   0  0  0  0  0  0  0  0  0  0  0  0
   32.5470   27.9280   49.0810 N   0  0  0  0  0  0  0  0  0  0  0  0
   33.9630   28.1420   45.2160 N   0  0  0  0  0  0  0  0  0  0  0  0
   33.6550   27.2490   44.1190 C   0  0  0  0  0  0  0  0  0  0  0  0
   32.8210   28.0560   43.1480 C   0  0  0  0  0  0  0  0  0  0  0  0
   33.5840   29.2220   42.6400 C   0  0  0  0  0  0  0  0  0  0  0  0
   34.3670   29.9950   43.6590 C   0  0  0  0  0  0  0  0  0  0  0  0
   34.8830   29.1800   44.8120 C   0  0  0  0  0  0  0  0  0  0  0  0
   36.4675   29.5335   51.7631 H   0  0  0  0  0  0  0  0  0  0  0  0
   38.6953   30.5626   50.5856 H   0  0  0  0  0  0  0  0  0  0  0  0
   38.5466   33.0909   48.8798 H   0  0  0  0  0  0  0  0  0  0  0  0
   38.2040   29.5038   46.5456 H   0  0  0  0  0  0  0  0  0  0  0  0
   39.7655   29.6386   44.1080 H   0  0  0  0  0  0  0  0  0  0  0  0
   41.3255   33.5054   44.6974 H   0  0  0  0  0  0  0  0  0  0  0  0
   40.1106   34.0963   47.1545 H   0  0  0  0  0  0  0  0  0  0  0  0
   31.0333   26.6300   48.3831 H   0  0  0  0  0  0  0  0  0  0  0  0
   31.8364   26.7123   46.0143 H   0  0  0  0  0  0  0  0  0  0  0  0
   34.5806   26.9052   43.6343 H   0  0  0  0  0  0  0  0  0  0  0  0
   33.1175   26.3541   44.4658 H   0  0  0  0  0  0  0  0  0  0  0  0
   32.5341   27.4159   42.3006 H   0  0  0  0  0  0  0  0  0  0  0  0
   31.9258   28.4220   43.6721 H   0  0  0  0  0  0  0  0  0  0  0  0
   34.2907   28.8558   41.8807 H   0  0  0  0  0  0  0  0  0  0  0  0
   32.8289   29.9230   42.2547 H   0  0  0  0  0  0  0  0  0  0  0  0
   35.2287   30.4535   43.1519 H   0  0  0  0  0  0  0  0  0  0  0  0
   33.6720   30.7316   44.0884 H   0  0  0  0  0  0  0  0  0  0  0  0
   35.8332   28.7122   44.5151 H   0  0  0  0  0  0  0  0  0  0  0  0
   35.0142   29.8594   45.6671 H   0  0  0  0  0  0  0  0  0  0  0  0
  1 15  1  0
  1  2  2  0
  3  2  1  0
  4  3  2  0
  5  4  1  0
  5  1  1  0
  7  6  2  0
  7  4  1  0
  8  7  1  0
  9 13  1  0
  9  8  2  0
 10  9  1  0
 11 10  1  0
 11 12  2  0
 12 13  1  0
 13 14  2  0
 14  6  1  0
 15 16  2  0
 17 22  2  0
 18 17  1  0
 19 18  2  0
 19 20  1  0
 20 21  2  0
 21 22  1  0
 21 15  1  0
 23 19  1  0
 24 23  1  0
 25 24  1  0
 26 25  1  0
 26 27  1  0
 27 28  1  0
 28 23  1  0
  2 29  1  0
  3 30  1  0
  6 31  1  0
  8 32  1  0
 10 33  1  0
 12 34  1  0
 14 35  1  0
 17 36  1  0
 18 37  1  0
 24 38  1  0
 24 39  1  0
 25 40  1  0
 25 41  1  0
 26 42  1  0
 26 43  1  0
 27 44  1  0
 27 45  1  0
 28 46  1  0
 28 47  1  0
M  ISO  8  29  14  30  14  31  14  32  14  33   9  34  14  35  14  36  14
M  ISO  8  37  14  38  13  39  13  40  13  41  13  42  13  43  13  44  13
M  ISO  3  45  13  46  13  47  13
M  END
>  <minimizedAffinity>  (1) 
-6.48803997

>  <minimizedRMSD>  (1) 
1.85947096

$$$$
