
     RDKit          3D

 39 41  0  0  0  0  0  0  0  0999 V2000
   34.7530   29.8670   45.4700 C   0  0  0  0  0  0  0  0  0  0  0  0
   33.9080   28.7420   45.4260 C   0  0  0  0  0  0  0  0  0  0  0  0
   33.5870   27.9540   46.4810 C   0  0  0  0  0  0  0  0  0  0  0  0
   34.0810   28.2080   47.7000 C   0  0  0  0  0  0  0  0  0  0  0  0
   34.8970   29.2890   47.7480 C   0  0  0  0  0  0  0  0  0  0  0  0
   35.1790   30.0240   46.6980 N   0  0  0  0  0  0  0  0  0  0  0  0
   35.5340   29.7280   48.9850 N   0  0  0  0  0  0  0  0  0  0  0  0
   36.6590   29.0630   49.5960 C   0  0  0  0  0  0  0  0  0  0  0  0
   37.8900   29.9460   49.6800 C   0  0  0  0  0  0  0  0  0  0  0  0
   37.5530   31.0940   50.6120 C   0  0  0  0  0  0  0  0  0  0  0  0
   36.3550   31.8050   50.0290 C   0  0  0  0  0  0  0  0  0  0  0  0
   35.1800   30.8510   49.7920 C   0  0  0  0  0  0  0  0  0  0  0  0
   33.7410   30.8830   43.5840 C   0  0  0  0  0  0  0  0  0  0  0  0
   34.9760   30.6490   44.2600 C   0  0  0  0  0  0  0  0  0  0  0  0
   36.0980   31.1980   43.7060 C   0  0  0  0  0  0  0  0  0  0  0  0
   35.9430   31.9270   42.5540 N   0  0  0  0  0  0  0  0  0  0  0  0
   34.7840   32.1390   41.9330 C   0  0  0  0  0  0  0  0  0  0  0  0
   33.6820   31.6010   42.4730 N   0  0  0  0  0  0  0  0  0  0  0  0
   34.8320   32.9330   40.7820 N   0  0  0  0  0  0  0  0  0  0  0  0
   37.3960   30.9920   44.3560 C   0  0  0  0  0  0  0  0  0  0  0  0
   37.5680   29.7080   44.5830 F   0  0  0  0  0  0  0  0  0  0  0  0
   38.4710   31.4930   43.6430 F   0  0  0  0  0  0  0  0  0  0  0  0
   37.4420   31.6720   45.6090 F   0  0  0  0  0  0  0  0  0  0  0  0
   33.4705   28.4798   44.4514 H   0  0  0  0  0  0  0  0  0  0  0  0
   32.9136   27.0966   46.3347 H   0  0  0  0  0  0  0  0  0  0  0  0
   33.8456   27.5946   48.5823 H   0  0  0  0  0  0  0  0  0  0  0  0
   36.3759   28.7571   50.6140 H   0  0  0  0  0  0  0  0  0  0  0  0
   36.9144   28.1982   48.9660 H   0  0  0  0  0  0  0  0  0  0  0  0
   38.7392   29.3724   50.0798 H   0  0  0  0  0  0  0  0  0  0  0  0
   38.1722   30.3198   48.6847 H   0  0  0  0  0  0  0  0  0  0  0  0
   37.3118   30.7081   51.6135 H   0  0  0  0  0  0  0  0  0  0  0  0
   38.4061   31.7815   50.7093 H   0  0  0  0  0  0  0  0  0  0  0  0
   36.0366   32.5941   50.7261 H   0  0  0  0  0  0  0  0  0  0  0  0
   36.6506   32.2275   49.0574 H   0  0  0  0  0  0  0  0  0  0  0  0
   34.3734   31.4048   49.2894 H   0  0  0  0  0  0  0  0  0  0  0  0
   34.8616   30.4673   50.7725 H   0  0  0  0  0  0  0  0  0  0  0  0
   32.8148   30.4561   43.9963 H   0  0  0  0  0  0  0  0  0  0  0  0
   35.7341   33.3003   40.4470 H   0  0  0  0  0  0  0  0  0  0  0  0
   33.9653   33.1502   40.2697 H   0  0  0  0  0  0  0  0  0  0  0  0
  1  6  1  0
  2  1  2  0
  2  3  1  0
  3  4  2  0
  4  5  1  0
  5  7  1  0
  6  5  2  0
  7  8  1  0
  7 12  1  0
  8  9  1  0
  9 10  1  0
 11 10  1  0
 12 11  1  0
 13 14  2  0
 14  1  1  0
 15 14  1  0
 15 20  1  0
 16 15  2  0
 17 18  2  0
 17 16  1  0
 18 13  1  0
 19 17  1  0
 20 21  1  0
 20 23  1  0
 22 20  1  0
  2 24  1  0
  3 25  1  0
  4 26  1  0
  8 27  1  0
  8 28  1  0
  9 29  1  0
  9 30  1  0
 10 31  1  0
 10 32  1  0
 11 33  1  0
 11 34  1  0
 12 35  1  0
 12 36  1  0
 13 37  1  0
 19 38  1  0
 19 39  1  0
M  ISO  8  24  14  25  14  26  14  27  13  28  13  29  13  30  13  31  13
M  ISO  6  32  13  33  13  34  13  35  13  36  13  37  14
M  END
>  <minimizedAffinity>  (1) 
-5.0366745

>  <minimizedRMSD>  (1) 
3.91735721

$$$$
