
     RDKit          3D

 48 52  0  0  0  0  0  0  0  0999 V2000
   37.5190   31.1210   49.6440 C   0  0  0  0  0  0  0  0  0  0  0  0
   37.7540   30.6510   50.8950 C   0  0  0  0  0  0  0  0  0  0  0  0
   36.9280   29.6900   51.4000 C   0  0  0  0  0  0  0  0  0  0  0  0
   35.8870   29.2120   50.6620 N   0  0  0  0  0  0  0  0  0  0  0  0
   35.6890   29.7030   49.4310 C   0  0  0  0  0  0  0  0  0  0  0  0
   36.4860   30.6520   48.9040 N   0  0  0  0  0  0  0  0  0  0  0  0
   34.5810   29.1890   48.6480 C   0  0  0  0  0  0  0  0  0  0  0  0
   34.5210   29.3900   47.2910 C   0  0  0  0  0  0  0  0  0  0  0  0
   33.5480   28.9670   46.4150 C   0  0  0  0  0  0  0  0  0  0  0  0
   32.5200   28.2550   47.0110 C   0  0  0  0  0  0  0  0  0  0  0  0
   31.5120   27.7900   46.2410 N   0  0  0  0  0  0  0  0  0  0  0  0
   30.4710   27.0880   46.7220 C   0  0  0  0  0  0  0  0  0  0  0  0
   30.4200   26.8230   48.0760 C   0  0  0  0  0  0  0  0  0  0  0  0
   31.4410   27.2910   48.8740 C   0  0  0  0  0  0  0  0  0  0  0  0
   32.5200   28.0190   48.3650 C   0  0  0  0  0  0  0  0  0  0  0  0
   33.5360   28.4800   49.1760 C   0  0  0  0  0  0  0  0  0  0  0  0
   39.4400   34.2110   49.1130 C   0  0  0  0  0  0  0  0  0  0  0  0
   39.9490   34.0570   47.8300 C   0  0  0  0  0  0  0  0  0  0  0  0
   39.6220   32.8680   47.1430 C   0  0  0  0  0  0  0  0  0  0  0  0
   38.8330   31.9600   47.7830 N   0  0  0  0  0  0  0  0  0  0  0  0
   38.3600   32.1530   49.0330 C   0  0  0  0  0  0  0  0  0  0  0  0
   38.6720   33.2870   49.6920 N   0  0  0  0  0  0  0  0  0  0  0  0
   40.0340   32.5240   45.8460 N   0  0  0  0  0  0  0  0  0  0  0  0
   39.9930   33.4450   44.7070 C   0  0  0  0  0  0  0  0  0  0  0  0
   39.2380   32.7880   43.5770 C   0  0  0  0  0  0  0  0  0  0  0  0
   38.5650   31.5350   44.0700 C   0  0  0  0  0  0  0  0  0  0  0  0
   39.5290   30.5090   44.6040 C   0  0  0  0  0  0  0  0  0  0  0  0
   40.5500   31.2270   45.4710 C   0  0  0  0  0  0  0  0  0  0  0  0
   38.5943   31.0374   51.4904 H   0  0  0  0  0  0  0  0  0  0  0  0
   37.1039   29.2973   52.4123 H   0  0  0  0  0  0  0  0  0  0  0  0
   35.3528   29.9590   46.8502 H   0  0  0  0  0  0  0  0  0  0  0  0
   33.5833   29.1760   45.3356 H   0  0  0  0  0  0  0  0  0  0  0  0
   29.6760   26.7320   46.0503 H   0  0  0  0  0  0  0  0  0  0  0  0
   29.5845   26.2521   48.5072 H   0  0  0  0  0  0  0  0  0  0  0  0
   31.4055   27.0836   49.9537 H   0  0  0  0  0  0  0  0  0  0  0  0
   33.5062   28.2761   50.2565 H   0  0  0  0  0  0  0  0  0  0  0  0
   39.6788   35.1280   49.6717 H   0  0  0  0  0  0  0  0  0  0  0  0
   40.5810   34.8298   47.3681 H   0  0  0  0  0  0  0  0  0  0  0  0
   39.4832   34.3743   45.0012 H   0  0  0  0  0  0  0  0  0  0  0  0
   41.0166   33.6845   44.3831 H   0  0  0  0  0  0  0  0  0  0  0  0
   39.9401   32.5314   42.7700 H   0  0  0  0  0  0  0  0  0  0  0  0
   38.4747   33.4840   43.1989 H   0  0  0  0  0  0  0  0  0  0  0  0
   37.8656   31.8080   44.8740 H   0  0  0  0  0  0  0  0  0  0  0  0
   38.0521   31.0816   43.2090 H   0  0  0  0  0  0  0  0  0  0  0  0
   38.9863   29.7650   45.2056 H   0  0  0  0  0  0  0  0  0  0  0  0
   40.0312   29.9897   43.7745 H   0  0  0  0  0  0  0  0  0  0  0  0
   40.7446   30.6336   46.3766 H   0  0  0  0  0  0  0  0  0  0  0  0
   41.4865   31.3529   44.9079 H   0  0  0  0  0  0  0  0  0  0  0  0
  1  2  2  0
  2  3  1  0
  4  3  2  0
  5  4  1  0
  6  5  2  0
  6  1  1  0
  7 16  1  0
  7  5  1  0
  8  7  2  0
  9 10  2  0
  9  8  1  0
 10 15  1  0
 11 12  2  0
 11 10  1  0
 12 13  1  0
 13 14  2  0
 15 14  1  0
 15 16  2  0
 17 22  2  0
 18 17  1  0
 19 20  1  0
 19 18  2  0
 20 21  2  0
 21  1  1  0
 21 22  1  0
 23 19  1  0
 24 23  1  0
 25 26  1  0
 25 24  1  0
 26 27  1  0
 27 28  1  0
 28 23  1  0
  2 29  1  0
  3 30  1  0
  8 31  1  0
  9 32  1  0
 12 33  1  0
 13 34  1  0
 14 35  1  0
 16 36  1  0
 17 37  1  0
 18 38  1  0
 24 39  1  0
 24 40  1  0
 25 41  1  0
 25 42  1  0
 26 43  1  0
 26 44  1  0
 27 45  1  0
 27 46  1  0
 28 47  1  0
 28 48  1  0
M  END
>  <minimizedAffinity>  (1) 
-7.78103828

>  <minimizedRMSD>  (1) 
0.150198132

$$$$
