
     RDKit          3D

 33 35  0  0  0  0  0  0  0  0999 V2000
   35.8230   30.0640   47.4100 C   0  0  0  0  0  0  0  0  0  0  0  0
   34.9080   29.7800   46.4330 C   0  0  0  0  0  0  0  0  0  0  0  0
   35.1040   30.0360   45.0960 C   0  0  0  0  0  0  0  0  0  0  0  0
   36.2520   30.5970   44.7070 N   0  0  0  0  0  0  0  0  0  0  0  0
   37.1740   30.8880   45.6520 C   0  0  0  0  0  0  0  0  0  0  0  0
   36.9510   30.6260   46.9440 N   0  0  0  0  0  0  0  0  0  0  0  0
   38.3930   31.4860   45.2260 N   0  0  0  0  0  0  0  0  0  0  0  0
   38.9240   32.6150   45.9660 C   0  0  0  0  0  0  0  0  0  0  0  0
   40.0380   33.3040   45.2620 C   0  0  0  0  0  0  0  0  0  0  0  0
   41.1230   32.3060   44.9430 C   0  0  0  0  0  0  0  0  0  0  0  0
   40.6040   31.1260   44.1760 C   0  0  0  0  0  0  0  0  0  0  0  0
   39.1240   31.0180   44.0920 C   0  0  0  0  0  0  0  0  0  0  0  0
   36.2690   29.4200   51.1050 C   0  0  0  0  0  0  0  0  0  0  0  0
   36.6150   29.6950   49.7760 C   0  0  0  0  0  0  0  0  0  0  0  0
   35.5970   29.7850   48.8220 C   0  0  0  0  0  0  0  0  0  0  0  0
   34.3230   29.6010   49.2310 N   0  0  0  0  0  0  0  0  0  0  0  0
   34.0100   29.3360   50.5250 C   0  0  0  0  0  0  0  0  0  0  0  0
   34.9910   29.2480   51.4570 N   0  0  0  0  0  0  0  0  0  0  0  0
   33.9566   29.3183   46.7358 H   0  0  0  0  0  0  0  0  0  0  0  0
   34.3278   29.7828   44.3589 H   0  0  0  0  0  0  0  0  0  0  0  0
   38.1123   33.3392   46.1292 H   0  0  0  0  0  0  0  0  0  0  0  0
   39.3263   32.2257   46.9129 H   0  0  0  0  0  0  0  0  0  0  0  0
   39.6627   33.7489   44.3286 H   0  0  0  0  0  0  0  0  0  0  0  0
   40.4458   34.0962   45.9070 H   0  0  0  0  0  0  0  0  0  0  0  0
   41.8974   32.8054   44.3423 H   0  0  0  0  0  0  0  0  0  0  0  0
   41.5298   31.9355   45.8955 H   0  0  0  0  0  0  0  0  0  0  0  0
   40.9980   31.1883   43.1509 H   0  0  0  0  0  0  0  0  0  0  0  0
   40.9409   30.2357   44.7272 H   0  0  0  0  0  0  0  0  0  0  0  0
   38.7942   31.5977   43.2173 H   0  0  0  0  0  0  0  0  0  0  0  0
   38.9103   29.9409   44.0276 H   0  0  0  0  0  0  0  0  0  0  0  0
   37.0579   29.3447   51.8678 H   0  0  0  0  0  0  0  0  0  0  0  0
   37.6672   29.8374   49.4884 H   0  0  0  0  0  0  0  0  0  0  0  0
   32.9595   29.1925   50.8179 H   0  0  0  0  0  0  0  0  0  0  0  0
  1 15  1  0
  2  1  2  0
  3  2  1  0
  4  3  2  0
  4  5  1  0
  5  6  2  0
  6  1  1  0
  7  5  1  0
  7  8  1  0
  9  8  1  0
 10  9  1  0
 11 10  1  0
 12 11  1  0
 12  7  1  0
 13 18  2  0
 14 13  1  0
 15 16  1  0
 15 14  2  0
 16 17  2  0
 17 18  1  0
  2 19  1  0
  3 20  1  0
  8 21  1  0
  8 22  1  0
  9 23  1  0
  9 24  1  0
 10 25  1  0
 10 26  1  0
 11 27  1  0
 11 28  1  0
 12 29  1  0
 12 30  1  0
 13 31  1  0
 14 32  1  0
 17 33  1  0
M  ISO  8  19  14  20  14  21  13  22  13  23  13  24  13  25  13  26  13
M  ISO  7  27  13  28  13  29  13  30  13  31  14  32  14  33  14
M  END
>  <minimizedAffinity>  (1) 
-5.13094664

>  <minimizedRMSD>  (1) 
2.89881706

$$$$
