
     RDKit          3D

 47 50  0  0  1  0  0  0  0  0999 V2000
   31.7800   28.1240   45.9690 N   0  0  0  0  0  0  0  0  0  0  0  0
   32.9390   27.6700   45.2160 C   0  0  0  0  0  0  0  0  0  0  0  0
   34.0920   28.2480   45.9850 C   0  0  0  0  0  0  0  0  0  0  0  0
   33.4280   29.1400   47.1170 C   0  0  1  0  0  0  0  0  0  0  0  0
   32.1990   28.3860   47.3620 C   0  0  0  0  0  0  0  0  0  0  0  0
   35.7230   30.7900   46.9650 F   0  0  0  0  0  0  0  0  0  0  0  0
   35.4120   30.1060   48.0780 C   0  0  0  0  0  0  0  0  0  0  0  0
   34.3630   29.2390   48.2410 C   0  0  0  0  0  0  0  0  0  0  0  0
   34.2020   28.6090   49.4870 C   0  0  0  0  0  0  0  0  0  0  0  0
   35.0630   28.8390   50.5330 C   0  0  0  0  0  0  0  0  0  0  0  0
   36.1280   29.7250   50.3460 C   0  0  0  0  0  0  0  0  0  0  0  0
   36.2960   30.3590   49.1040 C   0  0  0  0  0  0  0  0  0  0  0  0
   37.3910   31.2390   48.9910 N   0  0  0  0  0  0  0  0  0  0  0  0
   38.6320   30.9980   48.3040 C   0  0  0  0  0  0  0  0  0  0  0  0
   38.6910   32.0810   47.2140 C   0  0  0  0  0  0  0  0  0  0  0  0
   39.1290   33.3400   47.9110 C   0  0  0  0  0  0  0  0  0  0  0  0
   38.6990   33.2820   49.3370 C   0  0  0  0  0  0  0  0  0  0  0  0
   37.3980   32.5570   49.5830 C   0  0  0  0  0  0  0  0  0  0  0  0
   30.4680   28.3020   45.4930 C   0  0  0  0  0  0  0  0  0  0  0  0
   30.3520   28.8960   44.2270 C   0  0  0  0  0  0  0  0  0  0  0  0
   29.0710   29.1100   43.6900 C   0  0  0  0  0  0  0  0  0  0  0  0
   28.0050   28.7080   44.4720 N   0  0  0  0  0  0  0  0  0  0  0  0
   28.1590   28.1420   45.6800 C   0  0  0  0  0  0  0  0  0  0  0  0
   29.3920   27.9390   46.1920 N   0  0  0  0  0  0  0  0  0  0  0  0
   32.9901   26.5714   45.1939 H   0  0  0  0  0  0  0  0  0  0  0  0
   32.9206   27.9849   44.1622 H   0  0  0  0  0  0  0  0  0  0  0  0
   34.6991   27.4466   46.4313 H   0  0  0  0  0  0  0  0  0  0  0  0
   34.7651   28.8330   45.3410 H   0  0  0  0  0  0  0  0  0  0  0  0
   33.2029   30.1918   46.8867 H   0  0  0  0  0  0  0  0  0  0  0  0
   31.4542   28.9844   47.9071 H   0  0  0  0  0  0  0  0  0  0  0  0
   32.3213   27.4889   47.9867 H   0  0  0  0  0  0  0  0  0  0  0  0
   33.3629   27.9120   49.6289 H   0  0  0  0  0  0  0  0  0  0  0  0
   34.9169   28.3351   51.4998 H   0  0  0  0  0  0  0  0  0  0  0  0
   36.8313   29.9247   51.1679 H   0  0  0  0  0  0  0  0  0  0  0  0
   39.4829   31.0955   48.9943 H   0  0  0  0  0  0  0  0  0  0  0  0
   38.6855   29.9823   47.8851 H   0  0  0  0  0  0  0  0  0  0  0  0
   37.6995   32.2204   46.7584 H   0  0  0  0  0  0  0  0  0  0  0  0
   39.3831   31.8042   46.4051 H   0  0  0  0  0  0  0  0  0  0  0  0
   40.2243   33.4276   47.8597 H   0  0  0  0  0  0  0  0  0  0  0  0
   38.6728   34.2130   47.4213 H   0  0  0  0  0  0  0  0  0  0  0  0
   39.4872   32.7722   49.9104 H   0  0  0  0  0  0  0  0  0  0  0  0
   38.5342   34.3234   49.6506 H   0  0  0  0  0  0  0  0  0  0  0  0
   36.5762   33.1454   49.1488 H   0  0  0  0  0  0  0  0  0  0  0  0
   37.2745   32.4413   50.6699 H   0  0  0  0  0  0  0  0  0  0  0  0
   31.2499   29.1896   43.6635 H   0  0  0  0  0  0  0  0  0  0  0  0
   28.9251   29.5717   42.7023 H   0  0  0  0  0  0  0  0  0  0  0  0
   27.2727   27.8410   46.2578 H   0  0  0  0  0  0  0  0  0  0  0  0
  1  5  1  0
  2  1  1  0
  2  3  1  0
  3  4  1  0
  4  5  1  0
  4  8  1  0
  6  7  1  0
  7  8  2  0
  7 12  1  0
  8  9  1  0
  9 10  2  0
 11 10  1  0
 12 11  2  0
 13 12  1  0
 13 18  1  0
 14 13  1  0
 15 16  1  0
 15 14  1  0
 16 17  1  0
 17 18  1  0
 19  1  1  0
 19 24  1  0
 20 19  2  0
 21 20  1  0
 21 22  2  0
 22 23  1  0
 23 24  2  0
  2 25  1  0
  2 26  1  0
  3 27  1  0
  3 28  1  0
  4 29  1  6
  5 30  1  0
  5 31  1  0
  9 32  1  0
 10 33  1  0
 11 34  1  0
 14 35  1  0
 14 36  1  0
 15 37  1  0
 15 38  1  0
 16 39  1  0
 16 40  1  0
 17 41  1  0
 17 42  1  0
 18 43  1  0
 18 44  1  0
 20 45  1  0
 21 46  1  0
 23 47  1  0
M  ISO  8  25  13  26  13  27  13  28  13  29  13  30  13  31  13  32  14
M  ISO  8  33  14  34  14  35  13  36  13  37  13  38  13  39  13  40  13
M  ISO  7  41  13  42  13  43  13  44  13  45  14  46  14  47  14
M  END
>  <minimizedAffinity>  (1) 
-5.53731585

>  <minimizedRMSD>  (1) 
2.49376988

$$$$
