
     RDKit          3D

 48 51  0  0  0  0  0  0  0  0999 V2000
   38.3600   31.6070   48.8940 C   0  0  0  0  0  0  0  0  0  0  0  0
   38.5250   32.8690   49.4340 C   0  0  0  0  0  0  0  0  0  0  0  0
   39.1790   33.6450   48.4680 C   0  0  0  0  0  0  0  0  0  0  0  0
   39.3810   32.8520   47.4040 N   0  0  0  0  0  0  0  0  0  0  0  0
   38.8980   31.6700   47.6720 N   0  0  0  0  0  0  0  0  0  0  0  0
   40.0320   33.2630   46.1800 C   0  0  0  0  0  0  0  0  0  0  0  0
   40.4220   32.0150   45.4430 C   0  0  0  0  0  0  0  0  0  0  0  0
   39.4250   31.8040   44.3970 N   0  0  0  0  0  0  0  0  0  0  0  0
   39.4450   30.4340   43.9290 C   0  0  0  0  0  0  0  0  0  0  0  0
   40.4250   30.1610   42.8400 C   0  0  0  0  0  0  0  0  0  0  0  0
   40.3120   31.1480   41.7000 C   0  0  0  0  0  0  0  0  0  0  0  0
   39.2110   32.1290   42.0330 C   0  0  0  0  0  0  0  0  0  0  0  0
   39.5410   32.7700   43.3510 C   0  0  0  0  0  0  0  0  0  0  0  0
   37.7240   30.7210   49.7340 O   0  0  0  0  0  0  0  0  0  0  0  0
   34.1470   28.9390   48.4120 C   0  0  0  0  0  0  0  0  0  0  0  0
   34.8810   28.3850   49.4230 C   0  0  0  0  0  0  0  0  0  0  0  0
   36.0590   28.9080   49.9100 C   0  0  0  0  0  0  0  0  0  0  0  0
   36.5650   30.0560   49.3770 C   0  0  0  0  0  0  0  0  0  0  0  0
   35.8210   30.6220   48.3480 C   0  0  0  0  0  0  0  0  0  0  0  0
   34.6690   30.0820   47.8940 N   0  0  0  0  0  0  0  0  0  0  0  0
   32.0780   27.5610   48.6550 C   0  0  0  0  0  0  0  0  0  0  0  0
   32.9350   28.3770   47.9160 C   0  0  0  0  0  0  0  0  0  0  0  0
   32.5620   28.6390   46.6160 C   0  0  0  0  0  0  0  0  0  0  0  0
   31.4050   28.1080   46.1090 N   0  0  0  0  0  0  0  0  0  0  0  0
   30.6140   27.3220   46.8770 C   0  0  0  0  0  0  0  0  0  0  0  0
   30.9360   27.0310   48.1690 N   0  0  0  0  0  0  0  0  0  0  0  0
   38.2038   33.2008   50.4324 H   0  0  0  0  0  0  0  0  0  0  0  0
   39.4709   34.7013   48.5632 H   0  0  0  0  0  0  0  0  0  0  0  0
   39.3408   33.8613   45.5682 H   0  0  0  0  0  0  0  0  0  0  0  0
   40.9162   33.8805   46.3967 H   0  0  0  0  0  0  0  0  0  0  0  0
   41.4190   32.1377   44.9946 H   0  0  0  0  0  0  0  0  0  0  0  0
   40.4611   31.1534   46.1258 H   0  0  0  0  0  0  0  0  0  0  0  0
   39.6911   29.7844   44.7819 H   0  0  0  0  0  0  0  0  0  0  0  0
   38.4488   30.2360   43.5066 H   0  0  0  0  0  0  0  0  0  0  0  0
   41.4412   30.2183   43.2571 H   0  0  0  0  0  0  0  0  0  0  0  0
   40.2091   29.1599   42.4386 H   0  0  0  0  0  0  0  0  0  0  0  0
   40.0674   30.6155   40.7691 H   0  0  0  0  0  0  0  0  0  0  0  0
   41.2652   31.6790   41.5608 H   0  0  0  0  0  0  0  0  0  0  0  0
   39.1475   32.8985   41.2495 H   0  0  0  0  0  0  0  0  0  0  0  0
   38.2430   31.6100   42.0930 H   0  0  0  0  0  0  0  0  0  0  0  0
   40.5705   33.1565   43.3224 H   0  0  0  0  0  0  0  0  0  0  0  0
   38.8415   33.5978   43.5395 H   0  0  0  0  0  0  0  0  0  0  0  0
   34.5053   27.4574   49.8795 H   0  0  0  0  0  0  0  0  0  0  0  0
   36.5905   28.3997   50.7280 H   0  0  0  0  0  0  0  0  0  0  0  0
   36.1862   31.5498   47.8834 H   0  0  0  0  0  0  0  0  0  0  0  0
   32.3496   27.3360   49.6969 H   0  0  0  0  0  0  0  0  0  0  0  0
   33.1955   29.2771   45.9824 H   0  0  0  0  0  0  0  0  0  0  0  0
   29.6894   26.9084   46.4479 H   0  0  0  0  0  0  0  0  0  0  0  0
  1  2  1  0
  1 14  1  0
  3  2  2  0
  4  5  1  0
  4  3  1  0
  5  1  2  0
  6  4  1  0
  7  6  1  0
  8  7  1  0
  9  8  1  0
 10  9  1  0
 11 12  1  0
 11 10  1  0
 12 13  1  0
 13  8  1  0
 15 16  2  0
 16 17  1  0
 18 14  1  0
 18 17  2  0
 19 18  1  0
 20 19  2  0
 20 15  1  0
 22 15  1  0
 22 21  2  0
 23 22  1  0
 24 23  2  0
 24 25  1  0
 25 26  2  0
 26 21  1  0
  2 27  1  0
  3 28  1  0
  6 29  1  0
  6 30  1  0
  7 31  1  0
  7 32  1  0
  9 33  1  0
  9 34  1  0
 10 35  1  0
 10 36  1  0
 11 37  1  0
 11 38  1  0
 12 39  1  0
 12 40  1  0
 13 41  1  0
 13 42  1  0
 16 43  1  0
 17 44  1  0
 19 45  1  0
 21 46  1  0
 23 47  1  0
 25 48  1  0
M  ISO  8  27  14  28  14  29   8  30   8  31   8  32   8  33  13  34  13
M  ISO  8  35  13  36  13  37  13  38  13  39  13  40  13  41  13  42  13
M  ISO  6  43  14  44  14  45  14  46  14  47  14  48  14
M  END
>  <minimizedAffinity>  (1) 
-6.11041212

>  <minimizedRMSD>  (1) 
1.20584512

$$$$
