
     RDKit          3D

 37 39  0  0  0  0  0  0  0  0999 V2000
   36.1290   31.1080   49.1830 C   0  0  0  0  0  0  0  0  0  0  0  0
   36.9490   31.3150   48.0680 C   0  0  0  0  0  0  0  0  0  0  0  0
   36.6240   30.6620   46.8790 C   0  0  0  0  0  0  0  0  0  0  0  0
   35.5310   29.8580   46.8580 N   0  0  0  0  0  0  0  0  0  0  0  0
   34.7610   29.6750   47.9370 C   0  0  0  0  0  0  0  0  0  0  0  0
   35.0430   30.2840   49.0920 N   0  0  0  0  0  0  0  0  0  0  0  0
   33.6210   28.8100   47.8390 N   0  0  0  0  0  0  0  0  0  0  0  0
   32.5300   29.0350   46.8920 C   0  0  0  0  0  0  0  0  0  0  0  0
   31.7260   27.7840   46.9340 C   0  0  0  0  0  0  0  0  0  0  0  0
   32.5030   26.7970   47.7580 C   0  0  0  0  0  0  0  0  0  0  0  0
   33.3840   27.6240   48.6320 C   0  0  0  0  0  0  0  0  0  0  0  0
   38.0540   32.1800   48.2350 N   0  0  0  0  0  0  0  0  0  0  0  0
   37.9740   33.2080   49.2230 C   0  0  0  0  0  0  0  0  0  0  0  0
   39.3100   33.8460   49.5260 C   0  0  0  0  0  0  0  0  0  0  0  0
   39.9920   34.3500   48.2770 C   0  0  0  0  0  0  0  0  0  0  0  0
   39.6570   33.5080   47.0700 C   0  0  0  0  0  0  0  0  0  0  0  0
   39.2750   32.0880   47.4620 C   0  0  0  0  0  0  0  0  0  0  0  0
   36.3593   31.6097   50.1345 H   0  0  0  0  0  0  0  0  0  0  0  0
   37.2404   30.7959   45.9778 H   0  0  0  0  0  0  0  0  0  0  0  0
   32.9249   29.2080   45.8800 H   0  0  0  0  0  0  0  0  0  0  0  0
   31.9322   29.9215   47.1504 H   0  0  0  0  0  0  0  0  0  0  0  0
   30.7477   27.9778   47.3981 H   0  0  0  0  0  0  0  0  0  0  0  0
   31.5450   27.3966   45.9205 H   0  0  0  0  0  0  0  0  0  0  0  0
   31.8230   26.1828   48.3666 H   0  0  0  0  0  0  0  0  0  0  0  0
   33.0815   26.1031   47.1304 H   0  0  0  0  0  0  0  0  0  0  0  0
   34.3267   27.1005   48.8494 H   0  0  0  0  0  0  0  0  0  0  0  0
   32.9343   27.8440   49.6115 H   0  0  0  0  0  0  0  0  0  0  0  0
   37.2878   33.9880   48.8615 H   0  0  0  0  0  0  0  0  0  0  0  0
   37.6155   32.7416   50.1525 H   0  0  0  0  0  0  0  0  0  0  0  0
   39.1523   34.6923   50.2107 H   0  0  0  0  0  0  0  0  0  0  0  0
   39.9564   33.0812   49.9812 H   0  0  0  0  0  0  0  0  0  0  0  0
   39.6689   35.3845   48.0889 H   0  0  0  0  0  0  0  0  0  0  0  0
   41.0788   34.2952   48.4380 H   0  0  0  0  0  0  0  0  0  0  0  0
   40.5338   33.4710   46.4068 H   0  0  0  0  0  0  0  0  0  0  0  0
   38.7963   33.9662   46.5608 H   0  0  0  0  0  0  0  0  0  0  0  0
   39.1078   31.4788   46.5615 H   0  0  0  0  0  0  0  0  0  0  0  0
   40.0761   31.6113   48.0459 H   0  0  0  0  0  0  0  0  0  0  0  0
  2 12  1  0
  2  1  2  0
  3  2  1  0
  4  3  2  0
  4  5  1  0
  5  6  2  0
  6  1  1  0
  7  5  1  0
  7 11  1  0
  8  9  1  0
  8  7  1  0
  9 10  1  0
 10 11  1  0
 12 13  1  0
 13 14  1  0
 15 14  1  0
 16 17  1  0
 16 15  1  0
 17 12  1  0
  1 18  1  0
  3 19  1  0
  8 20  1  0
  8 21  1  0
  9 22  1  0
  9 23  1  0
 10 24  1  0
 10 25  1  0
 11 26  1  0
 11 27  1  0
 13 28  1  0
 13 29  1  0
 14 30  1  0
 14 31  1  0
 15 32  1  0
 15 33  1  0
 16 34  1  0
 16 35  1  0
 17 36  1  0
 17 37  1  0
M  ISO  8  18  14  19  14  20  13  21  13  22  13  23  13  24  13  25  13
M  ISO  8  26  13  27  13  28  13  29  13  30  13  31  13  32  13  33  13
M  ISO  4  34  13  35  13  36  13  37  13
M  END
>  <minimizedAffinity>  (1) 
-4.68332291

>  <minimizedRMSD>  (1) 
2.85911226

$$$$
