
     RDKit          3D

 37 39  0  0  0  0  0  0  0  0999 V2000
   38.3360   32.3200   48.5810 C   0  0  0  0  0  0  0  0  0  0  0  0
   38.5850   33.1080   49.6710 C   0  0  0  0  0  0  0  0  0  0  0  0
   39.4680   34.1920   49.5780 C   0  0  0  0  0  0  0  0  0  0  0  0
   40.0910   34.4620   48.3670 C   0  0  0  0  0  0  0  0  0  0  0  0
   39.8410   33.6560   47.2360 C   0  0  0  0  0  0  0  0  0  0  0  0
   38.9600   32.6080   47.4050 C   0  0  0  0  0  0  0  0  0  0  0  0
   36.7450   29.0630   49.6360 C   0  0  0  0  0  0  0  0  0  0  0  0
   37.7180   30.0710   49.5430 C   0  0  0  0  0  0  0  0  0  0  0  0
   37.4210   31.2100   48.7540 C   0  0  0  0  0  0  0  0  0  0  0  0
   36.2180   31.2550   48.1380 N   0  0  0  0  0  0  0  0  0  0  0  0
   35.3160   30.2480   48.2660 C   0  0  0  0  0  0  0  0  0  0  0  0
   35.5630   29.1600   49.0010 N   0  0  0  0  0  0  0  0  0  0  0  0
   34.1150   30.4620   47.5660 N   0  0  0  0  0  0  0  0  0  0  0  0
   38.7860   31.9010   46.1720 N   0  0  0  0  0  0  0  0  0  0  0  0
   37.8480   31.9500   45.0800 C   0  0  0  0  0  0  0  0  0  0  0  0
   38.4990   32.3840   43.7870 C   0  0  0  0  0  0  0  0  0  0  0  0
   39.7870   31.6770   43.5090 C   0  0  0  0  0  0  0  0  0  0  0  0
   40.5470   31.2500   44.7020 C   0  0  0  0  0  0  0  0  0  0  0  0
   39.7460   30.8510   45.9010 C   0  0  0  0  0  0  0  0  0  0  0  0
   38.0883   32.8891   50.6278 H   0  0  0  0  0  0  0  0  0  0  0  0
   39.6658   34.8235   50.4567 H   0  0  0  0  0  0  0  0  0  0  0  0
   40.7854   35.3115   48.2885 H   0  0  0  0  0  0  0  0  0  0  0  0
   40.3245   33.8535   46.2679 H   0  0  0  0  0  0  0  0  0  0  0  0
   36.9547   28.1706   50.2440 H   0  0  0  0  0  0  0  0  0  0  0  0
   38.6811   29.9794   50.0665 H   0  0  0  0  0  0  0  0  0  0  0  0
   33.3663   29.7555   47.5998 H   0  0  0  0  0  0  0  0  0  0  0  0
   33.9842   31.3252   47.0195 H   0  0  0  0  0  0  0  0  0  0  0  0
   37.4149   30.9486   44.9398 H   0  0  0  0  0  0  0  0  0  0  0  0
   37.0738   32.6893   45.3329 H   0  0  0  0  0  0  0  0  0  0  0  0
   37.8030   32.1806   42.9598 H   0  0  0  0  0  0  0  0  0  0  0  0
   38.7283   33.4558   43.8804 H   0  0  0  0  0  0  0  0  0  0  0  0
   39.5602   30.7809   42.9127 H   0  0  0  0  0  0  0  0  0  0  0  0
   40.4257   32.4054   42.9880 H   0  0  0  0  0  0  0  0  0  0  0  0
   41.1656   30.3878   44.4123 H   0  0  0  0  0  0  0  0  0  0  0  0
   41.1153   32.1379   45.0161 H   0  0  0  0  0  0  0  0  0  0  0  0
   39.2187   29.9069   45.6995 H   0  0  0  0  0  0  0  0  0  0  0  0
   40.4063   30.7058   46.7687 H   0  0  0  0  0  0  0  0  0  0  0  0
  1  9  1  0
  1  2  2  0
  3  2  1  0
  4  3  2  0
  5  6  2  0
  5  4  1  0
  6  1  1  0
  8  7  2  0
  9  8  1  0
 10 11  1  0
 10  9  2  0
 11 12  2  0
 12  7  1  0
 13 11  1  0
 14  6  1  0
 15 14  1  0
 16 15  1  0
 17 16  1  0
 17 18  1  0
 18 19  1  0
 19 14  1  0
  2 20  1  0
  3 21  1  0
  4 22  1  0
  5 23  1  0
  7 24  1  0
  8 25  1  0
 13 26  1  0
 13 27  1  0
 15 28  1  0
 15 29  1  0
 16 30  1  0
 16 31  1  0
 17 32  1  0
 17 33  1  0
 18 34  1  0
 18 35  1  0
 19 36  1  0
 19 37  1  0
M  ISO  8  20  14  21  14  22  14  23  14  24  14  25  14  28  13  29  13
M  ISO  8  30  13  31  13  32  13  33  13  34  13  35  13  36  13  37  13
M  END
>  <minimizedAffinity>  (1) 
-6.27284813

>  <minimizedRMSD>  (1) 
2.7716527

$$$$
