
     RDKit          3D

 41 43  0  0  0  0  0  0  0  0999 V2000
   36.6680   29.6170   44.1260 Cl  0  0  0  0  0  0  0  0  0  0  0  0
   38.3050   29.9640   43.5630 C   0  0  0  0  0  0  0  0  0  0  0  0
   39.3420   30.4040   44.3870 C   0  0  0  0  0  0  0  0  0  0  0  0
   40.5700   30.6350   43.8050 C   0  0  0  0  0  0  0  0  0  0  0  0
   40.7660   30.4390   42.4600 C   0  0  0  0  0  0  0  0  0  0  0  0
   39.7660   30.0090   41.6350 C   0  0  0  0  0  0  0  0  0  0  0  0
   38.5490   29.7780   42.1960 C   0  0  0  0  0  0  0  0  0  0  0  0
   37.4830   29.3230   41.3330 N   0  0  0  0  0  0  0  0  0  0  0  0
   36.4780   30.1120   40.6950 C   0  0  0  0  0  0  0  0  0  0  0  0
   36.6060   29.9740   39.1920 C   0  0  0  0  0  0  0  0  0  0  0  0
   36.9300   28.5520   38.8320 C   0  0  0  0  0  0  0  0  0  0  0  0
   36.5690   27.5990   39.9510 C   0  0  0  0  0  0  0  0  0  0  0  0
   37.4900   27.8890   41.1310 C   0  0  0  0  0  0  0  0  0  0  0  0
   38.9400   30.5360   45.6900 O   0  0  0  0  0  0  0  0  0  0  0  0
   39.4620   32.5600   47.2180 O   0  0  0  0  0  0  0  0  0  0  0  0
   38.3530   31.8840   46.4870 P   0  0  1  0  0  0  0  0  0  0  0  0
   37.7840   32.9180   45.2520 O   0  0  0  0  0  0  0  0  0  0  0  0
   37.0640   31.4310   47.4850 O   0  0  0  0  0  0  0  0  0  0  0  0
   37.5950   30.5150   51.0180 C   0  0  0  0  0  0  0  0  0  0  0  0
   37.7030   31.2980   49.8600 C   0  0  0  0  0  0  0  0  0  0  0  0
   37.0860   30.8500   48.6910 C   0  0  0  0  0  0  0  0  0  0  0  0
   36.4060   29.6620   48.7430 N   0  0  0  0  0  0  0  0  0  0  0  0
   36.3240   28.9400   49.8730 C   0  0  0  0  0  0  0  0  0  0  0  0
   36.9210   29.3740   51.0060 N   0  0  0  0  0  0  0  0  0  0  0  0
   41.4071   30.9822   44.4285 H   0  0  0  0  0  0  0  0  0  0  0  0
   41.7607   30.6347   42.0332 H   0  0  0  0  0  0  0  0  0  0  0  0
   39.9383   29.8556   40.5594 H   0  0  0  0  0  0  0  0  0  0  0  0
   35.4834   29.7648   41.0117 H   0  0  0  0  0  0  0  0  0  0  0  0
   36.6056   31.1672   40.9784 H   0  0  0  0  0  0  0  0  0  0  0  0
   35.6564   30.2625   38.7176 H   0  0  0  0  0  0  0  0  0  0  0  0
   37.4149   30.6295   38.8370 H   0  0  0  0  0  0  0  0  0  0  0  0
   36.3649   28.2743   37.9301 H   0  0  0  0  0  0  0  0  0  0  0  0
   38.0131   28.4799   38.6540 H   0  0  0  0  0  0  0  0  0  0  0  0
   35.5212   27.7522   40.2486 H   0  0  0  0  0  0  0  0  0  0  0  0
   36.6885   26.5570   39.6195 H   0  0  0  0  0  0  0  0  0  0  0  0
   37.1202   27.3789   42.0327 H   0  0  0  0  0  0  0  0  0  0  0  0
   38.5091   27.5263   40.9312 H   0  0  0  0  0  0  0  0  0  0  0  0
   37.3488   33.7089   45.6583 H   0  0  0  0  0  0  0  0  0  0  0  0
   38.0758   30.8520   51.9482 H   0  0  0  0  0  0  0  0  0  0  0  0
   38.2621   32.2452   49.8725 H   0  0  0  0  0  0  0  0  0  0  0  0
   35.7682   27.9907   49.8766 H   0  0  0  0  0  0  0  0  0  0  0  0
  2  1  1  0
  2  3  2  0
  3 14  1  0
  4  3  1  0
  5  4  2  0
  6  7  2  0
  6  5  1  0
  7  2  1  0
  8  7  1  0
  9  8  1  0
 10  9  1  0
 11 10  1  0
 11 12  1  0
 12 13  1  0
 13  8  1  0
 14 16  1  0
 16 15  2  0
 16 18  1  0
 17 16  1  0
 18 21  1  0
 20 19  2  0
 21 22  2  0
 21 20  1  0
 22 23  1  0
 23 24  2  0
 24 19  1  0
  4 25  1  0
  5 26  1  0
  6 27  1  0
  9 28  1  0
  9 29  1  0
 10 30  1  0
 10 31  1  0
 11 32  1  0
 11 33  1  0
 12 34  1  0
 12 35  1  0
 13 36  1  0
 13 37  1  0
 17 38  1  0
 19 39  1  0
 20 40  1  0
 23 41  1  0
M  ISO  8  25  14  26  14  27  14  28  13  29  13  30  13  31  13  32  13
M  ISO  8  33  13  34  13  35  13  36  13  37  13  38   3  39  14  40  14
M  ISO  1  41  14
M  END
>  <minimizedAffinity>  (1) 
-4.8588419

>  <minimizedRMSD>  (1) 
0.836181581

$$$$
