
     RDKit          3D

 32 34  0  0  0  0  0  0  0  0999 V2000
   36.8960   31.3280   49.2440 C   0  0  0  0  0  0  0  0  0  0  0  0
   37.2910   32.4650   49.9720 C   0  0  0  0  0  0  0  0  0  0  0  0
   38.1710   33.3260   49.3390 C   0  0  0  0  0  0  0  0  0  0  0  0
   38.5990   33.0350   48.0770 N   0  0  0  0  0  0  0  0  0  0  0  0
   38.2010   31.9300   47.3960 C   0  0  0  0  0  0  0  0  0  0  0  0
   37.3390   31.0730   47.9960 N   0  0  0  0  0  0  0  0  0  0  0  0
   38.6670   31.6580   46.0810 N   0  0  0  0  0  0  0  0  0  0  0  0
   39.6530   30.6480   45.8130 C   0  0  0  0  0  0  0  0  0  0  0  0
   40.8590   31.3860   45.2390 C   0  0  0  0  0  0  0  0  0  0  0  0
   40.3880   31.9950   43.9250 C   0  0  0  0  0  0  0  0  0  0  0  0
   39.2750   32.9600   44.1720 C   0  0  0  0  0  0  0  0  0  0  0  0
   38.1310   32.4240   44.9710 C   0  0  0  0  0  0  0  0  0  0  0  0
   35.9180   30.3950   49.9120 C   0  0  0  0  0  0  0  0  0  0  0  0
   35.9480   28.9600   49.6500 C   0  0  0  0  0  0  0  0  0  0  0  0
   36.5710   29.4690   50.9250 C   0  0  0  0  0  0  0  0  0  0  0  0
   36.9206   32.6595   50.9894 H   0  0  0  0  0  0  0  0  0  0  0  0
   38.5215   34.2356   49.8486 H   0  0  0  0  0  0  0  0  0  0  0  0
   39.9293   30.1266   46.7413 H   0  0  0  0  0  0  0  0  0  0  0  0
   39.2739   29.8874   45.1146 H   0  0  0  0  0  0  0  0  0  0  0  0
   41.1892   32.1755   45.9302 H   0  0  0  0  0  0  0  0  0  0  0  0
   41.7127   30.7090   45.0877 H   0  0  0  0  0  0  0  0  0  0  0  0
   40.0331   31.1938   43.2600 H   0  0  0  0  0  0  0  0  0  0  0  0
   41.2277   32.5288   43.4560 H   0  0  0  0  0  0  0  0  0  0  0  0
   39.6889   33.8259   44.7095 H   0  0  0  0  0  0  0  0  0  0  0  0
   38.8644   33.2108   43.1828 H   0  0  0  0  0  0  0  0  0  0  0  0
   37.5226   33.2567   45.3537 H   0  0  0  0  0  0  0  0  0  0  0  0
   37.4970   31.7832   44.3406 H   0  0  0  0  0  0  0  0  0  0  0  0
   35.0952   31.1243   49.8791 H   0  0  0  0  0  0  0  0  0  0  0  0
   35.0155   28.3780   49.6930 H   0  0  0  0  0  0  0  0  0  0  0  0
   36.3048   28.3388   48.8153 H   0  0  0  0  0  0  0  0  0  0  0  0
   37.6637   29.4641   51.0510 H   0  0  0  0  0  0  0  0  0  0  0  0
   36.4553   29.2636   51.9994 H   0  0  0  0  0  0  0  0  0  0  0  0
  1 13  1  0
  1  2  2  0
  3  2  1  0
  4  3  2  0
  5  6  2  0
  5  4  1  0
  6  1  1  0
  7  5  1  0
  8  7  1  0
  9  8  1  0
 10 11  1  0
 10  9  1  0
 11 12  1  0
 12  7  1  0
 13 15  1  0
 14 13  1  0
 14 15  1  0
  2 16  1  0
  3 17  1  0
  8 18  1  0
  8 19  1  0
  9 20  1  0
  9 21  1  0
 10 22  1  0
 10 23  1  0
 11 24  1  0
 11 25  1  0
 12 26  1  0
 12 27  1  0
 13 28  1  0
 14 29  1  0
 14 30  1  0
 15 31  1  0
 15 32  1  0
M  ISO  8  16  14  17  14  18  13  19  13  20  13  21  13  22  13  23  13
M  ISO  8  24  13  25  13  26  13  27  13  28  13  29  13  30  13  31  13
M  ISO  1  32  13
M  END
>  <minimizedAffinity>  (1) 
-5.92160034

>  <minimizedRMSD>  (1) 
1.022663

$$$$
