
     RDKit          3D

 28 29  0  0  0  0  0  0  0  0999 V2000
   35.5290   30.0010   46.4470 O   0  0  0  0  0  0  0  0  0  0  0  0
   34.3920   29.9690   47.4420 P   0  0  1  0  0  0  0  0  0  0  0  0
   34.1120   28.4040   47.9980 O   0  0  0  0  0  0  0  0  0  0  0  0
   34.7640   30.9210   48.8380 O   0  0  0  0  0  0  0  0  0  0  0  0
   35.9520   30.7800   49.5380 C   0  0  0  0  0  0  0  0  0  0  0  0
   36.1940   29.9140   50.6040 C   0  0  0  0  0  0  0  0  0  0  0  0
   37.4470   29.9090   51.1820 C   0  0  0  0  0  0  0  0  0  0  0  0
   38.4170   30.7510   50.6990 N   0  0  0  0  0  0  0  0  0  0  0  0
   38.1390   31.5790   49.6600 C   0  0  0  0  0  0  0  0  0  0  0  0
   36.9110   31.5950   49.0790 N   0  0  0  0  0  0  0  0  0  0  0  0
   35.0900   29.1200   50.9720 N   0  0  0  0  0  0  0  0  0  0  0  0
   33.0670   30.6430   46.6600 O   0  0  0  0  0  0  0  0  0  0  0  0
   31.4930   32.2600   45.1880 F   0  0  0  0  0  0  0  0  0  0  0  0
   31.3100   30.9130   45.2220 C   0  0  0  0  0  0  0  0  0  0  0  0
   32.0810   30.0060   45.9600 C   0  0  0  0  0  0  0  0  0  0  0  0
   31.7620   28.6660   45.8840 C   0  0  0  0  0  0  0  0  0  0  0  0
   30.7240   28.2290   45.1160 C   0  0  0  0  0  0  0  0  0  0  0  0
   29.9770   29.1200   44.3990 C   0  0  0  0  0  0  0  0  0  0  0  0
   30.2480   30.4780   44.4330 C   0  0  0  0  0  0  0  0  0  0  0  0
   34.1114   28.4007   48.9880 H   0  0  0  0  0  0  0  0  0  0  0  0
   37.6666   29.2353   52.0234 H   0  0  0  0  0  0  0  0  0  0  0  0
   38.9235   32.2504   49.2809 H   0  0  0  0  0  0  0  0  0  0  0  0
   35.1740   28.4498   51.7496 H   0  0  0  0  0  0  0  0  0  0  0  0
   34.1988   29.2097   50.4635 H   0  0  0  0  0  0  0  0  0  0  0  0
   32.3563   27.9365   46.4538 H   0  0  0  0  0  0  0  0  0  0  0  0
   30.4872   27.1556   45.0735 H   0  0  0  0  0  0  0  0  0  0  0  0
   29.1438   28.7518   43.7824 H   0  0  0  0  0  0  0  0  0  0  0  0
   29.6427   31.1913   43.8543 H   0  0  0  0  0  0  0  0  0  0  0  0
  2  1  2  0
  2  3  1  0
  2  4  1  0
  4  5  1  0
  5  6  2  0
  6 11  1  0
  6  7  1  0
  8  7  2  0
  9  8  1  0
 10  5  1  0
 10  9  2  0
 12  2  1  0
 13 14  1  0
 14 15  2  0
 15 12  1  0
 16 15  1  0
 17 16  2  0
 18 19  2  0
 18 17  1  0
 19 14  1  0
  3 20  1  0
  7 21  1  0
  9 22  1  0
 11 23  1  0
 11 24  1  0
 16 25  1  0
 17 26  1  0
 18 27  1  0
 19 28  1  0
M  ISO  7  20   3  21  14  22  14  25  14  26  14  27  14  28  14
M  END
>  <minimizedAffinity>  (1) 
-3.99389958

>  <minimizedRMSD>  (1) 
0.29045707

$$$$
