
     RDKit          3D

 43 45  0  0  1  0  0  0  0  0999 V2000
   34.2010   29.4900   46.6510 C   0  0  0  0  0  0  0  0  0  0  0  0
   35.1500   30.1760   45.8900 C   0  0  0  0  0  0  0  0  0  0  0  0
   35.5160   29.6480   44.6620 C   0  0  0  0  0  0  0  0  0  0  0  0
   34.9450   28.5090   44.2640 N   0  0  0  0  0  0  0  0  0  0  0  0
   34.0290   27.8570   45.0090 C   0  0  0  0  0  0  0  0  0  0  0  0
   33.6640   28.3470   46.1910 N   0  0  0  0  0  0  0  0  0  0  0  0
   36.4690   30.2850   43.8710 N   0  0  0  0  0  0  0  0  0  0  0  0
   36.7150   31.7500   43.8110 C   0  0  0  0  0  0  0  0  0  0  0  0
   37.5830   32.0160   42.6410 C   0  0  0  0  0  0  0  0  0  0  0  0
   37.5090   30.7940   41.8590 C   0  0  0  0  0  0  0  0  0  0  0  0
   37.4110   29.7710   42.9330 C   0  0  2  0  0  0  0  0  0  0  0  0
   37.0200   28.4230   42.3220 C   0  0  0  0  0  0  0  0  0  0  0  0
   35.6680   28.4460   42.0450 F   0  0  0  0  0  0  0  0  0  0  0  0
   37.2410   27.3390   43.1140 F   0  0  0  0  0  0  0  0  0  0  0  0
   37.6610   28.3400   41.1010 F   0  0  0  0  0  0  0  0  0  0  0  0
   38.6530   29.5600   43.6150 C   0  0  2  0  0  0  0  0  0  0  0  0
   40.4640   31.6910   42.8960 F   0  0  0  0  0  0  0  0  0  0  0  0
   40.0590   31.6710   44.1850 C   0  0  0  0  0  0  0  0  0  0  0  0
   39.2080   30.6600   44.6010 C   0  0  0  0  0  0  0  0  0  0  0  0
   38.8330   30.7810   45.9310 C   0  0  0  0  0  0  0  0  0  0  0  0
   39.2210   31.7600   46.7990 C   0  0  0  0  0  0  0  0  0  0  0  0
   40.0550   32.6930   46.2820 C   0  0  0  0  0  0  0  0  0  0  0  0
   40.5020   32.6900   44.9830 C   0  0  0  0  0  0  0  0  0  0  0  0
   39.5700   29.5960   42.7430 O   0  0  0  0  0  0  0  0  0  0  0  0
   40.6580   28.8850   42.3870 C   0  0  0  0  0  0  0  0  0  0  0  0
   40.3790   27.6930   42.2270 O   0  0  0  0  0  0  0  0  0  0  0  0
   42.0480   28.8490   42.0870 N   0  0  0  0  0  0  0  0  0  0  0  0
   33.8922   29.8862   47.6296 H   0  0  0  0  0  0  0  0  0  0  0  0
   35.5960   31.1124   46.2563 H   0  0  0  0  0  0  0  0  0  0  0  0
   33.5842   26.9211   44.6398 H   0  0  0  0  0  0  0  0  0  0  0  0
   35.7607   32.2853   43.6983 H   0  0  0  0  0  0  0  0  0  0  0  0
   37.1999   32.0963   44.7356 H   0  0  0  0  0  0  0  0  0  0  0  0
   37.2070   32.8729   42.0627 H   0  0  0  0  0  0  0  0  0  0  0  0
   38.6135   32.2706   42.9294 H   0  0  0  0  0  0  0  0  0  0  0  0
   36.6210   30.7837   41.2099 H   0  0  0  0  0  0  0  0  0  0  0  0
   38.3537   30.6465   41.1700 H   0  0  0  0  0  0  0  0  0  0  0  0
   38.4334   28.6434   44.1822 H   0  0  0  0  0  0  0  0  0  0  0  0
   38.1546   30.0103   46.3258 H   0  0  0  0  0  0  0  0  0  0  0  0
   38.8804   31.7891   47.8445 H   0  0  0  0  0  0  0  0  0  0  0  0
   40.3957   33.5035   46.9430 H   0  0  0  0  0  0  0  0  0  0  0  0
   41.1816   33.4674   44.6038 H   0  0  0  0  0  0  0  0  0  0  0  0
   42.4973   27.9574   41.8339 H   0  0  0  0  0  0  0  0  0  0  0  0
   42.6052   29.7145   42.1229 H   0  0  0  0  0  0  0  0  0  0  0  0
  2  1  2  0
  3  2  1  0
  4  3  2  0
  4  5  1  0
  5  6  2  0
  6  1  1  0
  7  3  1  0
  8  7  1  0
  9  8  1  0
 10  9  1  0
 10 11  1  0
 11 12  1  6
 11 16  1  0
 11  7  1  0
 12 14  1  0
 13 12  1  0
 15 12  1  0
 16 19  1  0
 17 18  1  0
 18 19  2  0
 18 23  1  0
 19 20  1  0
 20 21  2  0
 22 21  1  0
 23 22  2  0
 24 16  1  0
 25 24  1  0
 26 25  2  0
 27 25  1  0
  1 28  1  0
  2 29  1  0
  5 30  1  0
  8 31  1  0
  8 32  1  0
  9 33  1  0
  9 34  1  0
 10 35  1  0
 10 36  1  0
 16 37  1  1
 20 38  1  0
 21 39  1  0
 22 40  1  0
 23 41  1  0
 27 42  1  0
 27 43  1  0
M  ISO  8  28  14  29  14  30  14  31  13  32  13  33  13  34  13  35  13
M  ISO  6  36  13  37   8  38  14  39  14  40  14  41  14
M  END
>  <minimizedAffinity>  (1) 
-5.19643164

>  <minimizedRMSD>  (1) 
3.06830192

$$$$
