
     RDKit          3D

 31 33  0  0  0  0  0  0  0  0999 V2000
   37.3480   29.6680   50.1720 C   0  0  0  0  0  0  0  0  0  0  0  0
   37.8820   30.3850   49.0920 C   0  0  0  0  0  0  0  0  0  0  0  0
   37.1780   30.4000   47.9100 C   0  0  0  0  0  0  0  0  0  0  0  0
   36.0090   29.7240   47.8540 N   0  0  0  0  0  0  0  0  0  0  0  0
   35.5040   29.0410   48.8930 C   0  0  0  0  0  0  0  0  0  0  0  0
   36.1800   29.0140   50.0570 N   0  0  0  0  0  0  0  0  0  0  0  0
   33.2290   29.5910   50.5130 F   0  0  0  0  0  0  0  0  0  0  0  0
   33.1490   28.6610   49.5400 C   0  0  0  0  0  0  0  0  0  0  0  0
   34.2330   28.3490   48.7140 C   0  0  0  0  0  0  0  0  0  0  0  0
   34.1540   27.3970   47.7190 C   0  0  0  0  0  0  0  0  0  0  0  0
   32.9580   26.7310   47.5340 C   0  0  0  0  0  0  0  0  0  0  0  0
   31.8570   26.9810   48.3010 C   0  0  0  0  0  0  0  0  0  0  0  0
   31.9720   27.9470   49.2960 C   0  0  0  0  0  0  0  0  0  0  0  0
   37.6110   31.1060   46.6970 C   0  0  0  0  0  0  0  0  0  0  0  0
   36.9320   30.9990   45.4980 C   0  0  0  0  0  0  0  0  0  0  0  0
   37.3450   31.6670   44.3560 C   0  0  0  0  0  0  0  0  0  0  0  0
   38.4370   32.4460   44.3980 N   0  0  0  0  0  0  0  0  0  0  0  0
   39.0840   32.5420   45.5610 C   0  0  0  0  0  0  0  0  0  0  0  0
   38.6980   31.9020   46.6780 N   0  0  0  0  0  0  0  0  0  0  0  0
   40.2960   33.3930   45.6540 C   0  0  0  0  0  0  0  0  0  0  0  0
   40.3260   33.9850   46.9070 F   0  0  0  0  0  0  0  0  0  0  0  0
   41.4490   32.6420   45.4190 F   0  0  0  0  0  0  0  0  0  0  0  0
   40.2880   34.3980   44.7350 F   0  0  0  0  0  0  0  0  0  0  0  0
   37.8930   29.6405   51.1271 H   0  0  0  0  0  0  0  0  0  0  0  0
   38.8379   30.9210   49.1871 H   0  0  0  0  0  0  0  0  0  0  0  0
   35.0252   27.1728   47.0860 H   0  0  0  0  0  0  0  0  0  0  0  0
   32.8905   25.9723   46.7404 H   0  0  0  0  0  0  0  0  0  0  0  0
   30.9137   26.4389   48.1386 H   0  0  0  0  0  0  0  0  0  0  0  0
   31.0928   28.1595   49.9219 H   0  0  0  0  0  0  0  0  0  0  0  0
   36.0355   30.3636   45.4485 H   0  0  0  0  0  0  0  0  0  0  0  0
   36.7797   31.5590   43.4185 H   0  0  0  0  0  0  0  0  0  0  0  0
  2  1  2  0
  3  2  1  0
  4  3  2  0
  4  5  1  0
  5  6  2  0
  6  1  1  0
  8  7  1  0
  9  5  1  0
  9  8  2  0
 10  9  1  0
 11 10  2  0
 11 12  1  0
 12 13  2  0
 13  8  1  0
 14  3  1  0
 15 14  2  0
 16 17  2  0
 16 15  1  0
 17 18  1  0
 18 20  1  0
 18 19  2  0
 19 14  1  0
 20 21  1  0
 22 20  1  0
 23 20  1  0
  1 24  1  0
  2 25  1  0
 10 26  1  0
 11 27  1  0
 12 28  1  0
 13 29  1  0
 15 30  1  0
 16 31  1  0
M  ISO  8  24  14  25  14  26  14  27  14  28  14  29  14  30  14  31  14
M  END
>  <minimizedAffinity>  (1) 
-6.4324193

>  <minimizedRMSD>  (1) 
1.28394306

$$$$
