
     RDKit          3D

 25 26  0  0  0  0  0  0  0  0999 V2000
   35.7140   29.5250   49.3400 C   0  0  0  0  0  0  0  0  0  0  0  0
   35.8580   29.9630   48.0020 C   0  0  0  0  0  0  0  0  0  0  0  0
   34.8510   29.7090   47.0820 C   0  0  0  0  0  0  0  0  0  0  0  0
   33.7610   29.0370   47.5420 N   0  0  0  0  0  0  0  0  0  0  0  0
   33.6210   28.6220   48.8080 C   0  0  0  0  0  0  0  0  0  0  0  0
   34.6040   28.8730   49.6890 N   0  0  0  0  0  0  0  0  0  0  0  0
   32.4000   27.9330   49.0910 N   0  0  0  0  0  0  0  0  0  0  0  0
   36.4270   32.1510   49.5260 F   0  0  0  0  0  0  0  0  0  0  0  0
   37.2870   31.7520   48.5420 C   0  0  0  0  0  0  0  0  0  0  0  0
   37.0950   30.6580   47.7110 C   0  0  0  0  0  0  0  0  0  0  0  0
   38.0680   30.3710   46.7460 C   0  0  0  0  0  0  0  0  0  0  0  0
   39.1790   31.1840   46.6550 C   0  0  0  0  0  0  0  0  0  0  0  0
   39.3510   32.2670   47.4910 C   0  0  0  0  0  0  0  0  0  0  0  0
   38.4010   32.5620   48.4470 C   0  0  0  0  0  0  0  0  0  0  0  0
   35.0270   30.1780   45.6930 C   0  0  0  0  0  0  0  0  0  0  0  0
   35.6210   29.1890   44.9930 F   0  0  0  0  0  0  0  0  0  0  0  0
   33.8390   30.5560   45.1110 F   0  0  0  0  0  0  0  0  0  0  0  0
   35.8820   31.3000   45.6460 F   0  0  0  0  0  0  0  0  0  0  0  0
   36.5045   29.7191   50.0799 H   0  0  0  0  0  0  0  0  0  0  0  0
   32.2153   27.5816   50.0414 H   0  0  0  0  0  0  0  0  0  0  0  0
   31.7054   27.7882   48.3444 H   0  0  0  0  0  0  0  0  0  0  0  0
   37.9485   29.5108   46.0709 H   0  0  0  0  0  0  0  0  0  0  0  0
   39.9456   30.9630   45.8977 H   0  0  0  0  0  0  0  0  0  0  0  0
   40.2476   32.8971   47.3955 H   0  0  0  0  0  0  0  0  0  0  0  0
   38.5283   33.4237   49.1188 H   0  0  0  0  0  0  0  0  0  0  0  0
  1  6  2  0
  2  1  1  0
  3  4  1  0
  3  2  2  0
  4  5  2  0
  5  7  1  0
  5  6  1  0
  9  8  1  0
 10  2  1  0
 10  9  2  0
 11 10  1  0
 12 11  2  0
 12 13  1  0
 13 14  2  0
 14  9  1  0
 15  3  1  0
 16 15  1  0
 17 15  1  0
 18 15  1  0
  1 19  1  0
  7 20  1  0
  7 21  1  0
 11 22  1  0
 12 23  1  0
 13 24  1  0
 14 25  1  0
M  ISO  5  19  14  22  14  23  14  24  14  25  14
M  END
>  <minimizedAffinity>  (1) 
-4.62651682

>  <minimizedRMSD>  (1) 
4.58677912

$$$$
