
     RDKit          3D

 25 26  0  0  0  0  0  0  0  0999 V2000
   37.6330   31.1580   48.5060 C   0  0  0  0  0  0  0  0  0  0  0  0
   36.7680   30.0580   48.4650 C   0  0  0  0  0  0  0  0  0  0  0  0
   36.5770   29.2810   49.5820 C   0  0  0  0  0  0  0  0  0  0  0  0
   37.2650   29.6320   50.7200 N   0  0  0  0  0  0  0  0  0  0  0  0
   38.0960   30.6970   50.7400 C   0  0  0  0  0  0  0  0  0  0  0  0
   38.2800   31.4460   49.6630 N   0  0  0  0  0  0  0  0  0  0  0  0
   34.6780   30.0390   47.2000 C   0  0  0  0  0  0  0  0  0  0  0  0
   33.8310   30.6640   47.9150 O   0  0  0  0  0  0  0  0  0  0  0  0
   36.0410   29.6550   47.3350 N   0  0  0  0  0  0  0  0  0  0  0  0
   37.7000   31.8120   47.3080 O   0  0  0  0  0  0  0  0  0  0  0  0
   39.7790   33.6180   47.3000 F   0  0  0  0  0  0  0  0  0  0  0  0
   39.6950   32.6100   46.4010 C   0  0  0  0  0  0  0  0  0  0  0  0
   38.6780   31.6760   46.3560 C   0  0  0  0  0  0  0  0  0  0  0  0
   38.7310   30.7140   45.3870 C   0  0  0  0  0  0  0  0  0  0  0  0
   39.7150   30.5840   44.4360 C   0  0  0  0  0  0  0  0  0  0  0  0
   40.7200   31.5450   44.5180 C   0  0  0  0  0  0  0  0  0  0  0  0
   40.7120   32.5290   45.4700 C   0  0  0  0  0  0  0  0  0  0  0  0
   35.9011   28.4133   49.5667 H   0  0  0  0  0  0  0  0  0  0  0  0
   38.6301   30.9470   51.6685 H   0  0  0  0  0  0  0  0  0  0  0  0
   34.2502   29.7155   46.2396 H   0  0  0  0  0  0  0  0  0  0  0  0
   36.4921   29.0836   46.6063 H   0  0  0  0  0  0  0  0  0  0  0  0
   37.9136   29.9782   45.3661 H   0  0  0  0  0  0  0  0  0  0  0  0
   39.7093   29.7893   43.6755 H   0  0  0  0  0  0  0  0  0  0  0  0
   41.5475   31.5123   43.7940 H   0  0  0  0  0  0  0  0  0  0  0  0
   41.5280   33.2663   45.4937 H   0  0  0  0  0  0  0  0  0  0  0  0
  1  6  1  0
  2  1  2  0
  2  3  1  0
  3  4  2  0
  4  5  1  0
  6  5  2  0
  7  9  1  0
  7  8  2  0
  9  2  1  0
 10  1  1  0
 12 11  1  0
 13 12  2  0
 13 10  1  0
 14 13  1  0
 15 16  1  0
 15 14  2  0
 16 17  2  0
 17 12  1  0
  3 18  1  0
  5 19  1  0
  7 20  1  0
  9 21  1  0
 14 22  1  0
 15 23  1  0
 16 24  1  0
 17 25  1  0
M  ISO  7  18  14  19  14  20   6  22  14  23  14  24  14  25  14
M  END
>  <minimizedAffinity>  (1) 
-4.77401209

>  <minimizedRMSD>  (1) 
6.99811554

$$$$
