
     RDKit          3D

 39 41  0  0  1  0  0  0  0  0999 V2000
   34.9250   28.4760   49.9580 O   0  0  0  0  0  0  0  0  0  0  0  0
   34.7390   28.8420   48.7900 C   0  0  0  0  0  0  0  0  0  0  0  0
   35.4470   29.9710   48.2280 C   0  0  2  0  0  0  0  0  0  0  0  0
   35.0100   29.8870   46.7290 C   0  0  0  0  0  0  0  0  0  0  0  0
   33.6790   29.1930   46.8090 C   0  0  0  0  0  0  0  0  0  0  0  0
   33.8280   28.2150   47.8800 N   0  0  0  0  0  0  0  0  0  0  0  0
   33.1800   26.9220   47.9410 C   0  0  0  0  0  0  0  0  0  0  0  0
   31.6460   28.2810   49.9590 F   0  0  0  0  0  0  0  0  0  0  0  0
   30.9750   27.6690   48.9580 C   0  0  0  0  0  0  0  0  0  0  0  0
   31.6990   27.0180   47.9870 C   0  0  0  0  0  0  0  0  0  0  0  0
   30.9970   26.3890   46.9500 C   0  0  0  0  0  0  0  0  0  0  0  0
   29.6280   26.4770   46.9950 C   0  0  0  0  0  0  0  0  0  0  0  0
   28.8800   27.1300   47.9690 C   0  0  0  0  0  0  0  0  0  0  0  0
   29.5970   27.7440   48.9830 C   0  0  0  0  0  0  0  0  0  0  0  0
   36.8680   29.8340   48.2190 O   0  0  0  0  0  0  0  0  0  0  0  0
   37.6260   31.0020   48.2600 C   0  0  0  0  0  0  0  0  0  0  0  0
   37.7660   31.6190   49.4900 C   0  0  0  0  0  0  0  0  0  0  0  0
   38.5140   32.7830   49.5600 C   0  0  0  0  0  0  0  0  0  0  0  0
   39.0780   33.2700   48.4170 N   0  0  0  0  0  0  0  0  0  0  0  0
   38.9310   32.6550   47.2310 C   0  0  0  0  0  0  0  0  0  0  0  0
   38.2150   31.5460   47.1760 N   0  0  0  0  0  0  0  0  0  0  0  0
   40.4630   32.2850   45.4570 C   0  0  0  0  0  0  0  0  0  0  0  0
   40.7750   31.1130   45.8320 O   0  0  0  0  0  0  0  0  0  0  0  0
   39.5370   33.1990   46.0640 N   0  0  0  0  0  0  0  0  0  0  0  0
   35.2242   30.8867   48.7953 H   0  0  0  0  0  0  0  0  0  0  0  0
   35.7286   29.2992   46.1391 H   0  0  0  0  0  0  0  0  0  0  0  0
   34.9607   30.8681   46.2339 H   0  0  0  0  0  0  0  0  0  0  0  0
   32.8819   29.9118   47.0498 H   0  0  0  0  0  0  0  0  0  0  0  0
   33.4002   28.7220   45.8548 H   0  0  0  0  0  0  0  0  0  0  0  0
   33.4665   26.3437   47.0502 H   0  0  0  0  0  0  0  0  0  0  0  0
   33.5075   26.4328   48.8702 H   0  0  0  0  0  0  0  0  0  0  0  0
   31.5161   25.8527   46.1420 H   0  0  0  0  0  0  0  0  0  0  0  0
   29.0701   25.9849   46.1847 H   0  0  0  0  0  0  0  0  0  0  0  0
   27.7808   27.1574   47.9360 H   0  0  0  0  0  0  0  0  0  0  0  0
   29.0787   28.2803   49.7915 H   0  0  0  0  0  0  0  0  0  0  0  0
   37.2953   31.1962   50.3898 H   0  0  0  0  0  0  0  0  0  0  0  0
   38.6506   33.3047   50.5188 H   0  0  0  0  0  0  0  0  0  0  0  0
   40.9676   32.6473   44.5492 H   0  0  0  0  0  0  0  0  0  0  0  0
   39.3346   34.1399   45.6971 H   0  0  0  0  0  0  0  0  0  0  0  0
  2  1  2  0
  3  2  1  0
  4  5  1  0
  4  3  1  0
  5  6  1  0
  6  7  1  0
  6  2  1  0
  7 10  1  0
  9 14  2  0
  9  8  1  0
 10  9  1  0
 11 12  1  0
 11 10  2  0
 12 13  2  0
 13 14  1  0
 15  3  1  0
 15 16  1  0
 16 17  2  0
 17 18  1  0
 19 18  2  0
 20 19  1  0
 21 20  2  0
 21 16  1  0
 22 23  2  0
 22 24  1  0
 24 20  1  0
  3 25  1  1
  4 26  1  0
  4 27  1  0
  5 28  1  0
  5 29  1  0
  7 30  1  0
  7 31  1  0
 11 32  1  0
 12 33  1  0
 13 34  1  0
 14 35  1  0
 17 36  1  0
 18 37  1  0
 22 38  1  0
 24 39  1  0
M  ISO  8  25  13  26  13  27  13  28  13  29  13  30   8  31   8  32  14
M  ISO  6  33  14  34  14  35  14  36  14  37  14  38   6
M  END
>  <minimizedAffinity>  (1) 
-6.23315144

>  <minimizedRMSD>  (1) 
3.28133011

$$$$
