
     RDKit          3D

 35 37  0  0  0  0  0  0  0  0999 V2000
   37.4050   30.5880   50.2830 C   0  0  0  0  0  0  0  0  0  0  0  0
   37.0470   30.6580   48.9510 C   0  0  0  0  0  0  0  0  0  0  0  0
   35.7930   30.1570   48.5330 C   0  0  0  0  0  0  0  0  0  0  0  0
   34.9780   29.6200   49.4700 N   0  0  0  0  0  0  0  0  0  0  0  0
   35.3730   29.5680   50.7950 C   0  0  0  0  0  0  0  0  0  0  0  0
   36.5800   30.0530   51.1870 N   0  0  0  0  0  0  0  0  0  0  0  0
   34.4690   28.9920   51.7390 N   0  0  0  0  0  0  0  0  0  0  0  0
   38.0030   33.5200   49.3210 Cl  0  0  0  0  0  0  0  0  0  0  0  0
   38.5380   32.5330   48.0020 C   0  0  0  0  0  0  0  0  0  0  0  0
   38.0070   31.2700   48.0030 C   0  0  0  0  0  0  0  0  0  0  0  0
   38.3870   30.3960   46.9800 C   0  0  0  0  0  0  0  0  0  0  0  0
   39.2490   30.7540   46.0020 C   0  0  0  0  0  0  0  0  0  0  0  0
   39.7780   32.0420   46.0150 C   0  0  0  0  0  0  0  0  0  0  0  0
   40.8950   32.5630   44.7900 Cl  0  0  0  0  0  0  0  0  0  0  0  0
   39.4130   32.9040   47.0140 C   0  0  0  0  0  0  0  0  0  0  0  0
   35.4320   30.2380   47.1210 C   0  0  0  0  0  0  0  0  0  0  0  0
   34.7260   27.5790   47.3520 F   0  0  0  0  0  0  0  0  0  0  0  0
   33.7250   28.3930   46.9450 C   0  0  0  0  0  0  0  0  0  0  0  0
   34.0610   29.7260   46.8250 C   0  0  0  0  0  0  0  0  0  0  0  0
   33.1000   30.6290   46.4160 C   0  0  0  0  0  0  0  0  0  0  0  0
   31.8020   30.2530   46.1170 C   0  0  0  0  0  0  0  0  0  0  0  0
   31.5060   28.9170   46.2490 C   0  0  0  0  0  0  0  0  0  0  0  0
   32.4380   27.9740   46.6570 C   0  0  0  0  0  0  0  0  0  0  0  0
   38.3823   30.9779   50.6036 H   0  0  0  0  0  0  0  0  0  0  0  0
   34.7296   28.9366   52.7339 H   0  0  0  0  0  0  0  0  0  0  0  0
   33.5565   28.6321   51.4248 H   0  0  0  0  0  0  0  0  0  0  0  0
   37.9688   29.3786   46.9705 H   0  0  0  0  0  0  0  0  0  0  0  0
   39.5271   30.0416   45.2113 H   0  0  0  0  0  0  0  0  0  0  0  0
   39.8327   33.9207   47.0242 H   0  0  0  0  0  0  0  0  0  0  0  0
   35.4851   31.2913   46.8082 H   0  0  0  0  0  0  0  0  0  0  0  0
   36.1402   29.6021   46.5696 H   0  0  0  0  0  0  0  0  0  0  0  0
   33.3770   31.6896   46.3241 H   0  0  0  0  0  0  0  0  0  0  0  0
   31.0475   30.9841   45.7911 H   0  0  0  0  0  0  0  0  0  0  0  0
   30.4839   28.5806   46.0208 H   0  0  0  0  0  0  0  0  0  0  0  0
   32.1594   26.9139   46.7498 H   0  0  0  0  0  0  0  0  0  0  0  0
  1  6  2  0
  2  1  1  0
  3  2  2  0
  3  4  1  0
  4  5  2  0
  5  6  1  0
  5  7  1  0
  9 10  2  0
  9  8  1  0
 10  2  1  0
 11 10  1  0
 12 13  1  0
 12 11  2  0
 13 15  2  0
 14 13  1  0
 15  9  1  0
 16  3  1  0
 18 17  1  0
 19 18  2  0
 19 16  1  0
 20 19  1  0
 21 22  1  0
 21 20  2  0
 22 23  2  0
 23 18  1  0
  1 24  1  0
  7 25  1  0
  7 26  1  0
 11 27  1  0
 12 28  1  0
 15 29  1  0
 16 30  1  0
 16 31  1  0
 20 32  1  0
 21 33  1  0
 22 34  1  0
 23 35  1  0
M  ISO  8  24  14  27  14  28  14  29  14  30   8  31   8  32  14  33  14
M  ISO  2  34  14  35  14
M  END
>  <minimizedAffinity>  (1) 
-6.0197382

>  <minimizedRMSD>  (1) 
0.657745659

$$$$
