
     RDKit          3D

 27 28  0  0  0  0  0  0  0  0999 V2000
   34.7230   28.3220   49.5710 C   0  0  0  0  0  0  0  0  0  0  0  0
   35.4080   29.2090   50.5570 C   0  0  0  0  0  0  0  0  0  0  0  0
   37.4700   30.2860   52.0090 F   0  0  0  0  0  0  0  0  0  0  0  0
   37.3790   30.5470   50.6660 C   0  0  0  0  0  0  0  0  0  0  0  0
   36.3810   30.0620   49.8200 C   0  0  0  0  0  0  0  0  0  0  0  0
   36.4140   30.4070   48.4900 C   0  0  0  0  0  0  0  0  0  0  0  0
   37.3980   31.2120   47.9870 C   0  0  0  0  0  0  0  0  0  0  0  0
   38.3970   31.6970   48.8330 C   0  0  0  0  0  0  0  0  0  0  0  0
   38.3840   31.3580   50.1900 C   0  0  0  0  0  0  0  0  0  0  0  0
   33.3770   28.6850   49.3960 O   0  0  0  0  0  0  0  0  0  0  0  0
   30.5720   26.7410   48.1830 C   0  0  0  0  0  0  0  0  0  0  0  0
   31.2230   25.8690   47.3180 C   0  0  0  0  0  0  0  0  0  0  0  0
   32.6010   25.9870   47.1880 C   0  0  0  0  0  0  0  0  0  0  0  0
   33.2110   26.9570   47.9250 N   0  0  0  0  0  0  0  0  0  0  0  0
   32.5440   27.7890   48.7590 C   0  0  0  0  0  0  0  0  0  0  0  0
   31.2050   27.6750   48.8860 N   0  0  0  0  0  0  0  0  0  0  0  0
   35.2414   28.3964   48.6037 H   0  0  0  0  0  0  0  0  0  0  0  0
   34.7542   27.2918   49.9555 H   0  0  0  0  0  0  0  0  0  0  0  0
   34.6666   29.8436   51.0646 H   0  0  0  0  0  0  0  0  0  0  0  0
   35.9302   28.6040   51.3129 H   0  0  0  0  0  0  0  0  0  0  0  0
   35.6321   30.0274   47.8159 H   0  0  0  0  0  0  0  0  0  0  0  0
   37.4025   31.4766   46.9193 H   0  0  0  0  0  0  0  0  0  0  0  0
   39.1920   32.3438   48.4336 H   0  0  0  0  0  0  0  0  0  0  0  0
   39.1654   31.7340   50.8667 H   0  0  0  0  0  0  0  0  0  0  0  0
   29.4808   26.6540   48.2910 H   0  0  0  0  0  0  0  0  0  0  0  0
   30.6638   25.1084   46.7534 H   0  0  0  0  0  0  0  0  0  0  0  0
   33.1739   25.3270   46.5201 H   0  0  0  0  0  0  0  0  0  0  0  0
  1  2  1  0
  4  3  1  0
  5  2  1  0
  5  4  2  0
  6  5  1  0
  7  6  2  0
  7  8  1  0
  8  9  2  0
  9  4  1  0
 10  1  1  0
 11 16  2  0
 12 11  1  0
 13 12  2  0
 13 14  1  0
 14 15  2  0
 15 16  1  0
 15 10  1  0
  1 17  1  0
  1 18  1  0
  2 19  1  0
  2 20  1  0
  6 21  1  0
  7 22  1  0
  8 23  1  0
  9 24  1  0
 11 25  1  0
 12 26  1  0
 13 27  1  0
M  ISO  8  17   8  18   8  19   8  20   8  21  14  22  14  23  14  24  14
M  ISO  3  25  14  26  14  27  14
M  END
>  <minimizedAffinity>  (1) 
-5.17896795

>  <minimizedRMSD>  (1) 
6.69806099

$$$$
