
     RDKit          3D

 30 32  0  0  1  0  0  0  0  0999 V2000
   36.4450   30.6600   49.9280 C   0  0  1  0  0  0  0  0  0  0  0  0
   36.1260   29.2870   49.5980 C   0  0  1  0  0  0  0  0  0  0  0  0
   37.0670   29.5190   50.7300 C   0  0  0  0  0  0  0  0  0  0  0  0
   37.4780   31.4290   49.1370 C   0  0  0  0  0  0  0  0  0  0  0  0
   37.8180   32.6830   49.6490 C   0  0  0  0  0  0  0  0  0  0  0  0
   38.7580   33.3970   48.8880 C   0  0  0  0  0  0  0  0  0  0  0  0
   39.2760   32.8640   47.7370 N   0  0  0  0  0  0  0  0  0  0  0  0
   38.9000   31.6300   47.2910 C   0  0  0  0  0  0  0  0  0  0  0  0
   37.9880   30.9290   48.0240 N   0  0  0  0  0  0  0  0  0  0  0  0
   34.6990   28.8310   49.8540 C   0  0  0  0  0  0  0  0  0  0  0  0
   33.9890   30.6380   47.9030 F   0  0  0  0  0  0  0  0  0  0  0  0
   33.8690   29.3160   47.6210 C   0  0  0  0  0  0  0  0  0  0  0  0
   34.2000   28.3150   48.5250 C   0  0  0  0  0  0  0  0  0  0  0  0
   34.0410   27.0030   48.1380 C   0  0  0  0  0  0  0  0  0  0  0  0
   33.5660   26.7220   46.8870 C   0  0  0  0  0  0  0  0  0  0  0  0
   33.2270   27.6860   45.9630 C   0  0  0  0  0  0  0  0  0  0  0  0
   33.3920   28.9900   46.3680 C   0  0  0  0  0  0  0  0  0  0  0  0
   35.8020   31.5367   50.0951 H   0  0  0  0  0  0  0  0  0  0  0  0
   36.1939   28.6601   48.6967 H   0  0  0  0  0  0  0  0  0  0  0  0
   38.1357   29.2812   50.6239 H   0  0  0  0  0  0  0  0  0  0  0  0
   37.1186   29.2309   51.7903 H   0  0  0  0  0  0  0  0  0  0  0  0
   37.3828   33.0811   50.5775 H   0  0  0  0  0  0  0  0  0  0  0  0
   39.0818   34.3946   49.2195 H   0  0  0  0  0  0  0  0  0  0  0  0
   39.3213   31.2119   46.3649 H   0  0  0  0  0  0  0  0  0  0  0  0
   34.6798   28.0316   50.6093 H   0  0  0  0  0  0  0  0  0  0  0  0
   34.0706   29.6479   50.2385 H   0  0  0  0  0  0  0  0  0  0  0  0
   34.2944   26.1867   48.8305 H   0  0  0  0  0  0  0  0  0  0  0  0
   33.4478   25.6661   46.6021 H   0  0  0  0  0  0  0  0  0  0  0  0
   32.8478   27.4287   44.9630 H   0  0  0  0  0  0  0  0  0  0  0  0
   33.1351   29.8001   45.6696 H   0  0  0  0  0  0  0  0  0  0  0  0
  1  3  1  0
  2 10  1  0
  2  1  1  0
  2  3  1  0
  4  5  2  0
  4  1  1  0
  6  5  1  0
  7  6  2  0
  8  7  1  0
  8  9  2  0
  9  4  1  0
 12 11  1  0
 12 13  2  0
 13 10  1  0
 14 13  1  0
 15 14  2  0
 16 17  2  0
 16 15  1  0
 17 12  1  0
  1 18  1  1
  2 19  1  6
  3 20  1  0
  3 21  1  0
  5 22  1  0
  6 23  1  0
  8 24  1  0
 10 25  1  0
 10 26  1  0
 14 27  1  0
 15 28  1  0
 16 29  1  0
 17 30  1  0
M  ISO  8  18  13  19  13  20  13  21  13  22  14  23  14  24  14  25   8
M  ISO  5  26   8  27  14  28  14  29  14  30  14
M  END
>  <minimizedAffinity>  (1) 
-5.6847229

>  <minimizedRMSD>  (1) 
1.37151694

$$$$
