
     RDKit          3D

 27 28  0  0  0  0  0  0  0  0999 V2000
   39.3770   32.8610   47.1730 C   0  0  0  0  0  0  0  0  0  0  0  0
   41.6780   32.3470   45.5500 F   0  0  0  0  0  0  0  0  0  0  0  0
   40.4480   32.2220   45.0000 C   0  0  0  0  0  0  0  0  0  0  0  0
   39.3180   32.4590   45.7460 C   0  0  0  0  0  0  0  0  0  0  0  0
   38.0520   32.3380   45.2090 C   0  0  0  0  0  0  0  0  0  0  0  0
   37.8690   31.9700   43.8880 C   0  0  0  0  0  0  0  0  0  0  0  0
   38.9830   31.7250   43.1150 C   0  0  0  0  0  0  0  0  0  0  0  0
   40.2350   31.8560   43.6870 C   0  0  0  0  0  0  0  0  0  0  0  0
   37.8010   32.1720   48.9330 C   0  0  0  0  0  0  0  0  0  0  0  0
   38.6610   31.8600   48.0150 C   0  0  0  0  0  0  0  0  0  0  0  0
   35.2630   29.7800   50.2200 C   0  0  0  0  0  0  0  0  0  0  0  0
   35.8630   30.7390   49.3830 C   0  0  0  0  0  0  0  0  0  0  0  0
   37.1240   31.1990   49.7330 C   0  0  0  0  0  0  0  0  0  0  0  0
   37.7090   30.7080   50.8510 N   0  0  0  0  0  0  0  0  0  0  0  0
   37.1170   29.7940   51.6360 C   0  0  0  0  0  0  0  0  0  0  0  0
   35.8920   29.3210   51.3310 N   0  0  0  0  0  0  0  0  0  0  0  0
   38.9015   33.8455   47.2940 H   0  0  0  0  0  0  0  0  0  0  0  0
   40.4290   32.9131   47.4902 H   0  0  0  0  0  0  0  0  0  0  0  0
   37.1745   32.5374   45.8417 H   0  0  0  0  0  0  0  0  0  0  0  0
   36.8581   31.8752   43.4648 H   0  0  0  0  0  0  0  0  0  0  0  0
   38.8781   31.4301   42.0605 H   0  0  0  0  0  0  0  0  0  0  0  0
   41.1144   31.6563   43.0571 H   0  0  0  0  0  0  0  0  0  0  0  0
   37.5813   33.2360   49.1050 H   0  0  0  0  0  0  0  0  0  0  0  0
   38.8753   30.7942   47.8471 H   0  0  0  0  0  0  0  0  0  0  0  0
   34.2639   29.3947   49.9684 H   0  0  0  0  0  0  0  0  0  0  0  0
   35.3504   31.1105   48.4834 H   0  0  0  0  0  0  0  0  0  0  0  0
   37.6353   29.4283   52.5347 H   0  0  0  0  0  0  0  0  0  0  0  0
  1 10  1  0
  3  2  1  0
  3  4  2  0
  4  1  1  0
  5  4  1  0
  6  5  2  0
  7  8  2  0
  7  6  1  0
  8  3  1  0
  9 13  1  0
 10  9  2  0
 11 16  2  0
 12 13  2  0
 12 11  1  0
 13 14  1  0
 14 15  2  0
 16 15  1  0
  1 17  1  0
  1 18  1  0
  5 19  1  0
  6 20  1  0
  7 21  1  0
  8 22  1  0
  9 23  1  0
 10 24  1  0
 11 25  1  0
 12 26  1  0
 15 27  1  0
M  ISO  8  17   8  18   8  19  14  20  14  21  14  22  14  25  14  26  14
M  ISO  1  27  14
M  END
>  <minimizedAffinity>  (1) 
-5.46953392

>  <minimizedRMSD>  (1) 
3.14834595

$$$$
