
     RDKit          3D

 39 41  0  0  0  0  0  0  0  0999 V2000
   34.6610   29.2680   45.4420 C   0  0  0  0  0  0  0  0  0  0  0  0
   34.6200   29.2200   46.8020 C   0  0  0  0  0  0  0  0  0  0  0  0
   33.5560   28.5900   47.4350 C   0  0  0  0  0  0  0  0  0  0  0  0
   32.5200   28.0010   46.7450 C   0  0  0  0  0  0  0  0  0  0  0  0
   32.5250   28.0340   45.3720 C   0  0  0  0  0  0  0  0  0  0  0  0
   33.5910   28.6620   44.7740 C   0  0  0  0  0  0  0  0  0  0  0  0
   37.2620   31.5530   47.8530 C   0  0  0  0  0  0  0  0  0  0  0  0
   36.2670   30.9300   47.1120 C   0  0  0  0  0  0  0  0  0  0  0  0
   35.6260   29.8370   47.5980 C   0  0  0  0  0  0  0  0  0  0  0  0
   36.0010   29.3950   48.8310 N   0  0  0  0  0  0  0  0  0  0  0  0
   36.9560   29.9910   49.5540 C   0  0  0  0  0  0  0  0  0  0  0  0
   37.5810   31.0640   49.0580 N   0  0  0  0  0  0  0  0  0  0  0  0
   37.2160   29.4430   50.9120 C   0  0  0  0  0  0  0  0  0  0  0  0
   37.7200   30.3990   51.7680 F   0  0  0  0  0  0  0  0  0  0  0  0
   35.9430   29.1220   51.5240 F   0  0  0  0  0  0  0  0  0  0  0  0
   37.8840   28.3160   50.9890 F   0  0  0  0  0  0  0  0  0  0  0  0
   35.9410   29.9720   44.5410 S   0  0  0  0  0  0  0  0  0  0  0  0
   35.6170   31.3680   44.1470 O   0  0  0  0  0  0  0  0  0  0  0  0
   35.6430   29.3460   43.1980 O   0  0  0  0  0  0  0  0  0  0  0  0
   37.5280   29.4200   44.3480 C   0  0  0  0  0  0  0  0  0  0  0  0
   38.2050   31.4060   42.3640 F   0  0  0  0  0  0  0  0  0  0  0  0
   38.9140   31.2910   43.5140 C   0  0  0  0  0  0  0  0  0  0  0  0
   38.6310   30.3440   44.4910 C   0  0  0  0  0  0  0  0  0  0  0  0
   39.4970   30.4010   45.5940 C   0  0  0  0  0  0  0  0  0  0  0  0
   40.5240   31.2940   45.7100 C   0  0  0  0  0  0  0  0  0  0  0  0
   40.7530   32.2090   44.7080 C   0  0  0  0  0  0  0  0  0  0  0  0
   39.9340   32.1910   43.6120 C   0  0  0  0  0  0  0  0  0  0  0  0
   33.5403   28.5603   48.5345 H   0  0  0  0  0  0  0  0  0  0  0  0
   31.6983   27.5100   47.2870 H   0  0  0  0  0  0  0  0  0  0  0  0
   31.7161   27.5804   44.7805 H   0  0  0  0  0  0  0  0  0  0  0  0
   33.6044   28.6909   43.6745 H   0  0  0  0  0  0  0  0  0  0  0  0
   37.7817   32.4371   47.4553 H   0  0  0  0  0  0  0  0  0  0  0  0
   35.9958   31.3258   46.1222 H   0  0  0  0  0  0  0  0  0  0  0  0
   37.5970   28.9954   43.3356 H   0  0  0  0  0  0  0  0  0  0  0  0
   37.6627   28.7282   45.1926 H   0  0  0  0  0  0  0  0  0  0  0  0
   39.3393   29.6842   46.4134 H   0  0  0  0  0  0  0  0  0  0  0  0
   41.1667   31.2818   46.6026 H   0  0  0  0  0  0  0  0  0  0  0  0
   41.5741   32.9368   44.7862 H   0  0  0  0  0  0  0  0  0  0  0  0
   40.1006   32.9125   42.7986 H   0  0  0  0  0  0  0  0  0  0  0  0
  1  2  1  0
  2  3  2  0
  2  9  1  0
  4  3  1  0
  5  4  2  0
  6  5  1  0
  6  1  2  0
  7 12  2  0
  8  9  2  0
  8  7  1  0
  9 10  1  0
 10 11  2  0
 11 13  1  0
 12 11  1  0
 13 16  1  0
 13 15  1  0
 13 14  1  0
 17  1  1  0
 18 17  2  0
 19 17  2  0
 20 23  1  0
 20 17  1  0
 21 22  1  0
 22 27  2  0
 22 23  1  0
 23 24  2  0
 24 25  1  0
 26 25  2  0
 27 26  1  0
  3 28  1  0
  4 29  1  0
  5 30  1  0
  6 31  1  0
  7 32  1  0
  8 33  1  0
 20 34  1  0
 20 35  1  0
 24 36  1  0
 25 37  1  0
 26 38  1  0
 27 39  1  0
M  ISO  8  28  14  29  14  30  14  31  14  32  14  33  14  34   8  35   8
M  ISO  4  36  14  37  14  38  14  39  14
M  END
>  <minimizedAffinity>  (1) 
-5.42365313

>  <minimizedRMSD>  (1) 
3.60988903

$$$$
