
     RDKit          3D

 44 47  0  0  0  0  0  0  0  0999 V2000
   34.6090   29.2570   48.0950 C   0  0  0  0  0  0  0  0  0  0  0  0
   34.6370   27.9620   48.4720 C   0  0  0  0  0  0  0  0  0  0  0  0
   33.7090   27.0950   48.0560 C   0  0  0  0  0  0  0  0  0  0  0  0
   32.7250   27.5450   47.2390 N   0  0  0  0  0  0  0  0  0  0  0  0
   32.6950   28.8190   46.8660 C   0  0  0  0  0  0  0  0  0  0  0  0
   33.6230   29.6890   47.2810 N   0  0  0  0  0  0  0  0  0  0  0  0
   30.2940   28.9900   46.3810 C   0  0  0  0  0  0  0  0  0  0  0  0
   31.6130   29.1670   45.9730 C   0  0  0  0  0  0  0  0  0  0  0  0
   31.9880   29.6360   44.7270 C   0  0  0  0  0  0  0  0  0  0  0  0
   31.0000   29.9540   43.8130 C   0  0  0  0  0  0  0  0  0  0  0  0
   29.6660   29.8090   44.1280 C   0  0  0  0  0  0  0  0  0  0  0  0
   29.4020   29.3420   45.3780 C   0  0  0  0  0  0  0  0  0  0  0  0
   29.8160   28.4580   47.8860 S   0  0  0  0  0  0  0  0  0  0  0  0
   29.3800   27.0210   47.4440 O   0  0  0  0  0  0  0  0  0  0  0  0
   28.5840   29.2350   48.2650 O   0  0  0  0  0  0  0  0  0  0  0  0
   30.1130   27.8510   49.3350 C   0  0  0  0  0  0  0  0  0  0  0  0
   29.6980   26.5850   49.7880 F   0  0  0  0  0  0  0  0  0  0  0  0
   29.2300   28.4850   50.3310 F   0  0  0  0  0  0  0  0  0  0  0  0
   31.1960   28.3180   50.1310 F   0  0  0  0  0  0  0  0  0  0  0  0
   36.5100   31.6910   50.0670 C   0  0  0  0  0  0  0  0  0  0  0  0
   37.5820   32.0180   49.2000 C   0  0  0  0  0  0  0  0  0  0  0  0
   37.6090   31.3900   47.9670 C   0  0  0  0  0  0  0  0  0  0  0  0
   36.6180   30.5170   47.6840 N   0  0  0  0  0  0  0  0  0  0  0  0
   35.6050   30.2200   48.5270 C   0  0  0  0  0  0  0  0  0  0  0  0
   35.5610   30.8140   49.7170 N   0  0  0  0  0  0  0  0  0  0  0  0
   39.4870   33.5740   47.6910 F   0  0  0  0  0  0  0  0  0  0  0  0
   39.5020   32.5900   46.7690 C   0  0  0  0  0  0  0  0  0  0  0  0
   38.6020   31.5670   46.9250 C   0  0  0  0  0  0  0  0  0  0  0  0
   38.7050   30.6180   45.9290 C   0  0  0  0  0  0  0  0  0  0  0  0
   39.6190   30.6970   44.8940 C   0  0  0  0  0  0  0  0  0  0  0  0
   40.4920   31.7510   44.8010 C   0  0  0  0  0  0  0  0  0  0  0  0
   40.4180   32.7090   45.7680 C   0  0  0  0  0  0  0  0  0  0  0  0
   35.4410   27.6122   49.1362 H   0  0  0  0  0  0  0  0  0  0  0  0
   33.7427   26.0410   48.3691 H   0  0  0  0  0  0  0  0  0  0  0  0
   33.0506   29.7537   44.4683 H   0  0  0  0  0  0  0  0  0  0  0  0
   31.2834   30.3288   42.8184 H   0  0  0  0  0  0  0  0  0  0  0  0
   28.8661   30.0552   43.4142 H   0  0  0  0  0  0  0  0  0  0  0  0
   28.3368   29.2279   45.6277 H   0  0  0  0  0  0  0  0  0  0  0  0
   36.4561   32.1711   51.0552 H   0  0  0  0  0  0  0  0  0  0  0  0
   38.3587   32.7393   49.4940 H   0  0  0  0  0  0  0  0  0  0  0  0
   38.0251   29.7538   45.9596 H   0  0  0  0  0  0  0  0  0  0  0  0
   39.6463   29.9025   44.1338 H   0  0  0  0  0  0  0  0  0  0  0  0
   41.2213   31.8203   43.9804 H   0  0  0  0  0  0  0  0  0  0  0  0
   41.0956   33.5750   45.7400 H   0  0  0  0  0  0  0  0  0  0  0  0
  1  2  2  0
  1 24  1  0
  3  2  1  0
  4  3  2  0
  5  4  1  0
  5  6  2  0
  6  1  1  0
  7 13  1  0
  8  7  2  0
  8  5  1  0
  9  8  1  0
 10 11  1  0
 10  9  2  0
 11 12  2  0
 12  7  1  0
 13 15  2  0
 13 16  1  0
 14 13  2  0
 16 17  1  0
 16 19  1  0
 16 18  1  0
 21 20  2  0
 22 21  1  0
 23 22  2  0
 23 24  1  0
 24 25  2  0
 25 20  1  0
 27 28  2  0
 27 26  1  0
 28 22  1  0
 29 28  1  0
 30 29  2  0
 31 30  1  0
 31 32  2  0
 32 27  1  0
  2 33  1  0
  3 34  1  0
  9 35  1  0
 10 36  1  0
 11 37  1  0
 12 38  1  0
 20 39  1  0
 21 40  1  0
 29 41  1  0
 30 42  1  0
 31 43  1  0
 32 44  1  0
M  ISO  8  33  14  34  14  35  14  36  14  37  14  38  14  39  14  40  14
M  ISO  4  41  14  42  14  43  14  44  14
M  END
>  <minimizedAffinity>  (1) 
-7.32747984

>  <minimizedRMSD>  (1) 
1.72962892

$$$$
