
     RDKit          3D

 36 38  0  0  0  0  0  0  0  0999 V2000
   39.7930   32.2780   46.9770 C   0  0  0  0  0  0  0  0  0  0  0  0
   39.6950   32.1720   45.5560 C   0  0  0  0  0  0  0  0  0  0  0  0
   39.7190   33.2940   44.7690 C   0  0  0  0  0  0  0  0  0  0  0  0
   39.6240   33.2040   43.3670 C   0  0  0  0  0  0  0  0  0  0  0  0
   39.5060   31.9120   42.8550 N   0  0  0  0  0  0  0  0  0  0  0  0
   39.4870   30.8420   43.6640 C   0  0  0  0  0  0  0  0  0  0  0  0
   39.5810   30.9780   45.0000 N   0  0  0  0  0  0  0  0  0  0  0  0
   41.5430   29.7060   42.2770 F   0  0  0  0  0  0  0  0  0  0  0  0
   40.4140   28.9460   42.3850 C   0  0  0  0  0  0  0  0  0  0  0  0
   39.3630   29.5050   43.0850 C   0  0  0  0  0  0  0  0  0  0  0  0
   38.2300   28.7630   43.2030 C   0  0  0  0  0  0  0  0  0  0  0  0
   38.1720   27.5070   42.6340 C   0  0  0  0  0  0  0  0  0  0  0  0
   39.2420   26.9750   41.9400 C   0  0  0  0  0  0  0  0  0  0  0  0
   40.4100   27.6970   41.7970 C   0  0  0  0  0  0  0  0  0  0  0  0
   38.6300   32.6860   47.7710 C   0  0  0  0  0  0  0  0  0  0  0  0
   37.9590   31.5980   48.5090 C   0  0  0  0  0  0  0  0  0  0  0  0
   37.0850   30.7310   47.8720 C   0  0  0  0  0  0  0  0  0  0  0  0
   36.6180   29.8310   48.8000 C   0  0  0  0  0  0  0  0  0  0  0  0
   37.1870   30.1390   49.9580 N   0  0  0  0  0  0  0  0  0  0  0  0
   37.9640   31.1730   49.7570 N   0  0  0  0  0  0  0  0  0  0  0  0
   37.0230   29.4880   51.2560 C   0  0  0  0  0  0  0  0  0  0  0  0
   37.8170   28.3520   51.3190 F   0  0  0  0  0  0  0  0  0  0  0  0
   35.7220   29.1030   51.4740 F   0  0  0  0  0  0  0  0  0  0  0  0
   37.4330   30.3000   52.2890 F   0  0  0  0  0  0  0  0  0  0  0  0
   40.5894   33.0076   47.1852 H   0  0  0  0  0  0  0  0  0  0  0  0
   39.9584   31.2376   47.2937 H   0  0  0  0  0  0  0  0  0  0  0  0
   39.8142   34.2829   45.2413 H   0  0  0  0  0  0  0  0  0  0  0  0
   39.6417   34.0928   42.7192 H   0  0  0  0  0  0  0  0  0  0  0  0
   37.3630   29.1621   43.7498 H   0  0  0  0  0  0  0  0  0  0  0  0
   37.2508   26.9145   42.7355 H   0  0  0  0  0  0  0  0  0  0  0  0
   39.1627   25.9704   41.4989 H   0  0  0  0  0  0  0  0  0  0  0  0
   41.2798   27.3032   41.2508 H   0  0  0  0  0  0  0  0  0  0  0  0
   38.9637   33.4374   48.5018 H   0  0  0  0  0  0  0  0  0  0  0  0
   37.8899   33.0691   47.0531 H   0  0  0  0  0  0  0  0  0  0  0  0
   36.8120   30.7585   46.8068 H   0  0  0  0  0  0  0  0  0  0  0  0
   35.9076   29.0113   48.6172 H   0  0  0  0  0  0  0  0  0  0  0  0
  1 15  1  0
  2  1  1  0
  3  2  2  0
  4  3  1  0
  5  4  2  0
  5  6  1  0
  6  7  2  0
  7  2  1  0
  8  9  1  0
  9 10  2  0
 10 11  1  0
 10  6  1  0
 12 11  2  0
 13 12  1  0
 14 13  2  0
 14  9  1  0
 15 16  1  0
 16 20  2  0
 17 16  1  0
 17 18  2  0
 18 19  1  0
 19 21  1  0
 20 19  1  0
 21 22  1  0
 21 23  1  0
 21 24  1  0
  1 25  1  0
  1 26  1  0
  3 27  1  0
  4 28  1  0
 11 29  1  0
 12 30  1  0
 13 31  1  0
 14 32  1  0
 15 33  1  0
 15 34  1  0
 17 35  1  0
 18 36  1  0
M  ISO  8  25   8  26   8  27  14  28  14  29  14  30  14  31  14  32  14
M  ISO  4  33   8  34   8  35  14  36  14
M  END
>  <minimizedAffinity>  (1) 
-6.24301672

>  <minimizedRMSD>  (1) 
1.50172031

$$$$
