
     RDKit          3D

 38 41  0  0  1  0  0  0  0  0999 V2000
   35.8200   29.1460   49.7840 C   0  0  0  0  0  0  0  0  0  0  0  0
   34.7590   29.6550   50.4990 C   0  0  0  0  0  0  0  0  0  0  0  0
   33.5910   29.0740   49.9850 C   0  0  0  0  0  0  0  0  0  0  0  0
   34.0240   28.2390   48.9790 C   0  0  0  0  0  0  0  0  0  0  0  0
   35.3350   28.3110   48.8930 O   0  0  0  0  0  0  0  0  0  0  0  0
   37.1940   29.5350   50.0540 C   0  0  0  0  0  0  0  0  0  0  0  0
   37.8110   28.9780   50.9730 O   0  0  0  0  0  0  0  0  0  0  0  0
   37.7570   30.5600   49.2200 C   0  0  0  0  0  0  0  0  0  0  0  0
   38.1000   31.7550   49.8310 C   0  0  0  0  0  0  0  0  0  0  0  0
   38.6490   32.7750   49.0460 C   0  0  0  0  0  0  0  0  0  0  0  0
   38.8200   32.5310   47.7040 N   0  0  0  0  0  0  0  0  0  0  0  0
   38.4780   31.3690   47.1500 C   0  0  0  0  0  0  0  0  0  0  0  0
   37.9500   30.3830   47.8930 N   0  0  0  0  0  0  0  0  0  0  0  0
   33.1670   27.4000   48.1400 C   0  0  0  0  0  0  0  0  0  0  0  0
   31.9780   27.7910   47.9000 O   0  0  0  0  0  0  0  0  0  0  0  0
   33.6890   26.1080   47.5850 C   0  0  1  0  0  0  0  0  0  0  0  0
   32.5000   25.2010   47.1170 C   0  0  0  0  0  0  0  0  0  0  0  0
   33.5070   25.7580   46.1780 C   0  0  2  0  0  0  0  0  0  0  0  0
   34.6750   26.2790   43.7320 F   0  0  0  0  0  0  0  0  0  0  0  0
   35.1320   25.1930   44.4110 C   0  0  0  0  0  0  0  0  0  0  0  0
   34.5970   24.8540   45.6580 C   0  0  0  0  0  0  0  0  0  0  0  0
   35.0710   23.7490   46.3340 C   0  0  0  0  0  0  0  0  0  0  0  0
   36.0870   22.9880   45.7450 C   0  0  0  0  0  0  0  0  0  0  0  0
   36.6340   23.2970   44.5170 C   0  0  0  0  0  0  0  0  0  0  0  0
   36.1420   24.4080   43.8620 C   0  0  0  0  0  0  0  0  0  0  0  0
   34.8170   30.3830   51.3216 H   0  0  0  0  0  0  0  0  0  0  0  0
   32.5555   29.2472   50.3134 H   0  0  0  0  0  0  0  0  0  0  0  0
   37.9441   31.8990   50.9103 H   0  0  0  0  0  0  0  0  0  0  0  0
   38.9345   33.7408   49.4884 H   0  0  0  0  0  0  0  0  0  0  0  0
   38.6298   31.2153   46.0714 H   0  0  0  0  0  0  0  0  0  0  0  0
   34.5796   26.0769   48.2298 H   0  0  0  0  0  0  0  0  0  0  0  0
   32.4916   24.1266   47.3530 H   0  0  0  0  0  0  0  0  0  0  0  0
   31.4039   25.2185   47.2083 H   0  0  0  0  0  0  0  0  0  0  0  0
   33.3796   26.3115   45.2360 H   0  0  0  0  0  0  0  0  0  0  0  0
   34.6590   23.4718   47.3155 H   0  0  0  0  0  0  0  0  0  0  0  0
   36.4652   22.1067   46.2837 H   0  0  0  0  0  0  0  0  0  0  0  0
   37.4320   22.6814   44.0764 H   0  0  0  0  0  0  0  0  0  0  0  0
   36.5588   24.6800   42.8810 H   0  0  0  0  0  0  0  0  0  0  0  0
  1  6  1  0
  1  2  2  0
  3  2  1  0
  4  3  2  0
  5  4  1  0
  5  1  1  0
  6  7  2  0
  8  9  2  0
  8  6  1  0
 10  9  1  0
 11 10  2  0
 12 11  1  0
 12 13  2  0
 13  8  1  0
 14  4  1  0
 15 14  2  0
 16 14  1  0
 17 16  1  0
 18 17  1  0
 18 16  1  0
 19 20  1  0
 20 21  2  0
 21 18  1  0
 21 22  1  0
 23 22  2  0
 24 23  1  0
 25 20  1  0
 25 24  2  0
  2 26  1  0
  3 27  1  0
  9 28  1  0
 10 29  1  0
 12 30  1  0
 16 31  1  1
 17 32  1  0
 17 33  1  0
 18 34  1  6
 22 35  1  0
 23 36  1  0
 24 37  1  0
 25 38  1  0
M  ISO  8  26  14  27  14  28  14  29  14  30  14  31  13  32  13  33  13
M  ISO  5  34  13  35  14  36  14  37  14  38  14
M  END
>  <minimizedAffinity>  (1) 
-5.57268763

>  <minimizedRMSD>  (1) 
1.78090942

$$$$
