
     RDKit          3D

 43 46  0  0  1  0  0  0  0  0999 V2000
   35.3870   29.5200   47.7320 C   0  0  0  0  0  0  0  0  0  0  0  0
   35.3330   30.1610   46.4960 C   0  0  0  0  0  0  0  0  0  0  0  0
   34.2780   29.8140   45.6410 C   0  0  0  0  0  0  0  0  0  0  0  0
   33.3800   28.8670   46.0950 N   0  0  0  0  0  0  0  0  0  0  0  0
   33.4780   28.2840   47.2870 C   0  0  0  0  0  0  0  0  0  0  0  0
   34.4830   28.6080   48.1110 N   0  0  0  0  0  0  0  0  0  0  0  0
   36.4750   29.8830   48.6020 N   0  0  0  0  0  0  0  0  0  0  0  0
   37.6620   30.6010   48.2510 C   0  0  0  0  0  0  0  0  0  0  0  0
   38.0320   31.2860   49.5610 C   0  0  2  0  0  0  0  0  0  0  0  0
   36.9090   30.9650   50.5450 C   0  0  0  0  0  0  0  0  0  0  0  0
   36.5700   29.5800   50.0280 C   0  0  0  0  0  0  0  0  0  0  0  0
   38.2320   32.7650   49.4110 C   0  0  0  0  0  0  0  0  0  0  0  0
   37.0950   33.3740   49.8970 F   0  0  0  0  0  0  0  0  0  0  0  0
   38.2740   33.0180   48.0580 F   0  0  0  0  0  0  0  0  0  0  0  0
   39.3650   33.2260   50.0240 F   0  0  0  0  0  0  0  0  0  0  0  0
   32.2900   27.0680   47.8170 S   0  0  0  0  0  0  0  0  0  0  0  0
   30.9090   27.6140   48.6200 C   0  0  0  0  0  0  0  0  0  0  0  0
   30.3470   27.6570   49.8640 C   0  0  0  0  0  0  0  0  0  0  0  0
   29.1500   28.2040   50.1710 C   0  0  0  0  0  0  0  0  0  0  0  0
   28.4630   28.7820   48.9880 C   0  0  0  0  0  0  0  0  0  0  0  0
   29.5900   28.4800   47.6070 S   0  0  0  0  0  0  0  0  0  0  0  0
   26.1810   27.2340   48.9010 F   0  0  0  0  0  0  0  0  0  0  0  0
   26.1050   28.5860   48.9260 C   0  0  0  0  0  0  0  0  0  0  0  0
   27.1940   29.4290   48.9700 C   0  0  0  0  0  0  0  0  0  0  0  0
   27.1630   30.7760   48.9960 C   0  0  0  0  0  0  0  0  0  0  0  0
   25.8940   31.3750   48.9780 C   0  0  0  0  0  0  0  0  0  0  0  0
   24.7440   30.5780   48.9330 C   0  0  0  0  0  0  0  0  0  0  0  0
   24.8360   29.1820   48.9070 C   0  0  0  0  0  0  0  0  0  0  0  0
   36.0862   30.9075   46.2037 H   0  0  0  0  0  0  0  0  0  0  0  0
   34.1693   30.2767   44.6490 H   0  0  0  0  0  0  0  0  0  0  0  0
   38.4578   29.9168   47.9215 H   0  0  0  0  0  0  0  0  0  0  0  0
   37.5200   31.3012   47.4146 H   0  0  0  0  0  0  0  0  0  0  0  0
   39.0010   30.9117   49.9227 H   0  0  0  0  0  0  0  0  0  0  0  0
   37.2600   30.9469   51.5873 H   0  0  0  0  0  0  0  0  0  0  0  0
   36.0779   31.6846   50.5826 H   0  0  0  0  0  0  0  0  0  0  0  0
   35.6174   29.2099   50.4350 H   0  0  0  0  0  0  0  0  0  0  0  0
   37.2847   28.7879   50.2959 H   0  0  0  0  0  0  0  0  0  0  0  0
   30.9190   27.2068   50.6887 H   0  0  0  0  0  0  0  0  0  0  0  0
   28.7298   28.2195   51.1875 H   0  0  0  0  0  0  0  0  0  0  0  0
   28.0849   31.3751   49.0296 H   0  0  0  0  0  0  0  0  0  0  0  0
   25.8029   32.4710   48.9993 H   0  0  0  0  0  0  0  0  0  0  0  0
   23.7535   31.0562   48.9179 H   0  0  0  0  0  0  0  0  0  0  0  0
   23.9278   28.5624   48.8722 H   0  0  0  0  0  0  0  0  0  0  0  0
  1  6  1  0
  1  7  1  0
  2  1  2  0
  3  4  2  0
  3  2  1  0
  4  5  1  0
  5 16  1  0
  5  6  2  0
  7 11  1  0
  8  7  1  0
  8  9  1  0
  9 10  1  0
 11 10  1  0
 12  9  1  0
 12 13  1  0
 12 15  1  0
 14 12  1  0
 16 17  1  0
 17 18  2  0
 18 19  1  0
 20 19  2  0
 21 17  1  0
 21 20  1  0
 22 23  1  0
 23 24  2  0
 24 20  1  0
 24 25  1  0
 26 25  2  0
 27 26  1  0
 28 23  1  0
 28 27  2  0
  2 29  1  0
  3 30  1  0
  8 31  1  0
  8 32  1  0
  9 33  1  1
 10 34  1  0
 10 35  1  0
 11 36  1  0
 11 37  1  0
 18 38  1  0
 19 39  1  0
 25 40  1  0
 26 41  1  0
 27 42  1  0
 28 43  1  0
M  ISO  8  29  14  30  14  31  13  32  13  33  13  34  13  35  13  36  13
M  ISO  7  37  13  38  14  39  14  40  14  41  14  42  14  43  14
M  END
>  <minimizedAffinity>  (1) 
-7.87481737

>  <minimizedRMSD>  (1) 
0.858349323

$$$$
