
     RDKit          3D

 30 32  0  0  0  0  0  0  0  0999 V2000
   37.8080   30.6150   47.1700 F   0  0  0  0  0  0  0  0  0  0  0  0
   38.3490   31.7290   47.7130 C   0  0  0  0  0  0  0  0  0  0  0  0
   38.1330   32.0130   49.0300 C   0  0  0  0  0  0  0  0  0  0  0  0
   38.7100   33.1580   49.5190 C   0  0  0  0  0  0  0  0  0  0  0  0
   39.4770   34.0020   48.7450 C   0  0  0  0  0  0  0  0  0  0  0  0
   39.6770   33.6840   47.4060 C   0  0  0  0  0  0  0  0  0  0  0  0
   39.1040   32.5310   46.8920 C   0  0  0  0  0  0  0  0  0  0  0  0
   36.9680   29.5670   51.6680 C   0  0  0  0  0  0  0  0  0  0  0  0
   37.7990   30.4410   50.9510 C   0  0  0  0  0  0  0  0  0  0  0  0
   37.3220   31.1000   49.8090 C   0  0  0  0  0  0  0  0  0  0  0  0
   36.0310   30.8290   49.4680 N   0  0  0  0  0  0  0  0  0  0  0  0
   35.2550   29.9860   50.1720 C   0  0  0  0  0  0  0  0  0  0  0  0
   35.7180   29.3590   51.2640 N   0  0  0  0  0  0  0  0  0  0  0  0
   41.1220   30.7240   46.1240 F   0  0  0  0  0  0  0  0  0  0  0  0
   40.3860   31.3750   45.1980 C   0  0  0  0  0  0  0  0  0  0  0  0
   39.3690   32.2850   45.4920 C   0  0  0  0  0  0  0  0  0  0  0  0
   38.7110   32.8660   44.4090 C   0  0  0  0  0  0  0  0  0  0  0  0
   39.0470   32.5570   43.1090 C   0  0  0  0  0  0  0  0  0  0  0  0
   40.0640   31.6460   42.8250 C   0  0  0  0  0  0  0  0  0  0  0  0
   40.7120   31.0750   43.8890 C   0  0  0  0  0  0  0  0  0  0  0  0
   38.5532   33.4140   50.5772 H   0  0  0  0  0  0  0  0  0  0  0  0
   39.9224   34.9098   49.1781 H   0  0  0  0  0  0  0  0  0  0  0  0
   40.2825   34.3393   46.7626 H   0  0  0  0  0  0  0  0  0  0  0  0
   37.3499   29.0544   52.5632 H   0  0  0  0  0  0  0  0  0  0  0  0
   38.8325   30.6105   51.2873 H   0  0  0  0  0  0  0  0  0  0  0  0
   34.2198   29.8069   49.8460 H   0  0  0  0  0  0  0  0  0  0  0  0
   37.9036   33.5890   44.5970 H   0  0  0  0  0  0  0  0  0  0  0  0
   38.5041   33.0368   42.2814 H   0  0  0  0  0  0  0  0  0  0  0  0
   40.3351   31.3958   41.7887 H   0  0  0  0  0  0  0  0  0  0  0  0
   41.5191   30.3533   43.6945 H   0  0  0  0  0  0  0  0  0  0  0  0
  1  2  1  0
  2  3  2  0
  3  4  1  0
  3 10  1  0
  5  4  2  0
  6  5  1  0
  7  6  2  0
  7  2  1  0
  9  8  2  0
 10  9  1  0
 11 10  2  0
 11 12  1  0
 12 13  2  0
 13  8  1  0
 15 16  2  0
 15 14  1  0
 16  7  1  0
 17 16  1  0
 18 17  2  0
 19 18  1  0
 19 20  2  0
 20 15  1  0
  4 21  1  0
  5 22  1  0
  6 23  1  0
  8 24  1  0
  9 25  1  0
 12 26  1  0
 17 27  1  0
 18 28  1  0
 19 29  1  0
 20 30  1  0
M  ISO  8  21  14  22  14  23  14  24  14  25  14  26  14  27  14  28  14
M  ISO  2  29  14  30  14
M  END
>  <minimizedAffinity>  (1) 
-6.95275354

>  <minimizedRMSD>  (1) 
1.02964878

$$$$
