
     RDKit          3D

 42 45  0  0  1  0  0  0  0  0999 V2000
   37.1310   31.7090   48.1710 N   0  0  0  0  0  0  0  0  0  0  0  0
   38.2340   32.6390   48.5270 C   0  0  0  0  0  0  0  0  0  0  0  0
   38.8580   31.9200   49.7170 C   0  0  0  0  0  0  0  0  0  0  0  0
   37.6760   31.2920   50.4130 C   0  0  0  0  0  0  0  0  0  0  0  0
   36.5060   31.5010   49.4670 C   0  0  2  0  0  0  0  0  0  0  0  0
   37.5410   28.9400   49.3150 F   0  0  0  0  0  0  0  0  0  0  0  0
   36.1810   29.0890   49.4300 C   0  0  0  0  0  0  0  0  0  0  0  0
   35.5760   30.3500   49.5210 C   0  0  0  0  0  0  0  0  0  0  0  0
   34.2040   30.3560   49.6340 C   0  0  0  0  0  0  0  0  0  0  0  0
   33.4930   29.1750   49.6530 C   0  0  0  0  0  0  0  0  0  0  0  0
   34.0770   27.9400   49.5640 C   0  0  0  0  0  0  0  0  0  0  0  0
   35.4470   27.9280   49.4520 C   0  0  0  0  0  0  0  0  0  0  0  0
   35.3320   30.5400   47.1050 C   0  0  0  0  0  0  0  0  0  0  0  0
   36.6510   31.0810   46.9980 C   0  0  0  0  0  0  0  0  0  0  0  0
   37.3170   30.9110   45.7740 C   0  0  0  0  0  0  0  0  0  0  0  0
   36.6910   30.2490   44.7640 N   0  0  0  0  0  0  0  0  0  0  0  0
   35.4430   29.7540   44.9180 C   0  0  0  0  0  0  0  0  0  0  0  0
   34.7750   29.8960   46.0650 N   0  0  0  0  0  0  0  0  0  0  0  0
   38.6380   31.4280   45.5560 C   0  0  0  0  0  0  0  0  0  0  0  0
   38.7870   32.6940   45.0390 C   0  0  0  0  0  0  0  0  0  0  0  0
   40.0100   33.2830   44.7960 C   0  0  0  0  0  0  0  0  0  0  0  0
   41.1260   32.5220   45.1040 C   0  0  0  0  0  0  0  0  0  0  0  0
   41.0620   31.2380   45.6280 C   0  0  0  0  0  0  0  0  0  0  0  0
   39.7770   30.7180   45.8430 C   0  0  0  0  0  0  0  0  0  0  0  0
   38.9517   32.7476   47.7005 H   0  0  0  0  0  0  0  0  0  0  0  0
   37.9052   33.6663   48.7430 H   0  0  0  0  0  0  0  0  0  0  0  0
   39.5701   31.1514   49.3820 H   0  0  0  0  0  0  0  0  0  0  0  0
   39.4300   32.5943   50.3713 H   0  0  0  0  0  0  0  0  0  0  0  0
   37.8511   30.2190   50.5802 H   0  0  0  0  0  0  0  0  0  0  0  0
   37.4931   31.7390   51.4013 H   0  0  0  0  0  0  0  0  0  0  0  0
   35.8693   32.3600   49.7255 H   0  0  0  0  0  0  0  0  0  0  0  0
   33.6689   31.3141   49.7100 H   0  0  0  0  0  0  0  0  0  0  0  0
   32.3981   29.2278   49.7446 H   0  0  0  0  0  0  0  0  0  0  0  0
   33.4854   27.0128   49.5811 H   0  0  0  0  0  0  0  0  0  0  0  0
   35.9696   26.9629   49.3780 H   0  0  0  0  0  0  0  0  0  0  0  0
   34.7697   30.6514   48.0439 H   0  0  0  0  0  0  0  0  0  0  0  0
   34.9675   29.2228   44.0804 H   0  0  0  0  0  0  0  0  0  0  0  0
   37.8788   33.2693   44.8061 H   0  0  0  0  0  0  0  0  0  0  0  0
   40.0946   34.2984   44.3815 H   0  0  0  0  0  0  0  0  0  0  0  0
   42.1188   32.9598   44.9232 H   0  0  0  0  0  0  0  0  0  0  0  0
   41.9686   30.6605   45.8616 H   0  0  0  0  0  0  0  0  0  0  0  0
   39.6786   29.7036   46.2569 H   0  0  0  0  0  0  0  0  0  0  0  0
  1  2  1  0
  1  5  1  0
  2  3  1  0
  3  4  1  0
  5  8  1  0
  5  4  1  0
  6  7  1  0
  7 12  2  0
  7  8  1  0
  8  9  2  0
  9 10  1  0
 11 10  2  0
 12 11  1  0
 14 13  2  0
 14  1  1  0
 15 14  1  0
 16 17  1  0
 16 15  2  0
 17 18  2  0
 18 13  1  0
 19 15  1  0
 19 24  1  0
 20 19  2  0
 21 20  1  0
 21 22  2  0
 22 23  1  0
 23 24  2  0
  2 25  1  0
  2 26  1  0
  3 27  1  0
  3 28  1  0
  4 29  1  0
  4 30  1  0
  5 31  1  1
  9 32  1  0
 10 33  1  0
 11 34  1  0
 12 35  1  0
 13 36  1  0
 17 37  1  0
 20 38  1  0
 21 39  1  0
 22 40  1  0
 23 41  1  0
 24 42  1  0
M  ISO  8  25  13  26  13  27  13  28  13  29  13  30  13  31  13  32  14
M  ISO  8  33  14  34  14  35  14  36  14  37  14  38  14  39  14  40  14
M  ISO  2  41  14  42  14
M  END
>  <minimizedAffinity>  (1) 
-5.77968454

>  <minimizedRMSD>  (1) 
1.29868364

$$$$
