
     RDKit          3D

 29 31  0  0  1  0  0  0  0  0999 V2000
   38.0210   32.0430   47.5150 C   0  0  2  0  0  0  0  0  0  0  0  0
   38.0500   30.5100   47.1340 C   0  0  0  0  0  0  0  0  0  0  0  0
   39.1450   31.5050   46.7800 C   0  0  1  0  0  0  0  0  0  0  0  0
   39.3710   29.3850   44.8840 F   0  0  0  0  0  0  0  0  0  0  0  0
   39.4790   30.6400   44.4310 C   0  0  0  0  0  0  0  0  0  0  0  0
   39.3690   31.6900   45.3490 C   0  0  0  0  0  0  0  0  0  0  0  0
   39.4820   33.0050   44.8800 C   0  0  0  0  0  0  0  0  0  0  0  0
   39.6950   33.2820   43.5460 C   0  0  0  0  0  0  0  0  0  0  0  0
   39.8060   32.2510   42.6190 C   0  0  0  0  0  0  0  0  0  0  0  0
   39.6910   30.9690   43.1120 C   0  0  0  0  0  0  0  0  0  0  0  0
   38.0600   32.1580   49.0060 C   0  0  0  0  0  0  0  0  0  0  0  0
   38.7910   33.0720   49.5280 O   0  0  0  0  0  0  0  0  0  0  0  0
   37.1220   29.6360   51.6030 C   0  0  0  0  0  0  0  0  0  0  0  0
   37.8790   30.5430   50.8730 C   0  0  0  0  0  0  0  0  0  0  0  0
   37.2830   31.2320   49.8120 C   0  0  0  0  0  0  0  0  0  0  0  0
   36.0000   30.9760   49.5550 N   0  0  0  0  0  0  0  0  0  0  0  0
   35.2840   30.0860   50.2840 C   0  0  0  0  0  0  0  0  0  0  0  0
   35.8250   29.4140   51.3020 N   0  0  0  0  0  0  0  0  0  0  0  0
   37.4300   32.9535   47.3369 H   0  0  0  0  0  0  0  0  0  0  0  0
   38.2158   29.7426   47.9045 H   0  0  0  0  0  0  0  0  0  0  0  0
   37.4012   29.8044   46.5943 H   0  0  0  0  0  0  0  0  0  0  0  0
   40.2210   31.6295   46.9717 H   0  0  0  0  0  0  0  0  0  0  0  0
   39.3987   33.8378   45.5938 H   0  0  0  0  0  0  0  0  0  0  0  0
   39.7778   34.3269   43.2123 H   0  0  0  0  0  0  0  0  0  0  0  0
   39.9763   32.4481   41.5503 H   0  0  0  0  0  0  0  0  0  0  0  0
   39.7756   30.1415   42.3922 H   0  0  0  0  0  0  0  0  0  0  0  0
   37.5858   29.0908   52.4382 H   0  0  0  0  0  0  0  0  0  0  0  0
   38.9351   30.7174   51.1264 H   0  0  0  0  0  0  0  0  0  0  0  0
   34.2279   29.9128   50.0296 H   0  0  0  0  0  0  0  0  0  0  0  0
  1 11  1  0
  2  1  1  0
  3  2  1  0
  3  1  1  0
  5  4  1  0
  5  6  2  0
  6  3  1  0
  7  6  1  0
  8  7  2  0
  9 10  2  0
  9  8  1  0
 10  5  1  0
 11 12  2  0
 11 15  1  0
 14 13  2  0
 15 14  1  0
 16 15  2  0
 16 17  1  0
 17 18  2  0
 18 13  1  0
  1 19  1  6
  2 20  1  0
  2 21  1  0
  3 22  1  1
  7 23  1  0
  8 24  1  0
  9 25  1  0
 10 26  1  0
 13 27  1  0
 14 28  1  0
 17 29  1  0
M  ISO  8  19  13  20  13  21  13  22  13  23  14  24  14  25  14  26  14
M  ISO  3  27  14  28  14  29  14
M  END
>  <minimizedAffinity>  (1) 
-5.7608223

>  <minimizedRMSD>  (1) 
1.10288024

$$$$
