
     RDKit          3D

 28 30  0  0  0  0  0  0  0  0999 V2000
   37.9960   31.8970   48.9340 C   0  0  0  0  0  0  0  0  0  0  0  0
   38.5840   33.0220   49.4950 C   0  0  0  0  0  0  0  0  0  0  0  0
   39.4120   33.8980   48.7780 C   0  0  0  0  0  0  0  0  0  0  0  0
   39.6390   33.6210   47.4730 N   0  0  0  0  0  0  0  0  0  0  0  0
   39.0650   32.5210   46.9240 C   0  0  0  0  0  0  0  0  0  0  0  0
   38.2820   31.7120   47.6420 N   0  0  0  0  0  0  0  0  0  0  0  0
   37.5120   30.4220   50.9070 C   0  0  0  0  0  0  0  0  0  0  0  0
   37.1570   31.0190   49.6810 C   0  0  0  0  0  0  0  0  0  0  0  0
   35.8880   30.7280   49.1580 C   0  0  0  0  0  0  0  0  0  0  0  0
   35.0790   29.8860   49.8680 N   0  0  0  0  0  0  0  0  0  0  0  0
   35.4560   29.3310   51.0450 C   0  0  0  0  0  0  0  0  0  0  0  0
   36.6680   29.6010   51.5580 N   0  0  0  0  0  0  0  0  0  0  0  0
   41.2270   30.8890   46.0900 F   0  0  0  0  0  0  0  0  0  0  0  0
   40.3950   31.4380   45.1650 C   0  0  0  0  0  0  0  0  0  0  0  0
   39.3250   32.2420   45.5150 C   0  0  0  0  0  0  0  0  0  0  0  0
   38.5340   32.7550   44.5080 C   0  0  0  0  0  0  0  0  0  0  0  0
   38.7290   32.5270   43.1630 C   0  0  0  0  0  0  0  0  0  0  0  0
   39.8060   31.7230   42.8620 C   0  0  0  0  0  0  0  0  0  0  0  0
   40.6480   31.1680   43.8270 C   0  0  0  0  0  0  0  0  0  0  0  0
   38.3908   33.2376   50.5562 H   0  0  0  0  0  0  0  0  0  0  0  0
   39.8611   34.7792   49.2595 H   0  0  0  0  0  0  0  0  0  0  0  0
   38.5006   30.6317   51.3413 H   0  0  0  0  0  0  0  0  0  0  0  0
   35.5543   31.1645   48.2051 H   0  0  0  0  0  0  0  0  0  0  0  0
   34.7695   28.6590   51.5808 H   0  0  0  0  0  0  0  0  0  0  0  0
   37.6862   33.3922   44.7998 H   0  0  0  0  0  0  0  0  0  0  0  0
   38.0746   32.9544   42.3890 H   0  0  0  0  0  0  0  0  0  0  0  0
   40.0139   31.5065   41.8037 H   0  0  0  0  0  0  0  0  0  0  0  0
   41.4945   30.5299   43.5334 H   0  0  0  0  0  0  0  0  0  0  0  0
  1  2  2  0
  1  8  1  0
  3  2  1  0
  4  3  2  0
  5  4  1  0
  5  6  2  0
  6  1  1  0
  7 12  2  0
  8  7  1  0
  9  8  2  0
  9 10  1  0
 10 11  2  0
 11 12  1  0
 14 15  2  0
 14 13  1  0
 15  5  1  0
 16 15  1  0
 17 16  2  0
 18 17  1  0
 18 19  2  0
 19 14  1  0
  2 20  1  0
  3 21  1  0
  7 22  1  0
  9 23  1  0
 11 24  1  0
 16 25  1  0
 17 26  1  0
 18 27  1  0
 19 28  1  0
M  ISO  8  20  14  21  14  22  14  23  14  24  14  25  14  26  14  27  14
M  ISO  1  28  14
M  END
>  <minimizedAffinity>  (1) 
-6.22562838

>  <minimizedRMSD>  (1) 
0.654566944

$$$$
