
     RDKit          3D

 40 43  0  0  0  0  0  0  0  0999 V2000
   38.6630   32.9340   49.7750 Cl  0  0  0  0  0  0  0  0  0  0  0  0
   38.6400   32.2770   48.1530 C   0  0  0  0  0  0  0  0  0  0  0  0
   37.8900   31.1510   47.8570 C   0  0  0  0  0  0  0  0  0  0  0  0
   37.9220   30.6950   46.5700 C   0  0  0  0  0  0  0  0  0  0  0  0
   38.6520   31.2960   45.5760 C   0  0  0  0  0  0  0  0  0  0  0  0
   39.3980   32.4310   45.9050 C   0  0  0  0  0  0  0  0  0  0  0  0
   40.3110   33.1620   44.6130 Cl  0  0  0  0  0  0  0  0  0  0  0  0
   39.3920   32.9190   47.1950 C   0  0  0  0  0  0  0  0  0  0  0  0
   36.9420   32.6280   43.4600 Cl  0  0  0  0  0  0  0  0  0  0  0  0
   37.8680   31.1550   43.1710 C   0  0  0  0  0  0  0  0  0  0  0  0
   38.5870   30.6920   44.2430 C   0  0  0  0  0  0  0  0  0  0  0  0
   39.3570   29.5270   44.1160 C   0  0  0  0  0  0  0  0  0  0  0  0
   39.4020   28.8360   42.9160 C   0  0  0  0  0  0  0  0  0  0  0  0
   38.6650   29.3350   41.8630 C   0  0  0  0  0  0  0  0  0  0  0  0
   37.8960   30.4850   41.9650 C   0  0  0  0  0  0  0  0  0  0  0  0
   39.0200   32.3690   40.1970 F   0  0  0  0  0  0  0  0  0  0  0  0
   37.7460   31.9550   40.0500 C   0  0  0  0  0  0  0  0  0  0  0  0
   37.1070   31.0350   40.8680 C   0  0  0  0  0  0  0  0  0  0  0  0
   35.7960   30.6850   40.6250 C   0  0  0  0  0  0  0  0  0  0  0  0
   35.0480   31.2100   39.5820 C   0  0  0  0  0  0  0  0  0  0  0  0
   35.7410   32.1290   38.7940 C   0  0  0  0  0  0  0  0  0  0  0  0
   37.0510   32.5100   38.9970 C   0  0  0  0  0  0  0  0  0  0  0  0
   37.0010   29.3280   51.0600 C   0  0  0  0  0  0  0  0  0  0  0  0
   37.7570   29.8900   50.0240 C   0  0  0  0  0  0  0  0  0  0  0  0
   37.1250   30.5480   48.9650 C   0  0  0  0  0  0  0  0  0  0  0  0
   35.7660   30.6120   48.9950 N   0  0  0  0  0  0  0  0  0  0  0  0
   35.0750   30.0560   50.0140 C   0  0  0  0  0  0  0  0  0  0  0  0
   35.6640   29.4320   51.0190 N   0  0  0  0  0  0  0  0  0  0  0  0
   37.3329   29.8010   46.3178 H   0  0  0  0  0  0  0  0  0  0  0  0
   39.9811   33.8107   47.4554 H   0  0  0  0  0  0  0  0  0  0  0  0
   39.9315   29.1578   44.9784 H   0  0  0  0  0  0  0  0  0  0  0  0
   40.0042   27.9219   42.8072 H   0  0  0  0  0  0  0  0  0  0  0  0
   38.6877   28.7992   40.9026 H   0  0  0  0  0  0  0  0  0  0  0  0
   35.3190   29.9521   41.2923 H   0  0  0  0  0  0  0  0  0  0  0  0
   34.0019   30.9271   39.3930 H   0  0  0  0  0  0  0  0  0  0  0  0
   35.2033   32.5832   37.9487 H   0  0  0  0  0  0  0  0  0  0  0  0
   37.5316   33.2423   38.3317 H   0  0  0  0  0  0  0  0  0  0  0  0
   37.4956   28.8093   51.8945 H   0  0  0  0  0  0  0  0  0  0  0  0
   38.8541   29.8133   50.0436 H   0  0  0  0  0  0  0  0  0  0  0  0
   33.9772   30.1255   50.0069 H   0  0  0  0  0  0  0  0  0  0  0  0
  2  1  1  0
  3  2  2  0
  3 25  1  0
  4  3  1  0
  5  6  1  0
  5  4  2  0
  6  8  2  0
  7  6  1  0
  8  2  1  0
 10  9  1  0
 10 11  2  0
 11  5  1  0
 12 11  1  0
 13 12  2  0
 14 15  2  0
 14 13  1  0
 15 10  1  0
 17 16  1  0
 17 18  2  0
 18 15  1  0
 19 18  1  0
 20 19  2  0
 21 22  2  0
 21 20  1  0
 22 17  1  0
 24 23  2  0
 25 26  2  0
 25 24  1  0
 26 27  1  0
 27 28  2  0
 28 23  1  0
  4 29  1  0
  8 30  1  0
 12 31  1  0
 13 32  1  0
 14 33  1  0
 19 34  1  0
 20 35  1  0
 21 36  1  0
 22 37  1  0
 23 38  1  0
 24 39  1  0
 27 40  1  0
M  ISO  8  29  14  30  14  31  14  32  14  33  14  34  14  35  14  36  14
M  ISO  4  37  14  38  14  39  14  40  14
M  END
>  <minimizedAffinity>  (1) 
-6.46762276

>  <minimizedRMSD>  (1) 
0.67456013

$$$$
