
     RDKit          3D

 36 39  0  0  0  0  0  0  0  0999 V2000
   37.3700   30.0890   50.5660 C   0  0  0  0  0  0  0  0  0  0  0  0
   38.3040   30.7770   49.7960 C   0  0  0  0  0  0  0  0  0  0  0  0
   37.9930   30.9160   48.4700 C   0  0  0  0  0  0  0  0  0  0  0  0
   36.8510   30.3980   48.0180 N   0  0  0  0  0  0  0  0  0  0  0  0
   35.9510   29.7430   48.7240 C   0  0  0  0  0  0  0  0  0  0  0  0
   36.2780   29.6240   49.9990 N   0  0  0  0  0  0  0  0  0  0  0  0
   34.6670   29.1470   48.3830 C   0  0  0  0  0  0  0  0  0  0  0  0
   33.9170   28.4700   49.2880 N   0  0  0  0  0  0  0  0  0  0  0  0
   32.7300   27.9420   48.9690 C   0  0  0  0  0  0  0  0  0  0  0  0
   32.1740   28.0260   47.7560 N   0  0  0  0  0  0  0  0  0  0  0  0
   32.8730   28.6890   46.8050 C   0  0  0  0  0  0  0  0  0  0  0  0
   32.3120   28.7850   45.5460 C   0  0  0  0  0  0  0  0  0  0  0  0
   32.9750   29.4450   44.5450 C   0  0  0  0  0  0  0  0  0  0  0  0
   34.2040   29.9920   44.8660 C   0  0  0  0  0  0  0  0  0  0  0  0
   34.7170   29.8700   46.1340 C   0  0  0  0  0  0  0  0  0  0  0  0
   34.0830   29.2210   47.1500 C   0  0  0  0  0  0  0  0  0  0  0  0
   38.9360   33.6510   48.5600 F   0  0  0  0  0  0  0  0  0  0  0  0
   39.2830   32.8850   47.5100 C   0  0  0  0  0  0  0  0  0  0  0  0
   38.8230   31.5960   47.4930 C   0  0  0  0  0  0  0  0  0  0  0  0
   39.2480   30.9130   46.3650 C   0  0  0  0  0  0  0  0  0  0  0  0
   40.0360   31.4590   45.3780 C   0  0  0  0  0  0  0  0  0  0  0  0
   40.4580   32.7610   45.4660 C   0  0  0  0  0  0  0  0  0  0  0  0
   40.0690   33.4940   46.5650 C   0  0  0  0  0  0  0  0  0  0  0  0
   37.5660   29.8700   51.9890 N   0  0  0  0  0  0  0  0  0  0  0  0
   39.2319   31.1827   50.2254 H   0  0  0  0  0  0  0  0  0  0  0  0
   32.1768   27.4052   49.7537 H   0  0  0  0  0  0  0  0  0  0  0  0
   31.3304   28.3303   45.3468 H   0  0  0  0  0  0  0  0  0  0  0  0
   32.5501   29.5355   43.5344 H   0  0  0  0  0  0  0  0  0  0  0  0
   34.7770   30.5308   44.0970 H   0  0  0  0  0  0  0  0  0  0  0  0
   35.6977   30.3231   46.3414 H   0  0  0  0  0  0  0  0  0  0  0  0
   38.9347   29.8648   46.2509 H   0  0  0  0  0  0  0  0  0  0  0  0
   40.3295   30.8470   44.5124 H   0  0  0  0  0  0  0  0  0  0  0  0
   41.0883   33.2064   44.6822 H   0  0  0  0  0  0  0  0  0  0  0  0
   40.3810   34.5423   46.6822 H   0  0  0  0  0  0  0  0  0  0  0  0
   36.8578   29.3573   52.5335 H   0  0  0  0  0  0  0  0  0  0  0  0
   38.4132   30.2274   52.4532 H   0  0  0  0  0  0  0  0  0  0  0  0
  1 24  1  0
  2  1  2  0
  3  2  1  0
  4  3  2  0
  4  5  1  0
  5  6  2  0
  6  1  1  0
  7  5  1  0
  7  8  2  0
  9  8  1  0
 10  9  2  0
 11 16  2  0
 11 10  1  0
 12 11  1  0
 13 14  1  0
 13 12  2  0
 14 15  2  0
 15 16  1  0
 16  7  1  0
 18 17  1  0
 19 18  2  0
 19  3  1  0
 20 19  1  0
 21 22  1  0
 21 20  2  0
 22 23  2  0
 23 18  1  0
  2 25  1  0
  9 26  1  0
 12 27  1  0
 13 28  1  0
 14 29  1  0
 15 30  1  0
 20 31  1  0
 21 32  1  0
 22 33  1  0
 23 34  1  0
 24 35  1  0
 24 36  1  0
M  ISO  8  25  14  26  14  27  14  28  14  29  14  30  14  31  14  32  14
M  ISO  2  33  14  34  14
M  END
>  <minimizedAffinity>  (1) 
-7.28250456

>  <minimizedRMSD>  (1) 
1.30292487

$$$$
