
     RDKit          3D

 36 38  0  0  1  0  0  0  0  0999 V2000
   34.6060   30.3560   48.2730 C   0  0  1  0  0  0  0  0  0  0  0  0
   33.6420   30.1720   47.1740 C   0  0  0  0  0  0  0  0  0  0  0  0
   33.3650   28.7690   46.7270 C   0  0  0  0  0  0  0  0  0  0  0  0
   33.3050   27.7890   47.8430 C   0  0  2  0  0  0  0  0  0  0  0  0
   34.2980   27.9260   48.9350 C   0  0  0  0  0  0  0  0  0  0  0  0
   34.4440   29.3590   49.3680 C   0  0  0  0  0  0  0  0  0  0  0  0
   36.4340   30.5500   46.5290 C   0  0  0  0  0  0  0  0  0  0  0  0
   36.0150   30.5540   47.8580 C   0  0  0  0  0  0  0  0  0  0  0  0
   36.9880   30.7700   48.8150 C   0  0  0  0  0  0  0  0  0  0  0  0
   38.2780   30.9640   48.4360 N   0  0  0  0  0  0  0  0  0  0  0  0
   38.6400   30.9530   47.1290 C   0  0  0  0  0  0  0  0  0  0  0  0
   37.7120   30.7430   46.1590 N   0  0  0  0  0  0  0  0  0  0  0  0
   31.3220   25.9150   48.5950 F   0  0  0  0  0  0  0  0  0  0  0  0
   32.3040   25.4860   47.7650 C   0  0  0  0  0  0  0  0  0  0  0  0
   33.3040   26.3860   47.3720 C   0  0  0  0  0  0  0  0  0  0  0  0
   34.2290   25.8190   46.5350 C   0  0  0  0  0  0  0  0  0  0  0  0
   34.1940   24.5080   46.1150 C   0  0  0  0  0  0  0  0  0  0  0  0
   33.1910   23.6790   46.5350 C   0  0  0  0  0  0  0  0  0  0  0  0
   32.2240   24.1800   47.3790 C   0  0  0  0  0  0  0  0  0  0  0  0
   34.3292   31.3303   48.7020 H   0  0  0  0  0  0  0  0  0  0  0  0
   32.6861   30.6101   47.4969 H   0  0  0  0  0  0  0  0  0  0  0  0
   34.1107   30.6566   46.3048 H   0  0  0  0  0  0  0  0  0  0  0  0
   32.3991   28.7561   46.2008 H   0  0  0  0  0  0  0  0  0  0  0  0
   34.1998   28.4670   46.0775 H   0  0  0  0  0  0  0  0  0  0  0  0
   32.3387   28.0563   48.2956 H   0  0  0  0  0  0  0  0  0  0  0  0
   33.9694   27.3240   49.7950 H   0  0  0  0  0  0  0  0  0  0  0  0
   35.2722   27.5761   48.5627 H   0  0  0  0  0  0  0  0  0  0  0  0
   35.3285   29.4261   50.0186 H   0  0  0  0  0  0  0  0  0  0  0  0
   33.4987   29.6168   49.8680 H   0  0  0  0  0  0  0  0  0  0  0  0
   35.6822   30.3806   45.7441 H   0  0  0  0  0  0  0  0  0  0  0  0
   36.7186   30.7848   49.8814 H   0  0  0  0  0  0  0  0  0  0  0  0
   39.6922   31.1152   46.8523 H   0  0  0  0  0  0  0  0  0  0  0  0
   35.0532   26.4523   46.1751 H   0  0  0  0  0  0  0  0  0  0  0  0
   34.9746   24.1269   45.4402 H   0  0  0  0  0  0  0  0  0  0  0  0
   33.1567   22.6303   46.2048 H   0  0  0  0  0  0  0  0  0  0  0  0
   31.4035   23.5394   47.7346 H   0  0  0  0  0  0  0  0  0  0  0  0
  1  6  1  0
  2  1  1  0
  3  2  1  0
  3  4  1  0
  4  5  1  0
  5  6  1  0
  7  8  2  0
  8  1  1  0
  8  9  1  0
 10  9  2  0
 11 10  1  0
 12  7  1  0
 12 11  2  0
 14 13  1  0
 15 14  2  0
 15  4  1  0
 16 15  1  0
 17 16  2  0
 17 18  1  0
 18 19  2  0
 19 14  1  0
  1 20  1  1
  2 21  1  0
  2 22  1  0
  3 23  1  0
  3 24  1  0
  4 25  1  1
  5 26  1  0
  5 27  1  0
  6 28  1  0
  6 29  1  0
  7 30  1  0
  9 31  1  0
 11 32  1  0
 16 33  1  0
 17 34  1  0
 18 35  1  0
 19 36  1  0
M  ISO  8  20  13  21  13  22  13  23  13  24  13  25  13  26  13  27  13
M  ISO  8  28  13  29  13  30  14  31  14  32  14  33  14  34  14  35  14
M  ISO  1  36  14
M  END
>  <minimizedAffinity>  (1) 
-4.8529067

>  <minimizedRMSD>  (1) 
1.95549953

$$$$
