
     RDKit          3D

 29 31  0  0  0  0  0  0  0  0999 V2000
   38.0470   31.9780   48.9360 C   0  0  0  0  0  0  0  0  0  0  0  0
   38.6230   33.0790   49.5130 C   0  0  0  0  0  0  0  0  0  0  0  0
   39.4550   33.9610   48.8450 C   0  0  0  0  0  0  0  0  0  0  0  0
   39.7310   33.7320   47.5230 C   0  0  0  0  0  0  0  0  0  0  0  0
   39.1460   32.6280   46.9620 C   0  0  0  0  0  0  0  0  0  0  0  0
   38.3420   31.7930   47.6430 N   0  0  0  0  0  0  0  0  0  0  0  0
   37.5280   30.4570   50.8820 C   0  0  0  0  0  0  0  0  0  0  0  0
   37.1720   31.0570   49.6560 C   0  0  0  0  0  0  0  0  0  0  0  0
   35.9410   30.7600   49.1090 C   0  0  0  0  0  0  0  0  0  0  0  0
   35.1250   29.8950   49.7900 N   0  0  0  0  0  0  0  0  0  0  0  0
   35.5020   29.3370   50.9700 C   0  0  0  0  0  0  0  0  0  0  0  0
   36.6890   29.6130   51.5120 N   0  0  0  0  0  0  0  0  0  0  0  0
   41.0620   30.7800   46.1770 F   0  0  0  0  0  0  0  0  0  0  0  0
   40.3510   31.3940   45.1750 C   0  0  0  0  0  0  0  0  0  0  0  0
   39.3910   32.3190   45.5580 C   0  0  0  0  0  0  0  0  0  0  0  0
   38.7310   32.8800   44.4850 C   0  0  0  0  0  0  0  0  0  0  0  0
   38.9990   32.5540   43.1730 C   0  0  0  0  0  0  0  0  0  0  0  0
   39.9720   31.6230   42.8740 C   0  0  0  0  0  0  0  0  0  0  0  0
   40.6790   31.0140   43.8910 C   0  0  0  0  0  0  0  0  0  0  0  0
   38.4109   33.2746   50.5745 H   0  0  0  0  0  0  0  0  0  0  0  0
   39.8861   34.8288   49.3657 H   0  0  0  0  0  0  0  0  0  0  0  0
   40.3868   34.3985   46.9435 H   0  0  0  0  0  0  0  0  0  0  0  0
   38.5068   30.6822   51.3306 H   0  0  0  0  0  0  0  0  0  0  0  0
   35.6237   31.2045   48.1541 H   0  0  0  0  0  0  0  0  0  0  0  0
   34.8180   28.6472   51.4861 H   0  0  0  0  0  0  0  0  0  0  0  0
   37.9493   33.6272   44.6869 H   0  0  0  0  0  0  0  0  0  0  0  0
   38.4352   33.0377   42.3617 H   0  0  0  0  0  0  0  0  0  0  0  0
   40.1843   31.3661   41.8257 H   0  0  0  0  0  0  0  0  0  0  0  0
   41.4606   30.2670   43.6883 H   0  0  0  0  0  0  0  0  0  0  0  0
  1  2  2  0
  1  8  1  0
  3  2  1  0
  4  3  2  0
  5  4  1  0
  5  6  2  0
  6  1  1  0
  7 12  2  0
  8  7  1  0
  9  8  2  0
  9 10  1  0
 10 11  2  0
 11 12  1  0
 14 15  2  0
 14 13  1  0
 15  5  1  0
 16 15  1  0
 17 16  2  0
 18 17  1  0
 18 19  2  0
 19 14  1  0
  2 20  1  0
  3 21  1  0
  4 22  1  0
  7 23  1  0
  9 24  1  0
 11 25  1  0
 16 26  1  0
 17 27  1  0
 18 28  1  0
 19 29  1  0
M  ISO  8  20  14  21  14  22  14  23  14  24  14  25  14  26  14  27  14
M  ISO  2  28  14  29  14
M  END
>  <minimizedAffinity>  (1) 
-6.49301481

>  <minimizedRMSD>  (1) 
0.779716194

$$$$
