
     RDKit          3D

 30 32  0  0  0  0  0  0  0  0999 V2000
   37.5810   30.4180   46.7210 Cl  0  0  0  0  0  0  0  0  0  0  0  0
   38.3020   31.7750   47.5580 C   0  0  0  0  0  0  0  0  0  0  0  0
   38.0420   31.9430   48.8800 C   0  0  0  0  0  0  0  0  0  0  0  0
   38.6480   33.0470   49.4910 C   0  0  0  0  0  0  0  0  0  0  0  0
   39.4610   33.8940   48.7420 C   0  0  0  0  0  0  0  0  0  0  0  0
   39.6980   33.6900   47.4100 C   0  0  0  0  0  0  0  0  0  0  0  0
   39.1020   32.6040   46.8120 C   0  0  0  0  0  0  0  0  0  0  0  0
   37.6910   30.3690   50.7850 C   0  0  0  0  0  0  0  0  0  0  0  0
   37.1910   31.0620   49.6740 C   0  0  0  0  0  0  0  0  0  0  0  0
   35.8530   30.8810   49.3520 C   0  0  0  0  0  0  0  0  0  0  0  0
   35.0980   30.0500   50.1210 N   0  0  0  0  0  0  0  0  0  0  0  0
   35.6050   29.4040   51.1750 C   0  0  0  0  0  0  0  0  0  0  0  0
   36.9140   29.5570   51.5210 N   0  0  0  0  0  0  0  0  0  0  0  0
   41.0910   30.8450   46.1830 F   0  0  0  0  0  0  0  0  0  0  0  0
   40.3710   31.4450   45.1910 C   0  0  0  0  0  0  0  0  0  0  0  0
   39.3340   32.3570   45.3870 C   0  0  0  0  0  0  0  0  0  0  0  0
   38.6720   32.9010   44.3180 C   0  0  0  0  0  0  0  0  0  0  0  0
   39.0150   32.5610   43.0300 C   0  0  0  0  0  0  0  0  0  0  0  0
   40.0390   31.6610   42.8560 C   0  0  0  0  0  0  0  0  0  0  0  0
   40.7360   31.0850   43.9030 C   0  0  0  0  0  0  0  0  0  0  0  0
   38.4824   33.2451   50.5603 H   0  0  0  0  0  0  0  0  0  0  0  0
   39.9288   34.7569   49.2385 H   0  0  0  0  0  0  0  0  0  0  0  0
   40.3435   34.3716   46.8366 H   0  0  0  0  0  0  0  0  0  0  0  0
   38.7483   30.4934   51.0618 H   0  0  0  0  0  0  0  0  0  0  0  0
   35.4103   31.4007   48.4895 H   0  0  0  0  0  0  0  0  0  0  0  0
   34.9588   28.7416   51.7697 H   0  0  0  0  0  0  0  0  0  0  0  0
   37.8564   33.6183   44.4918 H   0  0  0  0  0  0  0  0  0  0  0  0
   38.4873   32.9950   42.1680 H   0  0  0  0  0  0  0  0  0  0  0  0
   40.3194   31.3838   41.8291 H   0  0  0  0  0  0  0  0  0  0  0  0
   41.5498   30.3678   43.7202 H   0  0  0  0  0  0  0  0  0  0  0  0
  1  2  1  0
  2  3  2  0
  3  4  1  0
  3  9  1  0
  5  4  2  0
  6  5  1  0
  7  6  2  0
  7  2  1  0
  8 13  2  0
  9  8  1  0
 10  9  2  0
 10 11  1  0
 11 12  2  0
 12 13  1  0
 15 16  2  0
 15 14  1  0
 16  7  1  0
 17 16  1  0
 18 17  2  0
 19 18  1  0
 19 20  2  0
 20 15  1  0
  4 21  1  0
  5 22  1  0
  6 23  1  0
  8 24  1  0
 10 25  1  0
 12 26  1  0
 17 27  1  0
 18 28  1  0
 19 29  1  0
 20 30  1  0
M  ISO  8  21  14  22  14  23  14  24  14  25  14  26  14  27  14  28  14
M  ISO  2  29  14  30  14
M  END
>  <minimizedAffinity>  (1) 
-6.73949051

>  <minimizedRMSD>  (1) 
0.818288147

$$$$
