
     RDKit          3D

 36 38  0  0  0  0  0  0  0  0999 V2000
   34.5690   29.6680   49.0140 C   0  0  0  0  0  0  0  0  0  0  0  0
   34.5430   30.1240   47.6880 C   0  0  0  0  0  0  0  0  0  0  0  0
   33.7120   29.4340   46.7980 C   0  0  0  0  0  0  0  0  0  0  0  0
   32.9770   28.3600   47.2620 N   0  0  0  0  0  0  0  0  0  0  0  0
   33.0370   27.9580   48.5480 C   0  0  0  0  0  0  0  0  0  0  0  0
   33.8260   28.6080   49.4140 N   0  0  0  0  0  0  0  0  0  0  0  0
   35.4480   30.4210   49.9590 C   0  0  0  0  0  0  0  0  0  0  0  0
   36.4510   31.2400   49.1780 C   0  0  0  0  0  0  0  0  0  0  0  0
   37.8510   30.7180   49.3200 C   0  0  0  0  0  0  0  0  0  0  0  0
   38.2880   30.6160   50.7540 C   0  0  0  0  0  0  0  0  0  0  0  0
   37.2590   29.9800   51.6360 C   0  0  0  0  0  0  0  0  0  0  0  0
   36.0620   29.4430   50.8910 C   0  0  0  0  0  0  0  0  0  0  0  0
   32.0040   31.4590   45.9540 F   0  0  0  0  0  0  0  0  0  0  0  0
   32.7270   30.7890   44.9980 C   0  0  0  0  0  0  0  0  0  0  0  0
   33.5780   29.7830   45.4030 C   0  0  0  0  0  0  0  0  0  0  0  0
   34.2500   29.1810   44.3650 C   0  0  0  0  0  0  0  0  0  0  0  0
   34.1110   29.5250   43.0380 C   0  0  0  0  0  0  0  0  0  0  0  0
   33.2440   30.5380   42.7040 C   0  0  0  0  0  0  0  0  0  0  0  0
   32.5460   31.1750   43.7060 C   0  0  0  0  0  0  0  0  0  0  0  0
   35.1474   30.9836   47.3627 H   0  0  0  0  0  0  0  0  0  0  0  0
   32.4394   27.0982   48.8851 H   0  0  0  0  0  0  0  0  0  0  0  0
   34.8801   31.1430   50.5642 H   0  0  0  0  0  0  0  0  0  0  0  0
   36.4218   32.2769   49.5441 H   0  0  0  0  0  0  0  0  0  0  0  0
   36.1771   31.1800   48.1143 H   0  0  0  0  0  0  0  0  0  0  0  0
   37.9019   29.7181   48.8644 H   0  0  0  0  0  0  0  0  0  0  0  0
   38.5236   31.4283   48.8169 H   0  0  0  0  0  0  0  0  0  0  0  0
   39.2076   30.0140   50.7981 H   0  0  0  0  0  0  0  0  0  0  0  0
   38.4490   31.6400   51.1222 H   0  0  0  0  0  0  0  0  0  0  0  0
   37.7330   29.1471   52.1760 H   0  0  0  0  0  0  0  0  0  0  0  0
   36.8885   30.7652   52.3114 H   0  0  0  0  0  0  0  0  0  0  0  0
   35.3022   29.1413   51.6270 H   0  0  0  0  0  0  0  0  0  0  0  0
   36.4165   28.5988   50.2814 H   0  0  0  0  0  0  0  0  0  0  0  0
   34.9479   28.3673   44.6116 H   0  0  0  0  0  0  0  0  0  0  0  0
   34.6834   28.9985   42.2601 H   0  0  0  0  0  0  0  0  0  0  0  0
   33.1098   30.8351   41.6534 H   0  0  0  0  0  0  0  0  0  0  0  0
   31.8476   31.9895   43.4635 H   0  0  0  0  0  0  0  0  0  0  0  0
  1  6  1  0
  1  7  1  0
  2  1  2  0
  3  4  2  0
  3  2  1  0
  4  5  1  0
  5  6  2  0
  7 12  1  0
  8  9  1  0
  8  7  1  0
  9 10  1  0
 10 11  1  0
 12 11  1  0
 14 15  2  0
 14 13  1  0
 15  3  1  0
 16 15  1  0
 17 16  2  0
 18 17  1  0
 18 19  2  0
 19 14  1  0
  2 20  1  0
  5 21  1  0
  7 22  1  0
  8 23  1  0
  8 24  1  0
  9 25  1  0
  9 26  1  0
 10 27  1  0
 10 28  1  0
 11 29  1  0
 11 30  1  0
 12 31  1  0
 12 32  1  0
 16 33  1  0
 17 34  1  0
 18 35  1  0
 19 36  1  0
M  ISO  8  20  14  21  14  22  13  23  13  24  13  25  13  26  13  27  13
M  ISO  8  28  13  29  13  30  13  31  13  32  13  33  14  34  14  35  14
M  ISO  1  36  14
M  END
>  <minimizedAffinity>  (1) 
-5.47951174

>  <minimizedRMSD>  (1) 
0.898712277

$$$$
