
     RDKit          3D

 41 44  0  0  0  0  0  0  0  0999 V2000
   34.0950   29.9890   47.5560 S   0  0  0  0  0  0  0  0  0  0  0  0
   36.4390   30.9310   45.7110 Cl  0  0  0  0  0  0  0  0  0  0  0  0
   36.7200   30.8150   47.4310 C   0  0  0  0  0  0  0  0  0  0  0  0
   37.9850   31.1520   47.8910 C   0  0  0  0  0  0  0  0  0  0  0  0
   38.2270   31.0650   49.2510 C   0  0  0  0  0  0  0  0  0  0  0  0
   37.2240   30.6560   50.0980 C   0  0  0  0  0  0  0  0  0  0  0  0
   35.9750   30.3320   49.5690 C   0  0  0  0  0  0  0  0  0  0  0  0
   35.6720   30.3950   48.2420 C   0  0  0  0  0  0  0  0  0  0  0  0
   40.2510   33.3450   46.0550 C   0  0  0  0  0  0  0  0  0  0  0  0
   40.9610   32.4810   45.2100 C   0  0  0  0  0  0  0  0  0  0  0  0
   40.6420   31.1150   45.2840 C   0  0  0  0  0  0  0  0  0  0  0  0
   39.6790   30.7110   46.1570 N   0  0  0  0  0  0  0  0  0  0  0  0
   39.0240   31.5830   46.9490 C   0  0  0  0  0  0  0  0  0  0  0  0
   39.3180   32.8800   46.8870 N   0  0  0  0  0  0  0  0  0  0  0  0
   33.9670   29.1680   44.5110 Cl  0  0  0  0  0  0  0  0  0  0  0  0
   33.9190   27.9690   45.7950 C   0  0  0  0  0  0  0  0  0  0  0  0
   33.9700   28.2470   47.1620 C   0  0  0  0  0  0  0  0  0  0  0  0
   33.9240   27.2100   48.0640 C   0  0  0  0  0  0  0  0  0  0  0  0
   33.8280   25.9240   47.6350 C   0  0  0  0  0  0  0  0  0  0  0  0
   33.7730   25.5820   46.2810 C   0  0  0  0  0  0  0  0  0  0  0  0
   33.8210   26.6250   45.3980 C   0  0  0  0  0  0  0  0  0  0  0  0
   31.4680   26.5470   43.8390 F   0  0  0  0  0  0  0  0  0  0  0  0
   32.6460   26.2310   43.2050 C   0  0  0  0  0  0  0  0  0  0  0  0
   33.7630   26.2780   43.9810 C   0  0  0  0  0  0  0  0  0  0  0  0
   35.0250   25.9800   43.4570 C   0  0  0  0  0  0  0  0  0  0  0  0
   35.1570   25.6280   42.1200 C   0  0  0  0  0  0  0  0  0  0  0  0
   33.9910   25.5960   41.3770 C   0  0  0  0  0  0  0  0  0  0  0  0
   32.7470   25.8860   41.8780 C   0  0  0  0  0  0  0  0  0  0  0  0
   39.2182   31.3221   49.6528 H   0  0  0  0  0  0  0  0  0  0  0  0
   37.4048   30.5852   51.1807 H   0  0  0  0  0  0  0  0  0  0  0  0
   35.1875   30.0062   50.2644 H   0  0  0  0  0  0  0  0  0  0  0  0
   40.4666   34.4234   46.0316 H   0  0  0  0  0  0  0  0  0  0  0  0
   41.7323   32.8553   44.5208 H   0  0  0  0  0  0  0  0  0  0  0  0
   41.1617   30.3841   44.6471 H   0  0  0  0  0  0  0  0  0  0  0  0
   33.9653   27.4233   49.1423 H   0  0  0  0  0  0  0  0  0  0  0  0
   33.7921   25.1193   48.3842 H   0  0  0  0  0  0  0  0  0  0  0  0
   33.6958   24.5371   45.9459 H   0  0  0  0  0  0  0  0  0  0  0  0
   35.9134   26.0244   44.1041 H   0  0  0  0  0  0  0  0  0  0  0  0
   36.1347   25.3880   41.6767 H   0  0  0  0  0  0  0  0  0  0  0  0
   34.0658   25.3200   40.3148 H   0  0  0  0  0  0  0  0  0  0  0  0
   31.8551   25.8436   41.2356 H   0  0  0  0  0  0  0  0  0  0  0  0
  1  8  1  0
  2  3  1  0
  3  4  2  0
  3  8  1  0
  4  5  1  0
  5  6  2  0
  7  6  1  0
  8  7  2  0
  9 14  2  0
 10 11  2  0
 10  9  1  0
 11 12  1  0
 12 13  2  0
 13  4  1  0
 14 13  1  0
 15 16  1  0
 16 17  2  0
 17  1  1  0
 17 18  1  0
 19 18  2  0
 20 19  1  0
 21 16  1  0
 21 20  2  0
 23 22  1  0
 23 24  2  0
 24 21  1  0
 25 24  1  0
 26 25  2  0
 27 28  2  0
 27 26  1  0
 28 23  1  0
  5 29  1  0
  6 30  1  0
  7 31  1  0
  9 32  1  0
 10 33  1  0
 11 34  1  0
 18 35  1  0
 19 36  1  0
 20 37  1  0
 25 38  1  0
 26 39  1  0
 27 40  1  0
 28 41  1  0
M  ISO  8  29  14  30  14  31  14  32  14  33  14  34  14  35  14  36  14
M  ISO  5  37  14  38  14  39  14  40  14  41  14
M  END
>  <minimizedAffinity>  (1) 
-5.77919388

>  <minimizedRMSD>  (1) 
0.327122122

$$$$
