
     RDKit          3D

 37 39  0  0  0  0  0  0  0  0999 V2000
   38.2950   32.0260   47.4190 C   0  0  0  0  0  0  0  0  0  0  0  0
   38.8990   32.9350   48.2420 C   0  0  0  0  0  0  0  0  0  0  0  0
   38.5230   33.1000   49.5790 C   0  0  0  0  0  0  0  0  0  0  0  0
   37.4530   32.2570   50.0700 C   0  0  0  0  0  0  0  0  0  0  0  0
   36.8940   31.3750   49.2080 C   0  0  0  0  0  0  0  0  0  0  0  0
   37.2630   31.2260   47.9220 C   0  0  0  0  0  0  0  0  0  0  0  0
   40.0260   31.2540   45.8680 C   0  0  0  0  0  0  0  0  0  0  0  0
   38.8090   31.9600   46.0700 C   0  0  0  0  0  0  0  0  0  0  0  0
   38.2620   32.4970   44.9290 C   0  0  0  0  0  0  0  0  0  0  0  0
   38.8690   32.3420   43.7380 N   0  0  0  0  0  0  0  0  0  0  0  0
   39.9940   31.6860   43.5710 C   0  0  0  0  0  0  0  0  0  0  0  0
   40.5630   31.1470   44.6370 N   0  0  0  0  0  0  0  0  0  0  0  0
   35.2540   30.0940   47.4650 C   0  0  0  0  0  0  0  0  0  0  0  0
   34.7910   30.6850   48.5210 O   0  0  0  0  0  0  0  0  0  0  0  0
   36.6340   30.3280   47.0950 N   0  0  0  0  0  0  0  0  0  0  0  0
   34.4260   29.2710   46.7420 O   0  0  0  0  0  0  0  0  0  0  0  0
   33.0590   29.4720   46.5870 C   0  0  0  0  0  0  0  0  0  0  0  0
   32.5770   30.6040   46.1220 O   0  0  0  0  0  0  0  0  0  0  0  0
   32.8580   28.2330   49.1100 F   0  0  0  0  0  0  0  0  0  0  0  0
   31.9750   27.8400   48.1520 C   0  0  0  0  0  0  0  0  0  0  0  0
   32.0540   28.4310   46.9110 C   0  0  0  0  0  0  0  0  0  0  0  0
   31.1490   28.0060   45.9810 C   0  0  0  0  0  0  0  0  0  0  0  0
   30.2220   27.0350   46.3030 C   0  0  0  0  0  0  0  0  0  0  0  0
   30.1680   26.4620   47.5570 C   0  0  0  0  0  0  0  0  0  0  0  0
   31.0650   26.8780   48.4910 C   0  0  0  0  0  0  0  0  0  0  0  0
   39.7099   33.5591   47.8383 H   0  0  0  0  0  0  0  0  0  0  0  0
   39.0179   33.8371   50.2284 H   0  0  0  0  0  0  0  0  0  0  0  0
   37.1051   32.3308   51.1109 H   0  0  0  0  0  0  0  0  0  0  0  0
   36.0819   30.7358   49.5848 H   0  0  0  0  0  0  0  0  0  0  0  0
   40.5348   30.7901   46.7258 H   0  0  0  0  0  0  0  0  0  0  0  0
   37.3185   33.0592   44.9901 H   0  0  0  0  0  0  0  0  0  0  0  0
   40.4498   31.5875   42.5747 H   0  0  0  0  0  0  0  0  0  0  0  0
   37.0951   29.8696   46.2962 H   0  0  0  0  0  0  0  0  0  0  0  0
   31.1586   28.4395   44.9701 H   0  0  0  0  0  0  0  0  0  0  0  0
   29.5043   26.7080   45.5362 H   0  0  0  0  0  0  0  0  0  0  0  0
   29.4207   25.6906   47.7946 H   0  0  0  0  0  0  0  0  0  0  0  0
   31.0582   26.4471   49.5031 H   0  0  0  0  0  0  0  0  0  0  0  0
  1  6  1  0
  1  2  2  0
  2  3  1  0
  3  4  2  0
  5  4  1  0
  6  5  2  0
  7  8  2  0
  8  1  1  0
  9  8  1  0
 10  9  2  0
 11 10  1  0
 11 12  2  0
 12  7  1  0
 13 14  2  0
 15 13  1  0
 15  6  1  0
 16 13  1  0
 17 16  1  0
 17 21  1  0
 18 17  2  0
 20 25  2  0
 20 19  1  0
 21 20  1  0
 22 23  1  0
 22 21  2  0
 23 24  2  0
 24 25  1  0
  2 26  1  0
  3 27  1  0
  4 28  1  0
  5 29  1  0
  7 30  1  0
  9 31  1  0
 11 32  1  0
 15 33  1  0
 22 34  1  0
 23 35  1  0
 24 36  1  0
 25 37  1  0
M  ISO  8  26  14  27  14  28  14  29  14  30  14  31  14  32  14  34  14
M  ISO  3  35  14  36  14  37  14
M  END
>  <minimizedAffinity>  (1) 
-6.1607089

>  <minimizedRMSD>  (1) 
1.30185032

$$$$
