
     RDKit          3D

 34 36  0  0  1  0  0  0  0  0999 V2000
   36.4950   30.0290   49.0320 N   0  0  0  0  0  0  0  0  0  0  0  0
   36.9960   31.3330   48.7920 C   0  0  1  0  0  0  0  0  0  0  0  0
   37.7170   31.7300   50.0490 C   0  0  0  0  0  0  0  0  0  0  0  0
   37.5590   30.4880   50.9710 C   0  0  0  0  0  0  0  0  0  0  0  0
   37.4230   29.4120   49.9360 C   0  0  0  0  0  0  0  0  0  0  0  0
   35.3000   29.4830   48.4800 C   0  0  0  0  0  0  0  0  0  0  0  0
   34.5080   30.2650   47.6630 C   0  0  0  0  0  0  0  0  0  0  0  0
   33.3470   29.7390   47.1060 C   0  0  0  0  0  0  0  0  0  0  0  0
   33.0610   28.4250   47.4220 N   0  0  0  0  0  0  0  0  0  0  0  0
   33.8500   27.6790   48.2230 C   0  0  0  0  0  0  0  0  0  0  0  0
   34.9850   28.2080   48.7620 N   0  0  0  0  0  0  0  0  0  0  0  0
   37.6810   31.6030   47.5520 C   0  0  0  0  0  0  0  0  0  0  0  0
   38.3320   32.6160   47.4160 O   0  0  0  0  0  0  0  0  0  0  0  0
   40.2020   30.7770   46.3540 F   0  0  0  0  0  0  0  0  0  0  0  0
   39.0440   30.5400   45.7330 C   0  0  0  0  0  0  0  0  0  0  0  0
   37.8360   30.9680   46.2430 C   0  0  0  0  0  0  0  0  0  0  0  0
   36.7710   30.6530   45.3960 C   0  0  0  0  0  0  0  0  0  0  0  0
   36.8520   30.0060   44.2070 C   0  0  0  0  0  0  0  0  0  0  0  0
   38.0840   29.6210   43.7870 C   0  0  0  0  0  0  0  0  0  0  0  0
   39.2030   29.8790   44.5360 C   0  0  0  0  0  0  0  0  0  0  0  0
   36.1438   31.9970   48.5850 H   0  0  0  0  0  0  0  0  0  0  0  0
   38.7783   31.9346   49.8447 H   0  0  0  0  0  0  0  0  0  0  0  0
   37.3150   32.6496   50.4992 H   0  0  0  0  0  0  0  0  0  0  0  0
   38.4446   30.3349   51.6052 H   0  0  0  0  0  0  0  0  0  0  0  0
   36.7287   30.5471   51.6901 H   0  0  0  0  0  0  0  0  0  0  0  0
   37.0150   28.4853   50.3658 H   0  0  0  0  0  0  0  0  0  0  0  0
   38.3714   29.0997   49.4744 H   0  0  0  0  0  0  0  0  0  0  0  0
   34.7956   31.3056   47.4522 H   0  0  0  0  0  0  0  0  0  0  0  0
   32.6941   30.3351   46.4515 H   0  0  0  0  0  0  0  0  0  0  0  0
   33.5755   26.6367   48.4426 H   0  0  0  0  0  0  0  0  0  0  0  0
   35.7676   30.9600   45.7260 H   0  0  0  0  0  0  0  0  0  0  0  0
   35.9538   29.8010   43.6060 H   0  0  0  0  0  0  0  0  0  0  0  0
   38.1865   29.0922   42.8279 H   0  0  0  0  0  0  0  0  0  0  0  0
   40.1995   29.5667   44.1903 H   0  0  0  0  0  0  0  0  0  0  0  0
  1  5  1  0
  2  1  1  0
  2  3  1  0
  3  4  1  0
  5  4  1  0
  6 11  1  0
  6  1  1  0
  7  6  2  0
  8  9  2  0
  8  7  1  0
  9 10  1  0
 10 11  2  0
 12  2  1  0
 13 12  2  0
 15 16  2  0
 15 14  1  0
 16 12  1  0
 17 16  1  0
 18 17  2  0
 19 18  1  0
 19 20  2  0
 20 15  1  0
  2 21  1  6
  3 22  1  0
  3 23  1  0
  4 24  1  0
  4 25  1  0
  5 26  1  0
  5 27  1  0
  7 28  1  0
  8 29  1  0
 10 30  1  0
 17 31  1  0
 18 32  1  0
 19 33  1  0
 20 34  1  0
M  ISO  8  21  13  22  13  23  13  24  13  25  13  26  13  27  13  28  14
M  ISO  6  29  14  30  14  31  14  32  14  33  14  34  14
M  END
>  <minimizedAffinity>  (1) 
-5.65365696

>  <minimizedRMSD>  (1) 
0.867314517

$$$$
