
     RDKit          3D

 32 33  0  0  0  0  0  0  0  0999 V2000
   36.9360   29.2350   50.5010 C   0  0  0  0  0  0  0  0  0  0  0  0
   37.7150   30.4830   50.7610 C   0  0  0  0  0  0  0  0  0  0  0  0
   38.1190   31.2130   49.5580 C   0  0  0  0  0  0  0  0  0  0  0  0
   38.5480   32.5200   49.5830 C   0  0  0  0  0  0  0  0  0  0  0  0
   38.9140   33.1390   48.3780 C   0  0  0  0  0  0  0  0  0  0  0  0
   38.8250   32.4010   47.2320 N   0  0  0  0  0  0  0  0  0  0  0  0
   38.3920   31.0970   47.2450 C   0  0  0  0  0  0  0  0  0  0  0  0
   38.0400   30.5140   48.4250 N   0  0  0  0  0  0  0  0  0  0  0  0
   35.7230   29.3320   51.1760 O   0  0  0  0  0  0  0  0  0  0  0  0
   34.6870   30.5270   49.1120 O   0  0  0  0  0  0  0  0  0  0  0  0
   34.4080   29.4080   50.1010 P   0  0  2  0  0  0  0  0  0  0  0  0
   33.0000   29.8330   50.9220 O   0  0  0  0  0  0  0  0  0  0  0  0
   34.1870   27.9460   49.3230 O   0  0  0  0  0  0  0  0  0  0  0  0
   31.3660   27.7760   49.4440 F   0  0  0  0  0  0  0  0  0  0  0  0
   31.9200   27.7270   48.2220 C   0  0  0  0  0  0  0  0  0  0  0  0
   33.2950   27.8170   48.2710 C   0  0  0  0  0  0  0  0  0  0  0  0
   34.0180   27.7810   47.0710 C   0  0  0  0  0  0  0  0  0  0  0  0
   33.3620   27.6540   45.8410 C   0  0  0  0  0  0  0  0  0  0  0  0
   31.9850   27.5660   45.8110 C   0  0  0  0  0  0  0  0  0  0  0  0
   31.2880   27.6030   47.0010 C   0  0  0  0  0  0  0  0  0  0  0  0
   36.7540   29.1275   49.4215 H   0  0  0  0  0  0  0  0  0  0  0  0
   37.4972   28.3563   50.8517 H   0  0  0  0  0  0  0  0  0  0  0  0
   37.0952   31.1521   51.3760 H   0  0  0  0  0  0  0  0  0  0  0  0
   38.6433   30.1714   51.2621 H   0  0  0  0  0  0  0  0  0  0  0  0
   38.6033   33.0714   50.5332 H   0  0  0  0  0  0  0  0  0  0  0  0
   39.2607   34.1827   48.3570 H   0  0  0  0  0  0  0  0  0  0  0  0
   38.3298   30.5262   46.3067 H   0  0  0  0  0  0  0  0  0  0  0  0
   33.1597   29.7848   51.8978 H   0  0  0  0  0  0  0  0  0  0  0  0
   35.1153   27.8535   47.0960 H   0  0  0  0  0  0  0  0  0  0  0  0
   33.9397   27.6246   44.9053 H   0  0  0  0  0  0  0  0  0  0  0  0
   31.4519   27.4680   44.8538 H   0  0  0  0  0  0  0  0  0  0  0  0
   30.1906   27.5312   46.9760 H   0  0  0  0  0  0  0  0  0  0  0  0
  1  2  1  0
  1  9  1  0
  3  4  2  0
  3  2  1  0
  5  4  1  0
  6  7  1  0
  6  5  2  0
  7  8  2  0
  8  3  1  0
 11 10  2  0
 11 12  1  0
 11  9  1  0
 13 11  1  0
 15 16  2  0
 15 14  1  0
 16 13  1  0
 17 16  1  0
 18 17  2  0
 19 18  1  0
 19 20  2  0
 20 15  1  0
  1 21  1  0
  1 22  1  0
  2 23  1  0
  2 24  1  0
  4 25  1  0
  5 26  1  0
  7 27  1  0
 12 28  1  0
 17 29  1  0
 18 30  1  0
 19 31  1  0
 20 32  1  0
M  ISO  8  21   8  22   8  23   8  24   8  25  14  26  14  27  14  28   3
M  ISO  4  29  14  30  14  31  14  32  14
M  END
>  <minimizedAffinity>  (1) 
-5.3778553

>  <minimizedRMSD>  (1) 
0.842642903

$$$$
