
     RDKit          3D

 48 52  0  0  0  0  0  0  0  0999 V2000
   39.2800   31.9300   44.9700 C   0  0  0  0  0  0  0  0  0  0  0  0
   38.1870   32.5790   45.0930 O   0  0  0  0  0  0  0  0  0  0  0  0
   39.9630   31.6530   46.1790 N   0  0  0  0  0  0  0  0  0  0  0  0
   39.2200   32.2820   42.5940 C   0  0  0  0  0  0  0  0  0  0  0  0
   39.7110   31.5460   43.6390 C   0  0  0  0  0  0  0  0  0  0  0  0
   40.5710   30.4890   43.4730 C   0  0  0  0  0  0  0  0  0  0  0  0
   40.9740   30.1350   42.1850 C   0  0  0  0  0  0  0  0  0  0  0  0
   41.7770   29.1840   41.7210 N   0  0  0  0  0  0  0  0  0  0  0  0
   41.8110   29.2950   40.4030 C   0  0  0  0  0  0  0  0  0  0  0  0
   41.0280   30.3200   40.0210 N   0  0  0  0  0  0  0  0  0  0  0  0
   40.4730   30.8830   41.1320 C   0  0  0  0  0  0  0  0  0  0  0  0
   39.6030   31.9560   41.2890 C   0  0  0  0  0  0  0  0  0  0  0  0
   39.1250   32.6740   40.2230 O   0  0  0  0  0  0  0  0  0  0  0  0
   38.0650   34.0870   38.0100 F   0  0  0  0  0  0  0  0  0  0  0  0
   37.3840   33.9510   39.1830 C   0  0  0  0  0  0  0  0  0  0  0  0
   37.8850   33.2700   40.2810 C   0  0  0  0  0  0  0  0  0  0  0  0
   37.0460   33.2530   41.3940 C   0  0  0  0  0  0  0  0  0  0  0  0
   35.8120   33.8610   41.4200 C   0  0  0  0  0  0  0  0  0  0  0  0
   35.3580   34.5270   40.2970 C   0  0  0  0  0  0  0  0  0  0  0  0
   36.1570   34.5710   39.1690 C   0  0  0  0  0  0  0  0  0  0  0  0
   38.1210   30.1630   47.4960 F   0  0  0  0  0  0  0  0  0  0  0  0
   38.3690   31.4010   48.0000 C   0  0  0  0  0  0  0  0  0  0  0  0
   37.7080   31.8330   49.1080 C   0  0  0  0  0  0  0  0  0  0  0  0
   38.0120   33.1010   49.5610 C   0  0  0  0  0  0  0  0  0  0  0  0
   38.9360   33.9090   48.9410 C   0  0  0  0  0  0  0  0  0  0  0  0
   39.5920   33.4420   47.8150 C   0  0  0  0  0  0  0  0  0  0  0  0
   39.2980   32.1650   47.3430 C   0  0  0  0  0  0  0  0  0  0  0  0
   36.0700   29.3450   51.4460 C   0  0  0  0  0  0  0  0  0  0  0  0
   37.0370   30.2060   50.8730 C   0  0  0  0  0  0  0  0  0  0  0  0
   36.7360   30.9350   49.7290 C   0  0  0  0  0  0  0  0  0  0  0  0
   35.4920   30.7880   49.1960 N   0  0  0  0  0  0  0  0  0  0  0  0
   34.5770   29.9660   49.7500 C   0  0  0  0  0  0  0  0  0  0  0  0
   34.8640   29.2670   50.8460 N   0  0  0  0  0  0  0  0  0  0  0  0
   40.8517   31.1339   46.2191 H   0  0  0  0  0  0  0  0  0  0  0  0
   38.5321   33.1202   42.7788 H   0  0  0  0  0  0  0  0  0  0  0  0
   40.9380   29.9278   44.3450 H   0  0  0  0  0  0  0  0  0  0  0  0
   42.2821   28.4860   42.2855 H   0  0  0  0  0  0  0  0  0  0  0  0
   42.3893   28.6498   39.7253 H   0  0  0  0  0  0  0  0  0  0  0  0
   37.3878   32.7268   42.2974 H   0  0  0  0  0  0  0  0  0  0  0  0
   35.1916   33.8174   42.3273 H   0  0  0  0  0  0  0  0  0  0  0  0
   34.3728   35.0162   40.3005 H   0  0  0  0  0  0  0  0  0  0  0  0
   35.8132   35.0984   38.2670 H   0  0  0  0  0  0  0  0  0  0  0  0
   37.4941   33.4805   50.4542 H   0  0  0  0  0  0  0  0  0  0  0  0
   39.1511   34.9134   49.3347 H   0  0  0  0  0  0  0  0  0  0  0  0
   40.3344   34.0700   47.3007 H   0  0  0  0  0  0  0  0  0  0  0  0
   36.2944   28.7595   52.3498 H   0  0  0  0  0  0  0  0  0  0  0  0
   38.0308   30.2982   51.3355 H   0  0  0  0  0  0  0  0  0  0  0  0
   33.5819   29.8722   49.2907 H   0  0  0  0  0  0  0  0  0  0  0  0
  1  2  2  0
  1  3  1  0
  3 27  1  0
  4  5  2  0
  5  1  1  0
  6  5  1  0
  7  6  2  0
  8  7  1  0
  9  8  1  0
 10  9  2  0
 10 11  1  0
 11 12  2  0
 11  7  1  0
 12  4  1  0
 13 16  1  0
 13 12  1  0
 14 15  1  0
 15 16  2  0
 16 17  1  0
 17 18  2  0
 19 18  1  0
 20 15  1  0
 20 19  2  0
 21 22  1  0
 22 23  2  0
 23 24  1  0
 23 30  1  0
 25 24  2  0
 26 25  1  0
 27 26  2  0
 27 22  1  0
 29 28  2  0
 30 29  1  0
 31 30  2  0
 31 32  1  0
 32 33  2  0
 33 28  1  0
  3 34  1  0
  4 35  1  0
  6 36  1  0
  8 37  1  0
  9 38  1  0
 17 39  1  0
 18 40  1  0
 19 41  1  0
 20 42  1  0
 24 43  1  0
 25 44  1  0
 26 45  1  0
 28 46  1  0
 29 47  1  0
 32 48  1  0
M  ISO  8  35  14  36  14  37   9  38  14  39  14  40  14  41  14  42  14
M  ISO  6  43  14  44  14  45  14  46  14  47  14  48  14
M  END
>  <minimizedAffinity>  (1) 
-7.55296707

>  <minimizedRMSD>  (1) 
0.466376275

$$$$
