
     RDKit          3D

 42 46  0  0  0  0  0  0  0  0999 V2000
   36.1200   30.3100   45.9460 C   0  0  0  0  0  0  0  0  0  0  0  0
   36.6440   30.5960   47.1660 C   0  0  0  0  0  0  0  0  0  0  0  0
   35.9280   30.3370   48.3270 C   0  0  0  0  0  0  0  0  0  0  0  0
   34.6630   29.7790   48.2030 C   0  0  0  0  0  0  0  0  0  0  0  0
   34.1210   29.4840   46.9620 C   0  0  0  0  0  0  0  0  0  0  0  0
   34.8820   29.7670   45.8810 N   0  0  0  0  0  0  0  0  0  0  0  0
   36.8830   30.5850   44.6830 C   0  0  0  0  0  0  0  0  0  0  0  0
   36.6720   29.6960   43.5180 C   0  0  0  0  0  0  0  0  0  0  0  0
   36.1000   31.0940   43.5070 C   0  0  0  0  0  0  0  0  0  0  0  0
   39.4820   33.1930   45.0600 C   0  0  0  0  0  0  0  0  0  0  0  0
   40.6070   32.4380   45.4770 C   0  0  0  0  0  0  0  0  0  0  0  0
   40.4430   31.0480   45.6180 C   0  0  0  0  0  0  0  0  0  0  0  0
   39.2330   30.5030   45.3530 N   0  0  0  0  0  0  0  0  0  0  0  0
   38.1730   31.2500   44.9550 C   0  0  0  0  0  0  0  0  0  0  0  0
   38.2930   32.5870   44.8090 N   0  0  0  0  0  0  0  0  0  0  0  0
   32.8010   28.8980   46.7700 C   0  0  0  0  0  0  0  0  0  0  0  0
   32.1200   28.5610   45.6410 N   0  0  0  0  0  0  0  0  0  0  0  0
   30.9140   28.0440   45.9770 C   0  0  0  0  0  0  0  0  0  0  0  0
   30.8430   28.0600   47.3370 N   0  0  0  0  0  0  0  0  0  0  0  0
   31.9760   28.5720   47.8020 N   0  0  0  0  0  0  0  0  0  0  0  0
   31.1270   28.2190   50.0700 F   0  0  0  0  0  0  0  0  0  0  0  0
   29.9990   27.7340   49.4970 C   0  0  0  0  0  0  0  0  0  0  0  0
   29.7810   27.6220   48.1400 C   0  0  0  0  0  0  0  0  0  0  0  0
   28.5770   27.1070   47.7160 C   0  0  0  0  0  0  0  0  0  0  0  0
   27.6100   26.7110   48.6130 C   0  0  0  0  0  0  0  0  0  0  0  0
   27.8070   26.8140   49.9820 C   0  0  0  0  0  0  0  0  0  0  0  0
   29.0300   27.3370   50.4160 C   0  0  0  0  0  0  0  0  0  0  0  0
   37.6487   31.0386   47.2351 H   0  0  0  0  0  0  0  0  0  0  0  0
   36.3507   30.5672   49.3161 H   0  0  0  0  0  0  0  0  0  0  0  0
   34.0778   29.5662   49.1098 H   0  0  0  0  0  0  0  0  0  0  0  0
   37.5165   29.4429   42.8602 H   0  0  0  0  0  0  0  0  0  0  0  0
   36.2580   28.6867   43.3766 H   0  0  0  0  0  0  0  0  0  0  0  0
   36.5296   31.8622   42.8472 H   0  0  0  0  0  0  0  0  0  0  0  0
   35.1017   31.5319   43.3596 H   0  0  0  0  0  0  0  0  0  0  0  0
   39.5733   34.2824   44.9383 H   0  0  0  0  0  0  0  0  0  0  0  0
   41.5733   32.9216   45.6829 H   0  0  0  0  0  0  0  0  0  0  0  0
   41.2838   30.4150   45.9381 H   0  0  0  0  0  0  0  0  0  0  0  0
   30.1404   27.6809   45.2844 H   0  0  0  0  0  0  0  0  0  0  0  0
   28.3831   27.0097   46.6376 H   0  0  0  0  0  0  0  0  0  0  0  0
   26.6604   26.3040   48.2354 H   0  0  0  0  0  0  0  0  0  0  0  0
   27.0335   26.4975   50.6972 H   0  0  0  0  0  0  0  0  0  0  0  0
   29.2284   27.4357   51.4934 H   0  0  0  0  0  0  0  0  0  0  0  0
  1  2  2  0
  2  3  1  0
  4  3  2  0
  5  4  1  0
  6  1  1  0
  6  5  2  0
  7 14  1  0
  7  1  1  0
  8  7  1  0
  9  8  1  0
  9  7  1  0
 10 11  2  0
 11 12  1  0
 13 12  2  0
 14 13  1  0
 15 14  2  0
 15 10  1  0
 16  5  1  0
 16 20  2  0
 17 18  2  0
 17 16  1  0
 18 19  1  0
 19 20  1  0
 19 23  1  0
 22 21  1  0
 22 27  2  0
 23 22  1  0
 24 23  2  0
 24 25  1  0
 25 26  2  0
 26 27  1  0
  2 28  1  0
  3 29  1  0
  4 30  1  0
  8 31  1  0
  8 32  1  0
  9 33  1  0
  9 34  1  0
 10 35  1  0
 11 36  1  0
 12 37  1  0
 18 38  1  0
 24 39  1  0
 25 40  1  0
 26 41  1  0
 27 42  1  0
M  ISO  8  28  14  29  14  30  14  31  13  32  13  33  13  34  13  35  14
M  ISO  7  36  14  37  14  38  14  39  14  40  14  41  14  42  14
M  END
>  <minimizedAffinity>  (1) 
-6.35313511

>  <minimizedRMSD>  (1) 
1.14979887

$$$$
