
     RDKit          3D

 36 38  0  0  0  0  0  0  0  0999 V2000
   37.0980   29.7150   46.1040 F   0  0  0  0  0  0  0  0  0  0  0  0
   36.4510   30.3660   45.0990 C   0  0  0  0  0  0  0  0  0  0  0  0
   37.0620   31.3340   44.3150 C   0  0  0  0  0  0  0  0  0  0  0  0
   36.3260   31.9320   43.3300 C   0  0  0  0  0  0  0  0  0  0  0  0
   35.0090   31.6380   43.0550 C   0  0  0  0  0  0  0  0  0  0  0  0
   34.4130   30.6680   43.8460 C   0  0  0  0  0  0  0  0  0  0  0  0
   35.1160   30.0290   44.8640 C   0  0  0  0  0  0  0  0  0  0  0  0
   39.9590   33.1690   45.5700 C   0  0  0  0  0  0  0  0  0  0  0  0
   41.0470   32.4160   45.1420 C   0  0  0  0  0  0  0  0  0  0  0  0
   40.7810   31.2650   44.4130 C   0  0  0  0  0  0  0  0  0  0  0  0
   39.4850   30.9020   44.1380 N   0  0  0  0  0  0  0  0  0  0  0  0
   38.4630   31.6720   44.5800 C   0  0  0  0  0  0  0  0  0  0  0  0
   38.6890   32.8110   45.2980 N   0  0  0  0  0  0  0  0  0  0  0  0
   34.5190   29.0790   45.6340 O   0  0  0  0  0  0  0  0  0  0  0  0
   34.3460   27.8980   47.9190 O   0  0  0  0  0  0  0  0  0  0  0  0
   33.9440   29.2040   47.2080 P   0  0  2  0  0  0  0  0  0  0  0  0
   32.2860   29.3610   47.3650 O   0  0  0  0  0  0  0  0  0  0  0  0
   34.7390   30.4530   48.0390 O   0  0  0  0  0  0  0  0  0  0  0  0
   37.0670   31.8170   48.0180 F   0  0  0  0  0  0  0  0  0  0  0  0
   36.7210   31.0370   49.0960 C   0  0  0  0  0  0  0  0  0  0  0  0
   35.5270   30.3110   49.1560 C   0  0  0  0  0  0  0  0  0  0  0  0
   35.2410   29.5470   50.2700 C   0  0  0  0  0  0  0  0  0  0  0  0
   36.1130   29.4830   51.3330 C   0  0  0  0  0  0  0  0  0  0  0  0
   37.3050   30.2050   51.2770 C   0  0  0  0  0  0  0  0  0  0  0  0
   37.6020   30.9700   50.1720 C   0  0  0  0  0  0  0  0  0  0  0  0
   36.8191   32.6998   42.7157 H   0  0  0  0  0  0  0  0  0  0  0  0
   34.4586   32.1464   42.2496 H   0  0  0  0  0  0  0  0  0  0  0  0
   33.3622   30.3973   43.6656 H   0  0  0  0  0  0  0  0  0  0  0  0
   40.1412   34.0863   46.1492 H   0  0  0  0  0  0  0  0  0  0  0  0
   42.0786   32.7207   45.3722 H   0  0  0  0  0  0  0  0  0  0  0  0
   41.6122   30.6405   44.0537 H   0  0  0  0  0  0  0  0  0  0  0  0
   32.0461   29.3837   48.3252 H   0  0  0  0  0  0  0  0  0  0  0  0
   34.2995   28.9794   50.3086 H   0  0  0  0  0  0  0  0  0  0  0  0
   35.8730   28.8707   52.2148 H   0  0  0  0  0  0  0  0  0  0  0  0
   38.0108   30.1629   52.1196 H   0  0  0  0  0  0  0  0  0  0  0  0
   38.5455   31.5345   50.1387 H   0  0  0  0  0  0  0  0  0  0  0  0
  2  1  1  0
  3 12  1  0
  3  2  2  0
  4  3  1  0
  5  4  2  0
  5  6  1  0
  6  7  2  0
  7  2  1  0
  7 14  1  0
  9  8  2  0
 10  9  1  0
 11 10  2  0
 11 12  1  0
 12 13  2  0
 13  8  1  0
 14 16  1  0
 16 17  1  0
 16 15  2  0
 16 18  1  0
 18 21  1  0
 19 20  1  0
 20 21  2  0
 20 25  1  0
 21 22  1  0
 22 23  2  0
 24 23  1  0
 25 24  2  0
  4 26  1  0
  5 27  1  0
  6 28  1  0
  8 29  1  0
  9 30  1  0
 10 31  1  0
 17 32  1  0
 22 33  1  0
 23 34  1  0
 24 35  1  0
 25 36  1  0
M  ISO  8  26  14  27  14  28  14  29  14  30  14  31  14  32   3  33  14
M  ISO  3  34  14  35  14  36  14
M  END
>  <minimizedAffinity>  (1) 
-6.03108168

>  <minimizedRMSD>  (1) 
2.80345535

$$$$
