
 OpenBabel03272514463D

 39 45  0  0  0  0  0  0  0  0999 V2000
   32.3930   30.6450   42.9470 C   0  0  0  0  0  0  0  0  0  0  0  0
   31.0540   31.1070   43.0220 C   0  0  0  0  0  3  0  0  0  0  0  0
   30.4280   31.0240   44.2410 C   0  0  0  0  0  3  0  0  0  0  0  0
   31.1520   30.5120   45.2410 N   0  0  0  0  0  0  0  0  0  0  0  0
   32.3830   30.0810   45.1970 C   0  0  0  0  0  0  0  0  0  0  0  0
   33.0090   30.1540   44.0140 N   0  0  0  0  0  0  0  0  0  0  0  0
   32.9090   29.5940   46.4030 N   0  0  0  0  0  0  0  0  0  0  0  0
   33.9190   30.2860   46.9970 C   0  0  0  0  0  3  0  0  0  0  0  0
   34.2790   29.6530   48.1630 C   0  0  0  0  0  0  0  0  0  0  0  0
   33.4850   28.5920   48.2550 N   0  0  0  0  0  0  0  0  0  0  0  0
   32.6330   28.5410   47.1720 C   0  0  0  0  0  0  0  0  0  0  0  0
   31.6700   27.5070   46.9480 C   0  0  0  0  0  0  0  0  0  0  0  0
   31.8770   26.4910   45.9990 C   0  0  0  0  0  3  0  0  0  0  0  0
   30.7780   25.6670   45.9810 N   0  0  0  0  0  0  0  0  0  0  0  0
   29.8950   26.1900   46.9320 C   0  0  0  0  0  3  0  0  0  0  0  0
   30.4880   27.2520   47.4480 N   0  0  0  0  0  0  0  0  0  0  0  0
   29.5860   27.6710   48.4280 C   0  0  0  0  0  0  0  0  0  0  0  0
   29.7740   27.0300   49.5870 N   0  0  0  0  0  0  0  0  0  0  0  0
   28.9380   27.2740   50.6330 C   0  0  0  0  0  3  0  0  0  0  0  0
   27.9170   28.1270   50.5850 N   0  0  0  0  0  0  0  0  0  0  0  0
   27.6920   28.7930   49.4400 C   0  0  0  0  0  0  0  0  0  0  0  0
   26.6800   29.6960   49.2510 C   0  0  0  0  0  3  0  0  0  0  0  0
   26.4960   30.3440   48.0610 C   0  0  0  0  0  3  0  0  0  0  0  0
   27.3630   30.0830   47.0000 C   0  0  0  0  0  3  0  0  0  0  0  0
   28.3950   29.1870   47.1290 C   0  0  0  0  0  3  0  0  0  0  0  0
   28.5350   28.5650   48.3420 C   0  0  0  0  0  0  0  0  0  0  0  0
   35.2730   29.8080   49.1960 C   0  0  0  0  0  0  0  0  0  0  0  0
   35.0840   29.1950   50.4360 C   0  0  0  0  0  3  0  0  0  0  0  0
   35.9500   29.2750   51.4950 C   0  0  0  0  0  3  0  0  0  0  0  0
   37.0940   29.9950   51.3740 C   0  0  0  0  0  3  0  0  0  0  0  0
   37.3580   30.6330   50.1880 C   0  0  0  0  0  0  0  0  0  0  0  0
   38.4950   31.3720   50.0970 C   0  0  0  0  0  3  0  0  0  0  0  0
   38.8100   32.0620   48.9530 C   0  0  0  0  0  3  0  0  0  0  0  0
   37.8970   31.9580   47.8960 C   0  0  0  0  0  3  0  0  0  0  0  0
   36.7790   31.2080   48.0390 C   0  0  0  0  0  3  0  0  0  0  0  0
   36.4430   30.5090   49.1670 C   0  0  0  0  0  0  0  0  0  0  0  0
   33.0760   30.7320   41.6820 N   0  0  0  0  0  0  0  0  0  0  0  0
   34.0480   30.4030   41.5980 H   0  0  0  0  0  0  0  0  0  0  0  0
   32.5920   31.1230   40.8600 H   0  0  0  0  0  0  0  0  0  0  0  0
  1  2  2  0  0  0  0
  1  6  1  0  0  0  0
  2  3  1  0  0  0  0
  3  4  2  0  0  0  0
  5  4  1  0  0  0  0
  5  7  1  0  0  0  0
  6  5  2  0  0  0  0
  7  8  1  0  0  0  0
  7 11  1  0  0  0  0
  8  9  2  0  0  0  0
  9 10  1  0  0  0  0
  9 27  1  0  0  0  0
 11 10  2  0  0  0  0
 12 11  1  0  0  0  0
 12 16  1  0  0  0  0
 13 12  2  0  0  0  0
 14 13  1  0  0  0  0
 14 15  2  0  0  0  0
 15 16  1  0  0  0  0
 16 17  1  0  0  0  0
 17 18  1  0  0  0  0
 18 19  2  0  0  0  0
 20 19  1  0  0  0  0
 21 20  2  0  0  0  0
 22 21  1  0  0  0  0
 23 22  2  0  0  0  0
 24 25  2  0  0  0  0
 24 23  1  0  0  0  0
 25 26  1  0  0  0  0
 26 17  2  0  0  0  0
 26 21  1  0  0  0  0
 27 28  1  0  0  0  0
 28 29  2  0  0  0  0
 30 29  1  0  0  0  0
 31 30  2  0  0  0  0
 32 31  1  0  0  0  0
 33 32  2  0  0  0  0
 34 35  2  0  0  0  0
 34 33  1  0  0  0  0
 35 36  1  0  0  0  0
 36 27  2  0  0  0  0
 36 31  1  0  0  0  0
 37  1  1  0  0  0  0
 38 37  1  0  0  0  0
 39 37  1  0  0  0  0
M  END
>  <minimizedAffinity>
-9.81114197

$$$$

 OpenBabel03272514463D

 39 45  0  0  0  0  0  0  0  0999 V2000
   31.8530   24.4720   45.8150 C   0  0  0  0  0  0  0  0  0  0  0  0
   32.0170   24.5080   44.4070 C   0  0  0  0  0  3  0  0  0  0  0  0
   32.5840   25.6360   43.8680 C   0  0  0  0  0  3  0  0  0  0  0  0
   32.9270   26.5930   44.7360 N   0  0  0  0  0  0  0  0  0  0  0  0
   32.7870   26.5840   46.0330 C   0  0  0  0  0  0  0  0  0  0  0  0
   32.2350   25.4890   46.5750 N   0  0  0  0  0  0  0  0  0  0  0  0
   33.2410   27.7260   46.7100 N   0  0  0  0  0  0  0  0  0  0  0  0
   34.3180   27.6080   47.5330 C   0  0  0  0  0  3  0  0  0  0  0  0
   34.6040   28.8340   48.0850 C   0  0  0  0  0  0  0  0  0  0  0  0
   33.6980   29.6710   47.5900 N   0  0  0  0  0  0  0  0  0  0  0  0
   32.8460   28.9990   46.7380 C   0  0  0  0  0  0  0  0  0  0  0  0
   31.7390   29.6000   46.0610 C   0  0  0  0  0  0  0  0  0  0  0  0
   31.8560   30.8320   45.3940 C   0  0  0  0  0  3  0  0  0  0  0  0
   30.6330   31.1730   44.8690 N   0  0  0  0  0  0  0  0  0  0  0  0
   29.7650   30.1340   45.2230 C   0  0  0  0  0  3  0  0  0  0  0  0
   30.4850   29.2630   45.9080 N   0  0  0  0  0  0  0  0  0  0  0  0
   29.5750   28.2340   46.1600 C   0  0  0  0  0  0  0  0  0  0  0  0
   29.5180   27.3590   45.1490 N   0  0  0  0  0  0  0  0  0  0  0  0
   28.6350   26.3250   45.2050 C   0  0  0  0  0  3  0  0  0  0  0  0
   27.7990   26.1160   46.2200 N   0  0  0  0  0  0  0  0  0  0  0  0
   27.8230   26.9700   47.2560 C   0  0  0  0  0  0  0  0  0  0  0  0
   27.0190   26.8760   48.3620 C   0  0  0  0  0  3  0  0  0  0  0  0
   27.0860   27.7770   49.3880 C   0  0  0  0  0  3  0  0  0  0  0  0
   27.9980   28.8290   49.3150 C   0  0  0  0  0  3  0  0  0  0  0  0
   28.8280   28.9770   48.2320 C   0  0  0  0  0  3  0  0  0  0  0  0
   28.7220   28.0470   47.2310 C   0  0  0  0  0  0  0  0  0  0  0  0
   35.5300   29.3800   49.0460 C   0  0  0  0  0  0  0  0  0  0  0  0
   35.3960   29.0580   50.3970 C   0  0  0  0  0  3  0  0  0  0  0  0
   36.2050   29.5190   51.4020 C   0  0  0  0  0  3  0  0  0  0  0  0
   37.2320   30.3560   51.1060 C   0  0  0  0  0  3  0  0  0  0  0  0
   37.4350   30.7280   49.8010 C   0  0  0  0  0  0  0  0  0  0  0  0
   38.4500   31.5890   49.5290 C   0  0  0  0  0  3  0  0  0  0  0  0
   38.6940   32.0270   48.2520 C   0  0  0  0  0  3  0  0  0  0  0  0
   37.8410   31.5370   47.2550 C   0  0  0  0  0  3  0  0  0  0  0  0
   36.8450   30.6800   47.5800 C   0  0  0  0  0  3  0  0  0  0  0  0
   36.5820   30.2250   48.8440 C   0  0  0  0  0  0  0  0  0  0  0  0
   31.2720   23.2940   46.4060 N   0  0  0  0  0  0  0  0  0  0  0  0
   31.1410   23.2410   47.4260 H   0  0  0  0  0  0  0  0  0  0  0  0
   30.9860   22.5050   45.8080 H   0  0  0  0  0  0  0  0  0  0  0  0
  1 37  1  0  0  0  0
  1  6  1  0  0  0  0
  2  1  2  0  0  0  0
  3  2  1  0  0  0  0
  3  4  2  0  0  0  0
  4  5  1  0  0  0  0
  5  6  2  0  0  0  0
  5  7  1  0  0  0  0
  7 11  1  0  0  0  0
  7  8  1  0  0  0  0
  8  9  2  0  0  0  0
  9 27  1  0  0  0  0
 10  9  1  0  0  0  0
 11 10  2  0  0  0  0
 12 11  1  0  0  0  0
 13 12  2  0  0  0  0
 14 15  2  0  0  0  0
 14 13  1  0  0  0  0
 15 16  1  0  0  0  0
 16 12  1  0  0  0  0
 16 17  1  0  0  0  0
 17 26  1  0  0  0  0
 18 19  1  0  0  0  0
 18 17  2  0  0  0  0
 19 20  2  0  0  0  0
 20 21  1  0  0  0  0
 21 22  1  0  0  0  0
 22 23  2  0  0  0  0
 24 23  1  0  0  0  0
 25 24  2  0  0  0  0
 26 21  2  0  0  0  0
 26 25  1  0  0  0  0
 27 28  1  0  0  0  0
 28 29  2  0  0  0  0
 30 29  1  0  0  0  0
 31 30  2  0  0  0  0
 32 31  1  0  0  0  0
 33 32  2  0  0  0  0
 34 35  2  0  0  0  0
 34 33  1  0  0  0  0
 35 36  1  0  0  0  0
 36 27  2  0  0  0  0
 36 31  1  0  0  0  0
 37 38  1  0  0  0  0
 39 37  1  0  0  0  0
M  END
>  <minimizedAffinity>
-8.92806339

$$$$

 OpenBabel03272514463D

 39 45  0  0  0  0  0  0  0  0999 V2000
   30.1190   31.6600   42.7210 C   0  0  0  0  0  0  0  0  0  0  0  0
   28.8810   31.9480   43.3490 C   0  0  0  0  0  3  0  0  0  0  0  0
   28.7500   31.6000   44.6700 C   0  0  0  0  0  3  0  0  0  0  0  0
   29.8150   31.0200   45.2340 N   0  0  0  0  0  0  0  0  0  0  0  0
   30.9630   30.7460   44.6780 C   0  0  0  0  0  0  0  0  0  0  0  0
   31.1070   31.0800   43.3880 N   0  0  0  0  0  0  0  0  0  0  0  0
   31.9180   30.1370   45.5050 N   0  0  0  0  0  0  0  0  0  0  0  0
   33.0410   30.8360   45.8270 C   0  0  0  0  0  3  0  0  0  0  0  0
   33.8330   30.0700   46.6480 C   0  0  0  0  0  0  0  0  0  0  0  0
   33.1820   28.9230   46.8080 N   0  0  0  0  0  0  0  0  0  0  0  0
   31.9950   28.9490   46.1060 C   0  0  0  0  0  0  0  0  0  0  0  0
   31.0690   27.8600   46.0420 C   0  0  0  0  0  0  0  0  0  0  0  0
   31.0780   26.9380   44.9830 C   0  0  0  0  0  3  0  0  0  0  0  0
   30.0630   26.0310   45.1720 N   0  0  0  0  0  0  0  0  0  0  0  0
   29.4320   26.4100   46.3610 C   0  0  0  0  0  3  0  0  0  0  0  0
   30.0770   27.4760   46.8040 N   0  0  0  0  0  0  0  0  0  0  0  0
   29.4400   27.7460   48.0160 C   0  0  0  0  0  0  0  0  0  0  0  0
   29.9630   27.0390   49.0240 N   0  0  0  0  0  0  0  0  0  0  0  0
   29.4180   27.1370   50.2670 C   0  0  0  0  0  3  0  0  0  0  0  0
   28.3720   27.9070   50.5620 N   0  0  0  0  0  0  0  0  0  0  0  0
   27.8160   28.6350   49.5790 C   0  0  0  0  0  0  0  0  0  0  0  0
   26.7390   29.4660   49.7400 C   0  0  0  0  0  3  0  0  0  0  0  0
   26.2130   30.1830   48.7020 C   0  0  0  0  0  3  0  0  0  0  0  0
   26.7840   30.0710   47.4350 C   0  0  0  0  0  3  0  0  0  0  0  0
   27.8640   29.2540   47.2120 C   0  0  0  0  0  3  0  0  0  0  0  0
   28.3540   28.5580   48.2860 C   0  0  0  0  0  0  0  0  0  0  0  0
   35.1280   30.1700   47.2740 C   0  0  0  0  0  0  0  0  0  0  0  0
   36.2410   30.5250   46.5100 C   0  0  0  0  0  3  0  0  0  0  0  0
   37.5200   30.6440   46.9870 C   0  0  0  0  0  3  0  0  0  0  0  0
   37.7710   30.4080   48.3010 C   0  0  0  0  0  3  0  0  0  0  0  0
   36.7330   30.0500   49.1240 C   0  0  0  0  0  0  0  0  0  0  0  0
   37.0100   29.7910   50.4300 C   0  0  0  0  0  3  0  0  0  0  0  0
   36.0290   29.4000   51.3050 C   0  0  0  0  0  3  0  0  0  0  0  0
   34.7370   29.2850   50.7760 C   0  0  0  0  0  3  0  0  0  0  0  0
   34.5150   29.5560   49.4680 C   0  0  0  0  0  3  0  0  0  0  0  0
   35.4750   29.9500   48.5750 C   0  0  0  0  0  0  0  0  0  0  0  0
   30.2860   32.0270   41.3370 N   0  0  0  0  0  0  0  0  0  0  0  0
   31.1740   31.8300   40.8560 H   0  0  0  0  0  0  0  0  0  0  0  0
   29.5160   32.4860   40.8290 H   0  0  0  0  0  0  0  0  0  0  0  0
  1  2  2  0  0  0  0
  1  6  1  0  0  0  0
  2  3  1  0  0  0  0
  3  4  2  0  0  0  0
  5  4  1  0  0  0  0
  5  7  1  0  0  0  0
  6  5  2  0  0  0  0
  7  8  1  0  0  0  0
  7 11  1  0  0  0  0
  8  9  2  0  0  0  0
  9 10  1  0  0  0  0
  9 27  1  0  0  0  0
 11 10  2  0  0  0  0
 12 11  1  0  0  0  0
 12 16  1  0  0  0  0
 13 14  1  0  0  0  0
 13 12  2  0  0  0  0
 14 15  2  0  0  0  0
 15 16  1  0  0  0  0
 16 17  1  0  0  0  0
 17 26  2  0  0  0  0
 17 18  1  0  0  0  0
 18 19  2  0  0  0  0
 19 20  1  0  0  0  0
 21 22  1  0  0  0  0
 21 20  2  0  0  0  0
 23 22  2  0  0  0  0
 24 23  1  0  0  0  0
 25 24  2  0  0  0  0
 25 26  1  0  0  0  0
 26 21  1  0  0  0  0
 27 36  1  0  0  0  0
 28 29  1  0  0  0  0
 28 27  2  0  0  0  0
 29 30  2  0  0  0  0
 30 31  1  0  0  0  0
 31 32  1  0  0  0  0
 32 33  2  0  0  0  0
 34 33  1  0  0  0  0
 35 34  2  0  0  0  0
 36 31  2  0  0  0  0
 36 35  1  0  0  0  0
 37  1  1  0  0  0  0
 38 37  1  0  0  0  0
 39 37  1  0  0  0  0
M  END
>  <minimizedAffinity>
-8.85316563

$$$$

 OpenBabel03272514463D

 39 45  0  0  0  0  0  0  0  0999 V2000
   29.3800   27.8310   47.6790 C   0  0  0  0  0  0  0  0  0  0  0  0
   29.2490   26.5310   47.1280 C   0  0  0  0  0  3  0  0  0  0  0  0
   30.3080   26.0470   46.4000 C   0  0  0  0  0  3  0  0  0  0  0  0
   31.3640   26.8590   46.2870 N   0  0  0  0  0  0  0  0  0  0  0  0
   31.5080   28.0570   46.7850 C   0  0  0  0  0  0  0  0  0  0  0  0
   30.4830   28.5440   47.4980 N   0  0  0  0  0  0  0  0  0  0  0  0
   32.7300   28.6920   46.5180 N   0  0  0  0  0  0  0  0  0  0  0  0
   33.5810   28.9270   47.5540 C   0  0  0  0  0  3  0  0  0  0  0  0
   34.7150   29.5410   47.0800 C   0  0  0  0  0  0  0  0  0  0  0  0
   34.5320   29.6710   45.7700 N   0  0  0  0  0  0  0  0  0  0  0  0
   33.3080   29.1510   45.4070 C   0  0  0  0  0  0  0  0  0  0  0  0
   32.7880   29.1580   44.0740 C   0  0  0  0  0  0  0  0  0  0  0  0
   32.7900   28.0060   43.2700 C   0  0  0  0  0  3  0  0  0  0  0  0
   32.2640   28.3200   42.0400 N   0  0  0  0  0  0  0  0  0  0  0  0
   31.9390   29.6790   42.1020 C   0  0  0  0  0  3  0  0  0  0  0  0
   32.2710   30.0880   43.3140 N   0  0  0  0  0  0  0  0  0  0  0  0
   31.8530   31.4210   43.3210 C   0  0  0  0  0  0  0  0  0  0  0  0
   30.5630   31.5390   43.6570 N   0  0  0  0  0  0  0  0  0  0  0  0
   29.9780   32.7670   43.6530 C   0  0  0  0  0  3  0  0  0  0  0  0
   30.6130   33.8920   43.3280 N   0  0  0  0  0  0  0  0  0  0  0  0
   31.9090   33.8190   42.9840 C   0  0  0  0  0  0  0  0  0  0  0  0
   32.6810   34.8930   42.6260 C   0  0  0  0  0  3  0  0  0  0  0  0
   33.9970   34.7600   42.2830 C   0  0  0  0  0  3  0  0  0  0  0  0
   34.5810   33.4940   42.2940 C   0  0  0  0  0  3  0  0  0  0  0  0
   33.8580   32.3800   42.6420 C   0  0  0  0  0  3  0  0  0  0  0  0
   32.5440   32.5680   42.9780 C   0  0  0  0  0  0  0  0  0  0  0  0
   35.9300   30.0990   47.6210 C   0  0  0  0  0  0  0  0  0  0  0  0
   36.8370   30.7360   46.7730 C   0  0  0  0  0  3  0  0  0  0  0  0
   38.0250   31.2950   47.1650 C   0  0  0  0  0  3  0  0  0  0  0  0
   38.3880   31.2500   48.4730 C   0  0  0  0  0  3  0  0  0  0  0  0
   37.5550   30.6380   49.3760 C   0  0  0  0  0  0  0  0  0  0  0  0
   37.9510   30.5780   50.6750 C   0  0  0  0  0  3  0  0  0  0  0  0
   37.1840   29.9570   51.6280 C   0  0  0  0  0  3  0  0  0  0  0  0
   35.9800   29.3940   51.1850 C   0  0  0  0  0  3  0  0  0  0  0  0
   35.6330   29.4830   49.8790 C   0  0  0  0  0  3  0  0  0  0  0  0
   36.3780   30.0990   48.9090 C   0  0  0  0  0  0  0  0  0  0  0  0
   28.2870   28.3570   48.4570 N   0  0  0  0  0  0  0  0  0  0  0  0
   28.3550   29.2980   48.8690 H   0  0  0  0  0  0  0  0  0  0  0  0
   27.4380   27.7910   48.6000 H   0  0  0  0  0  0  0  0  0  0  0  0
  1 37  1  0  0  0  0
  2  1  2  0  0  0  0
  3  2  1  0  0  0  0
  4  3  2  0  0  0  0
  4  5  1  0  0  0  0
  5  6  2  0  0  0  0
  6  1  1  0  0  0  0
  7  5  1  0  0  0  0
  7  8  1  0  0  0  0
  9  8  2  0  0  0  0
  9 27  1  0  0  0  0
 10  9  1  0  0  0  0
 11 10  2  0  0  0  0
 11  7  1  0  0  0  0
 12 11  1  0  0  0  0
 13 12  2  0  0  0  0
 14 15  2  0  0  0  0
 14 13  1  0  0  0  0
 15 16  1  0  0  0  0
 16 17  1  0  0  0  0
 16 12  1  0  0  0  0
 17 18  1  0  0  0  0
 19 18  2  0  0  0  0
 20 19  1  0  0  0  0
 21 20  2  0  0  0  0
 22 21  1  0  0  0  0
 23 24  1  0  0  0  0
 23 22  2  0  0  0  0
 24 25  2  0  0  0  0
 25 26  1  0  0  0  0
 26 21  1  0  0  0  0
 26 17  2  0  0  0  0
 27 36  1  0  0  0  0
 28 29  1  0  0  0  0
 28 27  2  0  0  0  0
 29 30  2  0  0  0  0
 30 31  1  0  0  0  0
 31 32  1  0  0  0  0
 32 33  2  0  0  0  0
 34 33  1  0  0  0  0
 35 34  2  0  0  0  0
 36 31  2  0  0  0  0
 36 35  1  0  0  0  0
 37 39  1  0  0  0  0
 37 38  1  0  0  0  0
M  END
>  <minimizedAffinity>
-8.43996716

$$$$

 OpenBabel03272514463D

 39 45  0  0  0  0  0  0  0  0999 V2000
   29.2430   27.0080   47.3700 C   0  0  0  0  0  0  0  0  0  0  0  0
   29.3610   25.9240   46.4640 C   0  0  0  0  0  3  0  0  0  0  0  0
   30.5870   25.7240   45.8800 C   0  0  0  0  0  3  0  0  0  0  0  0
   31.5520   26.5790   46.2300 N   0  0  0  0  0  0  0  0  0  0  0  0
   31.4690   27.5820   47.0610 C   0  0  0  0  0  0  0  0  0  0  0  0
   30.2780   27.7920   47.6400 N   0  0  0  0  0  0  0  0  0  0  0  0
   32.6450   28.3220   47.2540 N   0  0  0  0  0  0  0  0  0  0  0  0
   33.2470   28.2780   48.4740 C   0  0  0  0  0  3  0  0  0  0  0  0
   34.3800   29.0550   48.4490 C   0  0  0  0  0  0  0  0  0  0  0  0
   34.4450   29.5570   47.2200 N   0  0  0  0  0  0  0  0  0  0  0  0
   33.3760   29.1130   46.4690 C   0  0  0  0  0  0  0  0  0  0  0  0
   33.1300   29.4900   45.1110 C   0  0  0  0  0  0  0  0  0  0  0  0
   31.8320   29.7320   44.6310 C   0  0  0  0  0  3  0  0  0  0  0  0
   31.9010   30.0400   43.2940 N   0  0  0  0  0  0  0  0  0  0  0  0
   33.2580   29.9830   42.9610 C   0  0  0  0  0  3  0  0  0  0  0  0
   33.9020   29.6620   44.0700 N   0  0  0  0  0  0  0  0  0  0  0  0
   35.2420   29.6960   43.6760 C   0  0  0  0  0  0  0  0  0  0  0  0
   35.7560   30.9280   43.7610 N   0  0  0  0  0  0  0  0  0  0  0  0
   37.0360   31.1510   43.3560 C   0  0  0  0  0  3  0  0  0  0  0  0
   37.8360   30.2050   42.8660 N   0  0  0  0  0  0  0  0  0  0  0  0
   37.3590   28.9540   42.7640 C   0  0  0  0  0  0  0  0  0  0  0  0
   38.0700   27.8880   42.2780 C   0  0  0  0  0  3  0  0  0  0  0  0
   37.5330   26.6340   42.1950 C   0  0  0  0  0  3  0  0  0  0  0  0
   36.2200   26.4230   42.6150 C   0  0  0  0  0  3  0  0  0  0  0  0
   35.4580   27.4520   43.1100 C   0  0  0  0  0  3  0  0  0  0  0  0
   36.0440   28.6890   43.1730 C   0  0  0  0  0  0  0  0  0  0  0  0
   35.3990   29.4820   49.3750 C   0  0  0  0  0  0  0  0  0  0  0  0
   35.3500   29.0560   50.7040 C   0  0  0  0  0  3  0  0  0  0  0  0
   36.2520   29.4000   51.6760 C   0  0  0  0  0  3  0  0  0  0  0  0
   37.2930   30.2150   51.3680 C   0  0  0  0  0  3  0  0  0  0  0  0
   37.4160   30.6830   50.0840 C   0  0  0  0  0  0  0  0  0  0  0  0
   38.4490   31.5210   49.8030 C   0  0  0  0  0  3  0  0  0  0  0  0
   38.6190   32.0520   48.5490 C   0  0  0  0  0  3  0  0  0  0  0  0
   37.6720   31.6800   47.5860 C   0  0  0  0  0  3  0  0  0  0  0  0
   36.6630   30.8420   47.9180 C   0  0  0  0  0  3  0  0  0  0  0  0
   36.4730   30.2960   49.1600 C   0  0  0  0  0  0  0  0  0  0  0  0
   27.9700   27.2320   48.0060 N   0  0  0  0  0  0  0  0  0  0  0  0
   27.8550   28.0120   48.6680 H   0  0  0  0  0  0  0  0  0  0  0  0
   27.1730   26.6120   47.7970 H   0  0  0  0  0  0  0  0  0  0  0  0
  1  6  1  0  0  0  0
  1 37  1  0  0  0  0
  2  1  2  0  0  0  0
  3  4  2  0  0  0  0
  3  2  1  0  0  0  0
  4  5  1  0  0  0  0
  5  7  1  0  0  0  0
  5  6  2  0  0  0  0
  7  8  1  0  0  0  0
  9  8  2  0  0  0  0
  9 27  1  0  0  0  0
 10  9  1  0  0  0  0
 11 10  2  0  0  0  0
 11  7  1  0  0  0  0
 12 11  1  0  0  0  0
 13 12  2  0  0  0  0
 14 13  1  0  0  0  0
 15 14  2  0  0  0  0
 15 16  1  0  0  0  0
 16 12  1  0  0  0  0
 17 18  1  0  0  0  0
 17 16  1  0  0  0  0
 19 18  2  0  0  0  0
 20 19  1  0  0  0  0
 21 20  2  0  0  0  0
 21 26  1  0  0  0  0
 22 21  1  0  0  0  0
 23 22  2  0  0  0  0
 23 24  1  0  0  0  0
 24 25  2  0  0  0  0
 25 26  1  0  0  0  0
 26 17  2  0  0  0  0
 27 28  1  0  0  0  0
 28 29  2  0  0  0  0
 30 29  1  0  0  0  0
 31 30  2  0  0  0  0
 32 31  1  0  0  0  0
 33 32  2  0  0  0  0
 34 35  2  0  0  0  0
 34 33  1  0  0  0  0
 35 36  1  0  0  0  0
 36 27  2  0  0  0  0
 36 31  1  0  0  0  0
 37 38  1  0  0  0  0
 39 37  1  0  0  0  0
M  END
>  <minimizedAffinity>
-8.37415695

$$$$

 OpenBabel03272514463D

 39 45  0  0  0  0  0  0  0  0999 V2000
   29.0210   28.1680   47.0280 C   0  0  0  0  0  0  0  0  0  0  0  0
   28.8150   26.8060   46.6920 C   0  0  0  0  0  3  0  0  0  0  0  0
   29.9280   26.0130   46.5680 C   0  0  0  0  0  3  0  0  0  0  0  0
   31.1040   26.6140   46.7790 N   0  0  0  0  0  0  0  0  0  0  0  0
   31.3190   27.8630   47.0890 C   0  0  0  0  0  0  0  0  0  0  0  0
   30.2410   28.6500   47.2140 N   0  0  0  0  0  0  0  0  0  0  0  0
   32.6610   28.2330   47.2620 N   0  0  0  0  0  0  0  0  0  0  0  0
   33.0820   28.5870   48.5060 C   0  0  0  0  0  3  0  0  0  0  0  0
   34.4200   28.8990   48.4610 C   0  0  0  0  0  0  0  0  0  0  0  0
   34.7850   28.7320   47.1940 N   0  0  0  0  0  0  0  0  0  0  0  0
   33.7070   28.3200   46.4390 C   0  0  0  0  0  0  0  0  0  0  0  0
   33.7510   28.0780   45.0300 C   0  0  0  0  0  0  0  0  0  0  0  0
   33.4050   26.8330   44.4790 C   0  0  0  0  0  3  0  0  0  0  0  0
   33.5730   26.8860   43.1170 N   0  0  0  0  0  0  0  0  0  0  0  0
   34.0260   28.1800   42.8400 C   0  0  0  0  0  3  0  0  0  0  0  0
   34.0990   28.8070   44.0010 N   0  0  0  0  0  0  0  0  0  0  0  0
   34.4840   30.0990   43.6370 C   0  0  0  0  0  0  0  0  0  0  0  0
   33.4330   30.8620   43.3150 N   0  0  0  0  0  0  0  0  0  0  0  0
   33.6360   32.1340   42.8770 C   0  0  0  0  0  3  0  0  0  0  0  0
   34.8390   32.6900   42.7400 N   0  0  0  0  0  0  0  0  0  0  0  0
   35.9220   31.9590   43.0520 C   0  0  0  0  0  0  0  0  0  0  0  0
   37.2140   32.4030   42.9570 C   0  0  0  0  0  3  0  0  0  0  0  0
   38.2800   31.6130   43.2860 C   0  0  0  0  0  3  0  0  0  0  0  0
   38.0540   30.3120   43.7350 C   0  0  0  0  0  3  0  0  0  0  0  0
   36.7810   29.8110   43.8500 C   0  0  0  0  0  3  0  0  0  0  0  0
   35.7480   30.6430   43.5070 C   0  0  0  0  0  0  0  0  0  0  0  0
   35.4300   29.3910   49.3650 C   0  0  0  0  0  0  0  0  0  0  0  0
   35.4000   29.0140   50.7080 C   0  0  0  0  0  3  0  0  0  0  0  0
   36.2960   29.4210   51.6620 C   0  0  0  0  0  3  0  0  0  0  0  0
   37.3100   30.2550   51.3180 C   0  0  0  0  0  3  0  0  0  0  0  0
   37.4130   30.6790   50.0170 C   0  0  0  0  0  0  0  0  0  0  0  0
   38.4180   31.5360   49.6990 C   0  0  0  0  0  3  0  0  0  0  0  0
   38.5660   32.0240   48.4250 C   0  0  0  0  0  3  0  0  0  0  0  0
   37.6270   31.5880   47.4810 C   0  0  0  0  0  3  0  0  0  0  0  0
   36.6450   30.7320   47.8510 C   0  0  0  0  0  3  0  0  0  0  0  0
   36.4770   30.2290   49.1130 C   0  0  0  0  0  0  0  0  0  0  0  0
   27.8670   29.0180   47.1760 N   0  0  0  0  0  0  0  0  0  0  0  0
   27.9870   30.0110   47.4190 H   0  0  0  0  0  0  0  0  0  0  0  0
   26.9210   28.6320   47.0380 H   0  0  0  0  0  0  0  0  0  0  0  0
  1 37  1  0  0  0  0
  1  6  1  0  0  0  0
  2  1  2  0  0  0  0
  3  2  1  0  0  0  0
  3  4  2  0  0  0  0
  4  5  1  0  0  0  0
  5  6  2  0  0  0  0
  5  7  1  0  0  0  0
  7  8  1  0  0  0  0
  9  8  2  0  0  0  0
  9 27  1  0  0  0  0
 10  9  1  0  0  0  0
 11 10  2  0  0  0  0
 11  7  1  0  0  0  0
 12 11  1  0  0  0  0
 13 12  2  0  0  0  0
 14 13  1  0  0  0  0
 15 14  2  0  0  0  0
 15 16  1  0  0  0  0
 16 12  1  0  0  0  0
 17 16  1  0  0  0  0
 18 17  2  0  0  0  0
 19 18  1  0  0  0  0
 20 19  2  0  0  0  0
 20 21  1  0  0  0  0
 21 26  1  0  0  0  0
 22 21  2  0  0  0  0
 22 23  1  0  0  0  0
 23 24  2  0  0  0  0
 24 25  1  0  0  0  0
 26 17  1  0  0  0  0
 26 25  2  0  0  0  0
 27 28  1  0  0  0  0
 28 29  2  0  0  0  0
 30 29  1  0  0  0  0
 31 30  2  0  0  0  0
 32 31  1  0  0  0  0
 33 32  2  0  0  0  0
 34 35  2  0  0  0  0
 34 33  1  0  0  0  0
 35 36  1  0  0  0  0
 36 27  2  0  0  0  0
 36 31  1  0  0  0  0
 37 38  1  0  0  0  0
 39 37  1  0  0  0  0
M  END
>  <minimizedAffinity>
-8.31251049

$$$$

 OpenBabel03272514463D

 39 45  0  0  0  0  0  0  0  0999 V2000
   27.9100   28.9670   49.6570 C   0  0  0  0  0  0  0  0  0  0  0  0
   27.3930   27.8550   50.3680 C   0  0  0  0  0  3  0  0  0  0  0  0
   28.2530   26.8160   50.6230 C   0  0  0  0  0  3  0  0  0  0  0  0
   29.5030   26.9630   50.1720 N   0  0  0  0  0  0  0  0  0  0  0  0
   30.0020   27.9760   49.5160 C   0  0  0  0  0  0  0  0  0  0  0  0
   29.1740   28.9980   49.2590 N   0  0  0  0  0  0  0  0  0  0  0  0
   31.3560   27.8750   49.1640 N   0  0  0  0  0  0  0  0  0  0  0  0
   32.2450   28.7230   49.7490 C   0  0  0  0  0  3  0  0  0  0  0  0
   33.5080   28.4520   49.2790 C   0  0  0  0  0  0  0  0  0  0  0  0
   33.3630   27.4500   48.4180 N   0  0  0  0  0  0  0  0  0  0  0  0
   32.0360   27.0820   48.3350 C   0  0  0  0  0  0  0  0  0  0  0  0
   31.5340   26.0540   47.4770 C   0  0  0  0  0  0  0  0  0  0  0  0
   32.1090   24.7730   47.4370 C   0  0  0  0  0  3  0  0  0  0  0  0
   31.4430   24.0140   46.5050 N   0  0  0  0  0  0  0  0  0  0  0  0
   30.4520   24.8470   45.9750 C   0  0  0  0  0  3  0  0  0  0  0  0
   30.5700   26.0090   46.5940 N   0  0  0  0  0  0  0  0  0  0  0  0
   29.5120   26.7530   46.0690 C   0  0  0  0  0  0  0  0  0  0  0  0
   28.3710   26.5400   46.7340 N   0  0  0  0  0  0  0  0  0  0  0  0
   27.2260   27.1410   46.3130 C   0  0  0  0  0  3  0  0  0  0  0  0
   27.1550   27.9490   45.2560 N   0  0  0  0  0  0  0  0  0  0  0  0
   28.2770   28.1910   44.5590 C   0  0  0  0  0  0  0  0  0  0  0  0
   28.3480   28.9980   43.4540 C   0  0  0  0  0  3  0  0  0  0  0  0
   29.5190   29.2070   42.7810 C   0  0  0  0  0  3  0  0  0  0  0  0
   30.6840   28.5830   43.2270 C   0  0  0  0  0  3  0  0  0  0  0  0
   30.6750   27.7630   44.3280 C   0  0  0  0  0  3  0  0  0  0  0  0
   29.4760   27.5870   44.9660 C   0  0  0  0  0  0  0  0  0  0  0  0
   34.8370   28.9900   49.4260 C   0  0  0  0  0  0  0  0  0  0  0  0
   35.4590   28.9670   50.6760 C   0  0  0  0  0  3  0  0  0  0  0  0
   36.7120   29.4540   50.9430 C   0  0  0  0  0  3  0  0  0  0  0  0
   37.4420   30.0100   49.9430 C   0  0  0  0  0  3  0  0  0  0  0  0
   36.9050   30.0770   48.6820 C   0  0  0  0  0  0  0  0  0  0  0  0
   37.6420   30.6630   47.7010 C   0  0  0  0  0  3  0  0  0  0  0  0
   37.1580   30.7910   46.4230 C   0  0  0  0  0  3  0  0  0  0  0  0
   35.8730   30.2860   46.1940 C   0  0  0  0  0  3  0  0  0  0  0  0
   35.1820   29.7110   47.2060 C   0  0  0  0  0  3  0  0  0  0  0  0
   35.6420   29.5670   48.4880 C   0  0  0  0  0  0  0  0  0  0  0  0
   27.0290   30.0750   49.3870 N   0  0  0  0  0  0  0  0  0  0  0  0
   27.3780   30.8960   48.8730 H   0  0  0  0  0  0  0  0  0  0  0  0
   26.0510   30.0460   49.7090 H   0  0  0  0  0  0  0  0  0  0  0  0
  1  2  1  0  0  0  0
  2  3  2  0  0  0  0
  4  3  1  0  0  0  0
  5  4  2  0  0  0  0
  6  5  1  0  0  0  0
  6  1  2  0  0  0  0
  7  5  1  0  0  0  0
  7  8  1  0  0  0  0
  9 27  1  0  0  0  0
  9  8  2  0  0  0  0
 10  9  1  0  0  0  0
 11 10  2  0  0  0  0
 11  7  1  0  0  0  0
 12 11  1  0  0  0  0
 13 12  2  0  0  0  0
 14 13  1  0  0  0  0
 15 14  2  0  0  0  0
 15 16  1  0  0  0  0
 16 12  1  0  0  0  0
 17 16  1  0  0  0  0
 17 18  1  0  0  0  0
 19 18  2  0  0  0  0
 20 19  1  0  0  0  0
 21 26  1  0  0  0  0
 21 20  2  0  0  0  0
 22 21  1  0  0  0  0
 23 24  1  0  0  0  0
 23 22  2  0  0  0  0
 24 25  2  0  0  0  0
 25 26  1  0  0  0  0
 26 17  2  0  0  0  0
 27 28  1  0  0  0  0
 28 29  2  0  0  0  0
 30 29  1  0  0  0  0
 31 30  2  0  0  0  0
 32 31  1  0  0  0  0
 33 32  2  0  0  0  0
 34 33  1  0  0  0  0
 34 35  2  0  0  0  0
 35 36  1  0  0  0  0
 36 31  1  0  0  0  0
 36 27  2  0  0  0  0
 37  1  1  0  0  0  0
 37 39  1  0  0  0  0
 38 37  1  0  0  0  0
M  END
>  <minimizedAffinity>
-8.23065567

$$$$

 OpenBabel03272514463D

 39 45  0  0  0  0  0  0  0  0999 V2000
   31.7110   24.7220   45.7030 C   0  0  0  0  0  0  0  0  0  0  0  0
   31.4860   24.6650   44.3040 C   0  0  0  0  0  3  0  0  0  0  0  0
   31.8040   25.7800   43.5700 C   0  0  0  0  0  3  0  0  0  0  0  0
   32.2990   26.8150   44.2570 N   0  0  0  0  0  0  0  0  0  0  0  0
   32.5150   26.8920   45.5420 C   0  0  0  0  0  0  0  0  0  0  0  0
   32.2090   25.8110   46.2730 N   0  0  0  0  0  0  0  0  0  0  0  0
   33.0510   28.1020   46.0050 N   0  0  0  0  0  0  0  0  0  0  0  0
   34.3160   28.1020   46.5080 C   0  0  0  0  0  3  0  0  0  0  0  0
   34.6520   29.3780   46.8920 C   0  0  0  0  0  0  0  0  0  0  0  0
   33.5880   30.1270   46.6190 N   0  0  0  0  0  0  0  0  0  0  0  0
   32.5890   29.3510   46.0710 C   0  0  0  0  0  0  0  0  0  0  0  0
   31.3000   29.8410   45.6910 C   0  0  0  0  0  0  0  0  0  0  0  0
   31.1390   31.0630   45.0160 C   0  0  0  0  0  3  0  0  0  0  0  0
   29.7990   31.2870   44.8130 N   0  0  0  0  0  0  0  0  0  0  0  0
   29.1410   30.1870   45.3720 C   0  0  0  0  0  3  0  0  0  0  0  0
   30.0820   29.3950   45.8560 N   0  0  0  0  0  0  0  0  0  0  0  0
   29.3570   28.2980   46.3260 C   0  0  0  0  0  0  0  0  0  0  0  0
   29.1270   27.3990   45.3610 N   0  0  0  0  0  0  0  0  0  0  0  0
   28.3800   26.2960   45.6350 C   0  0  0  0  0  3  0  0  0  0  0  0
   27.8430   26.0380   46.8260 N   0  0  0  0  0  0  0  0  0  0  0  0
   28.0490   26.9140   47.8240 C   0  0  0  0  0  0  0  0  0  0  0  0
   27.5570   26.7760   49.0950 C   0  0  0  0  0  3  0  0  0  0  0  0
   27.7960   27.7010   50.0720 C   0  0  0  0  0  3  0  0  0  0  0  0
   28.5660   28.8250   49.7740 C   0  0  0  0  0  3  0  0  0  0  0  0
   29.0850   29.0190   48.5180 C   0  0  0  0  0  3  0  0  0  0  0  0
   28.8150   28.0620   47.5760 C   0  0  0  0  0  0  0  0  0  0  0  0
   35.7610   30.0410   47.5310 C   0  0  0  0  0  0  0  0  0  0  0  0
   36.6290   30.8280   46.7720 C   0  0  0  0  0  3  0  0  0  0  0  0
   37.7190   31.4990   47.2610 C   0  0  0  0  0  3  0  0  0  0  0  0
   38.0170   31.4200   48.5830 C   0  0  0  0  0  3  0  0  0  0  0  0
   37.2180   30.6640   49.4030 C   0  0  0  0  0  0  0  0  0  0  0  0
   37.5500   30.5750   50.7180 C   0  0  0  0  0  3  0  0  0  0  0  0
   36.8140   29.8140   51.5920 C   0  0  0  0  0  3  0  0  0  0  0  0
   35.7120   29.1410   51.0510 C   0  0  0  0  0  3  0  0  0  0  0  0
   35.4250   29.2640   49.7330 C   0  0  0  0  0  3  0  0  0  0  0  0
   36.1390   30.0190   48.8420 C   0  0  0  0  0  0  0  0  0  0  0  0
   31.3960   23.5600   46.4950 N   0  0  0  0  0  0  0  0  0  0  0  0
   31.5490   23.5740   47.5130 H   0  0  0  0  0  0  0  0  0  0  0  0
   31.0170   22.7150   46.0420 H   0  0  0  0  0  0  0  0  0  0  0  0
  1  6  1  0  0  0  0
  1 37  1  0  0  0  0
  2  1  2  0  0  0  0
  3  4  2  0  0  0  0
  3  2  1  0  0  0  0
  4  5  1  0  0  0  0
  5  7  1  0  0  0  0
  5  6  2  0  0  0  0
  7 11  1  0  0  0  0
  7  8  1  0  0  0  0
  8  9  2  0  0  0  0
  9 27  1  0  0  0  0
 10  9  1  0  0  0  0
 11 10  2  0  0  0  0
 12 16  1  0  0  0  0
 12 11  1  0  0  0  0
 13 12  2  0  0  0  0
 14 13  1  0  0  0  0
 14 15  2  0  0  0  0
 15 16  1  0  0  0  0
 16 17  1  0  0  0  0
 17 26  1  0  0  0  0
 18 19  1  0  0  0  0
 18 17  2  0  0  0  0
 19 20  2  0  0  0  0
 20 21  1  0  0  0  0
 21 22  1  0  0  0  0
 22 23  2  0  0  0  0
 24 23  1  0  0  0  0
 25 24  2  0  0  0  0
 26 21  2  0  0  0  0
 26 25  1  0  0  0  0
 27 36  1  0  0  0  0
 28 29  1  0  0  0  0
 28 27  2  0  0  0  0
 29 30  2  0  0  0  0
 30 31  1  0  0  0  0
 31 32  1  0  0  0  0
 32 33  2  0  0  0  0
 34 33  1  0  0  0  0
 35 34  2  0  0  0  0
 36 31  2  0  0  0  0
 36 35  1  0  0  0  0
 37 38  1  0  0  0  0
 39 37  1  0  0  0  0
M  END
>  <minimizedAffinity>
-8.17357159

$$$$

 OpenBabel03272514463D

 39 45  0  0  0  0  0  0  0  0999 V2000
   29.3240   28.2800   47.5690 C   0  0  0  0  0  0  0  0  0  0  0  0
   29.1560   26.9240   47.1920 C   0  0  0  0  0  3  0  0  0  0  0  0
   30.2300   26.2950   46.6120 C   0  0  0  0  0  3  0  0  0  0  0  0
   31.3340   27.0340   46.4630 N   0  0  0  0  0  0  0  0  0  0  0  0
   31.5120   28.2810   46.8010 C   0  0  0  0  0  0  0  0  0  0  0  0
   30.4730   28.9100   47.3690 N   0  0  0  0  0  0  0  0  0  0  0  0
   32.7820   28.8160   46.5350 N   0  0  0  0  0  0  0  0  0  0  0  0
   33.5780   29.1530   47.5860 C   0  0  0  0  0  3  0  0  0  0  0  0
   34.7720   29.6430   47.1120 C   0  0  0  0  0  0  0  0  0  0  0  0
   34.6780   29.5970   45.7880 N   0  0  0  0  0  0  0  0  0  0  0  0
   33.4510   29.0890   45.4150 C   0  0  0  0  0  0  0  0  0  0  0  0
   33.0170   28.9340   44.0610 C   0  0  0  0  0  0  0  0  0  0  0  0
   33.5700   27.9620   43.2100 C   0  0  0  0  0  3  0  0  0  0  0  0
   32.9850   28.0700   41.9710 N   0  0  0  0  0  0  0  0  0  0  0  0
   32.0670   29.1190   42.0750 C   0  0  0  0  0  3  0  0  0  0  0  0
   32.1440   29.5630   43.3180 N   0  0  0  0  0  0  0  0  0  0  0  0
   31.1570   30.5490   43.3610 C   0  0  0  0  0  0  0  0  0  0  0  0
   29.9520   30.0400   43.6420 N   0  0  0  0  0  0  0  0  0  0  0  0
   28.8650   30.8570   43.6620 C   0  0  0  0  0  3  0  0  0  0  0  0
   28.9140   32.1650   43.4140 N   0  0  0  0  0  0  0  0  0  0  0  0
   30.1030   32.7180   43.1280 C   0  0  0  0  0  0  0  0  0  0  0  0
   30.2980   34.0460   42.8520 C   0  0  0  0  0  3  0  0  0  0  0  0
   31.5330   34.5560   42.5650 C   0  0  0  0  0  3  0  0  0  0  0  0
   32.6370   33.7040   42.5500 C   0  0  0  0  0  3  0  0  0  0  0  0
   32.5040   32.3640   42.8170 C   0  0  0  0  0  3  0  0  0  0  0  0
   31.2450   31.9040   43.0990 C   0  0  0  0  0  0  0  0  0  0  0  0
   35.9790   30.2130   47.6550 C   0  0  0  0  0  0  0  0  0  0  0  0
   36.8590   30.9000   46.8160 C   0  0  0  0  0  3  0  0  0  0  0  0
   38.0380   31.4760   47.2110 C   0  0  0  0  0  3  0  0  0  0  0  0
   38.4200   31.3990   48.5110 C   0  0  0  0  0  3  0  0  0  0  0  0
   37.6150   30.7390   49.4050 C   0  0  0  0  0  0  0  0  0  0  0  0
   38.0300   30.6480   50.6970 C   0  0  0  0  0  3  0  0  0  0  0  0
   37.2910   29.9780   51.6390 C   0  0  0  0  0  3  0  0  0  0  0  0
   36.0970   29.3990   51.1940 C   0  0  0  0  0  3  0  0  0  0  0  0
   35.7300   29.5200   49.8960 C   0  0  0  0  0  3  0  0  0  0  0  0
   36.4460   30.1850   48.9370 C   0  0  0  0  0  0  0  0  0  0  0  0
   28.2150   28.9600   48.1900 N   0  0  0  0  0  0  0  0  0  0  0  0
   28.3090   29.9450   48.4740 H   0  0  0  0  0  0  0  0  0  0  0  0
   27.3290   28.4600   48.3500 H   0  0  0  0  0  0  0  0  0  0  0  0
  1 37  1  0  0  0  0
  2  1  2  0  0  0  0
  3  2  1  0  0  0  0
  4  3  2  0  0  0  0
  4  5  1  0  0  0  0
  5  6  2  0  0  0  0
  6  1  1  0  0  0  0
  7  5  1  0  0  0  0
  7  8  1  0  0  0  0
  9  8  2  0  0  0  0
  9 27  1  0  0  0  0
 10  9  1  0  0  0  0
 11 10  2  0  0  0  0
 11  7  1  0  0  0  0
 12 11  1  0  0  0  0
 13 12  2  0  0  0  0
 14 15  2  0  0  0  0
 14 13  1  0  0  0  0
 15 16  1  0  0  0  0
 16 17  1  0  0  0  0
 16 12  1  0  0  0  0
 17 18  1  0  0  0  0
 18 19  2  0  0  0  0
 20 19  1  0  0  0  0
 21 20  2  0  0  0  0
 22 21  1  0  0  0  0
 23 22  2  0  0  0  0
 24 23  1  0  0  0  0
 24 25  2  0  0  0  0
 25 26  1  0  0  0  0
 26 21  1  0  0  0  0
 26 17  2  0  0  0  0
 27 36  1  0  0  0  0
 28 29  1  0  0  0  0
 28 27  2  0  0  0  0
 29 30  2  0  0  0  0
 30 31  1  0  0  0  0
 31 32  1  0  0  0  0
 32 33  2  0  0  0  0
 34 33  1  0  0  0  0
 35 34  2  0  0  0  0
 36 31  2  0  0  0  0
 36 35  1  0  0  0  0
 37 39  1  0  0  0  0
 37 38  1  0  0  0  0
M  END
>  <minimizedAffinity>
-8.13234329

$$$$
