
 OpenBabel03272514443D

 30 34  0  0  0  0  0  0  0  0999 V2000
   32.0230   25.7080   47.3730 C   0  0  0  0  0  3  0  0  0  0  0  0
   33.0940   26.6000   47.5380 C   0  0  0  0  0  3  0  0  0  0  0  0
   32.8690   27.7140   48.3570 C   0  0  0  0  0  0  0  0  0  0  0  0
   31.6560   27.8020   48.8920 N   0  0  0  0  0  0  0  0  0  0  0  0
   30.6190   26.9520   48.7400 C   0  0  0  0  0  0  0  0  0  0  0  0
   30.8480   25.8930   47.9560 N   0  0  0  0  0  0  0  0  0  0  0  0
   33.8840   28.6870   48.5860 N   0  0  0  0  0  0  0  0  0  0  0  0
   34.6300   28.6760   49.6830 C   0  0  0  0  0  3  0  0  0  0  0  0
   35.4860   29.7400   49.5530 C   0  0  0  0  0  0  0  0  0  0  0  0
   35.2400   30.3630   48.3920 N   0  0  0  0  0  0  0  0  0  0  0  0
   34.2280   29.6960   47.7830 C   0  0  0  0  0  0  0  0  0  0  0  0
   33.7050   30.1040   46.5280 N   0  0  0  0  0  0  0  0  0  0  0  0
   34.0400   29.3880   45.2860 C   0  0  0  0  0  2  0  0  0  0  0  0
   32.6050   29.0980   44.8170 C   0  0  0  0  0  2  0  0  0  0  0  0
   31.7690   30.2640   45.3320 C   0  0  0  0  0  2  0  0  0  0  0  0
   32.8340   31.1320   45.9920 C   0  0  0  0  0  2  0  0  0  0  0  0
   29.4390   27.3710   49.4780 C   0  0  0  0  0  0  0  0  0  0  0  0
   29.1720   26.8740   50.7330 C   0  0  0  0  0  3  0  0  0  0  0  0
   28.0720   27.2260   51.4860 C   0  0  0  0  0  3  0  0  0  0  0  0
   27.1530   28.1340   50.9810 C   0  0  0  0  0  3  0  0  0  0  0  0
   27.3800   28.6530   49.7400 C   0  0  0  0  0  0  0  0  0  0  0  0
   26.4670   29.5500   49.2520 C   0  0  0  0  0  3  0  0  0  0  0  0
   26.6280   30.1160   48.0100 C   0  0  0  0  0  3  0  0  0  0  0  0
   27.7580   29.7370   47.2690 C   0  0  0  0  0  3  0  0  0  0  0  0
   28.6470   28.8240   47.8160 C   0  0  0  0  0  3  0  0  0  0  0  0
   28.5040   28.2620   49.0320 C   0  0  0  0  0  0  0  0  0  0  0  0
   36.5450   30.2090   50.4880 C   0  0  0  0  0  0  0  0  0  0  0  0
   36.6590   31.5770   50.5210 F   0  0  0  0  0  0  0  0  0  0  0  0
   37.7860   29.6990   50.1330 F   0  0  0  0  0  0  0  0  0  0  0  0
   36.2980   29.6900   51.7710 F   0  0  0  0  0  0  0  0  0  0  0  0
  1  2  2  0  0  0  0
  1  6  1  0  0  0  0
  2  3  1  0  0  0  0
  3  7  1  0  0  0  0
  3  4  2  0  0  0  0
  5  4  1  0  0  0  0
  5 17  1  0  0  0  0
  6  5  2  0  0  0  0
  7  8  1  0  0  0  0
  9  8  2  0  0  0  0
  9 27  1  0  0  0  0
 10  9  1  0  0  0  0
 11 10  2  0  0  0  0
 11  7  1  0  0  0  0
 12 11  1  0  0  0  0
 13 12  1  0  0  0  0
 14 13  1  0  0  0  0
 14 15  1  0  0  0  0
 15 16  1  0  0  0  0
 16 12  1  0  0  0  0
 17 18  1  0  0  0  0
 18 19  2  0  0  0  0
 20 19  1  0  0  0  0
 21 20  2  0  0  0  0
 22 21  1  0  0  0  0
 23 22  2  0  0  0  0
 24 25  2  0  0  0  0
 24 23  1  0  0  0  0
 25 26  1  0  0  0  0
 26 17  2  0  0  0  0
 26 21  1  0  0  0  0
 27 28  1  0  0  0  0
 27 30  1  0  0  0  0
 29 27  1  0  0  0  0
M  END
>  <minimizedAffinity>
-8.58412552

$$$$

 OpenBabel03272514443D

 30 34  0  0  0  0  0  0  0  0999 V2000
   34.0150   29.4080   45.2270 C   0  0  0  0  0  3  0  0  0  0  0  0
   32.7930   28.7520   45.4450 C   0  0  0  0  0  3  0  0  0  0  0  0
   32.4890   28.4050   46.7680 C   0  0  0  0  0  0  0  0  0  0  0  0
   33.4000   28.7390   47.6770 N   0  0  0  0  0  0  0  0  0  0  0  0
   34.5760   29.3670   47.4780 C   0  0  0  0  0  0  0  0  0  0  0  0
   34.8530   29.6930   46.2110 N   0  0  0  0  0  0  0  0  0  0  0  0
   31.2800   27.7290   47.1010 N   0  0  0  0  0  0  0  0  0  0  0  0
   30.2230   28.3780   47.5720 C   0  0  0  0  0  3  0  0  0  0  0  0
   29.2630   27.4160   47.7690 C   0  0  0  0  0  0  0  0  0  0  0  0
   29.7590   26.2220   47.4170 N   0  0  0  0  0  0  0  0  0  0  0  0
   31.0330   26.4220   46.9950 C   0  0  0  0  0  0  0  0  0  0  0  0
   31.8590   25.3530   46.5600 N   0  0  0  0  0  0  0  0  0  0  0  0
   32.1240   25.1200   45.1310 C   0  0  0  0  0  2  0  0  0  0  0  0
   33.6600   25.1370   45.1970 C   0  0  0  0  0  2  0  0  0  0  0  0
   34.0100   24.5950   46.5780 C   0  0  0  0  0  2  0  0  0  0  0  0
   32.6290   24.2660   47.1330 C   0  0  0  0  0  2  0  0  0  0  0  0
   35.3190   29.5680   48.7120 C   0  0  0  0  0  0  0  0  0  0  0  0
   34.9370   28.9490   49.8800 C   0  0  0  0  0  3  0  0  0  0  0  0
   35.5940   29.0970   51.0830 C   0  0  0  0  0  3  0  0  0  0  0  0
   36.7130   29.9120   51.1620 C   0  0  0  0  0  3  0  0  0  0  0  0
   37.1270   30.5430   50.0270 C   0  0  0  0  0  0  0  0  0  0  0  0
   38.2350   31.3460   50.1160 C   0  0  0  0  0  3  0  0  0  0  0  0
   38.7130   32.0140   49.0150 C   0  0  0  0  0  3  0  0  0  0  0  0
   38.0210   31.8430   47.8050 C   0  0  0  0  0  3  0  0  0  0  0  0
   36.9070   31.0180   47.7770 C   0  0  0  0  0  3  0  0  0  0  0  0
   36.4270   30.3550   48.8480 C   0  0  0  0  0  0  0  0  0  0  0  0
   27.8760   27.5710   48.2840 C   0  0  0  0  0  0  0  0  0  0  0  0
   27.6440   28.8120   48.8260 F   0  0  0  0  0  0  0  0  0  0  0  0
   27.6020   26.6320   49.2690 F   0  0  0  0  0  0  0  0  0  0  0  0
   26.9610   27.2890   47.2550 F   0  0  0  0  0  0  0  0  0  0  0  0
  1  2  2  0  0  0  0
  1  6  1  0  0  0  0
  2  3  1  0  0  0  0
  3  7  1  0  0  0  0
  3  4  2  0  0  0  0
  5  4  1  0  0  0  0
  5 17  1  0  0  0  0
  6  5  2  0  0  0  0
  7  8  1  0  0  0  0
  8  9  2  0  0  0  0
  9 27  1  0  0  0  0
 10  9  1  0  0  0  0
 11  7  1  0  0  0  0
 11 10  2  0  0  0  0
 12 11  1  0  0  0  0
 12 16  1  0  0  0  0
 13 14  1  0  0  0  0
 13 12  1  0  0  0  0
 14 15  1  0  0  0  0
 15 16  1  0  0  0  0
 17 26  2  0  0  0  0
 17 18  1  0  0  0  0
 18 19  2  0  0  0  0
 19 20  1  0  0  0  0
 21 22  1  0  0  0  0
 21 20  2  0  0  0  0
 23 22  2  0  0  0  0
 24 23  1  0  0  0  0
 25 24  2  0  0  0  0
 25 26  1  0  0  0  0
 26 21  1  0  0  0  0
 27 28  1  0  0  0  0
 27 29  1  0  0  0  0
 30 27  1  0  0  0  0
M  END
>  <minimizedAffinity>
-8.05752277

$$$$

 OpenBabel03272514443D

 30 34  0  0  0  0  0  0  0  0999 V2000
   31.8840   25.7250   47.0210 C   0  0  0  0  0  3  0  0  0  0  0  0
   33.0210   26.5300   47.2030 C   0  0  0  0  0  3  0  0  0  0  0  0
   32.8040   27.8330   47.6710 C   0  0  0  0  0  0  0  0  0  0  0  0
   31.5360   28.1640   47.8920 N   0  0  0  0  0  0  0  0  0  0  0  0
   30.4380   27.4000   47.7200 C   0  0  0  0  0  0  0  0  0  0  0  0
   30.6590   26.1580   47.2740 N   0  0  0  0  0  0  0  0  0  0  0  0
   33.8840   28.7360   47.8820 N   0  0  0  0  0  0  0  0  0  0  0  0
   34.4000   28.9420   49.0870 C   0  0  0  0  0  3  0  0  0  0  0  0
   35.4070   29.8560   48.9020 C   0  0  0  0  0  0  0  0  0  0  0  0
   35.4760   30.1780   47.6030 N   0  0  0  0  0  0  0  0  0  0  0  0
   34.5130   29.4700   46.9600 C   0  0  0  0  0  0  0  0  0  0  0  0
   34.2990   29.5860   45.5620 N   0  0  0  0  0  0  0  0  0  0  0  0
   34.7600   28.5480   44.6260 C   0  0  0  0  0  2  0  0  0  0  0  0
   33.4130   28.2770   43.9350 C   0  0  0  0  0  2  0  0  0  0  0  0
   32.6670   29.6050   43.9690 C   0  0  0  0  0  2  0  0  0  0  0  0
   33.7000   30.5150   44.6240 C   0  0  0  0  0  2  0  0  0  0  0  0
   29.2100   28.0990   48.0640 C   0  0  0  0  0  0  0  0  0  0  0  0
   28.6570   29.0250   47.2100 C   0  0  0  0  0  3  0  0  0  0  0  0
   27.4980   29.7240   47.4750 C   0  0  0  0  0  3  0  0  0  0  0  0
   26.8200   29.5080   48.6660 C   0  0  0  0  0  3  0  0  0  0  0  0
   27.3330   28.5970   49.5400 C   0  0  0  0  0  0  0  0  0  0  0  0
   26.6540   28.3920   50.7130 C   0  0  0  0  0  3  0  0  0  0  0  0
   27.1100   27.4890   51.6440 C   0  0  0  0  0  3  0  0  0  0  0  0
   28.2930   26.7940   51.3440 C   0  0  0  0  0  3  0  0  0  0  0  0
   28.9360   27.0450   50.1410 C   0  0  0  0  0  3  0  0  0  0  0  0
   28.5000   27.9260   49.2190 C   0  0  0  0  0  0  0  0  0  0  0  0
   36.3250   30.4520   49.9100 C   0  0  0  0  0  0  0  0  0  0  0  0
   36.1640   31.8100   50.0400 F   0  0  0  0  0  0  0  0  0  0  0  0
   37.6520   30.2240   49.5740 F   0  0  0  0  0  0  0  0  0  0  0  0
   36.1510   29.8010   51.1440 F   0  0  0  0  0  0  0  0  0  0  0  0
  1  2  2  0  0  0  0
  1  6  1  0  0  0  0
  2  3  1  0  0  0  0
  3  7  1  0  0  0  0
  3  4  2  0  0  0  0
  5  4  1  0  0  0  0
  5 17  1  0  0  0  0
  6  5  2  0  0  0  0
  7  8  1  0  0  0  0
  9  8  2  0  0  0  0
  9 27  1  0  0  0  0
 10  9  1  0  0  0  0
 11 10  2  0  0  0  0
 11  7  1  0  0  0  0
 12 11  1  0  0  0  0
 13 12  1  0  0  0  0
 14 15  1  0  0  0  0
 14 13  1  0  0  0  0
 15 16  1  0  0  0  0
 16 12  1  0  0  0  0
 17 26  1  0  0  0  0
 18 19  1  0  0  0  0
 18 17  2  0  0  0  0
 19 20  2  0  0  0  0
 20 21  1  0  0  0  0
 21 22  1  0  0  0  0
 22 23  2  0  0  0  0
 24 23  1  0  0  0  0
 25 24  2  0  0  0  0
 26 21  2  0  0  0  0
 26 25  1  0  0  0  0
 27 28  1  0  0  0  0
 27 30  1  0  0  0  0
 29 27  1  0  0  0  0
M  END
>  <minimizedAffinity>
-7.65193605

$$$$

 OpenBabel03272514443D

 30 34  0  0  0  0  0  0  0  0999 V2000
   33.4690   29.4270   44.4380 C   0  0  0  0  0  3  0  0  0  0  0  0
   32.5240   28.6770   45.1570 C   0  0  0  0  0  3  0  0  0  0  0  0
   32.7910   28.4570   46.5140 C   0  0  0  0  0  0  0  0  0  0  0  0
   33.9190   28.9890   46.9750 N   0  0  0  0  0  0  0  0  0  0  0  0
   34.8330   29.7100   46.2940 C   0  0  0  0  0  0  0  0  0  0  0  0
   34.5660   29.9120   44.9990 N   0  0  0  0  0  0  0  0  0  0  0  0
   31.9040   27.7030   47.3340 N   0  0  0  0  0  0  0  0  0  0  0  0
   31.0200   28.2880   48.1320 C   0  0  0  0  0  3  0  0  0  0  0  0
   30.3510   27.2610   48.7510 C   0  0  0  0  0  0  0  0  0  0  0  0
   30.8420   26.0920   48.3170 N   0  0  0  0  0  0  0  0  0  0  0  0
   31.8230   26.3730   47.4220 C   0  0  0  0  0  0  0  0  0  0  0  0
   32.5680   25.3530   46.7750 N   0  0  0  0  0  0  0  0  0  0  0  0
   32.3080   24.9830   45.3740 C   0  0  0  0  0  2  0  0  0  0  0  0
   33.7380   25.1680   44.8400 C   0  0  0  0  0  2  0  0  0  0  0  0
   34.6530   24.8320   46.0110 C   0  0  0  0  0  2  0  0  0  0  0  0
   33.6420   24.4280   47.0790 C   0  0  0  0  0  2  0  0  0  0  0  0
   35.9490   30.1300   47.1270 C   0  0  0  0  0  0  0  0  0  0  0  0
   37.0360   30.7770   46.5860 C   0  0  0  0  0  3  0  0  0  0  0  0
   38.1260   31.1990   47.3180 C   0  0  0  0  0  3  0  0  0  0  0  0
   38.1660   30.9770   48.6860 C   0  0  0  0  0  3  0  0  0  0  0  0
   37.1070   30.3400   49.2640 C   0  0  0  0  0  0  0  0  0  0  0  0
   37.1580   30.1270   50.6160 C   0  0  0  0  0  3  0  0  0  0  0  0
   36.1280   29.4920   51.2690 C   0  0  0  0  0  3  0  0  0  0  0  0
   35.0330   29.0740   50.4960 C   0  0  0  0  0  3  0  0  0  0  0  0
   35.0400   29.3180   49.1310 C   0  0  0  0  0  3  0  0  0  0  0  0
   36.0410   29.9400   48.4770 C   0  0  0  0  0  0  0  0  0  0  0  0
   29.2520   27.3300   49.7510 C   0  0  0  0  0  0  0  0  0  0  0  0
   29.4870   26.5480   50.8560 F   0  0  0  0  0  0  0  0  0  0  0  0
   28.0490   26.9140   49.1990 F   0  0  0  0  0  0  0  0  0  0  0  0
   29.0350   28.6700   50.1160 F   0  0  0  0  0  0  0  0  0  0  0  0
  1  6  2  0  0  0  0
  1  2  1  0  0  0  0
  2  3  2  0  0  0  0
  3  4  1  0  0  0  0
  3  7  1  0  0  0  0
  5  4  2  0  0  0  0
  5 17  1  0  0  0  0
  6  5  1  0  0  0  0
  7 11  1  0  0  0  0
  7  8  1  0  0  0  0
  8  9  2  0  0  0  0
  9 27  1  0  0  0  0
 10  9  1  0  0  0  0
 11 10  2  0  0  0  0
 12 16  1  0  0  0  0
 12 11  1  0  0  0  0
 13 12  1  0  0  0  0
 14 13  1  0  0  0  0
 14 15  1  0  0  0  0
 15 16  1  0  0  0  0
 17 26  1  0  0  0  0
 18 17  2  0  0  0  0
 18 19  1  0  0  0  0
 19 20  2  0  0  0  0
 20 21  1  0  0  0  0
 21 22  1  0  0  0  0
 22 23  2  0  0  0  0
 24 23  1  0  0  0  0
 25 24  2  0  0  0  0
 26 25  1  0  0  0  0
 26 21  2  0  0  0  0
 27 30  1  0  0  0  0
 27 28  1  0  0  0  0
 29 27  1  0  0  0  0
M  END
>  <minimizedAffinity>
-7.58537388

$$$$

 OpenBabel03272514443D

 30 34  0  0  0  0  0  0  0  0999 V2000
   38.7680   29.7860   43.9700 C   0  0  0  0  0  3  0  0  0  0  0  0
   37.7090   30.3260   43.2230 C   0  0  0  0  0  3  0  0  0  0  0  0
   36.9120   31.2870   43.8590 C   0  0  0  0  0  0  0  0  0  0  0  0
   37.2520   31.5840   45.1100 N   0  0  0  0  0  0  0  0  0  0  0  0
   38.2660   31.0710   45.8360 C   0  0  0  0  0  0  0  0  0  0  0  0
   39.0180   30.1550   45.2170 N   0  0  0  0  0  0  0  0  0  0  0  0
   35.8070   31.8930   43.1970 N   0  0  0  0  0  0  0  0  0  0  0  0
   35.8990   33.0910   42.6330 C   0  0  0  0  0  3  0  0  0  0  0  0
   34.6590   33.3390   42.0990 C   0  0  0  0  0  0  0  0  0  0  0  0
   33.8550   32.2970   42.3500 N   0  0  0  0  0  0  0  0  0  0  0  0
   34.5820   31.3850   43.0440 C   0  0  0  0  0  0  0  0  0  0  0  0
   34.0250   30.1560   43.4850 N   0  0  0  0  0  0  0  0  0  0  0  0
   34.3190   28.8880   42.7990 C   0  0  0  0  0  2  0  0  0  0  0  0
   34.8270   28.1020   44.0180 C   0  0  0  0  0  2  0  0  0  0  0  0
   34.0570   28.6620   45.2090 C   0  0  0  0  0  2  0  0  0  0  0  0
   33.1410   29.6720   44.5280 C   0  0  0  0  0  2  0  0  0  0  0  0
   38.3350   31.6330   47.1760 C   0  0  0  0  0  0  0  0  0  0  0  0
   39.0590   32.7750   47.4300 C   0  0  0  0  0  3  0  0  0  0  0  0
   39.1680   33.3590   48.6740 C   0  0  0  0  0  3  0  0  0  0  0  0
   38.5230   32.7900   49.7620 C   0  0  0  0  0  3  0  0  0  0  0  0
   37.7930   31.6570   49.5540 C   0  0  0  0  0  0  0  0  0  0  0  0
   37.1590   31.1040   50.6360 C   0  0  0  0  0  3  0  0  0  0  0  0
   36.4040   29.9630   50.5040 C   0  0  0  0  0  3  0  0  0  0  0  0
   36.3130   29.3930   49.2240 C   0  0  0  0  0  3  0  0  0  0  0  0
   36.9770   29.9980   48.1680 C   0  0  0  0  0  3  0  0  0  0  0  0
   37.7200   31.1170   48.2810 C   0  0  0  0  0  0  0  0  0  0  0  0
   34.1860   34.5350   41.3500 C   0  0  0  0  0  0  0  0  0  0  0  0
   33.4430   34.2100   40.2420 F   0  0  0  0  0  0  0  0  0  0  0  0
   35.2540   35.3080   40.9190 F   0  0  0  0  0  0  0  0  0  0  0  0
   33.4630   35.3730   42.2170 F   0  0  0  0  0  0  0  0  0  0  0  0
  1  6  1  0  0  0  0
  2  3  1  0  0  0  0
  2  1  2  0  0  0  0
  3  4  2  0  0  0  0
  4  5  1  0  0  0  0
  5 17  1  0  0  0  0
  6  5  2  0  0  0  0
  7  3  1  0  0  0  0
  8  7  1  0  0  0  0
  9 10  1  0  0  0  0
  9  8  2  0  0  0  0
 10 11  2  0  0  0  0
 11  7  1  0  0  0  0
 11 12  1  0  0  0  0
 12 16  1  0  0  0  0
 13 12  1  0  0  0  0
 13 14  1  0  0  0  0
 14 15  1  0  0  0  0
 16 15  1  0  0  0  0
 17 18  2  0  0  0  0
 17 26  1  0  0  0  0
 18 19  1  0  0  0  0
 19 20  2  0  0  0  0
 21 20  1  0  0  0  0
 21 22  1  0  0  0  0
 23 22  2  0  0  0  0
 24 23  1  0  0  0  0
 25 26  1  0  0  0  0
 25 24  2  0  0  0  0
 26 21  2  0  0  0  0
 27  9  1  0  0  0  0
 27 30  1  0  0  0  0
 28 27  1  0  0  0  0
 29 27  1  0  0  0  0
M  END
>  <minimizedAffinity>
-7.48755741

$$$$

 OpenBabel03272514443D

 30 34  0  0  0  0  0  0  0  0999 V2000
   30.1700   26.4970   45.2400 C   0  0  0  0  0  3  0  0  0  0  0  0
   31.3640   27.1790   45.5250 C   0  0  0  0  0  3  0  0  0  0  0  0
   31.3240   28.1170   46.5650 C   0  0  0  0  0  0  0  0  0  0  0  0
   30.1500   28.2580   47.1710 N   0  0  0  0  0  0  0  0  0  0  0  0
   28.9970   27.6100   46.9050 C   0  0  0  0  0  0  0  0  0  0  0  0
   29.0500   26.7170   45.9100 N   0  0  0  0  0  0  0  0  0  0  0  0
   32.4760   28.8700   46.9320 N   0  0  0  0  0  0  0  0  0  0  0  0
   33.2380   28.5270   47.9620 C   0  0  0  0  0  3  0  0  0  0  0  0
   34.2380   29.4670   48.0050 C   0  0  0  0  0  0  0  0  0  0  0  0
   34.0570   30.3460   47.0110 N   0  0  0  0  0  0  0  0  0  0  0  0
   32.9440   29.9680   46.3340 C   0  0  0  0  0  0  0  0  0  0  0  0
   32.4560   30.6970   45.2190 N   0  0  0  0  0  0  0  0  0  0  0  0
   32.6540   30.2190   43.8410 C   0  0  0  0  0  2  0  0  0  0  0  0
   31.1810   30.2340   43.4000 C   0  0  0  0  0  2  0  0  0  0  0  0
   30.5360   31.3700   44.1860 C   0  0  0  0  0  2  0  0  0  0  0  0
   31.7330   31.9260   44.9510 C   0  0  0  0  0  2  0  0  0  0  0  0
   27.9080   28.0230   47.7760 C   0  0  0  0  0  0  0  0  0  0  0  0
   26.8430   28.7450   47.2870 C   0  0  0  0  0  3  0  0  0  0  0  0
   25.7810   29.1700   48.0570 C   0  0  0  0  0  3  0  0  0  0  0  0
   25.7480   28.8730   49.4110 C   0  0  0  0  0  3  0  0  0  0  0  0
   26.7840   28.1580   49.9360 C   0  0  0  0  0  0  0  0  0  0  0  0
   26.7400   27.8700   51.2750 C   0  0  0  0  0  3  0  0  0  0  0  0
   27.7480   27.1530   51.8760 C   0  0  0  0  0  3  0  0  0  0  0  0
   28.8150   26.7350   51.0650 C   0  0  0  0  0  3  0  0  0  0  0  0
   28.8040   27.0570   49.7160 C   0  0  0  0  0  3  0  0  0  0  0  0
   27.8230   27.7580   49.1130 C   0  0  0  0  0  0  0  0  0  0  0  0
   35.3750   29.5780   48.9580 C   0  0  0  0  0  0  0  0  0  0  0  0
   35.1720   30.5360   49.9210 F   0  0  0  0  0  0  0  0  0  0  0  0
   36.5510   29.9010   48.2950 F   0  0  0  0  0  0  0  0  0  0  0  0
   35.6240   28.3220   49.5380 F   0  0  0  0  0  0  0  0  0  0  0  0
  1  2  2  0  0  0  0
  1  6  1  0  0  0  0
  2  3  1  0  0  0  0
  3  7  1  0  0  0  0
  3  4  2  0  0  0  0
  5  4  1  0  0  0  0
  5 17  1  0  0  0  0
  6  5  2  0  0  0  0
  7  8  1  0  0  0  0
  8  9  2  0  0  0  0
  9 27  1  0  0  0  0
 10  9  1  0  0  0  0
 11  7  1  0  0  0  0
 11 10  2  0  0  0  0
 12 11  1  0  0  0  0
 13 12  1  0  0  0  0
 14 13  1  0  0  0  0
 14 15  1  0  0  0  0
 15 16  1  0  0  0  0
 16 12  1  0  0  0  0
 17 26  1  0  0  0  0
 18 17  2  0  0  0  0
 18 19  1  0  0  0  0
 19 20  2  0  0  0  0
 20 21  1  0  0  0  0
 21 22  1  0  0  0  0
 22 23  2  0  0  0  0
 24 23  1  0  0  0  0
 25 24  2  0  0  0  0
 26 25  1  0  0  0  0
 26 21  2  0  0  0  0
 27 30  1  0  0  0  0
 27 28  1  0  0  0  0
 29 27  1  0  0  0  0
M  END
>  <minimizedAffinity>
-7.45795679

$$$$

 OpenBabel03272514443D

 30 34  0  0  0  0  0  0  0  0999 V2000
   34.4010   30.0070   44.7260 C   0  0  0  0  0  3  0  0  0  0  0  0
   33.0930   29.4980   44.7660 C   0  0  0  0  0  3  0  0  0  0  0  0
   32.6080   29.0970   46.0180 C   0  0  0  0  0  0  0  0  0  0  0  0
   33.4480   29.2460   47.0370 N   0  0  0  0  0  0  0  0  0  0  0  0
   34.7060   29.7320   47.0100 C   0  0  0  0  0  0  0  0  0  0  0  0
   35.1560   30.1110   45.8090 N   0  0  0  0  0  0  0  0  0  0  0  0
   31.2990   28.5590   46.1710 N   0  0  0  0  0  0  0  0  0  0  0  0
   30.2810   29.3010   46.5890 C   0  0  0  0  0  3  0  0  0  0  0  0
   29.1980   28.4580   46.6070 C   0  0  0  0  0  0  0  0  0  0  0  0
   29.5830   27.2390   46.2050 N   0  0  0  0  0  0  0  0  0  0  0  0
   30.9100   27.3050   45.9300 C   0  0  0  0  0  0  0  0  0  0  0  0
   31.6450   26.1740   45.4890 N   0  0  0  0  0  0  0  0  0  0  0  0
   32.0350   26.0130   44.0780 C   0  0  0  0  0  2  0  0  0  0  0  0
   33.5450   25.8290   44.2980 C   0  0  0  0  0  2  0  0  0  0  0  0
   33.6770   25.1490   45.6550 C   0  0  0  0  0  2  0  0  0  0  0  0
   32.2130   24.9590   46.0410 C   0  0  0  0  0  2  0  0  0  0  0  0
   35.3290   29.7460   48.3240 C   0  0  0  0  0  0  0  0  0  0  0  0
   34.8180   29.0000   49.3610 C   0  0  0  0  0  3  0  0  0  0  0  0
   35.3570   28.9700   50.6300 C   0  0  0  0  0  3  0  0  0  0  0  0
   36.4830   29.7250   50.9180 C   0  0  0  0  0  3  0  0  0  0  0  0
   37.0240   30.4780   49.9180 C   0  0  0  0  0  0  0  0  0  0  0  0
   38.1380   31.2200   50.2150 C   0  0  0  0  0  3  0  0  0  0  0  0
   38.7380   32.0040   49.2590 C   0  0  0  0  0  3  0  0  0  0  0  0
   38.1650   32.0130   47.9780 C   0  0  0  0  0  3  0  0  0  0  0  0
   37.0380   31.2420   47.7380 C   0  0  0  0  0  3  0  0  0  0  0  0
   36.4380   30.4680   48.6640 C   0  0  0  0  0  0  0  0  0  0  0  0
   27.7920   28.7500   46.9940 C   0  0  0  0  0  0  0  0  0  0  0  0
   27.0870   27.6220   47.3370 F   0  0  0  0  0  0  0  0  0  0  0  0
   27.1070   29.3670   45.9570 F   0  0  0  0  0  0  0  0  0  0  0  0
   27.7810   29.6900   48.0400 F   0  0  0  0  0  0  0  0  0  0  0  0
  1  2  2  0  0  0  0
  1  6  1  0  0  0  0
  2  3  1  0  0  0  0
  3  7  1  0  0  0  0
  3  4  2  0  0  0  0
  5  4  1  0  0  0  0
  5 17  1  0  0  0  0
  6  5  2  0  0  0  0
  7  8  1  0  0  0  0
  8  9  2  0  0  0  0
  9 27  1  0  0  0  0
 10  9  1  0  0  0  0
 11  7  1  0  0  0  0
 11 10  2  0  0  0  0
 12 11  1  0  0  0  0
 12 16  1  0  0  0  0
 13 14  1  0  0  0  0
 13 12  1  0  0  0  0
 14 15  1  0  0  0  0
 15 16  1  0  0  0  0
 17 26  2  0  0  0  0
 17 18  1  0  0  0  0
 18 19  2  0  0  0  0
 19 20  1  0  0  0  0
 21 22  1  0  0  0  0
 21 20  2  0  0  0  0
 23 22  2  0  0  0  0
 24 23  1  0  0  0  0
 25 24  2  0  0  0  0
 25 26  1  0  0  0  0
 26 21  1  0  0  0  0
 27 28  1  0  0  0  0
 27 30  1  0  0  0  0
 29 27  1  0  0  0  0
M  END
>  <minimizedAffinity>
-7.41797352

$$$$

 OpenBabel03272514443D

 30 34  0  0  0  0  0  0  0  0999 V2000
   30.9550   26.0240   46.6920 C   0  0  0  0  0  3  0  0  0  0  0  0
   29.8360   26.8510   46.4970 C   0  0  0  0  0  3  0  0  0  0  0  0
   29.9740   28.1970   46.8630 C   0  0  0  0  0  0  0  0  0  0  0  0
   31.1580   28.5430   47.3580 N   0  0  0  0  0  0  0  0  0  0  0  0
   32.2380   27.7580   47.5490 C   0  0  0  0  0  0  0  0  0  0  0  0
   32.0930   26.4760   47.1950 N   0  0  0  0  0  0  0  0  0  0  0  0
   28.9000   29.1200   46.7170 N   0  0  0  0  0  0  0  0  0  0  0  0
   28.8220   29.9450   45.6810 C   0  0  0  0  0  3  0  0  0  0  0  0
   27.6710   30.6680   45.8750 C   0  0  0  0  0  0  0  0  0  0  0  0
   27.0880   30.2680   47.0130 N   0  0  0  0  0  0  0  0  0  0  0  0
   27.8650   29.2900   47.5440 C   0  0  0  0  0  0  0  0  0  0  0  0
   27.5410   28.6510   48.7690 N   0  0  0  0  0  0  0  0  0  0  0  0
   26.9660   27.2970   48.8000 C   0  0  0  0  0  2  0  0  0  0  0  0
   28.0020   26.6510   49.7350 C   0  0  0  0  0  2  0  0  0  0  0  0
   28.4650   27.7700   50.6590 C   0  0  0  0  0  2  0  0  0  0  0  0
   27.5920   28.9300   50.1910 C   0  0  0  0  0  2  0  0  0  0  0  0
   33.3650   28.4830   48.1130 C   0  0  0  0  0  0  0  0  0  0  0  0
   33.5450   28.5680   49.4750 C   0  0  0  0  0  3  0  0  0  0  0  0
   34.5880   29.2410   50.0750 C   0  0  0  0  0  3  0  0  0  0  0  0
   35.5350   29.8850   49.2920 C   0  0  0  0  0  3  0  0  0  0  0  0
   35.3950   29.8240   47.9370 C   0  0  0  0  0  0  0  0  0  0  0  0
   36.3360   30.4640   47.1730 C   0  0  0  0  0  3  0  0  0  0  0  0
   36.2610   30.4470   45.8010 C   0  0  0  0  0  3  0  0  0  0  0  0
   35.1870   29.7530   45.2210 C   0  0  0  0  0  3  0  0  0  0  0  0
   34.2660   29.1260   46.0460 C   0  0  0  0  0  3  0  0  0  0  0  0
   34.3260   29.1330   47.3920 C   0  0  0  0  0  0  0  0  0  0  0  0
   27.0850   31.7390   45.0250 C   0  0  0  0  0  0  0  0  0  0  0  0
   28.0250   32.3900   44.2640 F   0  0  0  0  0  0  0  0  0  0  0  0
   26.4450   32.6970   45.8000 F   0  0  0  0  0  0  0  0  0  0  0  0
   26.0710   31.1930   44.2200 F   0  0  0  0  0  0  0  0  0  0  0  0
  1  6  1  0  0  0  0
  2  1  2  0  0  0  0
  2  3  1  0  0  0  0
  3  4  2  0  0  0  0
  4  5  1  0  0  0  0
  5 17  1  0  0  0  0
  6  5  2  0  0  0  0
  7  3  1  0  0  0  0
  7 11  1  0  0  0  0
  8  9  2  0  0  0  0
  8  7  1  0  0  0  0
  9 10  1  0  0  0  0
 10 11  2  0  0  0  0
 11 12  1  0  0  0  0
 12 13  1  0  0  0  0
 12 16  1  0  0  0  0
 13 14  1  0  0  0  0
 14 15  1  0  0  0  0
 16 15  1  0  0  0  0
 17 18  1  0  0  0  0
 18 19  2  0  0  0  0
 20 19  1  0  0  0  0
 21 20  2  0  0  0  0
 22 21  1  0  0  0  0
 23 22  2  0  0  0  0
 24 23  1  0  0  0  0
 24 25  2  0  0  0  0
 25 26  1  0  0  0  0
 26 21  1  0  0  0  0
 26 17  2  0  0  0  0
 27 29  1  0  0  0  0
 27  9  1  0  0  0  0
 28 27  1  0  0  0  0
 30 27  1  0  0  0  0
M  END
>  <minimizedAffinity>
-7.4153986

$$$$

 OpenBabel03272514443D

 30 34  0  0  0  0  0  0  0  0999 V2000
   33.1430   26.3680   46.5460 C   0  0  0  0  0  3  0  0  0  0  0  0
   32.1090   27.1580   46.0180 C   0  0  0  0  0  3  0  0  0  0  0  0
   32.0630   28.4960   46.4290 C   0  0  0  0  0  0  0  0  0  0  0  0
   33.0130   28.8730   47.2790 N   0  0  0  0  0  0  0  0  0  0  0  0
   34.0100   28.1230   47.7920 C   0  0  0  0  0  0  0  0  0  0  0  0
   34.0420   26.8470   47.3920 N   0  0  0  0  0  0  0  0  0  0  0  0
   31.0510   29.3830   45.9630 N   0  0  0  0  0  0  0  0  0  0  0  0
   31.2690   30.2330   44.9670 C   0  0  0  0  0  3  0  0  0  0  0  0
   30.0860   30.9070   44.7960 C   0  0  0  0  0  0  0  0  0  0  0  0
   29.1900   30.4540   45.6840 N   0  0  0  0  0  0  0  0  0  0  0  0
   29.8010   29.4910   46.4190 C   0  0  0  0  0  0  0  0  0  0  0  0
   29.1340   28.8060   47.4680 N   0  0  0  0  0  0  0  0  0  0  0  0
   28.6390   27.4310   47.2950 C   0  0  0  0  0  2  0  0  0  0  0  0
   29.3530   26.7980   48.5010 C   0  0  0  0  0  2  0  0  0  0  0  0
   29.4490   27.9080   49.5410 C   0  0  0  0  0  2  0  0  0  0  0  0
   28.7190   29.0470   48.8370 C   0  0  0  0  0  2  0  0  0  0  0  0
   34.8660   28.8740   48.6970 C   0  0  0  0  0  0  0  0  0  0  0  0
   34.7530   28.7370   50.0610 C   0  0  0  0  0  3  0  0  0  0  0  0
   35.5300   29.4190   50.9730 C   0  0  0  0  0  3  0  0  0  0  0  0
   36.4960   30.3080   50.5260 C   0  0  0  0  0  3  0  0  0  0  0  0
   36.6430   30.4730   49.1810 C   0  0  0  0  0  0  0  0  0  0  0  0
   37.6020   31.3540   48.7520 C   0  0  0  0  0  3  0  0  0  0  0  0
   37.8080   31.5730   47.4110 C   0  0  0  0  0  3  0  0  0  0  0  0
   37.0010   30.8630   46.5080 C   0  0  0  0  0  3  0  0  0  0  0  0
   36.0470   29.9860   47.0030 C   0  0  0  0  0  3  0  0  0  0  0  0
   35.8340   29.7600   48.3140 C   0  0  0  0  0  0  0  0  0  0  0  0
   29.7530   31.9790   43.8200 C   0  0  0  0  0  0  0  0  0  0  0  0
   30.1900   33.2180   44.2190 F   0  0  0  0  0  0  0  0  0  0  0  0
   28.3820   32.0680   43.6250 F   0  0  0  0  0  0  0  0  0  0  0  0
   30.2730   31.6400   42.5590 F   0  0  0  0  0  0  0  0  0  0  0  0
  1  6  1  0  0  0  0
  2  3  1  0  0  0  0
  2  1  2  0  0  0  0
  3  4  2  0  0  0  0
  4  5  1  0  0  0  0
  5 17  1  0  0  0  0
  6  5  2  0  0  0  0
  7 11  1  0  0  0  0
  7  3  1  0  0  0  0
  8  7  1  0  0  0  0
  9  8  2  0  0  0  0
  9 10  1  0  0  0  0
 10 11  2  0  0  0  0
 11 12  1  0  0  0  0
 12 16  1  0  0  0  0
 13 12  1  0  0  0  0
 13 14  1  0  0  0  0
 14 15  1  0  0  0  0
 16 15  1  0  0  0  0
 17 18  1  0  0  0  0
 18 19  2  0  0  0  0
 20 19  1  0  0  0  0
 21 20  2  0  0  0  0
 22 21  1  0  0  0  0
 23 22  2  0  0  0  0
 24 25  2  0  0  0  0
 24 23  1  0  0  0  0
 25 26  1  0  0  0  0
 26 17  2  0  0  0  0
 26 21  1  0  0  0  0
 27 28  1  0  0  0  0
 27  9  1  0  0  0  0
 29 27  1  0  0  0  0
 30 27  1  0  0  0  0
M  END
>  <minimizedAffinity>
-7.16671658

$$$$
