
 OpenBabel03272514463D

 29 33  0  0  1  0  0  0  0  0999 V2000
   35.5200   30.0520   49.3120 C   0  0  1  0  0  3  0  0  0  0  0  0
   35.2030   29.7160   50.7140 C   0  0  0  0  0  2  0  0  0  0  0  0
   36.5010   29.6510   51.4460 C   0  0  0  0  0  2  0  0  0  0  0  0
   37.4320   29.0660   50.4010 C   0  0  0  0  0  2  0  0  0  0  0  0
   36.9550   29.6300   49.0720 C   0  0  2  0  0  3  0  0  0  0  0  0
   37.7130   30.8520   48.6710 C   0  0  0  0  0  0  0  0  0  0  0  0
   37.9880   31.7220   49.7310 C   0  0  0  0  0  3  0  0  0  0  0  0
   38.6420   32.9310   49.5330 C   0  0  0  0  0  3  0  0  0  0  0  0
   39.0520   33.3310   48.2670 C   0  0  0  0  0  3  0  0  0  0  0  0
   38.7870   32.4820   47.2150 C   0  0  0  0  0  0  0  0  0  0  0  0
   39.1680   32.7930   45.9300 C   0  0  0  0  0  3  0  0  0  0  0  0
   38.9110   31.9270   44.8640 C   0  0  0  0  0  3  0  0  0  0  0  0
   38.2560   30.7360   45.1380 C   0  0  0  0  0  3  0  0  0  0  0  0
   37.8710   30.4170   46.4200 C   0  0  0  0  0  3  0  0  0  0  0  0
   38.1390   31.2930   47.4430 C   0  0  0  0  0  0  0  0  0  0  0  0
   34.6270   29.3110   48.3570 C   0  0  0  0  0  2  0  0  0  0  0  0
   34.2570   27.9490   48.8840 C   0  0  0  0  0  2  0  0  0  0  0  0
   30.6100   27.2770   48.6040 C   0  0  0  0  0  0  0  0  0  0  0  0
   30.4910   26.6250   47.4050 C   0  0  0  0  0  3  0  0  0  0  0  0
   31.6280   26.3910   46.6560 C   0  0  0  0  0  3  0  0  0  0  0  0
   32.8030   26.8230   47.1530 C   0  0  0  0  0  3  0  0  0  0  0  0
   32.9730   27.4760   48.3390 C   0  0  0  0  0  0  0  0  0  0  0  0
   31.8350   27.6650   49.0050 N   0  0  0  0  0  0  0  0  0  0  0  0
   28.1900   27.1550   51.3300 C   0  0  0  0  0  3  0  0  0  0  0  0
   27.2990   28.1690   51.0450 C   0  0  0  0  0  3  0  0  0  0  0  0
   27.5640   28.8990   49.8760 C   0  0  0  0  0  3  0  0  0  0  0  0
   28.6590   28.5710   49.1070 N   0  0  0  0  0  0  0  0  0  0  0  0
   29.4810   27.5660   49.4570 C   0  0  0  0  0  0  0  0  0  0  0  0
   29.2370   26.8680   50.5670 N   0  0  0  0  0  0  0  0  0  0  0  0
  1 16  1  6  0  0  0
  1  2  1  0  0  0  0
  2  3  1  0  0  0  0
  4  3  1  0  0  0  0
  5  6  1  1  0  0  0
  5  1  1  0  0  0  0
  5  4  1  0  0  0  0
  6  7  1  0  0  0  0
  8  7  2  0  0  0  0
  9  8  1  0  0  0  0
 10 15  1  0  0  0  0
 10  9  2  0  0  0  0
 11 10  1  0  0  0  0
 12 13  1  0  0  0  0
 12 11  2  0  0  0  0
 13 14  2  0  0  0  0
 14 15  1  0  0  0  0
 15  6  2  0  0  0  0
 16 17  1  0  0  0  0
 18 23  1  0  0  0  0
 18 28  1  0  0  0  0
 19 18  2  0  0  0  0
 20 21  2  0  0  0  0
 20 19  1  0  0  0  0
 21 22  1  0  0  0  0
 22 17  1  0  0  0  0
 22 23  2  0  0  0  0
 25 24  1  0  0  0  0
 26 25  2  0  0  0  0
 27 28  2  0  0  0  0
 27 26  1  0  0  0  0
 28 29  1  0  0  0  0
 29 24  2  0  0  0  0
M  END
>  <minimizedAffinity>
-8.73524475

$$$$

 OpenBabel03272514463D

 29 33  0  0  1  0  0  0  0  0999 V2000
   33.8200   28.0700   47.5630 C   0  0  1  0  0  3  0  0  0  0  0  0
   33.4340   27.5180   46.2500 C   0  0  0  0  0  2  0  0  0  0  0  0
   33.8490   28.5180   45.2230 C   0  0  0  0  0  2  0  0  0  0  0  0
   33.5990   29.8340   45.9350 C   0  0  0  0  0  2  0  0  0  0  0  0
   33.9220   29.5720   47.3970 C   0  0  2  0  0  3  0  0  0  0  0  0
   35.3200   29.9610   47.7460 C   0  0  0  0  0  0  0  0  0  0  0  0
   36.0810   30.3820   46.6510 C   0  0  0  0  0  3  0  0  0  0  0  0
   37.4180   30.7340   46.7830 C   0  0  0  0  0  3  0  0  0  0  0  0
   38.0600   30.6840   48.0150 C   0  0  0  0  0  3  0  0  0  0  0  0
   37.3200   30.2720   49.1010 C   0  0  0  0  0  0  0  0  0  0  0  0
   37.8710   30.2040   50.3600 C   0  0  0  0  0  3  0  0  0  0  0  0
   37.1180   29.7980   51.4650 C   0  0  0  0  0  3  0  0  0  0  0  0
   35.7890   29.4630   51.2570 C   0  0  0  0  0  3  0  0  0  0  0  0
   35.2290   29.5290   50.0010 C   0  0  0  0  0  3  0  0  0  0  0  0
   36.0000   29.9300   48.9390 C   0  0  0  0  0  0  0  0  0  0  0  0
   32.7860   27.7630   48.6100 C   0  0  0  0  0  2  0  0  0  0  0  0
   31.5560   27.1340   48.0100 C   0  0  0  0  0  2  0  0  0  0  0  0
   28.3910   28.8720   48.8970 C   0  0  0  0  0  0  0  0  0  0  0  0
   28.0020   28.2660   50.0630 C   0  0  0  0  0  3  0  0  0  0  0  0
   28.7900   27.2590   50.5860 C   0  0  0  0  0  3  0  0  0  0  0  0
   29.9080   26.9260   49.9110 C   0  0  0  0  0  3  0  0  0  0  0  0
   30.3350   27.4970   48.7490 C   0  0  0  0  0  0  0  0  0  0  0  0
   29.5270   28.4600   48.3060 N   0  0  0  0  0  0  0  0  0  0  0  0
   26.9310   31.1060   46.4100 C   0  0  0  0  0  3  0  0  0  0  0  0
   26.1660   31.9880   47.1460 C   0  0  0  0  0  3  0  0  0  0  0  0
   26.1710   31.7830   48.5350 C   0  0  0  0  0  3  0  0  0  0  0  0
   26.9150   30.7510   49.0640 N   0  0  0  0  0  0  0  0  0  0  0  0
   27.6340   29.9340   48.2750 C   0  0  0  0  0  0  0  0  0  0  0  0
   27.6350   30.1210   46.9540 N   0  0  0  0  0  0  0  0  0  0  0  0
  1 16  1  1  0  0  0
  2  1  1  0  0  0  0
  3  4  1  0  0  0  0
  3  2  1  0  0  0  0
  4  5  1  0  0  0  0
  5  1  1  0  0  0  0
  5  6  1  6  0  0  0
  6 15  1  0  0  0  0
  7  8  1  0  0  0  0
  7  6  2  0  0  0  0
  8  9  2  0  0  0  0
  9 10  1  0  0  0  0
 10 11  1  0  0  0  0
 11 12  2  0  0  0  0
 13 12  1  0  0  0  0
 14 13  2  0  0  0  0
 15 10  2  0  0  0  0
 15 14  1  0  0  0  0
 17 16  1  0  0  0  0
 17 22  1  0  0  0  0
 18 19  1  0  0  0  0
 19 20  2  0  0  0  0
 21 20  1  0  0  0  0
 22 21  2  0  0  0  0
 23 22  1  0  0  0  0
 23 18  2  0  0  0  0
 24 29  2  0  0  0  0
 24 25  1  0  0  0  0
 25 26  2  0  0  0  0
 26 27  1  0  0  0  0
 28 18  1  0  0  0  0
 28 27  2  0  0  0  0
 29 28  1  0  0  0  0
M  END
>  <minimizedAffinity>
-8.50213528

$$$$

 OpenBabel03272514463D

 29 33  0  0  1  0  0  0  0  0999 V2000
   34.0220   27.7820   47.6780 C   0  0  1  0  0  3  0  0  0  0  0  0
   34.0120   27.8420   46.2030 C   0  0  0  0  0  2  0  0  0  0  0  0
   34.4290   29.2240   45.8260 C   0  0  0  0  0  2  0  0  0  0  0  0
   33.8020   30.0610   46.9250 C   0  0  0  0  0  2  0  0  0  0  0  0
   33.8730   29.2030   48.1780 C   0  0  2  0  0  3  0  0  0  0  0  0
   35.0770   29.5080   49.0060 C   0  0  0  0  0  0  0  0  0  0  0  0
   34.9740   29.0820   50.3350 C   0  0  0  0  0  3  0  0  0  0  0  0
   35.9810   29.3260   51.2600 C   0  0  0  0  0  3  0  0  0  0  0  0
   37.1390   30.0070   50.9040 C   0  0  0  0  0  3  0  0  0  0  0  0
   37.2510   30.4310   49.5980 C   0  0  0  0  0  0  0  0  0  0  0  0
   38.3690   31.1020   49.1570 C   0  0  0  0  0  3  0  0  0  0  0  0
   38.4900   31.5210   47.8290 C   0  0  0  0  0  3  0  0  0  0  0  0
   37.4450   31.2400   46.9620 C   0  0  0  0  0  3  0  0  0  0  0  0
   36.3240   30.5700   47.3950 C   0  0  0  0  0  3  0  0  0  0  0  0
   36.2400   30.1750   48.7070 C   0  0  0  0  0  0  0  0  0  0  0  0
   32.8760   26.9580   48.1980 C   0  0  0  0  0  2  0  0  0  0  0  0
   31.7520   27.8250   48.7010 C   0  0  0  0  0  2  0  0  0  0  0  0
   28.1380   27.9460   47.8320 C   0  0  0  0  0  0  0  0  0  0  0  0
   27.9870   26.9280   46.9260 C   0  0  0  0  0  3  0  0  0  0  0  0
   29.0900   26.1730   46.5810 C   0  0  0  0  0  3  0  0  0  0  0  0
   30.2660   26.4820   47.1610 C   0  0  0  0  0  3  0  0  0  0  0  0
   30.4670   27.4840   48.0650 C   0  0  0  0  0  0  0  0  0  0  0  0
   29.3600   28.1680   48.3500 N   0  0  0  0  0  0  0  0  0  0  0  0
   26.0430   30.8610   48.4800 C   0  0  0  0  0  3  0  0  0  0  0  0
   24.9170   30.3470   49.0900 C   0  0  0  0  0  3  0  0  0  0  0  0
   24.9060   28.9550   49.2700 C   0  0  0  0  0  3  0  0  0  0  0  0
   25.9830   28.2090   48.8430 N   0  0  0  0  0  0  0  0  0  0  0  0
   27.0440   28.7890   48.2550 C   0  0  0  0  0  0  0  0  0  0  0  0
   27.0630   30.1110   48.0800 N   0  0  0  0  0  0  0  0  0  0  0  0
  1  5  1  0  0  0  0
  1 16  1  1  0  0  0
  2  1  1  0  0  0  0
  3  2  1  0  0  0  0
  3  4  1  0  0  0  0
  4  5  1  0  0  0  0
  5  6  1  1  0  0  0
  6  7  1  0  0  0  0
  7  8  2  0  0  0  0
  9  8  1  0  0  0  0
 10  9  2  0  0  0  0
 11 10  1  0  0  0  0
 12 11  2  0  0  0  0
 13 14  2  0  0  0  0
 13 12  1  0  0  0  0
 14 15  1  0  0  0  0
 15  6  2  0  0  0  0
 15 10  1  0  0  0  0
 16 17  1  0  0  0  0
 18 28  1  0  0  0  0
 18 23  1  0  0  0  0
 19 18  2  0  0  0  0
 20 19  1  0  0  0  0
 20 21  2  0  0  0  0
 21 22  1  0  0  0  0
 22 23  2  0  0  0  0
 22 17  1  0  0  0  0
 24 25  1  0  0  0  0
 25 26  2  0  0  0  0
 27 26  1  0  0  0  0
 28 27  2  0  0  0  0
 29 28  1  0  0  0  0
 29 24  2  0  0  0  0
M  END
>  <minimizedAffinity>
-8.28495884

$$$$

 OpenBabel03272514463D

 29 33  0  0  1  0  0  0  0  0999 V2000
   32.7190   27.5180   48.3790 C   0  0  1  0  0  3  0  0  0  0  0  0
   32.7360   26.2570   47.6130 C   0  0  0  0  0  2  0  0  0  0  0  0
   33.9190   26.3200   46.7060 C   0  0  0  0  0  2  0  0  0  0  0  0
   33.9610   27.7890   46.3310 C   0  0  0  0  0  2  0  0  0  0  0  0
   33.4930   28.5370   47.5690 C   0  0  2  0  0  3  0  0  0  0  0  0
   34.6320   29.0010   48.4140 C   0  0  0  0  0  0  0  0  0  0  0  0
   34.5140   28.6540   49.7640 C   0  0  0  0  0  3  0  0  0  0  0  0
   35.4580   29.0460   50.7040 C   0  0  0  0  0  3  0  0  0  0  0  0
   36.5660   29.8040   50.3430 C   0  0  0  0  0  3  0  0  0  0  0  0
   36.6930   30.1510   49.0160 C   0  0  0  0  0  0  0  0  0  0  0  0
   37.7640   30.8890   48.5680 C   0  0  0  0  0  3  0  0  0  0  0  0
   37.9010   31.2300   47.2200 C   0  0  0  0  0  3  0  0  0  0  0  0
   36.9200   30.8030   46.3390 C   0  0  0  0  0  3  0  0  0  0  0  0
   35.8460   30.0640   46.7780 C   0  0  0  0  0  3  0  0  0  0  0  0
   35.7430   29.7480   48.1100 C   0  0  0  0  0  0  0  0  0  0  0  0
   31.3150   28.0170   48.5790 C   0  0  0  0  0  2  0  0  0  0  0  0
   30.4950   27.0540   49.3980 C   0  0  0  0  0  2  0  0  0  0  0  0
   27.4290   29.1430   49.1450 C   0  0  0  0  0  0  0  0  0  0  0  0
   26.6240   28.6620   50.1440 C   0  0  0  0  0  3  0  0  0  0  0  0
   27.0850   27.6250   50.9320 C   0  0  0  0  0  3  0  0  0  0  0  0
   28.3140   27.1400   50.6690 C   0  0  0  0  0  3  0  0  0  0  0  0
   29.1510   27.5830   49.6870 C   0  0  0  0  0  0  0  0  0  0  0  0
   28.6400   28.5840   48.9710 N   0  0  0  0  0  0  0  0  0  0  0  0
   26.0140   32.2640   47.8950 C   0  0  0  0  0  3  0  0  0  0  0  0
   26.3090   32.2610   46.5470 C   0  0  0  0  0  3  0  0  0  0  0  0
   27.0160   31.1400   46.0840 C   0  0  0  0  0  3  0  0  0  0  0  0
   27.3610   30.1430   46.9700 N   0  0  0  0  0  0  0  0  0  0  0  0
   27.0350   30.2250   48.2720 C   0  0  0  0  0  0  0  0  0  0  0  0
   26.3640   31.2860   48.7210 N   0  0  0  0  0  0  0  0  0  0  0  0
  1 16  1  6  0  0  0
  2  1  1  0  0  0  0
  3  2  1  0  0  0  0
  4  3  1  0  0  0  0
  4  5  1  0  0  0  0
  5  1  1  0  0  0  0
  5  6  1  1  0  0  0
  6  7  1  0  0  0  0
  7  8  2  0  0  0  0
  9  8  1  0  0  0  0
 10  9  2  0  0  0  0
 11 10  1  0  0  0  0
 12 11  2  0  0  0  0
 13 14  2  0  0  0  0
 13 12  1  0  0  0  0
 14 15  1  0  0  0  0
 15  6  2  0  0  0  0
 15 10  1  0  0  0  0
 16 17  1  0  0  0  0
 17 22  1  0  0  0  0
 18 19  1  0  0  0  0
 19 20  2  0  0  0  0
 21 20  1  0  0  0  0
 22 21  2  0  0  0  0
 23 18  2  0  0  0  0
 23 22  1  0  0  0  0
 24 29  1  0  0  0  0
 25 24  2  0  0  0  0
 26 25  1  0  0  0  0
 26 27  2  0  0  0  0
 27 28  1  0  0  0  0
 28 29  2  0  0  0  0
 28 18  1  0  0  0  0
M  END
>  <minimizedAffinity>
-8.25661373

$$$$

 OpenBabel03272514463D

 29 33  0  0  1  0  0  0  0  0999 V2000
   34.2370   27.9590   47.0700 C   0  0  1  0  0  3  0  0  0  0  0  0
   33.7460   27.8530   45.6820 C   0  0  0  0  0  2  0  0  0  0  0  0
   33.8410   29.2180   45.0870 C   0  0  0  0  0  2  0  0  0  0  0  0
   33.5020   30.1090   46.2660 C   0  0  0  0  0  2  0  0  0  0  0  0
   34.0790   29.4070   47.4850 C   0  0  2  0  0  3  0  0  0  0  0  0
   35.4380   29.9150   47.8400 C   0  0  0  0  0  0  0  0  0  0  0  0
   36.1640   30.4020   46.7490 C   0  0  0  0  0  3  0  0  0  0  0  0
   37.4640   30.8680   46.8860 C   0  0  0  0  0  3  0  0  0  0  0  0
   38.1040   30.8710   48.1210 C   0  0  0  0  0  3  0  0  0  0  0  0
   37.3980   30.3940   49.2030 C   0  0  0  0  0  0  0  0  0  0  0  0
   37.9480   30.3710   50.4640 C   0  0  0  0  0  3  0  0  0  0  0  0
   37.2280   29.8990   51.5650 C   0  0  0  0  0  3  0  0  0  0  0  0
   35.9340   29.4510   51.3510 C   0  0  0  0  0  3  0  0  0  0  0  0
   35.3750   29.4710   50.0940 C   0  0  0  0  0  3  0  0  0  0  0  0
   36.1130   29.9400   49.0350 C   0  0  0  0  0  0  0  0  0  0  0  0
   33.4340   27.0940   48.0010 C   0  0  0  0  0  2  0  0  0  0  0  0
   32.2710   27.8460   48.5940 C   0  0  0  0  0  2  0  0  0  0  0  0
   28.6280   27.7440   47.8530 C   0  0  0  0  0  0  0  0  0  0  0  0
   28.4960   26.6660   47.0190 C   0  0  0  0  0  3  0  0  0  0  0  0
   29.6220   25.9410   46.6800 C   0  0  0  0  0  3  0  0  0  0  0  0
   30.8010   26.3410   47.1970 C   0  0  0  0  0  3  0  0  0  0  0  0
   30.9840   27.4060   48.0290 C   0  0  0  0  0  0  0  0  0  0  0  0
   29.8550   28.0560   48.3110 N   0  0  0  0  0  0  0  0  0  0  0  0
   26.5300   30.6190   48.6530 C   0  0  0  0  0  3  0  0  0  0  0  0
   25.3330   30.0680   49.0620 C   0  0  0  0  0  3  0  0  0  0  0  0
   25.2750   28.6660   49.0520 C   0  0  0  0  0  3  0  0  0  0  0  0
   26.3790   27.9460   48.6490 N   0  0  0  0  0  0  0  0  0  0  0  0
   27.5100   28.5610   48.2640 C   0  0  0  0  0  0  0  0  0  0  0  0
   27.5740   29.8940   48.2700 N   0  0  0  0  0  0  0  0  0  0  0  0
  1  5  1  0  0  0  0
  1 16  1  1  0  0  0
  2  1  1  0  0  0  0
  3  2  1  0  0  0  0
  3  4  1  0  0  0  0
  4  5  1  0  0  0  0
  5  6  1  6  0  0  0
  6 15  1  0  0  0  0
  7  8  1  0  0  0  0
  7  6  2  0  0  0  0
  8  9  2  0  0  0  0
  9 10  1  0  0  0  0
 10 11  1  0  0  0  0
 11 12  2  0  0  0  0
 13 12  1  0  0  0  0
 14 13  2  0  0  0  0
 15 10  2  0  0  0  0
 15 14  1  0  0  0  0
 16 17  1  0  0  0  0
 18 28  1  0  0  0  0
 18 23  1  0  0  0  0
 19 18  2  0  0  0  0
 20 19  1  0  0  0  0
 20 21  2  0  0  0  0
 21 22  1  0  0  0  0
 22 23  2  0  0  0  0
 22 17  1  0  0  0  0
 24 25  1  0  0  0  0
 26 25  2  0  0  0  0
 27 26  1  0  0  0  0
 28 29  1  0  0  0  0
 28 27  2  0  0  0  0
 29 24  2  0  0  0  0
M  END
>  <minimizedAffinity>
-8.16316605

$$$$

 OpenBabel03272514463D

 29 33  0  0  1  0  0  0  0  0999 V2000
   32.6920   28.2500   48.0480 C   0  0  1  0  0  3  0  0  0  0  0  0
   33.4870   27.4180   47.1230 C   0  0  0  0  0  2  0  0  0  0  0  0
   32.6490   26.2330   46.7810 C   0  0  0  0  0  2  0  0  0  0  0  0
   31.9180   25.9670   48.0840 C   0  0  0  0  0  2  0  0  0  0  0  0
   31.6740   27.3370   48.6980 C   0  0  2  0  0  3  0  0  0  0  0  0
   30.3220   27.8740   48.3640 C   0  0  0  0  0  0  0  0  0  0  0  0
   30.2580   28.5150   47.1220 C   0  0  0  0  0  3  0  0  0  0  0  0
   29.0910   29.1170   46.6700 C   0  0  0  0  0  3  0  0  0  0  0  0
   27.9310   29.1100   47.4370 C   0  0  0  0  0  3  0  0  0  0  0  0
   27.9820   28.4810   48.6610 C   0  0  0  0  0  0  0  0  0  0  0  0
   26.8780   28.4160   49.4800 C   0  0  0  0  0  3  0  0  0  0  0  0
   26.9250   27.7680   50.7170 C   0  0  0  0  0  3  0  0  0  0  0  0
   28.1240   27.1870   51.1010 C   0  0  0  0  0  3  0  0  0  0  0  0
   29.2340   27.2470   50.2880 C   0  0  0  0  0  3  0  0  0  0  0  0
   29.1510   27.8950   49.0800 C   0  0  0  0  0  0  0  0  0  0  0  0
   33.5570   28.8580   49.1170 C   0  0  0  0  0  2  0  0  0  0  0  0
   34.8570   28.1130   49.2700 C   0  0  0  0  0  2  0  0  0  0  0  0
   37.5850   30.5570   48.6200 C   0  0  0  0  0  0  0  0  0  0  0  0
   38.1300   30.7730   49.8590 C   0  0  0  0  0  3  0  0  0  0  0  0
   37.6000   30.1070   50.9470 C   0  0  0  0  0  3  0  0  0  0  0  0
   36.5650   29.2720   50.7250 C   0  0  0  0  0  3  0  0  0  0  0  0
   35.9880   29.0250   49.5140 C   0  0  0  0  0  0  0  0  0  0  0  0
   36.5520   29.7010   48.5130 N   0  0  0  0  0  0  0  0  0  0  0  0
   39.1680   32.9360   46.3540 C   0  0  0  0  0  3  0  0  0  0  0  0
   38.9730   32.3970   45.0980 C   0  0  0  0  0  3  0  0  0  0  0  0
   38.2750   31.1800   45.0620 C   0  0  0  0  0  3  0  0  0  0  0  0
   37.8380   30.6150   46.2400 N   0  0  0  0  0  0  0  0  0  0  0  0
   38.0710   31.2060   47.4240 C   0  0  0  0  0  0  0  0  0  0  0  0
   38.7340   32.3620   47.4690 N   0  0  0  0  0  0  0  0  0  0  0  0
  1  5  1  0  0  0  0
  1 16  1  1  0  0  0
  2  1  1  0  0  0  0
  3  2  1  0  0  0  0
  3  4  1  0  0  0  0
  4  5  1  0  0  0  0
  5  6  1  6  0  0  0
  6 15  1  0  0  0  0
  7  6  2  0  0  0  0
  8  7  1  0  0  0  0
  8  9  2  0  0  0  0
  9 10  1  0  0  0  0
 10 15  2  0  0  0  0
 10 11  1  0  0  0  0
 11 12  2  0  0  0  0
 12 13  1  0  0  0  0
 14 13  2  0  0  0  0
 15 14  1  0  0  0  0
 16 17  1  0  0  0  0
 17 22  1  0  0  0  0
 18 19  1  0  0  0  0
 19 20  2  0  0  0  0
 21 20  1  0  0  0  0
 22 21  2  0  0  0  0
 23 18  2  0  0  0  0
 23 22  1  0  0  0  0
 24 29  1  0  0  0  0
 25 24  2  0  0  0  0
 26 25  1  0  0  0  0
 26 27  2  0  0  0  0
 27 28  1  0  0  0  0
 28 29  2  0  0  0  0
 28 18  1  0  0  0  0
M  END
>  <minimizedAffinity>
-7.79456949

$$$$

 OpenBabel03272514463D

 29 33  0  0  1  0  0  0  0  0999 V2000
   32.7810   27.6570   48.6780 C   0  0  1  0  0  3  0  0  0  0  0  0
   32.7380   26.3910   47.9210 C   0  0  0  0  0  2  0  0  0  0  0  0
   33.9020   26.4070   46.9890 C   0  0  0  0  0  2  0  0  0  0  0  0
   33.9860   27.8710   46.6010 C   0  0  0  0  0  2  0  0  0  0  0  0
   33.5710   28.6440   47.8430 C   0  0  2  0  0  3  0  0  0  0  0  0
   34.7440   29.0730   48.6610 C   0  0  0  0  0  0  0  0  0  0  0  0
   34.6670   28.6950   50.0050 C   0  0  0  0  0  3  0  0  0  0  0  0
   35.6470   29.0530   50.9220 C   0  0  0  0  0  3  0  0  0  0  0  0
   36.7510   29.8060   50.5410 C   0  0  0  0  0  3  0  0  0  0  0  0
   36.8380   30.1840   49.2190 C   0  0  0  0  0  0  0  0  0  0  0  0
   37.9030   30.9200   48.7520 C   0  0  0  0  0  3  0  0  0  0  0  0
   37.9980   31.2930   47.4090 C   0  0  0  0  0  3  0  0  0  0  0  0
   36.9830   30.8980   46.5520 C   0  0  0  0  0  3  0  0  0  0  0  0
   35.9150   30.1610   47.0090 C   0  0  0  0  0  3  0  0  0  0  0  0
   35.8530   29.8140   48.3370 C   0  0  0  0  0  0  0  0  0  0  0  0
   31.3990   28.2060   48.9050 C   0  0  0  0  0  2  0  0  0  0  0  0
   30.3630   27.1120   48.9210 C   0  0  0  0  0  2  0  0  0  0  0  0
   27.6210   28.8380   47.0970 C   0  0  0  0  0  0  0  0  0  0  0  0
   27.2390   27.9290   46.1460 C   0  0  0  0  0  3  0  0  0  0  0  0
   27.8890   26.7110   46.0880 C   0  0  0  0  0  3  0  0  0  0  0  0
   28.8720   26.4850   46.9810 C   0  0  0  0  0  3  0  0  0  0  0  0
   29.2890   27.3570   47.9440 C   0  0  0  0  0  0  0  0  0  0  0  0
   28.6170   28.5080   47.9390 N   0  0  0  0  0  0  0  0  0  0  0  0
   26.4200   32.2110   46.3980 C   0  0  0  0  0  3  0  0  0  0  0  0
   25.7980   32.6040   47.5650 C   0  0  0  0  0  3  0  0  0  0  0  0
   25.8070   31.6610   48.6050 C   0  0  0  0  0  3  0  0  0  0  0  0
   26.4170   30.4410   48.4070 N   0  0  0  0  0  0  0  0  0  0  0  0
   27.0010   30.1360   47.2350 C   0  0  0  0  0  0  0  0  0  0  0  0
   26.9960   31.0260   46.2410 N   0  0  0  0  0  0  0  0  0  0  0  0
  1 16  1  6  0  0  0
  2  1  1  0  0  0  0
  3  2  1  0  0  0  0
  4  3  1  0  0  0  0
  4  5  1  0  0  0  0
  5  6  1  1  0  0  0
  5  1  1  0  0  0  0
  6  7  1  0  0  0  0
  7  8  2  0  0  0  0
  9  8  1  0  0  0  0
 10  9  2  0  0  0  0
 11 10  1  0  0  0  0
 12 11  2  0  0  0  0
 13 14  2  0  0  0  0
 13 12  1  0  0  0  0
 14 15  1  0  0  0  0
 15  6  2  0  0  0  0
 15 10  1  0  0  0  0
 16 17  1  0  0  0  0
 18 28  1  0  0  0  0
 18 23  1  0  0  0  0
 19 18  2  0  0  0  0
 20 19  1  0  0  0  0
 20 21  2  0  0  0  0
 21 22  1  0  0  0  0
 22 17  1  0  0  0  0
 23 22  2  0  0  0  0
 24 25  1  0  0  0  0
 25 26  2  0  0  0  0
 27 26  1  0  0  0  0
 28 27  2  0  0  0  0
 29 24  2  0  0  0  0
 29 28  1  0  0  0  0
M  END
>  <minimizedAffinity>
-7.65846825

$$$$

 OpenBabel03272514463D

 29 33  0  0  1  0  0  0  0  0999 V2000
   30.7720   28.9260   46.0540 C   0  0  1  0  0  3  0  0  0  0  0  0
   31.0220   27.9280   44.9960 C   0  0  0  0  0  2  0  0  0  0  0  0
   30.4130   26.6470   45.4590 C   0  0  0  0  0  2  0  0  0  0  0  0
   30.6640   26.6930   46.9550 C   0  0  0  0  0  2  0  0  0  0  0  0
   30.5500   28.1590   47.3410 C   0  0  2  0  0  3  0  0  0  0  0  0
   29.1850   28.5100   47.8340 C   0  0  0  0  0  0  0  0  0  0  0  0
   28.4700   29.3480   46.9720 C   0  0  0  0  0  3  0  0  0  0  0  0
   27.2020   29.8150   47.2940 C   0  0  0  0  0  3  0  0  0  0  0  0
   26.5870   29.4690   48.4920 C   0  0  0  0  0  3  0  0  0  0  0  0
   27.2830   28.6440   49.3480 C   0  0  0  0  0  0  0  0  0  0  0  0
   26.7450   28.2420   50.5490 C   0  0  0  0  0  3  0  0  0  0  0  0
   27.4450   27.3940   51.4130 C   0  0  0  0  0  3  0  0  0  0  0  0
   28.7050   26.9670   51.0240 C   0  0  0  0  0  3  0  0  0  0  0  0
   29.2500   27.3640   49.8240 C   0  0  0  0  0  3  0  0  0  0  0  0
   28.5340   28.1980   49.0020 C   0  0  0  0  0  0  0  0  0  0  0  0
   31.9500   29.8430   46.2290 C   0  0  0  0  0  2  0  0  0  0  0  0
   33.2520   29.1300   45.9730 C   0  0  0  0  0  2  0  0  0  0  0  0
   35.9490   30.0770   48.3530 C   0  0  0  0  0  0  0  0  0  0  0  0
   35.8090   29.1780   49.3780 C   0  0  0  0  0  3  0  0  0  0  0  0
   34.8080   28.2290   49.3020 C   0  0  0  0  0  3  0  0  0  0  0  0
   34.0170   28.2420   48.2100 C   0  0  0  0  0  3  0  0  0  0  0  0
   34.1160   29.1140   47.1670 C   0  0  0  0  0  0  0  0  0  0  0  0
   35.1030   29.9980   47.3090 N   0  0  0  0  0  0  0  0  0  0  0  0
   38.7040   32.2320   47.3200 C   0  0  0  0  0  3  0  0  0  0  0  0
   38.8910   33.0870   48.3870 C   0  0  0  0  0  3  0  0  0  0  0  0
   38.0300   32.8930   49.4780 C   0  0  0  0  0  3  0  0  0  0  0  0
   37.0820   31.8950   49.4230 N   0  0  0  0  0  0  0  0  0  0  0  0
   36.9650   31.1030   48.3430 C   0  0  0  0  0  0  0  0  0  0  0  0
   37.7790   31.2810   47.3010 N   0  0  0  0  0  0  0  0  0  0  0  0
  1 16  1  1  0  0  0
  1  5  1  0  0  0  0
  2  3  1  0  0  0  0
  2  1  1  0  0  0  0
  3  4  1  0  0  0  0
  4  5  1  0  0  0  0
  5  6  1  6  0  0  0
  6 15  1  0  0  0  0
  7  8  1  0  0  0  0
  7  6  2  0  0  0  0
  8  9  2  0  0  0  0
  9 10  1  0  0  0  0
 10 11  1  0  0  0  0
 11 12  2  0  0  0  0
 13 12  1  0  0  0  0
 14 13  2  0  0  0  0
 15 10  2  0  0  0  0
 15 14  1  0  0  0  0
 17 16  1  0  0  0  0
 17 22  1  0  0  0  0
 18 19  1  0  0  0  0
 20 19  2  0  0  0  0
 21 20  1  0  0  0  0
 22 23  1  0  0  0  0
 22 21  2  0  0  0  0
 23 18  2  0  0  0  0
 24 25  1  0  0  0  0
 25 26  2  0  0  0  0
 27 26  1  0  0  0  0
 28 18  1  0  0  0  0
 28 27  2  0  0  0  0
 29 24  2  0  0  0  0
 29 28  1  0  0  0  0
M  END
>  <minimizedAffinity>
-7.6231308

$$$$

 OpenBabel03272514463D

 29 33  0  0  1  0  0  0  0  0999 V2000
   32.9300   29.3550   46.1920 C   0  0  1  0  0  3  0  0  0  0  0  0
   32.8290   28.3830   45.0860 C   0  0  0  0  0  2  0  0  0  0  0  0
   34.2180   27.9340   44.7780 C   0  0  0  0  0  2  0  0  0  0  0  0
   35.0240   29.1990   45.0070 C   0  0  0  0  0  2  0  0  0  0  0  0
   34.3370   29.9140   46.1600 C   0  0  2  0  0  3  0  0  0  0  0  0
   34.9670   29.5990   47.4770 C   0  0  0  0  0  0  0  0  0  0  0  0
   34.2360   28.6920   48.2520 C   0  0  0  0  0  3  0  0  0  0  0  0
   34.6470   28.3230   49.5260 C   0  0  0  0  0  3  0  0  0  0  0  0
   35.8080   28.8410   50.0880 C   0  0  0  0  0  3  0  0  0  0  0  0
   36.5360   29.7350   49.3340 C   0  0  0  0  0  0  0  0  0  0  0  0
   37.7040   30.2870   49.8070 C   0  0  0  0  0  3  0  0  0  0  0  0
   38.4500   31.1840   49.0380 C   0  0  0  0  0  3  0  0  0  0  0  0
   37.9780   31.5050   47.7740 C   0  0  0  0  0  3  0  0  0  0  0  0
   36.8120   30.9560   47.2930 C   0  0  0  0  0  3  0  0  0  0  0  0
   36.1030   30.0800   48.0780 C   0  0  0  0  0  0  0  0  0  0  0  0
   31.9520   30.4840   46.0180 C   0  0  0  0  0  2  0  0  0  0  0  0
   30.8370   30.1130   45.0750 C   0  0  0  0  0  2  0  0  0  0  0  0
   28.2600   29.2880   47.6270 C   0  0  0  0  0  0  0  0  0  0  0  0
   27.1210   29.8730   47.1400 C   0  0  0  0  0  3  0  0  0  0  0  0
   27.1830   30.5600   45.9430 C   0  0  0  0  0  3  0  0  0  0  0  0
   28.3740   30.6160   45.3150 C   0  0  0  0  0  3  0  0  0  0  0  0
   29.5340   30.0520   45.7590 C   0  0  0  0  0  0  0  0  0  0  0  0
   29.3980   29.4070   46.9170 N   0  0  0  0  0  0  0  0  0  0  0  0
   29.2650   27.0040   50.2870 C   0  0  0  0  0  3  0  0  0  0  0  0
   28.3010   27.1650   51.2620 C   0  0  0  0  0  3  0  0  0  0  0  0
   27.2900   28.0930   50.9670 C   0  0  0  0  0  3  0  0  0  0  0  0
   27.3160   28.7640   49.7650 N   0  0  0  0  0  0  0  0  0  0  0  0
   28.2940   28.5490   48.8680 C   0  0  0  0  0  0  0  0  0  0  0  0
   29.2600   27.6690   49.1390 N   0  0  0  0  0  0  0  0  0  0  0  0
  1 16  1  6  0  0  0
  2  1  1  0  0  0  0
  3  4  1  0  0  0  0
  3  2  1  0  0  0  0
  4  5  1  0  0  0  0
  5  1  1  0  0  0  0
  5  6  1  1  0  0  0
  6 15  2  0  0  0  0
  6  7  1  0  0  0  0
  7  8  2  0  0  0  0
  8  9  1  0  0  0  0
 10 11  1  0  0  0  0
 10  9  2  0  0  0  0
 12 11  2  0  0  0  0
 13 12  1  0  0  0  0
 14 13  2  0  0  0  0
 14 15  1  0  0  0  0
 15 10  1  0  0  0  0
 17 22  1  0  0  0  0
 17 16  1  0  0  0  0
 18 28  1  0  0  0  0
 19 18  1  0  0  0  0
 20 19  2  0  0  0  0
 21 22  2  0  0  0  0
 21 20  1  0  0  0  0
 22 23  1  0  0  0  0
 23 18  2  0  0  0  0
 24 25  1  0  0  0  0
 26 25  2  0  0  0  0
 27 26  1  0  0  0  0
 28 29  1  0  0  0  0
 28 27  2  0  0  0  0
 29 24  2  0  0  0  0
M  END
>  <minimizedAffinity>
-7.52186394

$$$$
