
 OpenBabel03272514403D

 35 39  0  0  0  0  0  0  0  0999 V2000
   27.3860   29.0930   48.5000 C   0  0  0  0  0  0  0  0  0  0  0  0
   26.5780   27.9580   48.4910 C   0  0  0  0  0  3  0  0  0  0  0  0
   27.1520   26.7650   48.9250 C   0  0  0  0  0  3  0  0  0  0  0  0
   28.4370   26.7560   49.3270 N   0  0  0  0  0  0  0  0  0  0  0  0
   29.2230   27.8660   49.3340 C   0  0  0  0  0  0  0  0  0  0  0  0
   28.6610   29.0350   48.9090 N   0  0  0  0  0  0  0  0  0  0  0  0
   26.8880   30.3720   48.0710 N   0  0  0  0  0  0  0  0  0  0  0  0
   26.4370   31.3580   48.8650 C   0  0  0  0  0  3  0  0  0  0  0  0
   26.0680   32.3740   48.0540 N   0  0  0  0  0  0  0  0  0  0  0  0
   26.2910   32.0140   46.7940 C   0  0  0  0  0  0  0  0  0  0  0  0
   26.1200   32.6090   45.5560 C   0  0  0  0  0  0  0  0  0  0  0  0
   26.4560   31.9600   44.3950 N   0  0  0  0  0  0  0  0  0  0  0  0
   26.9690   30.6970   44.4500 C   0  0  0  0  0  3  0  0  0  0  0  0
   27.1480   30.0880   45.6350 N   0  0  0  0  0  0  0  0  0  0  0  0
   26.8120   30.7460   46.7660 C   0  0  0  0  0  0  0  0  0  0  0  0
   25.5930   33.9100   45.4700 N   0  0  0  0  0  0  0  0  0  0  0  0
   25.4650   34.3540   44.5490 H   0  0  0  0  0  0  0  0  0  0  0  0
   25.3350   34.4190   46.3270 H   0  0  0  0  0  0  0  0  0  0  0  0
   30.5250   27.9090   49.7300 O   0  0  0  0  0  0  0  0  0  0  0  0
   31.5910   27.5510   48.9660 C   0  0  0  0  0  0  0  0  0  0  0  0
   31.8230   26.5370   48.0610 C   0  0  0  0  0  3  0  0  0  0  0  0
   33.0130   26.3840   47.4040 C   0  0  0  0  0  3  0  0  0  0  0  0
   34.0380   27.2860   47.6540 C   0  0  0  0  0  3  0  0  0  0  0  0
   33.7950   28.2900   48.5550 C   0  0  0  0  0  0  0  0  0  0  0  0
   32.6010   28.4330   49.2070 N   0  0  0  0  0  0  0  0  0  0  0  0
   34.9150   29.1670   48.7430 N   0  0  0  0  0  0  0  0  0  0  0  0
   35.5070   29.0840   49.9690 C   0  0  0  0  0  3  0  0  0  0  0  0
   36.6060   29.8550   50.3380 C   0  0  0  0  0  0  0  0  0  0  0  0
   37.2040   29.7150   51.6930 C   0  0  0  0  0  1  0  0  0  0  0  0
   37.1070   30.7400   49.4050 C   0  0  0  0  0  0  0  0  0  0  0  0
   38.1000   31.4660   49.6800 O   0  0  0  0  0  0  0  0  0  0  0  0
   36.4880   30.7890   48.2030 N   0  0  0  0  0  0  0  0  0  0  0  0
   35.4300   30.0360   47.8700 C   0  0  0  0  0  0  0  0  0  0  0  0
   34.8530   30.0740   46.7640 O   0  0  0  0  0  0  0  0  0  0  0  0
   36.8530   31.4470   47.5000 H   0  0  0  0  0  0  0  0  0  0  0  0
  1  6  1  0  0  0  0
  2  1  2  0  0  0  0
  2  3  1  0  0  0  0
  3  4  2  0  0  0  0
  4  5  1  0  0  0  0
  5 19  1  0  0  0  0
  6  5  2  0  0  0  0
  7  1  1  0  0  0  0
  7  8  1  0  0  0  0
  9  8  2  0  0  0  0
 10  9  1  0  0  0  0
 11 10  2  0  0  0  0
 12 13  2  0  0  0  0
 12 11  1  0  0  0  0
 13 14  1  0  0  0  0
 14 15  2  0  0  0  0
 15 10  1  0  0  0  0
 15  7  1  0  0  0  0
 16 11  1  0  0  0  0
 16 18  1  0  0  0  0
 17 16  1  0  0  0  0
 20 25  1  0  0  0  0
 20 19  1  0  0  0  0
 21 20  2  0  0  0  0
 22 23  2  0  0  0  0
 22 21  1  0  0  0  0
 23 24  1  0  0  0  0
 24 26  1  0  0  0  0
 24 25  2  0  0  0  0
 26 27  1  0  0  0  0
 27 28  2  0  0  0  0
 28 29  1  0  0  0  0
 30 31  2  0  0  0  0
 30 28  1  0  0  0  0
 32 30  1  0  0  0  0
 33 32  1  0  0  0  0
 33 26  1  0  0  0  0
 34 33  2  0  0  0  0
 35 32  1  0  0  0  0
M  END
>  <minimizedAffinity>
-8.92693424

$$$$

 OpenBabel03272514403D

 35 39  0  0  0  0  0  0  0  0999 V2000
   32.9190   27.9570   47.9860 C   0  0  0  0  0  0  0  0  0  0  0  0
   32.7440   26.7970   47.2360 C   0  0  0  0  0  3  0  0  0  0  0  0
   31.6120   26.0290   47.5060 C   0  0  0  0  0  3  0  0  0  0  0  0
   30.7510   26.4320   48.4600 N   0  0  0  0  0  0  0  0  0  0  0  0
   30.9260   27.5660   49.1910 C   0  0  0  0  0  0  0  0  0  0  0  0
   32.0350   28.3170   48.9270 N   0  0  0  0  0  0  0  0  0  0  0  0
   34.0540   28.8170   47.7850 N   0  0  0  0  0  0  0  0  0  0  0  0
   34.4350   29.3740   46.6230 C   0  0  0  0  0  3  0  0  0  0  0  0
   35.5440   30.1000   46.8840 N   0  0  0  0  0  0  0  0  0  0  0  0
   35.8330   29.9870   48.1760 C   0  0  0  0  0  0  0  0  0  0  0  0
   36.8180   30.4820   49.0110 C   0  0  0  0  0  0  0  0  0  0  0  0
   36.8480   30.1750   50.3480 N   0  0  0  0  0  0  0  0  0  0  0  0
   35.8890   29.3610   50.8770 C   0  0  0  0  0  3  0  0  0  0  0  0
   34.9170   28.8610   50.0950 N   0  0  0  0  0  0  0  0  0  0  0  0
   34.9060   29.1770   48.7810 C   0  0  0  0  0  0  0  0  0  0  0  0
   37.8190   31.3240   48.4940 N   0  0  0  0  0  0  0  0  0  0  0  0
   38.5530   31.6940   49.1140 H   0  0  0  0  0  0  0  0  0  0  0  0
   37.8170   31.5710   47.4930 H   0  0  0  0  0  0  0  0  0  0  0  0
   30.0870   28.0150   50.1640 O   0  0  0  0  0  0  0  0  0  0  0  0
   28.7490   28.2060   50.0200 C   0  0  0  0  0  0  0  0  0  0  0  0
   27.6350   27.7110   50.6660 C   0  0  0  0  0  3  0  0  0  0  0  0
   26.3580   28.0650   50.3260 C   0  0  0  0  0  3  0  0  0  0  0  0
   26.1660   28.9630   49.2840 C   0  0  0  0  0  3  0  0  0  0  0  0
   27.2810   29.4480   48.6510 C   0  0  0  0  0  0  0  0  0  0  0  0
   28.5530   29.0860   48.9990 N   0  0  0  0  0  0  0  0  0  0  0  0
   26.9760   30.3660   47.5900 N   0  0  0  0  0  0  0  0  0  0  0  0
   27.2520   29.9030   46.3370 C   0  0  0  0  0  3  0  0  0  0  0  0
   27.0250   30.6490   45.1830 C   0  0  0  0  0  0  0  0  0  0  0  0
   27.3490   30.0850   43.8450 C   0  0  0  0  0  1  0  0  0  0  0  0
   26.4940   31.9140   45.3350 C   0  0  0  0  0  0  0  0  0  0  0  0
   26.2660   32.6380   44.3280 O   0  0  0  0  0  0  0  0  0  0  0  0
   26.2370   32.3310   46.5960 N   0  0  0  0  0  0  0  0  0  0  0  0
   26.4640   31.5940   47.6930 C   0  0  0  0  0  0  0  0  0  0  0  0
   26.2310   31.9700   48.8600 O   0  0  0  0  0  0  0  0  0  0  0  0
   25.8420   33.2740   46.7210 H   0  0  0  0  0  0  0  0  0  0  0  0
  1  6  1  0  0  0  0
  2  3  1  0  0  0  0
  2  1  2  0  0  0  0
  3  4  2  0  0  0  0
  4  5  1  0  0  0  0
  5 19  1  0  0  0  0
  6  5  2  0  0  0  0
  7  1  1  0  0  0  0
  7 15  1  0  0  0  0
  8  9  2  0  0  0  0
  8  7  1  0  0  0  0
  9 10  1  0  0  0  0
 10 15  2  0  0  0  0
 10 11  1  0  0  0  0
 11 12  2  0  0  0  0
 12 13  1  0  0  0  0
 14 13  2  0  0  0  0
 15 14  1  0  0  0  0
 16 11  1  0  0  0  0
 16 17  1  0  0  0  0
 18 16  1  0  0  0  0
 20 19  1  0  0  0  0
 20 21  1  0  0  0  0
 22 21  2  0  0  0  0
 23 22  1  0  0  0  0
 24 25  1  0  0  0  0
 24 23  2  0  0  0  0
 25 20  2  0  0  0  0
 26 33  1  0  0  0  0
 26 24  1  0  0  0  0
 27 26  1  0  0  0  0
 28 30  1  0  0  0  0
 28 27  2  0  0  0  0
 29 28  1  0  0  0  0
 30 32  1  0  0  0  0
 31 30  2  0  0  0  0
 32 35  1  0  0  0  0
 32 33  1  0  0  0  0
 33 34  2  0  0  0  0
M  END
>  <minimizedAffinity>
-8.03559685

$$$$

 OpenBabel03272514403D

 35 39  0  0  0  0  0  0  0  0999 V2000
   34.7010   29.8980   46.7230 C   0  0  0  0  0  0  0  0  0  0  0  0
   35.4730   29.8500   45.5660 C   0  0  0  0  0  3  0  0  0  0  0  0
   34.8360   30.1460   44.3620 C   0  0  0  0  0  3  0  0  0  0  0  0
   33.5270   30.4610   44.3660 N   0  0  0  0  0  0  0  0  0  0  0  0
   32.7760   30.5070   45.4990 C   0  0  0  0  0  0  0  0  0  0  0  0
   33.4000   30.2170   46.6780 N   0  0  0  0  0  0  0  0  0  0  0  0
   35.2640   29.6090   48.0140 N   0  0  0  0  0  0  0  0  0  0  0  0
   34.8640   28.6440   48.8590 C   0  0  0  0  0  3  0  0  0  0  0  0
   35.6600   28.7250   49.9490 N   0  0  0  0  0  0  0  0  0  0  0  0
   36.5250   29.7180   49.7710 C   0  0  0  0  0  0  0  0  0  0  0  0
   37.5560   30.2700   50.5100 C   0  0  0  0  0  0  0  0  0  0  0  0
   38.2930   31.3270   50.0390 N   0  0  0  0  0  0  0  0  0  0  0  0
   38.0100   31.8550   48.8130 C   0  0  0  0  0  3  0  0  0  0  0  0
   37.0150   31.3450   48.0670 N   0  0  0  0  0  0  0  0  0  0  0  0
   36.3020   30.3030   48.5500 C   0  0  0  0  0  0  0  0  0  0  0  0
   37.8690   29.7450   51.7770 N   0  0  0  0  0  0  0  0  0  0  0  0
   38.6360   30.1540   52.3290 H   0  0  0  0  0  0  0  0  0  0  0  0
   37.3320   28.9500   52.1520 H   0  0  0  0  0  0  0  0  0  0  0  0
   31.4510   30.8200   45.5560 O   0  0  0  0  0  0  0  0  0  0  0  0
   30.4350   30.0020   45.1760 C   0  0  0  0  0  0  0  0  0  0  0  0
   30.1210   29.3440   44.0050 C   0  0  0  0  0  3  0  0  0  0  0  0
   29.0100   28.5580   43.8680 C   0  0  0  0  0  3  0  0  0  0  0  0
   28.1540   28.4120   44.9510 C   0  0  0  0  0  3  0  0  0  0  0  0
   28.4770   29.0710   46.1100 C   0  0  0  0  0  0  0  0  0  0  0  0
   29.5900   29.8540   46.2350 N   0  0  0  0  0  0  0  0  0  0  0  0
   27.5300   28.8560   47.1670 N   0  0  0  0  0  0  0  0  0  0  0  0
   26.7940   29.9530   47.5060 C   0  0  0  0  0  3  0  0  0  0  0  0
   25.8270   29.9400   48.5080 C   0  0  0  0  0  0  0  0  0  0  0  0
   25.0580   31.1720   48.8280 C   0  0  0  0  0  1  0  0  0  0  0  0
   25.6180   28.7510   49.1780 C   0  0  0  0  0  0  0  0  0  0  0  0
   24.7560   28.6770   50.0950 O   0  0  0  0  0  0  0  0  0  0  0  0
   26.3710   27.6910   48.8090 N   0  0  0  0  0  0  0  0  0  0  0  0
   27.2980   27.7270   47.8400 C   0  0  0  0  0  0  0  0  0  0  0  0
   27.9980   26.7540   47.4920 O   0  0  0  0  0  0  0  0  0  0  0  0
   26.2250   26.8000   49.3040 H   0  0  0  0  0  0  0  0  0  0  0  0
  1  7  1  0  0  0  0
  2  1  2  0  0  0  0
  3  4  2  0  0  0  0
  3  2  1  0  0  0  0
  4  5  1  0  0  0  0
  5 19  1  0  0  0  0
  5  6  2  0  0  0  0
  6  1  1  0  0  0  0
  7 15  1  0  0  0  0
  7  8  1  0  0  0  0
  8  9  2  0  0  0  0
 10  9  1  0  0  0  0
 10 11  1  0  0  0  0
 11 16  1  0  0  0  0
 12 11  2  0  0  0  0
 13 12  1  0  0  0  0
 14 15  1  0  0  0  0
 14 13  2  0  0  0  0
 15 10  2  0  0  0  0
 16 18  1  0  0  0  0
 16 17  1  0  0  0  0
 20 19  1  0  0  0  0
 20 25  1  0  0  0  0
 21 20  2  0  0  0  0
 22 21  1  0  0  0  0
 22 23  2  0  0  0  0
 23 24  1  0  0  0  0
 24 25  2  0  0  0  0
 24 26  1  0  0  0  0
 26 27  1  0  0  0  0
 26 33  1  0  0  0  0
 27 28  2  0  0  0  0
 28 29  1  0  0  0  0
 28 30  1  0  0  0  0
 30 31  2  0  0  0  0
 32 30  1  0  0  0  0
 32 35  1  0  0  0  0
 33 32  1  0  0  0  0
 34 33  2  0  0  0  0
M  END
>  <minimizedAffinity>
-7.97142839

$$$$

 OpenBabel03272514403D

 35 39  0  0  0  0  0  0  0  0999 V2000
   35.2810   30.1670   46.3160 C   0  0  0  0  0  0  0  0  0  0  0  0
   35.7340   29.9550   45.0170 C   0  0  0  0  0  3  0  0  0  0  0  0
   34.7730   29.9030   44.0080 C   0  0  0  0  0  3  0  0  0  0  0  0
   33.4730   30.0580   44.3240 N   0  0  0  0  0  0  0  0  0  0  0  0
   33.0350   30.2640   45.5950 C   0  0  0  0  0  0  0  0  0  0  0  0
   33.9760   30.3150   46.5820 N   0  0  0  0  0  0  0  0  0  0  0  0
   36.1930   30.2360   47.4270 N   0  0  0  0  0  0  0  0  0  0  0  0
   37.4710   30.6480   47.3830 C   0  0  0  0  0  3  0  0  0  0  0  0
   37.9550   30.5520   48.6410 N   0  0  0  0  0  0  0  0  0  0  0  0
   36.9920   30.0920   49.4330 C   0  0  0  0  0  0  0  0  0  0  0  0
   36.8840   29.7920   50.7790 C   0  0  0  0  0  0  0  0  0  0  0  0
   35.7150   29.3180   51.3180 N   0  0  0  0  0  0  0  0  0  0  0  0
   34.6270   29.1320   50.5170 C   0  0  0  0  0  3  0  0  0  0  0  0
   34.6950   29.4120   49.2040 N   0  0  0  0  0  0  0  0  0  0  0  0
   35.8560   29.8800   48.6940 C   0  0  0  0  0  0  0  0  0  0  0  0
   37.9900   29.9740   51.6290 N   0  0  0  0  0  0  0  0  0  0  0  0
   37.9120   29.7510   52.6310 H   0  0  0  0  0  0  0  0  0  0  0  0
   38.8790   30.3300   51.2480 H   0  0  0  0  0  0  0  0  0  0  0  0
   31.7340   30.4270   45.9660 O   0  0  0  0  0  0  0  0  0  0  0  0
   30.6920   29.6770   45.5200 C   0  0  0  0  0  0  0  0  0  0  0  0
   30.4170   29.0290   44.3340 C   0  0  0  0  0  3  0  0  0  0  0  0
   29.2650   28.3210   44.1230 C   0  0  0  0  0  3  0  0  0  0  0  0
   28.3260   28.2470   45.1430 C   0  0  0  0  0  3  0  0  0  0  0  0
   28.6120   28.8960   46.3170 C   0  0  0  0  0  0  0  0  0  0  0  0
   29.7660   29.6010   46.5160 N   0  0  0  0  0  0  0  0  0  0  0  0
   27.5800   28.7600   47.3050 N   0  0  0  0  0  0  0  0  0  0  0  0
   26.9010   29.9100   47.5830 C   0  0  0  0  0  3  0  0  0  0  0  0
   25.8670   29.9760   48.5140 C   0  0  0  0  0  0  0  0  0  0  0  0
   25.1650   31.2630   48.7700 C   0  0  0  0  0  1  0  0  0  0  0  0
   25.5270   28.8130   49.1750 C   0  0  0  0  0  0  0  0  0  0  0  0
   24.6000   28.8100   50.0290 O   0  0  0  0  0  0  0  0  0  0  0  0
   26.2280   27.6980   48.8680 N   0  0  0  0  0  0  0  0  0  0  0  0
   27.2210   27.6580   47.9670 C   0  0  0  0  0  0  0  0  0  0  0  0
   27.8740   26.6340   47.6770 O   0  0  0  0  0  0  0  0  0  0  0  0
   25.9850   26.8250   49.3570 H   0  0  0  0  0  0  0  0  0  0  0  0
  1  6  1  0  0  0  0
  1  7  1  0  0  0  0
  2  1  2  0  0  0  0
  3  4  2  0  0  0  0
  3  2  1  0  0  0  0
  4  5  1  0  0  0  0
  5 19  1  0  0  0  0
  5  6  2  0  0  0  0
  7 15  1  0  0  0  0
  8  7  1  0  0  0  0
  8  9  2  0  0  0  0
  9 10  1  0  0  0  0
 10 11  1  0  0  0  0
 11 12  2  0  0  0  0
 11 16  1  0  0  0  0
 13 12  1  0  0  0  0
 14 13  2  0  0  0  0
 15 14  1  0  0  0  0
 15 10  2  0  0  0  0
 16 17  1  0  0  0  0
 18 16  1  0  0  0  0
 20 19  1  0  0  0  0
 20 25  1  0  0  0  0
 21 20  2  0  0  0  0
 22 21  1  0  0  0  0
 22 23  2  0  0  0  0
 23 24  1  0  0  0  0
 24 25  2  0  0  0  0
 24 26  1  0  0  0  0
 26 27  1  0  0  0  0
 26 33  1  0  0  0  0
 27 28  2  0  0  0  0
 28 29  1  0  0  0  0
 28 30  1  0  0  0  0
 30 31  2  0  0  0  0
 32 30  1  0  0  0  0
 32 35  1  0  0  0  0
 33 32  1  0  0  0  0
 34 33  2  0  0  0  0
M  END
>  <minimizedAffinity>
-7.81885719

$$$$

 OpenBabel03272514403D

 35 39  0  0  0  0  0  0  0  0999 V2000
   32.6600   27.9000   48.6530 C   0  0  0  0  0  0  0  0  0  0  0  0
   32.4760   26.8730   47.7300 C   0  0  0  0  0  3  0  0  0  0  0  0
   31.2030   26.3120   47.6490 C   0  0  0  0  0  3  0  0  0  0  0  0
   30.2230   26.7750   48.4480 N   0  0  0  0  0  0  0  0  0  0  0  0
   30.4070   27.7770   49.3490 C   0  0  0  0  0  0  0  0  0  0  0  0
   31.6540   28.3270   49.4280 N   0  0  0  0  0  0  0  0  0  0  0  0
   33.9360   28.5440   48.8140 N   0  0  0  0  0  0  0  0  0  0  0  0
   34.6530   28.6190   49.9480 C   0  0  0  0  0  3  0  0  0  0  0  0
   35.7770   29.3080   49.6540 N   0  0  0  0  0  0  0  0  0  0  0  0
   35.7460   29.6450   48.3690 C   0  0  0  0  0  0  0  0  0  0  0  0
   36.5840   30.3350   47.5110 C   0  0  0  0  0  0  0  0  0  0  0  0
   36.2630   30.5250   46.1910 N   0  0  0  0  0  0  0  0  0  0  0  0
   35.0910   30.0270   45.7010 C   0  0  0  0  0  3  0  0  0  0  0  0
   34.2520   29.3520   46.5060 N   0  0  0  0  0  0  0  0  0  0  0  0
   34.5880   29.1760   47.8020 C   0  0  0  0  0  0  0  0  0  0  0  0
   37.7990   30.8600   47.9890 N   0  0  0  0  0  0  0  0  0  0  0  0
   38.4240   31.3740   47.3520 H   0  0  0  0  0  0  0  0  0  0  0  0
   38.0630   30.7290   48.9760 H   0  0  0  0  0  0  0  0  0  0  0  0
   29.4510   28.2800   50.1780 O   0  0  0  0  0  0  0  0  0  0  0  0
   28.1600   28.5240   49.8300 C   0  0  0  0  0  0  0  0  0  0  0  0
   26.9400   28.1130   50.3250 C   0  0  0  0  0  3  0  0  0  0  0  0
   25.7460   28.5080   49.7850 C   0  0  0  0  0  3  0  0  0  0  0  0
   25.7550   29.3600   48.6890 C   0  0  0  0  0  3  0  0  0  0  0  0
   26.9740   29.7620   48.2070 C   0  0  0  0  0  0  0  0  0  0  0  0
   28.1610   29.3600   48.7540 N   0  0  0  0  0  0  0  0  0  0  0  0
   26.8750   30.6380   47.0750 N   0  0  0  0  0  0  0  0  0  0  0  0
   27.3060   30.1020   45.8970 C   0  0  0  0  0  3  0  0  0  0  0  0
   27.2880   30.7990   44.6920 C   0  0  0  0  0  0  0  0  0  0  0  0
   27.7730   30.1540   43.4420 C   0  0  0  0  0  1  0  0  0  0  0  0
   26.8070   32.0930   44.7090 C   0  0  0  0  0  0  0  0  0  0  0  0
   26.7660   32.7750   43.6500 O   0  0  0  0  0  0  0  0  0  0  0  0
   26.3920   32.5830   45.8990 N   0  0  0  0  0  0  0  0  0  0  0  0
   26.4180   31.8930   47.0490 C   0  0  0  0  0  0  0  0  0  0  0  0
   26.0380   32.3360   48.1520 O   0  0  0  0  0  0  0  0  0  0  0  0
   26.0330   33.5480   45.9250 H   0  0  0  0  0  0  0  0  0  0  0  0
  1  7  1  0  0  0  0
  1  6  1  0  0  0  0
  2  1  2  0  0  0  0
  3  2  1  0  0  0  0
  3  4  2  0  0  0  0
  4  5  1  0  0  0  0
  5  6  2  0  0  0  0
  5 19  1  0  0  0  0
  7  8  1  0  0  0  0
  9  8  2  0  0  0  0
 10  9  1  0  0  0  0
 11 16  1  0  0  0  0
 11 10  2  0  0  0  0
 12 11  1  0  0  0  0
 13 12  2  0  0  0  0
 13 14  1  0  0  0  0
 14 15  2  0  0  0  0
 15 10  1  0  0  0  0
 15  7  1  0  0  0  0
 16 18  1  0  0  0  0
 17 16  1  0  0  0  0
 20 19  1  0  0  0  0
 20 21  1  0  0  0  0
 22 21  2  0  0  0  0
 23 22  1  0  0  0  0
 24 23  2  0  0  0  0
 24 25  1  0  0  0  0
 25 20  2  0  0  0  0
 26 24  1  0  0  0  0
 27 26  1  0  0  0  0
 28 30  1  0  0  0  0
 28 27  2  0  0  0  0
 29 28  1  0  0  0  0
 30 32  1  0  0  0  0
 31 30  2  0  0  0  0
 32 35  1  0  0  0  0
 32 33  1  0  0  0  0
 33 26  1  0  0  0  0
 33 34  2  0  0  0  0
M  END
>  <minimizedAffinity>
-7.78722715

$$$$

 OpenBabel03272514403D

 35 39  0  0  0  0  0  0  0  0999 V2000
   27.6100   29.0440   47.5790 C   0  0  0  0  0  0  0  0  0  0  0  0
   27.1450   29.9810   48.4970 C   0  0  0  0  0  3  0  0  0  0  0  0
   27.6970   29.9470   49.7770 C   0  0  0  0  0  3  0  0  0  0  0  0
   28.6390   29.0300   50.0670 N   0  0  0  0  0  0  0  0  0  0  0  0
   29.0910   28.1160   49.1670 C   0  0  0  0  0  0  0  0  0  0  0  0
   28.5500   28.1490   47.9140 N   0  0  0  0  0  0  0  0  0  0  0  0
   27.1040   28.9950   46.2330 N   0  0  0  0  0  0  0  0  0  0  0  0
   26.4180   27.9830   45.6770 C   0  0  0  0  0  3  0  0  0  0  0  0
   26.1400   28.3520   44.4070 N   0  0  0  0  0  0  0  0  0  0  0  0
   26.6460   29.5620   44.1950 C   0  0  0  0  0  0  0  0  0  0  0  0
   26.6850   30.4400   43.1260 C   0  0  0  0  0  0  0  0  0  0  0  0
   27.3050   31.6600   43.2200 N   0  0  0  0  0  0  0  0  0  0  0  0
   27.9020   32.0270   44.3910 C   0  0  0  0  0  3  0  0  0  0  0  0
   27.8840   31.2000   45.4500 N   0  0  0  0  0  0  0  0  0  0  0  0
   27.2670   30.0030   45.3360 C   0  0  0  0  0  0  0  0  0  0  0  0
   26.0780   30.0870   41.9070 N   0  0  0  0  0  0  0  0  0  0  0  0
   26.1070   30.7390   41.1100 H   0  0  0  0  0  0  0  0  0  0  0  0
   25.6050   29.1770   41.8120 H   0  0  0  0  0  0  0  0  0  0  0  0
   30.0400   27.1690   49.4100 O   0  0  0  0  0  0  0  0  0  0  0  0
   31.1210   26.9230   48.6260 C   0  0  0  0  0  0  0  0  0  0  0  0
   31.4390   25.9370   47.7140 C   0  0  0  0  0  3  0  0  0  0  0  0
   32.6260   25.9070   47.0340 C   0  0  0  0  0  3  0  0  0  0  0  0
   33.5580   26.9100   47.2670 C   0  0  0  0  0  3  0  0  0  0  0  0
   33.2300   27.8840   48.1740 C   0  0  0  0  0  0  0  0  0  0  0  0
   32.0410   27.9030   48.8490 N   0  0  0  0  0  0  0  0  0  0  0  0
   34.2580   28.8710   48.3430 N   0  0  0  0  0  0  0  0  0  0  0  0
   34.8780   28.8480   49.5580 C   0  0  0  0  0  3  0  0  0  0  0  0
   35.8990   29.7280   49.9080 C   0  0  0  0  0  0  0  0  0  0  0  0
   36.5340   29.6490   51.2510 C   0  0  0  0  0  1  0  0  0  0  0  0
   36.2890   30.6600   48.9670 C   0  0  0  0  0  0  0  0  0  0  0  0
   37.2070   31.4840   49.2250 O   0  0  0  0  0  0  0  0  0  0  0  0
   35.6460   30.6460   47.7770 N   0  0  0  0  0  0  0  0  0  0  0  0
   34.6640   29.7880   47.4620 C   0  0  0  0  0  0  0  0  0  0  0  0
   34.0650   29.7670   46.3670 O   0  0  0  0  0  0  0  0  0  0  0  0
   35.9280   31.3380   47.0690 H   0  0  0  0  0  0  0  0  0  0  0  0
  1  6  2  0  0  0  0
  1  2  1  0  0  0  0
  2  3  2  0  0  0  0
  3  4  1  0  0  0  0
  5 19  1  0  0  0  0
  5  4  2  0  0  0  0
  6  5  1  0  0  0  0
  7  1  1  0  0  0  0
  8  7  1  0  0  0  0
  9  8  2  0  0  0  0
 10  9  1  0  0  0  0
 10 15  1  0  0  0  0
 11 12  1  0  0  0  0
 11 10  2  0  0  0  0
 12 13  2  0  0  0  0
 13 14  1  0  0  0  0
 15 14  2  0  0  0  0
 15  7  1  0  0  0  0
 16 11  1  0  0  0  0
 17 16  1  0  0  0  0
 18 16  1  0  0  0  0
 20 25  1  0  0  0  0
 20 19  1  0  0  0  0
 21 20  2  0  0  0  0
 22 23  2  0  0  0  0
 22 21  1  0  0  0  0
 23 24  1  0  0  0  0
 24 26  1  0  0  0  0
 24 25  2  0  0  0  0
 26 27  1  0  0  0  0
 27 28  2  0  0  0  0
 28 29  1  0  0  0  0
 30 31  2  0  0  0  0
 30 28  1  0  0  0  0
 32 30  1  0  0  0  0
 33 32  1  0  0  0  0
 33 26  1  0  0  0  0
 34 33  2  0  0  0  0
 35 32  1  0  0  0  0
M  END
>  <minimizedAffinity>
-7.66787338

$$$$

 OpenBabel03272514403D

 35 39  0  0  0  0  0  0  0  0999 V2000
   27.8380   27.5110   47.9290 C   0  0  0  0  0  0  0  0  0  0  0  0
   27.0050   26.8900   48.8550 C   0  0  0  0  0  3  0  0  0  0  0  0
   27.5270   26.6600   50.1270 C   0  0  0  0  0  3  0  0  0  0  0  0
   28.7880   27.0390   50.4030 N   0  0  0  0  0  0  0  0  0  0  0  0
   29.6000   27.6450   49.4960 C   0  0  0  0  0  0  0  0  0  0  0  0
   29.0890   27.8710   48.2500 N   0  0  0  0  0  0  0  0  0  0  0  0
   27.3940   27.7930   46.5900 N   0  0  0  0  0  0  0  0  0  0  0  0
   26.7230   28.8840   46.1870 C   0  0  0  0  0  3  0  0  0  0  0  0
   26.5070   28.7420   44.8610 N   0  0  0  0  0  0  0  0  0  0  0  0
   27.0350   27.5880   44.4650 C   0  0  0  0  0  0  0  0  0  0  0  0
   27.1320   26.9110   43.2630 C   0  0  0  0  0  0  0  0  0  0  0  0
   27.7610   25.6950   43.1720 N   0  0  0  0  0  0  0  0  0  0  0  0
   28.3080   25.1310   44.2870 C   0  0  0  0  0  3  0  0  0  0  0  0
   28.2320   25.7600   45.4730 N   0  0  0  0  0  0  0  0  0  0  0  0
   27.6090   26.9570   45.5400 C   0  0  0  0  0  0  0  0  0  0  0  0
   26.5780   27.4690   42.0970 N   0  0  0  0  0  0  0  0  0  0  0  0
   26.6490   26.9660   41.2010 H   0  0  0  0  0  0  0  0  0  0  0  0
   26.1020   28.3810   42.1390 H   0  0  0  0  0  0  0  0  0  0  0  0
   30.8810   28.0480   49.7250 O   0  0  0  0  0  0  0  0  0  0  0  0
   31.9590   27.7000   48.9750 C   0  0  0  0  0  0  0  0  0  0  0  0
   32.2080   26.6940   48.0650 C   0  0  0  0  0  3  0  0  0  0  0  0
   33.4090   26.5500   47.4250 C   0  0  0  0  0  3  0  0  0  0  0  0
   34.4280   27.4530   47.6990 C   0  0  0  0  0  3  0  0  0  0  0  0
   34.1670   28.4480   48.6050 C   0  0  0  0  0  0  0  0  0  0  0  0
   32.9630   28.5820   49.2400 N   0  0  0  0  0  0  0  0  0  0  0  0
   35.2820   29.3260   48.8190 N   0  0  0  0  0  0  0  0  0  0  0  0
   35.8540   29.2330   50.0540 C   0  0  0  0  0  3  0  0  0  0  0  0
   36.9450   30.0040   50.4470 C   0  0  0  0  0  0  0  0  0  0  0  0
   37.5220   29.8530   51.8100 C   0  0  0  0  0  1  0  0  0  0  0  0
   37.4580   30.8990   49.5300 C   0  0  0  0  0  0  0  0  0  0  0  0
   38.4450   31.6250   49.8270 O   0  0  0  0  0  0  0  0  0  0  0  0
   36.8590   30.9580   48.3190 N   0  0  0  0  0  0  0  0  0  0  0  0
   35.8080   30.2040   47.9620 C   0  0  0  0  0  0  0  0  0  0  0  0
   35.2480   30.2510   46.8480 O   0  0  0  0  0  0  0  0  0  0  0  0
   37.2320   31.6230   47.6280 H   0  0  0  0  0  0  0  0  0  0  0  0
  1  6  2  0  0  0  0
  1  2  1  0  0  0  0
  2  3  2  0  0  0  0
  3  4  1  0  0  0  0
  5 19  1  0  0  0  0
  5  4  2  0  0  0  0
  6  5  1  0  0  0  0
  7  1  1  0  0  0  0
  8  7  1  0  0  0  0
  9  8  2  0  0  0  0
 10  9  1  0  0  0  0
 10 15  1  0  0  0  0
 11 10  2  0  0  0  0
 12 11  1  0  0  0  0
 12 13  2  0  0  0  0
 13 14  1  0  0  0  0
 14 15  2  0  0  0  0
 15  7  1  0  0  0  0
 16 18  1  0  0  0  0
 16 11  1  0  0  0  0
 17 16  1  0  0  0  0
 20 25  1  0  0  0  0
 20 19  1  0  0  0  0
 21 20  2  0  0  0  0
 22 23  2  0  0  0  0
 22 21  1  0  0  0  0
 23 24  1  0  0  0  0
 24 26  1  0  0  0  0
 24 25  2  0  0  0  0
 26 27  1  0  0  0  0
 27 28  2  0  0  0  0
 28 29  1  0  0  0  0
 30 31  2  0  0  0  0
 30 28  1  0  0  0  0
 32 30  1  0  0  0  0
 33 32  1  0  0  0  0
 33 26  1  0  0  0  0
 34 33  2  0  0  0  0
 35 32  1  0  0  0  0
M  END
>  <minimizedAffinity>
-7.46018553

$$$$

 OpenBabel03272514403D

 35 39  0  0  0  0  0  0  0  0999 V2000
   27.9120   29.4700   46.3620 C   0  0  0  0  0  0  0  0  0  0  0  0
   27.1380   29.5050   45.2050 C   0  0  0  0  0  3  0  0  0  0  0  0
   27.7390   30.0090   44.0520 C   0  0  0  0  0  3  0  0  0  0  0  0
   29.0160   30.4310   44.1020 N   0  0  0  0  0  0  0  0  0  0  0  0
   29.7690   30.3960   45.2340 C   0  0  0  0  0  0  0  0  0  0  0  0
   29.1810   29.9030   46.3630 N   0  0  0  0  0  0  0  0  0  0  0  0
   27.3850   28.9690   47.6030 N   0  0  0  0  0  0  0  0  0  0  0  0
   26.1260   29.1110   48.0480 C   0  0  0  0  0  3  0  0  0  0  0  0
   26.0640   28.4940   49.2480 N   0  0  0  0  0  0  0  0  0  0  0  0
   27.2600   27.9870   49.5280 C   0  0  0  0  0  0  0  0  0  0  0  0
   27.8040   27.2690   50.5770 C   0  0  0  0  0  0  0  0  0  0  0  0
   29.1180   26.8750   50.5740 N   0  0  0  0  0  0  0  0  0  0  0  0
   29.9180   27.1960   49.5170 C   0  0  0  0  0  3  0  0  0  0  0  0
   29.4240   27.8950   48.4800 N   0  0  0  0  0  0  0  0  0  0  0  0
   28.1270   28.2710   48.5030 C   0  0  0  0  0  0  0  0  0  0  0  0
   27.0030   26.9240   51.6810 N   0  0  0  0  0  0  0  0  0  0  0  0
   27.4060   26.3890   52.4630 H   0  0  0  0  0  0  0  0  0  0  0  0
   26.0120   27.2060   51.7060 H   0  0  0  0  0  0  0  0  0  0  0  0
   31.0620   30.8100   45.3360 O   0  0  0  0  0  0  0  0  0  0  0  0
   32.1540   30.0420   45.0810 C   0  0  0  0  0  0  0  0  0  0  0  0
   32.4550   29.0880   44.1310 C   0  0  0  0  0  3  0  0  0  0  0  0
   33.6580   28.4380   44.0850 C   0  0  0  0  0  3  0  0  0  0  0  0
   34.6250   28.7460   45.0320 C   0  0  0  0  0  3  0  0  0  0  0  0
   34.3140   29.6960   45.9710 C   0  0  0  0  0  0  0  0  0  0  0  0
   33.1080   30.3390   46.0090 N   0  0  0  0  0  0  0  0  0  0  0  0
   35.3770   29.9410   46.9030 N   0  0  0  0  0  0  0  0  0  0  0  0
   35.1260   29.5240   48.1780 C   0  0  0  0  0  3  0  0  0  0  0  0
   36.0370   29.6750   49.2210 C   0  0  0  0  0  0  0  0  0  0  0  0
   35.7010   29.1970   50.5890 C   0  0  0  0  0  1  0  0  0  0  0  0
   37.2440   30.2780   48.9310 C   0  0  0  0  0  0  0  0  0  0  0  0
   38.1090   30.4430   49.8340 O   0  0  0  0  0  0  0  0  0  0  0  0
   37.4490   30.6760   47.6550 N   0  0  0  0  0  0  0  0  0  0  0  0
   36.5560   30.5190   46.6660 C   0  0  0  0  0  0  0  0  0  0  0  0
   36.7350   30.8830   45.4860 O   0  0  0  0  0  0  0  0  0  0  0  0
   38.3460   31.1280   47.4290 H   0  0  0  0  0  0  0  0  0  0  0  0
  1  6  1  0  0  0  0
  1  7  1  0  0  0  0
  2  1  2  0  0  0  0
  3  4  2  0  0  0  0
  3  2  1  0  0  0  0
  4  5  1  0  0  0  0
  5 19  1  0  0  0  0
  5  6  2  0  0  0  0
  7  8  1  0  0  0  0
  7 15  1  0  0  0  0
  8  9  2  0  0  0  0
  9 10  1  0  0  0  0
 10 11  1  0  0  0  0
 11 16  1  0  0  0  0
 12 11  2  0  0  0  0
 13 12  1  0  0  0  0
 14 15  1  0  0  0  0
 14 13  2  0  0  0  0
 15 10  2  0  0  0  0
 16 18  1  0  0  0  0
 16 17  1  0  0  0  0
 20 19  1  0  0  0  0
 20 25  1  0  0  0  0
 21 20  2  0  0  0  0
 22 21  1  0  0  0  0
 22 23  2  0  0  0  0
 23 24  1  0  0  0  0
 24 25  2  0  0  0  0
 24 26  1  0  0  0  0
 26 27  1  0  0  0  0
 27 28  2  0  0  0  0
 28 29  1  0  0  0  0
 30 28  1  0  0  0  0
 30 31  2  0  0  0  0
 32 30  1  0  0  0  0
 33 26  1  0  0  0  0
 33 32  1  0  0  0  0
 34 33  2  0  0  0  0
 35 32  1  0  0  0  0
M  END
>  <minimizedAffinity>
-7.45347309

$$$$

 OpenBabel03272514403D

 35 39  0  0  0  0  0  0  0  0999 V2000
   35.0570   29.6130   47.8440 C   0  0  0  0  0  0  0  0  0  0  0  0
   35.0730   29.0910   49.1350 C   0  0  0  0  0  3  0  0  0  0  0  0
   33.9830   28.3140   49.5220 C   0  0  0  0  0  3  0  0  0  0  0  0
   32.9790   28.1020   48.6500 N   0  0  0  0  0  0  0  0  0  0  0  0
   32.9660   28.6130   47.3900 C   0  0  0  0  0  0  0  0  0  0  0  0
   34.0340   29.3740   47.0110 N   0  0  0  0  0  0  0  0  0  0  0  0
   36.1340   30.4270   47.3500 N   0  0  0  0  0  0  0  0  0  0  0  0
   37.0310   31.0970   48.0920 C   0  0  0  0  0  3  0  0  0  0  0  0
   37.8580   31.7280   47.2290 N   0  0  0  0  0  0  0  0  0  0  0  0
   37.4730   31.4480   45.9890 C   0  0  0  0  0  0  0  0  0  0  0  0
   37.9110   31.7880   44.7220 C   0  0  0  0  0  0  0  0  0  0  0  0
   37.2820   31.3230   43.5950 N   0  0  0  0  0  0  0  0  0  0  0  0
   36.1970   30.5050   43.7140 C   0  0  0  0  0  3  0  0  0  0  0  0
   35.7430   30.1530   44.9300 N   0  0  0  0  0  0  0  0  0  0  0  0
   36.3780   30.6220   46.0270 C   0  0  0  0  0  0  0  0  0  0  0  0
   39.0270   32.6300   44.5680 N   0  0  0  0  0  0  0  0  0  0  0  0
   39.3550   32.8850   43.6260 H   0  0  0  0  0  0  0  0  0  0  0  0
   39.5180   32.9910   45.3990 H   0  0  0  0  0  0  0  0  0  0  0  0
   31.9770   28.4280   46.4720 O   0  0  0  0  0  0  0  0  0  0  0  0
   30.7170   28.0020   46.7520 C   0  0  0  0  0  0  0  0  0  0  0  0
   30.1410   26.7590   46.9170 C   0  0  0  0  0  3  0  0  0  0  0  0
   28.8130   26.5870   47.2010 C   0  0  0  0  0  3  0  0  0  0  0  0
   28.0040   27.7070   47.3290 C   0  0  0  0  0  3  0  0  0  0  0  0
   28.5890   28.9360   47.1630 C   0  0  0  0  0  0  0  0  0  0  0  0
   29.9160   29.0970   46.8790 N   0  0  0  0  0  0  0  0  0  0  0  0
   27.6680   30.0270   47.3140 N   0  0  0  0  0  0  0  0  0  0  0  0
   27.4010   30.7120   46.1650 C   0  0  0  0  0  3  0  0  0  0  0  0
   26.5340   31.8010   46.1130 C   0  0  0  0  0  0  0  0  0  0  0  0
   26.2870   32.5050   44.8260 C   0  0  0  0  0  1  0  0  0  0  0  0
   25.9260   32.1890   47.2890 C   0  0  0  0  0  0  0  0  0  0  0  0
   25.1310   33.1680   47.3060 O   0  0  0  0  0  0  0  0  0  0  0  0
   26.2210   31.4820   48.4030 N   0  0  0  0  0  0  0  0  0  0  0  0
   27.0590   30.4350   48.4300 C   0  0  0  0  0  0  0  0  0  0  0  0
   27.3380   29.7750   49.4520 O   0  0  0  0  0  0  0  0  0  0  0  0
   25.7730   31.7640   49.2870 H   0  0  0  0  0  0  0  0  0  0  0  0
  1  2  1  0  0  0  0
  2  3  2  0  0  0  0
  4  3  1  0  0  0  0
  5  4  2  0  0  0  0
  6  5  1  0  0  0  0
  6  1  2  0  0  0  0
  7  1  1  0  0  0  0
  7  8  1  0  0  0  0
  9  8  2  0  0  0  0
 10 15  1  0  0  0  0
 10  9  1  0  0  0  0
 11 10  2  0  0  0  0
 12 13  2  0  0  0  0
 12 11  1  0  0  0  0
 13 14  1  0  0  0  0
 14 15  2  0  0  0  0
 15  7  1  0  0  0  0
 16 11  1  0  0  0  0
 16 18  1  0  0  0  0
 17 16  1  0  0  0  0
 19 20  1  0  0  0  0
 19  5  1  0  0  0  0
 20 25  2  0  0  0  0
 20 21  1  0  0  0  0
 21 22  2  0  0  0  0
 22 23  1  0  0  0  0
 24 26  1  0  0  0  0
 24 23  2  0  0  0  0
 25 24  1  0  0  0  0
 26 33  1  0  0  0  0
 27 26  1  0  0  0  0
 28 27  2  0  0  0  0
 28 30  1  0  0  0  0
 29 28  1  0  0  0  0
 30 31  2  0  0  0  0
 30 32  1  0  0  0  0
 32 33  1  0  0  0  0
 32 35  1  0  0  0  0
 33 34  2  0  0  0  0
M  END
>  <minimizedAffinity>
-7.31916952

$$$$
