
 OpenBabel03272514483D

 41 47  0  0  0  0  0  0  0  0999 V2000
   30.2670   31.1150   42.6680 C   0  0  0  0  0  0  0  0  0  0  0  0
   29.0080   31.4820   43.2120 C   0  0  0  0  0  3  0  0  0  0  0  0
   28.8040   31.2240   44.5450 C   0  0  0  0  0  3  0  0  0  0  0  0
   29.8240   30.6480   45.1960 N   0  0  0  0  0  0  0  0  0  0  0  0
   30.9850   30.3040   44.7210 C   0  0  0  0  0  0  0  0  0  0  0  0
   31.2050   30.5470   43.4210 N   0  0  0  0  0  0  0  0  0  0  0  0
   31.8760   29.7220   45.6360 N   0  0  0  0  0  0  0  0  0  0  0  0
   33.0040   30.4080   45.9640 C   0  0  0  0  0  3  0  0  0  0  0  0
   33.7290   29.6610   46.8680 C   0  0  0  0  0  0  0  0  0  0  0  0
   33.0410   28.5400   47.0760 N   0  0  0  0  0  0  0  0  0  0  0  0
   31.8860   28.5700   46.3110 C   0  0  0  0  0  0  0  0  0  0  0  0
   30.9290   27.5150   46.2700 C   0  0  0  0  0  0  0  0  0  0  0  0
   30.9250   26.5440   45.2520 C   0  0  0  0  0  3  0  0  0  0  0  0
   29.8790   25.6800   45.4580 N   0  0  0  0  0  0  0  0  0  0  0  0
   29.2320   26.1270   46.6160 C   0  0  0  0  0  3  0  0  0  0  0  0
   29.9070   27.1910   47.0250 N   0  0  0  0  0  0  0  0  0  0  0  0
   29.2560   27.5270   48.2170 C   0  0  0  0  0  0  0  0  0  0  0  0
   29.7360   26.8450   49.2620 N   0  0  0  0  0  0  0  0  0  0  0  0
   29.1730   27.0120   50.4880 C   0  0  0  0  0  3  0  0  0  0  0  0
   28.1490   27.8310   50.7290 N   0  0  0  0  0  0  0  0  0  0  0  0
   27.6340   28.5390   49.7030 C   0  0  0  0  0  0  0  0  0  0  0  0
   26.5860   29.4110   49.8090 C   0  0  0  0  0  3  0  0  0  0  0  0
   26.1030   30.0990   48.7340 C   0  0  0  0  0  3  0  0  0  0  0  0
   26.6920   29.9120   47.4890 C   0  0  0  0  0  3  0  0  0  0  0  0
   27.7480   29.0520   47.3200 C   0  0  0  0  0  3  0  0  0  0  0  0
   28.1940   28.3870   48.4300 C   0  0  0  0  0  0  0  0  0  0  0  0
   34.9730   29.9470   47.5030 N   0  0  0  0  0  0  0  0  0  0  0  0
   36.0490   30.4650   46.8430 C   0  0  0  0  0  3  0  0  0  0  0  0
   37.1150   30.6450   47.6710 N   0  0  0  0  0  0  0  0  0  0  0  0
   36.6730   30.2240   48.8800 C   0  0  0  0  0  0  0  0  0  0  0  0
   37.2310   30.1340   50.1400 C   0  0  0  0  0  0  0  0  0  0  0  0
   36.5420   29.6600   51.1980 N   0  0  0  0  0  0  0  0  0  0  0  0
   35.2560   29.2480   51.0650 C   0  0  0  0  0  3  0  0  0  0  0  0
   34.6980   29.3290   49.8400 N   0  0  0  0  0  0  0  0  0  0  0  0
   35.3640   29.7950   48.7830 C   0  0  0  0  0  0  0  0  0  0  0  0
   38.5760   30.5510   50.3450 N   0  0  0  0  0  0  0  0  0  0  0  0
   38.9980   30.4870   51.2820 H   0  0  0  0  0  0  0  0  0  0  0  0
   39.1270   30.9180   49.5560 H   0  0  0  0  0  0  0  0  0  0  0  0
   30.5270   31.3830   41.2740 N   0  0  0  0  0  0  0  0  0  0  0  0
   31.4350   31.1250   40.8600 H   0  0  0  0  0  0  0  0  0  0  0  0
   29.8060   31.8330   40.6920 H   0  0  0  0  0  0  0  0  0  0  0  0
  1  2  2  0  0  0  0
  1  6  1  0  0  0  0
  2  3  1  0  0  0  0
  3  4  2  0  0  0  0
  5  4  1  0  0  0  0
  5  7  1  0  0  0  0
  6  5  2  0  0  0  0
  7  8  1  0  0  0  0
  7 11  1  0  0  0  0
  8  9  2  0  0  0  0
  9 10  1  0  0  0  0
  9 27  1  0  0  0  0
 11 10  2  0  0  0  0
 12 11  1  0  0  0  0
 12 16  1  0  0  0  0
 13 14  1  0  0  0  0
 13 12  2  0  0  0  0
 14 15  2  0  0  0  0
 15 16  1  0  0  0  0
 16 17  1  0  0  0  0
 17 26  2  0  0  0  0
 17 18  1  0  0  0  0
 18 19  2  0  0  0  0
 19 20  1  0  0  0  0
 21 22  1  0  0  0  0
 21 20  2  0  0  0  0
 23 22  2  0  0  0  0
 24 23  1  0  0  0  0
 25 24  2  0  0  0  0
 25 26  1  0  0  0  0
 26 21  1  0  0  0  0
 27 35  1  0  0  0  0
 28 27  1  0  0  0  0
 28 29  2  0  0  0  0
 29 30  1  0  0  0  0
 30 31  1  0  0  0  0
 31 36  1  0  0  0  0
 31 32  2  0  0  0  0
 33 32  1  0  0  0  0
 34 33  2  0  0  0  0
 35 30  2  0  0  0  0
 35 34  1  0  0  0  0
 36 37  1  0  0  0  0
 38 36  1  0  0  0  0
 39  1  1  0  0  0  0
 40 39  1  0  0  0  0
 41 39  1  0  0  0  0
M  END
>  <minimizedAffinity>
-8.24274063

$$$$

 OpenBabel03272514483D

 41 47  0  0  0  0  0  0  0  0999 V2000
   31.2780   31.5040   42.2130 C   0  0  0  0  0  0  0  0  0  0  0  0
   30.0970   32.2510   42.4600 C   0  0  0  0  0  3  0  0  0  0  0  0
   29.5600   32.1730   43.7210 C   0  0  0  0  0  3  0  0  0  0  0  0
   30.2130   31.3910   44.5920 N   0  0  0  0  0  0  0  0  0  0  0  0
   31.2960   30.6980   44.3900 C   0  0  0  0  0  0  0  0  0  0  0  0
   31.8370   30.7610   43.1650 N   0  0  0  0  0  0  0  0  0  0  0  0
   31.7730   29.9690   45.4900 N   0  0  0  0  0  0  0  0  0  0  0  0
   32.9600   30.3380   46.0430 C   0  0  0  0  0  3  0  0  0  0  0  0
   33.2370   29.4970   47.0990 C   0  0  0  0  0  0  0  0  0  0  0  0
   32.2250   28.6340   47.1750 N   0  0  0  0  0  0  0  0  0  0  0  0
   31.3100   28.9210   46.1750 C   0  0  0  0  0  0  0  0  0  0  0  0
   30.1170   28.1760   45.9490 C   0  0  0  0  0  0  0  0  0  0  0  0
   30.0140   27.2160   44.9240 C   0  0  0  0  0  3  0  0  0  0  0  0
   28.7490   26.6850   44.9290 N   0  0  0  0  0  0  0  0  0  0  0  0
   28.0650   27.3290   45.9670 C   0  0  0  0  0  3  0  0  0  0  0  0
   28.9320   28.1730   46.5080 N   0  0  0  0  0  0  0  0  0  0  0  0
   28.2070   28.7130   47.5770 C   0  0  0  0  0  0  0  0  0  0  0  0
   28.2890   27.9530   48.6750 N   0  0  0  0  0  0  0  0  0  0  0  0
   27.5940   28.3070   49.7880 C   0  0  0  0  0  3  0  0  0  0  0  0
   26.8160   29.3860   49.8660 N   0  0  0  0  0  0  0  0  0  0  0  0
   26.7050   30.1800   48.7820 C   0  0  0  0  0  0  0  0  0  0  0  0
   25.9420   31.3140   48.7240 C   0  0  0  0  0  3  0  0  0  0  0  0
   25.8630   32.0790   47.5960 C   0  0  0  0  0  3  0  0  0  0  0  0
   26.5810   31.6980   46.4680 C   0  0  0  0  0  3  0  0  0  0  0  0
   27.3650   30.5720   46.4660 C   0  0  0  0  0  3  0  0  0  0  0  0
   27.4090   29.8410   47.6210 C   0  0  0  0  0  0  0  0  0  0  0  0
   34.3530   29.4760   47.9850 N   0  0  0  0  0  0  0  0  0  0  0  0
   34.3140   28.9080   49.2250 C   0  0  0  0  0  3  0  0  0  0  0  0
   35.5060   29.0200   49.8730 N   0  0  0  0  0  0  0  0  0  0  0  0
   36.3020   29.6790   48.9970 C   0  0  0  0  0  0  0  0  0  0  0  0
   37.6130   30.1120   49.0130 C   0  0  0  0  0  0  0  0  0  0  0  0
   38.1660   30.7660   47.9710 N   0  0  0  0  0  0  0  0  0  0  0  0
   37.4470   31.0240   46.8500 C   0  0  0  0  0  3  0  0  0  0  0  0
   36.1640   30.6070   46.8200 N   0  0  0  0  0  0  0  0  0  0  0  0
   35.6020   29.9600   47.8410 C   0  0  0  0  0  0  0  0  0  0  0  0
   38.4200   29.8710   50.1600 N   0  0  0  0  0  0  0  0  0  0  0  0
   39.3990   30.1920   50.1780 H   0  0  0  0  0  0  0  0  0  0  0  0
   38.0260   29.3740   50.9720 H   0  0  0  0  0  0  0  0  0  0  0  0
   31.8840   31.5710   40.9040 N   0  0  0  0  0  0  0  0  0  0  0  0
   32.7420   31.0350   40.7060 H   0  0  0  0  0  0  0  0  0  0  0  0
   31.4590   32.1530   40.1690 H   0  0  0  0  0  0  0  0  0  0  0  0
  1  2  2  0  0  0  0
  1  6  1  0  0  0  0
  2  3  1  0  0  0  0
  3  4  2  0  0  0  0
  5  4  1  0  0  0  0
  5  7  1  0  0  0  0
  6  5  2  0  0  0  0
  7  8  1  0  0  0  0
  7 11  1  0  0  0  0
  8  9  2  0  0  0  0
  9 10  1  0  0  0  0
  9 27  1  0  0  0  0
 11 10  2  0  0  0  0
 12 11  1  0  0  0  0
 12 16  1  0  0  0  0
 13 14  1  0  0  0  0
 13 12  2  0  0  0  0
 14 15  2  0  0  0  0
 15 16  1  0  0  0  0
 16 17  1  0  0  0  0
 17 26  2  0  0  0  0
 17 18  1  0  0  0  0
 18 19  2  0  0  0  0
 19 20  1  0  0  0  0
 21 20  2  0  0  0  0
 22 21  1  0  0  0  0
 23 22  2  0  0  0  0
 24 23  1  0  0  0  0
 25 24  2  0  0  0  0
 25 26  1  0  0  0  0
 26 21  1  0  0  0  0
 27 28  1  0  0  0  0
 28 29  2  0  0  0  0
 30 31  1  0  0  0  0
 30 29  1  0  0  0  0
 31 36  1  0  0  0  0
 32 31  2  0  0  0  0
 33 32  1  0  0  0  0
 34 33  2  0  0  0  0
 34 35  1  0  0  0  0
 35 27  1  0  0  0  0
 35 30  2  0  0  0  0
 36 37  1  0  0  0  0
 36 38  1  0  0  0  0
 39  1  1  0  0  0  0
 40 39  1  0  0  0  0
 41 39  1  0  0  0  0
M  END
>  <minimizedAffinity>
-8.21555996

$$$$

 OpenBabel03272514483D

 41 47  0  0  0  0  0  0  0  0999 V2000
   32.2920   27.8380   47.8490 C   0  0  0  0  0  0  0  0  0  0  0  0
   33.3510   28.1100   48.7550 C   0  0  0  0  0  3  0  0  0  0  0  0
   34.2210   29.1160   48.4140 C   0  0  0  0  0  3  0  0  0  0  0  0
   33.9770   29.7380   47.2520 N   0  0  0  0  0  0  0  0  0  0  0  0
   33.0150   29.5080   46.4080 C   0  0  0  0  0  0  0  0  0  0  0  0
   32.1530   28.5290   46.7210 N   0  0  0  0  0  0  0  0  0  0  0  0
   32.9920   30.3220   45.2650 N   0  0  0  0  0  0  0  0  0  0  0  0
   31.9590   31.1950   45.1160 C   0  0  0  0  0  3  0  0  0  0  0  0
   32.1320   31.8890   43.9370 C   0  0  0  0  0  0  0  0  0  0  0  0
   33.2570   31.4320   43.3880 N   0  0  0  0  0  0  0  0  0  0  0  0
   33.7970   30.4550   44.2090 C   0  0  0  0  0  0  0  0  0  0  0  0
   34.9890   29.7340   43.9110 C   0  0  0  0  0  0  0  0  0  0  0  0
   34.9650   28.4320   43.3760 C   0  0  0  0  0  3  0  0  0  0  0  0
   36.2530   27.9840   43.2230 N   0  0  0  0  0  0  0  0  0  0  0  0
   37.0780   29.0220   43.6710 C   0  0  0  0  0  3  0  0  0  0  0  0
   36.2650   29.9990   44.0480 N   0  0  0  0  0  0  0  0  0  0  0  0
   37.1560   31.0190   44.4010 C   0  0  0  0  0  0  0  0  0  0  0  0
   37.5220   31.7560   43.3470 N   0  0  0  0  0  0  0  0  0  0  0  0
   38.4290   32.7540   43.5090 C   0  0  0  0  0  3  0  0  0  0  0  0
   38.9950   33.0610   44.6760 N   0  0  0  0  0  0  0  0  0  0  0  0
   38.6540   32.3430   45.7660 C   0  0  0  0  0  0  0  0  0  0  0  0
   39.1580   32.5490   47.0210 C   0  0  0  0  0  3  0  0  0  0  0  0
   38.7790   31.7880   48.0890 C   0  0  0  0  0  3  0  0  0  0  0  0
   37.8510   30.7700   47.9000 C   0  0  0  0  0  3  0  0  0  0  0  0
   37.3090   30.5170   46.6650 C   0  0  0  0  0  3  0  0  0  0  0  0
   37.7220   31.3090   45.6290 C   0  0  0  0  0  0  0  0  0  0  0  0
   31.3260   32.9020   43.3440 N   0  0  0  0  0  0  0  0  0  0  0  0
   31.8270   34.0860   42.8860 C   0  0  0  0  0  3  0  0  0  0  0  0
   30.8530   34.8830   42.3650 N   0  0  0  0  0  0  0  0  0  0  0  0
   29.7170   34.1590   42.5090 C   0  0  0  0  0  0  0  0  0  0  0  0
   28.3880   34.3680   42.1990 C   0  0  0  0  0  0  0  0  0  0  0  0
   27.4360   33.4500   42.4630 N   0  0  0  0  0  0  0  0  0  0  0  0
   27.7520   32.2690   43.0510 C   0  0  0  0  0  3  0  0  0  0  0  0
   29.0460   32.0520   43.3620 N   0  0  0  0  0  0  0  0  0  0  0  0
   30.0000   32.9480   43.1080 C   0  0  0  0  0  0  0  0  0  0  0  0
   27.9930   35.5870   41.5790 N   0  0  0  0  0  0  0  0  0  0  0  0
   27.0030   35.7490   41.3440 H   0  0  0  0  0  0  0  0  0  0  0  0
   28.6970   36.3070   41.3640 H   0  0  0  0  0  0  0  0  0  0  0  0
   31.3450   26.7980   48.1770 N   0  0  0  0  0  0  0  0  0  0  0  0
   30.5700   26.5860   47.5330 H   0  0  0  0  0  0  0  0  0  0  0  0
   31.4450   26.2680   49.0550 H   0  0  0  0  0  0  0  0  0  0  0  0
  1 39  1  0  0  0  0
  1  2  1  0  0  0  0
  3  2  2  0  0  0  0
  4  3  1  0  0  0  0
  5  6  1  0  0  0  0
  5  4  2  0  0  0  0
  6  1  2  0  0  0  0
  7  5  1  0  0  0  0
  8  7  1  0  0  0  0
  9  8  2  0  0  0  0
 10  9  1  0  0  0  0
 10 11  2  0  0  0  0
 11  7  1  0  0  0  0
 12 16  1  0  0  0  0
 12 11  1  0  0  0  0
 13 12  2  0  0  0  0
 14 13  1  0  0  0  0
 14 15  2  0  0  0  0
 15 16  1  0  0  0  0
 16 17  1  0  0  0  0
 17 26  1  0  0  0  0
 18 19  1  0  0  0  0
 18 17  2  0  0  0  0
 19 20  2  0  0  0  0
 20 21  1  0  0  0  0
 21 22  1  0  0  0  0
 22 23  2  0  0  0  0
 24 23  1  0  0  0  0
 25 24  2  0  0  0  0
 26 21  2  0  0  0  0
 26 25  1  0  0  0  0
 27  9  1  0  0  0  0
 28 27  1  0  0  0  0
 29 30  1  0  0  0  0
 29 28  2  0  0  0  0
 30 35  1  0  0  0  0
 31 32  1  0  0  0  0
 31 30  2  0  0  0  0
 32 33  2  0  0  0  0
 33 34  1  0  0  0  0
 35 27  1  0  0  0  0
 35 34  2  0  0  0  0
 36 31  1  0  0  0  0
 37 36  1  0  0  0  0
 38 36  1  0  0  0  0
 39 41  1  0  0  0  0
 40 39  1  0  0  0  0
M  END
>  <minimizedAffinity>
-7.42706108

$$$$

 OpenBabel03272514483D

 41 47  0  0  0  0  0  0  0  0999 V2000
   31.4270   24.8460   45.3420 C   0  0  0  0  0  0  0  0  0  0  0  0
   31.2820   24.8450   43.9300 C   0  0  0  0  0  3  0  0  0  0  0  0
   31.6470   25.9880   43.2640 C   0  0  0  0  0  3  0  0  0  0  0  0
   32.1030   26.9930   44.0240 N   0  0  0  0  0  0  0  0  0  0  0  0
   32.2450   27.0190   45.3170 C   0  0  0  0  0  0  0  0  0  0  0  0
   31.8950   25.9110   45.9880 N   0  0  0  0  0  0  0  0  0  0  0  0
   32.7570   28.2080   45.8560 N   0  0  0  0  0  0  0  0  0  0  0  0
   33.9900   28.1780   46.4310 C   0  0  0  0  0  3  0  0  0  0  0  0
   34.2950   29.4410   46.8910 C   0  0  0  0  0  0  0  0  0  0  0  0
   33.2550   30.2180   46.5930 N   0  0  0  0  0  0  0  0  0  0  0  0
   32.2920   29.4560   45.9500 C   0  0  0  0  0  0  0  0  0  0  0  0
   31.0340   29.9640   45.5130 C   0  0  0  0  0  0  0  0  0  0  0  0
   30.9160   31.1860   44.8240 C   0  0  0  0  0  3  0  0  0  0  0  0
   29.5920   31.4280   44.5610 N   0  0  0  0  0  0  0  0  0  0  0  0
   28.8870   30.3430   45.0960 C   0  0  0  0  0  3  0  0  0  0  0  0
   29.7990   29.5400   45.6250 N   0  0  0  0  0  0  0  0  0  0  0  0
   29.0330   28.4530   46.0620 C   0  0  0  0  0  0  0  0  0  0  0  0
   28.8330   27.5560   45.0900 N   0  0  0  0  0  0  0  0  0  0  0  0
   28.0590   26.4660   45.3340 C   0  0  0  0  0  3  0  0  0  0  0  0
   27.4690   26.2200   46.5040 N   0  0  0  0  0  0  0  0  0  0  0  0
   27.6450   27.0990   47.5110 C   0  0  0  0  0  0  0  0  0  0  0  0
   27.0980   26.9710   48.7580 C   0  0  0  0  0  3  0  0  0  0  0  0
   27.3060   27.8960   49.7410 C   0  0  0  0  0  3  0  0  0  0  0  0
   28.1000   29.0050   49.4700 C   0  0  0  0  0  3  0  0  0  0  0  0
   28.6770   29.1870   48.2380 C   0  0  0  0  0  3  0  0  0  0  0  0
   28.4370   28.2310   47.2900 C   0  0  0  0  0  0  0  0  0  0  0  0
   35.4600   29.9150   47.5610 N   0  0  0  0  0  0  0  0  0  0  0  0
   36.4720   30.5750   46.9280 C   0  0  0  0  0  3  0  0  0  0  0  0
   37.4700   30.9220   47.7870 N   0  0  0  0  0  0  0  0  0  0  0  0
   37.0510   30.4580   48.9890 C   0  0  0  0  0  0  0  0  0  0  0  0
   37.5710   30.4690   50.2680 C   0  0  0  0  0  0  0  0  0  0  0  0
   36.9210   29.9140   51.3120 N   0  0  0  0  0  0  0  0  0  0  0  0
   35.7140   29.3170   51.1440 C   0  0  0  0  0  3  0  0  0  0  0  0
   35.1950   29.2980   49.9000 N   0  0  0  0  0  0  0  0  0  0  0  0
   35.8220   29.8410   48.8570 C   0  0  0  0  0  0  0  0  0  0  0  0
   38.8330   31.0810   50.5100 N   0  0  0  0  0  0  0  0  0  0  0  0
   39.2260   31.0930   51.4620 H   0  0  0  0  0  0  0  0  0  0  0  0
   39.3520   31.5130   49.7330 H   0  0  0  0  0  0  0  0  0  0  0  0
   31.0690   23.6580   46.0800 N   0  0  0  0  0  0  0  0  0  0  0  0
   31.1670   23.6400   47.1060 H   0  0  0  0  0  0  0  0  0  0  0  0
   30.7160   22.8280   45.5820 H   0  0  0  0  0  0  0  0  0  0  0  0
  1  6  1  0  0  0  0
  1 39  1  0  0  0  0
  2  1  2  0  0  0  0
  3  2  1  0  0  0  0
  3  4  2  0  0  0  0
  4  5  1  0  0  0  0
  5  7  1  0  0  0  0
  5  6  2  0  0  0  0
  7 11  1  0  0  0  0
  7  8  1  0  0  0  0
  8  9  2  0  0  0  0
  9 27  1  0  0  0  0
 10  9  1  0  0  0  0
 11 10  2  0  0  0  0
 12 16  1  0  0  0  0
 12 11  1  0  0  0  0
 13 12  2  0  0  0  0
 14 13  1  0  0  0  0
 14 15  2  0  0  0  0
 15 16  1  0  0  0  0
 16 17  1  0  0  0  0
 17 26  1  0  0  0  0
 18 19  1  0  0  0  0
 18 17  2  0  0  0  0
 19 20  2  0  0  0  0
 20 21  1  0  0  0  0
 21 22  1  0  0  0  0
 22 23  2  0  0  0  0
 24 23  1  0  0  0  0
 25 24  2  0  0  0  0
 26 21  2  0  0  0  0
 26 25  1  0  0  0  0
 27 35  1  0  0  0  0
 28 27  1  0  0  0  0
 28 29  2  0  0  0  0
 29 30  1  0  0  0  0
 30 31  1  0  0  0  0
 31 36  1  0  0  0  0
 31 32  2  0  0  0  0
 33 32  1  0  0  0  0
 34 33  2  0  0  0  0
 35 30  2  0  0  0  0
 35 34  1  0  0  0  0
 36 37  1  0  0  0  0
 38 36  1  0  0  0  0
 39 40  1  0  0  0  0
 41 39  1  0  0  0  0
M  END
>  <minimizedAffinity>
-7.24593639

$$$$

 OpenBabel03272514483D

 41 47  0  0  0  0  0  0  0  0999 V2000
   28.7960   27.4510   47.5830 C   0  0  0  0  0  0  0  0  0  0  0  0
   28.6720   26.2360   46.8590 C   0  0  0  0  0  3  0  0  0  0  0  0
   29.6990   25.9080   46.0100 C   0  0  0  0  0  3  0  0  0  0  0  0
   30.7170   26.7780   45.9520 N   0  0  0  0  0  0  0  0  0  0  0  0
   30.8530   27.8950   46.6040 C   0  0  0  0  0  0  0  0  0  0  0  0
   29.8620   28.2350   47.4400 N   0  0  0  0  0  0  0  0  0  0  0  0
   32.0340   28.6110   46.3560 N   0  0  0  0  0  0  0  0  0  0  0  0
   32.9390   28.7330   47.3650 C   0  0  0  0  0  3  0  0  0  0  0  0
   34.0130   29.4670   46.9090 C   0  0  0  0  0  0  0  0  0  0  0  0
   33.7520   29.7810   45.6420 N   0  0  0  0  0  0  0  0  0  0  0  0
   32.5200   29.2520   45.2900 C   0  0  0  0  0  0  0  0  0  0  0  0
   31.9160   29.4200   44.0100 C   0  0  0  0  0  0  0  0  0  0  0  0
   31.4200   28.3330   43.2660 C   0  0  0  0  0  3  0  0  0  0  0  0
   30.9270   28.7940   42.0710 N   0  0  0  0  0  0  0  0  0  0  0  0
   31.1250   30.1790   42.0800 C   0  0  0  0  0  3  0  0  0  0  0  0
   31.6990   30.4590   43.2420 N   0  0  0  0  0  0  0  0  0  0  0  0
   31.7890   31.8550   43.2100 C   0  0  0  0  0  0  0  0  0  0  0  0
   30.6680   32.4420   43.6440 N   0  0  0  0  0  0  0  0  0  0  0  0
   30.5690   33.7970   43.6240 C   0  0  0  0  0  3  0  0  0  0  0  0
   31.5360   34.6050   43.1910 N   0  0  0  0  0  0  0  0  0  0  0  0
   32.6840   34.0560   42.7450 C   0  0  0  0  0  0  0  0  0  0  0  0
   33.7530   34.7660   42.2720 C   0  0  0  0  0  3  0  0  0  0  0  0
   34.8910   34.1560   41.8280 C   0  0  0  0  0  3  0  0  0  0  0  0
   34.9700   32.7680   41.8560 C   0  0  0  0  0  3  0  0  0  0  0  0
   33.9310   32.0020   42.3210 C   0  0  0  0  0  3  0  0  0  0  0  0
   32.8150   32.6630   42.7540 C   0  0  0  0  0  0  0  0  0  0  0  0
   35.2050   29.8620   47.5850 N   0  0  0  0  0  0  0  0  0  0  0  0
   36.2460   30.4860   46.9630 C   0  0  0  0  0  3  0  0  0  0  0  0
   37.2650   30.7570   47.8240 N   0  0  0  0  0  0  0  0  0  0  0  0
   36.8280   30.2830   49.0160 C   0  0  0  0  0  0  0  0  0  0  0  0
   37.3550   30.2330   50.2920 C   0  0  0  0  0  0  0  0  0  0  0  0
   36.6820   29.6840   51.3250 N   0  0  0  0  0  0  0  0  0  0  0  0
   35.4460   29.1550   51.1490 C   0  0  0  0  0  3  0  0  0  0  0  0
   34.9200   29.1960   49.9070 N   0  0  0  0  0  0  0  0  0  0  0  0
   35.5690   29.7340   48.8750 C   0  0  0  0  0  0  0  0  0  0  0  0
   38.6480   30.7720   50.5420 N   0  0  0  0  0  0  0  0  0  0  0  0
   39.0460   30.7370   51.4910 H   0  0  0  0  0  0  0  0  0  0  0  0
   39.1860   31.1980   49.7730 H   0  0  0  0  0  0  0  0  0  0  0  0
   27.7450   27.8260   48.4990 N   0  0  0  0  0  0  0  0  0  0  0  0
   27.8170   28.7040   49.0340 H   0  0  0  0  0  0  0  0  0  0  0  0
   26.9240   27.2160   48.6200 H   0  0  0  0  0  0  0  0  0  0  0  0
  1 39  1  0  0  0  0
  2  1  2  0  0  0  0
  3  2  1  0  0  0  0
  4  3  2  0  0  0  0
  4  5  1  0  0  0  0
  5  6  2  0  0  0  0
  6  1  1  0  0  0  0
  7  5  1  0  0  0  0
  7  8  1  0  0  0  0
  9  8  2  0  0  0  0
  9 27  1  0  0  0  0
 10  9  1  0  0  0  0
 11 10  2  0  0  0  0
 11  7  1  0  0  0  0
 12 11  1  0  0  0  0
 13 12  2  0  0  0  0
 14 15  2  0  0  0  0
 14 13  1  0  0  0  0
 15 16  1  0  0  0  0
 16 12  1  0  0  0  0
 17 16  1  0  0  0  0
 17 18  1  0  0  0  0
 19 18  2  0  0  0  0
 20 19  1  0  0  0  0
 21 26  1  0  0  0  0
 21 20  2  0  0  0  0
 22 21  1  0  0  0  0
 23 24  1  0  0  0  0
 23 22  2  0  0  0  0
 24 25  2  0  0  0  0
 25 26  1  0  0  0  0
 26 17  2  0  0  0  0
 27 35  1  0  0  0  0
 28 27  1  0  0  0  0
 28 29  2  0  0  0  0
 29 30  1  0  0  0  0
 30 31  1  0  0  0  0
 31 36  1  0  0  0  0
 31 32  2  0  0  0  0
 33 32  1  0  0  0  0
 34 33  2  0  0  0  0
 35 30  2  0  0  0  0
 35 34  1  0  0  0  0
 36 37  1  0  0  0  0
 38 36  1  0  0  0  0
 39 41  1  0  0  0  0
 39 40  1  0  0  0  0
M  END
>  <minimizedAffinity>
-7.18347597

$$$$

 OpenBabel03272514483D

 41 47  0  0  0  0  0  0  0  0999 V2000
   29.0680   23.4600   45.3030 C   0  0  0  0  0  0  0  0  0  0  0  0
   28.1550   23.7220   44.2480 C   0  0  0  0  0  3  0  0  0  0  0  0
   27.9490   25.0370   43.9120 C   0  0  0  0  0  3  0  0  0  0  0  0
   28.6360   25.9420   44.6230 N   0  0  0  0  0  0  0  0  0  0  0  0
   29.4770   25.7270   45.5920 C   0  0  0  0  0  0  0  0  0  0  0  0
   29.6940   24.4490   45.9360 N   0  0  0  0  0  0  0  0  0  0  0  0
   30.0650   26.8680   46.1590 N   0  0  0  0  0  0  0  0  0  0  0  0
   31.4020   27.0570   45.9880 C   0  0  0  0  0  3  0  0  0  0  0  0
   31.7680   28.2260   46.6200 C   0  0  0  0  0  0  0  0  0  0  0  0
   30.6610   28.7290   47.1640 N   0  0  0  0  0  0  0  0  0  0  0  0
   29.5960   27.8870   46.8820 C   0  0  0  0  0  0  0  0  0  0  0  0
   28.2640   28.1080   47.3350 C   0  0  0  0  0  0  0  0  0  0  0  0
   27.7320   27.4430   48.4570 C   0  0  0  0  0  3  0  0  0  0  0  0
   26.4290   27.8320   48.6340 N   0  0  0  0  0  0  0  0  0  0  0  0
   26.1550   28.7450   47.6090 C   0  0  0  0  0  3  0  0  0  0  0  0
   27.2730   28.8510   46.9050 N   0  0  0  0  0  0  0  0  0  0  0  0
   26.9480   29.8300   45.9600 C   0  0  0  0  0  0  0  0  0  0  0  0
   27.1480   31.0670   46.4280 N   0  0  0  0  0  0  0  0  0  0  0  0
   26.8280   32.1370   45.6540 C   0  0  0  0  0  3  0  0  0  0  0  0
   26.3140   32.0390   44.4280 N   0  0  0  0  0  0  0  0  0  0  0  0
   26.0970   30.8100   43.9170 C   0  0  0  0  0  0  0  0  0  0  0  0
   25.5750   30.5660   42.6760 C   0  0  0  0  0  3  0  0  0  0  0  0
   25.3720   29.2990   42.2110 C   0  0  0  0  0  3  0  0  0  0  0  0
   25.7060   28.2180   43.0200 C   0  0  0  0  0  3  0  0  0  0  0  0
   26.2350   28.4010   44.2730 C   0  0  0  0  0  3  0  0  0  0  0  0
   26.4180   29.6900   44.6910 C   0  0  0  0  0  0  0  0  0  0  0  0
   33.0460   28.8490   46.7270 N   0  0  0  0  0  0  0  0  0  0  0  0
   33.6790   29.4420   45.6740 C   0  0  0  0  0  3  0  0  0  0  0  0
   34.8850   29.9620   46.0330 N   0  0  0  0  0  0  0  0  0  0  0  0
   34.9910   29.6770   47.3540 C   0  0  0  0  0  0  0  0  0  0  0  0
   35.9450   29.9130   48.3230 C   0  0  0  0  0  0  0  0  0  0  0  0
   35.7880   29.5040   49.6000 N   0  0  0  0  0  0  0  0  0  0  0  0
   34.6710   28.8380   49.9850 C   0  0  0  0  0  3  0  0  0  0  0  0
   33.7310   28.6000   49.0480 N   0  0  0  0  0  0  0  0  0  0  0  0
   33.8690   28.9960   47.7830 C   0  0  0  0  0  0  0  0  0  0  0  0
   37.1390   30.6090   47.9820 N   0  0  0  0  0  0  0  0  0  0  0  0
   37.8540   30.7870   48.7010 H   0  0  0  0  0  0  0  0  0  0  0  0
   37.2870   30.9330   47.0160 H   0  0  0  0  0  0  0  0  0  0  0  0
   29.3250   22.0900   45.6770 N   0  0  0  0  0  0  0  0  0  0  0  0
   29.9850   21.8800   46.4400 H   0  0  0  0  0  0  0  0  0  0  0  0
   28.8500   21.3220   45.1810 H   0  0  0  0  0  0  0  0  0  0  0  0
  1 39  1  0  0  0  0
  1  6  1  0  0  0  0
  2  1  2  0  0  0  0
  3  2  1  0  0  0  0
  3  4  2  0  0  0  0
  4  5  1  0  0  0  0
  5  6  2  0  0  0  0
  5  7  1  0  0  0  0
  7 11  1  0  0  0  0
  8  7  1  0  0  0  0
  8  9  2  0  0  0  0
  9 27  1  0  0  0  0
  9 10  1  0  0  0  0
 11 10  2  0  0  0  0
 11 12  1  0  0  0  0
 12 13  2  0  0  0  0
 13 14  1  0  0  0  0
 15 14  2  0  0  0  0
 16 12  1  0  0  0  0
 16 15  1  0  0  0  0
 17 18  1  0  0  0  0
 17 16  1  0  0  0  0
 19 18  2  0  0  0  0
 20 19  1  0  0  0  0
 21 20  2  0  0  0  0
 21 26  1  0  0  0  0
 22 21  1  0  0  0  0
 23 22  2  0  0  0  0
 23 24  1  0  0  0  0
 24 25  2  0  0  0  0
 25 26  1  0  0  0  0
 26 17  2  0  0  0  0
 27 35  1  0  0  0  0
 28 29  2  0  0  0  0
 28 27  1  0  0  0  0
 29 30  1  0  0  0  0
 30 35  2  0  0  0  0
 30 31  1  0  0  0  0
 31 32  2  0  0  0  0
 32 33  1  0  0  0  0
 34 33  2  0  0  0  0
 35 34  1  0  0  0  0
 36 31  1  0  0  0  0
 36 37  1  0  0  0  0
 38 36  1  0  0  0  0
 39 40  1  0  0  0  0
 41 39  1  0  0  0  0
M  END
>  <minimizedAffinity>
-7.1768508

$$$$

 OpenBabel03272514483D

 41 47  0  0  0  0  0  0  0  0999 V2000
   32.2450   24.6660   46.3280 C   0  0  0  0  0  0  0  0  0  0  0  0
   32.3120   24.4310   44.9290 C   0  0  0  0  0  3  0  0  0  0  0  0
   32.6580   25.4950   44.1330 C   0  0  0  0  0  3  0  0  0  0  0  0
   32.8960   26.6520   44.7660 N   0  0  0  0  0  0  0  0  0  0  0  0
   32.8420   26.8910   46.0440 C   0  0  0  0  0  0  0  0  0  0  0  0
   32.5060   25.8660   46.8400 N   0  0  0  0  0  0  0  0  0  0  0  0
   33.1500   28.2020   46.4370 N   0  0  0  0  0  0  0  0  0  0  0  0
   34.2810   28.4080   47.1650 C   0  0  0  0  0  3  0  0  0  0  0  0
   34.3910   29.7550   47.4420 C   0  0  0  0  0  0  0  0  0  0  0  0
   33.3350   30.3460   46.8850 N   0  0  0  0  0  0  0  0  0  0  0  0
   32.5570   29.3840   46.2590 C   0  0  0  0  0  0  0  0  0  0  0  0
   31.3340   29.6650   45.5830 C   0  0  0  0  0  0  0  0  0  0  0  0
   31.2120   30.7210   44.6600 C   0  0  0  0  0  3  0  0  0  0  0  0
   29.9210   30.7660   44.1970 N   0  0  0  0  0  0  0  0  0  0  0  0
   29.2420   29.7270   44.8440 C   0  0  0  0  0  3  0  0  0  0  0  0
   30.1350   29.1370   45.6260 N   0  0  0  0  0  0  0  0  0  0  0  0
   29.4090   28.0720   46.1700 C   0  0  0  0  0  0  0  0  0  0  0  0
   29.4220   26.9960   45.3760 N   0  0  0  0  0  0  0  0  0  0  0  0
   28.7160   25.8910   45.7320 C   0  0  0  0  0  3  0  0  0  0  0  0
   27.9920   25.8000   46.8470 N   0  0  0  0  0  0  0  0  0  0  0  0
   27.9520   26.8620   47.6780 C   0  0  0  0  0  0  0  0  0  0  0  0
   27.2490   26.9050   48.8510 C   0  0  0  0  0  3  0  0  0  0  0  0
   27.2410   28.0110   49.6510 C   0  0  0  0  0  3  0  0  0  0  0  0
   27.9690   29.1310   49.2670 C   0  0  0  0  0  3  0  0  0  0  0  0
   28.6950   29.1470   48.1020 C   0  0  0  0  0  3  0  0  0  0  0  0
   28.6690   28.0140   47.3370 C   0  0  0  0  0  0  0  0  0  0  0  0
   35.3920   30.4620   48.1690 N   0  0  0  0  0  0  0  0  0  0  0  0
   35.3030   30.7230   49.5050 C   0  0  0  0  0  3  0  0  0  0  0  0
   36.3850   31.4120   49.9620 N   0  0  0  0  0  0  0  0  0  0  0  0
   37.1630   31.5760   48.8650 C   0  0  0  0  0  0  0  0  0  0  0  0
   38.3820   32.1760   48.6220 C   0  0  0  0  0  0  0  0  0  0  0  0
   38.9420   32.1940   47.3940 N   0  0  0  0  0  0  0  0  0  0  0  0
   38.3200   31.6140   46.3370 C   0  0  0  0  0  3  0  0  0  0  0  0
   37.1280   31.0240   46.5600 N   0  0  0  0  0  0  0  0  0  0  0  0
   36.5600   30.9970   47.7660 C   0  0  0  0  0  0  0  0  0  0  0  0
   39.0850   32.8010   49.6900 N   0  0  0  0  0  0  0  0  0  0  0  0
   39.9950   33.2510   49.5150 H   0  0  0  0  0  0  0  0  0  0  0  0
   38.6830   32.8040   50.6390 H   0  0  0  0  0  0  0  0  0  0  0  0
   31.9000   23.5700   47.2020 N   0  0  0  0  0  0  0  0  0  0  0  0
   31.8460   23.7200   48.2200 H   0  0  0  0  0  0  0  0  0  0  0  0
   31.7070   22.6380   46.8090 H   0  0  0  0  0  0  0  0  0  0  0  0
  1  6  1  0  0  0  0
  1 39  1  0  0  0  0
  2  1  2  0  0  0  0
  3  4  2  0  0  0  0
  3  2  1  0  0  0  0
  4  5  1  0  0  0  0
  5  7  1  0  0  0  0
  5  6  2  0  0  0  0
  7  8  1  0  0  0  0
  8  9  2  0  0  0  0
  9 27  1  0  0  0  0
 10  9  1  0  0  0  0
 11  7  1  0  0  0  0
 11 10  2  0  0  0  0
 12 16  1  0  0  0  0
 12 11  1  0  0  0  0
 13 12  2  0  0  0  0
 14 13  1  0  0  0  0
 14 15  2  0  0  0  0
 15 16  1  0  0  0  0
 16 17  1  0  0  0  0
 17 26  1  0  0  0  0
 18 19  1  0  0  0  0
 18 17  2  0  0  0  0
 19 20  2  0  0  0  0
 20 21  1  0  0  0  0
 21 22  1  0  0  0  0
 22 23  2  0  0  0  0
 24 23  1  0  0  0  0
 25 24  2  0  0  0  0
 26 21  2  0  0  0  0
 26 25  1  0  0  0  0
 27 28  1  0  0  0  0
 28 29  2  0  0  0  0
 30 29  1  0  0  0  0
 31 30  1  0  0  0  0
 31 36  1  0  0  0  0
 32 31  2  0  0  0  0
 33 34  2  0  0  0  0
 33 32  1  0  0  0  0
 34 35  1  0  0  0  0
 35 27  1  0  0  0  0
 35 30  2  0  0  0  0
 36 38  1  0  0  0  0
 37 36  1  0  0  0  0
 39 40  1  0  0  0  0
 41 39  1  0  0  0  0
M  END
>  <minimizedAffinity>
-7.13093424

$$$$

 OpenBabel03272514483D

 41 47  0  0  0  0  0  0  0  0999 V2000
   27.7210   28.5180   47.5570 C   0  0  0  0  0  0  0  0  0  0  0  0
   27.3250   27.2640   47.0230 C   0  0  0  0  0  3  0  0  0  0  0  0
   28.3000   26.5040   46.4250 C   0  0  0  0  0  3  0  0  0  0  0  0
   29.5320   27.0320   46.4090 N   0  0  0  0  0  0  0  0  0  0  0  0
   29.9190   28.1760   46.8910 C   0  0  0  0  0  0  0  0  0  0  0  0
   28.9820   28.9350   47.4800 N   0  0  0  0  0  0  0  0  0  0  0  0
   31.2810   28.4770   46.7420 N   0  0  0  0  0  0  0  0  0  0  0  0
   32.0520   28.5460   47.8610 C   0  0  0  0  0  3  0  0  0  0  0  0
   33.3450   28.8520   47.4890 C   0  0  0  0  0  0  0  0  0  0  0  0
   33.3430   28.9640   46.1620 N   0  0  0  0  0  0  0  0  0  0  0  0
   32.0610   28.7340   45.6890 C   0  0  0  0  0  0  0  0  0  0  0  0
   31.6940   28.8010   44.3140 C   0  0  0  0  0  0  0  0  0  0  0  0
   31.5150   27.6470   43.5280 C   0  0  0  0  0  3  0  0  0  0  0  0
   31.1950   28.0200   42.2470 N   0  0  0  0  0  0  0  0  0  0  0  0
   31.1790   29.4200   42.2460 C   0  0  0  0  0  3  0  0  0  0  0  0
   31.4740   29.7910   43.4840 N   0  0  0  0  0  0  0  0  0  0  0  0
   31.3600   31.1840   43.4210 C   0  0  0  0  0  0  0  0  0  0  0  0
   30.1020   31.5950   43.6180 N   0  0  0  0  0  0  0  0  0  0  0  0
   29.8080   32.9190   43.5330 C   0  0  0  0  0  3  0  0  0  0  0  0
   30.7090   33.8630   43.2620 N   0  0  0  0  0  0  0  0  0  0  0  0
   31.9900   33.4930   43.0570 C   0  0  0  0  0  0  0  0  0  0  0  0
   33.0120   34.3550   42.7690 C   0  0  0  0  0  3  0  0  0  0  0  0
   34.2900   33.9230   42.5660 C   0  0  0  0  0  3  0  0  0  0  0  0
   34.5690   32.5640   42.6560 C   0  0  0  0  0  3  0  0  0  0  0  0
   33.5850   31.6510   42.9440 C   0  0  0  0  0  3  0  0  0  0  0  0
   32.3220   32.1360   43.1380 C   0  0  0  0  0  0  0  0  0  0  0  0
   34.5100   29.0320   48.2890 N   0  0  0  0  0  0  0  0  0  0  0  0
   34.6560   28.4880   49.5320 C   0  0  0  0  0  3  0  0  0  0  0  0
   35.8560   28.8080   50.0890 N   0  0  0  0  0  0  0  0  0  0  0  0
   36.4660   29.5730   49.1520 C   0  0  0  0  0  0  0  0  0  0  0  0
   37.6830   30.2180   49.0690 C   0  0  0  0  0  0  0  0  0  0  0  0
   38.0440   30.9360   47.9840 N   0  0  0  0  0  0  0  0  0  0  0  0
   37.2120   31.0510   46.9180 C   0  0  0  0  0  3  0  0  0  0  0  0
   36.0190   30.4270   46.9870 N   0  0  0  0  0  0  0  0  0  0  0  0
   35.6460   29.7140   48.0500 C   0  0  0  0  0  0  0  0  0  0  0  0
   38.6010   30.1340   50.1540 N   0  0  0  0  0  0  0  0  0  0  0  0
   39.5110   30.6140   50.0980 H   0  0  0  0  0  0  0  0  0  0  0  0
   38.3540   29.5940   50.9960 H   0  0  0  0  0  0  0  0  0  0  0  0
   26.7300   29.3420   48.2080 N   0  0  0  0  0  0  0  0  0  0  0  0
   26.9980   30.2550   48.6030 H   0  0  0  0  0  0  0  0  0  0  0  0
   25.7550   29.0170   48.2790 H   0  0  0  0  0  0  0  0  0  0  0  0
  1 39  1  0  0  0  0
  2  1  2  0  0  0  0
  3  2  1  0  0  0  0
  4  3  2  0  0  0  0
  4  5  1  0  0  0  0
  5  6  2  0  0  0  0
  6  1  1  0  0  0  0
  7  5  1  0  0  0  0
  7  8  1  0  0  0  0
  9  8  2  0  0  0  0
  9 27  1  0  0  0  0
 10  9  1  0  0  0  0
 11 10  2  0  0  0  0
 11  7  1  0  0  0  0
 12 11  1  0  0  0  0
 13 12  2  0  0  0  0
 14 13  1  0  0  0  0
 15 14  2  0  0  0  0
 15 16  1  0  0  0  0
 16 12  1  0  0  0  0
 17 16  1  0  0  0  0
 17 18  1  0  0  0  0
 19 18  2  0  0  0  0
 20 19  1  0  0  0  0
 21 26  1  0  0  0  0
 21 20  2  0  0  0  0
 22 21  1  0  0  0  0
 23 24  1  0  0  0  0
 23 22  2  0  0  0  0
 24 25  2  0  0  0  0
 25 26  1  0  0  0  0
 26 17  2  0  0  0  0
 27 28  1  0  0  0  0
 28 29  2  0  0  0  0
 30 29  1  0  0  0  0
 31 30  1  0  0  0  0
 31 36  1  0  0  0  0
 32 31  2  0  0  0  0
 33 34  2  0  0  0  0
 33 32  1  0  0  0  0
 34 35  1  0  0  0  0
 35 27  1  0  0  0  0
 35 30  2  0  0  0  0
 36 38  1  0  0  0  0
 37 36  1  0  0  0  0
 39 41  1  0  0  0  0
 39 40  1  0  0  0  0
M  END
>  <minimizedAffinity>
-7.09008837

$$$$

 OpenBabel03272514483D

 41 47  0  0  0  0  0  0  0  0999 V2000
   36.0950   29.2110   49.9390 C   0  0  0  0  0  0  0  0  0  0  0  0
   36.5830   29.9640   48.8400 C   0  0  0  0  0  3  0  0  0  0  0  0
   35.8140   29.9810   47.7030 C   0  0  0  0  0  3  0  0  0  0  0  0
   34.6740   29.2770   47.7520 N   0  0  0  0  0  0  0  0  0  0  0  0
   34.2060   28.5810   48.7460 C   0  0  0  0  0  0  0  0  0  0  0  0
   34.9410   28.5510   49.8670 N   0  0  0  0  0  0  0  0  0  0  0  0
   32.9750   27.9450   48.5250 N   0  0  0  0  0  0  0  0  0  0  0  0
   31.8940   28.3680   49.2350 C   0  0  0  0  0  3  0  0  0  0  0  0
   30.7990   27.6160   48.8650 C   0  0  0  0  0  0  0  0  0  0  0  0
   31.2230   26.7520   47.9450 N   0  0  0  0  0  0  0  0  0  0  0  0
   32.5780   26.9500   47.7280 C   0  0  0  0  0  0  0  0  0  0  0  0
   33.3620   26.1780   46.8240 C   0  0  0  0  0  0  0  0  0  0  0  0
   34.1580   25.0980   47.2520 C   0  0  0  0  0  3  0  0  0  0  0  0
   34.8160   24.5680   46.1720 N   0  0  0  0  0  0  0  0  0  0  0  0
   34.4220   25.3310   45.0670 C   0  0  0  0  0  3  0  0  0  0  0  0
   33.5760   26.2390   45.5320 N   0  0  0  0  0  0  0  0  0  0  0  0
   33.1690   26.9030   44.3690 C   0  0  0  0  0  0  0  0  0  0  0  0
   32.1470   26.2850   43.7680 N   0  0  0  0  0  0  0  0  0  0  0  0
   31.6670   26.7700   42.5930 C   0  0  0  0  0  3  0  0  0  0  0  0
   32.1560   27.8470   41.9790 N   0  0  0  0  0  0  0  0  0  0  0  0
   33.1880   28.5020   42.5510 C   0  0  0  0  0  0  0  0  0  0  0  0
   33.7850   29.6160   42.0300 C   0  0  0  0  0  3  0  0  0  0  0  0
   34.8310   30.2360   42.6510 C   0  0  0  0  0  3  0  0  0  0  0  0
   35.3070   29.7220   43.8520 C   0  0  0  0  0  3  0  0  0  0  0  0
   34.7470   28.6080   44.4240 C   0  0  0  0  0  3  0  0  0  0  0  0
   33.7020   28.0250   43.7620 C   0  0  0  0  0  0  0  0  0  0  0  0
   29.4500   27.6760   49.3220 N   0  0  0  0  0  0  0  0  0  0  0  0
   29.0010   27.0030   50.4210 C   0  0  0  0  0  3  0  0  0  0  0  0
   27.6770   27.2240   50.6460 N   0  0  0  0  0  0  0  0  0  0  0  0
   27.3040   28.0630   49.6490 C   0  0  0  0  0  0  0  0  0  0  0  0
   26.1200   28.6730   49.2860 C   0  0  0  0  0  0  0  0  0  0  0  0
   26.0300   29.4840   48.2120 N   0  0  0  0  0  0  0  0  0  0  0  0
   27.1140   29.7360   47.4360 C   0  0  0  0  0  3  0  0  0  0  0  0
   28.2780   29.1460   47.7780 N   0  0  0  0  0  0  0  0  0  0  0  0
   28.3850   28.3420   48.8360 C   0  0  0  0  0  0  0  0  0  0  0  0
   24.9470   28.4500   50.0610 N   0  0  0  0  0  0  0  0  0  0  0  0
   24.0600   28.9030   49.7950 H   0  0  0  0  0  0  0  0  0  0  0  0
   24.9840   27.8360   50.8870 H   0  0  0  0  0  0  0  0  0  0  0  0
   36.8650   29.1800   51.1600 N   0  0  0  0  0  0  0  0  0  0  0  0
   36.5270   28.6390   51.9690 H   0  0  0  0  0  0  0  0  0  0  0  0
   37.7530   29.6990   51.2220 H   0  0  0  0  0  0  0  0  0  0  0  0
  1 39  1  0  0  0  0
  2  1  2  0  0  0  0
  3  4  2  0  0  0  0
  3  2  1  0  0  0  0
  4  5  1  0  0  0  0
  5  6  2  0  0  0  0
  6  1  1  0  0  0  0
  7  5  1  0  0  0  0
  7  8  1  0  0  0  0
  9  8  2  0  0  0  0
  9 27  1  0  0  0  0
 10  9  1  0  0  0  0
 11 10  2  0  0  0  0
 11  7  1  0  0  0  0
 12 13  2  0  0  0  0
 12 11  1  0  0  0  0
 14 13  1  0  0  0  0
 15 16  1  0  0  0  0
 15 14  2  0  0  0  0
 16 12  1  0  0  0  0
 17 16  1  0  0  0  0
 18 17  1  0  0  0  0
 19 18  2  0  0  0  0
 20 21  2  0  0  0  0
 20 19  1  0  0  0  0
 21 26  1  0  0  0  0
 22 21  1  0  0  0  0
 22 23  2  0  0  0  0
 23 24  1  0  0  0  0
 24 25  2  0  0  0  0
 26 17  2  0  0  0  0
 26 25  1  0  0  0  0
 27 28  1  0  0  0  0
 28 29  2  0  0  0  0
 30 29  1  0  0  0  0
 31 30  1  0  0  0  0
 31 36  1  0  0  0  0
 32 31  2  0  0  0  0
 33 34  2  0  0  0  0
 33 32  1  0  0  0  0
 34 35  1  0  0  0  0
 35 27  1  0  0  0  0
 35 30  2  0  0  0  0
 36 38  1  0  0  0  0
 37 36  1  0  0  0  0
 39 41  1  0  0  0  0
 39 40  1  0  0  0  0
M  END
>  <minimizedAffinity>
-7.08118916

$$$$
