
 OpenBabel03272514413D

 38 43  0  0  1  0  0  0  0  0999 V2000
   29.7790   27.3590   49.3950 C   0  0  0  0  0  0  0  0  0  0  0  0
   29.1900   26.9560   50.6000 C   0  0  0  0  0  3  0  0  0  0  0  0
   28.0230   27.5960   50.9950 C   0  0  0  0  0  3  0  0  0  0  0  0
   27.5010   28.5630   50.2290 N   0  0  0  0  0  0  0  0  0  0  0  0
   28.1150   28.9330   49.0450 C   0  0  0  0  0  0  0  0  0  0  0  0
   29.2280   28.3370   48.6480 N   0  0  0  0  0  0  0  0  0  0  0  0
   27.5100   29.9600   48.2960 N   0  0  0  0  0  0  0  0  0  0  0  0
   26.7490   30.7980   49.0390 C   0  0  0  0  0  3  0  0  0  0  0  0
   26.1990   31.7590   48.1680 C   0  0  0  0  0  3  0  0  0  0  0  0
   26.6530   31.4560   46.9450 N   0  0  0  0  0  0  0  0  0  0  0  0
   27.4450   30.3740   47.0150 C   0  0  0  0  0  0  0  0  0  0  0  0
   28.1790   29.6290   46.0490 N   0  0  0  0  0  0  0  0  0  0  0  0
   29.4710   29.5240   45.7760 C   0  0  0  0  0  3  0  0  0  0  0  0
   29.6020   28.6550   44.7350 N   0  0  0  0  0  0  0  0  0  0  0  0
   28.3660   28.2290   44.3730 C   0  0  0  0  0  0  0  0  0  0  0  0
   28.0180   27.3420   43.3650 C   0  0  0  0  0  0  0  0  0  0  0  0
   28.9040   26.8170   42.6440 O   0  0  0  0  0  0  0  0  0  0  0  0
   26.6990   27.0600   43.1840 N   0  0  0  0  0  0  0  0  0  0  0  0
   25.8170   27.6660   44.0010 C   0  0  0  0  0  0  0  0  0  0  0  0
   24.4310   27.3840   43.8260 N   0  0  0  0  0  0  0  0  0  0  0  0
   26.1580   28.5260   44.9780 N   0  0  0  0  0  0  0  0  0  0  0  0
   27.4620   28.8520   45.2130 C   0  0  0  0  0  0  0  0  0  0  0  0
   26.3880   26.4080   42.4510 H   0  0  0  0  0  0  0  0  0  0  0  0
   23.7340   27.8330   44.4360 H   0  0  0  0  0  0  0  0  0  0  0  0
   24.1270   26.7320   43.0900 H   0  0  0  0  0  0  0  0  0  0  0  0
   30.9130   26.7370   49.0120 O   0  0  0  0  0  0  0  0  0  0  0  0
   31.9760   27.4770   48.4750 C   0  0  0  0  0  0  0  0  0  0  0  0
   32.1260   27.3730   47.1150 C   0  0  0  0  0  3  0  0  0  0  0  0
   33.5500   28.4310   46.8340 S   0  0  0  0  0  0  0  0  0  0  0  0
   33.7280   28.8690   48.6850 C   0  0  0  0  0  0  0  0  0  0  0  0
   32.8550   28.2510   49.0590 N   0  0  0  0  0  0  0  0  0  0  0  0
   34.8260   29.7840   49.1530 C   0  0  2  0  0  3  0  0  0  0  0  0
   35.9860   29.9730   48.3150 C   0  0  0  0  0  2  0  0  0  0  0  0
   36.2320   29.0060   49.3080 C   0  0  1  0  0  3  0  0  0  0  0  0
   37.0960   29.5660   50.4460 C   0  0  0  0  0  0  0  0  0  0  0  0
   36.6090   29.6290   51.6810 O   0  0  0  0  0  0  0  0  0  0  0  0
   38.4070   30.0070   50.1720 O   0  0  0  0  0  0  0  0  0  0  0  0
   38.9700   30.3700   50.9010 H   0  0  0  0  0  0  0  0  0  0  0  0
  1  2  1  0  0  0  0
  2  3  2  0  0  0  0
  4  3  1  0  0  0  0
  5  4  2  0  0  0  0
  6  5  1  0  0  0  0
  6  1  2  0  0  0  0
  7  8  1  0  0  0  0
  7  5  1  0  0  0  0
  9  8  2  0  0  0  0
 10 11  2  0  0  0  0
 10  9  1  0  0  0  0
 11  7  1  0  0  0  0
 12 11  1  0  0  0  0
 13 12  1  0  0  0  0
 14 13  2  0  0  0  0
 15 14  1  0  0  0  0
 15 22  2  0  0  0  0
 16 15  1  0  0  0  0
 17 16  2  0  0  0  0
 18 16  1  0  0  0  0
 18 19  1  0  0  0  0
 19 21  2  0  0  0  0
 20 19  1  0  0  0  0
 20 24  1  0  0  0  0
 21 22  1  0  0  0  0
 22 12  1  0  0  0  0
 23 18  1  0  0  0  0
 25 20  1  0  0  0  0
 26  1  1  0  0  0  0
 27 26  1  0  0  0  0
 27 31  1  0  0  0  0
 28 27  2  0  0  0  0
 29 28  1  0  0  0  0
 29 30  1  0  0  0  0
 30 31  2  0  0  0  0
 32 30  1  6  0  0  0
 32 34  1  0  0  0  0
 33 32  1  0  0  0  0
 33 34  1  0  0  0  0
 34 35  1  1  0  0  0
 35 36  2  0  0  0  0
 37 35  1  0  0  0  0
 37 38  1  0  0  0  0
M  END
>  <minimizedAffinity>
-8.36384487

$$$$

 OpenBabel03272514413D

 38 43  0  0  1  0  0  0  0  0999 V2000
   31.1930   28.3990   46.7460 C   0  0  0  0  0  0  0  0  0  0  0  0
   31.6700   27.1900   47.2700 C   0  0  0  0  0  3  0  0  0  0  0  0
   30.7850   26.4090   48.0000 C   0  0  0  0  0  3  0  0  0  0  0  0
   29.5240   26.8220   48.1810 N   0  0  0  0  0  0  0  0  0  0  0  0
   29.0920   28.0240   47.6470 C   0  0  0  0  0  0  0  0  0  0  0  0
   29.9170   28.7850   46.9480 N   0  0  0  0  0  0  0  0  0  0  0  0
   27.7540   28.3930   47.8840 N   0  0  0  0  0  0  0  0  0  0  0  0
   27.2250   27.8360   48.9990 C   0  0  0  0  0  3  0  0  0  0  0  0
   25.8920   28.2760   49.1030 C   0  0  0  0  0  3  0  0  0  0  0  0
   25.6790   29.0760   48.0490 N   0  0  0  0  0  0  0  0  0  0  0  0
   26.7980   29.1520   47.3110 C   0  0  0  0  0  0  0  0  0  0  0  0
   27.1400   29.8390   46.1110 N   0  0  0  0  0  0  0  0  0  0  0  0
   27.8980   30.8940   45.8560 C   0  0  0  0  0  3  0  0  0  0  0  0
   27.8640   31.1100   44.5120 N   0  0  0  0  0  0  0  0  0  0  0  0
   27.0700   30.1670   43.9450 C   0  0  0  0  0  0  0  0  0  0  0  0
   26.7460   29.9990   42.6080 C   0  0  0  0  0  0  0  0  0  0  0  0
   27.2080   30.7790   41.7370 O   0  0  0  0  0  0  0  0  0  0  0  0
   25.9220   28.9700   42.2700 N   0  0  0  0  0  0  0  0  0  0  0  0
   25.4730   28.1820   43.2650 C   0  0  0  0  0  0  0  0  0  0  0  0
   24.6070   27.1010   42.9320 N   0  0  0  0  0  0  0  0  0  0  0  0
   25.7880   28.3480   44.5630 N   0  0  0  0  0  0  0  0  0  0  0  0
   26.6100   29.3590   44.9680 C   0  0  0  0  0  0  0  0  0  0  0  0
   25.6520   28.8010   41.2910 H   0  0  0  0  0  0  0  0  0  0  0  0
   24.2480   26.4820   43.6720 H   0  0  0  0  0  0  0  0  0  0  0  0
   24.3410   26.9380   41.9500 H   0  0  0  0  0  0  0  0  0  0  0  0
   32.0530   29.1580   46.0370 O   0  0  0  0  0  0  0  0  0  0  0  0
   33.3520   29.3850   46.5140 C   0  0  0  0  0  0  0  0  0  0  0  0
   34.1840   30.0400   45.6420 C   0  0  0  0  0  3  0  0  0  0  0  0
   35.7010   30.1290   46.5980 S   0  0  0  0  0  0  0  0  0  0  0  0
   34.9380   29.2240   48.0980 C   0  0  0  0  0  0  0  0  0  0  0  0
   33.9060   29.0710   47.6570 N   0  0  0  0  0  0  0  0  0  0  0  0
   35.7600   28.9540   49.3280 C   0  0  2  0  0  3  0  0  0  0  0  0
   35.2190   29.2940   50.6230 C   0  0  0  0  0  2  0  0  0  0  0  0
   36.0750   30.3070   50.1510 C   0  0  1  0  0  3  0  0  0  0  0  0
   37.4400   30.2690   50.8500 C   0  0  0  0  0  0  0  0  0  0  0  0
   37.5130   30.0180   52.1530 O   0  0  0  0  0  0  0  0  0  0  0  0
   38.6140   30.4960   50.1010 O   0  0  0  0  0  0  0  0  0  0  0  0
   39.4980   30.4730   50.5460 H   0  0  0  0  0  0  0  0  0  0  0  0
  1  6  2  0  0  0  0
  1  2  1  0  0  0  0
  2  3  2  0  0  0  0
  3  4  1  0  0  0  0
  5  7  1  0  0  0  0
  5  4  2  0  0  0  0
  6  5  1  0  0  0  0
  7  8  1  0  0  0  0
  8  9  2  0  0  0  0
 10  9  1  0  0  0  0
 11  7  1  0  0  0  0
 11 10  2  0  0  0  0
 12 11  1  0  0  0  0
 13 12  1  0  0  0  0
 14 13  2  0  0  0  0
 15 14  1  0  0  0  0
 15 22  2  0  0  0  0
 16 15  1  0  0  0  0
 17 16  2  0  0  0  0
 18 16  1  0  0  0  0
 18 19  1  0  0  0  0
 19 21  2  0  0  0  0
 20 19  1  0  0  0  0
 20 24  1  0  0  0  0
 21 22  1  0  0  0  0
 22 12  1  0  0  0  0
 23 18  1  0  0  0  0
 25 20  1  0  0  0  0
 26 27  1  0  0  0  0
 26  1  1  0  0  0  0
 27 31  1  0  0  0  0
 28 27  2  0  0  0  0
 28 29  1  0  0  0  0
 29 30  1  0  0  0  0
 31 30  2  0  0  0  0
 32 30  1  6  0  0  0
 32 34  1  0  0  0  0
 32 33  1  0  0  0  0
 34 33  1  0  0  0  0
 34 35  1  1  0  0  0
 35 36  2  0  0  0  0
 37 38  1  0  0  0  0
 37 35  1  0  0  0  0
M  END
>  <minimizedAffinity>
-7.65810728

$$$$

 OpenBabel03272514413D

 38 43  0  0  1  0  0  0  0  0999 V2000
   31.5790   30.4810   44.8140 C   0  0  0  0  0  0  0  0  0  0  0  0
   32.5000   30.6750   43.7770 C   0  0  0  0  0  3  0  0  0  0  0  0
   32.0890   30.3820   42.4840 C   0  0  0  0  0  3  0  0  0  0  0  0
   30.8480   29.9300   42.2660 N   0  0  0  0  0  0  0  0  0  0  0  0
   29.9670   29.7500   43.3190 C   0  0  0  0  0  0  0  0  0  0  0  0
   30.3370   30.0240   44.5600 N   0  0  0  0  0  0  0  0  0  0  0  0
   28.6810   29.2680   43.0120 N   0  0  0  0  0  0  0  0  0  0  0  0
   28.6280   28.5550   41.8620 C   0  0  0  0  0  3  0  0  0  0  0  0
   27.2930   28.1500   41.6730 C   0  0  0  0  0  3  0  0  0  0  0  0
   26.6040   28.6360   42.7140 N   0  0  0  0  0  0  0  0  0  0  0  0
   27.4350   29.3090   43.5250 C   0  0  0  0  0  0  0  0  0  0  0  0
   27.2560   30.0170   44.7490 N   0  0  0  0  0  0  0  0  0  0  0  0
   27.5870   29.7550   46.0040 C   0  0  0  0  0  3  0  0  0  0  0  0
   27.1620   30.7990   46.7690 N   0  0  0  0  0  0  0  0  0  0  0  0
   26.5630   31.7080   45.9580 C   0  0  0  0  0  0  0  0  0  0  0  0
   25.9840   32.9210   46.2990 C   0  0  0  0  0  0  0  0  0  0  0  0
   25.9700   33.3070   47.4960 O   0  0  0  0  0  0  0  0  0  0  0  0
   25.4390   33.6740   45.3070 N   0  0  0  0  0  0  0  0  0  0  0  0
   25.4970   33.1870   44.0530 C   0  0  0  0  0  0  0  0  0  0  0  0
   24.9300   33.9610   43.0000 N   0  0  0  0  0  0  0  0  0  0  0  0
   26.0600   32.0090   43.7260 N   0  0  0  0  0  0  0  0  0  0  0  0
   26.6250   31.2060   44.6720 C   0  0  0  0  0  0  0  0  0  0  0  0
   24.9970   34.5830   45.5070 H   0  0  0  0  0  0  0  0  0  0  0  0
   24.9610   33.6130   42.0320 H   0  0  0  0  0  0  0  0  0  0  0  0
   24.4900   34.8690   43.2080 H   0  0  0  0  0  0  0  0  0  0  0  0
   31.9790   30.7660   46.0700 O   0  0  0  0  0  0  0  0  0  0  0  0
   32.9150   29.9460   46.7160 C   0  0  0  0  0  0  0  0  0  0  0  0
   32.5360   28.6350   46.8570 C   0  0  0  0  0  3  0  0  0  0  0  0
   33.9610   27.9440   47.7050 S   0  0  0  0  0  0  0  0  0  0  0  0
   34.8890   29.6140   47.7370 C   0  0  0  0  0  0  0  0  0  0  0  0
   34.0940   30.2240   47.2100 N   0  0  0  0  0  0  0  0  0  0  0  0
   36.2490   29.7210   48.3690 C   0  0  2  0  0  3  0  0  0  0  0  0
   36.4330   29.2530   49.7230 C   0  0  0  0  0  2  0  0  0  0  0  0
   36.2260   30.6460   49.6930 C   0  0  1  0  0  3  0  0  0  0  0  0
   37.5360   31.4190   49.8970 C   0  0  0  0  0  0  0  0  0  0  0  0
   37.5940   32.7150   49.6110 O   0  0  0  0  0  0  0  0  0  0  0  0
   38.6720   30.7460   50.3930 O   0  0  0  0  0  0  0  0  0  0  0  0
   39.5200   31.2380   50.5270 H   0  0  0  0  0  0  0  0  0  0  0  0
  1 26  1  0  0  0  0
  2  1  2  0  0  0  0
  3  2  1  0  0  0  0
  4  3  2  0  0  0  0
  4  5  1  0  0  0  0
  5  6  2  0  0  0  0
  6  1  1  0  0  0  0
  7  5  1  0  0  0  0
  7 11  1  0  0  0  0
  8  7  1  0  0  0  0
  9  8  2  0  0  0  0
  9 10  1  0  0  0  0
 10 11  2  0  0  0  0
 11 12  1  0  0  0  0
 12 13  1  0  0  0  0
 13 14  2  0  0  0  0
 15 16  1  0  0  0  0
 15 14  1  0  0  0  0
 16 17  2  0  0  0  0
 18 23  1  0  0  0  0
 18 16  1  0  0  0  0
 19 18  1  0  0  0  0
 20 25  1  0  0  0  0
 20 19  1  0  0  0  0
 21 19  2  0  0  0  0
 21 22  1  0  0  0  0
 22 12  1  0  0  0  0
 22 15  2  0  0  0  0
 24 20  1  0  0  0  0
 26 27  1  0  0  0  0
 27 28  2  0  0  0  0
 27 31  1  0  0  0  0
 28 29  1  0  0  0  0
 29 30  1  0  0  0  0
 31 30  2  0  0  0  0
 32 30  1  1  0  0  0
 32 34  1  0  0  0  0
 32 33  1  0  0  0  0
 34 33  1  0  0  0  0
 34 35  1  6  0  0  0
 35 37  1  0  0  0  0
 36 35  2  0  0  0  0
 37 38  1  0  0  0  0
M  END
>  <minimizedAffinity>
-7.42030334

$$$$

 OpenBabel03272514413D

 38 43  0  0  1  0  0  0  0  0999 V2000
   32.0210   29.1550   44.6980 C   0  0  0  0  0  0  0  0  0  0  0  0
   32.6530   30.1930   44.0010 C   0  0  0  0  0  3  0  0  0  0  0  0
   31.8490   31.1110   43.3400 C   0  0  0  0  0  3  0  0  0  0  0  0
   30.5160   30.9840   43.3850 N   0  0  0  0  0  0  0  0  0  0  0  0
   29.9310   29.9430   44.0840 C   0  0  0  0  0  0  0  0  0  0  0  0
   30.6770   29.0550   44.7220 N   0  0  0  0  0  0  0  0  0  0  0  0
   28.5240   29.8720   44.0820 N   0  0  0  0  0  0  0  0  0  0  0  0
   27.9520   30.4700   43.0110 C   0  0  0  0  0  3  0  0  0  0  0  0
   26.5560   30.3370   43.1440 C   0  0  0  0  0  3  0  0  0  0  0  0
   26.3530   29.6670   44.2860 N   0  0  0  0  0  0  0  0  0  0  0  0
   27.5350   29.3820   44.8550 C   0  0  0  0  0  0  0  0  0  0  0  0
   27.9130   28.7050   46.0500 N   0  0  0  0  0  0  0  0  0  0  0  0
   28.4590   27.5220   46.2870 C   0  0  0  0  0  3  0  0  0  0  0  0
   28.6000   27.3960   47.6360 N   0  0  0  0  0  0  0  0  0  0  0  0
   28.1290   28.5250   48.2240 C   0  0  0  0  0  0  0  0  0  0  0  0
   28.0720   28.8380   49.5730 C   0  0  0  0  0  0  0  0  0  0  0  0
   28.4930   28.0240   50.4350 O   0  0  0  0  0  0  0  0  0  0  0  0
   27.5540   30.0430   49.9330 N   0  0  0  0  0  0  0  0  0  0  0  0
   27.1270   30.8550   48.9460 C   0  0  0  0  0  0  0  0  0  0  0  0
   26.5800   32.1210   49.3030 N   0  0  0  0  0  0  0  0  0  0  0  0
   27.1840   30.5480   47.6380 N   0  0  0  0  0  0  0  0  0  0  0  0
   27.6920   29.3570   47.2100 C   0  0  0  0  0  0  0  0  0  0  0  0
   27.4900   30.3240   50.9210 H   0  0  0  0  0  0  0  0  0  0  0  0
   26.2460   32.7620   48.5700 H   0  0  0  0  0  0  0  0  0  0  0  0
   26.5180   32.3950   50.2940 H   0  0  0  0  0  0  0  0  0  0  0  0
   32.8030   28.2630   45.3400 O   0  0  0  0  0  0  0  0  0  0  0  0
   33.2670   28.5350   46.6350 C   0  0  0  0  0  0  0  0  0  0  0  0
   32.6270   27.8490   47.6360 C   0  0  0  0  0  3  0  0  0  0  0  0
   33.4850   28.4610   49.0900 S   0  0  0  0  0  0  0  0  0  0  0  0
   34.6280   29.6030   48.0700 C   0  0  0  0  0  0  0  0  0  0  0  0
   34.2100   29.3410   47.0490 N   0  0  0  0  0  0  0  0  0  0  0  0
   35.6540   30.4650   48.7510 C   0  0  2  0  0  3  0  0  0  0  0  0
   36.9850   30.5430   48.1960 C   0  0  0  0  0  2  0  0  0  0  0  0
   36.9290   29.6050   49.2450 C   0  0  1  0  0  3  0  0  0  0  0  0
   37.5500   30.1580   50.5350 C   0  0  0  0  0  0  0  0  0  0  0  0
   36.9740   29.9160   51.7070 O   0  0  0  0  0  0  0  0  0  0  0  0
   38.7380   30.9160   50.4660 O   0  0  0  0  0  0  0  0  0  0  0  0
   39.1440   31.2760   51.2940 H   0  0  0  0  0  0  0  0  0  0  0  0
  1  6  1  0  0  0  0
  1 26  1  0  0  0  0
  2  1  2  0  0  0  0
  3  4  2  0  0  0  0
  3  2  1  0  0  0  0
  4  5  1  0  0  0  0
  5  6  2  0  0  0  0
  7  5  1  0  0  0  0
  7 11  1  0  0  0  0
  8  9  2  0  0  0  0
  8  7  1  0  0  0  0
  9 10  1  0  0  0  0
 10 11  2  0  0  0  0
 11 12  1  0  0  0  0
 12 13  1  0  0  0  0
 12 22  1  0  0  0  0
 13 14  2  0  0  0  0
 14 15  1  0  0  0  0
 15 16  1  0  0  0  0
 16 18  1  0  0  0  0
 16 17  2  0  0  0  0
 18 23  1  0  0  0  0
 19 20  1  0  0  0  0
 19 18  1  0  0  0  0
 20 25  1  0  0  0  0
 21 19  2  0  0  0  0
 22 21  1  0  0  0  0
 22 15  2  0  0  0  0
 24 20  1  0  0  0  0
 26 27  1  0  0  0  0
 27 31  1  0  0  0  0
 27 28  2  0  0  0  0
 28 29  1  0  0  0  0
 30 29  1  0  0  0  0
 31 30  2  0  0  0  0
 32 30  1  6  0  0  0
 32 34  1  0  0  0  0
 33 32  1  0  0  0  0
 33 34  1  0  0  0  0
 34 35  1  1  0  0  0
 35 36  2  0  0  0  0
 37 35  1  0  0  0  0
 37 38  1  0  0  0  0
M  END
>  <minimizedAffinity>
-7.35174656

$$$$

 OpenBabel03272514413D

 38 43  0  0  1  0  0  0  0  0999 V2000
   26.9010   30.3670   46.6540 C   0  0  0  0  0  0  0  0  0  0  0  0
   26.4730   31.5540   47.2620 C   0  0  0  0  0  3  0  0  0  0  0  0
   26.5400   31.6320   48.6470 C   0  0  0  0  0  3  0  0  0  0  0  0
   27.0030   30.5910   49.3500 N   0  0  0  0  0  0  0  0  0  0  0  0
   27.4160   29.4350   48.7110 C   0  0  0  0  0  0  0  0  0  0  0  0
   27.3620   29.3380   47.3930 N   0  0  0  0  0  0  0  0  0  0  0  0
   27.8870   28.3820   49.5180 N   0  0  0  0  0  0  0  0  0  0  0  0
   27.4000   28.4060   50.7810 C   0  0  0  0  0  3  0  0  0  0  0  0
   27.9590   27.3140   51.4740 C   0  0  0  0  0  3  0  0  0  0  0  0
   28.7550   26.6850   50.5990 N   0  0  0  0  0  0  0  0  0  0  0  0
   28.7150   27.3230   49.4180 C   0  0  0  0  0  0  0  0  0  0  0  0
   29.3460   27.1030   48.1600 N   0  0  0  0  0  0  0  0  0  0  0  0
   28.9080   26.6610   46.9920 C   0  0  0  0  0  3  0  0  0  0  0  0
   29.9640   26.6560   46.1310 N   0  0  0  0  0  0  0  0  0  0  0  0
   31.0600   27.1030   46.7950 C   0  0  0  0  0  0  0  0  0  0  0  0
   32.3530   27.2640   46.3190 C   0  0  0  0  0  0  0  0  0  0  0  0
   32.6330   26.9840   45.1260 O   0  0  0  0  0  0  0  0  0  0  0  0
   33.2990   27.7340   47.1760 N   0  0  0  0  0  0  0  0  0  0  0  0
   32.9140   28.0100   48.4370 C   0  0  0  0  0  0  0  0  0  0  0  0
   33.8910   28.5010   49.3500 N   0  0  0  0  0  0  0  0  0  0  0  0
   31.6590   27.8520   48.8950 N   0  0  0  0  0  0  0  0  0  0  0  0
   30.6620   27.3870   48.0880 C   0  0  0  0  0  0  0  0  0  0  0  0
   34.2740   27.8720   46.8730 H   0  0  0  0  0  0  0  0  0  0  0  0
   33.6250   28.7210   50.3190 H   0  0  0  0  0  0  0  0  0  0  0  0
   34.8640   28.6360   49.0390 H   0  0  0  0  0  0  0  0  0  0  0  0
   26.8360   30.2930   45.3090 O   0  0  0  0  0  0  0  0  0  0  0  0
   27.6290   31.1350   44.5160 C   0  0  0  0  0  0  0  0  0  0  0  0
   26.9480   31.8300   43.5490 C   0  0  0  0  0  3  0  0  0  0  0  0
   28.2780   32.7600   42.7790 S   0  0  0  0  0  0  0  0  0  0  0  0
   29.6080   32.0290   43.9400 C   0  0  0  0  0  0  0  0  0  0  0  0
   28.9160   31.3680   44.5450 N   0  0  0  0  0  0  0  0  0  0  0  0
   31.0510   32.4290   43.7980 C   0  0  2  0  0  3  0  0  0  0  0  0
   31.7460   32.9680   44.9440 C   0  0  0  0  0  2  0  0  0  0  0  0
   31.2740   33.9980   44.1080 C   0  0  1  0  0  3  0  0  0  0  0  0
   32.4020   34.6120   43.2690 C   0  0  0  0  0  0  0  0  0  0  0  0
   32.1350   35.1430   42.0810 O   0  0  0  0  0  0  0  0  0  0  0  0
   33.7210   34.6130   43.7710 O   0  0  0  0  0  0  0  0  0  0  0  0
   34.4540   35.0070   43.2350 H   0  0  0  0  0  0  0  0  0  0  0  0
  1  2  2  0  0  0  0
  1  6  1  0  0  0  0
  2  3  1  0  0  0  0
  3  4  2  0  0  0  0
  5  4  1  0  0  0  0
  5  7  1  0  0  0  0
  6  5  2  0  0  0  0
  7  8  1  0  0  0  0
  8  9  2  0  0  0  0
 10  9  1  0  0  0  0
 11  7  1  0  0  0  0
 11 10  2  0  0  0  0
 12 11  1  0  0  0  0
 13 12  1  0  0  0  0
 14 15  1  0  0  0  0
 14 13  2  0  0  0  0
 15 22  2  0  0  0  0
 16 15  1  0  0  0  0
 16 18  1  0  0  0  0
 17 16  2  0  0  0  0
 18 19  1  0  0  0  0
 19 21  2  0  0  0  0
 19 20  1  0  0  0  0
 20 24  1  0  0  0  0
 22 12  1  0  0  0  0
 22 21  1  0  0  0  0
 23 18  1  0  0  0  0
 25 20  1  0  0  0  0
 26  1  1  0  0  0  0
 27 31  1  0  0  0  0
 27 26  1  0  0  0  0
 28 27  2  0  0  0  0
 29 28  1  0  0  0  0
 29 30  1  0  0  0  0
 30 31  2  0  0  0  0
 32 30  1  1  0  0  0
 32 34  1  0  0  0  0
 32 33  1  0  0  0  0
 34 35  1  6  0  0  0
 34 33  1  0  0  0  0
 35 37  1  0  0  0  0
 36 35  2  0  0  0  0
 38 37  1  0  0  0  0
M  END
>  <minimizedAffinity>
-7.31319809

$$$$

 OpenBabel03272514413D

 38 43  0  0  1  0  0  0  0  0999 V2000
   33.3550   27.9670   48.2450 C   0  0  0  0  0  0  0  0  0  0  0  0
   34.1630   28.3270   49.3320 C   0  0  0  0  0  3  0  0  0  0  0  0
   35.1940   29.2260   49.1010 C   0  0  0  0  0  3  0  0  0  0  0  0
   35.3880   29.7160   47.8690 N   0  0  0  0  0  0  0  0  0  0  0  0
   34.5680   29.3340   46.8220 C   0  0  0  0  0  0  0  0  0  0  0  0
   33.5780   28.4790   47.0180 N   0  0  0  0  0  0  0  0  0  0  0  0
   34.8370   29.8880   45.5550 N   0  0  0  0  0  0  0  0  0  0  0  0
   36.1220   30.2810   45.3950 C   0  0  0  0  0  3  0  0  0  0  0  0
   36.2440   30.8240   44.1010 C   0  0  0  0  0  3  0  0  0  0  0  0
   35.0300   30.7320   43.5430 N   0  0  0  0  0  0  0  0  0  0  0  0
   34.1770   30.1680   44.4130 C   0  0  0  0  0  0  0  0  0  0  0  0
   32.7930   29.8340   44.3580 N   0  0  0  0  0  0  0  0  0  0  0  0
   32.1420   28.6860   44.2590 C   0  0  0  0  0  3  0  0  0  0  0  0
   30.8090   28.9680   44.2520 N   0  0  0  0  0  0  0  0  0  0  0  0
   30.6550   30.3130   44.3490 C   0  0  0  0  0  0  0  0  0  0  0  0
   29.4800   31.0480   44.3780 C   0  0  0  0  0  0  0  0  0  0  0  0
   28.3640   30.4710   44.3130 O   0  0  0  0  0  0  0  0  0  0  0  0
   29.5700   32.4010   44.4820 N   0  0  0  0  0  0  0  0  0  0  0  0
   30.8040   32.9380   44.5470 C   0  0  0  0  0  0  0  0  0  0  0  0
   30.9200   34.3540   44.6550 N   0  0  0  0  0  0  0  0  0  0  0  0
   31.9420   32.2210   44.5180 N   0  0  0  0  0  0  0  0  0  0  0  0
   31.9220   30.8610   44.4160 C   0  0  0  0  0  0  0  0  0  0  0  0
   28.7280   32.9930   44.5090 H   0  0  0  0  0  0  0  0  0  0  0  0
   31.8500   34.7920   44.7070 H   0  0  0  0  0  0  0  0  0  0  0  0
   30.0730   34.9390   44.6800 H   0  0  0  0  0  0  0  0  0  0  0  0
   32.3520   27.0940   48.4700 O   0  0  0  0  0  0  0  0  0  0  0  0
   31.0620   27.3620   47.9910 C   0  0  0  0  0  0  0  0  0  0  0  0
   30.6540   26.5680   46.9500 C   0  0  0  0  0  3  0  0  0  0  0  0
   29.0070   27.2110   46.6370 S   0  0  0  0  0  0  0  0  0  0  0  0
   29.1330   28.5150   48.0280 C   0  0  0  0  0  0  0  0  0  0  0  0
   30.1800   28.2510   48.3710 N   0  0  0  0  0  0  0  0  0  0  0  0
   27.9930   29.4570   48.3000 C   0  0  2  0  0  3  0  0  0  0  0  0
   27.7880   29.9410   49.6450 C   0  0  0  0  0  2  0  0  0  0  0  0
   26.9490   28.8440   49.3680 C   0  0  1  0  0  3  0  0  0  0  0  0
   25.5040   29.2880   49.1030 C   0  0  0  0  0  0  0  0  0  0  0  0
   25.2100   30.5810   49.0170 O   0  0  0  0  0  0  0  0  0  0  0  0
   24.4950   28.3150   48.9460 O   0  0  0  0  0  0  0  0  0  0  0  0
   23.5600   28.5940   48.7740 H   0  0  0  0  0  0  0  0  0  0  0  0
  1 26  1  0  0  0  0
  1  2  1  0  0  0  0
  3  2  2  0  0  0  0
  4  3  1  0  0  0  0
  5  6  1  0  0  0  0
  5  4  2  0  0  0  0
  6  1  2  0  0  0  0
  7  5  1  0  0  0  0
  8  7  1  0  0  0  0
  9  8  2  0  0  0  0
 10  9  1  0  0  0  0
 10 11  2  0  0  0  0
 11  7  1  0  0  0  0
 12 11  1  0  0  0  0
 12 22  1  0  0  0  0
 13 12  1  0  0  0  0
 14 13  2  0  0  0  0
 14 15  1  0  0  0  0
 15 16  1  0  0  0  0
 15 22  2  0  0  0  0
 16 18  1  0  0  0  0
 17 16  2  0  0  0  0
 18 23  1  0  0  0  0
 18 19  1  0  0  0  0
 19 20  1  0  0  0  0
 20 25  1  0  0  0  0
 20 24  1  0  0  0  0
 21 19  2  0  0  0  0
 22 21  1  0  0  0  0
 27 31  1  0  0  0  0
 27 26  1  0  0  0  0
 28 27  2  0  0  0  0
 29 28  1  0  0  0  0
 29 30  1  0  0  0  0
 30 31  2  0  0  0  0
 32 30  1  1  0  0  0
 32 34  1  0  0  0  0
 32 33  1  0  0  0  0
 34 35  1  6  0  0  0
 34 33  1  0  0  0  0
 36 35  2  0  0  0  0
 37 35  1  0  0  0  0
 38 37  1  0  0  0  0
M  END
>  <minimizedAffinity>
-7.31080389

$$$$

 OpenBabel03272514413D

 38 43  0  0  1  0  0  0  0  0999 V2000
   31.2070   27.4320   45.6680 C   0  0  0  0  0  0  0  0  0  0  0  0
   31.9610   27.6300   44.5040 C   0  0  0  0  0  3  0  0  0  0  0  0
   31.2750   27.8620   43.3210 C   0  0  0  0  0  3  0  0  0  0  0  0
   29.9360   27.8900   43.3210 N   0  0  0  0  0  0  0  0  0  0  0  0
   29.2270   27.6890   44.4930 C   0  0  0  0  0  0  0  0  0  0  0  0
   29.8600   27.4660   45.6340 N   0  0  0  0  0  0  0  0  0  0  0  0
   27.8220   27.7280   44.4140 N   0  0  0  0  0  0  0  0  0  0  0  0
   27.3380   27.4300   43.1850 C   0  0  0  0  0  3  0  0  0  0  0  0
   25.9340   27.5210   43.2470 C   0  0  0  0  0  3  0  0  0  0  0  0
   25.6380   27.8690   44.5060 N   0  0  0  0  0  0  0  0  0  0  0  0
   26.7710   27.9940   45.2150 C   0  0  0  0  0  0  0  0  0  0  0  0
   27.0510   28.3370   46.5690 N   0  0  0  0  0  0  0  0  0  0  0  0
   27.4600   27.6350   47.6150 C   0  0  0  0  0  3  0  0  0  0  0  0
   27.5610   28.4910   48.6710 N   0  0  0  0  0  0  0  0  0  0  0  0
   27.2070   29.7320   48.2520 C   0  0  0  0  0  0  0  0  0  0  0  0
   27.1600   30.9100   48.9820 C   0  0  0  0  0  0  0  0  0  0  0  0
   27.4730   30.9180   50.2000 O   0  0  0  0  0  0  0  0  0  0  0  0
   26.7700   32.0460   48.3450 N   0  0  0  0  0  0  0  0  0  0  0  0
   26.4530   31.9490   47.0390 C   0  0  0  0  0  0  0  0  0  0  0  0
   26.0410   33.1280   46.3550 N   0  0  0  0  0  0  0  0  0  0  0  0
   26.4990   30.8040   46.3340 N   0  0  0  0  0  0  0  0  0  0  0  0
   26.8820   29.6300   46.9120 C   0  0  0  0  0  0  0  0  0  0  0  0
   26.7200   32.9470   48.8410 H   0  0  0  0  0  0  0  0  0  0  0  0
   25.7920   33.0840   45.3560 H   0  0  0  0  0  0  0  0  0  0  0  0
   25.9920   34.0260   46.8580 H   0  0  0  0  0  0  0  0  0  0  0  0
   31.8750   27.2060   46.8180 O   0  0  0  0  0  0  0  0  0  0  0  0
   32.8560   28.1090   47.2520 C   0  0  0  0  0  0  0  0  0  0  0  0
   32.8380   29.3300   46.6260 C   0  0  0  0  0  3  0  0  0  0  0  0
   34.2040   30.1660   47.4380 S   0  0  0  0  0  0  0  0  0  0  0  0
   34.6050   28.6640   48.5500 C   0  0  0  0  0  0  0  0  0  0  0  0
   33.7920   27.9800   48.1570 N   0  0  0  0  0  0  0  0  0  0  0  0
   35.7430   28.7200   49.5320 C   0  0  2  0  0  3  0  0  0  0  0  0
   35.4740   29.1180   50.8940 C   0  0  0  0  0  2  0  0  0  0  0  0
   35.9450   30.2060   50.1330 C   0  0  1  0  0  3  0  0  0  0  0  0
   37.4140   30.5230   50.4430 C   0  0  0  0  0  0  0  0  0  0  0  0
   38.1590   31.1640   49.5480 O   0  0  0  0  0  0  0  0  0  0  0  0
   37.9630   30.1360   51.6830 O   0  0  0  0  0  0  0  0  0  0  0  0
   38.9100   30.3370   51.8890 H   0  0  0  0  0  0  0  0  0  0  0  0
  1 26  1  0  0  0  0
  2  1  2  0  0  0  0
  3  4  2  0  0  0  0
  3  2  1  0  0  0  0
  4  5  1  0  0  0  0
  5  6  2  0  0  0  0
  6  1  1  0  0  0  0
  7  5  1  0  0  0  0
  7 11  1  0  0  0  0
  8  9  2  0  0  0  0
  8  7  1  0  0  0  0
  9 10  1  0  0  0  0
 10 11  2  0  0  0  0
 11 12  1  0  0  0  0
 12 22  1  0  0  0  0
 12 13  1  0  0  0  0
 13 14  2  0  0  0  0
 15 14  1  0  0  0  0
 15 16  1  0  0  0  0
 16 17  2  0  0  0  0
 18 23  1  0  0  0  0
 18 16  1  0  0  0  0
 19 18  1  0  0  0  0
 20 25  1  0  0  0  0
 20 19  1  0  0  0  0
 21 22  1  0  0  0  0
 21 19  2  0  0  0  0
 22 15  2  0  0  0  0
 24 20  1  0  0  0  0
 26 27  1  0  0  0  0
 27 31  1  0  0  0  0
 28 27  2  0  0  0  0
 28 29  1  0  0  0  0
 29 30  1  0  0  0  0
 31 30  2  0  0  0  0
 32 30  1  6  0  0  0
 32 34  1  0  0  0  0
 32 33  1  0  0  0  0
 34 35  1  1  0  0  0
 34 33  1  0  0  0  0
 35 37  1  0  0  0  0
 36 35  2  0  0  0  0
 37 38  1  0  0  0  0
M  END
>  <minimizedAffinity>
-7.19104338

$$$$

 OpenBabel03272514413D

 38 43  0  0  1  0  0  0  0  0999 V2000
   31.3440   30.8110   44.2920 C   0  0  0  0  0  0  0  0  0  0  0  0
   32.2320   31.7160   43.6960 C   0  0  0  0  0  3  0  0  0  0  0  0
   31.7030   32.6700   42.8380 C   0  0  0  0  0  3  0  0  0  0  0  0
   30.3840   32.7000   42.6060 N   0  0  0  0  0  0  0  0  0  0  0  0
   29.5410   31.7870   43.2140 C   0  0  0  0  0  0  0  0  0  0  0  0
   30.0220   30.8680   44.0360 N   0  0  0  0  0  0  0  0  0  0  0  0
   28.1670   31.8780   42.9180 N   0  0  0  0  0  0  0  0  0  0  0  0
   27.9060   32.4580   41.7230 C   0  0  0  0  0  3  0  0  0  0  0  0
   26.5070   32.4960   41.5650 C   0  0  0  0  0  3  0  0  0  0  0  0
   25.9920   31.9380   42.6690 N   0  0  0  0  0  0  0  0  0  0  0  0
   26.9870   31.5630   43.4870 C   0  0  0  0  0  0  0  0  0  0  0  0
   27.0240   30.9350   44.7660 N   0  0  0  0  0  0  0  0  0  0  0  0
   27.3550   29.7170   45.1680 C   0  0  0  0  0  3  0  0  0  0  0  0
   27.2010   29.6740   46.5210 N   0  0  0  0  0  0  0  0  0  0  0  0
   26.7680   30.8890   46.9420 C   0  0  0  0  0  0  0  0  0  0  0  0
   26.4780   31.3040   48.2330 C   0  0  0  0  0  0  0  0  0  0  0  0
   26.6070   30.5120   49.2010 O   0  0  0  0  0  0  0  0  0  0  0  0
   26.0550   32.5840   48.4170 N   0  0  0  0  0  0  0  0  0  0  0  0
   25.9450   33.3650   47.3260 C   0  0  0  0  0  0  0  0  0  0  0  0
   25.5020   34.7080   47.4990 N   0  0  0  0  0  0  0  0  0  0  0  0
   26.2270   32.9590   46.0750 N   0  0  0  0  0  0  0  0  0  0  0  0
   26.6560   31.6900   45.8200 C   0  0  0  0  0  0  0  0  0  0  0  0
   25.8270   32.9410   49.3560 H   0  0  0  0  0  0  0  0  0  0  0  0
   25.4090   35.3280   46.6830 H   0  0  0  0  0  0  0  0  0  0  0  0
   25.2750   35.0580   48.4410 H   0  0  0  0  0  0  0  0  0  0  0  0
   31.8590   29.8840   45.1260 O   0  0  0  0  0  0  0  0  0  0  0  0
   33.2150   29.9310   45.4820 C   0  0  0  0  0  0  0  0  0  0  0  0
   34.0870   29.5560   44.4920 C   0  0  0  0  0  3  0  0  0  0  0  0
   35.6680   29.7460   45.3220 S   0  0  0  0  0  0  0  0  0  0  0  0
   34.8650   30.3320   46.9540 C   0  0  0  0  0  0  0  0  0  0  0  0
   33.7880   30.2730   46.6070 N   0  0  0  0  0  0  0  0  0  0  0  0
   35.7150   30.6730   48.1460 C   0  0  2  0  0  3  0  0  0  0  0  0
   37.0390   30.1050   48.2500 C   0  0  0  0  0  2  0  0  0  0  0  0
   36.1080   29.3600   49.0000 C   0  0  1  0  0  3  0  0  0  0  0  0
   36.2300   29.6460   50.5020 C   0  0  0  0  0  0  0  0  0  0  0  0
   35.3520   29.1250   51.3520 O   0  0  0  0  0  0  0  0  0  0  0  0
   37.2830   30.4590   50.9730 O   0  0  0  0  0  0  0  0  0  0  0  0
   37.3680   30.6480   51.9410 H   0  0  0  0  0  0  0  0  0  0  0  0
  1 26  1  0  0  0  0
  2  1  2  0  0  0  0
  3  2  1  0  0  0  0
  4  3  2  0  0  0  0
  4  5  1  0  0  0  0
  5  6  2  0  0  0  0
  6  1  1  0  0  0  0
  7  5  1  0  0  0  0
  7 11  1  0  0  0  0
  8  7  1  0  0  0  0
  9  8  2  0  0  0  0
  9 10  1  0  0  0  0
 10 11  2  0  0  0  0
 11 12  1  0  0  0  0
 12 13  1  0  0  0  0
 12 22  1  0  0  0  0
 13 14  2  0  0  0  0
 14 15  1  0  0  0  0
 15 16  1  0  0  0  0
 16 18  1  0  0  0  0
 16 17  2  0  0  0  0
 18 23  1  0  0  0  0
 19 20  1  0  0  0  0
 19 18  1  0  0  0  0
 20 25  1  0  0  0  0
 21 19  2  0  0  0  0
 22 21  1  0  0  0  0
 22 15  2  0  0  0  0
 24 20  1  0  0  0  0
 26 27  1  0  0  0  0
 27 31  1  0  0  0  0
 28 29  1  0  0  0  0
 28 27  2  0  0  0  0
 29 30  1  0  0  0  0
 31 30  2  0  0  0  0
 32 30  1  6  0  0  0
 32 33  1  0  0  0  0
 32 34  1  0  0  0  0
 33 34  1  0  0  0  0
 34 35  1  1  0  0  0
 35 37  1  0  0  0  0
 35 36  2  0  0  0  0
 37 38  1  0  0  0  0
M  END
>  <minimizedAffinity>
-7.1628561

$$$$

 OpenBabel03272514413D

 38 43  0  0  1  0  0  0  0  0999 V2000
   31.7100   30.1100   44.5580 C   0  0  0  0  0  0  0  0  0  0  0  0
   32.5800   31.2000   44.4310 C   0  0  0  0  0  3  0  0  0  0  0  0
   32.0310   32.4300   44.0940 C   0  0  0  0  0  3  0  0  0  0  0  0
   30.7110   32.5400   43.9030 N   0  0  0  0  0  0  0  0  0  0  0  0
   29.8840   31.4380   44.0370 C   0  0  0  0  0  0  0  0  0  0  0  0
   30.3840   30.2560   44.3580 N   0  0  0  0  0  0  0  0  0  0  0  0
   28.5070   31.6310   43.8160 N   0  0  0  0  0  0  0  0  0  0  0  0
   28.2280   32.6830   43.0100 C   0  0  0  0  0  3  0  0  0  0  0  0
   26.8270   32.7660   42.8880 C   0  0  0  0  0  3  0  0  0  0  0  0
   26.3290   31.7640   43.6240 N   0  0  0  0  0  0  0  0  0  0  0  0
   27.3360   31.0750   44.1850 C   0  0  0  0  0  0  0  0  0  0  0  0
   27.3920   29.9400   45.0450 N   0  0  0  0  0  0  0  0  0  0  0  0
   27.7430   28.6780   44.8560 C   0  0  0  0  0  3  0  0  0  0  0  0
   27.6010   28.0290   46.0460 N   0  0  0  0  0  0  0  0  0  0  0  0
   27.1560   28.9180   46.9690 C   0  0  0  0  0  0  0  0  0  0  0  0
   26.8710   28.7040   48.3090 C   0  0  0  0  0  0  0  0  0  0  0  0
   27.0190   27.5630   48.8180 O   0  0  0  0  0  0  0  0  0  0  0  0
   26.4330   29.7570   49.0500 N   0  0  0  0  0  0  0  0  0  0  0  0
   26.3030   30.9440   48.4260 C   0  0  0  0  0  0  0  0  0  0  0  0
   25.8440   32.0590   49.1850 N   0  0  0  0  0  0  0  0  0  0  0  0
   26.5800   31.1490   47.1260 N   0  0  0  0  0  0  0  0  0  0  0  0
   27.0240   30.1360   46.3270 C   0  0  0  0  0  0  0  0  0  0  0  0
   26.2090   29.6510   50.0490 H   0  0  0  0  0  0  0  0  0  0  0  0
   25.7360   32.9790   48.7350 H   0  0  0  0  0  0  0  0  0  0  0  0
   25.6210   31.9460   50.1840 H   0  0  0  0  0  0  0  0  0  0  0  0
   32.2440   28.9150   44.8850 O   0  0  0  0  0  0  0  0  0  0  0  0
   32.5740   28.6320   46.2180 C   0  0  0  0  0  0  0  0  0  0  0  0
   31.6100   27.9560   46.9230 C   0  0  0  0  0  3  0  0  0  0  0  0
   32.3930   27.7960   48.5310 S   0  0  0  0  0  0  0  0  0  0  0  0
   33.9760   28.7110   47.9730 C   0  0  0  0  0  0  0  0  0  0  0  0
   33.6520   28.9100   46.9060 N   0  0  0  0  0  0  0  0  0  0  0  0
   35.1100   28.9340   48.9350 C   0  0  2  0  0  3  0  0  0  0  0  0
   34.8110   29.2310   50.3160 C   0  0  0  0  0  2  0  0  0  0  0  0
   35.0640   30.4100   49.5880 C   0  0  1  0  0  3  0  0  0  0  0  0
   36.4620   30.9700   49.8810 C   0  0  0  0  0  0  0  0  0  0  0  0
   37.0400   31.8010   49.0200 O   0  0  0  0  0  0  0  0  0  0  0  0
   37.1230   30.6030   51.0720 O   0  0  0  0  0  0  0  0  0  0  0  0
   38.0250   30.9610   51.2680 H   0  0  0  0  0  0  0  0  0  0  0  0
  1 26  1  0  0  0  0
  2  1  1  0  0  0  0
  3  2  2  0  0  0  0
  4  5  2  0  0  0  0
  4  3  1  0  0  0  0
  5  6  1  0  0  0  0
  6  1  2  0  0  0  0
  7  5  1  0  0  0  0
  7 11  1  0  0  0  0
  8  7  1  0  0  0  0
  9  8  2  0  0  0  0
  9 10  1  0  0  0  0
 10 11  2  0  0  0  0
 11 12  1  0  0  0  0
 12 22  1  0  0  0  0
 13 12  1  0  0  0  0
 13 14  2  0  0  0  0
 14 15  1  0  0  0  0
 15 16  1  0  0  0  0
 16 17  2  0  0  0  0
 16 18  1  0  0  0  0
 18 23  1  0  0  0  0
 19 18  1  0  0  0  0
 19 20  1  0  0  0  0
 20 25  1  0  0  0  0
 21 19  2  0  0  0  0
 22 15  2  0  0  0  0
 22 21  1  0  0  0  0
 24 20  1  0  0  0  0
 26 27  1  0  0  0  0
 27 31  1  0  0  0  0
 27 28  2  0  0  0  0
 28 29  1  0  0  0  0
 30 29  1  0  0  0  0
 31 30  2  0  0  0  0
 32 30  1  6  0  0  0
 32 34  1  0  0  0  0
 32 33  1  0  0  0  0
 34 35  1  1  0  0  0
 34 33  1  0  0  0  0
 35 37  1  0  0  0  0
 36 35  2  0  0  0  0
 37 38  1  0  0  0  0
M  END
>  <minimizedAffinity>
-7.12572765

$$$$
