
 OpenBabel03272514363D

 30 33  0  0  1  0  0  0  0  0999 V2000
   32.9960   25.4110   47.2080 C   0  0  0  0  0  3  0  0  0  0  0  0
   31.7020   25.6750   47.6440 C   0  0  0  0  0  3  0  0  0  0  0  0
   31.4110   26.7920   48.3410 C   0  0  0  0  0  0  0  0  0  0  0  0
   32.4410   27.6530   48.6050 N   0  0  0  0  0  0  0  0  0  0  0  0
   33.6850   27.4150   48.1950 C   0  0  0  0  0  0  0  0  0  0  0  0
   33.9540   26.3310   47.5170 N   0  0  0  0  0  0  0  0  0  0  0  0
   34.7560   28.3890   48.5470 C   0  0  2  0  0  3  0  0  0  0  0  0
   34.8380   28.4830   50.0990 C   0  0  0  0  0  1  0  0  0  0  0  0
   34.4990   29.7610   48.0540 C   0  0  0  0  0  2  0  0  0  0  0  0
   35.5940   30.2380   47.1770 C   0  0  0  0  0  0  0  0  0  0  0  0
   35.6280   29.9970   45.8330 N   0  0  0  0  0  0  0  0  0  0  0  0
   36.6660   30.5020   45.1040 C   0  0  0  0  0  3  0  0  0  0  0  0
   37.6910   31.2340   45.5720 N   0  0  0  0  0  0  0  0  0  0  0  0
   37.6790   31.4860   46.8970 C   0  0  0  0  0  0  0  0  0  0  0  0
   38.7210   32.2290   47.4110 C   0  0  0  0  0  3  0  0  0  0  0  0
   38.7490   32.5010   48.7630 C   0  0  0  0  0  3  0  0  0  0  0  0
   37.7490   32.0400   49.6050 C   0  0  0  0  0  3  0  0  0  0  0  0
   36.7280   31.2990   49.0340 C   0  0  0  0  0  3  0  0  0  0  0  0
   36.6410   30.9920   47.6860 C   0  0  0  0  0  0  0  0  0  0  0  0
   29.9950   27.0100   48.6970 C   0  0  0  0  0  2  0  0  0  0  0  0
   29.8390   28.3080   49.3720 C   0  0  0  0  0  2  0  0  0  0  0  0
   28.7630   28.2880   50.3330 N   0  0  0  0  0  0  0  0  0  0  0  0
   28.6570   26.9290   50.9270 C   0  0  0  0  0  2  0  0  0  0  0  0
   27.3280   26.9950   51.6270 C   0  0  0  0  0  2  0  0  0  0  0  0
   26.5370   28.0770   50.8910 C   0  0  0  0  0  2  0  0  0  0  0  0
   27.4810   28.3720   49.7300 C   0  0  1  0  0  3  0  0  0  0  0  0
   27.1310   29.7230   49.2130 C   0  0  0  0  0  0  0  0  0  0  0  0
   27.3220   29.9050   47.8770 F   0  0  0  0  0  0  0  0  0  0  0  0
   27.7660   30.6680   49.9840 F   0  0  0  0  0  0  0  0  0  0  0  0
   25.7450   29.9190   49.3950 F   0  0  0  0  0  0  0  0  0  0  0  0
  1  6  2  0  0  0  0
  1  2  1  0  0  0  0
  2  3  2  0  0  0  0
  3  4  1  0  0  0  0
  3 20  1  0  0  0  0
  5  7  1  0  0  0  0
  5  4  2  0  0  0  0
  6  5  1  0  0  0  0
  7  8  1  1  0  0  0
  9  7  1  0  0  0  0
 10 19  1  0  0  0  0
 10  9  1  0  0  0  0
 11 10  2  0  0  0  0
 12 13  2  0  0  0  0
 12 11  1  0  0  0  0
 13 14  1  0  0  0  0
 14 15  2  0  0  0  0
 14 19  1  0  0  0  0
 15 16  1  0  0  0  0
 16 17  2  0  0  0  0
 18 17  1  0  0  0  0
 19 18  2  0  0  0  0
 20 21  1  0  0  0  0
 21 22  1  0  0  0  0
 22 23  1  0  0  0  0
 23 24  1  0  0  0  0
 25 24  1  0  0  0  0
 26 27  1  1  0  0  0
 26 22  1  0  0  0  0
 26 25  1  0  0  0  0
 27 30  1  0  0  0  0
 27 29  1  0  0  0  0
 28 27  1  0  0  0  0
M  END
>  <minimizedAffinity>
-7.50836182

$$$$

 OpenBabel03272514363D

 30 33  0  0  1  0  0  0  0  0999 V2000
   30.8470   27.3660   44.4190 C   0  0  0  0  0  3  0  0  0  0  0  0
   29.7590   27.3960   45.2860 C   0  0  0  0  0  3  0  0  0  0  0  0
   29.9210   27.6120   46.6070 C   0  0  0  0  0  0  0  0  0  0  0  0
   31.2000   27.7950   47.0610 N   0  0  0  0  0  0  0  0  0  0  0  0
   32.2510   27.7680   46.2450 C   0  0  0  0  0  0  0  0  0  0  0  0
   32.0800   27.5630   44.9650 N   0  0  0  0  0  0  0  0  0  0  0  0
   33.6120   27.9490   46.8210 C   0  0  2  0  0  3  0  0  0  0  0  0
   33.9350   26.7090   47.7080 C   0  0  0  0  0  1  0  0  0  0  0  0
   33.7370   29.1360   47.6960 C   0  0  0  0  0  2  0  0  0  0  0  0
   35.1070   29.7000   47.6560 C   0  0  0  0  0  0  0  0  0  0  0  0
   35.6860   30.1680   46.5110 N   0  0  0  0  0  0  0  0  0  0  0  0
   36.9430   30.6940   46.5810 C   0  0  0  0  0  3  0  0  0  0  0  0
   37.7020   30.8090   47.6840 N   0  0  0  0  0  0  0  0  0  0  0  0
   37.1520   30.3540   48.8280 C   0  0  0  0  0  0  0  0  0  0  0  0
   37.9070   30.4510   49.9780 C   0  0  0  0  0  3  0  0  0  0  0  0
   37.3830   29.9890   51.1670 C   0  0  0  0  0  3  0  0  0  0  0  0
   36.1150   29.4330   51.2200 C   0  0  0  0  0  3  0  0  0  0  0  0
   35.4010   29.3620   50.0350 C   0  0  0  0  0  3  0  0  0  0  0  0
   35.8690   29.8070   48.8100 C   0  0  0  0  0  0  0  0  0  0  0  0
   28.6980   27.6940   47.4290 C   0  0  0  0  0  2  0  0  0  0  0  0
   28.7230   28.9120   48.2530 C   0  0  0  0  0  2  0  0  0  0  0  0
   28.2620   28.6630   49.5970 N   0  0  0  0  0  0  0  0  0  0  0  0
   29.0830   27.5840   50.2080 C   0  0  0  0  0  2  0  0  0  0  0  0
   28.2830   27.2340   51.4320 C   0  0  0  0  0  2  0  0  0  0  0  0
   26.8480   27.6480   51.1070 C   0  0  0  0  0  2  0  0  0  0  0  0
   26.9930   28.0300   49.6370 C   0  0  1  0  0  3  0  0  0  0  0  0
   25.8490   28.9210   49.3010 C   0  0  0  0  0  0  0  0  0  0  0  0
   24.7830   28.8460   50.1450 F   0  0  0  0  0  0  0  0  0  0  0  0
   25.5100   28.7250   47.9830 F   0  0  0  0  0  0  0  0  0  0  0  0
   26.2850   30.2590   49.4110 F   0  0  0  0  0  0  0  0  0  0  0  0
  1  6  2  0  0  0  0
  1  2  1  0  0  0  0
  2  3  2  0  0  0  0
  3  4  1  0  0  0  0
  3 20  1  0  0  0  0
  5  7  1  0  0  0  0
  5  4  2  0  0  0  0
  6  5  1  0  0  0  0
  7  9  1  0  0  0  0
  7  8  1  1  0  0  0
 10  9  1  0  0  0  0
 10 19  1  0  0  0  0
 11 12  1  0  0  0  0
 11 10  2  0  0  0  0
 12 13  2  0  0  0  0
 13 14  1  0  0  0  0
 14 15  1  0  0  0  0
 15 16  2  0  0  0  0
 16 17  1  0  0  0  0
 18 17  2  0  0  0  0
 19 14  2  0  0  0  0
 19 18  1  0  0  0  0
 20 21  1  0  0  0  0
 21 22  1  0  0  0  0
 22 26  1  0  0  0  0
 22 23  1  0  0  0  0
 23 24  1  0  0  0  0
 25 24  1  0  0  0  0
 26 27  1  1  0  0  0
 26 25  1  0  0  0  0
 27 30  1  0  0  0  0
 27 28  1  0  0  0  0
 29 27  1  0  0  0  0
M  END
>  <minimizedAffinity>
-7.39734745

$$$$

 OpenBabel03272514363D

 30 33  0  0  1  0  0  0  0  0999 V2000
   33.0240   25.7720   46.5160 C   0  0  0  0  0  3  0  0  0  0  0  0
   31.7840   25.7720   47.1450 C   0  0  0  0  0  3  0  0  0  0  0  0
   31.5070   26.6280   48.1500 C   0  0  0  0  0  0  0  0  0  0  0  0
   32.4990   27.4920   48.5290 N   0  0  0  0  0  0  0  0  0  0  0  0
   33.6920   27.5030   47.9380 C   0  0  0  0  0  0  0  0  0  0  0  0
   33.9450   26.6720   46.9620 N   0  0  0  0  0  0  0  0  0  0  0  0
   34.7270   28.4550   48.4270 C   0  0  2  0  0  3  0  0  0  0  0  0
   34.6550   28.4970   49.9830 C   0  0  0  0  0  1  0  0  0  0  0  0
   34.5280   29.8450   47.9590 C   0  0  0  0  0  2  0  0  0  0  0  0
   35.6800   30.3190   47.1550 C   0  0  0  0  0  0  0  0  0  0  0  0
   35.7920   30.0940   45.8130 N   0  0  0  0  0  0  0  0  0  0  0  0
   36.8780   30.5950   45.1550 C   0  0  0  0  0  3  0  0  0  0  0  0
   37.8810   31.3080   45.6930 N   0  0  0  0  0  0  0  0  0  0  0  0
   37.7930   31.5430   47.0190 C   0  0  0  0  0  0  0  0  0  0  0  0
   38.8110   32.2670   47.6040 C   0  0  0  0  0  3  0  0  0  0  0  0
   38.7600   32.5210   48.9590 C   0  0  0  0  0  3  0  0  0  0  0  0
   37.7060   32.0630   49.7320 C   0  0  0  0  0  3  0  0  0  0  0  0
   36.7120   31.3420   49.0910 C   0  0  0  0  0  3  0  0  0  0  0  0
   36.7030   31.0530   47.7370 C   0  0  0  0  0  0  0  0  0  0  0  0
   30.1390   26.5940   48.7030 C   0  0  0  0  0  2  0  0  0  0  0  0
   29.7180   27.9490   49.0890 C   0  0  0  0  0  2  0  0  0  0  0  0
   28.2950   28.1340   48.9370 N   0  0  0  0  0  0  0  0  0  0  0  0
   28.0380   29.3920   48.1880 C   0  0  0  0  0  2  0  0  0  0  0  0
   26.5640   29.5930   48.4050 C   0  0  0  0  0  2  0  0  0  0  0  0
   26.2430   28.8520   49.7030 C   0  0  0  0  0  2  0  0  0  0  0  0
   27.6470   28.4620   50.1560 C   0  0  1  0  0  3  0  0  0  0  0  0
   27.5000   27.3220   51.1030 C   0  0  0  0  0  0  0  0  0  0  0  0
   28.4700   27.2240   52.0530 F   0  0  0  0  0  0  0  0  0  0  0  0
   27.3350   26.1660   50.3760 F   0  0  0  0  0  0  0  0  0  0  0  0
   26.3110   27.5100   51.8380 F   0  0  0  0  0  0  0  0  0  0  0  0
  1  6  2  0  0  0  0
  1  2  1  0  0  0  0
  2  3  2  0  0  0  0
  3  4  1  0  0  0  0
  3 20  1  0  0  0  0
  5  7  1  0  0  0  0
  5  4  2  0  0  0  0
  6  5  1  0  0  0  0
  7  8  1  1  0  0  0
  9  7  1  0  0  0  0
 10 19  1  0  0  0  0
 10  9  1  0  0  0  0
 11 10  2  0  0  0  0
 12 13  2  0  0  0  0
 12 11  1  0  0  0  0
 13 14  1  0  0  0  0
 14 15  2  0  0  0  0
 14 19  1  0  0  0  0
 15 16  1  0  0  0  0
 16 17  2  0  0  0  0
 18 17  1  0  0  0  0
 19 18  2  0  0  0  0
 20 21  1  0  0  0  0
 22 21  1  0  0  0  0
 22 26  1  0  0  0  0
 23 24  1  0  0  0  0
 23 22  1  0  0  0  0
 24 25  1  0  0  0  0
 25 26  1  0  0  0  0
 26 27  1  1  0  0  0
 27 30  1  0  0  0  0
 27 28  1  0  0  0  0
 29 27  1  0  0  0  0
M  END
>  <minimizedAffinity>
-7.39378023

$$$$

 OpenBabel03272514363D

 30 33  0  0  1  0  0  0  0  0999 V2000
   33.1890   26.4910   46.6760 C   0  0  0  0  0  3  0  0  0  0  0  0
   31.9110   26.3690   47.2120 C   0  0  0  0  0  3  0  0  0  0  0  0
   31.5250   27.0960   48.2800 C   0  0  0  0  0  0  0  0  0  0  0  0
   32.4450   27.9550   48.8190 N   0  0  0  0  0  0  0  0  0  0  0  0
   33.6720   28.0830   48.3190 C   0  0  0  0  0  0  0  0  0  0  0  0
   34.0320   27.3760   47.2810 N   0  0  0  0  0  0  0  0  0  0  0  0
   34.6230   29.0190   48.9810 C   0  0  2  0  0  3  0  0  0  0  0  0
   34.0800   29.3400   50.4050 C   0  0  0  0  0  1  0  0  0  0  0  0
   34.7660   30.3160   48.2820 C   0  0  0  0  0  2  0  0  0  0  0  0
   36.1450   30.8460   48.3950 C   0  0  0  0  0  0  0  0  0  0  0  0
   36.6670   31.3170   49.5650 N   0  0  0  0  0  0  0  0  0  0  0  0
   37.9580   31.7590   49.5740 C   0  0  0  0  0  3  0  0  0  0  0  0
   38.8020   31.7850   48.5300 N   0  0  0  0  0  0  0  0  0  0  0  0
   38.3090   31.3250   47.3610 C   0  0  0  0  0  0  0  0  0  0  0  0
   39.1480   31.3450   46.2670 C   0  0  0  0  0  3  0  0  0  0  0  0
   38.6780   30.8900   45.0520 C   0  0  0  0  0  3  0  0  0  0  0  0
   37.3830   30.4160   44.9210 C   0  0  0  0  0  3  0  0  0  0  0  0
   36.5850   30.4200   46.0530 C   0  0  0  0  0  3  0  0  0  0  0  0
   36.9960   30.8620   47.2990 C   0  0  0  0  0  0  0  0  0  0  0  0
   30.1270   26.9430   48.7260 C   0  0  0  0  0  2  0  0  0  0  0  0
   29.5200   28.2650   48.9460 C   0  0  0  0  0  2  0  0  0  0  0  0
   28.6310   28.2660   50.0830 N   0  0  0  0  0  0  0  0  0  0  0  0
   28.7720   26.9830   50.8210 C   0  0  0  0  0  2  0  0  0  0  0  0
   27.5820   27.0160   51.7400 C   0  0  0  0  0  2  0  0  0  0  0  0
   26.5670   27.9300   51.0520 C   0  0  0  0  0  2  0  0  0  0  0  0
   27.2640   28.1660   49.7150 C   0  0  1  0  0  3  0  0  0  0  0  0
   26.6880   29.4100   49.1350 C   0  0  0  0  0  0  0  0  0  0  0  0
   26.6340   29.4490   47.7750 F   0  0  0  0  0  0  0  0  0  0  0  0
   27.3390   30.4920   49.6810 F   0  0  0  0  0  0  0  0  0  0  0  0
   25.3400   29.5030   49.5400 F   0  0  0  0  0  0  0  0  0  0  0  0
  1  2  2  0  0  0  0
  1  6  1  0  0  0  0
  2  3  1  0  0  0  0
  3 20  1  0  0  0  0
  3  4  2  0  0  0  0
  5  4  1  0  0  0  0
  5  7  1  0  0  0  0
  6  5  2  0  0  0  0
  7  8  1  1  0  0  0
  9 10  1  0  0  0  0
  9  7  1  0  0  0  0
 10 11  1  0  0  0  0
 11 12  2  0  0  0  0
 13 12  1  0  0  0  0
 14 13  2  0  0  0  0
 15 14  1  0  0  0  0
 16 15  2  0  0  0  0
 17 16  1  0  0  0  0
 17 18  2  0  0  0  0
 18 19  1  0  0  0  0
 19 14  1  0  0  0  0
 19 10  2  0  0  0  0
 20 21  1  0  0  0  0
 21 22  1  0  0  0  0
 22 23  1  0  0  0  0
 23 24  1  0  0  0  0
 25 24  1  0  0  0  0
 26 27  1  1  0  0  0
 26 22  1  0  0  0  0
 26 25  1  0  0  0  0
 27 30  1  0  0  0  0
 27 29  1  0  0  0  0
 28 27  1  0  0  0  0
M  END
>  <minimizedAffinity>
-7.31802988

$$$$

 OpenBabel03272514363D

 30 33  0  0  1  0  0  0  0  0999 V2000
   32.1780   25.7050   47.4550 C   0  0  0  0  0  3  0  0  0  0  0  0
   30.8600   26.0420   47.1650 C   0  0  0  0  0  3  0  0  0  0  0  0
   30.4620   27.3280   47.1050 C   0  0  0  0  0  0  0  0  0  0  0  0
   31.4060   28.2900   47.3460 N   0  0  0  0  0  0  0  0  0  0  0  0
   32.6710   27.9830   47.6250 C   0  0  0  0  0  0  0  0  0  0  0  0
   33.0450   26.7320   47.6760 N   0  0  0  0  0  0  0  0  0  0  0  0
   33.6330   29.0870   47.9020 C   0  0  2  0  0  3  0  0  0  0  0  0
   33.5170   30.1340   46.7540 C   0  0  0  0  0  1  0  0  0  0  0  0
   35.0470   28.6520   47.9360 C   0  0  0  0  0  2  0  0  0  0  0  0
   35.7820   29.2760   49.0610 C   0  0  0  0  0  0  0  0  0  0  0  0
   35.5760   28.9300   50.3660 N   0  0  0  0  0  0  0  0  0  0  0  0
   36.3230   29.5430   51.3300 C   0  0  0  0  0  3  0  0  0  0  0  0
   37.2690   30.4770   51.1370 N   0  0  0  0  0  0  0  0  0  0  0  0
   37.4910   30.8350   49.8550 C   0  0  0  0  0  0  0  0  0  0  0  0
   38.4520   31.7970   49.6230 C   0  0  0  0  0  3  0  0  0  0  0  0
   38.7020   32.1950   48.3260 C   0  0  0  0  0  3  0  0  0  0  0  0
   38.0060   31.6440   47.2620 C   0  0  0  0  0  3  0  0  0  0  0  0
   37.0530   30.6820   47.5550 C   0  0  0  0  0  3  0  0  0  0  0  0
   36.7550   30.2390   48.8330 C   0  0  0  0  0  0  0  0  0  0  0  0
   29.0580   27.5800   46.7220 C   0  0  0  0  0  2  0  0  0  0  0  0
   28.5090   28.6880   47.5170 C   0  0  0  0  0  2  0  0  0  0  0  0
   27.4700   28.2420   48.4150 N   0  0  0  0  0  0  0  0  0  0  0  0
   26.2710   29.1050   48.2490 C   0  0  0  0  0  2  0  0  0  0  0  0
   25.4430   28.7280   49.4460 C   0  0  0  0  0  2  0  0  0  0  0  0
   26.4430   28.2030   50.4770 C   0  0  0  0  0  2  0  0  0  0  0  0
   27.7600   28.5190   49.7760 C   0  0  1  0  0  3  0  0  0  0  0  0
   28.7990   27.6370   50.3770 C   0  0  0  0  0  0  0  0  0  0  0  0
   30.0690   28.1240   50.3420 F   0  0  0  0  0  0  0  0  0  0  0  0
   28.6850   26.3830   49.8230 F   0  0  0  0  0  0  0  0  0  0  0  0
   28.5170   27.4980   51.7530 F   0  0  0  0  0  0  0  0  0  0  0  0
  1  6  1  0  0  0  0
  2  1  2  0  0  0  0
  3  2  1  0  0  0  0
  3  4  2  0  0  0  0
  4  5  1  0  0  0  0
  5  6  2  0  0  0  0
  5  7  1  0  0  0  0
  7  8  1  6  0  0  0
  7  9  1  0  0  0  0
  9 10  1  0  0  0  0
 10 11  1  0  0  0  0
 11 12  2  0  0  0  0
 13 12  1  0  0  0  0
 14 13  2  0  0  0  0
 15 14  1  0  0  0  0
 16 15  2  0  0  0  0
 17 18  2  0  0  0  0
 17 16  1  0  0  0  0
 18 19  1  0  0  0  0
 19 10  2  0  0  0  0
 19 14  1  0  0  0  0
 20  3  1  0  0  0  0
 20 21  1  0  0  0  0
 21 22  1  0  0  0  0
 22 26  1  0  0  0  0
 23 22  1  0  0  0  0
 23 24  1  0  0  0  0
 24 25  1  0  0  0  0
 26 27  1  1  0  0  0
 26 25  1  0  0  0  0
 27 30  1  0  0  0  0
 28 27  1  0  0  0  0
 29 27  1  0  0  0  0
M  END
>  <minimizedAffinity>
-7.23364305

$$$$

 OpenBabel03272514363D

 30 33  0  0  1  0  0  0  0  0999 V2000
   31.0780   26.1440   46.9480 C   0  0  0  0  0  3  0  0  0  0  0  0
   32.3520   26.5840   47.2930 C   0  0  0  0  0  3  0  0  0  0  0  0
   32.5450   27.4400   48.3160 C   0  0  0  0  0  0  0  0  0  0  0  0
   31.4360   27.8650   48.9980 N   0  0  0  0  0  0  0  0  0  0  0  0
   30.2100   27.4550   48.6790 C   0  0  0  0  0  0  0  0  0  0  0  0
   30.0370   26.6200   47.6880 N   0  0  0  0  0  0  0  0  0  0  0  0
   29.0520   27.9840   49.4520 C   0  0  2  0  0  3  0  0  0  0  0  0
   28.8920   27.1240   50.7410 C   0  0  0  0  0  1  0  0  0  0  0  0
   27.7640   27.9020   48.7280 C   0  0  0  0  0  2  0  0  0  0  0  0
   27.2630   29.2460   48.3540 C   0  0  0  0  0  0  0  0  0  0  0  0
   26.8190   30.1560   49.2700 N   0  0  0  0  0  0  0  0  0  0  0  0
   26.4030   31.3780   48.8280 C   0  0  0  0  0  3  0  0  0  0  0  0
   26.3800   31.8040   47.5540 N   0  0  0  0  0  0  0  0  0  0  0  0
   26.8150   30.9230   46.6300 C   0  0  0  0  0  0  0  0  0  0  0  0
   26.7980   31.3260   45.3120 C   0  0  0  0  0  3  0  0  0  0  0  0
   27.2280   30.4500   44.3360 C   0  0  0  0  0  3  0  0  0  0  0  0
   27.6730   29.1790   44.6640 C   0  0  0  0  0  3  0  0  0  0  0  0
   27.6680   28.8290   46.0040 C   0  0  0  0  0  3  0  0  0  0  0  0
   27.2510   29.6600   47.0300 C   0  0  0  0  0  0  0  0  0  0  0  0
   33.9410   27.7900   48.6450 C   0  0  0  0  0  2  0  0  0  0  0  0
   33.9770   29.0160   49.4560 C   0  0  0  0  0  2  0  0  0  0  0  0
   35.0370   29.9040   49.0420 N   0  0  0  0  0  0  0  0  0  0  0  0
   35.1770   29.8490   47.5630 C   0  0  0  0  0  2  0  0  0  0  0  0
   36.4920   30.5460   47.3460 C   0  0  0  0  0  2  0  0  0  0  0  0
   37.2590   30.3780   48.6580 C   0  0  0  0  0  2  0  0  0  0  0  0
   36.3250   29.4340   49.4090 C   0  0  1  0  0  3  0  0  0  0  0  0
   36.6410   29.5670   50.8580 C   0  0  0  0  0  0  0  0  0  0  0  0
   35.6630   29.1500   51.7090 F   0  0  0  0  0  0  0  0  0  0  0  0
   37.0560   30.8550   51.1010 F   0  0  0  0  0  0  0  0  0  0  0  0
   37.7370   28.7280   51.1490 F   0  0  0  0  0  0  0  0  0  0  0  0
  1  2  2  0  0  0  0
  1  6  1  0  0  0  0
  2  3  1  0  0  0  0
  3 20  1  0  0  0  0
  3  4  2  0  0  0  0
  5  4  1  0  0  0  0
  5  7  1  0  0  0  0
  6  5  2  0  0  0  0
  7  8  1  1  0  0  0
  9  7  1  0  0  0  0
 10  9  1  0  0  0  0
 10 11  1  0  0  0  0
 12 11  2  0  0  0  0
 13 12  1  0  0  0  0
 14 19  1  0  0  0  0
 14 13  2  0  0  0  0
 15 14  1  0  0  0  0
 16 17  1  0  0  0  0
 16 15  2  0  0  0  0
 17 18  2  0  0  0  0
 18 19  1  0  0  0  0
 19 10  2  0  0  0  0
 20 21  1  0  0  0  0
 22 26  1  0  0  0  0
 22 21  1  0  0  0  0
 23 22  1  0  0  0  0
 24 23  1  0  0  0  0
 24 25  1  0  0  0  0
 25 26  1  0  0  0  0
 26 27  1  1  0  0  0
 27 29  1  0  0  0  0
 27 30  1  0  0  0  0
 27 28  1  0  0  0  0
M  END
>  <minimizedAffinity>
-7.18022776

$$$$

 OpenBabel03272514363D

 30 33  0  0  1  0  0  0  0  0999 V2000
   32.4470   25.8870   47.4040 C   0  0  0  0  0  3  0  0  0  0  0  0
   33.5750   26.6100   47.7780 C   0  0  0  0  0  3  0  0  0  0  0  0
   33.4770   27.7180   48.5410 C   0  0  0  0  0  0  0  0  0  0  0  0
   32.2220   28.1050   48.9270 N   0  0  0  0  0  0  0  0  0  0  0  0
   31.1330   27.4250   48.5770 C   0  0  0  0  0  0  0  0  0  0  0  0
   31.2410   26.3500   47.8420 N   0  0  0  0  0  0  0  0  0  0  0  0
   29.8000   27.9260   49.0160 C   0  0  2  0  0  3  0  0  0  0  0  0
   29.4040   27.1780   50.3240 C   0  0  0  0  0  1  0  0  0  0  0  0
   28.7160   27.6730   48.0400 C   0  0  0  0  0  2  0  0  0  0  0  0
   28.4990   28.8400   47.1530 C   0  0  0  0  0  0  0  0  0  0  0  0
   29.1900   29.0300   45.9910 N   0  0  0  0  0  0  0  0  0  0  0  0
   28.8990   30.1230   45.2280 C   0  0  0  0  0  3  0  0  0  0  0  0
   27.9790   31.0640   45.4960 N   0  0  0  0  0  0  0  0  0  0  0  0
   27.2820   30.8990   46.6400 C   0  0  0  0  0  0  0  0  0  0  0  0
   26.3340   31.8520   46.9490 C   0  0  0  0  0  3  0  0  0  0  0  0
   25.6070   31.7220   48.1140 C   0  0  0  0  0  3  0  0  0  0  0  0
   25.8150   30.6530   48.9700 C   0  0  0  0  0  3  0  0  0  0  0  0
   26.7790   29.7270   48.6080 C   0  0  0  0  0  3  0  0  0  0  0  0
   27.5420   29.7990   47.4550 C   0  0  0  0  0  0  0  0  0  0  0  0
   34.7390   28.3720   48.9390 C   0  0  0  0  0  2  0  0  0  0  0  0
   34.5290   29.8200   49.0950 C   0  0  0  0  0  2  0  0  0  0  0  0
   35.5910   30.5850   48.4880 N   0  0  0  0  0  0  0  0  0  0  0  0
   35.7830   30.1360   47.0830 C   0  0  0  0  0  2  0  0  0  0  0  0
   37.0950   30.7770   46.7240 C   0  0  0  0  0  2  0  0  0  0  0  0
   37.8190   30.9850   48.0540 C   0  0  0  0  0  2  0  0  0  0  0  0
   36.8720   30.2600   49.0050 C   0  0  1  0  0  3  0  0  0  0  0  0
   37.1370   30.7850   50.3730 C   0  0  0  0  0  0  0  0  0  0  0  0
   36.8170   29.9430   51.3940 F   0  0  0  0  0  0  0  0  0  0  0  0
   36.5500   32.0240   50.4890 F   0  0  0  0  0  0  0  0  0  0  0  0
   38.5280   30.9830   50.5070 F   0  0  0  0  0  0  0  0  0  0  0  0
  1  2  2  0  0  0  0
  1  6  1  0  0  0  0
  2  3  1  0  0  0  0
  3  4  2  0  0  0  0
  3 20  1  0  0  0  0
  5  4  1  0  0  0  0
  5  7  1  0  0  0  0
  6  5  2  0  0  0  0
  7  8  1  1  0  0  0
  9  7  1  0  0  0  0
 10 19  1  0  0  0  0
 10  9  1  0  0  0  0
 11 10  2  0  0  0  0
 12 13  2  0  0  0  0
 12 11  1  0  0  0  0
 13 14  1  0  0  0  0
 14 15  2  0  0  0  0
 14 19  1  0  0  0  0
 15 16  1  0  0  0  0
 16 17  2  0  0  0  0
 18 17  1  0  0  0  0
 19 18  2  0  0  0  0
 20 21  1  0  0  0  0
 22 26  1  0  0  0  0
 22 21  1  0  0  0  0
 23 22  1  0  0  0  0
 24 23  1  0  0  0  0
 24 25  1  0  0  0  0
 25 26  1  0  0  0  0
 26 27  1  1  0  0  0
 27 29  1  0  0  0  0
 27 30  1  0  0  0  0
 27 28  1  0  0  0  0
M  END
>  <minimizedAffinity>
-7.14255476

$$$$

 OpenBabel03272514363D

 30 33  0  0  1  0  0  0  0  0999 V2000
   31.7790   28.7510   44.0710 C   0  0  0  0  0  3  0  0  0  0  0  0
   30.4920   28.5740   44.5680 C   0  0  0  0  0  3  0  0  0  0  0  0
   30.2780   28.2110   45.8490 C   0  0  0  0  0  0  0  0  0  0  0  0
   31.3790   28.0190   46.6390 N   0  0  0  0  0  0  0  0  0  0  0  0
   32.6170   28.1840   46.1790 C   0  0  0  0  0  0  0  0  0  0  0  0
   32.8110   28.5410   44.9360 N   0  0  0  0  0  0  0  0  0  0  0  0
   33.7640   27.9300   47.0950 C   0  0  2  0  0  3  0  0  0  0  0  0
   33.5050   26.5850   47.8380 C   0  0  0  0  0  1  0  0  0  0  0  0
   33.9330   28.9630   48.1410 C   0  0  0  0  0  2  0  0  0  0  0  0
   35.2420   29.6480   48.0240 C   0  0  0  0  0  0  0  0  0  0  0  0
   35.7110   30.1590   46.8470 N   0  0  0  0  0  0  0  0  0  0  0  0
   36.9180   30.7960   46.8470 C   0  0  0  0  0  3  0  0  0  0  0  0
   37.7230   30.9860   47.9050 N   0  0  0  0  0  0  0  0  0  0  0  0
   37.2810   30.4890   49.0790 C   0  0  0  0  0  0  0  0  0  0  0  0
   38.0890   30.6610   50.1840 C   0  0  0  0  0  3  0  0  0  0  0  0
   37.6750   30.1600   51.4010 C   0  0  0  0  0  3  0  0  0  0  0  0
   36.4670   29.4930   51.5250 C   0  0  0  0  0  3  0  0  0  0  0  0
   35.6980   29.3510   50.3820 C   0  0  0  0  0  3  0  0  0  0  0  0
   36.0550   29.8290   49.1330 C   0  0  0  0  0  0  0  0  0  0  0  0
   28.8740   28.1170   46.2940 C   0  0  0  0  0  2  0  0  0  0  0  0
   28.6560   28.9850   47.4620 C   0  0  0  0  0  2  0  0  0  0  0  0
   27.7560   28.3850   48.4170 N   0  0  0  0  0  0  0  0  0  0  0  0
   26.5450   29.2360   48.5560 C   0  0  0  0  0  2  0  0  0  0  0  0
   25.8960   28.6640   49.7850 C   0  0  0  0  0  2  0  0  0  0  0  0
   27.0320   28.0100   50.5720 C   0  0  0  0  0  2  0  0  0  0  0  0
   28.2360   28.4580   49.7500 C   0  0  1  0  0  3  0  0  0  0  0  0
   29.3500   27.5190   50.0570 C   0  0  0  0  0  0  0  0  0  0  0  0
   29.6250   26.6040   49.0870 F   0  0  0  0  0  0  0  0  0  0  0  0
   29.1200   26.9500   51.2870 F   0  0  0  0  0  0  0  0  0  0  0  0
   30.5400   28.2690   50.1750 F   0  0  0  0  0  0  0  0  0  0  0  0
  1  2  2  0  0  0  0
  1  6  1  0  0  0  0
  2  3  1  0  0  0  0
  3 20  1  0  0  0  0
  3  4  2  0  0  0  0
  5  4  1  0  0  0  0
  5  7  1  0  0  0  0
  6  5  2  0  0  0  0
  7  8  1  1  0  0  0
  7  9  1  0  0  0  0
 10  9  1  0  0  0  0
 10 19  1  0  0  0  0
 11 12  1  0  0  0  0
 11 10  2  0  0  0  0
 12 13  2  0  0  0  0
 13 14  1  0  0  0  0
 14 19  2  0  0  0  0
 14 15  1  0  0  0  0
 15 16  2  0  0  0  0
 16 17  1  0  0  0  0
 18 17  2  0  0  0  0
 19 18  1  0  0  0  0
 20 21  1  0  0  0  0
 21 22  1  0  0  0  0
 22 23  1  0  0  0  0
 22 26  1  0  0  0  0
 23 24  1  0  0  0  0
 24 25  1  0  0  0  0
 26 27  1  6  0  0  0
 26 25  1  0  0  0  0
 27 30  1  0  0  0  0
 27 29  1  0  0  0  0
 28 27  1  0  0  0  0
M  END
>  <minimizedAffinity>
-7.14065361

$$$$

 OpenBabel03272514363D

 30 33  0  0  1  0  0  0  0  0999 V2000
   31.3740   29.8560   45.5980 C   0  0  0  0  0  3  0  0  0  0  0  0
   32.6650   30.3530   45.7460 C   0  0  0  0  0  3  0  0  0  0  0  0
   33.5230   29.8240   46.6410 C   0  0  0  0  0  0  0  0  0  0  0  0
   33.0690   28.7810   47.4040 N   0  0  0  0  0  0  0  0  0  0  0  0
   31.8370   28.2940   47.2750 C   0  0  0  0  0  0  0  0  0  0  0  0
   31.0170   28.8130   46.4000 N   0  0  0  0  0  0  0  0  0  0  0  0
   31.4110   27.1750   48.1610 C   0  0  2  0  0  3  0  0  0  0  0  0
   32.3390   25.9550   47.8850 C   0  0  0  0  0  1  0  0  0  0  0  0
   30.0260   26.7150   47.9180 C   0  0  0  0  0  2  0  0  0  0  0  0
   29.1310   27.0570   49.0480 C   0  0  0  0  0  0  0  0  0  0  0  0
   29.4350   26.7720   50.3490 N   0  0  0  0  0  0  0  0  0  0  0  0
   28.5580   27.1520   51.3230 C   0  0  0  0  0  3  0  0  0  0  0  0
   27.3940   27.7980   51.1450 N   0  0  0  0  0  0  0  0  0  0  0  0
   27.0720   28.0910   49.8680 C   0  0  0  0  0  0  0  0  0  0  0  0
   25.8790   28.7480   49.6490 C   0  0  0  0  0  3  0  0  0  0  0  0
   25.5110   29.0590   48.3560 C   0  0  0  0  0  3  0  0  0  0  0  0
   26.3210   28.7220   47.2830 C   0  0  0  0  0  3  0  0  0  0  0  0
   27.5070   28.0640   47.5630 C   0  0  0  0  0  3  0  0  0  0  0  0
   27.9340   27.7240   48.8350 C   0  0  0  0  0  0  0  0  0  0  0  0
   34.8900   30.3790   46.6700 C   0  0  0  0  0  2  0  0  0  0  0  0
   35.7550   29.5460   47.5210 C   0  0  0  0  0  2  0  0  0  0  0  0
   36.2810   30.2870   48.6410 N   0  0  0  0  0  0  0  0  0  0  0  0
   37.7340   30.5260   48.4360 C   0  0  0  0  0  2  0  0  0  0  0  0
   38.1720   30.9960   49.7960 C   0  0  0  0  0  2  0  0  0  0  0  0
   37.1510   30.4090   50.7720 C   0  0  0  0  0  2  0  0  0  0  0  0
   36.3450   29.5180   49.8320 C   0  0  1  0  0  3  0  0  0  0  0  0
   35.0280   29.2750   50.4810 C   0  0  0  0  0  0  0  0  0  0  0  0
   34.0470   30.1650   50.1620 F   0  0  0  0  0  0  0  0  0  0  0  0
   35.2220   29.1470   51.8360 F   0  0  0  0  0  0  0  0  0  0  0  0
   34.5330   28.0350   50.0250 F   0  0  0  0  0  0  0  0  0  0  0  0
  1  2  2  0  0  0  0
  1  6  1  0  0  0  0
  2  3  1  0  0  0  0
  3 20  1  0  0  0  0
  3  4  2  0  0  0  0
  5  4  1  0  0  0  0
  5  7  1  0  0  0  0
  6  5  2  0  0  0  0
  7  8  1  6  0  0  0
  9  7  1  0  0  0  0
  9 10  1  0  0  0  0
 10 11  1  0  0  0  0
 11 12  2  0  0  0  0
 13 12  1  0  0  0  0
 14 13  2  0  0  0  0
 15 14  1  0  0  0  0
 16 15  2  0  0  0  0
 17 18  2  0  0  0  0
 17 16  1  0  0  0  0
 18 19  1  0  0  0  0
 19 10  2  0  0  0  0
 19 14  1  0  0  0  0
 20 21  1  0  0  0  0
 21 22  1  0  0  0  0
 22 26  1  0  0  0  0
 23 22  1  0  0  0  0
 23 24  1  0  0  0  0
 24 25  1  0  0  0  0
 26 27  1  1  0  0  0
 26 25  1  0  0  0  0
 27 29  1  0  0  0  0
 28 27  1  0  0  0  0
 30 27  1  0  0  0  0
M  END
>  <minimizedAffinity>
-7.07581711

$$$$
