
 OpenBabel03272514453D

 30 34  0  0  0  0  0  0  0  0999 V2000
   33.3010   26.7180   46.4070 C   0  0  0  0  0  3  0  0  0  0  0  0
   31.9650   26.8380   46.8270 C   0  0  0  0  0  3  0  0  0  0  0  0
   31.7400   27.6490   47.9400 C   0  0  0  0  0  0  0  0  0  0  0  0
   32.8140   28.2180   48.4820 N   0  0  0  0  0  0  0  0  0  0  0  0
   34.0890   28.1050   48.0830 C   0  0  0  0  0  0  0  0  0  0  0  0
   34.3020   27.3260   47.0120 N   0  0  0  0  0  0  0  0  0  0  0  0
   35.0030   28.8680   48.9090 C   0  0  0  0  0  0  0  0  0  0  0  0
   35.0020   28.7360   50.2840 C   0  0  0  0  0  3  0  0  0  0  0  0
   35.8510   29.4380   51.1260 C   0  0  0  0  0  3  0  0  0  0  0  0
   36.7600   30.3270   50.5990 C   0  0  0  0  0  3  0  0  0  0  0  0
   36.7890   30.4830   49.2500 C   0  0  0  0  0  0  0  0  0  0  0  0
   37.7050   31.3770   48.7350 C   0  0  0  0  0  3  0  0  0  0  0  0
   37.8030   31.5970   47.3770 C   0  0  0  0  0  3  0  0  0  0  0  0
   36.9360   30.8740   46.5670 C   0  0  0  0  0  3  0  0  0  0  0  0
   36.0400   29.9940   47.1260 C   0  0  0  0  0  3  0  0  0  0  0  0
   35.9260   29.7620   48.4580 C   0  0  0  0  0  0  0  0  0  0  0  0
   30.4240   27.8440   48.4560 N   0  0  0  0  0  0  0  0  0  0  0  0
   30.0240   27.2870   49.5800 C   0  0  0  0  0  3  0  0  0  0  0  0
   28.7240   27.6890   49.7570 C   0  0  0  0  0  0  0  0  0  0  0  0
   28.3680   28.4780   48.7410 N   0  0  0  0  0  0  0  0  0  0  0  0
   29.4320   28.5810   47.9170 C   0  0  0  0  0  0  0  0  0  0  0  0
   29.4770   29.3310   46.7090 N   0  0  0  0  0  0  0  0  0  0  0  0
   28.4200   29.7130   46.0380 N   0  0  0  0  0  0  0  0  0  0  0  0
   28.7790   30.4110   44.9310 C   0  0  0  0  0  3  0  0  0  0  0  0
   30.1750   30.4530   44.9380 C   0  0  0  0  0  3  0  0  0  0  0  0
   30.5890   29.7590   46.0790 C   0  0  0  0  0  3  0  0  0  0  0  0
   27.8010   27.3460   50.8720 C   0  0  0  0  0  0  0  0  0  0  0  0
   28.4210   27.2480   52.0950 F   0  0  0  0  0  0  0  0  0  0  0  0
   27.2170   26.0850   50.6340 F   0  0  0  0  0  0  0  0  0  0  0  0
   26.7220   28.2150   50.8870 F   0  0  0  0  0  0  0  0  0  0  0  0
  1  2  2  0  0  0  0
  1  6  1  0  0  0  0
  2  3  1  0  0  0  0
  3 17  1  0  0  0  0
  3  4  2  0  0  0  0
  5  4  1  0  0  0  0
  5  7  1  0  0  0  0
  6  5  2  0  0  0  0
  7  8  1  0  0  0  0
  8  9  2  0  0  0  0
 10  9  1  0  0  0  0
 11 10  2  0  0  0  0
 12 11  1  0  0  0  0
 13 12  2  0  0  0  0
 14 15  2  0  0  0  0
 14 13  1  0  0  0  0
 15 16  1  0  0  0  0
 16  7  2  0  0  0  0
 16 11  1  0  0  0  0
 17 18  1  0  0  0  0
 18 19  2  0  0  0  0
 19 27  1  0  0  0  0
 20 19  1  0  0  0  0
 21 17  1  0  0  0  0
 21 20  2  0  0  0  0
 22 21  1  0  0  0  0
 23 22  1  0  0  0  0
 24 25  1  0  0  0  0
 24 23  2  0  0  0  0
 25 26  2  0  0  0  0
 26 22  1  0  0  0  0
 27 30  1  0  0  0  0
 27 28  1  0  0  0  0
 29 27  1  0  0  0  0
M  END
>  <minimizedAffinity>
-8.08559704

$$$$

 OpenBabel03272514453D

 30 34  0  0  0  0  0  0  0  0999 V2000
   31.8530   25.9480   47.5930 C   0  0  0  0  0  3  0  0  0  0  0  0
   30.6300   26.6180   47.4230 C   0  0  0  0  0  3  0  0  0  0  0  0
   30.7040   28.0030   47.2620 C   0  0  0  0  0  0  0  0  0  0  0  0
   31.9230   28.5350   47.2890 N   0  0  0  0  0  0  0  0  0  0  0  0
   33.0920   27.8980   47.4510 C   0  0  0  0  0  0  0  0  0  0  0  0
   33.0170   26.5670   47.6040 N   0  0  0  0  0  0  0  0  0  0  0  0
   34.2270   28.7970   47.4260 C   0  0  0  0  0  0  0  0  0  0  0  0
   34.6690   29.3580   46.2450 C   0  0  0  0  0  3  0  0  0  0  0  0
   35.7480   30.2240   46.1580 C   0  0  0  0  0  3  0  0  0  0  0  0
   36.4450   30.5670   47.2930 C   0  0  0  0  0  3  0  0  0  0  0  0
   36.0390   30.0340   48.4760 C   0  0  0  0  0  0  0  0  0  0  0  0
   36.7470   30.3870   49.6060 C   0  0  0  0  0  3  0  0  0  0  0  0
   36.4050   29.8920   50.8470 C   0  0  0  0  0  3  0  0  0  0  0  0
   35.3170   29.0280   50.8920 C   0  0  0  0  0  3  0  0  0  0  0  0
   34.6420   28.7060   49.7390 C   0  0  0  0  0  3  0  0  0  0  0  0
   34.9620   29.1810   48.5080 C   0  0  0  0  0  0  0  0  0  0  0  0
   29.5260   28.7880   47.0830 N   0  0  0  0  0  0  0  0  0  0  0  0
   29.3080   29.4820   45.9850 C   0  0  0  0  0  3  0  0  0  0  0  0
   28.0970   30.1010   46.1670 C   0  0  0  0  0  0  0  0  0  0  0  0
   27.6110   29.7700   47.3640 N   0  0  0  0  0  0  0  0  0  0  0  0
   28.5040   28.9440   47.9490 C   0  0  0  0  0  0  0  0  0  0  0  0
   28.3720   28.3580   49.2380 N   0  0  0  0  0  0  0  0  0  0  0  0
   27.5820   28.8110   50.1780 N   0  0  0  0  0  0  0  0  0  0  0  0
   27.6720   28.0460   51.2950 C   0  0  0  0  0  3  0  0  0  0  0  0
   28.5990   27.0430   50.9990 C   0  0  0  0  0  3  0  0  0  0  0  0
   29.0260   27.2680   49.6870 C   0  0  0  0  0  3  0  0  0  0  0  0
   27.3790   31.0050   45.2280 C   0  0  0  0  0  0  0  0  0  0  0  0
   28.2120   31.7070   44.3880 F   0  0  0  0  0  0  0  0  0  0  0  0
   26.6630   31.9760   45.9580 F   0  0  0  0  0  0  0  0  0  0  0  0
   26.3950   30.3080   44.5460 F   0  0  0  0  0  0  0  0  0  0  0  0
  1  6  1  0  0  0  0
  2  1  2  0  0  0  0
  3  4  2  0  0  0  0
  3  2  1  0  0  0  0
  4  5  1  0  0  0  0
  5  6  2  0  0  0  0
  7  5  1  0  0  0  0
  7 16  1  0  0  0  0
  8  7  2  0  0  0  0
  9  8  1  0  0  0  0
  9 10  2  0  0  0  0
 10 11  1  0  0  0  0
 11 16  2  0  0  0  0
 11 12  1  0  0  0  0
 12 13  2  0  0  0  0
 13 14  1  0  0  0  0
 15 14  2  0  0  0  0
 16 15  1  0  0  0  0
 17  3  1  0  0  0  0
 17 21  1  0  0  0  0
 18 19  2  0  0  0  0
 18 17  1  0  0  0  0
 19 20  1  0  0  0  0
 20 21  2  0  0  0  0
 21 22  1  0  0  0  0
 22 26  1  0  0  0  0
 22 23  1  0  0  0  0
 23 24  2  0  0  0  0
 25 24  1  0  0  0  0
 26 25  2  0  0  0  0
 27 29  1  0  0  0  0
 27 19  1  0  0  0  0
 28 27  1  0  0  0  0
 30 27  1  0  0  0  0
M  END
>  <minimizedAffinity>
-7.91950369

$$$$

 OpenBabel03272514453D

 30 34  0  0  0  0  0  0  0  0999 V2000
   32.4510   25.4860   47.5420 C   0  0  0  0  0  3  0  0  0  0  0  0
   33.5870   26.2810   47.7710 C   0  0  0  0  0  3  0  0  0  0  0  0
   33.3480   27.6200   48.0840 C   0  0  0  0  0  0  0  0  0  0  0  0
   32.0730   27.9960   48.1290 N   0  0  0  0  0  0  0  0  0  0  0  0
   30.9870   27.2400   47.9110 C   0  0  0  0  0  0  0  0  0  0  0  0
   31.2200   25.9530   47.6120 N   0  0  0  0  0  0  0  0  0  0  0  0
   29.7520   27.9840   48.0460 C   0  0  0  0  0  0  0  0  0  0  0  0
   29.3270   28.8500   47.0590 C   0  0  0  0  0  3  0  0  0  0  0  0
   28.1560   29.5880   47.1320 C   0  0  0  0  0  3  0  0  0  0  0  0
   27.3430   29.4780   48.2370 C   0  0  0  0  0  3  0  0  0  0  0  0
   27.7290   28.6350   49.2300 C   0  0  0  0  0  0  0  0  0  0  0  0
   26.9050   28.5350   50.3310 C   0  0  0  0  0  3  0  0  0  0  0  0
   27.2200   27.7030   51.3860 C   0  0  0  0  0  3  0  0  0  0  0  0
   28.4010   26.9800   51.2750 C   0  0  0  0  0  3  0  0  0  0  0  0
   29.1900   27.1120   50.1560 C   0  0  0  0  0  3  0  0  0  0  0  0
   28.9000   27.9250   49.1080 C   0  0  0  0  0  0  0  0  0  0  0  0
   34.4260   28.5210   48.3350 N   0  0  0  0  0  0  0  0  0  0  0  0
   34.9330   28.6860   49.5390 C   0  0  0  0  0  3  0  0  0  0  0  0
   35.9340   29.6140   49.4010 C   0  0  0  0  0  0  0  0  0  0  0  0
   36.0110   29.9880   48.1220 N   0  0  0  0  0  0  0  0  0  0  0  0
   35.0650   29.3050   47.4440 C   0  0  0  0  0  0  0  0  0  0  0  0
   34.8070   29.4090   46.0490 N   0  0  0  0  0  0  0  0  0  0  0  0
   35.1720   30.4200   45.3040 N   0  0  0  0  0  0  0  0  0  0  0  0
   34.7860   30.2350   44.0160 C   0  0  0  0  0  3  0  0  0  0  0  0
   34.1290   29.0020   43.9850 C   0  0  0  0  0  3  0  0  0  0  0  0
   34.1590   28.5020   45.2900 C   0  0  0  0  0  3  0  0  0  0  0  0
   36.8300   30.1610   50.4550 C   0  0  0  0  0  0  0  0  0  0  0  0
   36.5110   29.7450   51.7260 F   0  0  0  0  0  0  0  0  0  0  0  0
   36.7360   31.5680   50.4760 F   0  0  0  0  0  0  0  0  0  0  0  0
   38.1560   29.9220   50.1310 F   0  0  0  0  0  0  0  0  0  0  0  0
  1  6  2  0  0  0  0
  1  2  1  0  0  0  0
  2  3  2  0  0  0  0
  3  4  1  0  0  0  0
  3 17  1  0  0  0  0
  5  7  1  0  0  0  0
  5  4  2  0  0  0  0
  6  5  1  0  0  0  0
  7 16  1  0  0  0  0
  8  9  1  0  0  0  0
  8  7  2  0  0  0  0
  9 10  2  0  0  0  0
 10 11  1  0  0  0  0
 11 12  1  0  0  0  0
 12 13  2  0  0  0  0
 14 13  1  0  0  0  0
 15 14  2  0  0  0  0
 16 11  2  0  0  0  0
 16 15  1  0  0  0  0
 17 18  1  0  0  0  0
 19 18  2  0  0  0  0
 19 27  1  0  0  0  0
 20 19  1  0  0  0  0
 21 20  2  0  0  0  0
 21 17  1  0  0  0  0
 22 21  1  0  0  0  0
 23 22  1  0  0  0  0
 24 23  2  0  0  0  0
 25 24  1  0  0  0  0
 25 26  2  0  0  0  0
 26 22  1  0  0  0  0
 27 29  1  0  0  0  0
 27 28  1  0  0  0  0
 30 27  1  0  0  0  0
M  END
>  <minimizedAffinity>
-7.78875828

$$$$

 OpenBabel03272514453D

 30 34  0  0  0  0  0  0  0  0999 V2000
   35.6140   29.6110   44.0830 C   0  0  0  0  0  3  0  0  0  0  0  0
   34.3260   29.1990   44.4650 C   0  0  0  0  0  3  0  0  0  0  0  0
   33.9950   29.3830   45.8090 C   0  0  0  0  0  0  0  0  0  0  0  0
   34.9340   29.9280   46.5780 N   0  0  0  0  0  0  0  0  0  0  0  0
   36.1630   30.3230   46.2150 C   0  0  0  0  0  0  0  0  0  0  0  0
   36.4780   30.1450   44.9230 N   0  0  0  0  0  0  0  0  0  0  0  0
   36.9200   30.8760   47.3190 C   0  0  0  0  0  0  0  0  0  0  0  0
   37.8080   31.9160   47.1260 C   0  0  0  0  0  3  0  0  0  0  0  0
   38.5610   32.4860   48.1410 C   0  0  0  0  0  3  0  0  0  0  0  0
   38.4440   32.0160   49.4290 C   0  0  0  0  0  3  0  0  0  0  0  0
   37.5790   30.9930   49.6570 C   0  0  0  0  0  0  0  0  0  0  0  0
   37.4720   30.5310   50.9530 C   0  0  0  0  0  3  0  0  0  0  0  0
   36.6190   29.4960   51.2740 C   0  0  0  0  0  3  0  0  0  0  0  0
   35.8820   28.9520   50.2290 C   0  0  0  0  0  3  0  0  0  0  0  0
   36.0220   29.4460   48.9540 C   0  0  0  0  0  3  0  0  0  0  0  0
   36.8550   30.4620   48.6150 C   0  0  0  0  0  0  0  0  0  0  0  0
   32.7150   29.0000   46.3110 N   0  0  0  0  0  0  0  0  0  0  0  0
   32.5500   27.9340   47.0660 C   0  0  0  0  0  3  0  0  0  0  0  0
   31.2100   27.8810   47.3540 C   0  0  0  0  0  0  0  0  0  0  0  0
   30.5960   28.9120   46.7700 N   0  0  0  0  0  0  0  0  0  0  0  0
   31.5350   29.6220   46.1100 C   0  0  0  0  0  0  0  0  0  0  0  0
   31.3030   30.8030   45.3520 N   0  0  0  0  0  0  0  0  0  0  0  0
   30.1370   31.1560   44.8770 N   0  0  0  0  0  0  0  0  0  0  0  0
   30.2280   32.3280   44.1970 C   0  0  0  0  0  3  0  0  0  0  0  0
   31.5700   32.7110   44.2710 C   0  0  0  0  0  3  0  0  0  0  0  0
   32.2270   31.7230   45.0100 C   0  0  0  0  0  3  0  0  0  0  0  0
   30.4870   26.8730   48.1750 C   0  0  0  0  0  0  0  0  0  0  0  0
   29.3920   26.3280   47.5470 F   0  0  0  0  0  0  0  0  0  0  0  0
   29.9940   27.4810   49.3480 F   0  0  0  0  0  0  0  0  0  0  0  0
   31.3690   25.9130   48.6430 F   0  0  0  0  0  0  0  0  0  0  0  0
  1  2  2  0  0  0  0
  1  6  1  0  0  0  0
  2  3  1  0  0  0  0
  3 17  1  0  0  0  0
  3  4  2  0  0  0  0
  5  4  1  0  0  0  0
  5  7  1  0  0  0  0
  6  5  2  0  0  0  0
  7 16  1  0  0  0  0
  8  7  2  0  0  0  0
  8  9  1  0  0  0  0
  9 10  2  0  0  0  0
 10 11  1  0  0  0  0
 11 12  1  0  0  0  0
 12 13  2  0  0  0  0
 14 13  1  0  0  0  0
 15 14  2  0  0  0  0
 16 15  1  0  0  0  0
 16 11  2  0  0  0  0
 17 18  1  0  0  0  0
 18 19  2  0  0  0  0
 19 27  1  0  0  0  0
 20 19  1  0  0  0  0
 21 17  1  0  0  0  0
 21 20  2  0  0  0  0
 22 21  1  0  0  0  0
 23 22  1  0  0  0  0
 24 25  1  0  0  0  0
 24 23  2  0  0  0  0
 25 26  2  0  0  0  0
 26 22  1  0  0  0  0
 27 30  1  0  0  0  0
 27 29  1  0  0  0  0
 28 27  1  0  0  0  0
M  END
>  <minimizedAffinity>
-7.77514839

$$$$

 OpenBabel03272514453D

 30 34  0  0  0  0  0  0  0  0999 V2000
   33.9800   29.7490   45.2400 C   0  0  0  0  0  3  0  0  0  0  0  0
   32.7870   29.0240   45.4010 C   0  0  0  0  0  3  0  0  0  0  0  0
   32.5180   28.5600   46.6890 C   0  0  0  0  0  0  0  0  0  0  0  0
   33.4210   28.8530   47.6220 N   0  0  0  0  0  0  0  0  0  0  0  0
   34.5590   29.5450   47.4710 C   0  0  0  0  0  0  0  0  0  0  0  0
   34.8140   29.9910   46.2320 N   0  0  0  0  0  0  0  0  0  0  0  0
   35.3020   29.6750   48.7080 C   0  0  0  0  0  0  0  0  0  0  0  0
   34.9010   29.0200   49.8550 C   0  0  0  0  0  3  0  0  0  0  0  0
   35.5690   29.1070   51.0660 C   0  0  0  0  0  3  0  0  0  0  0  0
   36.7020   29.8800   51.1710 C   0  0  0  0  0  3  0  0  0  0  0  0
   37.1280   30.5400   50.0620 C   0  0  0  0  0  0  0  0  0  0  0  0
   38.2650   31.3110   50.1820 C   0  0  0  0  0  3  0  0  0  0  0  0
   38.7680   32.0150   49.1070 C   0  0  0  0  0  3  0  0  0  0  0  0
   38.0700   31.9020   47.9110 C   0  0  0  0  0  3  0  0  0  0  0  0
   36.9410   31.1200   47.8400 C   0  0  0  0  0  3  0  0  0  0  0  0
   36.4290   30.4200   48.8840 C   0  0  0  0  0  0  0  0  0  0  0  0
   31.3360   27.8110   46.9710 N   0  0  0  0  0  0  0  0  0  0  0  0
   30.1570   28.3840   47.0890 C   0  0  0  0  0  3  0  0  0  0  0  0
   29.2720   27.3700   47.3570 C   0  0  0  0  0  0  0  0  0  0  0  0
   29.9320   26.2110   47.3940 N   0  0  0  0  0  0  0  0  0  0  0  0
   31.2330   26.4780   47.1530 C   0  0  0  0  0  0  0  0  0  0  0  0
   32.2830   25.5200   47.1030 N   0  0  0  0  0  0  0  0  0  0  0  0
   32.2190   24.3280   47.6400 N   0  0  0  0  0  0  0  0  0  0  0  0
   33.3710   23.6420   47.4290 C   0  0  0  0  0  3  0  0  0  0  0  0
   34.2010   24.4990   46.7010 C   0  0  0  0  0  3  0  0  0  0  0  0
   33.4820   25.6820   46.5090 C   0  0  0  0  0  3  0  0  0  0  0  0
   27.8050   27.4670   47.5790 C   0  0  0  0  0  0  0  0  0  0  0  0
   27.4330   28.5300   48.3690 F   0  0  0  0  0  0  0  0  0  0  0  0
   27.3470   26.3130   48.2480 F   0  0  0  0  0  0  0  0  0  0  0  0
   27.1320   27.4400   46.3690 F   0  0  0  0  0  0  0  0  0  0  0  0
  1  2  2  0  0  0  0
  1  6  1  0  0  0  0
  2  3  1  0  0  0  0
  3 17  1  0  0  0  0
  3  4  2  0  0  0  0
  5  4  1  0  0  0  0
  5  7  1  0  0  0  0
  6  5  2  0  0  0  0
  7 16  2  0  0  0  0
  7  8  1  0  0  0  0
  8  9  2  0  0  0  0
  9 10  1  0  0  0  0
 11 12  1  0  0  0  0
 11 10  2  0  0  0  0
 13 12  2  0  0  0  0
 14 13  1  0  0  0  0
 15 14  2  0  0  0  0
 15 16  1  0  0  0  0
 16 11  1  0  0  0  0
 17 18  1  0  0  0  0
 17 21  1  0  0  0  0
 18 19  2  0  0  0  0
 19 20  1  0  0  0  0
 19 27  1  0  0  0  0
 21 20  2  0  0  0  0
 22 21  1  0  0  0  0
 22 23  1  0  0  0  0
 24 23  2  0  0  0  0
 25 24  1  0  0  0  0
 26 25  2  0  0  0  0
 26 22  1  0  0  0  0
 27 29  1  0  0  0  0
 27 28  1  0  0  0  0
 30 27  1  0  0  0  0
M  END
>  <minimizedAffinity>
-7.74311447

$$$$

 OpenBabel03272514453D

 30 34  0  0  0  0  0  0  0  0999 V2000
   32.0170   25.3740   47.5350 C   0  0  0  0  0  3  0  0  0  0  0  0
   33.0820   26.2910   47.5140 C   0  0  0  0  0  3  0  0  0  0  0  0
   32.8510   27.5160   48.1420 C   0  0  0  0  0  0  0  0  0  0  0  0
   31.6500   27.6810   48.6890 N   0  0  0  0  0  0  0  0  0  0  0  0
   30.6320   26.8080   48.7100 C   0  0  0  0  0  0  0  0  0  0  0  0
   30.8580   25.6310   48.1070 N   0  0  0  0  0  0  0  0  0  0  0  0
   29.4670   27.3250   49.3970 C   0  0  0  0  0  0  0  0  0  0  0  0
   29.1460   26.9050   50.6730 C   0  0  0  0  0  3  0  0  0  0  0  0
   28.0450   27.3620   51.3810 C   0  0  0  0  0  3  0  0  0  0  0  0
   27.1990   28.2870   50.8130 C   0  0  0  0  0  3  0  0  0  0  0  0
   27.4840   28.7230   49.5570 C   0  0  0  0  0  0  0  0  0  0  0  0
   26.6280   29.6500   49.0000 C   0  0  0  0  0  3  0  0  0  0  0  0
   26.8400   30.1470   47.7310 C   0  0  0  0  0  3  0  0  0  0  0  0
   27.9540   29.6650   47.0540 C   0  0  0  0  0  3  0  0  0  0  0  0
   28.7790   28.7410   47.6520 C   0  0  0  0  0  3  0  0  0  0  0  0
   28.5890   28.2390   48.8980 C   0  0  0  0  0  0  0  0  0  0  0  0
   33.8610   28.5250   48.1820 N   0  0  0  0  0  0  0  0  0  0  0  0
   34.9090   28.4340   48.9740 C   0  0  0  0  0  3  0  0  0  0  0  0
   35.6490   29.5660   48.7470 C   0  0  0  0  0  0  0  0  0  0  0  0
   35.0370   30.3130   47.8270 N   0  0  0  0  0  0  0  0  0  0  0  0
   33.9090   29.6660   47.4660 C   0  0  0  0  0  0  0  0  0  0  0  0
   32.9620   30.1200   46.5060 N   0  0  0  0  0  0  0  0  0  0  0  0
   32.8430   31.3650   46.1200 N   0  0  0  0  0  0  0  0  0  0  0  0
   31.8550   31.4900   45.1970 C   0  0  0  0  0  3  0  0  0  0  0  0
   31.3360   30.2060   45.0130 C   0  0  0  0  0  3  0  0  0  0  0  0
   32.0590   29.3590   45.8580 C   0  0  0  0  0  3  0  0  0  0  0  0
   36.9350   29.9640   49.3820 C   0  0  0  0  0  0  0  0  0  0  0  0
   37.9620   30.1500   48.4870 F   0  0  0  0  0  0  0  0  0  0  0  0
   37.3670   28.9480   50.2580 F   0  0  0  0  0  0  0  0  0  0  0  0
   36.7430   31.0590   50.2100 F   0  0  0  0  0  0  0  0  0  0  0  0
  1  6  1  0  0  0  0
  2  1  2  0  0  0  0
  2  3  1  0  0  0  0
  3 17  1  0  0  0  0
  3  4  2  0  0  0  0
  4  5  1  0  0  0  0
  5  7  1  0  0  0  0
  6  5  2  0  0  0  0
  7  8  1  0  0  0  0
  8  9  2  0  0  0  0
 10  9  1  0  0  0  0
 11 10  2  0  0  0  0
 12 11  1  0  0  0  0
 13 12  2  0  0  0  0
 14 15  2  0  0  0  0
 14 13  1  0  0  0  0
 15 16  1  0  0  0  0
 16  7  2  0  0  0  0
 16 11  1  0  0  0  0
 17 18  1  0  0  0  0
 19 18  2  0  0  0  0
 19 27  1  0  0  0  0
 20 19  1  0  0  0  0
 21 20  2  0  0  0  0
 21 17  1  0  0  0  0
 22 21  1  0  0  0  0
 23 22  1  0  0  0  0
 24 23  2  0  0  0  0
 25 24  1  0  0  0  0
 25 26  2  0  0  0  0
 26 22  1  0  0  0  0
 27 30  1  0  0  0  0
 27 29  1  0  0  0  0
 28 27  1  0  0  0  0
M  END
>  <minimizedAffinity>
-7.67419529

$$$$

 OpenBabel03272514453D

 30 34  0  0  0  0  0  0  0  0999 V2000
   33.4210   27.1860   46.9530 C   0  0  0  0  0  3  0  0  0  0  0  0
   32.9650   28.1200   46.0070 C   0  0  0  0  0  3  0  0  0  0  0  0
   33.4300   29.4270   46.1610 C   0  0  0  0  0  0  0  0  0  0  0  0
   34.2520   29.6440   47.1840 N   0  0  0  0  0  0  0  0  0  0  0  0
   34.6890   28.7550   48.0870 C   0  0  0  0  0  0  0  0  0  0  0  0
   34.2410   27.4990   47.9370 N   0  0  0  0  0  0  0  0  0  0  0  0
   35.5790   29.3430   49.0660 C   0  0  0  0  0  0  0  0  0  0  0  0
   35.4500   29.0600   50.4120 C   0  0  0  0  0  3  0  0  0  0  0  0
   36.2700   29.5920   51.3940 C   0  0  0  0  0  3  0  0  0  0  0  0
   37.2830   30.4570   51.0480 C   0  0  0  0  0  3  0  0  0  0  0  0
   37.4400   30.7600   49.7330 C   0  0  0  0  0  0  0  0  0  0  0  0
   38.4590   31.6280   49.4010 C   0  0  0  0  0  3  0  0  0  0  0  0
   38.6910   31.9910   48.0900 C   0  0  0  0  0  3  0  0  0  0  0  0
   37.8480   31.4350   47.1350 C   0  0  0  0  0  3  0  0  0  0  0  0
   36.8460   30.5740   47.5140 C   0  0  0  0  0  3  0  0  0  0  0  0
   36.6000   30.2040   48.7970 C   0  0  0  0  0  0  0  0  0  0  0  0
   33.0330   30.4610   45.2600 N   0  0  0  0  0  0  0  0  0  0  0  0
   31.9920   31.2320   45.4950 C   0  0  0  0  0  3  0  0  0  0  0  0
   31.9150   32.0940   44.4310 C   0  0  0  0  0  0  0  0  0  0  0  0
   32.9070   31.8270   43.5790 N   0  0  0  0  0  0  0  0  0  0  0  0
   33.6160   30.8000   44.0920 C   0  0  0  0  0  0  0  0  0  0  0  0
   34.7610   30.2020   43.4960 N   0  0  0  0  0  0  0  0  0  0  0  0
   35.0660   30.2950   42.2270 N   0  0  0  0  0  0  0  0  0  0  0  0
   36.2120   29.6220   41.9560 C   0  0  0  0  0  3  0  0  0  0  0  0
   36.6330   29.0750   43.1710 C   0  0  0  0  0  3  0  0  0  0  0  0
   35.6910   29.4610   44.1290 C   0  0  0  0  0  3  0  0  0  0  0  0
   30.9200   33.1750   44.1960 C   0  0  0  0  0  0  0  0  0  0  0  0
   29.6740   32.9030   44.7090 F   0  0  0  0  0  0  0  0  0  0  0  0
   30.7340   33.3560   42.8100 F   0  0  0  0  0  0  0  0  0  0  0  0
   31.4220   34.3920   44.6270 F   0  0  0  0  0  0  0  0  0  0  0  0
  1  6  1  0  0  0  0
  2  3  1  0  0  0  0
  2  1  2  0  0  0  0
  3  4  2  0  0  0  0
  4  5  1  0  0  0  0
  5  7  1  0  0  0  0
  6  5  2  0  0  0  0
  7  8  1  0  0  0  0
  8  9  2  0  0  0  0
 10  9  1  0  0  0  0
 11 10  2  0  0  0  0
 12 11  1  0  0  0  0
 13 12  2  0  0  0  0
 14 15  2  0  0  0  0
 14 13  1  0  0  0  0
 15 16  1  0  0  0  0
 16  7  2  0  0  0  0
 16 11  1  0  0  0  0
 17 18  1  0  0  0  0
 17  3  1  0  0  0  0
 19 18  2  0  0  0  0
 20 21  2  0  0  0  0
 20 19  1  0  0  0  0
 21 17  1  0  0  0  0
 22 21  1  0  0  0  0
 22 26  1  0  0  0  0
 23 22  1  0  0  0  0
 24 23  2  0  0  0  0
 24 25  1  0  0  0  0
 25 26  2  0  0  0  0
 27 19  1  0  0  0  0
 27 30  1  0  0  0  0
 27 28  1  0  0  0  0
 29 27  1  0  0  0  0
M  END
>  <minimizedAffinity>
-7.53465939

$$$$

 OpenBabel03272514453D

 30 34  0  0  0  0  0  0  0  0999 V2000
   33.6110   29.6630   44.5080 C   0  0  0  0  0  3  0  0  0  0  0  0
   32.6830   28.8680   45.2030 C   0  0  0  0  0  3  0  0  0  0  0  0
   32.9900   28.5900   46.5360 C   0  0  0  0  0  0  0  0  0  0  0  0
   34.1240   29.1050   47.0000 N   0  0  0  0  0  0  0  0  0  0  0  0
   35.0110   29.8640   46.3390 C   0  0  0  0  0  0  0  0  0  0  0  0
   34.7130   30.1320   45.0580 N   0  0  0  0  0  0  0  0  0  0  0  0
   36.1370   30.2520   47.1620 C   0  0  0  0  0  0  0  0  0  0  0  0
   37.2370   30.8860   46.6160 C   0  0  0  0  0  3  0  0  0  0  0  0
   38.3430   31.2800   47.3520 C   0  0  0  0  0  3  0  0  0  0  0  0
   38.3870   31.0450   48.7070 C   0  0  0  0  0  3  0  0  0  0  0  0
   37.3220   30.4230   49.2790 C   0  0  0  0  0  0  0  0  0  0  0  0
   37.3790   30.1930   50.6380 C   0  0  0  0  0  3  0  0  0  0  0  0
   36.3440   29.5680   51.3010 C   0  0  0  0  0  3  0  0  0  0  0  0
   35.2520   29.1880   50.5290 C   0  0  0  0  0  3  0  0  0  0  0  0
   35.2410   29.4390   49.1780 C   0  0  0  0  0  3  0  0  0  0  0  0
   36.2490   30.0520   48.5050 C   0  0  0  0  0  0  0  0  0  0  0  0
   32.1210   27.7910   47.3390 N   0  0  0  0  0  0  0  0  0  0  0  0
   31.0950   28.3060   47.9850 C   0  0  0  0  0  3  0  0  0  0  0  0
   30.5010   27.2580   48.6410 C   0  0  0  0  0  0  0  0  0  0  0  0
   31.1760   26.1380   48.3790 N   0  0  0  0  0  0  0  0  0  0  0  0
   32.1980   26.4630   47.5600 C   0  0  0  0  0  0  0  0  0  0  0  0
   33.1650   25.5590   47.0390 N   0  0  0  0  0  0  0  0  0  0  0  0
   33.4330   24.3870   47.5560 N   0  0  0  0  0  0  0  0  0  0  0  0
   34.3990   23.7550   46.8430 C   0  0  0  0  0  3  0  0  0  0  0  0
   34.7420   24.6260   45.8050 C   0  0  0  0  0  3  0  0  0  0  0  0
   33.9420   25.7620   45.9570 C   0  0  0  0  0  3  0  0  0  0  0  0
   29.2980   27.2880   49.5160 C   0  0  0  0  0  0  0  0  0  0  0  0
   28.9970   28.5380   50.0030 F   0  0  0  0  0  0  0  0  0  0  0  0
   29.5150   26.4760   50.6490 F   0  0  0  0  0  0  0  0  0  0  0  0
   28.2240   26.6890   48.8780 F   0  0  0  0  0  0  0  0  0  0  0  0
  1  6  2  0  0  0  0
  1  2  1  0  0  0  0
  2  3  2  0  0  0  0
  3  4  1  0  0  0  0
  3 17  1  0  0  0  0
  5  4  2  0  0  0  0
  5  7  1  0  0  0  0
  6  5  1  0  0  0  0
  7 16  1  0  0  0  0
  8  7  2  0  0  0  0
  8  9  1  0  0  0  0
  9 10  2  0  0  0  0
 10 11  1  0  0  0  0
 11 12  1  0  0  0  0
 12 13  2  0  0  0  0
 14 13  1  0  0  0  0
 15 14  2  0  0  0  0
 16 15  1  0  0  0  0
 16 11  2  0  0  0  0
 17 21  1  0  0  0  0
 17 18  1  0  0  0  0
 18 19  2  0  0  0  0
 19 27  1  0  0  0  0
 20 19  1  0  0  0  0
 21 20  2  0  0  0  0
 22 23  1  0  0  0  0
 22 21  1  0  0  0  0
 24 23  2  0  0  0  0
 25 26  2  0  0  0  0
 25 24  1  0  0  0  0
 26 22  1  0  0  0  0
 27 28  1  0  0  0  0
 27 29  1  0  0  0  0
 30 27  1  0  0  0  0
M  END
>  <minimizedAffinity>
-7.50424337

$$$$

 OpenBabel03272514453D

 30 34  0  0  0  0  0  0  0  0999 V2000
   33.1260   26.1630   46.9160 C   0  0  0  0  0  3  0  0  0  0  0  0
   31.7960   26.6100   47.0080 C   0  0  0  0  0  3  0  0  0  0  0  0
   31.5870   27.7650   47.7630 C   0  0  0  0  0  0  0  0  0  0  0  0
   32.6670   28.3140   48.3130 N   0  0  0  0  0  0  0  0  0  0  0  0
   33.9360   27.8900   48.2260 C   0  0  0  0  0  0  0  0  0  0  0  0
   34.1350   26.7800   47.4980 N   0  0  0  0  0  0  0  0  0  0  0  0
   34.8600   28.7360   48.9520 C   0  0  0  0  0  0  0  0  0  0  0  0
   34.9190   28.7120   50.3320 C   0  0  0  0  0  3  0  0  0  0  0  0
   35.7800   29.4980   51.0810 C   0  0  0  0  0  3  0  0  0  0  0  0
   36.6410   30.3660   50.4500 C   0  0  0  0  0  3  0  0  0  0  0  0
   36.6110   30.4180   49.0930 C   0  0  0  0  0  0  0  0  0  0  0  0
   37.4800   31.2930   48.4740 C   0  0  0  0  0  3  0  0  0  0  0  0
   37.5160   31.4110   47.1000 C   0  0  0  0  0  3  0  0  0  0  0  0
   36.6380   30.6050   46.3840 C   0  0  0  0  0  3  0  0  0  0  0  0
   35.7910   29.7480   47.0460 C   0  0  0  0  0  3  0  0  0  0  0  0
   35.7380   29.6170   48.3960 C   0  0  0  0  0  0  0  0  0  0  0  0
   30.2780   28.3110   47.9270 N   0  0  0  0  0  0  0  0  0  0  0  0
   29.5310   28.0340   48.9750 C   0  0  0  0  0  3  0  0  0  0  0  0
   28.3590   28.7240   48.7930 C   0  0  0  0  0  0  0  0  0  0  0  0
   28.4230   29.4000   47.6450 N   0  0  0  0  0  0  0  0  0  0  0  0
   29.6270   29.1460   47.0920 C   0  0  0  0  0  0  0  0  0  0  0  0
   30.1020   29.6720   45.8590 N   0  0  0  0  0  0  0  0  0  0  0  0
   29.3320   30.1570   44.9180 N   0  0  0  0  0  0  0  0  0  0  0  0
   30.0700   30.5830   43.8620 C   0  0  0  0  0  3  0  0  0  0  0  0
   31.4030   30.3300   44.1980 C   0  0  0  0  0  3  0  0  0  0  0  0
   31.3900   29.7520   45.4710 C   0  0  0  0  0  3  0  0  0  0  0  0
   27.1690   28.7620   49.6850 C   0  0  0  0  0  0  0  0  0  0  0  0
   26.3760   29.8700   49.5060 F   0  0  0  0  0  0  0  0  0  0  0  0
   27.5860   28.8010   51.0320 F   0  0  0  0  0  0  0  0  0  0  0  0
   26.4600   27.5750   49.5910 F   0  0  0  0  0  0  0  0  0  0  0  0
  1  2  2  0  0  0  0
  1  6  1  0  0  0  0
  2  3  1  0  0  0  0
  3 17  1  0  0  0  0
  3  4  2  0  0  0  0
  5  4  1  0  0  0  0
  5  7  1  0  0  0  0
  6  5  2  0  0  0  0
  7  8  1  0  0  0  0
  8  9  2  0  0  0  0
 10  9  1  0  0  0  0
 11 10  2  0  0  0  0
 12 11  1  0  0  0  0
 13 12  2  0  0  0  0
 14 15  2  0  0  0  0
 14 13  1  0  0  0  0
 15 16  1  0  0  0  0
 16  7  2  0  0  0  0
 16 11  1  0  0  0  0
 17 18  1  0  0  0  0
 19 18  2  0  0  0  0
 19 27  1  0  0  0  0
 20 19  1  0  0  0  0
 21 20  2  0  0  0  0
 21 17  1  0  0  0  0
 22 21  1  0  0  0  0
 23 22  1  0  0  0  0
 24 25  1  0  0  0  0
 24 23  2  0  0  0  0
 25 26  2  0  0  0  0
 26 22  1  0  0  0  0
 27 29  1  0  0  0  0
 28 27  1  0  0  0  0
 30 27  1  0  0  0  0
M  END
>  <minimizedAffinity>
-7.43467188

$$$$
