
 OpenBabel03272514533D

 40 45  0  0  0  0  0  0  0  0999 V2000
   33.6590   30.4070   46.7070 C   0  0  0  0  0  3  0  0  0  0  0  0
   34.5130   29.4550   47.2880 C   0  0  0  0  0  0  0  0  0  0  0  0
   33.9980   28.1770   47.5050 C   0  0  0  0  0  3  0  0  0  0  0  0
   32.7330   27.9170   47.1570 N   0  0  0  0  0  0  0  0  0  0  0  0
   31.9180   28.8380   46.5990 C   0  0  0  0  0  0  0  0  0  0  0  0
   32.3840   30.0590   46.3830 N   0  0  0  0  0  0  0  0  0  0  0  0
   30.5810   28.5820   46.2230 N   0  0  0  0  0  0  0  0  0  0  0  0
   29.5260   29.3570   46.6350 C   0  0  0  0  0  3  0  0  0  0  0  0
   28.2650   29.0110   46.2010 C   0  0  0  0  0  0  0  0  0  0  0  0
   28.1150   27.9160   45.3850 C   0  0  0  0  0  0  0  0  0  0  0  0
   26.9630   27.5950   44.9870 O   0  0  0  0  0  0  0  0  0  0  0  0
   29.1170   27.1530   44.9770 N   0  0  0  0  0  0  0  0  0  0  0  0
   30.3480   27.5220   45.4210 C   0  0  0  0  0  0  0  0  0  0  0  0
   31.3250   26.8200   45.0520 O   0  0  0  0  0  0  0  0  0  0  0  0
   28.9740   26.3370   44.3660 H   0  0  0  0  0  0  0  0  0  0  0  0
   35.8170   30.0100   47.5580 C   0  0  0  0  0  0  0  0  0  0  0  0
   36.5180   30.5320   46.4710 C   0  0  0  0  0  3  0  0  0  0  0  0
   37.7650   31.0970   46.5780 C   0  0  0  0  0  3  0  0  0  0  0  0
   38.3900   31.1740   47.7840 C   0  0  0  0  0  3  0  0  0  0  0  0
   37.7240   30.6710   48.8670 C   0  0  0  0  0  0  0  0  0  0  0  0
   38.2710   30.7010   50.1540 C   0  0  0  0  0  3  0  0  0  0  0  0
   37.6190   30.2020   51.2570 C   0  0  0  0  0  3  0  0  0  0  0  0
   36.3680   29.6440   51.1020 C   0  0  0  0  0  3  0  0  0  0  0  0
   35.8060   29.6000   49.8510 C   0  0  0  0  0  3  0  0  0  0  0  0
   36.4800   30.1050   48.7690 C   0  0  0  0  0  0  0  0  0  0  0  0
   27.1080   29.8070   46.6200 C   0  0  0  0  0  2  0  0  0  0  0  0
   26.4560   29.2740   47.7990 N   0  0  0  0  0  0  0  0  0  0  0  0
   25.1970   29.0360   48.2050 C   0  0  0  0  0  3  0  0  0  0  0  0
   25.2210   28.5150   49.4440 N   0  0  0  0  0  0  0  0  0  0  0  0
   26.4710   28.4010   49.8750 C   0  0  0  0  0  0  0  0  0  0  0  0
   27.0500   27.9430   51.0370 C   0  0  0  0  0  0  0  0  0  0  0  0
   26.3600   27.5080   51.9810 O   0  0  0  0  0  0  0  0  0  0  0  0
   28.3790   27.9380   51.2190 N   0  0  0  0  0  0  0  0  0  0  0  0
   29.1320   28.4010   50.2120 C   0  0  0  0  0  0  0  0  0  0  0  0
   30.5480   28.5130   50.1270 N   0  0  0  0  0  0  0  0  0  0  0  0
   28.5940   28.8500   49.0820 N   0  0  0  0  0  0  0  0  0  0  0  0
   27.2530   28.8820   48.8370 C   0  0  0  0  0  0  0  0  0  0  0  0
   28.8010   27.5940   52.0930 H   0  0  0  0  0  0  0  0  0  0  0  0
   31.1380   28.2110   50.9170 H   0  0  0  0  0  0  0  0  0  0  0  0
   30.9850   28.8960   49.2760 H   0  0  0  0  0  0  0  0  0  0  0  0
  1  2  1  0  0  0  0
  2  3  2  0  0  0  0
  2 16  1  0  0  0  0
  4  3  1  0  0  0  0
  5  4  2  0  0  0  0
  6  5  1  0  0  0  0
  6  1  2  0  0  0  0
  7  5  1  0  0  0  0
  7  8  1  0  0  0  0
  9 26  1  0  0  0  0
  9  8  2  0  0  0  0
 10  9  1  0  0  0  0
 11 10  2  0  0  0  0
 12 10  1  0  0  0  0
 12 13  1  0  0  0  0
 13  7  1  0  0  0  0
 14 13  2  0  0  0  0
 15 12  1  0  0  0  0
 16 25  1  0  0  0  0
 17 18  1  0  0  0  0
 17 16  2  0  0  0  0
 18 19  2  0  0  0  0
 19 20  1  0  0  0  0
 20 21  1  0  0  0  0
 21 22  2  0  0  0  0
 23 22  1  0  0  0  0
 24 23  2  0  0  0  0
 25 20  2  0  0  0  0
 25 24  1  0  0  0  0
 26 27  1  0  0  0  0
 27 28  1  0  0  0  0
 27 37  1  0  0  0  0
 28 29  2  0  0  0  0
 29 30  1  0  0  0  0
 30 31  1  0  0  0  0
 31 33  1  0  0  0  0
 31 32  2  0  0  0  0
 33 38  1  0  0  0  0
 34 33  1  0  0  0  0
 35 34  1  0  0  0  0
 35 39  1  0  0  0  0
 36 34  2  0  0  0  0
 37 36  1  0  0  0  0
 37 30  2  0  0  0  0
 40 35  1  0  0  0  0
M  END
>  <minimizedAffinity>
-10.0660143

$$$$

 OpenBabel03272514533D

 40 45  0  0  0  0  0  0  0  0999 V2000
   34.2140   30.0210   47.8170 C   0  0  0  0  0  3  0  0  0  0  0  0
   34.8330   29.0390   48.6090 C   0  0  0  0  0  0  0  0  0  0  0  0
   34.3480   27.7350   48.5120 C   0  0  0  0  0  3  0  0  0  0  0  0
   33.3310   27.4790   47.6830 N   0  0  0  0  0  0  0  0  0  0  0  0
   32.7410   28.4280   46.9250 C   0  0  0  0  0  0  0  0  0  0  0  0
   33.1830   29.6750   46.9990 N   0  0  0  0  0  0  0  0  0  0  0  0
   31.6680   28.1760   46.0420 N   0  0  0  0  0  0  0  0  0  0  0  0
   30.4930   28.8850   46.0710 C   0  0  0  0  0  3  0  0  0  0  0  0
   29.5160   28.5510   45.1580 C   0  0  0  0  0  0  0  0  0  0  0  0
   29.7540   27.5330   44.2660 C   0  0  0  0  0  0  0  0  0  0  0  0
   28.8630   27.2230   43.4300 O   0  0  0  0  0  0  0  0  0  0  0  0
   30.8780   26.8350   44.2220 N   0  0  0  0  0  0  0  0  0  0  0  0
   31.8210   27.1900   45.1340 C   0  0  0  0  0  0  0  0  0  0  0  0
   32.9040   26.5480   45.1200 O   0  0  0  0  0  0  0  0  0  0  0  0
   31.0270   26.0750   43.5430 H   0  0  0  0  0  0  0  0  0  0  0  0
   35.8990   29.5980   49.4050 C   0  0  0  0  0  0  0  0  0  0  0  0
   35.9510   29.2180   50.7460 C   0  0  0  0  0  3  0  0  0  0  0  0
   36.9110   29.6650   51.6200 C   0  0  0  0  0  3  0  0  0  0  0  0
   37.8810   30.5240   51.2050 C   0  0  0  0  0  3  0  0  0  0  0  0
   37.8550   30.9120   49.8940 C   0  0  0  0  0  0  0  0  0  0  0  0
   38.8030   31.7880   49.3600 C   0  0  0  0  0  3  0  0  0  0  0  0
   38.7960   32.1910   48.0450 C   0  0  0  0  0  3  0  0  0  0  0  0
   37.8130   31.7170   47.2030 C   0  0  0  0  0  3  0  0  0  0  0  0
   36.8670   30.8550   47.6990 C   0  0  0  0  0  3  0  0  0  0  0  0
   36.8990   30.4710   49.0150 C   0  0  0  0  0  0  0  0  0  0  0  0
   28.2440   29.2780   45.1550 C   0  0  0  0  0  2  0  0  0  0  0  0
   27.3930   28.9250   46.2740 N   0  0  0  0  0  0  0  0  0  0  0  0
   26.9850   27.8010   46.8850 C   0  0  0  0  0  3  0  0  0  0  0  0
   26.1680   28.1190   47.9030 N   0  0  0  0  0  0  0  0  0  0  0  0
   26.0190   29.4350   47.9850 C   0  0  0  0  0  0  0  0  0  0  0  0
   25.3140   30.2750   48.8180 C   0  0  0  0  0  0  0  0  0  0  0  0
   24.6130   29.8290   49.7490 O   0  0  0  0  0  0  0  0  0  0  0  0
   25.3400   31.6080   48.6760 N   0  0  0  0  0  0  0  0  0  0  0  0
   26.0890   32.1000   47.6800 C   0  0  0  0  0  0  0  0  0  0  0  0
   26.3010   33.4540   47.2990 N   0  0  0  0  0  0  0  0  0  0  0  0
   26.7770   31.3080   46.8640 N   0  0  0  0  0  0  0  0  0  0  0  0
   26.7920   29.9470   46.9550 C   0  0  0  0  0  0  0  0  0  0  0  0
   24.8070   32.2250   49.3040 H   0  0  0  0  0  0  0  0  0  0  0  0
   25.8430   34.2150   47.8230 H   0  0  0  0  0  0  0  0  0  0  0  0
   26.9110   33.6750   46.5000 H   0  0  0  0  0  0  0  0  0  0  0  0
  1  2  1  0  0  0  0
  2 16  1  0  0  0  0
  3  2  2  0  0  0  0
  4  3  1  0  0  0  0
  5  6  1  0  0  0  0
  5  4  2  0  0  0  0
  6  1  2  0  0  0  0
  7  8  1  0  0  0  0
  7  5  1  0  0  0  0
  9  8  2  0  0  0  0
 10  9  1  0  0  0  0
 11 10  2  0  0  0  0
 12 10  1  0  0  0  0
 12 13  1  0  0  0  0
 13  7  1  0  0  0  0
 14 13  2  0  0  0  0
 15 12  1  0  0  0  0
 16 17  1  0  0  0  0
 17 18  2  0  0  0  0
 19 18  1  0  0  0  0
 20 19  2  0  0  0  0
 21 20  1  0  0  0  0
 22 21  2  0  0  0  0
 23 24  2  0  0  0  0
 23 22  1  0  0  0  0
 24 25  1  0  0  0  0
 25 16  2  0  0  0  0
 25 20  1  0  0  0  0
 26  9  1  0  0  0  0
 26 27  1  0  0  0  0
 27 28  1  0  0  0  0
 27 37  1  0  0  0  0
 28 29  2  0  0  0  0
 29 30  1  0  0  0  0
 30 31  1  0  0  0  0
 31 32  2  0  0  0  0
 33 31  1  0  0  0  0
 33 38  1  0  0  0  0
 34 33  1  0  0  0  0
 35 34  1  0  0  0  0
 35 39  1  0  0  0  0
 36 37  1  0  0  0  0
 36 34  2  0  0  0  0
 37 30  2  0  0  0  0
 40 35  1  0  0  0  0
M  END
>  <minimizedAffinity>
-9.8174181

$$$$

 OpenBabel03272514533D

 40 45  0  0  0  0  0  0  0  0999 V2000
   33.6290   29.8730   46.2840 C   0  0  0  0  0  3  0  0  0  0  0  0
   34.1130   29.3930   47.5120 C   0  0  0  0  0  0  0  0  0  0  0  0
   33.2780   28.5540   48.2490 C   0  0  0  0  0  3  0  0  0  0  0  0
   32.0700   28.2480   47.7640 N   0  0  0  0  0  0  0  0  0  0  0  0
   31.6100   28.7130   46.5820 C   0  0  0  0  0  0  0  0  0  0  0  0
   32.3850   29.5120   45.8630 N   0  0  0  0  0  0  0  0  0  0  0  0
   30.3400   28.3990   46.0520 N   0  0  0  0  0  0  0  0  0  0  0  0
   29.4450   29.3540   45.6390 C   0  0  0  0  0  3  0  0  0  0  0  0
   28.2350   28.9280   45.1360 C   0  0  0  0  0  0  0  0  0  0  0  0
   27.9750   27.5800   45.0700 C   0  0  0  0  0  0  0  0  0  0  0  0
   26.8690   27.1850   44.6120 O   0  0  0  0  0  0  0  0  0  0  0  0
   28.8220   26.6420   45.4640 N   0  0  0  0  0  0  0  0  0  0  0  0
   30.0070   27.0950   45.9540 C   0  0  0  0  0  0  0  0  0  0  0  0
   30.8380   26.2310   46.3370 O   0  0  0  0  0  0  0  0  0  0  0  0
   28.5990   25.6390   45.4040 H   0  0  0  0  0  0  0  0  0  0  0  0
   35.4430   29.8840   47.7820 C   0  0  0  0  0  0  0  0  0  0  0  0
   36.1630   30.3840   46.6980 C   0  0  0  0  0  3  0  0  0  0  0  0
   37.4350   30.8890   46.8050 C   0  0  0  0  0  3  0  0  0  0  0  0
   38.0680   30.9230   48.0090 C   0  0  0  0  0  3  0  0  0  0  0  0
   37.3840   30.4400   49.0900 C   0  0  0  0  0  0  0  0  0  0  0  0
   37.9370   30.4280   50.3740 C   0  0  0  0  0  3  0  0  0  0  0  0
   37.2670   29.9470   51.4750 C   0  0  0  0  0  3  0  0  0  0  0  0
   35.9900   29.4500   51.3190 C   0  0  0  0  0  3  0  0  0  0  0  0
   35.4220   29.4470   50.0700 C   0  0  0  0  0  3  0  0  0  0  0  0
   36.1140   29.9330   48.9910 C   0  0  0  0  0  0  0  0  0  0  0  0
   27.2460   29.9120   44.6870 C   0  0  0  0  0  2  0  0  0  0  0  0
   26.8440   30.8240   45.7390 N   0  0  0  0  0  0  0  0  0  0  0  0
   26.8690   30.8510   47.0820 C   0  0  0  0  0  3  0  0  0  0  0  0
   26.3310   32.0050   47.5140 N   0  0  0  0  0  0  0  0  0  0  0  0
   25.9460   32.7500   46.4860 C   0  0  0  0  0  0  0  0  0  0  0  0
   25.3530   33.9870   46.3620 C   0  0  0  0  0  0  0  0  0  0  0  0
   25.0560   34.6700   47.3640 O   0  0  0  0  0  0  0  0  0  0  0  0
   25.0640   34.5230   45.1680 N   0  0  0  0  0  0  0  0  0  0  0  0
   25.3780   33.8010   44.0840 C   0  0  0  0  0  0  0  0  0  0  0  0
   25.1890   34.1150   42.7090 N   0  0  0  0  0  0  0  0  0  0  0  0
   25.9490   32.6050   44.1800 N   0  0  0  0  0  0  0  0  0  0  0  0
   26.2680   32.0050   45.3630 C   0  0  0  0  0  0  0  0  0  0  0  0
   24.6190   35.4490   45.0880 H   0  0  0  0  0  0  0  0  0  0  0  0
   24.7550   35.0110   42.4400 H   0  0  0  0  0  0  0  0  0  0  0  0
   25.4850   33.4480   41.9830 H   0  0  0  0  0  0  0  0  0  0  0  0
  1  2  1  0  0  0  0
  2 16  1  0  0  0  0
  2  3  2  0  0  0  0
  4  3  1  0  0  0  0
  5  4  2  0  0  0  0
  6  1  2  0  0  0  0
  6  5  1  0  0  0  0
  7  5  1  0  0  0  0
  8  7  1  0  0  0  0
  9  8  2  0  0  0  0
 10  9  1  0  0  0  0
 10 12  1  0  0  0  0
 11 10  2  0  0  0  0
 12 13  1  0  0  0  0
 13  7  1  0  0  0  0
 13 14  2  0  0  0  0
 15 12  1  0  0  0  0
 16 25  1  0  0  0  0
 17 18  1  0  0  0  0
 17 16  2  0  0  0  0
 18 19  2  0  0  0  0
 19 20  1  0  0  0  0
 20 21  1  0  0  0  0
 21 22  2  0  0  0  0
 23 22  1  0  0  0  0
 24 23  2  0  0  0  0
 25 20  2  0  0  0  0
 25 24  1  0  0  0  0
 26  9  1  0  0  0  0
 26 27  1  0  0  0  0
 27 28  1  0  0  0  0
 28 29  2  0  0  0  0
 30 29  1  0  0  0  0
 31 30  1  0  0  0  0
 31 32  2  0  0  0  0
 33 31  1  0  0  0  0
 34 36  2  0  0  0  0
 34 33  1  0  0  0  0
 35 34  1  0  0  0  0
 36 37  1  0  0  0  0
 37 27  1  0  0  0  0
 37 30  2  0  0  0  0
 38 33  1  0  0  0  0
 39 35  1  0  0  0  0
 40 35  1  0  0  0  0
M  END
>  <minimizedAffinity>
-9.77225685

$$$$

 OpenBabel03272514533D

 40 45  0  0  0  0  0  0  0  0999 V2000
   33.9960   29.2330   46.4540 C   0  0  0  0  0  3  0  0  0  0  0  0
   34.4570   29.0400   47.7660 C   0  0  0  0  0  0  0  0  0  0  0  0
   33.6990   28.2160   48.5990 C   0  0  0  0  0  3  0  0  0  0  0  0
   32.5840   27.6550   48.1200 N   0  0  0  0  0  0  0  0  0  0  0  0
   32.1470   27.8450   46.8560 C   0  0  0  0  0  0  0  0  0  0  0  0
   32.8490   28.6230   46.0450 N   0  0  0  0  0  0  0  0  0  0  0  0
   30.9740   27.2590   46.3320 N   0  0  0  0  0  0  0  0  0  0  0  0
   29.9840   27.9870   45.7200 C   0  0  0  0  0  3  0  0  0  0  0  0
   28.8850   27.3050   45.2440 C   0  0  0  0  0  0  0  0  0  0  0  0
   28.8240   25.9410   45.4000 C   0  0  0  0  0  0  0  0  0  0  0  0
   27.8200   25.3130   44.9680 O   0  0  0  0  0  0  0  0  0  0  0  0
   29.7660   25.2200   45.9880 N   0  0  0  0  0  0  0  0  0  0  0  0
   30.8370   25.9220   46.4450 C   0  0  0  0  0  0  0  0  0  0  0  0
   31.7530   25.2690   47.0090 O   0  0  0  0  0  0  0  0  0  0  0  0
   29.6920   24.1990   46.0930 H   0  0  0  0  0  0  0  0  0  0  0  0
   35.6810   29.7640   48.0080 C   0  0  0  0  0  0  0  0  0  0  0  0
   36.2750   30.3830   46.9070 C   0  0  0  0  0  3  0  0  0  0  0  0
   37.4360   31.1100   46.9870 C   0  0  0  0  0  3  0  0  0  0  0  0
   38.0790   31.2630   48.1770 C   0  0  0  0  0  3  0  0  0  0  0  0
   37.5180   30.6670   49.2720 C   0  0  0  0  0  0  0  0  0  0  0  0
   38.0910   30.7610   50.5440 C   0  0  0  0  0  3  0  0  0  0  0  0
   37.5430   30.1700   51.6590 C   0  0  0  0  0  3  0  0  0  0  0  0
   36.3750   29.4500   51.5310 C   0  0  0  0  0  3  0  0  0  0  0  0
   35.7890   29.3400   50.2950 C   0  0  0  0  0  3  0  0  0  0  0  0
   36.3580   29.9390   49.2010 C   0  0  0  0  0  0  0  0  0  0  0  0
   27.8000   28.0410   44.5880 C   0  0  0  0  0  2  0  0  0  0  0  0
   27.6200   29.3740   45.1260 N   0  0  0  0  0  0  0  0  0  0  0  0
   27.9250   30.6320   44.7660 C   0  0  0  0  0  3  0  0  0  0  0  0
   27.4860   31.4840   45.7080 N   0  0  0  0  0  0  0  0  0  0  0  0
   26.8930   30.8200   46.6930 C   0  0  0  0  0  0  0  0  0  0  0  0
   26.2830   31.1890   47.8710 C   0  0  0  0  0  0  0  0  0  0  0  0
   26.1990   32.3860   48.2140 O   0  0  0  0  0  0  0  0  0  0  0  0
   25.7490   30.2900   48.7100 N   0  0  0  0  0  0  0  0  0  0  0  0
   25.8310   29.0010   48.3540 C   0  0  0  0  0  0  0  0  0  0  0  0
   25.3580   27.8470   49.0390 N   0  0  0  0  0  0  0  0  0  0  0  0
   26.4160   28.6220   47.2210 N   0  0  0  0  0  0  0  0  0  0  0  0
   26.9780   29.4860   46.3280 C   0  0  0  0  0  0  0  0  0  0  0  0
   25.2960   30.5770   49.5890 H   0  0  0  0  0  0  0  0  0  0  0  0
   24.8730   27.9470   49.9430 H   0  0  0  0  0  0  0  0  0  0  0  0
   25.5010   26.9110   48.6320 H   0  0  0  0  0  0  0  0  0  0  0  0
  1  2  1  0  0  0  0
  2 16  1  0  0  0  0
  2  3  2  0  0  0  0
  4  3  1  0  0  0  0
  5  4  2  0  0  0  0
  6  1  2  0  0  0  0
  6  5  1  0  0  0  0
  7 13  1  0  0  0  0
  7  5  1  0  0  0  0
  8  7  1  0  0  0  0
  9 10  1  0  0  0  0
  9  8  2  0  0  0  0
 10 12  1  0  0  0  0
 11 10  2  0  0  0  0
 12 15  1  0  0  0  0
 12 13  1  0  0  0  0
 13 14  2  0  0  0  0
 16 25  1  0  0  0  0
 17 18  1  0  0  0  0
 17 16  2  0  0  0  0
 18 19  2  0  0  0  0
 19 20  1  0  0  0  0
 20 21  1  0  0  0  0
 21 22  2  0  0  0  0
 23 22  1  0  0  0  0
 24 23  2  0  0  0  0
 25 20  2  0  0  0  0
 25 24  1  0  0  0  0
 26 27  1  0  0  0  0
 26  9  1  0  0  0  0
 27 37  1  0  0  0  0
 28 27  1  0  0  0  0
 28 29  2  0  0  0  0
 29 30  1  0  0  0  0
 30 31  1  0  0  0  0
 31 32  2  0  0  0  0
 31 33  1  0  0  0  0
 33 38  1  0  0  0  0
 34 33  1  0  0  0  0
 34 35  1  0  0  0  0
 35 39  1  0  0  0  0
 36 34  2  0  0  0  0
 37 30  2  0  0  0  0
 37 36  1  0  0  0  0
 40 35  1  0  0  0  0
M  END
>  <minimizedAffinity>
-9.55603313

$$$$

 OpenBabel03272514533D

 40 45  0  0  0  0  0  0  0  0999 V2000
   33.6870   30.1040   46.7550 C   0  0  0  0  0  3  0  0  0  0  0  0
   34.5660   29.2600   47.4530 C   0  0  0  0  0  0  0  0  0  0  0  0
   34.1420   27.9550   47.7020 C   0  0  0  0  0  3  0  0  0  0  0  0
   32.9360   27.5690   47.2730 N   0  0  0  0  0  0  0  0  0  0  0  0
   32.0960   28.3860   46.6020 C   0  0  0  0  0  0  0  0  0  0  0  0
   32.4750   29.6310   46.3530 N   0  0  0  0  0  0  0  0  0  0  0  0
   30.8200   27.9960   46.1390 N   0  0  0  0  0  0  0  0  0  0  0  0
   29.6740   28.6960   46.4240 C   0  0  0  0  0  3  0  0  0  0  0  0
   28.4860   28.2200   45.9140 C   0  0  0  0  0  0  0  0  0  0  0  0
   28.4940   27.0770   45.1530 C   0  0  0  0  0  0  0  0  0  0  0  0
   27.4090   26.6370   44.6860 O   0  0  0  0  0  0  0  0  0  0  0  0
   29.5860   26.3840   44.8680 N   0  0  0  0  0  0  0  0  0  0  0  0
   30.7420   26.8810   45.3830 C   0  0  0  0  0  0  0  0  0  0  0  0
   31.8010   26.2490   45.1310 O   0  0  0  0  0  0  0  0  0  0  0  0
   29.5620   25.5290   44.2950 H   0  0  0  0  0  0  0  0  0  0  0  0
   35.7930   29.9410   47.7910 C   0  0  0  0  0  0  0  0  0  0  0  0
   36.4710   30.5720   46.7480 C   0  0  0  0  0  3  0  0  0  0  0  0
   37.6460   31.2610   46.9220 C   0  0  0  0  0  3  0  0  0  0  0  0
   38.2170   31.3600   48.1520 C   0  0  0  0  0  3  0  0  0  0  0  0
   37.5720   30.7510   49.1920 C   0  0  0  0  0  0  0  0  0  0  0  0
   38.0670   30.7910   50.4990 C   0  0  0  0  0  3  0  0  0  0  0  0
   37.4350   30.1860   51.5600 C   0  0  0  0  0  3  0  0  0  0  0  0
   36.2570   29.5050   51.3390 C   0  0  0  0  0  3  0  0  0  0  0  0
   35.7460   29.4480   50.0670 C   0  0  0  0  0  3  0  0  0  0  0  0
   36.3990   30.0610   49.0280 C   0  0  0  0  0  0  0  0  0  0  0  0
   27.2370   28.9330   46.1960 C   0  0  0  0  0  2  0  0  0  0  0  0
   26.8680   29.8580   45.1440 N   0  0  0  0  0  0  0  0  0  0  0  0
   26.7640   29.8360   43.8040 C   0  0  0  0  0  3  0  0  0  0  0  0
   26.3640   31.0430   43.3690 N   0  0  0  0  0  0  0  0  0  0  0  0
   26.1990   31.8730   44.3910 C   0  0  0  0  0  0  0  0  0  0  0  0
   25.8120   33.1890   44.5090 C   0  0  0  0  0  0  0  0  0  0  0  0
   25.5220   33.8750   43.5070 O   0  0  0  0  0  0  0  0  0  0  0  0
   25.7250   33.8040   45.6970 N   0  0  0  0  0  0  0  0  0  0  0  0
   26.0320   33.0790   46.7810 C   0  0  0  0  0  0  0  0  0  0  0  0
   26.0300   33.4650   48.1510 N   0  0  0  0  0  0  0  0  0  0  0  0
   26.4100   31.8070   46.6900 N   0  0  0  0  0  0  0  0  0  0  0  0
   26.5180   31.1260   45.5140 C   0  0  0  0  0  0  0  0  0  0  0  0
   25.4350   34.7890   45.7730 H   0  0  0  0  0  0  0  0  0  0  0  0
   25.7610   34.4240   48.4160 H   0  0  0  0  0  0  0  0  0  0  0  0
   26.2970   32.7850   48.8780 H   0  0  0  0  0  0  0  0  0  0  0  0
  1  2  1  0  0  0  0
  2  3  2  0  0  0  0
  2 16  1  0  0  0  0
  4  3  1  0  0  0  0
  5  4  2  0  0  0  0
  6  5  1  0  0  0  0
  6  1  2  0  0  0  0
  7  8  1  0  0  0  0
  7  5  1  0  0  0  0
  9 26  1  0  0  0  0
  9  8  2  0  0  0  0
 10  9  1  0  0  0  0
 11 10  2  0  0  0  0
 12 10  1  0  0  0  0
 12 13  1  0  0  0  0
 13  7  1  0  0  0  0
 14 13  2  0  0  0  0
 15 12  1  0  0  0  0
 16 25  1  0  0  0  0
 17 18  1  0  0  0  0
 17 16  2  0  0  0  0
 18 19  2  0  0  0  0
 19 20  1  0  0  0  0
 20 21  1  0  0  0  0
 21 22  2  0  0  0  0
 23 22  1  0  0  0  0
 24 23  2  0  0  0  0
 25 20  2  0  0  0  0
 25 24  1  0  0  0  0
 27 37  1  0  0  0  0
 27 26  1  0  0  0  0
 28 27  1  0  0  0  0
 29 28  2  0  0  0  0
 29 30  1  0  0  0  0
 30 31  1  0  0  0  0
 30 37  2  0  0  0  0
 31 33  1  0  0  0  0
 32 31  2  0  0  0  0
 33 38  1  0  0  0  0
 33 34  1  0  0  0  0
 34 35  1  0  0  0  0
 35 39  1  0  0  0  0
 35 40  1  0  0  0  0
 36 34  2  0  0  0  0
 37 36  1  0  0  0  0
M  END
>  <minimizedAffinity>
-9.54594612

$$$$

 OpenBabel03272514533D

 40 45  0  0  0  0  0  0  0  0999 V2000
   33.7010   29.4730   47.8890 C   0  0  0  0  0  3  0  0  0  0  0  0
   34.6140   28.6110   48.5200 C   0  0  0  0  0  0  0  0  0  0  0  0
   34.3510   27.2430   48.4630 C   0  0  0  0  0  3  0  0  0  0  0  0
   33.2580   26.8160   47.8210 N   0  0  0  0  0  0  0  0  0  0  0  0
   32.3850   27.6500   47.2160 C   0  0  0  0  0  0  0  0  0  0  0  0
   32.6120   28.9550   47.2560 N   0  0  0  0  0  0  0  0  0  0  0  0
   31.2280   27.2180   46.5310 N   0  0  0  0  0  0  0  0  0  0  0  0
   29.9740   27.7100   46.7970 C   0  0  0  0  0  3  0  0  0  0  0  0
   28.9200   27.2140   46.0610 C   0  0  0  0  0  0  0  0  0  0  0  0
   29.1610   26.2580   45.1040 C   0  0  0  0  0  0  0  0  0  0  0  0
   28.1990   25.8010   44.4300 O   0  0  0  0  0  0  0  0  0  0  0  0
   30.3610   25.7690   44.8330 N   0  0  0  0  0  0  0  0  0  0  0  0
   31.3800   26.2790   45.5740 C   0  0  0  0  0  0  0  0  0  0  0  0
   32.5360   25.8380   45.3420 O   0  0  0  0  0  0  0  0  0  0  0  0
   30.5130   25.0510   44.1100 H   0  0  0  0  0  0  0  0  0  0  0  0
   35.6950   29.3450   49.1320 C   0  0  0  0  0  0  0  0  0  0  0  0
   35.8440   29.2140   50.5130 C   0  0  0  0  0  3  0  0  0  0  0  0
   36.8290   29.8470   51.2290 C   0  0  0  0  0  3  0  0  0  0  0  0
   37.7300   30.6540   50.6060 C   0  0  0  0  0  3  0  0  0  0  0  0
   37.6070   30.7990   49.2520 C   0  0  0  0  0  0  0  0  0  0  0  0
   38.4780   31.6020   48.5090 C   0  0  0  0  0  3  0  0  0  0  0  0
   38.3750   31.7620   47.1470 C   0  0  0  0  0  3  0  0  0  0  0  0
   37.3690   31.1060   46.4690 C   0  0  0  0  0  3  0  0  0  0  0  0
   36.4980   30.3110   47.1710 C   0  0  0  0  0  3  0  0  0  0  0  0
   36.6260   30.1710   48.5290 C   0  0  0  0  0  0  0  0  0  0  0  0
   27.5620   27.7060   46.3140 C   0  0  0  0  0  2  0  0  0  0  0  0
   27.4760   29.1520   46.2920 N   0  0  0  0  0  0  0  0  0  0  0  0
   28.0320   30.1620   45.6020 C   0  0  0  0  0  3  0  0  0  0  0  0
   27.5410   31.3300   46.0500 N   0  0  0  0  0  0  0  0  0  0  0  0
   26.6690   31.1220   47.0280 C   0  0  0  0  0  0  0  0  0  0  0  0
   25.8930   31.9420   47.8170 C   0  0  0  0  0  0  0  0  0  0  0  0
   25.9200   33.1830   47.6900 O   0  0  0  0  0  0  0  0  0  0  0  0
   25.0720   31.4570   48.7590 N   0  0  0  0  0  0  0  0  0  0  0  0
   25.0330   30.1260   48.9060 C   0  0  0  0  0  0  0  0  0  0  0  0
   24.2650   29.3450   49.8140 N   0  0  0  0  0  0  0  0  0  0  0  0
   25.7730   29.3160   48.1570 N   0  0  0  0  0  0  0  0  0  0  0  0
   26.6270   29.7460   47.1840 C   0  0  0  0  0  0  0  0  0  0  0  0
   24.4980   32.0810   49.3440 H   0  0  0  0  0  0  0  0  0  0  0  0
   23.6260   29.8050   50.4790 H   0  0  0  0  0  0  0  0  0  0  0  0
   24.3470   28.3180   49.8070 H   0  0  0  0  0  0  0  0  0  0  0  0
  1  2  1  0  0  0  0
  2 16  1  0  0  0  0
  3  2  2  0  0  0  0
  4  3  1  0  0  0  0
  5  6  1  0  0  0  0
  5  4  2  0  0  0  0
  6  1  2  0  0  0  0
  7  8  1  0  0  0  0
  7  5  1  0  0  0  0
  9 26  1  0  0  0  0
  9  8  2  0  0  0  0
 10  9  1  0  0  0  0
 11 10  2  0  0  0  0
 12 10  1  0  0  0  0
 12 13  1  0  0  0  0
 13  7  1  0  0  0  0
 14 13  2  0  0  0  0
 15 12  1  0  0  0  0
 16 17  1  0  0  0  0
 17 18  2  0  0  0  0
 19 18  1  0  0  0  0
 20 19  2  0  0  0  0
 21 20  1  0  0  0  0
 22 21  2  0  0  0  0
 23 22  1  0  0  0  0
 23 24  2  0  0  0  0
 24 25  1  0  0  0  0
 25 16  2  0  0  0  0
 25 20  1  0  0  0  0
 27 26  1  0  0  0  0
 27 37  1  0  0  0  0
 28 29  2  0  0  0  0
 28 27  1  0  0  0  0
 29 30  1  0  0  0  0
 30 37  2  0  0  0  0
 30 31  1  0  0  0  0
 31 33  1  0  0  0  0
 32 31  2  0  0  0  0
 33 34  1  0  0  0  0
 33 38  1  0  0  0  0
 34 35  1  0  0  0  0
 35 39  1  0  0  0  0
 36 34  2  0  0  0  0
 37 36  1  0  0  0  0
 40 35  1  0  0  0  0
M  END
>  <minimizedAffinity>
-9.46144295

$$$$

 OpenBabel03272514533D

 40 45  0  0  0  0  0  0  0  0999 V2000
   33.7140   29.3010   46.6110 C   0  0  0  0  0  3  0  0  0  0  0  0
   34.4900   28.7770   47.6580 C   0  0  0  0  0  0  0  0  0  0  0  0
   34.0680   27.5800   48.2350 C   0  0  0  0  0  3  0  0  0  0  0  0
   32.9590   26.9910   47.7740 N   0  0  0  0  0  0  0  0  0  0  0  0
   32.2170   27.5010   46.7670 C   0  0  0  0  0  0  0  0  0  0  0  0
   32.5970   28.6370   46.2020 N   0  0  0  0  0  0  0  0  0  0  0  0
   31.0460   26.8920   46.2650 N   0  0  0  0  0  0  0  0  0  0  0  0
   29.8500   27.5560   46.1470 C   0  0  0  0  0  3  0  0  0  0  0  0
   28.7740   26.8590   45.6420 C   0  0  0  0  0  0  0  0  0  0  0  0
   28.9380   25.5430   45.2820 C   0  0  0  0  0  0  0  0  0  0  0  0
   27.9570   24.9010   44.8200 O   0  0  0  0  0  0  0  0  0  0  0  0
   30.0810   24.8830   45.3890 N   0  0  0  0  0  0  0  0  0  0  0  0
   31.1230   25.5990   45.8900 C   0  0  0  0  0  0  0  0  0  0  0  0
   32.2260   25.0030   46.0050 O   0  0  0  0  0  0  0  0  0  0  0  0
   30.1740   23.8950   45.1130 H   0  0  0  0  0  0  0  0  0  0  0  0
   35.6260   29.6200   47.9450 C   0  0  0  0  0  0  0  0  0  0  0  0
   36.1830   30.3140   46.8710 C   0  0  0  0  0  3  0  0  0  0  0  0
   37.2610   31.1550   46.9950 C   0  0  0  0  0  3  0  0  0  0  0  0
   37.8510   31.3530   48.2040 C   0  0  0  0  0  3  0  0  0  0  0  0
   37.3240   30.6850   49.2740 C   0  0  0  0  0  0  0  0  0  0  0  0
   37.8490   30.8160   50.5630 C   0  0  0  0  0  3  0  0  0  0  0  0
   37.3350   30.1540   51.6540 C   0  0  0  0  0  3  0  0  0  0  0  0
   36.2510   29.3200   51.4820 C   0  0  0  0  0  3  0  0  0  0  0  0
   35.7140   29.1710   50.2290 C   0  0  0  0  0  3  0  0  0  0  0  0
   36.2490   29.8430   49.1600 C   0  0  0  0  0  0  0  0  0  0  0  0
   27.4770   27.5250   45.5020 C   0  0  0  0  0  2  0  0  0  0  0  0
   27.0670   28.2160   46.7080 N   0  0  0  0  0  0  0  0  0  0  0  0
   26.7550   27.8890   47.9730 C   0  0  0  0  0  3  0  0  0  0  0  0
   26.4390   29.0020   48.6560 N   0  0  0  0  0  0  0  0  0  0  0  0
   26.5320   30.0690   47.8720 C   0  0  0  0  0  0  0  0  0  0  0  0
   26.3280   31.4190   48.0540 C   0  0  0  0  0  0  0  0  0  0  0  0
   25.9700   31.8800   49.1570 O   0  0  0  0  0  0  0  0  0  0  0  0
   26.4990   32.3070   47.0650 N   0  0  0  0  0  0  0  0  0  0  0  0
   26.8830   31.8250   45.8750 C   0  0  0  0  0  0  0  0  0  0  0  0
   27.1380   32.5250   44.6620 N   0  0  0  0  0  0  0  0  0  0  0  0
   27.0850   30.5260   45.6760 N   0  0  0  0  0  0  0  0  0  0  0  0
   26.9280   29.5740   46.6390 C   0  0  0  0  0  0  0  0  0  0  0  0
   26.3420   33.3130   47.2130 H   0  0  0  0  0  0  0  0  0  0  0  0
   27.0320   33.5490   44.6260 H   0  0  0  0  0  0  0  0  0  0  0  0
   27.4280   32.0070   43.8200 H   0  0  0  0  0  0  0  0  0  0  0  0
  1  2  1  0  0  0  0
  2 16  1  0  0  0  0
  2  3  2  0  0  0  0
  4  3  1  0  0  0  0
  5  4  2  0  0  0  0
  6  1  2  0  0  0  0
  6  5  1  0  0  0  0
  7  5  1  0  0  0  0
  8  7  1  0  0  0  0
  9  8  2  0  0  0  0
 10 12  1  0  0  0  0
 10  9  1  0  0  0  0
 11 10  2  0  0  0  0
 12 13  1  0  0  0  0
 13 14  2  0  0  0  0
 13  7  1  0  0  0  0
 15 12  1  0  0  0  0
 16 25  1  0  0  0  0
 17 18  1  0  0  0  0
 17 16  2  0  0  0  0
 18 19  2  0  0  0  0
 19 20  1  0  0  0  0
 20 21  1  0  0  0  0
 21 22  2  0  0  0  0
 23 22  1  0  0  0  0
 24 23  2  0  0  0  0
 25 20  2  0  0  0  0
 25 24  1  0  0  0  0
 26  9  1  0  0  0  0
 26 27  1  0  0  0  0
 27 28  1  0  0  0  0
 28 29  2  0  0  0  0
 30 31  1  0  0  0  0
 30 29  1  0  0  0  0
 31 32  2  0  0  0  0
 33 38  1  0  0  0  0
 33 31  1  0  0  0  0
 34 33  1  0  0  0  0
 35 34  1  0  0  0  0
 36 34  2  0  0  0  0
 36 37  1  0  0  0  0
 37 27  1  0  0  0  0
 37 30  2  0  0  0  0
 39 35  1  0  0  0  0
 40 35  1  0  0  0  0
M  END
>  <minimizedAffinity>
-9.42541122

$$$$

 OpenBabel03272514533D

 40 45  0  0  0  0  0  0  0  0999 V2000
   34.1780   30.1560   47.4600 C   0  0  0  0  0  3  0  0  0  0  0  0
   35.0940   29.6480   48.3970 C   0  0  0  0  0  0  0  0  0  0  0  0
   34.7840   28.4310   49.0040 C   0  0  0  0  0  3  0  0  0  0  0  0
   33.6470   27.8090   48.6740 N   0  0  0  0  0  0  0  0  0  0  0  0
   32.7710   28.3040   47.7720 C   0  0  0  0  0  0  0  0  0  0  0  0
   33.0420   29.4580   47.1810 N   0  0  0  0  0  0  0  0  0  0  0  0
   31.5670   27.6610   47.4080 N   0  0  0  0  0  0  0  0  0  0  0  0
   30.3450   28.2850   47.4460 C   0  0  0  0  0  3  0  0  0  0  0  0
   29.2390   27.5570   47.0660 C   0  0  0  0  0  0  0  0  0  0  0  0
   29.4000   26.2510   46.6700 C   0  0  0  0  0  0  0  0  0  0  0  0
   28.3910   25.5810   46.3220 O   0  0  0  0  0  0  0  0  0  0  0  0
   30.5680   25.6290   46.6280 N   0  0  0  0  0  0  0  0  0  0  0  0
   31.6400   26.3750   47.0080 C   0  0  0  0  0  0  0  0  0  0  0  0
   32.7670   25.8160   46.9790 O   0  0  0  0  0  0  0  0  0  0  0  0
   30.6590   24.6480   46.3280 H   0  0  0  0  0  0  0  0  0  0  0  0
   36.2280   30.5250   48.5550 C   0  0  0  0  0  0  0  0  0  0  0  0
   36.3900   31.1280   49.8030 C   0  0  0  0  0  3  0  0  0  0  0  0
   37.4240   31.9800   50.1000 C   0  0  0  0  0  3  0  0  0  0  0  0
   38.3630   32.2840   49.1640 C   0  0  0  0  0  3  0  0  0  0  0  0
   38.2290   31.7060   47.9320 C   0  0  0  0  0  0  0  0  0  0  0  0
   39.1370   31.9460   46.8970 C   0  0  0  0  0  3  0  0  0  0  0  0
   39.0220   31.3750   45.6510 C   0  0  0  0  0  3  0  0  0  0  0  0
   37.9670   30.5250   45.3970 C   0  0  0  0  0  3  0  0  0  0  0  0
   37.0590   30.2710   46.3940 C   0  0  0  0  0  3  0  0  0  0  0  0
   37.1990   30.8550   47.6270 C   0  0  0  0  0  0  0  0  0  0  0  0
   27.9130   28.1810   47.0940 C   0  0  0  0  0  2  0  0  0  0  0  0
   27.6250   28.9440   45.8970 N   0  0  0  0  0  0  0  0  0  0  0  0
   27.7120   28.7630   44.5690 C   0  0  0  0  0  3  0  0  0  0  0  0
   27.2850   29.8710   43.9390 N   0  0  0  0  0  0  0  0  0  0  0  0
   26.9150   30.7910   44.8210 C   0  0  0  0  0  0  0  0  0  0  0  0
   26.4150   32.0710   44.7250 C   0  0  0  0  0  0  0  0  0  0  0  0
   26.2160   32.6110   43.6170 O   0  0  0  0  0  0  0  0  0  0  0  0
   26.1170   32.8040   45.8070 N   0  0  0  0  0  0  0  0  0  0  0  0
   26.3240   32.2370   47.0030 C   0  0  0  0  0  0  0  0  0  0  0  0
   26.1010   32.7710   48.3020 N   0  0  0  0  0  0  0  0  0  0  0  0
   26.8080   31.0030   47.1190 N   0  0  0  0  0  0  0  0  0  0  0  0
   27.1310   30.2080   46.0600 C   0  0  0  0  0  0  0  0  0  0  0  0
   25.7440   33.7600   45.7220 H   0  0  0  0  0  0  0  0  0  0  0  0
   25.7250   33.7250   48.4100 H   0  0  0  0  0  0  0  0  0  0  0  0
   26.3150   32.2050   49.1360 H   0  0  0  0  0  0  0  0  0  0  0  0
  1  2  1  0  0  0  0
  2 16  1  0  0  0  0
  2  3  2  0  0  0  0
  4  3  1  0  0  0  0
  5  4  2  0  0  0  0
  6  1  2  0  0  0  0
  6  5  1  0  0  0  0
  7  8  1  0  0  0  0
  7  5  1  0  0  0  0
  9 26  1  0  0  0  0
  9  8  2  0  0  0  0
 10  9  1  0  0  0  0
 11 10  2  0  0  0  0
 12 10  1  0  0  0  0
 12 13  1  0  0  0  0
 13  7  1  0  0  0  0
 14 13  2  0  0  0  0
 15 12  1  0  0  0  0
 16 17  1  0  0  0  0
 17 18  2  0  0  0  0
 19 18  1  0  0  0  0
 20 19  2  0  0  0  0
 21 20  1  0  0  0  0
 22 21  2  0  0  0  0
 23 22  1  0  0  0  0
 23 24  2  0  0  0  0
 24 25  1  0  0  0  0
 25 20  1  0  0  0  0
 25 16  2  0  0  0  0
 27 37  1  0  0  0  0
 27 26  1  0  0  0  0
 28 27  1  0  0  0  0
 29 28  2  0  0  0  0
 29 30  1  0  0  0  0
 30 37  2  0  0  0  0
 31 30  1  0  0  0  0
 31 33  1  0  0  0  0
 32 31  2  0  0  0  0
 33 34  1  0  0  0  0
 34 36  2  0  0  0  0
 34 35  1  0  0  0  0
 35 39  1  0  0  0  0
 35 40  1  0  0  0  0
 37 36  1  0  0  0  0
 38 33  1  0  0  0  0
M  END
>  <minimizedAffinity>
-9.24091625

$$$$

 OpenBabel03272514533D

 40 45  0  0  0  0  0  0  0  0999 V2000
   34.6140   30.0800   47.2200 C   0  0  0  0  0  3  0  0  0  0  0  0
   35.2960   29.8740   48.4310 C   0  0  0  0  0  0  0  0  0  0  0  0
   34.8840   28.8070   49.2280 C   0  0  0  0  0  3  0  0  0  0  0  0
   33.8720   28.0370   48.8130 N   0  0  0  0  0  0  0  0  0  0  0  0
   33.2200   28.2410   47.6480 C   0  0  0  0  0  0  0  0  0  0  0  0
   33.5940   29.2480   46.8720 N   0  0  0  0  0  0  0  0  0  0  0  0
   32.1520   27.4380   47.1920 N   0  0  0  0  0  0  0  0  0  0  0  0
   30.9400   27.9540   46.8060 C   0  0  0  0  0  3  0  0  0  0  0  0
   29.9730   27.0720   46.3760 C   0  0  0  0  0  0  0  0  0  0  0  0
   30.2550   25.7270   46.3520 C   0  0  0  0  0  0  0  0  0  0  0  0
   29.3730   24.9160   45.9610 O   0  0  0  0  0  0  0  0  0  0  0  0
   31.4160   25.2080   46.7210 N   0  0  0  0  0  0  0  0  0  0  0  0
   32.3490   26.1040   47.1390 C   0  0  0  0  0  0  0  0  0  0  0  0
   33.4660   25.6460   47.4960 O   0  0  0  0  0  0  0  0  0  0  0  0
   31.5990   24.1950   46.6940 H   0  0  0  0  0  0  0  0  0  0  0  0
   36.3400   30.8530   48.6210 C   0  0  0  0  0  0  0  0  0  0  0  0
   36.2620   31.6420   49.7690 C   0  0  0  0  0  3  0  0  0  0  0  0
   37.1850   32.6080   50.0830 C   0  0  0  0  0  3  0  0  0  0  0  0
   38.2460   32.8470   49.2660 C   0  0  0  0  0  3  0  0  0  0  0  0
   38.3470   32.0860   48.1340 C   0  0  0  0  0  0  0  0  0  0  0  0
   39.3970   32.2440   47.2250 C   0  0  0  0  0  3  0  0  0  0  0  0
   39.5190   31.4890   46.0810 C   0  0  0  0  0  3  0  0  0  0  0  0
   38.5680   30.5300   45.8060 C   0  0  0  0  0  3  0  0  0  0  0  0
   37.5250   30.3530   46.6790 C   0  0  0  0  0  3  0  0  0  0  0  0
   37.4290   31.1200   47.8120 C   0  0  0  0  0  0  0  0  0  0  0  0
   28.6620   27.5760   45.9590 C   0  0  0  0  0  2  0  0  0  0  0  0
   27.9090   28.1560   47.0530 N   0  0  0  0  0  0  0  0  0  0  0  0
   27.4820   27.7720   48.2670 C   0  0  0  0  0  3  0  0  0  0  0  0
   26.8040   28.7810   48.8400 N   0  0  0  0  0  0  0  0  0  0  0  0
   26.7680   29.8330   48.0320 C   0  0  0  0  0  0  0  0  0  0  0  0
   26.2210   31.0940   48.1180 C   0  0  0  0  0  0  0  0  0  0  0  0
   25.5900   31.4630   49.1290 O   0  0  0  0  0  0  0  0  0  0  0  0
   26.3360   31.9900   47.1270 N   0  0  0  0  0  0  0  0  0  0  0  0
   27.0120   31.6080   46.0360 C   0  0  0  0  0  0  0  0  0  0  0  0
   27.2870   32.3390   44.8460 N   0  0  0  0  0  0  0  0  0  0  0  0
   27.5460   30.3950   45.9310 N   0  0  0  0  0  0  0  0  0  0  0  0
   27.4650   29.4400   46.9010 C   0  0  0  0  0  0  0  0  0  0  0  0
   25.9220   32.9300   47.2020 H   0  0  0  0  0  0  0  0  0  0  0  0
   26.9480   33.3080   44.7470 H   0  0  0  0  0  0  0  0  0  0  0  0
   27.8250   31.9010   44.0850 H   0  0  0  0  0  0  0  0  0  0  0  0
  1  2  1  0  0  0  0
  2 16  1  0  0  0  0
  2  3  2  0  0  0  0
  4  3  1  0  0  0  0
  5  4  2  0  0  0  0
  6  1  2  0  0  0  0
  6  5  1  0  0  0  0
  7  5  1  0  0  0  0
  8  7  1  0  0  0  0
  9  8  2  0  0  0  0
 10  9  1  0  0  0  0
 10 12  1  0  0  0  0
 11 10  2  0  0  0  0
 12 13  1  0  0  0  0
 13  7  1  0  0  0  0
 13 14  2  0  0  0  0
 15 12  1  0  0  0  0
 16 17  1  0  0  0  0
 17 18  2  0  0  0  0
 19 18  1  0  0  0  0
 20 19  2  0  0  0  0
 21 20  1  0  0  0  0
 22 21  2  0  0  0  0
 23 22  1  0  0  0  0
 23 24  2  0  0  0  0
 24 25  1  0  0  0  0
 25 20  1  0  0  0  0
 25 16  2  0  0  0  0
 26  9  1  0  0  0  0
 26 27  1  0  0  0  0
 27 28  1  0  0  0  0
 28 29  2  0  0  0  0
 30 31  1  0  0  0  0
 30 29  1  0  0  0  0
 31 32  2  0  0  0  0
 33 38  1  0  0  0  0
 33 31  1  0  0  0  0
 34 33  1  0  0  0  0
 35 34  1  0  0  0  0
 36 34  2  0  0  0  0
 36 37  1  0  0  0  0
 37 27  1  0  0  0  0
 37 30  2  0  0  0  0
 39 35  1  0  0  0  0
 40 35  1  0  0  0  0
M  END
>  <minimizedAffinity>
-9.17077923

$$$$
