
 OpenBabel03272514453D

 35 39  0  0  0  0  0  0  0  0999 V2000
   32.1720   25.3900   47.6670 C   0  0  0  0  0  3  0  0  0  0  0  0
   33.1530   26.3920   47.5300 C   0  0  0  0  0  3  0  0  0  0  0  0
   32.8340   27.6570   48.0320 C   0  0  0  0  0  0  0  0  0  0  0  0
   31.6320   27.7760   48.5850 N   0  0  0  0  0  0  0  0  0  0  0  0
   30.6870   26.8400   48.7240 C   0  0  0  0  0  0  0  0  0  0  0  0
   31.0050   25.6330   48.2400 N   0  0  0  0  0  0  0  0  0  0  0  0
   33.7560   28.7470   47.9460 N   0  0  0  0  0  0  0  0  0  0  0  0
   34.8310   28.8110   48.7190 C   0  0  0  0  0  3  0  0  0  0  0  0
   35.4680   29.9710   48.3640 C   0  0  0  0  0  0  0  0  0  0  0  0
   34.7720   30.5770   47.3950 N   0  0  0  0  0  0  0  0  0  0  0  0
   33.6900   29.8090   47.1250 C   0  0  0  0  0  0  0  0  0  0  0  0
   32.6860   30.0890   46.1560 N   0  0  0  0  0  0  0  0  0  0  0  0
   32.5430   31.4210   45.9190 C   0  0  0  0  0  3  0  0  0  0  0  0
   31.5760   31.7920   44.9780 C   0  0  0  0  0  0  0  0  0  0  0  0
   31.2960   33.2220   44.6040 C   0  0  0  0  0  1  0  0  0  0  0  0
   30.8520   30.7990   44.3690 C   0  0  0  0  0  0  0  0  0  0  0  0
   29.9700   31.1430   43.5110 O   0  0  0  0  0  0  0  0  0  0  0  0
   31.0080   29.4860   44.6180 N   0  0  0  0  0  0  0  0  0  0  0  0
   31.9360   29.1880   45.5170 C   0  0  0  0  0  0  0  0  0  0  0  0
   32.1460   27.9620   45.8090 O   0  0  0  0  0  0  0  0  0  0  0  0
   30.4470   28.7640   44.1440 H   0  0  0  0  0  0  0  0  0  0  0  0
   29.4890   27.3290   49.3810 C   0  0  0  0  0  0  0  0  0  0  0  0
   29.1390   26.9010   50.6360 C   0  0  0  0  0  3  0  0  0  0  0  0
   28.0090   27.3370   51.3080 C   0  0  0  0  0  3  0  0  0  0  0  0
   27.1580   28.2520   50.7190 C   0  0  0  0  0  3  0  0  0  0  0  0
   27.4730   28.6970   49.4760 C   0  0  0  0  0  0  0  0  0  0  0  0
   26.6230   29.6100   48.8890 C   0  0  0  0  0  3  0  0  0  0  0  0
   26.8650   30.1100   47.6410 C   0  0  0  0  0  3  0  0  0  0  0  0
   28.0110   29.6540   46.9930 C   0  0  0  0  0  3  0  0  0  0  0  0
   28.8390   28.7400   47.6090 C   0  0  0  0  0  3  0  0  0  0  0  0
   28.6080   28.2370   48.8480 C   0  0  0  0  0  0  0  0  0  0  0  0
   36.7270   30.5430   48.9110 C   0  0  0  0  0  0  0  0  0  0  0  0
   37.5910   29.5740   49.3830 F   0  0  0  0  0  0  0  0  0  0  0  0
   36.4410   31.3730   50.0120 F   0  0  0  0  0  0  0  0  0  0  0  0
   37.3330   31.3740   47.9840 F   0  0  0  0  0  0  0  0  0  0  0  0
  1  6  1  0  0  0  0
  2  1  2  0  0  0  0
  2  3  1  0  0  0  0
  3  4  2  0  0  0  0
  4  5  1  0  0  0  0
  5 22  1  0  0  0  0
  6  5  2  0  0  0  0
  7  3  1  0  0  0  0
  7  8  1  0  0  0  0
  9  8  2  0  0  0  0
  9 32  1  0  0  0  0
 10  9  1  0  0  0  0
 11 10  2  0  0  0  0
 11  7  1  0  0  0  0
 12 11  1  0  0  0  0
 13 12  1  0  0  0  0
 14 13  2  0  0  0  0
 15 14  1  0  0  0  0
 16 18  1  0  0  0  0
 16 14  1  0  0  0  0
 17 16  2  0  0  0  0
 18 19  1  0  0  0  0
 19 20  2  0  0  0  0
 19 12  1  0  0  0  0
 21 18  1  0  0  0  0
 22 23  1  0  0  0  0
 23 24  2  0  0  0  0
 25 24  1  0  0  0  0
 26 25  2  0  0  0  0
 27 26  1  0  0  0  0
 28 27  2  0  0  0  0
 29 30  2  0  0  0  0
 29 28  1  0  0  0  0
 30 31  1  0  0  0  0
 31 22  2  0  0  0  0
 31 26  1  0  0  0  0
 32 33  1  0  0  0  0
 32 34  1  0  0  0  0
 35 32  1  0  0  0  0
M  END
>  <minimizedAffinity>
-8.28158188

$$$$

 OpenBabel03272514453D

 35 39  0  0  0  0  0  0  0  0999 V2000
   31.0760   25.5270   46.1790 C   0  0  0  0  0  3  0  0  0  0  0  0
   32.1660   26.3980   46.3760 C   0  0  0  0  0  3  0  0  0  0  0  0
   31.8960   27.6050   47.0250 C   0  0  0  0  0  0  0  0  0  0  0  0
   30.6330   27.8000   47.3880 N   0  0  0  0  0  0  0  0  0  0  0  0
   29.5860   26.9880   47.2100 C   0  0  0  0  0  0  0  0  0  0  0  0
   29.8570   25.8350   46.5870 N   0  0  0  0  0  0  0  0  0  0  0  0
   32.9280   28.5630   47.2770 N   0  0  0  0  0  0  0  0  0  0  0  0
   33.8450   28.3670   48.2140 C   0  0  0  0  0  3  0  0  0  0  0  0
   34.6550   29.4720   48.1690 C   0  0  0  0  0  0  0  0  0  0  0  0
   34.2150   30.3030   47.2170 N   0  0  0  0  0  0  0  0  0  0  0  0
   33.1250   29.7340   46.6490 C   0  0  0  0  0  0  0  0  0  0  0  0
   32.3490   30.2870   45.5900 N   0  0  0  0  0  0  0  0  0  0  0  0
   32.3930   31.6460   45.5620 C   0  0  0  0  0  3  0  0  0  0  0  0
   31.6590   32.2790   44.5540 C   0  0  0  0  0  0  0  0  0  0  0  0
   31.6040   33.7730   44.3870 C   0  0  0  0  0  1  0  0  0  0  0  0
   30.9560   31.4920   43.6760 C   0  0  0  0  0  0  0  0  0  0  0  0
   30.2870   32.0750   42.7560 O   0  0  0  0  0  0  0  0  0  0  0  0
   30.9250   30.1480   43.7200 N   0  0  0  0  0  0  0  0  0  0  0  0
   31.6370   29.5990   44.6940 C   0  0  0  0  0  0  0  0  0  0  0  0
   31.6600   28.3260   44.8050 O   0  0  0  0  0  0  0  0  0  0  0  0
   30.3870   29.5860   43.0450 H   0  0  0  0  0  0  0  0  0  0  0  0
   28.3460   27.5290   47.7370 C   0  0  0  0  0  0  0  0  0  0  0  0
   27.4250   28.1300   46.9190 C   0  0  0  0  0  3  0  0  0  0  0  0
   26.2280   28.6600   47.3700 C   0  0  0  0  0  3  0  0  0  0  0  0
   25.9020   28.6030   48.7120 C   0  0  0  0  0  3  0  0  0  0  0  0
   26.7910   28.0150   49.5520 C   0  0  0  0  0  0  0  0  0  0  0  0
   26.4660   27.9590   50.8910 C   0  0  0  0  0  3  0  0  0  0  0  0
   27.3030   27.3850   51.8040 C   0  0  0  0  0  3  0  0  0  0  0  0
   28.4990   26.8590   51.3180 C   0  0  0  0  0  3  0  0  0  0  0  0
   28.7920   26.9330   49.9740 C   0  0  0  0  0  3  0  0  0  0  0  0
   27.9680   27.5010   49.0570 C   0  0  0  0  0  0  0  0  0  0  0  0
   35.8470   29.7840   49.0020 C   0  0  0  0  0  0  0  0  0  0  0  0
   35.7050   30.9580   49.7150 F   0  0  0  0  0  0  0  0  0  0  0  0
   36.9750   29.9670   48.1790 F   0  0  0  0  0  0  0  0  0  0  0  0
   36.1690   28.7130   49.8200 F   0  0  0  0  0  0  0  0  0  0  0  0
  1  2  2  0  0  0  0
  1  6  1  0  0  0  0
  2  3  1  0  0  0  0
  3  7  1  0  0  0  0
  3  4  2  0  0  0  0
  5  4  1  0  0  0  0
  5 22  1  0  0  0  0
  6  5  2  0  0  0  0
  7  8  1  0  0  0  0
  9  8  2  0  0  0  0
  9 32  1  0  0  0  0
 10  9  1  0  0  0  0
 11 10  2  0  0  0  0
 11  7  1  0  0  0  0
 12 11  1  0  0  0  0
 13 12  1  0  0  0  0
 14 13  2  0  0  0  0
 15 14  1  0  0  0  0
 16 18  1  0  0  0  0
 16 14  1  0  0  0  0
 17 16  2  0  0  0  0
 18 19  1  0  0  0  0
 19 20  2  0  0  0  0
 19 12  1  0  0  0  0
 21 18  1  0  0  0  0
 22 31  1  0  0  0  0
 23 24  1  0  0  0  0
 23 22  2  0  0  0  0
 24 25  2  0  0  0  0
 25 26  1  0  0  0  0
 26 27  1  0  0  0  0
 27 28  2  0  0  0  0
 29 28  1  0  0  0  0
 30 29  2  0  0  0  0
 31 26  2  0  0  0  0
 31 30  1  0  0  0  0
 32 33  1  0  0  0  0
 32 35  1  0  0  0  0
 34 32  1  0  0  0  0
M  END
>  <minimizedAffinity>
-8.04264641

$$$$

 OpenBabel03272514453D

 35 39  0  0  0  0  0  0  0  0999 V2000
   39.0410   29.8030   44.0260 C   0  0  0  0  0  3  0  0  0  0  0  0
   38.0170   30.3150   43.2040 C   0  0  0  0  0  3  0  0  0  0  0  0
   37.1420   31.2330   43.7900 C   0  0  0  0  0  0  0  0  0  0  0  0
   37.3720   31.5240   45.0650 N   0  0  0  0  0  0  0  0  0  0  0  0
   38.3360   31.0490   45.8610 C   0  0  0  0  0  0  0  0  0  0  0  0
   39.1680   30.1710   45.2890 N   0  0  0  0  0  0  0  0  0  0  0  0
   36.0660   31.8150   43.0470 N   0  0  0  0  0  0  0  0  0  0  0  0
   36.2810   32.7440   42.1250 C   0  0  0  0  0  3  0  0  0  0  0  0
   35.0420   33.0600   41.6320 C   0  0  0  0  0  0  0  0  0  0  0  0
   34.1160   32.3260   42.2580 N   0  0  0  0  0  0  0  0  0  0  0  0
   34.7560   31.5360   43.1530 C   0  0  0  0  0  0  0  0  0  0  0  0
   34.1430   30.5970   44.0300 N   0  0  0  0  0  0  0  0  0  0  0  0
   32.8610   30.9310   44.3420 C   0  0  0  0  0  3  0  0  0  0  0  0
   32.1760   30.0640   45.2000 C   0  0  0  0  0  0  0  0  0  0  0  0
   30.7560   30.2910   45.6410 C   0  0  0  0  0  1  0  0  0  0  0  0
   32.8380   28.9530   45.6590 C   0  0  0  0  0  0  0  0  0  0  0  0
   32.2090   28.1650   46.4430 O   0  0  0  0  0  0  0  0  0  0  0  0
   34.1070   28.6400   45.3390 N   0  0  0  0  0  0  0  0  0  0  0  0
   34.7100   29.4940   44.5240 C   0  0  0  0  0  0  0  0  0  0  0  0
   35.9170   29.2680   44.1710 O   0  0  0  0  0  0  0  0  0  0  0  0
   34.5750   27.7980   45.7020 H   0  0  0  0  0  0  0  0  0  0  0  0
   38.2840   31.5910   47.2070 C   0  0  0  0  0  0  0  0  0  0  0  0
   38.9660   32.7320   47.5440 C   0  0  0  0  0  3  0  0  0  0  0  0
   38.9500   33.2900   48.8100 C   0  0  0  0  0  3  0  0  0  0  0  0
   38.2200   32.6990   49.8240 C   0  0  0  0  0  3  0  0  0  0  0  0
   37.5320   31.5670   49.5260 C   0  0  0  0  0  0  0  0  0  0  0  0
   36.8030   30.9770   50.5380 C   0  0  0  0  0  3  0  0  0  0  0  0
   36.0820   29.8370   50.3260 C   0  0  0  0  0  3  0  0  0  0  0  0
   36.1180   29.3010   49.0400 C   0  0  0  0  0  3  0  0  0  0  0  0
   36.8570   29.9160   48.0530 C   0  0  0  0  0  3  0  0  0  0  0  0
   37.5770   31.0500   48.2520 C   0  0  0  0  0  0  0  0  0  0  0  0
   34.6880   34.0460   40.5750 C   0  0  0  0  0  0  0  0  0  0  0  0
   35.5080   33.9550   39.4670 F   0  0  0  0  0  0  0  0  0  0  0  0
   34.8490   35.3560   41.0660 F   0  0  0  0  0  0  0  0  0  0  0  0
   33.3480   33.9500   40.2410 F   0  0  0  0  0  0  0  0  0  0  0  0
  1  6  1  0  0  0  0
  2  3  1  0  0  0  0
  2  1  2  0  0  0  0
  3  4  2  0  0  0  0
  4  5  1  0  0  0  0
  5 22  1  0  0  0  0
  6  5  2  0  0  0  0
  7 11  1  0  0  0  0
  7  3  1  0  0  0  0
  8  7  1  0  0  0  0
  9  8  2  0  0  0  0
  9 10  1  0  0  0  0
 10 11  2  0  0  0  0
 11 12  1  0  0  0  0
 12 13  1  0  0  0  0
 12 19  1  0  0  0  0
 13 14  2  0  0  0  0
 14 15  1  0  0  0  0
 14 16  1  0  0  0  0
 16 17  2  0  0  0  0
 18 16  1  0  0  0  0
 18 21  1  0  0  0  0
 19 18  1  0  0  0  0
 20 19  2  0  0  0  0
 22 23  2  0  0  0  0
 22 31  1  0  0  0  0
 23 24  1  0  0  0  0
 24 25  2  0  0  0  0
 26 25  1  0  0  0  0
 26 27  1  0  0  0  0
 28 27  2  0  0  0  0
 29 28  1  0  0  0  0
 30 31  1  0  0  0  0
 30 29  2  0  0  0  0
 31 26  2  0  0  0  0
 32 34  1  0  0  0  0
 32  9  1  0  0  0  0
 33 32  1  0  0  0  0
 35 32  1  0  0  0  0
M  END
>  <minimizedAffinity>
-7.99327183

$$$$

 OpenBabel03272514453D

 35 39  0  0  0  0  0  0  0  0999 V2000
   33.2050   26.9590   45.2260 C   0  0  0  0  0  3  0  0  0  0  0  0
   31.9620   27.5920   45.0230 C   0  0  0  0  0  3  0  0  0  0  0  0
   31.6670   28.6770   45.8520 C   0  0  0  0  0  0  0  0  0  0  0  0
   32.5970   28.9950   46.7460 N   0  0  0  0  0  0  0  0  0  0  0  0
   33.7800   28.4080   46.9550 C   0  0  0  0  0  0  0  0  0  0  0  0
   34.0510   27.3690   46.1550 N   0  0  0  0  0  0  0  0  0  0  0  0
   30.4350   29.3930   45.7320 N   0  0  0  0  0  0  0  0  0  0  0  0
   30.2050   30.2180   44.7210 C   0  0  0  0  0  3  0  0  0  0  0  0
   28.9450   30.7140   44.9330 C   0  0  0  0  0  0  0  0  0  0  0  0
   28.4460   30.1850   46.0560 N   0  0  0  0  0  0  0  0  0  0  0  0
   29.3810   29.3490   46.5660 C   0  0  0  0  0  0  0  0  0  0  0  0
   29.2560   28.5790   47.7570 N   0  0  0  0  0  0  0  0  0  0  0  0
   28.4090   29.1440   48.6600 C   0  0  0  0  0  3  0  0  0  0  0  0
   28.2230   28.4580   49.8640 C   0  0  0  0  0  0  0  0  0  0  0  0
   27.3210   28.9480   50.9630 C   0  0  0  0  0  1  0  0  0  0  0  0
   28.8980   27.2770   50.0450 C   0  0  0  0  0  0  0  0  0  0  0  0
   28.7250   26.6530   51.1470 O   0  0  0  0  0  0  0  0  0  0  0  0
   29.7320   26.7340   49.1400 N   0  0  0  0  0  0  0  0  0  0  0  0
   29.8740   27.4250   48.0170 C   0  0  0  0  0  0  0  0  0  0  0  0
   30.6490   26.9760   47.1050 O   0  0  0  0  0  0  0  0  0  0  0  0
   30.2250   25.8450   49.3070 H   0  0  0  0  0  0  0  0  0  0  0  0
   34.5440   29.0250   48.0240 C   0  0  0  0  0  0  0  0  0  0  0  0
   34.2270   28.8140   49.3410 C   0  0  0  0  0  3  0  0  0  0  0  0
   34.9240   29.3760   50.3970 C   0  0  0  0  0  3  0  0  0  0  0  0
   36.0050   30.2030   50.1580 C   0  0  0  0  0  3  0  0  0  0  0  0
   36.3480   30.4340   48.8650 C   0  0  0  0  0  0  0  0  0  0  0  0
   37.4270   31.2590   48.6270 C   0  0  0  0  0  3  0  0  0  0  0  0
   37.8390   31.5440   47.3560 C   0  0  0  0  0  3  0  0  0  0  0  0
   37.1190   30.9610   46.3160 C   0  0  0  0  0  3  0  0  0  0  0  0
   36.0450   30.1420   46.5900 C   0  0  0  0  0  3  0  0  0  0  0  0
   35.6260   29.8510   47.8480 C   0  0  0  0  0  0  0  0  0  0  0  0
   28.1780   31.6850   44.1070 C   0  0  0  0  0  0  0  0  0  0  0  0
   28.9690   32.7070   43.6170 F   0  0  0  0  0  0  0  0  0  0  0  0
   27.1870   32.3080   44.8920 F   0  0  0  0  0  0  0  0  0  0  0  0
   27.4830   31.0350   43.1020 F   0  0  0  0  0  0  0  0  0  0  0  0
  1  6  1  0  0  0  0
  2  1  2  0  0  0  0
  2  3  1  0  0  0  0
  3  4  2  0  0  0  0
  4  5  1  0  0  0  0
  5 22  1  0  0  0  0
  6  5  2  0  0  0  0
  7  3  1  0  0  0  0
  7 11  1  0  0  0  0
  8  9  2  0  0  0  0
  8  7  1  0  0  0  0
  9 10  1  0  0  0  0
 10 11  2  0  0  0  0
 11 12  1  0  0  0  0
 12 19  1  0  0  0  0
 12 13  1  0  0  0  0
 13 14  2  0  0  0  0
 14 16  1  0  0  0  0
 14 15  1  0  0  0  0
 16 17  2  0  0  0  0
 18 21  1  0  0  0  0
 18 16  1  0  0  0  0
 19 18  1  0  0  0  0
 20 19  2  0  0  0  0
 22 23  1  0  0  0  0
 23 24  2  0  0  0  0
 25 24  1  0  0  0  0
 26 25  2  0  0  0  0
 27 26  1  0  0  0  0
 28 27  2  0  0  0  0
 29 30  2  0  0  0  0
 29 28  1  0  0  0  0
 30 31  1  0  0  0  0
 31 22  2  0  0  0  0
 31 26  1  0  0  0  0
 32 34  1  0  0  0  0
 32  9  1  0  0  0  0
 33 32  1  0  0  0  0
 35 32  1  0  0  0  0
M  END
>  <minimizedAffinity>
-7.97492361

$$$$

 OpenBabel03272514453D

 35 39  0  0  0  0  0  0  0  0999 V2000
   37.3500   29.6810   43.5010 C   0  0  0  0  0  3  0  0  0  0  0  0
   36.0010   29.9310   43.1820 C   0  0  0  0  0  3  0  0  0  0  0  0
   35.2300   30.5600   44.1620 C   0  0  0  0  0  0  0  0  0  0  0  0
   35.8580   30.8550   45.2950 N   0  0  0  0  0  0  0  0  0  0  0  0
   37.1350   30.6250   45.6170 C   0  0  0  0  0  0  0  0  0  0  0  0
   37.8640   30.0220   44.6700 N   0  0  0  0  0  0  0  0  0  0  0  0
   33.8490   30.8630   43.9440 N   0  0  0  0  0  0  0  0  0  0  0  0
   33.4710   31.8480   43.1420 C   0  0  0  0  0  3  0  0  0  0  0  0
   32.1010   31.8410   43.1770 C   0  0  0  0  0  0  0  0  0  0  0  0
   31.6840   30.8640   43.9900 N   0  0  0  0  0  0  0  0  0  0  0  0
   32.7830   30.2410   44.4780 C   0  0  0  0  0  0  0  0  0  0  0  0
   32.7900   29.1410   45.3820 N   0  0  0  0  0  0  0  0  0  0  0  0
   31.6870   29.1100   46.1780 C   0  0  0  0  0  3  0  0  0  0  0  0
   31.6060   28.0620   47.1000 C   0  0  0  0  0  0  0  0  0  0  0  0
   30.4530   27.8860   48.0500 C   0  0  0  0  0  1  0  0  0  0  0  0
   32.6320   27.1510   47.1350 C   0  0  0  0  0  0  0  0  0  0  0  0
   32.5530   26.1950   47.9790 O   0  0  0  0  0  0  0  0  0  0  0  0
   33.7150   27.1990   46.3390 N   0  0  0  0  0  0  0  0  0  0  0  0
   33.7430   28.2120   45.4830 C   0  0  0  0  0  0  0  0  0  0  0  0
   34.7390   28.3280   44.6910 O   0  0  0  0  0  0  0  0  0  0  0  0
   34.4690   26.4990   46.3900 H   0  0  0  0  0  0  0  0  0  0  0  0
   37.4800   31.0840   46.9510 C   0  0  0  0  0  0  0  0  0  0  0  0
   38.3710   32.1080   47.1450 C   0  0  0  0  0  3  0  0  0  0  0  0
   38.7330   32.5850   48.3930 C   0  0  0  0  0  3  0  0  0  0  0  0
   38.1920   32.0260   49.5360 C   0  0  0  0  0  3  0  0  0  0  0  0
   37.3070   31.0090   49.3820 C   0  0  0  0  0  0  0  0  0  0  0  0
   36.7690   30.4510   50.5220 C   0  0  0  0  0  3  0  0  0  0  0  0
   35.8700   29.4250   50.4580 C   0  0  0  0  0  3  0  0  0  0  0  0
   35.5250   28.9700   49.1870 C   0  0  0  0  0  3  0  0  0  0  0  0
   36.0830   29.5490   48.0690 C   0  0  0  0  0  3  0  0  0  0  0  0
   36.9770   30.5700   48.1200 C   0  0  0  0  0  0  0  0  0  0  0  0
   31.1500   32.7350   42.4630 C   0  0  0  0  0  0  0  0  0  0  0  0
   31.7900   33.6560   41.6560 F   0  0  0  0  0  0  0  0  0  0  0  0
   30.4070   33.4890   43.3930 F   0  0  0  0  0  0  0  0  0  0  0  0
   30.2090   31.9970   41.7660 F   0  0  0  0  0  0  0  0  0  0  0  0
  1  6  1  0  0  0  0
  2  1  2  0  0  0  0
  2  3  1  0  0  0  0
  3  4  2  0  0  0  0
  4  5  1  0  0  0  0
  5 22  1  0  0  0  0
  6  5  2  0  0  0  0
  7  3  1  0  0  0  0
  7 11  1  0  0  0  0
  8  9  2  0  0  0  0
  8  7  1  0  0  0  0
  9 10  1  0  0  0  0
 10 11  2  0  0  0  0
 11 12  1  0  0  0  0
 12 19  1  0  0  0  0
 12 13  1  0  0  0  0
 13 14  2  0  0  0  0
 14 16  1  0  0  0  0
 14 15  1  0  0  0  0
 16 17  2  0  0  0  0
 18 21  1  0  0  0  0
 18 16  1  0  0  0  0
 19 18  1  0  0  0  0
 20 19  2  0  0  0  0
 22 23  2  0  0  0  0
 22 31  1  0  0  0  0
 23 24  1  0  0  0  0
 24 25  2  0  0  0  0
 26 25  1  0  0  0  0
 26 27  1  0  0  0  0
 28 27  2  0  0  0  0
 29 28  1  0  0  0  0
 30 31  1  0  0  0  0
 30 29  2  0  0  0  0
 31 26  2  0  0  0  0
 32  9  1  0  0  0  0
 32 34  1  0  0  0  0
 33 32  1  0  0  0  0
 35 32  1  0  0  0  0
M  END
>  <minimizedAffinity>
-7.3550086

$$$$

 OpenBabel03272514453D

 35 39  0  0  0  0  0  0  0  0999 V2000
   31.1610   25.7900   47.3590 C   0  0  0  0  0  3  0  0  0  0  0  0
   32.3860   26.3480   47.7760 C   0  0  0  0  0  3  0  0  0  0  0  0
   32.4940   27.7390   47.7170 C   0  0  0  0  0  0  0  0  0  0  0  0
   31.4240   28.3880   47.2710 N   0  0  0  0  0  0  0  0  0  0  0  0
   30.2550   27.8770   46.8700 C   0  0  0  0  0  0  0  0  0  0  0  0
   30.1630   26.5430   46.9310 N   0  0  0  0  0  0  0  0  0  0  0  0
   33.6920   28.4110   48.1160 N   0  0  0  0  0  0  0  0  0  0  0  0
   34.0320   28.5290   49.3920 C   0  0  0  0  0  3  0  0  0  0  0  0
   35.2170   29.2170   49.3930 C   0  0  0  0  0  0  0  0  0  0  0  0
   35.5650   29.4980   48.1320 N   0  0  0  0  0  0  0  0  0  0  0  0
   34.6070   28.9910   47.3200 C   0  0  0  0  0  0  0  0  0  0  0  0
   34.5880   29.0680   45.8980 N   0  0  0  0  0  0  0  0  0  0  0  0
   35.2560   30.1540   45.4230 C   0  0  0  0  0  3  0  0  0  0  0  0
   35.2910   30.3130   44.0340 C   0  0  0  0  0  0  0  0  0  0  0  0
   35.9880   31.4580   43.3520 C   0  0  0  0  0  1  0  0  0  0  0  0
   34.6570   29.3740   43.2600 C   0  0  0  0  0  0  0  0  0  0  0  0
   34.6920   29.5230   41.9910 O   0  0  0  0  0  0  0  0  0  0  0  0
   34.0010   28.3060   43.7490 N   0  0  0  0  0  0  0  0  0  0  0  0
   33.9970   28.2020   45.0710 C   0  0  0  0  0  0  0  0  0  0  0  0
   33.3950   27.2150   45.6150 O   0  0  0  0  0  0  0  0  0  0  0  0
   33.5340   27.6190   43.1400 H   0  0  0  0  0  0  0  0  0  0  0  0
   29.3050   28.8890   46.4430 C   0  0  0  0  0  0  0  0  0  0  0  0
   29.3030   29.3680   45.1590 C   0  0  0  0  0  3  0  0  0  0  0  0
   28.4180   30.3300   44.7000 C   0  0  0  0  0  3  0  0  0  0  0  0
   27.4690   30.8660   45.5500 C   0  0  0  0  0  3  0  0  0  0  0  0
   27.4420   30.4150   46.8300 C   0  0  0  0  0  0  0  0  0  0  0  0
   26.4960   30.9500   47.6770 C   0  0  0  0  0  3  0  0  0  0  0  0
   26.3980   30.5520   48.9800 C   0  0  0  0  0  3  0  0  0  0  0  0
   27.3010   29.5810   49.4100 C   0  0  0  0  0  3  0  0  0  0  0  0
   28.2350   29.0690   48.5360 C   0  0  0  0  0  3  0  0  0  0  0  0
   28.3410   29.4560   47.2390 C   0  0  0  0  0  0  0  0  0  0  0  0
   36.0500   29.6290   50.5540 C   0  0  0  0  0  0  0  0  0  0  0  0
   36.3290   30.9820   50.5550 F   0  0  0  0  0  0  0  0  0  0  0  0
   37.2980   28.9780   50.5060 F   0  0  0  0  0  0  0  0  0  0  0  0
   35.4750   29.2150   51.7440 F   0  0  0  0  0  0  0  0  0  0  0  0
  1  2  1  0  0  0  0
  3  2  2  0  0  0  0
  3  7  1  0  0  0  0
  4  3  1  0  0  0  0
  5  6  1  0  0  0  0
  5  4  2  0  0  0  0
  6  1  2  0  0  0  0
  7  8  1  0  0  0  0
  8  9  2  0  0  0  0
  9 32  1  0  0  0  0
 10  9  1  0  0  0  0
 11  7  1  0  0  0  0
 11 10  2  0  0  0  0
 12 11  1  0  0  0  0
 13 12  1  0  0  0  0
 14 13  2  0  0  0  0
 15 14  1  0  0  0  0
 16 18  1  0  0  0  0
 16 14  1  0  0  0  0
 17 16  2  0  0  0  0
 18 19  1  0  0  0  0
 19 20  2  0  0  0  0
 19 12  1  0  0  0  0
 21 18  1  0  0  0  0
 22  5  1  0  0  0  0
 22 31  1  0  0  0  0
 23 22  2  0  0  0  0
 24 23  1  0  0  0  0
 24 25  2  0  0  0  0
 25 26  1  0  0  0  0
 26 31  2  0  0  0  0
 26 27  1  0  0  0  0
 27 28  2  0  0  0  0
 28 29  1  0  0  0  0
 30 29  2  0  0  0  0
 31 30  1  0  0  0  0
 32 33  1  0  0  0  0
 32 35  1  0  0  0  0
 34 32  1  0  0  0  0
M  END
>  <minimizedAffinity>
-7.27943325

$$$$

 OpenBabel03272514453D

 35 39  0  0  0  0  0  0  0  0999 V2000
   28.7580   25.8960   46.4260 C   0  0  0  0  0  3  0  0  0  0  0  0
   30.0660   26.4050   46.5530 C   0  0  0  0  0  3  0  0  0  0  0  0
   30.1960   27.6530   47.1680 C   0  0  0  0  0  0  0  0  0  0  0  0
   29.0660   28.2260   47.5680 N   0  0  0  0  0  0  0  0  0  0  0  0
   27.8180   27.7600   47.4550 C   0  0  0  0  0  0  0  0  0  0  0  0
   27.7050   26.5640   46.8640 N   0  0  0  0  0  0  0  0  0  0  0  0
   31.4770   28.2630   47.3500 N   0  0  0  0  0  0  0  0  0  0  0  0
   32.3340   27.8250   48.2620 C   0  0  0  0  0  3  0  0  0  0  0  0
   33.4330   28.6350   48.1490 C   0  0  0  0  0  0  0  0  0  0  0  0
   33.2200   29.5370   47.1840 N   0  0  0  0  0  0  0  0  0  0  0  0
   31.9870   29.3070   46.6740 C   0  0  0  0  0  0  0  0  0  0  0  0
   31.3650   30.0410   45.6240 N   0  0  0  0  0  0  0  0  0  0  0  0
   31.8110   31.3240   45.5460 C   0  0  0  0  0  3  0  0  0  0  0  0
   31.2560   32.1240   44.5420 C   0  0  0  0  0  0  0  0  0  0  0  0
   31.6410   33.5610   44.3240 C   0  0  0  0  0  1  0  0  0  0  0  0
   30.3130   31.5630   43.7170 C   0  0  0  0  0  0  0  0  0  0  0  0
   29.8080   32.2970   42.8020 O   0  0  0  0  0  0  0  0  0  0  0  0
   29.8850   30.2910   43.8100 N   0  0  0  0  0  0  0  0  0  0  0  0
   30.4420   29.5770   44.7790 C   0  0  0  0  0  0  0  0  0  0  0  0
   30.0900   28.3590   44.9330 O   0  0  0  0  0  0  0  0  0  0  0  0
   29.1740   29.9010   43.1750 H   0  0  0  0  0  0  0  0  0  0  0  0
   26.8200   28.6600   48.0050 C   0  0  0  0  0  0  0  0  0  0  0  0
   25.9990   28.2730   49.0330 C   0  0  0  0  0  3  0  0  0  0  0  0
   25.0340   29.0910   49.5940 C   0  0  0  0  0  3  0  0  0  0  0  0
   24.8520   30.3780   49.1240 C   0  0  0  0  0  3  0  0  0  0  0  0
   25.6470   30.7950   48.1070 C   0  0  0  0  0  0  0  0  0  0  0  0
   25.4640   32.0790   47.6370 C   0  0  0  0  0  3  0  0  0  0  0  0
   26.2210   32.5800   46.6170 C   0  0  0  0  0  3  0  0  0  0  0  0
   27.1850   31.7320   46.0750 C   0  0  0  0  0  3  0  0  0  0  0  0
   27.3400   30.4540   46.5680 C   0  0  0  0  0  3  0  0  0  0  0  0
   26.5940   29.9460   47.5810 C   0  0  0  0  0  0  0  0  0  0  0  0
   34.6990   28.5950   48.9290 C   0  0  0  0  0  0  0  0  0  0  0  0
   34.6680   29.4190   50.0370 F   0  0  0  0  0  0  0  0  0  0  0  0
   35.7680   29.0560   48.1360 F   0  0  0  0  0  0  0  0  0  0  0  0
   35.0340   27.2920   49.2580 F   0  0  0  0  0  0  0  0  0  0  0  0
  1  2  2  0  0  0  0
  1  6  1  0  0  0  0
  2  3  1  0  0  0  0
  3  7  1  0  0  0  0
  3  4  2  0  0  0  0
  5  4  1  0  0  0  0
  5 22  1  0  0  0  0
  6  5  2  0  0  0  0
  7  8  1  0  0  0  0
  9  8  2  0  0  0  0
  9 32  1  0  0  0  0
 10  9  1  0  0  0  0
 11 10  2  0  0  0  0
 11  7  1  0  0  0  0
 12 11  1  0  0  0  0
 13 12  1  0  0  0  0
 14 13  2  0  0  0  0
 15 14  1  0  0  0  0
 16 18  1  0  0  0  0
 16 14  1  0  0  0  0
 17 16  2  0  0  0  0
 18 19  1  0  0  0  0
 19 20  2  0  0  0  0
 19 12  1  0  0  0  0
 21 18  1  0  0  0  0
 22 23  1  0  0  0  0
 23 24  2  0  0  0  0
 25 24  1  0  0  0  0
 26 25  2  0  0  0  0
 27 26  1  0  0  0  0
 28 27  2  0  0  0  0
 29 30  2  0  0  0  0
 29 28  1  0  0  0  0
 30 31  1  0  0  0  0
 31 22  2  0  0  0  0
 31 26  1  0  0  0  0
 32 35  1  0  0  0  0
 32 33  1  0  0  0  0
 34 32  1  0  0  0  0
M  END
>  <minimizedAffinity>
-7.22937012

$$$$

 OpenBabel03272514453D

 35 39  0  0  0  0  0  0  0  0999 V2000
   35.8040   30.2240   44.1140 C   0  0  0  0  0  3  0  0  0  0  0  0
   34.4720   30.3850   43.6840 C   0  0  0  0  0  3  0  0  0  0  0  0
   33.4810   30.3070   44.6650 C   0  0  0  0  0  0  0  0  0  0  0  0
   33.9060   30.0880   45.9050 N   0  0  0  0  0  0  0  0  0  0  0  0
   35.1630   29.9310   46.3330 C   0  0  0  0  0  0  0  0  0  0  0  0
   36.1040   30.0080   45.3830 N   0  0  0  0  0  0  0  0  0  0  0  0
   32.0960   30.4570   44.3400 N   0  0  0  0  0  0  0  0  0  0  0  0
   31.5760   31.6390   44.0370 C   0  0  0  0  0  3  0  0  0  0  0  0
   30.2510   31.4000   43.7850 C   0  0  0  0  0  0  0  0  0  0  0  0
   29.9990   30.0960   43.9410 N   0  0  0  0  0  0  0  0  0  0  0  0
   31.1610   29.4930   44.2900 C   0  0  0  0  0  0  0  0  0  0  0  0
   31.3380   28.1050   44.5510 N   0  0  0  0  0  0  0  0  0  0  0  0
   30.2010   27.5060   44.9970 C   0  0  0  0  0  3  0  0  0  0  0  0
   30.2790   26.1380   45.2800 C   0  0  0  0  0  0  0  0  0  0  0  0
   29.1130   25.3310   45.7800 C   0  0  0  0  0  1  0  0  0  0  0  0
   31.4830   25.5070   45.0900 C   0  0  0  0  0  0  0  0  0  0  0  0
   31.5500   24.2580   45.3510 O   0  0  0  0  0  0  0  0  0  0  0  0
   32.5970   26.1180   44.6490 N   0  0  0  0  0  0  0  0  0  0  0  0
   32.4690   27.4130   44.3950 C   0  0  0  0  0  0  0  0  0  0  0  0
   33.4820   28.0660   43.9720 O   0  0  0  0  0  0  0  0  0  0  0  0
   33.4860   25.6150   44.5170 H   0  0  0  0  0  0  0  0  0  0  0  0
   35.2560   29.7060   47.7640 C   0  0  0  0  0  0  0  0  0  0  0  0
   34.3260   28.9490   48.4290 C   0  0  0  0  0  3  0  0  0  0  0  0
   34.3700   28.7030   49.7910 C   0  0  0  0  0  3  0  0  0  0  0  0
   35.3890   29.2290   50.5630 C   0  0  0  0  0  3  0  0  0  0  0  0
   36.3270   29.9830   49.9370 C   0  0  0  0  0  0  0  0  0  0  0  0
   37.3440   30.5090   50.7070 C   0  0  0  0  0  3  0  0  0  0  0  0
   38.3290   31.2780   50.1590 C   0  0  0  0  0  3  0  0  0  0  0  0
   38.2580   31.5060   48.7860 C   0  0  0  0  0  3  0  0  0  0  0  0
   37.2280   30.9660   48.0460 C   0  0  0  0  0  3  0  0  0  0  0  0
   36.2430   30.2000   48.5800 C   0  0  0  0  0  0  0  0  0  0  0  0
   29.1910   32.3700   43.3990 C   0  0  0  0  0  0  0  0  0  0  0  0
   28.7260   32.1660   42.1150 F   0  0  0  0  0  0  0  0  0  0  0  0
   29.7070   33.6800   43.4180 F   0  0  0  0  0  0  0  0  0  0  0  0
   28.1660   32.3750   44.3300 F   0  0  0  0  0  0  0  0  0  0  0  0
  1  6  1  0  0  0  0
  2  1  2  0  0  0  0
  2  3  1  0  0  0  0
  3  4  2  0  0  0  0
  4  5  1  0  0  0  0
  5 22  1  0  0  0  0
  6  5  2  0  0  0  0
  7  3  1  0  0  0  0
  8  7  1  0  0  0  0
  9 10  1  0  0  0  0
  9  8  2  0  0  0  0
 10 11  2  0  0  0  0
 11  7  1  0  0  0  0
 11 12  1  0  0  0  0
 12 13  1  0  0  0  0
 13 14  2  0  0  0  0
 14 15  1  0  0  0  0
 16 14  1  0  0  0  0
 16 17  2  0  0  0  0
 18 16  1  0  0  0  0
 19 12  1  0  0  0  0
 19 18  1  0  0  0  0
 20 19  2  0  0  0  0
 21 18  1  0  0  0  0
 22 23  2  0  0  0  0
 22 31  1  0  0  0  0
 23 24  1  0  0  0  0
 24 25  2  0  0  0  0
 26 25  1  0  0  0  0
 26 27  1  0  0  0  0
 28 27  2  0  0  0  0
 29 28  1  0  0  0  0
 30 31  1  0  0  0  0
 30 29  2  0  0  0  0
 31 26  2  0  0  0  0
 32 34  1  0  0  0  0
 32  9  1  0  0  0  0
 32 35  1  0  0  0  0
 33 32  1  0  0  0  0
M  END
>  <minimizedAffinity>
-7.19314671

$$$$

 OpenBabel03272514453D

 35 39  0  0  0  0  0  0  0  0999 V2000
   31.1690   27.9620   46.1860 C   0  0  0  0  0  3  0  0  0  0  0  0
   31.2340   29.0400   45.2810 C   0  0  0  0  0  3  0  0  0  0  0  0
   30.1980   29.9750   45.3420 C   0  0  0  0  0  0  0  0  0  0  0  0
   29.2580   29.7430   46.2510 N   0  0  0  0  0  0  0  0  0  0  0  0
   29.1770   28.7270   47.1170 C   0  0  0  0  0  0  0  0  0  0  0  0
   30.1760   27.8380   47.0500 N   0  0  0  0  0  0  0  0  0  0  0  0
   30.1650   31.1090   44.4700 N   0  0  0  0  0  0  0  0  0  0  0  0
   30.9830   32.1390   44.6370 C   0  0  0  0  0  3  0  0  0  0  0  0
   30.6710   33.0190   43.6340 C   0  0  0  0  0  0  0  0  0  0  0  0
   29.6820   32.5090   42.8910 N   0  0  0  0  0  0  0  0  0  0  0  0
   29.3580   31.3020   43.4130 C   0  0  0  0  0  0  0  0  0  0  0  0
   28.3520   30.4210   42.9230 N   0  0  0  0  0  0  0  0  0  0  0  0
   27.3510   31.0760   42.2750 C   0  0  0  0  0  3  0  0  0  0  0  0
   26.3160   30.2900   41.7580 C   0  0  0  0  0  0  0  0  0  0  0  0
   25.1380   30.8610   41.0170 C   0  0  0  0  0  1  0  0  0  0  0  0
   26.3840   28.9320   41.9390 C   0  0  0  0  0  0  0  0  0  0  0  0
   25.4370   28.2180   41.4650 O   0  0  0  0  0  0  0  0  0  0  0  0
   27.3840   28.3020   42.5830 N   0  0  0  0  0  0  0  0  0  0  0  0
   28.3390   29.0920   43.0530 C   0  0  0  0  0  0  0  0  0  0  0  0
   29.3240   28.5710   43.6770 O   0  0  0  0  0  0  0  0  0  0  0  0
   27.4050   27.2790   42.7010 H   0  0  0  0  0  0  0  0  0  0  0  0
   28.0040   28.7940   47.9700 C   0  0  0  0  0  0  0  0  0  0  0  0
   26.8660   29.4440   47.5670 C   0  0  0  0  0  3  0  0  0  0  0  0
   25.7200   29.5350   48.3400 C   0  0  0  0  0  3  0  0  0  0  0  0
   25.6770   28.9560   49.5940 C   0  0  0  0  0  3  0  0  0  0  0  0
   26.7870   28.3040   50.0250 C   0  0  0  0  0  0  0  0  0  0  0  0
   26.7440   27.7270   51.2770 C   0  0  0  0  0  3  0  0  0  0  0  0
   27.8150   27.0520   51.7880 C   0  0  0  0  0  3  0  0  0  0  0  0
   28.9520   26.9760   50.9850 C   0  0  0  0  0  3  0  0  0  0  0  0
   28.9610   27.5650   49.7400 C   0  0  0  0  0  3  0  0  0  0  0  0
   27.9020   28.2380   49.2210 C   0  0  0  0  0  0  0  0  0  0  0  0
   31.2760   34.3460   43.3420 C   0  0  0  0  0  0  0  0  0  0  0  0
   30.5010   35.1070   42.4890 F   0  0  0  0  0  0  0  0  0  0  0  0
   32.5140   34.1780   42.6920 F   0  0  0  0  0  0  0  0  0  0  0  0
   31.5750   35.0190   44.5150 F   0  0  0  0  0  0  0  0  0  0  0  0
  1  6  1  0  0  0  0
  2  3  1  0  0  0  0
  2  1  2  0  0  0  0
  3  4  2  0  0  0  0
  4  5  1  0  0  0  0
  5 22  1  0  0  0  0
  6  5  2  0  0  0  0
  7  8  1  0  0  0  0
  7  3  1  0  0  0  0
  9  8  2  0  0  0  0
 10 11  2  0  0  0  0
 10  9  1  0  0  0  0
 11  7  1  0  0  0  0
 12 19  1  0  0  0  0
 12 11  1  0  0  0  0
 13 12  1  0  0  0  0
 14 16  1  0  0  0  0
 14 13  2  0  0  0  0
 15 14  1  0  0  0  0
 16 18  1  0  0  0  0
 17 16  2  0  0  0  0
 18 21  1  0  0  0  0
 18 19  1  0  0  0  0
 19 20  2  0  0  0  0
 22 31  1  0  0  0  0
 23 22  2  0  0  0  0
 23 24  1  0  0  0  0
 24 25  2  0  0  0  0
 25 26  1  0  0  0  0
 26 27  1  0  0  0  0
 27 28  2  0  0  0  0
 29 28  1  0  0  0  0
 30 29  2  0  0  0  0
 31 30  1  0  0  0  0
 31 26  2  0  0  0  0
 32  9  1  0  0  0  0
 32 35  1  0  0  0  0
 33 32  1  0  0  0  0
 34 32  1  0  0  0  0
M  END
>  <minimizedAffinity>
-7.15180779

$$$$
