
 OpenBabel03272514443D

 31 35  0  0  0  0  0  0  0  0999 V2000
   32.2430   25.5100   47.5760 C   0  0  0  0  0  3  0  0  0  0  0  0
   33.2950   26.4380   47.6740 C   0  0  0  0  0  3  0  0  0  0  0  0
   33.0080   27.6450   48.3220 C   0  0  0  0  0  0  0  0  0  0  0  0
   31.7630   27.7860   48.7780 N   0  0  0  0  0  0  0  0  0  0  0  0
   30.7560   26.8880   48.6810 C   0  0  0  0  0  0  0  0  0  0  0  0
   31.0460   25.7490   48.0640 N   0  0  0  0  0  0  0  0  0  0  0  0
   33.9920   28.6570   48.4730 N   0  0  0  0  0  0  0  0  0  0  0  0
   34.8340   28.6720   49.4960 C   0  0  0  0  0  3  0  0  0  0  0  0
   35.6320   29.7680   49.3130 C   0  0  0  0  0  0  0  0  0  0  0  0
   35.2610   30.3990   48.1840 N   0  0  0  0  0  0  0  0  0  0  0  0
   34.2300   29.6930   47.6660 C   0  0  0  0  0  0  0  0  0  0  0  0
   33.6630   30.1780   46.4760 N   0  0  0  0  0  0  0  0  0  0  0  0
   32.6600   31.1940   46.2090 C   0  0  0  0  0  2  0  0  0  0  0  0
   31.7630   30.8730   45.0460 C   0  0  0  0  0  2  0  0  0  0  0  0
   31.6480   29.4340   44.7140 C   0  0  0  0  0  2  0  0  0  0  0  0
   32.9200   28.6560   44.8390 C   0  0  0  0  0  2  0  0  0  0  0  0
   34.0880   29.5680   45.2070 C   0  0  0  0  0  2  0  0  0  0  0  0
   29.5330   27.3710   49.2940 C   0  0  0  0  0  0  0  0  0  0  0  0
   29.1400   26.9520   50.5430 C   0  0  0  0  0  3  0  0  0  0  0  0
   27.9900   27.3780   51.1880 C   0  0  0  0  0  3  0  0  0  0  0  0
   27.1530   28.2890   50.5620 C   0  0  0  0  0  3  0  0  0  0  0  0
   27.5090   28.7300   49.3170 C   0  0  0  0  0  0  0  0  0  0  0  0
   26.6670   29.6360   48.7150 C   0  0  0  0  0  3  0  0  0  0  0  0
   26.9490   30.1380   47.4680 C   0  0  0  0  0  3  0  0  0  0  0  0
   28.1190   29.6820   46.8490 C   0  0  0  0  0  3  0  0  0  0  0  0
   28.9290   28.7680   47.5000 C   0  0  0  0  0  3  0  0  0  0  0  0
   28.6640   28.2710   48.7260 C   0  0  0  0  0  0  0  0  0  0  0  0
   36.7490   30.2660   50.1750 C   0  0  0  0  0  0  0  0  0  0  0  0
   37.9890   29.8370   49.7380 F   0  0  0  0  0  0  0  0  0  0  0  0
   36.5960   29.7580   51.4830 F   0  0  0  0  0  0  0  0  0  0  0  0
   36.6650   31.6390   50.3200 F   0  0  0  0  0  0  0  0  0  0  0  0
  1  2  2  0  0  0  0
  1  6  1  0  0  0  0
  2  3  1  0  0  0  0
  3  7  1  0  0  0  0
  3  4  2  0  0  0  0
  5  4  1  0  0  0  0
  5 18  1  0  0  0  0
  6  5  2  0  0  0  0
  7  8  1  0  0  0  0
  9  8  2  0  0  0  0
  9 28  1  0  0  0  0
 10  9  1  0  0  0  0
 11 10  2  0  0  0  0
 11  7  1  0  0  0  0
 12 11  1  0  0  0  0
 13 12  1  0  0  0  0
 14 13  1  0  0  0  0
 15 16  1  0  0  0  0
 15 14  1  0  0  0  0
 16 17  1  0  0  0  0
 17 12  1  0  0  0  0
 18 19  1  0  0  0  0
 19 20  2  0  0  0  0
 21 20  1  0  0  0  0
 22 21  2  0  0  0  0
 23 22  1  0  0  0  0
 24 23  2  0  0  0  0
 25 24  1  0  0  0  0
 25 26  2  0  0  0  0
 26 27  1  0  0  0  0
 27 18  2  0  0  0  0
 27 22  1  0  0  0  0
 28 31  1  0  0  0  0
 28 30  1  0  0  0  0
 29 28  1  0  0  0  0
M  END
>  <minimizedAffinity>
-8.50150108

$$$$

 OpenBabel03272514443D

 31 35  0  0  0  0  0  0  0  0999 V2000
   33.8980   29.7140   45.1780 C   0  0  0  0  0  3  0  0  0  0  0  0
   32.6660   29.0520   45.3300 C   0  0  0  0  0  3  0  0  0  0  0  0
   32.3450   28.6120   46.6200 C   0  0  0  0  0  0  0  0  0  0  0  0
   33.2460   28.8670   47.5690 N   0  0  0  0  0  0  0  0  0  0  0  0
   34.4290   29.5040   47.4160 C   0  0  0  0  0  0  0  0  0  0  0  0
   34.7170   29.9170   46.1870 N   0  0  0  0  0  0  0  0  0  0  0  0
   31.1310   27.9280   46.8880 N   0  0  0  0  0  0  0  0  0  0  0  0
   30.0080   28.5720   47.1690 C   0  0  0  0  0  3  0  0  0  0  0  0
   29.0560   27.6080   47.3600 C   0  0  0  0  0  0  0  0  0  0  0  0
   29.6170   26.3970   47.1910 N   0  0  0  0  0  0  0  0  0  0  0  0
   30.9200   26.6100   46.8960 C   0  0  0  0  0  0  0  0  0  0  0  0
   31.7180   25.4730   46.6880 N   0  0  0  0  0  0  0  0  0  0  0  0
   32.4180   24.5850   47.5990 C   0  0  0  0  0  2  0  0  0  0  0  0
   33.7270   24.0740   47.0640 C   0  0  0  0  0  2  0  0  0  0  0  0
   34.3560   24.9160   46.0190 C   0  0  0  0  0  2  0  0  0  0  0  0
   33.4010   25.5210   45.0400 C   0  0  0  0  0  2  0  0  0  0  0  0
   31.9730   25.0490   45.3030 C   0  0  0  0  0  2  0  0  0  0  0  0
   35.1570   29.6130   48.6660 C   0  0  0  0  0  0  0  0  0  0  0  0
   34.7330   28.9690   49.8050 C   0  0  0  0  0  3  0  0  0  0  0  0
   35.3840   29.0250   51.0260 C   0  0  0  0  0  3  0  0  0  0  0  0
   36.5460   29.7710   51.1480 C   0  0  0  0  0  3  0  0  0  0  0  0
   37.0010   30.4270   50.0380 C   0  0  0  0  0  0  0  0  0  0  0  0
   38.1570   31.1590   50.1780 C   0  0  0  0  0  3  0  0  0  0  0  0
   38.6910   31.8450   49.1140 C   0  0  0  0  0  3  0  0  0  0  0  0
   38.0030   31.7650   47.8980 C   0  0  0  0  0  3  0  0  0  0  0  0
   36.8420   31.0150   47.8130 C   0  0  0  0  0  3  0  0  0  0  0  0
   36.3110   30.3350   48.8500 C   0  0  0  0  0  0  0  0  0  0  0  0
   27.6110   27.7770   47.7090 C   0  0  0  0  0  0  0  0  0  0  0  0
   26.8410   28.1440   46.6200 F   0  0  0  0  0  0  0  0  0  0  0  0
   27.4730   28.8140   48.6560 F   0  0  0  0  0  0  0  0  0  0  0  0
   27.1410   26.6480   48.3550 F   0  0  0  0  0  0  0  0  0  0  0  0
  1  2  2  0  0  0  0
  1  6  1  0  0  0  0
  2  3  1  0  0  0  0
  3  7  1  0  0  0  0
  3  4  2  0  0  0  0
  5  4  1  0  0  0  0
  5 18  1  0  0  0  0
  6  5  2  0  0  0  0
  7 11  1  0  0  0  0
  7  8  1  0  0  0  0
  8  9  2  0  0  0  0
  9 28  1  0  0  0  0
 10  9  1  0  0  0  0
 11 10  2  0  0  0  0
 12 11  1  0  0  0  0
 12 13  1  0  0  0  0
 14 13  1  0  0  0  0
 15 14  1  0  0  0  0
 16 17  1  0  0  0  0
 16 15  1  0  0  0  0
 17 12  1  0  0  0  0
 18 27  2  0  0  0  0
 18 19  1  0  0  0  0
 19 20  2  0  0  0  0
 20 21  1  0  0  0  0
 22 23  1  0  0  0  0
 22 21  2  0  0  0  0
 24 23  2  0  0  0  0
 25 24  1  0  0  0  0
 26 25  2  0  0  0  0
 26 27  1  0  0  0  0
 27 22  1  0  0  0  0
 28 31  1  0  0  0  0
 28 30  1  0  0  0  0
 29 28  1  0  0  0  0
M  END
>  <minimizedAffinity>
-8.26782799

$$$$

 OpenBabel03272514443D

 31 35  0  0  0  0  0  0  0  0999 V2000
   32.8420   25.3710   47.3340 C   0  0  0  0  0  3  0  0  0  0  0  0
   33.7890   26.3970   47.5020 C   0  0  0  0  0  3  0  0  0  0  0  0
   33.3410   27.5700   48.1200 C   0  0  0  0  0  0  0  0  0  0  0  0
   32.0580   27.5890   48.4850 N   0  0  0  0  0  0  0  0  0  0  0  0
   31.1520   26.5980   48.3210 C   0  0  0  0  0  0  0  0  0  0  0  0
   31.5950   25.4920   47.7340 N   0  0  0  0  0  0  0  0  0  0  0  0
   34.2090   28.6720   48.3350 N   0  0  0  0  0  0  0  0  0  0  0  0
   34.9700   28.7680   49.4150 C   0  0  0  0  0  3  0  0  0  0  0  0
   35.6690   29.9360   49.2840 C   0  0  0  0  0  0  0  0  0  0  0  0
   35.3210   30.5290   48.1270 N   0  0  0  0  0  0  0  0  0  0  0  0
   34.4030   29.7270   47.5410 C   0  0  0  0  0  0  0  0  0  0  0  0
   33.8790   30.1550   46.3100 N   0  0  0  0  0  0  0  0  0  0  0  0
   32.8050   31.0700   45.9650 C   0  0  0  0  0  2  0  0  0  0  0  0
   32.0300   30.6640   44.7430 C   0  0  0  0  0  2  0  0  0  0  0  0
   32.0790   29.2210   44.4120 C   0  0  0  0  0  2  0  0  0  0  0  0
   33.4080   28.5700   44.6330 C   0  0  0  0  0  2  0  0  0  0  0  0
   34.4520   29.5900   45.0790 C   0  0  0  0  0  2  0  0  0  0  0  0
   29.8470   26.9590   48.8410 C   0  0  0  0  0  0  0  0  0  0  0  0
   29.5820   26.9500   50.1910 C   0  0  0  0  0  3  0  0  0  0  0  0
   28.3640   27.2900   50.7530 C   0  0  0  0  0  3  0  0  0  0  0  0
   27.3140   27.6710   49.9310 C   0  0  0  0  0  3  0  0  0  0  0  0
   27.5370   27.6920   48.5820 C   0  0  0  0  0  0  0  0  0  0  0  0
   26.4840   28.0770   47.7840 C   0  0  0  0  0  3  0  0  0  0  0  0
   26.6190   28.1340   46.4180 C   0  0  0  0  0  3  0  0  0  0  0  0
   27.8660   27.7810   45.8880 C   0  0  0  0  0  3  0  0  0  0  0  0
   28.8910   27.4000   46.7380 C   0  0  0  0  0  3  0  0  0  0  0  0
   28.7700   27.3440   48.0800 C   0  0  0  0  0  0  0  0  0  0  0  0
   36.6680   30.5390   50.2210 C   0  0  0  0  0  0  0  0  0  0  0  0
   36.6290   31.9210   50.2220 F   0  0  0  0  0  0  0  0  0  0  0  0
   37.9700   30.1820   49.8130 F   0  0  0  0  0  0  0  0  0  0  0  0
   36.5330   29.9870   51.4820 F   0  0  0  0  0  0  0  0  0  0  0  0
  1  2  2  0  0  0  0
  1  6  1  0  0  0  0
  2  3  1  0  0  0  0
  3  7  1  0  0  0  0
  3  4  2  0  0  0  0
  5  4  1  0  0  0  0
  5 18  1  0  0  0  0
  6  5  2  0  0  0  0
  7  8  1  0  0  0  0
  9  8  2  0  0  0  0
  9 28  1  0  0  0  0
 10  9  1  0  0  0  0
 11 10  2  0  0  0  0
 11  7  1  0  0  0  0
 12 11  1  0  0  0  0
 13 12  1  0  0  0  0
 14 13  1  0  0  0  0
 15 16  1  0  0  0  0
 15 14  1  0  0  0  0
 16 17  1  0  0  0  0
 17 12  1  0  0  0  0
 18 19  1  0  0  0  0
 19 20  2  0  0  0  0
 21 20  1  0  0  0  0
 22 21  2  0  0  0  0
 23 22  1  0  0  0  0
 24 23  2  0  0  0  0
 25 24  1  0  0  0  0
 25 26  2  0  0  0  0
 26 27  1  0  0  0  0
 27 22  1  0  0  0  0
 27 18  2  0  0  0  0
 28 29  1  0  0  0  0
 28 31  1  0  0  0  0
 30 28  1  0  0  0  0
M  END
>  <minimizedAffinity>
-8.17474079

$$$$

 OpenBabel03272514443D

 31 35  0  0  0  0  0  0  0  0999 V2000
   31.3980   25.3570   46.5900 C   0  0  0  0  0  3  0  0  0  0  0  0
   32.4830   26.1830   46.9390 C   0  0  0  0  0  3  0  0  0  0  0  0
   32.1700   27.4070   47.5400 C   0  0  0  0  0  0  0  0  0  0  0  0
   30.8740   27.6610   47.7200 N   0  0  0  0  0  0  0  0  0  0  0  0
   29.8360   26.8630   47.3830 C   0  0  0  0  0  0  0  0  0  0  0  0
   30.1500   25.7040   46.8140 N   0  0  0  0  0  0  0  0  0  0  0  0
   33.1850   28.3210   47.9280 N   0  0  0  0  0  0  0  0  0  0  0  0
   33.7820   28.2510   49.1090 C   0  0  0  0  0  3  0  0  0  0  0  0
   34.6950   29.2690   49.1330 C   0  0  0  0  0  0  0  0  0  0  0  0
   34.6380   29.9380   47.9670 N   0  0  0  0  0  0  0  0  0  0  0  0
   33.6850   29.3350   47.2190 C   0  0  0  0  0  0  0  0  0  0  0  0
   33.4380   29.8780   45.9480 N   0  0  0  0  0  0  0  0  0  0  0  0
   32.6140   30.9860   45.4960 C   0  0  0  0  0  2  0  0  0  0  0  0
   31.9670   30.7570   44.1590 C   0  0  0  0  0  2  0  0  0  0  0  0
   31.7980   29.3370   43.7720 C   0  0  0  0  0  2  0  0  0  0  0  0
   32.9370   28.4420   44.1490 C   0  0  0  0  0  2  0  0  0  0  0  0
   34.0730   29.2390   44.7850 C   0  0  0  0  0  2  0  0  0  0  0  0
   28.5570   27.4530   47.7290 C   0  0  0  0  0  0  0  0  0  0  0  0
   27.7370   28.0060   46.7740 C   0  0  0  0  0  3  0  0  0  0  0  0
   26.5030   28.5790   47.0350 C   0  0  0  0  0  3  0  0  0  0  0  0
   26.0290   28.6160   48.3380 C   0  0  0  0  0  3  0  0  0  0  0  0
   26.8150   28.0770   49.3180 C   0  0  0  0  0  0  0  0  0  0  0  0
   26.3250   28.1190   50.6020 C   0  0  0  0  0  3  0  0  0  0  0  0
   27.0450   27.5950   51.6490 C   0  0  0  0  0  3  0  0  0  0  0  0
   28.2870   27.0270   51.3440 C   0  0  0  0  0  3  0  0  0  0  0  0
   28.7320   27.0120   50.0330 C   0  0  0  0  0  3  0  0  0  0  0  0
   28.0330   27.5200   48.9980 C   0  0  0  0  0  0  0  0  0  0  0  0
   35.6380   29.6540   50.2290 C   0  0  0  0  0  0  0  0  0  0  0  0
   35.9260   31.0070   50.2310 F   0  0  0  0  0  0  0  0  0  0  0  0
   36.8690   28.9890   50.0460 F   0  0  0  0  0  0  0  0  0  0  0  0
   35.1680   29.1930   51.4460 F   0  0  0  0  0  0  0  0  0  0  0  0
  1  6  2  0  0  0  0
  1  2  1  0  0  0  0
  2  3  2  0  0  0  0
  3  4  1  0  0  0  0
  3  7  1  0  0  0  0
  5  4  2  0  0  0  0
  5 18  1  0  0  0  0
  6  5  1  0  0  0  0
  7  8  1  0  0  0  0
  8  9  2  0  0  0  0
  9 28  1  0  0  0  0
 10  9  1  0  0  0  0
 11  7  1  0  0  0  0
 11 10  2  0  0  0  0
 12 11  1  0  0  0  0
 13 12  1  0  0  0  0
 14 13  1  0  0  0  0
 15 16  1  0  0  0  0
 15 14  1  0  0  0  0
 16 17  1  0  0  0  0
 17 12  1  0  0  0  0
 18 27  1  0  0  0  0
 19 20  1  0  0  0  0
 19 18  2  0  0  0  0
 20 21  2  0  0  0  0
 21 22  1  0  0  0  0
 22 23  1  0  0  0  0
 23 24  2  0  0  0  0
 25 24  1  0  0  0  0
 26 25  2  0  0  0  0
 27 22  2  0  0  0  0
 27 26  1  0  0  0  0
 28 29  1  0  0  0  0
 28 31  1  0  0  0  0
 30 28  1  0  0  0  0
M  END
>  <minimizedAffinity>
-8.02180386

$$$$

 OpenBabel03272514443D

 31 35  0  0  0  0  0  0  0  0999 V2000
   33.1750   29.8570   44.4370 C   0  0  0  0  0  3  0  0  0  0  0  0
   32.2610   29.0350   45.1210 C   0  0  0  0  0  3  0  0  0  0  0  0
   32.6210   28.6360   46.4130 C   0  0  0  0  0  0  0  0  0  0  0  0
   33.7980   29.0780   46.8580 N   0  0  0  0  0  0  0  0  0  0  0  0
   34.6730   29.8670   46.1950 C   0  0  0  0  0  0  0  0  0  0  0  0
   34.3140   30.2380   44.9720 N   0  0  0  0  0  0  0  0  0  0  0  0
   31.7770   27.8020   47.1930 N   0  0  0  0  0  0  0  0  0  0  0  0
   30.8120   28.2940   47.9540 C   0  0  0  0  0  3  0  0  0  0  0  0
   30.2090   27.2170   48.5440 C   0  0  0  0  0  0  0  0  0  0  0  0
   30.8180   26.0910   48.1310 N   0  0  0  0  0  0  0  0  0  0  0  0
   31.8020   26.4710   47.2840 C   0  0  0  0  0  0  0  0  0  0  0  0
   32.5910   25.4500   46.7290 N   0  0  0  0  0  0  0  0  0  0  0  0
   33.7540   24.7310   47.2210 C   0  0  0  0  0  2  0  0  0  0  0  0
   34.7500   24.3810   46.1500 C   0  0  0  0  0  2  0  0  0  0  0  0
   34.7080   25.2370   44.9420 C   0  0  0  0  0  2  0  0  0  0  0  0
   33.3340   25.6360   44.5010 C   0  0  0  0  0  2  0  0  0  0  0  0
   32.2660   24.9800   45.3740 C   0  0  0  0  0  2  0  0  0  0  0  0
   35.8540   30.1580   46.9860 C   0  0  0  0  0  0  0  0  0  0  0  0
   36.9770   30.7180   46.4240 C   0  0  0  0  0  3  0  0  0  0  0  0
   38.1330   31.0260   47.1210 C   0  0  0  0  0  3  0  0  0  0  0  0
   38.1990   30.7680   48.4820 C   0  0  0  0  0  3  0  0  0  0  0  0
   37.1030   30.2110   49.0790 C   0  0  0  0  0  0  0  0  0  0  0  0
   37.1870   29.9670   50.4300 C   0  0  0  0  0  3  0  0  0  0  0  0
   36.1310   29.4160   51.1140 C   0  0  0  0  0  3  0  0  0  0  0  0
   34.9820   29.1160   50.3730 C   0  0  0  0  0  3  0  0  0  0  0  0
   34.9510   29.3820   49.0150 C   0  0  0  0  0  3  0  0  0  0  0  0
   35.9810   29.9260   48.3340 C   0  0  0  0  0  0  0  0  0  0  0  0
   29.0630   27.1980   49.5070 C   0  0  0  0  0  0  0  0  0  0  0  0
   27.9420   26.5760   48.9870 F   0  0  0  0  0  0  0  0  0  0  0  0
   28.6760   28.5220   49.8040 F   0  0  0  0  0  0  0  0  0  0  0  0
   29.4680   26.6700   50.7200 F   0  0  0  0  0  0  0  0  0  0  0  0
  1  6  2  0  0  0  0
  1  2  1  0  0  0  0
  2  3  2  0  0  0  0
  3  4  1  0  0  0  0
  3  7  1  0  0  0  0
  5  4  2  0  0  0  0
  5 18  1  0  0  0  0
  6  5  1  0  0  0  0
  7 11  1  0  0  0  0
  7  8  1  0  0  0  0
  8  9  2  0  0  0  0
  9 28  1  0  0  0  0
 10  9  1  0  0  0  0
 11 10  2  0  0  0  0
 12 13  1  0  0  0  0
 12 11  1  0  0  0  0
 14 13  1  0  0  0  0
 15 14  1  0  0  0  0
 16 15  1  0  0  0  0
 16 17  1  0  0  0  0
 17 12  1  0  0  0  0
 18 27  1  0  0  0  0
 19 18  2  0  0  0  0
 19 20  1  0  0  0  0
 20 21  2  0  0  0  0
 21 22  1  0  0  0  0
 22 23  1  0  0  0  0
 23 24  2  0  0  0  0
 25 24  1  0  0  0  0
 26 25  2  0  0  0  0
 27 26  1  0  0  0  0
 27 22  2  0  0  0  0
 28 30  1  0  0  0  0
 28 31  1  0  0  0  0
 29 28  1  0  0  0  0
M  END
>  <minimizedAffinity>
-7.74359512

$$$$

 OpenBabel03272514443D

 31 35  0  0  0  0  0  0  0  0999 V2000
   30.9960   26.1240   46.2100 C   0  0  0  0  0  3  0  0  0  0  0  0
   29.8690   26.9490   46.0390 C   0  0  0  0  0  3  0  0  0  0  0  0
   29.9670   28.2540   46.5340 C   0  0  0  0  0  0  0  0  0  0  0  0
   31.1220   28.5780   47.1150 N   0  0  0  0  0  0  0  0  0  0  0  0
   32.2020   27.7810   47.2750 C   0  0  0  0  0  0  0  0  0  0  0  0
   32.0930   26.5460   46.8000 N   0  0  0  0  0  0  0  0  0  0  0  0
   28.8880   29.1710   46.4220 N   0  0  0  0  0  0  0  0  0  0  0  0
   28.7160   29.9260   45.3470 C   0  0  0  0  0  3  0  0  0  0  0  0
   27.5910   30.6680   45.5830 C   0  0  0  0  0  0  0  0  0  0  0  0
   27.1000   30.3510   46.7940 N   0  0  0  0  0  0  0  0  0  0  0  0
   27.9240   29.4100   47.3120 C   0  0  0  0  0  0  0  0  0  0  0  0
   27.6120   28.9310   48.5950 N   0  0  0  0  0  0  0  0  0  0  0  0
   27.8990   29.4320   49.9280 C   0  0  0  0  0  2  0  0  0  0  0  0
   28.1600   28.3520   50.9410 C   0  0  0  0  0  2  0  0  0  0  0  0
   28.6200   27.0590   50.3840 C   0  0  0  0  0  2  0  0  0  0  0  0
   27.9630   26.6570   49.1020 C   0  0  0  0  0  2  0  0  0  0  0  0
   26.8820   27.6580   48.7010 C   0  0  0  0  0  2  0  0  0  0  0  0
   33.2900   28.4640   47.9490 C   0  0  0  0  0  0  0  0  0  0  0  0
   33.3980   28.4710   49.3200 C   0  0  0  0  0  3  0  0  0  0  0  0
   34.4130   29.0960   50.0240 C   0  0  0  0  0  3  0  0  0  0  0  0
   35.4080   29.7710   49.3340 C   0  0  0  0  0  3  0  0  0  0  0  0
   35.3380   29.7880   47.9680 C   0  0  0  0  0  0  0  0  0  0  0  0
   36.3360   30.4590   47.3020 C   0  0  0  0  0  3  0  0  0  0  0  0
   36.3500   30.5220   45.9300 C   0  0  0  0  0  3  0  0  0  0  0  0
   35.3050   29.8790   45.2550 C   0  0  0  0  0  3  0  0  0  0  0  0
   34.3250   29.2190   45.9760 C   0  0  0  0  0  3  0  0  0  0  0  0
   34.3040   29.1480   47.3230 C   0  0  0  0  0  0  0  0  0  0  0  0
   26.9440   31.6920   44.7030 C   0  0  0  0  0  0  0  0  0  0  0  0
   27.8650   32.4540   44.0080 F   0  0  0  0  0  0  0  0  0  0  0  0
   26.2040   32.5940   45.4960 F   0  0  0  0  0  0  0  0  0  0  0  0
   26.0030   31.0910   43.8860 F   0  0  0  0  0  0  0  0  0  0  0  0
  1  6  1  0  0  0  0
  2  1  2  0  0  0  0
  2  3  1  0  0  0  0
  3  4  2  0  0  0  0
  4  5  1  0  0  0  0
  5 18  1  0  0  0  0
  6  5  2  0  0  0  0
  7  3  1  0  0  0  0
  7 11  1  0  0  0  0
  8  9  2  0  0  0  0
  8  7  1  0  0  0  0
  9 10  1  0  0  0  0
 10 11  2  0  0  0  0
 11 12  1  0  0  0  0
 12 17  1  0  0  0  0
 12 13  1  0  0  0  0
 13 14  1  0  0  0  0
 15 14  1  0  0  0  0
 16 15  1  0  0  0  0
 17 16  1  0  0  0  0
 18 19  1  0  0  0  0
 19 20  2  0  0  0  0
 21 20  1  0  0  0  0
 22 21  2  0  0  0  0
 23 22  1  0  0  0  0
 24 23  2  0  0  0  0
 25 24  1  0  0  0  0
 25 26  2  0  0  0  0
 26 27  1  0  0  0  0
 27 18  2  0  0  0  0
 27 22  1  0  0  0  0
 28 30  1  0  0  0  0
 28  9  1  0  0  0  0
 29 28  1  0  0  0  0
 31 28  1  0  0  0  0
M  END
>  <minimizedAffinity>
-7.58189011

$$$$

 OpenBabel03272514443D

 31 35  0  0  0  0  0  0  0  0999 V2000
   36.4540   29.3530   43.8080 C   0  0  0  0  0  3  0  0  0  0  0  0
   35.0600   29.5340   43.7480 C   0  0  0  0  0  3  0  0  0  0  0  0
   34.4660   30.1920   44.8310 C   0  0  0  0  0  0  0  0  0  0  0  0
   35.2880   30.5780   45.8080 N   0  0  0  0  0  0  0  0  0  0  0  0
   36.6270   30.4010   45.8590 C   0  0  0  0  0  0  0  0  0  0  0  0
   37.1750   29.7760   44.8230 N   0  0  0  0  0  0  0  0  0  0  0  0
   33.0660   30.4240   44.8790 N   0  0  0  0  0  0  0  0  0  0  0  0
   32.5110   31.4940   44.3300 C   0  0  0  0  0  3  0  0  0  0  0  0
   31.1670   31.3840   44.5600 C   0  0  0  0  0  0  0  0  0  0  0  0
   30.9290   30.2510   45.2440 N   0  0  0  0  0  0  0  0  0  0  0  0
   32.1290   29.6570   45.4400 C   0  0  0  0  0  0  0  0  0  0  0  0
   32.1300   28.4470   46.1540 N   0  0  0  0  0  0  0  0  0  0  0  0
   32.1280   28.1460   47.5750 C   0  0  0  0  0  2  0  0  0  0  0  0
   32.9270   26.9250   47.9390 C   0  0  0  0  0  2  0  0  0  0  0  0
   33.9890   26.5530   46.9760 C   0  0  0  0  0  2  0  0  0  0  0  0
   33.6240   26.7340   45.5360 C   0  0  0  0  0  2  0  0  0  0  0  0
   32.1750   27.1910   45.3900 C   0  0  0  0  0  2  0  0  0  0  0  0
   37.2050   30.9530   47.0690 C   0  0  0  0  0  0  0  0  0  0  0  0
   38.0810   32.0120   47.0310 C   0  0  0  0  0  3  0  0  0  0  0  0
   38.6620   32.5900   48.1480 C   0  0  0  0  0  3  0  0  0  0  0  0
   38.3640   32.0940   49.4080 C   0  0  0  0  0  3  0  0  0  0  0  0
   37.4970   31.0390   49.4890 C   0  0  0  0  0  0  0  0  0  0  0  0
   37.2120   30.5650   50.7470 C   0  0  0  0  0  3  0  0  0  0  0  0
   36.3460   29.5120   50.9240 C   0  0  0  0  0  3  0  0  0  0  0  0
   35.7810   28.9550   49.7710 C   0  0  0  0  0  3  0  0  0  0  0  0
   36.1050   29.4720   48.5290 C   0  0  0  0  0  3  0  0  0  0  0  0
   36.9500   30.5060   48.3440 C   0  0  0  0  0  0  0  0  0  0  0  0
   30.0700   32.3220   44.1630 C   0  0  0  0  0  0  0  0  0  0  0  0
   29.7830   32.2610   42.8110 F   0  0  0  0  0  0  0  0  0  0  0  0
   30.4700   33.6500   44.4210 F   0  0  0  0  0  0  0  0  0  0  0  0
   28.9620   32.1270   44.9670 F   0  0  0  0  0  0  0  0  0  0  0  0
  1  6  1  0  0  0  0
  2  1  2  0  0  0  0
  2  3  1  0  0  0  0
  3  7  1  0  0  0  0
  3  4  2  0  0  0  0
  4  5  1  0  0  0  0
  5 18  1  0  0  0  0
  6  5  2  0  0  0  0
  7 11  1  0  0  0  0
  8  9  2  0  0  0  0
  8  7  1  0  0  0  0
  9 10  1  0  0  0  0
 10 11  2  0  0  0  0
 11 12  1  0  0  0  0
 12 13  1  0  0  0  0
 13 14  1  0  0  0  0
 15 14  1  0  0  0  0
 16 15  1  0  0  0  0
 17 16  1  0  0  0  0
 17 12  1  0  0  0  0
 18 27  1  0  0  0  0
 19 18  2  0  0  0  0
 19 20  1  0  0  0  0
 20 21  2  0  0  0  0
 21 22  1  0  0  0  0
 22 23  1  0  0  0  0
 23 24  2  0  0  0  0
 25 24  1  0  0  0  0
 26 25  2  0  0  0  0
 27 26  1  0  0  0  0
 27 22  2  0  0  0  0
 28 30  1  0  0  0  0
 28  9  1  0  0  0  0
 28 31  1  0  0  0  0
 29 28  1  0  0  0  0
M  END
>  <minimizedAffinity>
-7.34156322

$$$$

 OpenBabel03272514443D

 31 35  0  0  0  0  0  0  0  0999 V2000
   32.2420   30.2220   44.4400 C   0  0  0  0  0  3  0  0  0  0  0  0
   31.1680   29.4920   44.9800 C   0  0  0  0  0  3  0  0  0  0  0  0
   31.3220   29.0270   46.2910 C   0  0  0  0  0  0  0  0  0  0  0  0
   32.4760   29.3270   46.8900 N   0  0  0  0  0  0  0  0  0  0  0  0
   33.5040   30.0300   46.3650 C   0  0  0  0  0  0  0  0  0  0  0  0
   33.3400   30.4650   45.1210 N   0  0  0  0  0  0  0  0  0  0  0  0
   30.3050   28.2740   46.9340 N   0  0  0  0  0  0  0  0  0  0  0  0
   29.3100   28.8520   47.5910 C   0  0  0  0  0  3  0  0  0  0  0  0
   28.5290   27.8360   48.0670 C   0  0  0  0  0  0  0  0  0  0  0  0
   29.0610   26.6590   47.6900 N   0  0  0  0  0  0  0  0  0  0  0  0
   30.1770   26.9460   46.9810 C   0  0  0  0  0  0  0  0  0  0  0  0
   30.9150   25.8570   46.4900 N   0  0  0  0  0  0  0  0  0  0  0  0
   31.9250   25.0050   47.0920 C   0  0  0  0  0  2  0  0  0  0  0  0
   33.0030   24.5710   46.1370 C   0  0  0  0  0  2  0  0  0  0  0  0
   33.2000   25.4530   44.9630 C   0  0  0  0  0  2  0  0  0  0  0  0
   31.9420   26.0090   44.3750 C   0  0  0  0  0  2  0  0  0  0  0  0
   30.7110   25.4560   45.0890 C   0  0  0  0  0  2  0  0  0  0  0  0
   34.6030   30.1720   47.3010 C   0  0  0  0  0  0  0  0  0  0  0  0
   34.4020   30.1230   48.6600 C   0  0  0  0  0  3  0  0  0  0  0  0
   35.4060   30.2450   49.6060 C   0  0  0  0  0  3  0  0  0  0  0  0
   36.7170   30.4290   49.1920 C   0  0  0  0  0  3  0  0  0  0  0  0
   36.9590   30.4840   47.8480 C   0  0  0  0  0  0  0  0  0  0  0  0
   38.2650   30.6630   47.4580 C   0  0  0  0  0  3  0  0  0  0  0  0
   38.6020   30.7230   46.1270 C   0  0  0  0  0  3  0  0  0  0  0  0
   37.5590   30.5980   45.2020 C   0  0  0  0  0  3  0  0  0  0  0  0
   36.2610   30.4210   45.6500 C   0  0  0  0  0  3  0  0  0  0  0  0
   35.9200   30.3570   46.9540 C   0  0  0  0  0  0  0  0  0  0  0  0
   27.2770   27.9210   48.8830 C   0  0  0  0  0  0  0  0  0  0  0  0
   27.3500   27.1760   50.0460 F   0  0  0  0  0  0  0  0  0  0  0  0
   26.1970   27.3940   48.1440 F   0  0  0  0  0  0  0  0  0  0  0  0
   26.9400   29.2450   49.1020 F   0  0  0  0  0  0  0  0  0  0  0  0
  1  2  2  0  0  0  0
  1  6  1  0  0  0  0
  2  3  1  0  0  0  0
  3  4  2  0  0  0  0
  3  7  1  0  0  0  0
  5  4  1  0  0  0  0
  5 18  1  0  0  0  0
  6  5  2  0  0  0  0
  7 11  1  0  0  0  0
  7  8  1  0  0  0  0
  8  9  2  0  0  0  0
  9 28  1  0  0  0  0
 10  9  1  0  0  0  0
 11 10  2  0  0  0  0
 12 11  1  0  0  0  0
 12 13  1  0  0  0  0
 14 13  1  0  0  0  0
 15 14  1  0  0  0  0
 16 15  1  0  0  0  0
 16 17  1  0  0  0  0
 17 12  1  0  0  0  0
 18 19  1  0  0  0  0
 19 20  2  0  0  0  0
 21 20  1  0  0  0  0
 22 21  2  0  0  0  0
 23 22  1  0  0  0  0
 24 23  2  0  0  0  0
 25 26  2  0  0  0  0
 25 24  1  0  0  0  0
 26 27  1  0  0  0  0
 27 18  2  0  0  0  0
 27 22  1  0  0  0  0
 28 31  1  0  0  0  0
 28 29  1  0  0  0  0
 30 28  1  0  0  0  0
M  END
>  <minimizedAffinity>
-7.03483868

$$$$

 OpenBabel03272514443D

 31 35  0  0  0  0  0  0  0  0999 V2000
   37.9500   29.3810   43.6400 C   0  0  0  0  0  3  0  0  0  0  0  0
   36.9090   30.0130   42.9350 C   0  0  0  0  0  3  0  0  0  0  0  0
   36.2820   31.0890   43.5740 C   0  0  0  0  0  0  0  0  0  0  0  0
   36.7400   31.4000   44.7880 N   0  0  0  0  0  0  0  0  0  0  0  0
   37.7410   30.7880   45.4590 C   0  0  0  0  0  0  0  0  0  0  0  0
   38.3260   29.7710   44.8380 N   0  0  0  0  0  0  0  0  0  0  0  0
   35.2160   31.7960   42.9590 N   0  0  0  0  0  0  0  0  0  0  0  0
   35.4280   32.8150   42.1390 C   0  0  0  0  0  3  0  0  0  0  0  0
   34.1930   33.2410   41.7360 C   0  0  0  0  0  0  0  0  0  0  0  0
   33.2520   32.4730   42.3170 N   0  0  0  0  0  0  0  0  0  0  0  0
   33.9070   31.5710   43.0830 C   0  0  0  0  0  0  0  0  0  0  0  0
   33.1180   30.6600   43.8050 N   0  0  0  0  0  0  0  0  0  0  0  0
   32.4370   30.7490   45.0840 C   0  0  0  0  0  2  0  0  0  0  0  0
   32.4320   29.4620   45.8620 C   0  0  0  0  0  2  0  0  0  0  0  0
   33.5180   28.5140   45.5230 C   0  0  0  0  0  2  0  0  0  0  0  0
   33.8540   28.4380   44.0670 C   0  0  0  0  0  2  0  0  0  0  0  0
   32.9180   29.3160   43.2400 C   0  0  0  0  0  2  0  0  0  0  0  0
   37.9780   31.3940   46.7560 C   0  0  0  0  0  0  0  0  0  0  0  0
   38.8980   32.4020   46.9230 C   0  0  0  0  0  3  0  0  0  0  0  0
   39.1680   33.0260   48.1290 C   0  0  0  0  0  3  0  0  0  0  0  0
   38.4820   32.6350   49.2700 C   0  0  0  0  0  3  0  0  0  0  0  0
   37.5590   31.6340   49.1460 C   0  0  0  0  0  0  0  0  0  0  0  0
   36.8870   31.2630   50.2870 C   0  0  0  0  0  3  0  0  0  0  0  0
   35.9370   30.2710   50.2550 C   0  0  0  0  0  3  0  0  0  0  0  0
   35.6950   29.6640   49.0180 C   0  0  0  0  0  3  0  0  0  0  0  0
   36.4010   30.0760   47.9010 C   0  0  0  0  0  3  0  0  0  0  0  0
   37.3330   31.0500   47.9200 C   0  0  0  0  0  0  0  0  0  0  0  0
   33.8460   34.3670   40.8130 C   0  0  0  0  0  0  0  0  0  0  0  0
   34.7650   35.3990   40.8650 F   0  0  0  0  0  0  0  0  0  0  0  0
   32.6070   34.9230   41.1950 F   0  0  0  0  0  0  0  0  0  0  0  0
   33.6350   33.8860   39.5330 F   0  0  0  0  0  0  0  0  0  0  0  0
  1  6  1  0  0  0  0
  2  3  1  0  0  0  0
  2  1  2  0  0  0  0
  3  4  2  0  0  0  0
  4  5  1  0  0  0  0
  5 18  1  0  0  0  0
  6  5  2  0  0  0  0
  7 11  1  0  0  0  0
  7  3  1  0  0  0  0
  8  7  1  0  0  0  0
  9  8  2  0  0  0  0
  9 10  1  0  0  0  0
 10 11  2  0  0  0  0
 11 12  1  0  0  0  0
 12 13  1  0  0  0  0
 13 14  1  0  0  0  0
 15 14  1  0  0  0  0
 16 15  1  0  0  0  0
 17 12  1  0  0  0  0
 17 16  1  0  0  0  0
 18 19  2  0  0  0  0
 18 27  1  0  0  0  0
 19 20  1  0  0  0  0
 20 21  2  0  0  0  0
 22 21  1  0  0  0  0
 22 23  1  0  0  0  0
 24 23  2  0  0  0  0
 25 24  1  0  0  0  0
 26 27  1  0  0  0  0
 26 25  2  0  0  0  0
 27 22  2  0  0  0  0
 28 29  1  0  0  0  0
 28 30  1  0  0  0  0
 28  9  1  0  0  0  0
 31 28  1  0  0  0  0
M  END
>  <minimizedAffinity>
-6.98413992

$$$$
