
 OpenBabel03272514433D

 35 40  0  0  0  0  0  0  0  0999 V2000
   33.4930   29.9730   45.0880 C   0  0  0  0  0  3  0  0  0  0  0  0
   32.5120   28.9640   45.0690 C   0  0  0  0  0  3  0  0  0  0  0  0
   32.3620   28.2060   46.2390 C   0  0  0  0  0  0  0  0  0  0  0  0
   33.1760   28.5530   47.2050 N   0  0  0  0  0  0  0  0  0  0  0  0
   34.1140   29.4970   47.2640 C   0  0  0  0  0  0  0  0  0  0  0  0
   34.2450   30.2060   46.1500 N   0  0  0  0  0  0  0  0  0  0  0  0
   31.3990   27.1600   46.3380 N   0  0  0  0  0  0  0  0  0  0  0  0
   31.4130   26.1230   45.4980 C   0  0  0  0  0  3  0  0  0  0  0  0
   30.4000   25.3170   45.8870 C   0  0  0  0  0  0  0  0  0  0  0  0
   29.7980   25.8630   46.9370 N   0  0  0  0  0  0  0  0  0  0  0  0
   30.4230   27.0370   47.2350 C   0  0  0  0  0  0  0  0  0  0  0  0
   34.8010   29.5610   48.5430 C   0  0  0  0  0  0  0  0  0  0  0  0
   34.2780   28.9570   49.6680 C   0  0  0  0  0  3  0  0  0  0  0  0
   34.8800   28.9770   50.9150 C   0  0  0  0  0  3  0  0  0  0  0  0
   36.0770   29.6320   51.0810 C   0  0  0  0  0  3  0  0  0  0  0  0
   36.6240   30.2380   49.9990 C   0  0  0  0  0  0  0  0  0  0  0  0
   37.8280   30.8900   50.1790 C   0  0  0  0  0  3  0  0  0  0  0  0
   38.4550   31.5310   49.1300 C   0  0  0  0  0  3  0  0  0  0  0  0
   37.8190   31.4900   47.8830 C   0  0  0  0  0  3  0  0  0  0  0  0
   36.6160   30.8240   47.7580 C   0  0  0  0  0  3  0  0  0  0  0  0
   35.9830   30.1850   48.7840 C   0  0  0  0  0  0  0  0  0  0  0  0
   29.9520   27.7830   48.3780 C   0  0  0  0  0  0  0  0  0  0  0  0
   30.1830   27.8670   49.7210 C   0  0  0  0  0  3  0  0  0  0  0  0
   29.4040   28.6920   50.4230 N   0  0  0  0  0  0  0  0  0  0  0  0
   28.5610   29.2380   49.5370 C   0  0  0  0  0  0  0  0  0  0  0  0
   27.5520   30.1550   49.7240 C   0  0  0  0  0  3  0  0  0  0  0  0
   26.8050   30.5740   48.6440 C   0  0  0  0  0  3  0  0  0  0  0  0
   27.0680   30.0820   47.3830 C   0  0  0  0  0  3  0  0  0  0  0  0
   28.0850   29.1750   47.2680 C   0  0  0  0  0  3  0  0  0  0  0  0
   28.8840   28.7020   48.3200 C   0  0  0  0  0  0  0  0  0  0  0  0
   29.4420   28.8720   51.4370 H   0  0  0  0  0  0  0  0  0  0  0  0
   29.9550   24.0190   45.3070 C   0  0  0  0  0  0  0  0  0  0  0  0
   30.1480   23.9370   43.9570 F   0  0  0  0  0  0  0  0  0  0  0  0
   28.5780   23.8340   45.5390 F   0  0  0  0  0  0  0  0  0  0  0  0
   30.5610   22.9560   46.0000 F   0  0  0  0  0  0  0  0  0  0  0  0
  1  6  1  0  0  0  0
  2  1  2  0  0  0  0
  2  3  1  0  0  0  0
  3  7  1  0  0  0  0
  3  4  2  0  0  0  0
  4  5  1  0  0  0  0
  5 12  1  0  0  0  0
  6  5  2  0  0  0  0
  7 11  1  0  0  0  0
  8  9  2  0  0  0  0
  8  7  1  0  0  0  0
  9 10  1  0  0  0  0
 10 11  2  0  0  0  0
 11 22  1  0  0  0  0
 12 21  2  0  0  0  0
 12 13  1  0  0  0  0
 13 14  2  0  0  0  0
 14 15  1  0  0  0  0
 16 17  1  0  0  0  0
 16 15  2  0  0  0  0
 18 17  2  0  0  0  0
 19 18  1  0  0  0  0
 20 19  2  0  0  0  0
 20 21  1  0  0  0  0
 21 16  1  0  0  0  0
 22 23  2  0  0  0  0
 23 24  1  0  0  0  0
 24 31  1  0  0  0  0
 25 26  1  0  0  0  0
 25 24  1  0  0  0  0
 27 26  2  0  0  0  0
 28 27  1  0  0  0  0
 29 28  2  0  0  0  0
 29 30  1  0  0  0  0
 30 22  1  0  0  0  0
 30 25  2  0  0  0  0
 32 34  1  0  0  0  0
 32  9  1  0  0  0  0
 32 35  1  0  0  0  0
 33 32  1  0  0  0  0
M  END
>  <minimizedAffinity>
-8.87840748

$$$$

 OpenBabel03272514433D

 35 40  0  0  0  0  0  0  0  0999 V2000
   31.7990   25.5900   45.8770 C   0  0  0  0  0  3  0  0  0  0  0  0
   32.8660   26.4610   45.5890 C   0  0  0  0  0  3  0  0  0  0  0  0
   32.8530   27.7080   46.2300 C   0  0  0  0  0  0  0  0  0  0  0  0
   31.8250   27.8890   47.0230 N   0  0  0  0  0  0  0  0  0  0  0  0
   30.8000   27.0930   47.3210 C   0  0  0  0  0  0  0  0  0  0  0  0
   30.8250   25.9170   46.7080 N   0  0  0  0  0  0  0  0  0  0  0  0
   33.8820   28.6710   46.0190 N   0  0  0  0  0  0  0  0  0  0  0  0
   34.1530   29.1420   44.8000 C   0  0  0  0  0  3  0  0  0  0  0  0
   35.1460   30.0450   44.9620 C   0  0  0  0  0  0  0  0  0  0  0  0
   35.4570   30.1110   46.2510 N   0  0  0  0  0  0  0  0  0  0  0  0
   34.6610   29.2420   46.9370 C   0  0  0  0  0  0  0  0  0  0  0  0
   29.8620   27.6780   48.2650 C   0  0  0  0  0  0  0  0  0  0  0  0
   29.8810   27.3340   49.6010 C   0  0  0  0  0  3  0  0  0  0  0  0
   29.0200   27.8520   50.5520 C   0  0  0  0  0  3  0  0  0  0  0  0
   28.0700   28.7730   50.1790 C   0  0  0  0  0  3  0  0  0  0  0  0
   28.0180   29.1370   48.8740 C   0  0  0  0  0  0  0  0  0  0  0  0
   27.0610   30.0640   48.5130 C   0  0  0  0  0  3  0  0  0  0  0  0
   26.9400   30.4930   47.2070 C   0  0  0  0  0  3  0  0  0  0  0  0
   27.8280   29.9480   46.2700 C   0  0  0  0  0  3  0  0  0  0  0  0
   28.7670   29.0240   46.6850 C   0  0  0  0  0  3  0  0  0  0  0  0
   28.8990   28.5910   47.9720 C   0  0  0  0  0  0  0  0  0  0  0  0
   34.8040   29.1820   48.3720 C   0  0  0  0  0  0  0  0  0  0  0  0
   34.0740   28.8170   49.4670 C   0  0  0  0  0  3  0  0  0  0  0  0
   34.6250   29.0260   50.6640 N   0  0  0  0  0  0  0  0  0  0  0  0
   35.8240   29.5720   50.4220 C   0  0  0  0  0  0  0  0  0  0  0  0
   36.8030   29.9830   51.2970 C   0  0  0  0  0  3  0  0  0  0  0  0
   37.9710   30.5240   50.8070 C   0  0  0  0  0  3  0  0  0  0  0  0
   38.1620   30.6520   49.4480 C   0  0  0  0  0  3  0  0  0  0  0  0
   37.1500   30.2240   48.6340 C   0  0  0  0  0  3  0  0  0  0  0  0
   35.9350   29.6650   49.0610 C   0  0  0  0  0  0  0  0  0  0  0  0
   34.2140   28.8120   51.5840 H   0  0  0  0  0  0  0  0  0  0  0  0
   35.8370   30.8760   43.9370 C   0  0  0  0  0  0  0  0  0  0  0  0
   36.4360   30.1360   42.9570 F   0  0  0  0  0  0  0  0  0  0  0  0
   36.8460   31.6500   44.5450 F   0  0  0  0  0  0  0  0  0  0  0  0
   34.9450   31.8300   43.4180 F   0  0  0  0  0  0  0  0  0  0  0  0
  1  6  1  0  0  0  0
  2  1  2  0  0  0  0
  2  3  1  0  0  0  0
  3  4  2  0  0  0  0
  4  5  1  0  0  0  0
  5 12  1  0  0  0  0
  6  5  2  0  0  0  0
  7  3  1  0  0  0  0
  7 11  1  0  0  0  0
  8  9  2  0  0  0  0
  8  7  1  0  0  0  0
  9 10  1  0  0  0  0
 10 11  2  0  0  0  0
 11 22  1  0  0  0  0
 12 13  1  0  0  0  0
 13 14  2  0  0  0  0
 15 14  1  0  0  0  0
 16 15  2  0  0  0  0
 17 16  1  0  0  0  0
 18 17  2  0  0  0  0
 19 20  2  0  0  0  0
 19 18  1  0  0  0  0
 20 21  1  0  0  0  0
 21 12  2  0  0  0  0
 21 16  1  0  0  0  0
 22 30  1  0  0  0  0
 22 23  2  0  0  0  0
 23 24  1  0  0  0  0
 24 31  1  0  0  0  0
 25 24  1  0  0  0  0
 25 26  1  0  0  0  0
 27 26  2  0  0  0  0
 28 27  1  0  0  0  0
 29 30  1  0  0  0  0
 29 28  2  0  0  0  0
 30 25  2  0  0  0  0
 32 34  1  0  0  0  0
 32  9  1  0  0  0  0
 33 32  1  0  0  0  0
 35 32  1  0  0  0  0
M  END
>  <minimizedAffinity>
-8.26591492

$$$$

 OpenBabel03272514433D

 35 40  0  0  0  0  0  0  0  0999 V2000
   28.5260   27.5210   49.8770 C   0  0  0  0  0  3  0  0  0  0  0  0
   29.7230   26.8360   49.5960 C   0  0  0  0  0  3  0  0  0  0  0  0
   30.3690   27.1600   48.3940 C   0  0  0  0  0  0  0  0  0  0  0  0
   29.7510   28.0750   47.6880 N   0  0  0  0  0  0  0  0  0  0  0  0
   28.6220   28.7440   47.9170 C   0  0  0  0  0  0  0  0  0  0  0  0
   28.0220   28.4270   49.0570 N   0  0  0  0  0  0  0  0  0  0  0  0
   31.5890   26.5350   48.0050 N   0  0  0  0  0  0  0  0  0  0  0  0
   31.6740   25.2110   47.8590 C   0  0  0  0  0  3  0  0  0  0  0  0
   32.9420   24.9620   47.4600 C   0  0  0  0  0  0  0  0  0  0  0  0
   33.5950   26.1140   47.3700 N   0  0  0  0  0  0  0  0  0  0  0  0
   32.7470   27.1240   47.7140 C   0  0  0  0  0  0  0  0  0  0  0  0
   28.2810   29.6910   46.8690 C   0  0  0  0  0  0  0  0  0  0  0  0
   28.8920   29.6440   45.6330 C   0  0  0  0  0  3  0  0  0  0  0  0
   28.6140   30.5120   44.5920 C   0  0  0  0  0  3  0  0  0  0  0  0
   27.6740   31.5000   44.7640 C   0  0  0  0  0  3  0  0  0  0  0  0
   27.0510   31.5810   45.9650 C   0  0  0  0  0  0  0  0  0  0  0  0
   26.1080   32.5760   46.1240 C   0  0  0  0  0  3  0  0  0  0  0  0
   25.4250   32.7280   47.3130 C   0  0  0  0  0  3  0  0  0  0  0  0
   25.7310   31.8310   48.3450 C   0  0  0  0  0  3  0  0  0  0  0  0
   26.6820   30.8540   48.1330 C   0  0  0  0  0  3  0  0  0  0  0  0
   27.3660   30.6910   46.9640 C   0  0  0  0  0  0  0  0  0  0  0  0
   33.2440   28.4780   47.6450 C   0  0  0  0  0  0  0  0  0  0  0  0
   33.1010   29.5900   46.8660 C   0  0  0  0  0  3  0  0  0  0  0  0
   33.8690   30.6420   47.1590 N   0  0  0  0  0  0  0  0  0  0  0  0
   34.6090   30.2700   48.2110 C   0  0  0  0  0  0  0  0  0  0  0  0
   35.5640   30.9680   48.9120 C   0  0  0  0  0  3  0  0  0  0  0  0
   36.2050   30.3670   49.9740 C   0  0  0  0  0  3  0  0  0  0  0  0
   35.8900   29.0740   50.3350 C   0  0  0  0  0  3  0  0  0  0  0  0
   34.9310   28.4370   49.5960 C   0  0  0  0  0  3  0  0  0  0  0  0
   34.2400   28.9850   48.5040 C   0  0  0  0  0  0  0  0  0  0  0  0
   33.8880   31.5510   46.6750 H   0  0  0  0  0  0  0  0  0  0  0  0
   33.5890   23.6580   47.1490 C   0  0  0  0  0  0  0  0  0  0  0  0
   33.5780   22.7840   48.1990 F   0  0  0  0  0  0  0  0  0  0  0  0
   34.9390   23.8620   46.7960 F   0  0  0  0  0  0  0  0  0  0  0  0
   33.0160   23.1070   45.9880 F   0  0  0  0  0  0  0  0  0  0  0  0
  2  1  1  0  0  0  0
  3  2  2  0  0  0  0
  4  5  2  0  0  0  0
  4  3  1  0  0  0  0
  5  6  1  0  0  0  0
  6  1  2  0  0  0  0
  7  3  1  0  0  0  0
  8  7  1  0  0  0  0
  9  8  2  0  0  0  0
 10  9  1  0  0  0  0
 10 11  2  0  0  0  0
 11  7  1  0  0  0  0
 12 21  1  0  0  0  0
 12  5  1  0  0  0  0
 13 12  2  0  0  0  0
 14 15  2  0  0  0  0
 14 13  1  0  0  0  0
 15 16  1  0  0  0  0
 16 17  2  0  0  0  0
 16 21  1  0  0  0  0
 17 18  1  0  0  0  0
 18 19  2  0  0  0  0
 20 19  1  0  0  0  0
 21 20  2  0  0  0  0
 22 11  1  0  0  0  0
 22 30  1  0  0  0  0
 23 24  1  0  0  0  0
 23 22  2  0  0  0  0
 24 25  1  0  0  0  0
 25 30  2  0  0  0  0
 25 26  1  0  0  0  0
 26 27  2  0  0  0  0
 27 28  1  0  0  0  0
 29 28  2  0  0  0  0
 30 29  1  0  0  0  0
 31 24  1  0  0  0  0
 32  9  1  0  0  0  0
 32 33  1  0  0  0  0
 34 32  1  0  0  0  0
 35 32  1  0  0  0  0
M  END
>  <minimizedAffinity>
-7.98452139

$$$$

 OpenBabel03272514433D

 35 40  0  0  0  0  0  0  0  0999 V2000
   32.6930   25.6360   47.6390 C   0  0  0  0  0  3  0  0  0  0  0  0
   31.3890   26.1600   47.7290 C   0  0  0  0  0  3  0  0  0  0  0  0
   31.2700   27.5560   47.7510 C   0  0  0  0  0  0  0  0  0  0  0  0
   32.4150   28.1900   47.6850 N   0  0  0  0  0  0  0  0  0  0  0  0
   33.6640   27.7340   47.6000 C   0  0  0  0  0  0  0  0  0  0  0  0
   33.7620   26.4110   47.5790 N   0  0  0  0  0  0  0  0  0  0  0  0
   30.0010   28.2000   47.8360 N   0  0  0  0  0  0  0  0  0  0  0  0
   29.1740   27.9710   48.8580 C   0  0  0  0  0  3  0  0  0  0  0  0
   28.0920   28.7530   48.6430 C   0  0  0  0  0  0  0  0  0  0  0  0
   28.2740   29.4340   47.5180 N   0  0  0  0  0  0  0  0  0  0  0  0
   29.4850   29.0920   46.9920 C   0  0  0  0  0  0  0  0  0  0  0  0
   34.6670   28.7850   47.5410 C   0  0  0  0  0  0  0  0  0  0  0  0
   35.0010   29.3910   46.3470 C   0  0  0  0  0  3  0  0  0  0  0  0
   35.9440   30.3960   46.2200 C   0  0  0  0  0  3  0  0  0  0  0  0
   36.6110   30.8470   47.3350 C   0  0  0  0  0  3  0  0  0  0  0  0
   36.3110   30.2760   48.5270 C   0  0  0  0  0  0  0  0  0  0  0  0
   36.9860   30.7400   49.6380 C   0  0  0  0  0  3  0  0  0  0  0  0
   36.7410   30.2160   50.8920 C   0  0  0  0  0  3  0  0  0  0  0  0
   35.7800   29.2010   50.9840 C   0  0  0  0  0  3  0  0  0  0  0  0
   35.1340   28.7750   49.8410 C   0  0  0  0  0  3  0  0  0  0  0  0
   35.3650   29.2820   48.5950 C   0  0  0  0  0  0  0  0  0  0  0  0
   29.9060   29.7510   45.7790 C   0  0  0  0  0  0  0  0  0  0  0  0
   30.8960   30.5880   45.3500 C   0  0  0  0  0  3  0  0  0  0  0  0
   30.8250   31.0190   44.0890 N   0  0  0  0  0  0  0  0  0  0  0  0
   29.7210   30.4610   43.5750 C   0  0  0  0  0  0  0  0  0  0  0  0
   29.1790   30.5710   42.3160 C   0  0  0  0  0  3  0  0  0  0  0  0
   28.0170   29.8950   42.0150 C   0  0  0  0  0  3  0  0  0  0  0  0
   27.4010   29.1110   42.9670 C   0  0  0  0  0  3  0  0  0  0  0  0
   27.9930   29.0450   44.1980 C   0  0  0  0  0  3  0  0  0  0  0  0
   29.1730   29.7060   44.5760 C   0  0  0  0  0  0  0  0  0  0  0  0
   31.4840   31.6500   43.6100 H   0  0  0  0  0  0  0  0  0  0  0  0
   26.8600   28.9000   49.4670 C   0  0  0  0  0  0  0  0  0  0  0  0
   27.0390   28.5450   50.7740 F   0  0  0  0  0  0  0  0  0  0  0  0
   25.8370   28.0780   48.9530 F   0  0  0  0  0  0  0  0  0  0  0  0
   26.3490   30.2030   49.3300 F   0  0  0  0  0  0  0  0  0  0  0  0
  1  2  1  0  0  0  0
  2  3  2  0  0  0  0
  3  7  1  0  0  0  0
  4  3  1  0  0  0  0
  5  4  2  0  0  0  0
  6  5  1  0  0  0  0
  6  1  2  0  0  0  0
  7  8  1  0  0  0  0
  9  8  2  0  0  0  0
  9 32  1  0  0  0  0
 10  9  1  0  0  0  0
 11 10  2  0  0  0  0
 11  7  1  0  0  0  0
 12  5  1  0  0  0  0
 12 21  1  0  0  0  0
 13 12  2  0  0  0  0
 14 13  1  0  0  0  0
 14 15  2  0  0  0  0
 15 16  1  0  0  0  0
 16 21  2  0  0  0  0
 16 17  1  0  0  0  0
 17 18  2  0  0  0  0
 18 19  1  0  0  0  0
 20 19  2  0  0  0  0
 21 20  1  0  0  0  0
 22 11  1  0  0  0  0
 23 22  2  0  0  0  0
 24 23  1  0  0  0  0
 25 24  1  0  0  0  0
 25 30  1  0  0  0  0
 26 25  2  0  0  0  0
 27 26  1  0  0  0  0
 27 28  2  0  0  0  0
 28 29  1  0  0  0  0
 29 30  2  0  0  0  0
 30 22  1  0  0  0  0
 31 24  1  0  0  0  0
 32 33  1  0  0  0  0
 34 32  1  0  0  0  0
 35 32  1  0  0  0  0
M  END
>  <minimizedAffinity>
-7.97187757

$$$$

 OpenBabel03272514433D

 35 40  0  0  0  0  0  0  0  0999 V2000
   32.7480   26.2160   47.7680 C   0  0  0  0  0  3  0  0  0  0  0  0
   31.5410   26.8330   47.3900 C   0  0  0  0  0  3  0  0  0  0  0  0
   31.5860   28.2140   47.1520 C   0  0  0  0  0  0  0  0  0  0  0  0
   32.7720   28.7450   47.3210 N   0  0  0  0  0  0  0  0  0  0  0  0
   33.9330   28.1980   47.6770 C   0  0  0  0  0  0  0  0  0  0  0  0
   33.8770   26.8910   47.8980 N   0  0  0  0  0  0  0  0  0  0  0  0
   30.4280   28.9460   46.7600 N   0  0  0  0  0  0  0  0  0  0  0  0
   29.3310   28.9690   47.5210 C   0  0  0  0  0  3  0  0  0  0  0  0
   28.4500   29.7690   46.8780 C   0  0  0  0  0  0  0  0  0  0  0  0
   29.0130   30.2130   45.7610 N   0  0  0  0  0  0  0  0  0  0  0  0
   30.2720   29.6980   45.6720 C   0  0  0  0  0  0  0  0  0  0  0  0
   35.0310   29.1490   47.7450 C   0  0  0  0  0  0  0  0  0  0  0  0
   35.5060   29.7780   46.6120 C   0  0  0  0  0  3  0  0  0  0  0  0
   36.5440   30.6930   46.6050 C   0  0  0  0  0  3  0  0  0  0  0  0
   37.1670   31.0220   47.7850 C   0  0  0  0  0  3  0  0  0  0  0  0
   36.7300   30.4250   48.9210 C   0  0  0  0  0  0  0  0  0  0  0  0
   37.3630   30.7670   50.1000 C   0  0  0  0  0  3  0  0  0  0  0  0
   36.9790   30.2090   51.3020 C   0  0  0  0  0  3  0  0  0  0  0  0
   35.9250   29.2870   51.2730 C   0  0  0  0  0  3  0  0  0  0  0  0
   35.3270   28.9820   50.0670 C   0  0  0  0  0  3  0  0  0  0  0  0
   35.6940   29.5240   48.8700 C   0  0  0  0  0  0  0  0  0  0  0  0
   31.0840   30.0870   44.5440 C   0  0  0  0  0  0  0  0  0  0  0  0
   31.7620   29.5050   43.5110 C   0  0  0  0  0  3  0  0  0  0  0  0
   32.4760   30.3090   42.7210 N   0  0  0  0  0  0  0  0  0  0  0  0
   32.3040   31.5450   43.2090 C   0  0  0  0  0  0  0  0  0  0  0  0
   32.8150   32.7460   42.7760 C   0  0  0  0  0  3  0  0  0  0  0  0
   32.4950   33.9050   43.4500 C   0  0  0  0  0  3  0  0  0  0  0  0
   31.6660   33.8630   44.5500 C   0  0  0  0  0  3  0  0  0  0  0  0
   31.1930   32.6360   44.9270 C   0  0  0  0  0  3  0  0  0  0  0  0
   31.4770   31.4170   44.2910 C   0  0  0  0  0  0  0  0  0  0  0  0
   33.0430   30.0360   41.9050 H   0  0  0  0  0  0  0  0  0  0  0  0
   27.0660   30.1500   47.2730 C   0  0  0  0  0  0  0  0  0  0  0  0
   26.9700   30.5680   48.5700 F   0  0  0  0  0  0  0  0  0  0  0  0
   26.2030   29.0450   47.1310 F   0  0  0  0  0  0  0  0  0  0  0  0
   26.5560   31.0960   46.3670 F   0  0  0  0  0  0  0  0  0  0  0  0
  1  6  1  0  0  0  0
  2  1  2  0  0  0  0
  3  4  2  0  0  0  0
  3  2  1  0  0  0  0
  4  5  1  0  0  0  0
  5 12  1  0  0  0  0
  5  6  2  0  0  0  0
  7  3  1  0  0  0  0
  7  8  1  0  0  0  0
  9 32  1  0  0  0  0
  9  8  2  0  0  0  0
 10  9  1  0  0  0  0
 11 10  2  0  0  0  0
 11  7  1  0  0  0  0
 12 21  1  0  0  0  0
 13 12  2  0  0  0  0
 14 13  1  0  0  0  0
 14 15  2  0  0  0  0
 15 16  1  0  0  0  0
 16 17  1  0  0  0  0
 17 18  2  0  0  0  0
 19 18  1  0  0  0  0
 20 19  2  0  0  0  0
 21 16  2  0  0  0  0
 21 20  1  0  0  0  0
 22 11  1  0  0  0  0
 23 22  2  0  0  0  0
 24 25  1  0  0  0  0
 24 23  1  0  0  0  0
 25 30  1  0  0  0  0
 26 25  2  0  0  0  0
 26 27  1  0  0  0  0
 27 28  2  0  0  0  0
 28 29  1  0  0  0  0
 30 22  1  0  0  0  0
 30 29  2  0  0  0  0
 31 24  1  0  0  0  0
 32 33  1  0  0  0  0
 34 32  1  0  0  0  0
 35 32  1  0  0  0  0
M  END
>  <minimizedAffinity>
-7.8988781

$$$$

 OpenBabel03272514433D

 35 40  0  0  0  0  0  0  0  0999 V2000
   32.7330   28.2440   46.1780 C   0  0  0  0  0  3  0  0  0  0  0  0
   33.0230   29.0140   45.0360 C   0  0  0  0  0  3  0  0  0  0  0  0
   34.1030   29.9030   45.1310 C   0  0  0  0  0  0  0  0  0  0  0  0
   34.7010   29.8910   46.2970 N   0  0  0  0  0  0  0  0  0  0  0  0
   34.4580   29.1820   47.3980 C   0  0  0  0  0  0  0  0  0  0  0  0
   33.4340   28.3450   47.2940 N   0  0  0  0  0  0  0  0  0  0  0  0
   34.4930   30.7300   44.0380 N   0  0  0  0  0  0  0  0  0  0  0  0
   33.6420   31.5990   43.4880 C   0  0  0  0  0  3  0  0  0  0  0  0
   34.3350   32.2310   42.5140 C   0  0  0  0  0  0  0  0  0  0  0  0
   35.5710   31.7490   42.4880 N   0  0  0  0  0  0  0  0  0  0  0  0
   35.6870   30.7930   43.4520 C   0  0  0  0  0  0  0  0  0  0  0  0
   35.3720   29.4690   48.4910 C   0  0  0  0  0  0  0  0  0  0  0  0
   35.1930   28.9130   49.7410 C   0  0  0  0  0  3  0  0  0  0  0  0
   36.0250   29.1420   50.8230 C   0  0  0  0  0  3  0  0  0  0  0  0
   37.1120   29.9710   50.6820 C   0  0  0  0  0  3  0  0  0  0  0  0
   37.3220   30.5380   49.4680 C   0  0  0  0  0  0  0  0  0  0  0  0
   38.4190   31.3680   49.3390 C   0  0  0  0  0  3  0  0  0  0  0  0
   38.7090   31.9840   48.1390 C   0  0  0  0  0  3  0  0  0  0  0  0
   37.8460   31.7300   47.0640 C   0  0  0  0  0  3  0  0  0  0  0  0
   36.7650   30.8920   47.2480 C   0  0  0  0  0  3  0  0  0  0  0  0
   36.4640   30.2750   48.4280 C   0  0  0  0  0  0  0  0  0  0  0  0
   36.9730   30.1600   43.6270 C   0  0  0  0  0  0  0  0  0  0  0  0
   38.2360   30.4860   44.0320 C   0  0  0  0  0  3  0  0  0  0  0  0
   39.1680   29.5360   43.9430 N   0  0  0  0  0  0  0  0  0  0  0  0
   38.5440   28.4590   43.4480 C   0  0  0  0  0  0  0  0  0  0  0  0
   39.0350   27.2070   43.1570 C   0  0  0  0  0  3  0  0  0  0  0  0
   38.1900   26.2470   42.6450 C   0  0  0  0  0  3  0  0  0  0  0  0
   36.8600   26.5360   42.4270 C   0  0  0  0  0  3  0  0  0  0  0  0
   36.4370   27.7990   42.7370 C   0  0  0  0  0  3  0  0  0  0  0  0
   37.2390   28.8260   43.2590 C   0  0  0  0  0  0  0  0  0  0  0  0
   40.1620   29.6140   44.2030 H   0  0  0  0  0  0  0  0  0  0  0  0
   33.8810   33.2990   41.5800 C   0  0  0  0  0  0  0  0  0  0  0  0
   32.8560   32.9050   40.7660 F   0  0  0  0  0  0  0  0  0  0  0  0
   34.9450   33.6910   40.7430 F   0  0  0  0  0  0  0  0  0  0  0  0
   33.5720   34.4640   42.3030 F   0  0  0  0  0  0  0  0  0  0  0  0
  1  6  1  0  0  0  0
  2  3  1  0  0  0  0
  2  1  2  0  0  0  0
  3  4  2  0  0  0  0
  4  5  1  0  0  0  0
  5 12  1  0  0  0  0
  6  5  2  0  0  0  0
  7  3  1  0  0  0  0
  8  7  1  0  0  0  0
  9  8  2  0  0  0  0
 10  9  1  0  0  0  0
 10 11  2  0  0  0  0
 11 22  1  0  0  0  0
 11  7  1  0  0  0  0
 12 13  1  0  0  0  0
 13 14  2  0  0  0  0
 15 14  1  0  0  0  0
 16 15  2  0  0  0  0
 17 16  1  0  0  0  0
 18 17  2  0  0  0  0
 19 20  2  0  0  0  0
 19 18  1  0  0  0  0
 20 21  1  0  0  0  0
 21 12  2  0  0  0  0
 21 16  1  0  0  0  0
 22 23  2  0  0  0  0
 24 23  1  0  0  0  0
 24 31  1  0  0  0  0
 25 24  1  0  0  0  0
 26 25  2  0  0  0  0
 27 26  1  0  0  0  0
 28 27  2  0  0  0  0
 28 29  1  0  0  0  0
 29 30  2  0  0  0  0
 30 25  1  0  0  0  0
 30 22  1  0  0  0  0
 32 35  1  0  0  0  0
 32  9  1  0  0  0  0
 33 32  1  0  0  0  0
 34 32  1  0  0  0  0
M  END
>  <minimizedAffinity>
-7.62769079

$$$$

 OpenBabel03272514433D

 35 40  0  0  0  0  0  0  0  0999 V2000
   32.4910   28.0030   47.6090 C   0  0  0  0  0  3  0  0  0  0  0  0
   32.3010   28.7480   46.4300 C   0  0  0  0  0  3  0  0  0  0  0  0
   33.2730   29.7130   46.1300 C   0  0  0  0  0  0  0  0  0  0  0  0
   34.2390   29.7880   47.0110 N   0  0  0  0  0  0  0  0  0  0  0  0
   34.4540   29.1050   48.1350 C   0  0  0  0  0  0  0  0  0  0  0  0
   33.5280   28.1950   48.4060 N   0  0  0  0  0  0  0  0  0  0  0  0
   33.1890   30.5250   44.9610 N   0  0  0  0  0  0  0  0  0  0  0  0
   32.1330   31.3110   44.7370 C   0  0  0  0  0  3  0  0  0  0  0  0
   32.3890   31.9530   43.5750 C   0  0  0  0  0  0  0  0  0  0  0  0
   33.5720   31.5580   43.1200 N   0  0  0  0  0  0  0  0  0  0  0  0
   34.0930   30.6490   43.9920 C   0  0  0  0  0  0  0  0  0  0  0  0
   35.6680   29.4960   48.8330 C   0  0  0  0  0  0  0  0  0  0  0  0
   35.9100   29.0920   50.1300 C   0  0  0  0  0  3  0  0  0  0  0  0
   37.0430   29.4260   50.8520 C   0  0  0  0  0  3  0  0  0  0  0  0
   38.0120   30.2090   50.2710 C   0  0  0  0  0  3  0  0  0  0  0  0
   37.8110   30.6260   48.9970 C   0  0  0  0  0  0  0  0  0  0  0  0
   38.7930   31.4100   48.4250 C   0  0  0  0  0  3  0  0  0  0  0  0
   38.6700   31.8760   47.1320 C   0  0  0  0  0  3  0  0  0  0  0  0
   37.5120   31.5190   46.4310 C   0  0  0  0  0  3  0  0  0  0  0  0
   36.5610   30.7330   47.0500 C   0  0  0  0  0  3  0  0  0  0  0  0
   36.6670   30.2640   48.3270 C   0  0  0  0  0  0  0  0  0  0  0  0
   35.4050   30.1150   43.7100 C   0  0  0  0  0  0  0  0  0  0  0  0
   36.0690   28.9240   43.7750 C   0  0  0  0  0  3  0  0  0  0  0  0
   37.3680   28.9340   43.4690 N   0  0  0  0  0  0  0  0  0  0  0  0
   37.6600   30.2040   43.1620 C   0  0  0  0  0  0  0  0  0  0  0  0
   38.8540   30.7700   42.7770 C   0  0  0  0  0  3  0  0  0  0  0  0
   38.9120   32.1210   42.5120 C   0  0  0  0  0  3  0  0  0  0  0  0
   37.7830   32.9030   42.6290 C   0  0  0  0  0  3  0  0  0  0  0  0
   36.6300   32.2770   43.0160 C   0  0  0  0  0  3  0  0  0  0  0  0
   36.4960   30.9100   43.3030 C   0  0  0  0  0  0  0  0  0  0  0  0
   38.0120   28.1300   43.4680 H   0  0  0  0  0  0  0  0  0  0  0  0
   31.5550   32.9500   42.8490 C   0  0  0  0  0  0  0  0  0  0  0  0
   30.6580   33.5930   43.6550 F   0  0  0  0  0  0  0  0  0  0  0  0
   30.8140   32.3120   41.8340 F   0  0  0  0  0  0  0  0  0  0  0  0
   32.3840   33.8460   42.1500 F   0  0  0  0  0  0  0  0  0  0  0  0
  1  6  1  0  0  0  0
  2  1  2  0  0  0  0
  3  2  1  0  0  0  0
  3  4  2  0  0  0  0
  4  5  1  0  0  0  0
  5  6  2  0  0  0  0
  5 12  1  0  0  0  0
  7  3  1  0  0  0  0
  8  7  1  0  0  0  0
  9  8  2  0  0  0  0
 10  9  1  0  0  0  0
 10 11  2  0  0  0  0
 11  7  1  0  0  0  0
 12 13  1  0  0  0  0
 13 14  2  0  0  0  0
 15 14  1  0  0  0  0
 16 15  2  0  0  0  0
 17 16  1  0  0  0  0
 18 17  2  0  0  0  0
 19 20  2  0  0  0  0
 19 18  1  0  0  0  0
 20 21  1  0  0  0  0
 21 12  2  0  0  0  0
 21 16  1  0  0  0  0
 22 23  2  0  0  0  0
 22 11  1  0  0  0  0
 24 23  1  0  0  0  0
 25 30  1  0  0  0  0
 25 24  1  0  0  0  0
 26 25  2  0  0  0  0
 27 28  2  0  0  0  0
 27 26  1  0  0  0  0
 28 29  1  0  0  0  0
 29 30  2  0  0  0  0
 30 22  1  0  0  0  0
 31 24  1  0  0  0  0
 32  9  1  0  0  0  0
 32 33  1  0  0  0  0
 34 32  1  0  0  0  0
 35 32  1  0  0  0  0
M  END
>  <minimizedAffinity>
-7.51577282

$$$$

 OpenBabel03272514433D

 35 40  0  0  0  0  0  0  0  0999 V2000
   31.5060   23.2830   46.5050 C   0  0  0  0  0  3  0  0  0  0  0  0
   32.0970   24.2830   47.2990 C   0  0  0  0  0  3  0  0  0  0  0  0
   31.5300   25.5640   47.2250 C   0  0  0  0  0  0  0  0  0  0  0  0
   30.5100   25.6490   46.4080 N   0  0  0  0  0  0  0  0  0  0  0  0
   29.9240   24.7300   45.6410 C   0  0  0  0  0  0  0  0  0  0  0  0
   30.4690   23.5240   45.7210 N   0  0  0  0  0  0  0  0  0  0  0  0
   32.0410   26.6550   47.9870 N   0  0  0  0  0  0  0  0  0  0  0  0
   33.3090   27.0530   47.8650 C   0  0  0  0  0  3  0  0  0  0  0  0
   33.4470   28.1130   48.6940 C   0  0  0  0  0  0  0  0  0  0  0  0
   32.2850   28.3400   49.2940 N   0  0  0  0  0  0  0  0  0  0  0  0
   31.3800   27.4200   48.8550 C   0  0  0  0  0  0  0  0  0  0  0  0
   28.7990   25.2400   44.8760 C   0  0  0  0  0  0  0  0  0  0  0  0
   28.5240   26.5910   44.8170 C   0  0  0  0  0  3  0  0  0  0  0  0
   27.4720   27.1430   44.1070 C   0  0  0  0  0  3  0  0  0  0  0  0
   26.6240   26.3230   43.4020 C   0  0  0  0  0  3  0  0  0  0  0  0
   26.8600   24.9880   43.4340 C   0  0  0  0  0  0  0  0  0  0  0  0
   26.0020   24.1760   42.7200 C   0  0  0  0  0  3  0  0  0  0  0  0
   26.1700   22.8070   42.6960 C   0  0  0  0  0  3  0  0  0  0  0  0
   27.2460   22.2820   43.4250 C   0  0  0  0  0  3  0  0  0  0  0  0
   28.0730   23.1390   44.1220 C   0  0  0  0  0  3  0  0  0  0  0  0
   27.9200   24.4940   44.1550 C   0  0  0  0  0  0  0  0  0  0  0  0
   30.0280   27.5090   49.3530 C   0  0  0  0  0  0  0  0  0  0  0  0
   29.2730   27.0190   50.3800 C   0  0  0  0  0  3  0  0  0  0  0  0
   27.9760   27.3320   50.3850 N   0  0  0  0  0  0  0  0  0  0  0  0
   27.7810   28.0930   49.3010 C   0  0  0  0  0  0  0  0  0  0  0  0
   26.6310   28.6830   48.8280 C   0  0  0  0  0  3  0  0  0  0  0  0
   26.6750   29.4300   47.6720 C   0  0  0  0  0  3  0  0  0  0  0  0
   27.8630   29.5900   46.9910 C   0  0  0  0  0  3  0  0  0  0  0  0
   28.9680   28.9770   47.5150 C   0  0  0  0  0  3  0  0  0  0  0  0
   28.9980   28.2020   48.6850 C   0  0  0  0  0  0  0  0  0  0  0  0
   27.2710   27.0470   51.0800 H   0  0  0  0  0  0  0  0  0  0  0  0
   34.6510   28.9490   48.9570 C   0  0  0  0  0  0  0  0  0  0  0  0
   35.6230   28.2910   49.6550 F   0  0  0  0  0  0  0  0  0  0  0  0
   34.2940   30.0820   49.7150 F   0  0  0  0  0  0  0  0  0  0  0  0
   35.1290   29.4870   47.7490 F   0  0  0  0  0  0  0  0  0  0  0  0
  1  2  1  0  0  0  0
  3  2  2  0  0  0  0
  3  7  1  0  0  0  0
  4  3  1  0  0  0  0
  5  6  1  0  0  0  0
  5  4  2  0  0  0  0
  6  1  2  0  0  0  0
  7 11  1  0  0  0  0
  8  7  1  0  0  0  0
  8  9  2  0  0  0  0
  9 32  1  0  0  0  0
  9 10  1  0  0  0  0
 11 10  2  0  0  0  0
 11 22  1  0  0  0  0
 12  5  1  0  0  0  0
 13 12  1  0  0  0  0
 14 13  2  0  0  0  0
 15 16  2  0  0  0  0
 15 14  1  0  0  0  0
 16 21  1  0  0  0  0
 17 16  1  0  0  0  0
 18 17  2  0  0  0  0
 18 19  1  0  0  0  0
 19 20  2  0  0  0  0
 20 21  1  0  0  0  0
 21 12  2  0  0  0  0
 22 23  2  0  0  0  0
 23 24  1  0  0  0  0
 24 31  1  0  0  0  0
 25 24  1  0  0  0  0
 26 25  1  0  0  0  0
 27 26  2  0  0  0  0
 28 29  2  0  0  0  0
 28 27  1  0  0  0  0
 29 30  1  0  0  0  0
 30 25  2  0  0  0  0
 30 22  1  0  0  0  0
 32 33  1  0  0  0  0
 32 34  1  0  0  0  0
 35 32  1  0  0  0  0
M  END
>  <minimizedAffinity>
-7.47156239

$$$$

 OpenBabel03272514433D

 35 40  0  0  0  0  0  0  0  0999 V2000
   32.4590   28.6500   47.1020 C   0  0  0  0  0  3  0  0  0  0  0  0
   32.0960   29.2950   45.9040 C   0  0  0  0  0  3  0  0  0  0  0  0
   33.0240   30.2000   45.3690 C   0  0  0  0  0  0  0  0  0  0  0  0
   34.1200   30.3200   46.0770 N   0  0  0  0  0  0  0  0  0  0  0  0
   34.4990   29.7310   47.2090 C   0  0  0  0  0  0  0  0  0  0  0  0
   33.6130   28.8770   47.7050 N   0  0  0  0  0  0  0  0  0  0  0  0
   32.7680   30.9090   44.1590 N   0  0  0  0  0  0  0  0  0  0  0  0
   31.7040   31.7050   44.0330 C   0  0  0  0  0  3  0  0  0  0  0  0
   31.7830   32.2350   42.7920 C   0  0  0  0  0  0  0  0  0  0  0  0
   32.8710   31.7650   42.1940 N   0  0  0  0  0  0  0  0  0  0  0  0
   33.5090   30.9200   43.0520 C   0  0  0  0  0  0  0  0  0  0  0  0
   35.8150   30.1430   47.6700 C   0  0  0  0  0  0  0  0  0  0  0  0
   36.7470   30.6700   46.8000 C   0  0  0  0  0  3  0  0  0  0  0  0
   38.0150   31.0820   47.1700 C   0  0  0  0  0  3  0  0  0  0  0  0
   38.4070   30.9760   48.4840 C   0  0  0  0  0  3  0  0  0  0  0  0
   37.5190   30.4630   49.3710 C   0  0  0  0  0  0  0  0  0  0  0  0
   37.9250   30.3640   50.6870 C   0  0  0  0  0  3  0  0  0  0  0  0
   37.0840   29.8550   51.6550 C   0  0  0  0  0  3  0  0  0  0  0  0
   35.8080   29.4470   51.2450 C   0  0  0  0  0  3  0  0  0  0  0  0
   35.4530   29.5690   49.9170 C   0  0  0  0  0  3  0  0  0  0  0  0
   36.2730   30.0690   48.9470 C   0  0  0  0  0  0  0  0  0  0  0  0
   34.7490   30.3230   42.6170 C   0  0  0  0  0  0  0  0  0  0  0  0
   35.1850   29.1850   41.9990 C   0  0  0  0  0  3  0  0  0  0  0  0
   36.5040   29.0280   41.8750 N   0  0  0  0  0  0  0  0  0  0  0  0
   37.0550   30.1140   42.4330 C   0  0  0  0  0  0  0  0  0  0  0  0
   38.3780   30.4610   42.5760 C   0  0  0  0  0  3  0  0  0  0  0  0
   38.7080   31.6460   43.1960 C   0  0  0  0  0  3  0  0  0  0  0  0
   37.7190   32.4830   43.6680 C   0  0  0  0  0  3  0  0  0  0  0  0
   36.4240   32.0780   43.4930 C   0  0  0  0  0  3  0  0  0  0  0  0
   36.0150   30.8870   42.8740 C   0  0  0  0  0  0  0  0  0  0  0  0
   36.9970   28.2350   41.4400 H   0  0  0  0  0  0  0  0  0  0  0  0
   30.8600   33.1910   42.1190 C   0  0  0  0  0  0  0  0  0  0  0  0
   30.0130   32.5900   41.2310 F   0  0  0  0  0  0  0  0  0  0  0  0
   31.6000   34.1500   41.3980 F   0  0  0  0  0  0  0  0  0  0  0  0
   30.1740   33.9490   43.0840 F   0  0  0  0  0  0  0  0  0  0  0  0
  1  6  1  0  0  0  0
  2  1  2  0  0  0  0
  3  2  1  0  0  0  0
  3  4  2  0  0  0  0
  4  5  1  0  0  0  0
  5 12  1  0  0  0  0
  5  6  2  0  0  0  0
  7  3  1  0  0  0  0
  8  7  1  0  0  0  0
  9  8  2  0  0  0  0
 10  9  1  0  0  0  0
 10 11  2  0  0  0  0
 11  7  1  0  0  0  0
 12 21  1  0  0  0  0
 13 14  1  0  0  0  0
 13 12  2  0  0  0  0
 14 15  2  0  0  0  0
 15 16  1  0  0  0  0
 16 17  1  0  0  0  0
 17 18  2  0  0  0  0
 19 18  1  0  0  0  0
 20 19  2  0  0  0  0
 21 16  2  0  0  0  0
 21 20  1  0  0  0  0
 22 30  1  0  0  0  0
 22 11  1  0  0  0  0
 23 22  2  0  0  0  0
 24 23  1  0  0  0  0
 24 25  1  0  0  0  0
 25 26  2  0  0  0  0
 25 30  1  0  0  0  0
 26 27  1  0  0  0  0
 27 28  2  0  0  0  0
 29 28  1  0  0  0  0
 30 29  2  0  0  0  0
 31 24  1  0  0  0  0
 32  9  1  0  0  0  0
 32 35  1  0  0  0  0
 33 32  1  0  0  0  0
 34 32  1  0  0  0  0
M  END
>  <minimizedAffinity>
-7.37458801

$$$$
