
 OpenBabel03272514343D

 28 32  0  0  0  0  0  0  0  0999 V2000
   34.1040   28.6220   44.5360 C   0  0  0  0  0  3  0  0  0  0  0  0
   32.7790   28.4790   44.9560 C   0  0  0  0  0  3  0  0  0  0  0  0
   32.5190   28.9430   46.2380 C   0  0  0  0  0  0  0  0  0  0  0  0
   33.5180   29.4680   46.9360 N   0  0  0  0  0  0  0  0  0  0  0  0
   34.7780   29.6110   46.5530 C   0  0  0  0  0  0  0  0  0  0  0  0
   35.0110   29.1670   45.3350 N   0  0  0  0  0  0  0  0  0  0  0  0
   31.2170   28.8660   46.8050 N   0  0  0  0  0  0  0  0  0  0  0  0
   30.0880   29.3530   46.2790 C   0  0  0  0  0  3  0  0  0  0  0  0
   29.0700   29.1000   47.0720 N   0  0  0  0  0  0  0  0  0  0  0  0
   29.5410   28.4360   48.1340 C   0  0  0  0  0  0  0  0  0  0  0  0
   30.8760   28.3040   47.9410 N   0  0  0  0  0  0  0  0  0  0  0  0
   35.9440   30.1590   47.2100 C   0  0  0  0  0  0  0  0  0  0  0  0
   36.8900   30.8870   46.5140 C   0  0  0  0  0  3  0  0  0  0  0  0
   38.0220   31.4350   47.0850 C   0  0  0  0  0  3  0  0  0  0  0  0
   38.2540   31.2660   48.4370 C   0  0  0  0  0  3  0  0  0  0  0  0
   37.3520   30.5610   49.1520 C   0  0  0  0  0  0  0  0  0  0  0  0
   37.5800   30.3870   50.5050 C   0  0  0  0  0  3  0  0  0  0  0  0
   36.7260   29.6900   51.3080 C   0  0  0  0  0  3  0  0  0  0  0  0
   35.5920   29.1460   50.7100 C   0  0  0  0  0  3  0  0  0  0  0  0
   35.4050   29.3410   49.3770 C   0  0  0  0  0  3  0  0  0  0  0  0
   36.2400   30.0290   48.5580 C   0  0  0  0  0  0  0  0  0  0  0  0
   28.9430   27.8840   49.3380 C   0  0  0  0  0  0  0  0  0  0  0  0
   29.3290   27.0350   50.2980 N   0  0  0  0  0  0  0  0  0  0  0  0
   28.3820   26.8690   51.1820 O   0  0  0  0  0  0  0  0  0  0  0  0
   27.3510   27.6170   50.8060 C   0  0  0  0  0  0  0  0  0  0  0  0
   27.6750   28.2570   49.6650 N   0  0  0  0  0  0  0  0  0  0  0  0
   26.2050   27.6330   51.5640 O   0  0  0  0  0  0  0  0  0  0  0  0
   25.4350   28.1900   51.2850 H   0  0  0  0  0  0  0  0  0  0  0  0
  1  2  2  0  0  0  0
  1  6  1  0  0  0  0
  2  3  1  0  0  0  0
  3  7  1  0  0  0  0
  3  4  2  0  0  0  0
  5  4  1  0  0  0  0
  5 12  1  0  0  0  0
  6  5  2  0  0  0  0
  7 11  1  0  0  0  0
  8  7  1  0  0  0  0
  8  9  2  0  0  0  0
  9 10  1  0  0  0  0
 10 22  1  0  0  0  0
 11 10  2  0  0  0  0
 12 21  1  0  0  0  0
 13 14  1  0  0  0  0
 13 12  2  0  0  0  0
 14 15  2  0  0  0  0
 15 16  1  0  0  0  0
 16 17  1  0  0  0  0
 17 18  2  0  0  0  0
 19 18  1  0  0  0  0
 20 19  2  0  0  0  0
 21 16  2  0  0  0  0
 21 20  1  0  0  0  0
 22 26  1  0  0  0  0
 22 23  2  0  0  0  0
 23 24  1  0  0  0  0
 25 24  1  0  0  0  0
 25 27  1  0  0  0  0
 26 25  2  0  0  0  0
 28 27  1  0  0  0  0
M  END
>  <minimizedAffinity>
-8.37402821

$$$$

 OpenBabel03272514343D

 28 32  0  0  0  0  0  0  0  0999 V2000
   33.7490   27.2570   45.8230 C   0  0  0  0  0  3  0  0  0  0  0  0
   32.4300   27.6320   45.5540 C   0  0  0  0  0  3  0  0  0  0  0  0
   31.9080   28.5900   46.4130 C   0  0  0  0  0  0  0  0  0  0  0  0
   32.6800   29.0540   47.3870 N   0  0  0  0  0  0  0  0  0  0  0  0
   33.9300   28.7100   47.6550 C   0  0  0  0  0  0  0  0  0  0  0  0
   34.4140   27.8010   46.8330 N   0  0  0  0  0  0  0  0  0  0  0  0
   30.5780   29.0720   46.2650 N   0  0  0  0  0  0  0  0  0  0  0  0
   30.0410   29.6070   45.1620 C   0  0  0  0  0  3  0  0  0  0  0  0
   28.7900   29.9430   45.3830 N   0  0  0  0  0  0  0  0  0  0  0  0
   28.5020   29.6230   46.6490 C   0  0  0  0  0  0  0  0  0  0  0  0
   29.6310   29.0830   47.1720 N   0  0  0  0  0  0  0  0  0  0  0  0
   34.8660   29.1360   48.6720 C   0  0  0  0  0  0  0  0  0  0  0  0
   34.7050   28.7810   49.9970 C   0  0  0  0  0  3  0  0  0  0  0  0
   35.5650   29.1550   51.0120 C   0  0  0  0  0  3  0  0  0  0  0  0
   36.6670   29.9350   50.7170 C   0  0  0  0  0  3  0  0  0  0  0  0
   36.8600   30.3030   49.4330 C   0  0  0  0  0  0  0  0  0  0  0  0
   37.9600   31.0850   49.1330 C   0  0  0  0  0  3  0  0  0  0  0  0
   38.2360   31.5060   47.8660 C   0  0  0  0  0  3  0  0  0  0  0  0
   37.3560   31.1150   46.8600 C   0  0  0  0  0  3  0  0  0  0  0  0
   36.2860   30.3460   47.1970 C   0  0  0  0  0  3  0  0  0  0  0  0
   35.9900   29.9170   48.4500 C   0  0  0  0  0  0  0  0  0  0  0  0
   27.3190   29.7340   47.4850 C   0  0  0  0  0  0  0  0  0  0  0  0
   26.6850   30.7250   48.1230 N   0  0  0  0  0  0  0  0  0  0  0  0
   25.6340   30.2760   48.7550 O   0  0  0  0  0  0  0  0  0  0  0  0
   25.5660   28.9680   48.5350 C   0  0  0  0  0  0  0  0  0  0  0  0
   26.6000   28.6090   47.7490 N   0  0  0  0  0  0  0  0  0  0  0  0
   24.5440   28.2330   49.0870 O   0  0  0  0  0  0  0  0  0  0  0  0
   24.4920   27.2580   48.9230 H   0  0  0  0  0  0  0  0  0  0  0  0
  1  6  1  0  0  0  0
  2  1  2  0  0  0  0
  2  3  1  0  0  0  0
  3  4  2  0  0  0  0
  4  5  1  0  0  0  0
  5 12  1  0  0  0  0
  6  5  2  0  0  0  0
  7  3  1  0  0  0  0
  7 11  1  0  0  0  0
  8  9  2  0  0  0  0
  8  7  1  0  0  0  0
  9 10  1  0  0  0  0
 10 11  2  0  0  0  0
 10 22  1  0  0  0  0
 12 13  1  0  0  0  0
 13 14  2  0  0  0  0
 15 14  1  0  0  0  0
 16 15  2  0  0  0  0
 17 16  1  0  0  0  0
 18 17  2  0  0  0  0
 19 20  2  0  0  0  0
 19 18  1  0  0  0  0
 20 21  1  0  0  0  0
 21 12  2  0  0  0  0
 21 16  1  0  0  0  0
 22 26  1  0  0  0  0
 22 23  2  0  0  0  0
 23 24  1  0  0  0  0
 25 24  1  0  0  0  0
 25 27  1  0  0  0  0
 26 25  2  0  0  0  0
 28 27  1  0  0  0  0
M  END
>  <minimizedAffinity>
-8.20984554

$$$$

 OpenBabel03272514343D

 28 32  0  0  0  0  0  0  0  0999 V2000
   32.8610   26.0910   47.3700 C   0  0  0  0  0  3  0  0  0  0  0  0
   31.5160   26.4150   47.1730 C   0  0  0  0  0  3  0  0  0  0  0  0
   31.2490   27.7730   47.0750 C   0  0  0  0  0  0  0  0  0  0  0  0
   32.2620   28.6250   47.1720 N   0  0  0  0  0  0  0  0  0  0  0  0
   33.5400   28.3360   47.3580 C   0  0  0  0  0  0  0  0  0  0  0  0
   33.7800   27.0440   47.4500 N   0  0  0  0  0  0  0  0  0  0  0  0
   29.9270   28.2570   46.8740 N   0  0  0  0  0  0  0  0  0  0  0  0
   29.0910   27.9080   45.8890 C   0  0  0  0  0  3  0  0  0  0  0  0
   27.9510   28.5500   46.0120 N   0  0  0  0  0  0  0  0  0  0  0  0
   28.0410   29.3310   47.0940 C   0  0  0  0  0  0  0  0  0  0  0  0
   29.2790   29.1280   47.6090 N   0  0  0  0  0  0  0  0  0  0  0  0
   34.7230   29.1600   47.4790 C   0  0  0  0  0  0  0  0  0  0  0  0
   35.2950   29.7710   46.3800 C   0  0  0  0  0  3  0  0  0  0  0  0
   36.4210   30.5690   46.4330 C   0  0  0  0  0  3  0  0  0  0  0  0
   37.0410   30.7920   47.6470 C   0  0  0  0  0  3  0  0  0  0  0  0
   36.5130   30.2130   48.7460 C   0  0  0  0  0  0  0  0  0  0  0  0
   37.1310   30.4320   49.9640 C   0  0  0  0  0  3  0  0  0  0  0  0
   36.6700   29.8890   51.1270 C   0  0  0  0  0  3  0  0  0  0  0  0
   35.5330   29.0880   51.0490 C   0  0  0  0  0  3  0  0  0  0  0  0
   34.9560   28.8980   49.8320 C   0  0  0  0  0  3  0  0  0  0  0  0
   35.3960   29.4270   48.6620 C   0  0  0  0  0  0  0  0  0  0  0  0
   27.1450   30.2650   47.7550 C   0  0  0  0  0  0  0  0  0  0  0  0
   26.6470   30.4060   48.9890 N   0  0  0  0  0  0  0  0  0  0  0  0
   25.8610   31.4470   49.0590 O   0  0  0  0  0  0  0  0  0  0  0  0
   25.8360   32.0080   47.8560 C   0  0  0  0  0  0  0  0  0  0  0  0
   26.6260   31.2930   47.0300 N   0  0  0  0  0  0  0  0  0  0  0  0
   25.0800   33.1350   47.6410 O   0  0  0  0  0  0  0  0  0  0  0  0
   25.0600   33.5550   46.7440 H   0  0  0  0  0  0  0  0  0  0  0  0
  1  6  1  0  0  0  0
  2  1  2  0  0  0  0
  3  4  2  0  0  0  0
  3  2  1  0  0  0  0
  4  5  1  0  0  0  0
  5  6  2  0  0  0  0
  5 12  1  0  0  0  0
  7  3  1  0  0  0  0
  7 11  1  0  0  0  0
  8  9  2  0  0  0  0
  8  7  1  0  0  0  0
  9 10  1  0  0  0  0
 10 11  2  0  0  0  0
 10 22  1  0  0  0  0
 12 21  1  0  0  0  0
 13 14  1  0  0  0  0
 13 12  2  0  0  0  0
 14 15  2  0  0  0  0
 15 16  1  0  0  0  0
 16 17  1  0  0  0  0
 17 18  2  0  0  0  0
 19 18  1  0  0  0  0
 20 19  2  0  0  0  0
 21 16  2  0  0  0  0
 21 20  1  0  0  0  0
 22 23  2  0  0  0  0
 23 24  1  0  0  0  0
 25 24  1  0  0  0  0
 26 22  1  0  0  0  0
 26 25  2  0  0  0  0
 27 25  1  0  0  0  0
 28 27  1  0  0  0  0
M  END
>  <minimizedAffinity>
-7.88608217

$$$$

 OpenBabel03272514343D

 28 32  0  0  0  0  0  0  0  0999 V2000
   33.6390   26.1340   47.4630 C   0  0  0  0  0  3  0  0  0  0  0  0
   32.3400   26.4570   47.0630 C   0  0  0  0  0  3  0  0  0  0  0  0
   31.9200   27.7320   47.4150 C   0  0  0  0  0  0  0  0  0  0  0  0
   32.7610   28.5140   48.0800 N   0  0  0  0  0  0  0  0  0  0  0  0
   33.9940   28.2240   48.4670 C   0  0  0  0  0  0  0  0  0  0  0  0
   34.3800   27.0110   48.1260 N   0  0  0  0  0  0  0  0  0  0  0  0
   30.6230   28.2060   47.0770 N   0  0  0  0  0  0  0  0  0  0  0  0
   30.0810   28.2440   45.8540 C   0  0  0  0  0  3  0  0  0  0  0  0
   28.8650   28.7410   45.9110 N   0  0  0  0  0  0  0  0  0  0  0  0
   28.6070   29.0330   47.1900 C   0  0  0  0  0  0  0  0  0  0  0  0
   29.7150   28.6890   47.8910 N   0  0  0  0  0  0  0  0  0  0  0  0
   34.9970   28.9760   49.1860 C   0  0  0  0  0  0  0  0  0  0  0  0
   35.1060   28.9060   50.5620 C   0  0  0  0  0  3  0  0  0  0  0  0
   36.0430   29.5980   51.3040 C   0  0  0  0  0  3  0  0  0  0  0  0
   36.9450   30.4240   50.6620 C   0  0  0  0  0  3  0  0  0  0  0  0
   36.8720   30.5200   49.3170 C   0  0  0  0  0  0  0  0  0  0  0  0
   37.7720   31.3470   48.6690 C   0  0  0  0  0  3  0  0  0  0  0  0
   37.7750   31.5080   47.3150 C   0  0  0  0  0  3  0  0  0  0  0  0
   36.8220   30.7990   46.5880 C   0  0  0  0  0  3  0  0  0  0  0  0
   35.9560   29.9970   47.2630 C   0  0  0  0  0  3  0  0  0  0  0  0
   35.9320   29.8220   48.6090 C   0  0  0  0  0  0  0  0  0  0  0  0
   27.4690   29.5940   47.8980 C   0  0  0  0  0  0  0  0  0  0  0  0
   26.6880   29.2100   48.9150 N   0  0  0  0  0  0  0  0  0  0  0  0
   25.7770   30.1120   49.1690 O   0  0  0  0  0  0  0  0  0  0  0  0
   25.9540   31.1090   48.3100 C   0  0  0  0  0  0  0  0  0  0  0  0
   26.9980   30.8120   47.5120 N   0  0  0  0  0  0  0  0  0  0  0  0
   25.1250   32.2040   48.3530 O   0  0  0  0  0  0  0  0  0  0  0  0
   25.2550   32.9490   47.7130 H   0  0  0  0  0  0  0  0  0  0  0  0
  1  6  1  0  0  0  0
  2  3  1  0  0  0  0
  2  1  2  0  0  0  0
  3  4  2  0  0  0  0
  4  5  1  0  0  0  0
  5 12  1  0  0  0  0
  6  5  2  0  0  0  0
  7  3  1  0  0  0  0
  7 11  1  0  0  0  0
  8  9  2  0  0  0  0
  8  7  1  0  0  0  0
  9 10  1  0  0  0  0
 10 11  2  0  0  0  0
 10 22  1  0  0  0  0
 12 13  1  0  0  0  0
 13 14  2  0  0  0  0
 15 14  1  0  0  0  0
 16 15  2  0  0  0  0
 17 16  1  0  0  0  0
 18 17  2  0  0  0  0
 19 20  2  0  0  0  0
 19 18  1  0  0  0  0
 20 21  1  0  0  0  0
 21 12  2  0  0  0  0
 21 16  1  0  0  0  0
 22 23  2  0  0  0  0
 23 24  1  0  0  0  0
 25 27  1  0  0  0  0
 25 24  1  0  0  0  0
 26 22  1  0  0  0  0
 26 25  2  0  0  0  0
 28 27  1  0  0  0  0
M  END
>  <minimizedAffinity>
-7.74380684

$$$$

 OpenBabel03272514343D

 28 32  0  0  0  0  0  0  0  0999 V2000
   33.1610   27.7510   45.3180 C   0  0  0  0  0  3  0  0  0  0  0  0
   31.8070   27.8560   45.6470 C   0  0  0  0  0  3  0  0  0  0  0  0
   31.5490   28.4140   46.8920 C   0  0  0  0  0  0  0  0  0  0  0  0
   32.5770   28.7900   47.6410 N   0  0  0  0  0  0  0  0  0  0  0  0
   33.8650   28.6980   47.3450 C   0  0  0  0  0  0  0  0  0  0  0  0
   34.0960   28.1670   46.1610 N   0  0  0  0  0  0  0  0  0  0  0  0
   30.2200   28.5860   47.3660 N   0  0  0  0  0  0  0  0  0  0  0  0
   29.2290   29.2360   46.7450 C   0  0  0  0  0  3  0  0  0  0  0  0
   28.1340   29.1970   47.4720 N   0  0  0  0  0  0  0  0  0  0  0  0
   28.4120   28.5100   48.5850 C   0  0  0  0  0  0  0  0  0  0  0  0
   29.7140   28.1430   48.4920 N   0  0  0  0  0  0  0  0  0  0  0  0
   35.0640   29.0660   48.0640 C   0  0  0  0  0  0  0  0  0  0  0  0
   35.2730   28.6710   49.3720 C   0  0  0  0  0  3  0  0  0  0  0  0
   36.3960   28.9890   50.1090 C   0  0  0  0  0  3  0  0  0  0  0  0
   37.3960   29.7510   49.5340 C   0  0  0  0  0  3  0  0  0  0  0  0
   37.2300   30.1560   48.2570 C   0  0  0  0  0  0  0  0  0  0  0  0
   38.2260   30.9190   47.6770 C   0  0  0  0  0  3  0  0  0  0  0  0
   38.1470   31.3750   46.3940 C   0  0  0  0  0  3  0  0  0  0  0  0
   37.0050   31.0410   45.6700 C   0  0  0  0  0  3  0  0  0  0  0  0
   36.0490   30.2880   46.2770 C   0  0  0  0  0  3  0  0  0  0  0  0
   36.1050   29.8250   47.5520 C   0  0  0  0  0  0  0  0  0  0  0  0
   27.6510   28.1220   49.7610 C   0  0  0  0  0  0  0  0  0  0  0  0
   26.4320   28.3890   50.2450 N   0  0  0  0  0  0  0  0  0  0  0  0
   26.2330   27.7650   51.3760 O   0  0  0  0  0  0  0  0  0  0  0  0
   27.3330   27.0740   51.6480 C   0  0  0  0  0  0  0  0  0  0  0  0
   28.2270   27.2790   50.6610 N   0  0  0  0  0  0  0  0  0  0  0  0
   27.4000   26.3160   52.7920 O   0  0  0  0  0  0  0  0  0  0  0  0
   28.2190   25.8000   52.9980 H   0  0  0  0  0  0  0  0  0  0  0  0
  1  2  2  0  0  0  0
  1  6  1  0  0  0  0
  2  3  1  0  0  0  0
  3  7  1  0  0  0  0
  3  4  2  0  0  0  0
  5  4  1  0  0  0  0
  5 12  1  0  0  0  0
  6  5  2  0  0  0  0
  7 11  1  0  0  0  0
  8  7  1  0  0  0  0
  8  9  2  0  0  0  0
  9 10  1  0  0  0  0
 10 22  1  0  0  0  0
 11 10  2  0  0  0  0
 12 13  1  0  0  0  0
 13 14  2  0  0  0  0
 15 14  1  0  0  0  0
 16 15  2  0  0  0  0
 17 16  1  0  0  0  0
 18 17  2  0  0  0  0
 19 20  2  0  0  0  0
 19 18  1  0  0  0  0
 20 21  1  0  0  0  0
 21 12  2  0  0  0  0
 21 16  1  0  0  0  0
 22 23  2  0  0  0  0
 22 26  1  0  0  0  0
 23 24  1  0  0  0  0
 24 25  1  0  0  0  0
 25 27  1  0  0  0  0
 26 25  2  0  0  0  0
 27 28  1  0  0  0  0
M  END
>  <minimizedAffinity>
-7.71771955

$$$$

 OpenBabel03272514343D

 28 32  0  0  0  0  0  0  0  0999 V2000
   33.5350   27.1880   47.0220 C   0  0  0  0  0  3  0  0  0  0  0  0
   33.1000   27.8380   45.8640 C   0  0  0  0  0  3  0  0  0  0  0  0
   33.5330   29.1500   45.7320 C   0  0  0  0  0  0  0  0  0  0  0  0
   34.3000   29.6620   46.6870 N   0  0  0  0  0  0  0  0  0  0  0  0
   34.7210   29.0600   47.7890 C   0  0  0  0  0  0  0  0  0  0  0  0
   34.3030   27.8160   47.9020 N   0  0  0  0  0  0  0  0  0  0  0  0
   33.1730   29.9410   44.6070 N   0  0  0  0  0  0  0  0  0  0  0  0
   33.3650   29.6300   43.3190 C   0  0  0  0  0  3  0  0  0  0  0  0
   32.9080   30.5910   42.5470 N   0  0  0  0  0  0  0  0  0  0  0  0
   32.4090   31.5450   43.3410 C   0  0  0  0  0  0  0  0  0  0  0  0
   32.5860   31.1140   44.6140 N   0  0  0  0  0  0  0  0  0  0  0  0
   35.5480   29.5010   48.8900 C   0  0  0  0  0  0  0  0  0  0  0  0
   35.3300   29.0590   50.1810 C   0  0  0  0  0  3  0  0  0  0  0  0
   36.0860   29.4430   51.2710 C   0  0  0  0  0  3  0  0  0  0  0  0
   37.1350   30.3240   51.0970 C   0  0  0  0  0  3  0  0  0  0  0  0
   37.3810   30.7800   49.8500 C   0  0  0  0  0  0  0  0  0  0  0  0
   38.4300   31.6630   49.6700 C   0  0  0  0  0  3  0  0  0  0  0  0
   38.7530   32.1760   48.4490 C   0  0  0  0  0  3  0  0  0  0  0  0
   37.9780   31.7750   47.3640 C   0  0  0  0  0  3  0  0  0  0  0  0
   36.9560   30.9050   47.5840 C   0  0  0  0  0  3  0  0  0  0  0  0
   36.6140   30.3810   48.7890 C   0  0  0  0  0  0  0  0  0  0  0  0
   31.7730   32.8320   43.1120 C   0  0  0  0  0  0  0  0  0  0  0  0
   32.1760   34.1070   43.0740 N   0  0  0  0  0  0  0  0  0  0  0  0
   31.1730   34.9060   42.8220 O   0  0  0  0  0  0  0  0  0  0  0  0
   30.0880   34.1520   42.6910 C   0  0  0  0  0  0  0  0  0  0  0  0
   30.4350   32.8620   42.8660 N   0  0  0  0  0  0  0  0  0  0  0  0
   28.8750   34.7390   42.4190 O   0  0  0  0  0  0  0  0  0  0  0  0
   28.0650   34.1790   42.3200 H   0  0  0  0  0  0  0  0  0  0  0  0
  1  6  1  0  0  0  0
  2  1  2  0  0  0  0
  3  2  1  0  0  0  0
  3  4  2  0  0  0  0
  4  5  1  0  0  0  0
  5  6  2  0  0  0  0
  5 12  1  0  0  0  0
  7 11  1  0  0  0  0
  7  3  1  0  0  0  0
  8  7  1  0  0  0  0
  9  8  2  0  0  0  0
  9 10  1  0  0  0  0
 10 11  2  0  0  0  0
 12 13  1  0  0  0  0
 13 14  2  0  0  0  0
 15 14  1  0  0  0  0
 16 15  2  0  0  0  0
 17 16  1  0  0  0  0
 18 17  2  0  0  0  0
 19 20  2  0  0  0  0
 19 18  1  0  0  0  0
 20 21  1  0  0  0  0
 21 12  2  0  0  0  0
 21 16  1  0  0  0  0
 22 10  1  0  0  0  0
 23 22  2  0  0  0  0
 24 23  1  0  0  0  0
 25 24  1  0  0  0  0
 25 26  2  0  0  0  0
 26 22  1  0  0  0  0
 27 25  1  0  0  0  0
 28 27  1  0  0  0  0
M  END
>  <minimizedAffinity>
-7.71015358

$$$$

 OpenBabel03272514343D

 28 32  0  0  0  0  0  0  0  0999 V2000
   35.2120   29.9870   44.7030 C   0  0  0  0  0  3  0  0  0  0  0  0
   33.8770   30.1790   44.3370 C   0  0  0  0  0  3  0  0  0  0  0  0
   32.9840   30.2520   45.3980 C   0  0  0  0  0  0  0  0  0  0  0  0
   33.4580   30.1360   46.6320 N   0  0  0  0  0  0  0  0  0  0  0  0
   34.7180   29.9540   46.9950 C   0  0  0  0  0  0  0  0  0  0  0  0
   35.5550   29.8880   45.9800 N   0  0  0  0  0  0  0  0  0  0  0  0
   31.5920   30.4450   45.1840 N   0  0  0  0  0  0  0  0  0  0  0  0
   31.0220   31.4380   44.4900 C   0  0  0  0  0  3  0  0  0  0  0  0
   29.7140   31.3040   44.4970 N   0  0  0  0  0  0  0  0  0  0  0  0
   29.4230   30.2070   45.2050 C   0  0  0  0  0  0  0  0  0  0  0  0
   30.6080   29.6940   45.6180 N   0  0  0  0  0  0  0  0  0  0  0  0
   35.3540   29.8160   48.2870 C   0  0  0  0  0  0  0  0  0  0  0  0
   34.8790   28.9300   49.2350 C   0  0  0  0  0  3  0  0  0  0  0  0
   35.4440   28.7520   50.4830 C   0  0  0  0  0  3  0  0  0  0  0  0
   36.5560   29.4910   50.8400 C   0  0  0  0  0  3  0  0  0  0  0  0
   37.0510   30.3670   49.9400 C   0  0  0  0  0  0  0  0  0  0  0  0
   38.1630   31.1100   50.2920 C   0  0  0  0  0  3  0  0  0  0  0  0
   38.7320   32.0200   49.4510 C   0  0  0  0  0  3  0  0  0  0  0  0
   38.1460   32.1810   48.1980 C   0  0  0  0  0  3  0  0  0  0  0  0
   37.0540   31.4310   47.8910 C   0  0  0  0  0  3  0  0  0  0  0  0
   36.4690   30.5220   48.7110 C   0  0  0  0  0  0  0  0  0  0  0  0
   28.1920   29.5290   45.5760 C   0  0  0  0  0  0  0  0  0  0  0  0
   27.5660   29.2370   46.7220 N   0  0  0  0  0  0  0  0  0  0  0  0
   26.4530   28.5930   46.4940 O   0  0  0  0  0  0  0  0  0  0  0  0
   26.3360   28.4540   45.1780 C   0  0  0  0  0  0  0  0  0  0  0  0
   27.4020   29.0270   44.5870 N   0  0  0  0  0  0  0  0  0  0  0  0
   25.2440   27.8060   44.6530 O   0  0  0  0  0  0  0  0  0  0  0  0
   25.1550   27.7010   43.6720 H   0  0  0  0  0  0  0  0  0  0  0  0
  1  6  1  0  0  0  0
  2  1  2  0  0  0  0
  2  3  1  0  0  0  0
  3  4  2  0  0  0  0
  4  5  1  0  0  0  0
  5 12  1  0  0  0  0
  6  5  2  0  0  0  0
  7  3  1  0  0  0  0
  7 11  1  0  0  0  0
  8  9  2  0  0  0  0
  8  7  1  0  0  0  0
  9 10  1  0  0  0  0
 10 22  1  0  0  0  0
 10 11  2  0  0  0  0
 12 21  2  0  0  0  0
 12 13  1  0  0  0  0
 13 14  2  0  0  0  0
 14 15  1  0  0  0  0
 16 17  1  0  0  0  0
 16 15  2  0  0  0  0
 18 17  2  0  0  0  0
 19 18  1  0  0  0  0
 20 19  2  0  0  0  0
 20 21  1  0  0  0  0
 21 16  1  0  0  0  0
 22 23  2  0  0  0  0
 24 23  1  0  0  0  0
 25 24  1  0  0  0  0
 26 25  2  0  0  0  0
 26 22  1  0  0  0  0
 27 25  1  0  0  0  0
 28 27  1  0  0  0  0
M  END
>  <minimizedAffinity>
-7.42601013

$$$$

 OpenBabel03272514343D

 28 32  0  0  0  0  0  0  0  0999 V2000
   32.6550   27.9070   48.3700 C   0  0  0  0  0  3  0  0  0  0  0  0
   31.7230   28.1710   47.3630 C   0  0  0  0  0  3  0  0  0  0  0  0
   32.1330   29.0980   46.4150 C   0  0  0  0  0  0  0  0  0  0  0  0
   33.3380   29.6390   46.5400 N   0  0  0  0  0  0  0  0  0  0  0  0
   34.2320   29.4000   47.4860 C   0  0  0  0  0  0  0  0  0  0  0  0
   33.8320   28.5180   48.3790 N   0  0  0  0  0  0  0  0  0  0  0  0
   31.2930   29.4700   45.3290 N   0  0  0  0  0  0  0  0  0  0  0  0
   30.7250   28.6460   44.4410 C   0  0  0  0  0  3  0  0  0  0  0  0
   30.0130   29.3320   43.5760 N   0  0  0  0  0  0  0  0  0  0  0  0
   30.1140   30.6240   43.9020 C   0  0  0  0  0  0  0  0  0  0  0  0
   30.9140   30.6810   44.9950 N   0  0  0  0  0  0  0  0  0  0  0  0
   35.5610   29.9160   47.7290 C   0  0  0  0  0  0  0  0  0  0  0  0
   36.3400   30.4210   46.7060 C   0  0  0  0  0  3  0  0  0  0  0  0
   37.6130   30.9280   46.8770 C   0  0  0  0  0  3  0  0  0  0  0  0
   38.1760   30.9470   48.1380 C   0  0  0  0  0  3  0  0  0  0  0  0
   37.4470   30.4630   49.1660 C   0  0  0  0  0  0  0  0  0  0  0  0
   38.0060   30.4780   50.4310 C   0  0  0  0  0  3  0  0  0  0  0  0
   37.3460   30.0090   51.5290 C   0  0  0  0  0  3  0  0  0  0  0  0
   36.0630   29.5030   51.3320 C   0  0  0  0  0  3  0  0  0  0  0  0
   35.5500   29.5070   50.0730 C   0  0  0  0  0  3  0  0  0  0  0  0
   36.1870   29.9660   48.9650 C   0  0  0  0  0  0  0  0  0  0  0  0
   29.5770   31.8600   43.3560 C   0  0  0  0  0  0  0  0  0  0  0  0
   28.3760   32.2830   42.9430 N   0  0  0  0  0  0  0  0  0  0  0  0
   28.4360   33.5200   42.5280 O   0  0  0  0  0  0  0  0  0  0  0  0
   29.6930   33.9260   42.6670 C   0  0  0  0  0  0  0  0  0  0  0  0
   30.4190   32.9140   43.1790 N   0  0  0  0  0  0  0  0  0  0  0  0
   30.0430   35.2040   42.3030 O   0  0  0  0  0  0  0  0  0  0  0  0
   30.9800   35.5090   42.4060 H   0  0  0  0  0  0  0  0  0  0  0  0
  1  6  1  0  0  0  0
  2  1  2  0  0  0  0
  3  4  2  0  0  0  0
  3  2  1  0  0  0  0
  4  5  1  0  0  0  0
  5 12  1  0  0  0  0
  5  6  2  0  0  0  0
  7  3  1  0  0  0  0
  8  7  1  0  0  0  0
  9 10  1  0  0  0  0
  9  8  2  0  0  0  0
 10 11  2  0  0  0  0
 11  7  1  0  0  0  0
 12 21  1  0  0  0  0
 13 14  1  0  0  0  0
 13 12  2  0  0  0  0
 14 15  2  0  0  0  0
 15 16  1  0  0  0  0
 16 17  1  0  0  0  0
 17 18  2  0  0  0  0
 19 18  1  0  0  0  0
 20 19  2  0  0  0  0
 21 16  2  0  0  0  0
 21 20  1  0  0  0  0
 22 10  1  0  0  0  0
 23 22  2  0  0  0  0
 24 25  1  0  0  0  0
 24 23  1  0  0  0  0
 25 26  2  0  0  0  0
 26 22  1  0  0  0  0
 27 28  1  0  0  0  0
 27 25  1  0  0  0  0
M  END
>  <minimizedAffinity>
-7.37573671

$$$$

 OpenBabel03272514343D

 28 32  0  0  0  0  0  0  0  0999 V2000
   33.8100   27.1690   44.7570 C   0  0  0  0  0  3  0  0  0  0  0  0
   32.4250   27.3530   44.7780 C   0  0  0  0  0  3  0  0  0  0  0  0
   31.9840   28.3840   45.5960 C   0  0  0  0  0  0  0  0  0  0  0  0
   32.8860   29.0860   46.2700 N   0  0  0  0  0  0  0  0  0  0  0  0
   34.2000   28.9250   46.2620 C   0  0  0  0  0  0  0  0  0  0  0  0
   34.6060   27.9450   45.4810 N   0  0  0  0  0  0  0  0  0  0  0  0
   30.6020   28.6930   45.7210 N   0  0  0  0  0  0  0  0  0  0  0  0
   29.7540   28.9720   44.7240 C   0  0  0  0  0  3  0  0  0  0  0  0
   28.5520   29.2080   45.2020 N   0  0  0  0  0  0  0  0  0  0  0  0
   28.6140   29.0820   46.5320 C   0  0  0  0  0  0  0  0  0  0  0  0
   29.8980   28.7600   46.8260 N   0  0  0  0  0  0  0  0  0  0  0  0
   35.2750   29.6140   46.9400 C   0  0  0  0  0  0  0  0  0  0  0  0
   36.2030   30.3680   46.2470 C   0  0  0  0  0  3  0  0  0  0  0  0
   37.2490   31.0490   46.8380 C   0  0  0  0  0  3  0  0  0  0  0  0
   37.4080   30.9950   48.2100 C   0  0  0  0  0  3  0  0  0  0  0  0
   36.5220   30.2690   48.9240 C   0  0  0  0  0  0  0  0  0  0  0  0
   36.6770   30.2110   50.2970 C   0  0  0  0  0  3  0  0  0  0  0  0
   35.8330   29.5030   51.1000 C   0  0  0  0  0  3  0  0  0  0  0  0
   34.7850   28.8250   50.4810 C   0  0  0  0  0  3  0  0  0  0  0  0
   34.6670   28.9090   49.1290 C   0  0  0  0  0  3  0  0  0  0  0  0
   35.4950   29.6050   48.3090 C   0  0  0  0  0  0  0  0  0  0  0  0
   27.6530   29.2110   47.6150 C   0  0  0  0  0  0  0  0  0  0  0  0
   27.5810   29.9060   48.7560 N   0  0  0  0  0  0  0  0  0  0  0  0
   26.4660   29.6520   49.3870 O   0  0  0  0  0  0  0  0  0  0  0  0
   25.7860   28.7770   48.6570 C   0  0  0  0  0  0  0  0  0  0  0  0
   26.5010   28.4880   47.5520 N   0  0  0  0  0  0  0  0  0  0  0  0
   24.5600   28.3300   49.0900 O   0  0  0  0  0  0  0  0  0  0  0  0
   24.0510   27.6770   48.5460 H   0  0  0  0  0  0  0  0  0  0  0  0
  1  2  2  0  0  0  0
  1  6  1  0  0  0  0
  2  3  1  0  0  0  0
  3  7  1  0  0  0  0
  3  4  2  0  0  0  0
  5  4  1  0  0  0  0
  5 12  1  0  0  0  0
  6  5  2  0  0  0  0
  7 11  1  0  0  0  0
  8  9  2  0  0  0  0
  8  7  1  0  0  0  0
  9 10  1  0  0  0  0
 10 11  2  0  0  0  0
 10 22  1  0  0  0  0
 12 21  1  0  0  0  0
 13 14  1  0  0  0  0
 13 12  2  0  0  0  0
 14 15  2  0  0  0  0
 15 16  1  0  0  0  0
 16 17  1  0  0  0  0
 17 18  2  0  0  0  0
 19 18  1  0  0  0  0
 20 19  2  0  0  0  0
 21 16  2  0  0  0  0
 21 20  1  0  0  0  0
 22 23  2  0  0  0  0
 23 24  1  0  0  0  0
 25 27  1  0  0  0  0
 25 24  1  0  0  0  0
 26 22  1  0  0  0  0
 26 25  2  0  0  0  0
 28 27  1  0  0  0  0
M  END
>  <minimizedAffinity>
-7.32240534

$$$$
