
 OpenBabel03272514373D

 37 43  0  0  1  0  0  0  0  0999 V2000
   28.7960   27.1460   50.0870 C   0  0  0  0  0  3  0  0  0  0  0  0
   27.9800   27.0700   48.9590 C   0  0  0  0  0  3  0  0  0  0  0  0
   28.5710   27.2930   47.7150 C   0  0  0  0  0  0  0  0  0  0  0  0
   29.9080   27.5730   47.6300 N   0  0  0  0  0  0  0  0  0  0  0  0
   30.6450   27.6340   48.7310 C   0  0  0  0  0  0  0  0  0  0  0  0
   30.1070   27.4260   49.9580 N   0  0  0  0  0  0  0  0  0  0  0  0
   32.1080   27.8940   48.8490 C   0  0  1  0  0  3  0  0  0  0  0  0
   33.0120   26.9380   47.9750 C   0  0  0  0  0  2  0  0  0  0  0  0
   32.9080   28.3880   47.7050 C   0  0  2  0  0  3  0  0  0  0  0  0
   34.1250   29.1780   47.8300 C   0  0  0  0  0  0  0  0  0  0  0  0
   34.5560   29.8710   46.6890 C   0  0  0  0  0  3  0  0  0  0  0  0
   35.6960   30.5190   46.9910 N   0  0  0  0  0  0  0  0  0  0  0  0
   36.0610   30.3060   48.2680 C   0  0  0  0  0  0  0  0  0  0  0  0
   37.0710   30.6730   49.1320 C   0  0  0  0  0  3  0  0  0  0  0  0
   37.1060   30.2340   50.4460 C   0  0  0  0  0  3  0  0  0  0  0  0
   36.0920   29.3930   50.9140 C   0  0  0  0  0  3  0  0  0  0  0  0
   35.0900   29.0340   50.0480 C   0  0  0  0  0  3  0  0  0  0  0  0
   35.0760   29.4800   48.7500 C   0  0  0  0  0  0  0  0  0  0  0  0
   36.2230   31.1050   46.3270 H   0  0  0  0  0  0  0  0  0  0  0  0
   27.6580   27.1900   46.7010 O   0  0  0  0  0  0  0  0  0  0  0  0
   26.7460   28.2510   46.3540 C   0  0  1  0  0  3  0  0  0  0  0  0
   26.8210   29.4200   47.1990 C   0  0  0  0  0  2  0  0  0  0  0  0
   27.5190   29.5070   45.8720 C   0  0  2  0  0  3  0  0  0  0  0  0
   26.8910   30.3460   44.8710 N   0  0  0  0  0  0  0  0  0  0  0  0
   26.6180   30.1480   43.5520 C   0  0  0  0  0  3  0  0  0  0  0  0
   26.0110   31.2550   43.0580 N   0  0  0  0  0  0  0  0  0  0  0  0
   25.9120   32.1420   44.0890 C   0  0  0  0  0  0  0  0  0  0  0  0
   25.3640   33.4160   44.0840 C   0  0  0  0  0  0  0  0  0  0  0  0
   24.8590   33.9490   43.0610 O   0  0  0  0  0  0  0  0  0  0  0  0
   25.4020   34.0770   45.2700 N   0  0  0  0  0  0  0  0  0  0  0  0
   25.9320   33.5340   46.3660 C   0  0  0  0  0  0  0  0  0  0  0  0
   26.0110   34.1520   47.6370 N   0  0  0  0  0  0  0  0  0  0  0  0
   26.4390   32.3310   46.3400 N   0  0  0  0  0  0  0  0  0  0  0  0
   26.4590   31.5660   45.2060 C   0  0  0  0  0  0  0  0  0  0  0  0
   25.0100   35.0270   45.3240 H   0  0  0  0  0  0  0  0  0  0  0  0
   26.4400   33.6500   48.4280 H   0  0  0  0  0  0  0  0  0  0  0  0
   25.6410   35.1040   47.7710 H   0  0  0  0  0  0  0  0  0  0  0  0
  2  1  2  0  0  0  0
  3  2  1  0  0  0  0
  4  3  2  0  0  0  0
  4  5  1  0  0  0  0
  5  6  2  0  0  0  0
  6  1  1  0  0  0  0
  7  5  1  6  0  0  0
  8  7  1  0  0  0  0
  9 10  1  1  0  0  0
  9  8  1  0  0  0  0
  9  7  1  0  0  0  0
 10 18  1  0  0  0  0
 11 12  1  0  0  0  0
 11 10  2  0  0  0  0
 12 13  1  0  0  0  0
 13 18  2  0  0  0  0
 13 14  1  0  0  0  0
 14 15  2  0  0  0  0
 15 16  1  0  0  0  0
 17 16  2  0  0  0  0
 18 17  1  0  0  0  0
 19 12  1  0  0  0  0
 20  3  1  0  0  0  0
 21 20  1  1  0  0  0
 21 22  1  0  0  0  0
 23 24  1  6  0  0  0
 23 21  1  0  0  0  0
 23 22  1  0  0  0  0
 24 34  1  0  0  0  0
 25 24  1  0  0  0  0
 26 25  2  0  0  0  0
 26 27  1  0  0  0  0
 27 34  2  0  0  0  0
 28 27  1  0  0  0  0
 28 30  1  0  0  0  0
 29 28  2  0  0  0  0
 30 35  1  0  0  0  0
 30 31  1  0  0  0  0
 31 32  1  0  0  0  0
 32 37  1  0  0  0  0
 32 36  1  0  0  0  0
 33 31  2  0  0  0  0
 34 33  1  0  0  0  0
M  END
>  <minimizedAffinity>
-8.76755428

$$$$

 OpenBabel03272514373D

 37 43  0  0  1  0  0  0  0  0999 V2000
   30.4330   26.4410   46.5480 C   0  0  0  0  0  3  0  0  0  0  0  0
   29.2830   26.9840   47.1200 C   0  0  0  0  0  3  0  0  0  0  0  0
   29.4410   27.8070   48.2360 C   0  0  0  0  0  0  0  0  0  0  0  0
   30.6910   28.0570   48.7340 N   0  0  0  0  0  0  0  0  0  0  0  0
   31.7560   27.5180   48.1560 C   0  0  0  0  0  0  0  0  0  0  0  0
   31.6440   26.7130   47.0720 N   0  0  0  0  0  0  0  0  0  0  0  0
   33.1910   27.6890   48.5230 C   0  0  1  0  0  3  0  0  0  0  0  0
   34.1370   28.0390   47.3080 C   0  0  0  0  0  2  0  0  0  0  0  0
   33.8770   28.9970   48.4040 C   0  0  2  0  0  3  0  0  0  0  0  0
   35.0140   29.4070   49.2140 C   0  0  0  0  0  0  0  0  0  0  0  0
   35.0450   28.9600   50.5430 C   0  0  0  0  0  3  0  0  0  0  0  0
   36.1500   29.4540   51.1330 N   0  0  0  0  0  0  0  0  0  0  0  0
   36.8670   30.2080   50.2810 C   0  0  0  0  0  0  0  0  0  0  0  0
   38.0330   30.9450   50.2800 C   0  0  0  0  0  3  0  0  0  0  0  0
   38.4740   31.6160   49.1500 C   0  0  0  0  0  3  0  0  0  0  0  0
   37.7170   31.5480   47.9750 C   0  0  0  0  0  3  0  0  0  0  0  0
   36.5600   30.8130   47.9860 C   0  0  0  0  0  3  0  0  0  0  0  0
   36.1420   30.1580   49.1170 C   0  0  0  0  0  0  0  0  0  0  0  0
   36.4130   29.2760   52.1130 H   0  0  0  0  0  0  0  0  0  0  0  0
   28.2360   28.2670   48.6940 O   0  0  0  0  0  0  0  0  0  0  0  0
   27.1950   28.7470   47.8200 C   0  0  1  0  0  3  0  0  0  0  0  0
   26.2590   29.6600   48.4320 C   0  0  0  0  0  2  0  0  0  0  0  0
   27.3350   30.2730   47.5840 C   0  0  2  0  0  3  0  0  0  0  0  0
   26.9160   30.8010   46.3000 N   0  0  0  0  0  0  0  0  0  0  0  0
   26.9530   30.2830   45.0420 C   0  0  0  0  0  3  0  0  0  0  0  0
   26.4320   31.1880   44.1780 N   0  0  0  0  0  0  0  0  0  0  0  0
   26.0710   32.2760   44.9180 C   0  0  0  0  0  0  0  0  0  0  0  0
   25.4920   33.4600   44.4900 C   0  0  0  0  0  0  0  0  0  0  0  0
   25.2100   33.6970   43.2850 O   0  0  0  0  0  0  0  0  0  0  0  0
   25.2380   34.3760   45.4600 N   0  0  0  0  0  0  0  0  0  0  0  0
   25.5280   34.1470   46.7410 C   0  0  0  0  0  0  0  0  0  0  0  0
   25.2980   35.0450   47.8120 N   0  0  0  0  0  0  0  0  0  0  0  0
   26.0730   33.0210   47.1150 N   0  0  0  0  0  0  0  0  0  0  0  0
   26.3760   32.0220   46.2300 C   0  0  0  0  0  0  0  0  0  0  0  0
   24.8090   35.2740   45.1980 H   0  0  0  0  0  0  0  0  0  0  0  0
   25.5560   34.7780   48.7720 H   0  0  0  0  0  0  0  0  0  0  0  0
   24.8710   35.9650   47.6300 H   0  0  0  0  0  0  0  0  0  0  0  0
  1  6  2  0  0  0  0
  1  2  1  0  0  0  0
  2  3  2  0  0  0  0
  3 20  1  0  0  0  0
  3  4  1  0  0  0  0
  5  4  2  0  0  0  0
  6  5  1  0  0  0  0
  7  5  1  6  0  0  0
  8  9  1  0  0  0  0
  8  7  1  0  0  0  0
  9  7  1  0  0  0  0
  9 10  1  1  0  0  0
 10 11  2  0  0  0  0
 11 12  1  0  0  0  0
 12 19  1  0  0  0  0
 13 12  1  0  0  0  0
 14 13  1  0  0  0  0
 15 14  2  0  0  0  0
 16 17  2  0  0  0  0
 16 15  1  0  0  0  0
 17 18  1  0  0  0  0
 18 10  1  0  0  0  0
 18 13  2  0  0  0  0
 21 22  1  0  0  0  0
 21 20  1  1  0  0  0
 23 24  1  6  0  0  0
 23 21  1  0  0  0  0
 23 22  1  0  0  0  0
 25 24  1  0  0  0  0
 26 27  1  0  0  0  0
 26 25  2  0  0  0  0
 27 34  2  0  0  0  0
 28 27  1  0  0  0  0
 28 30  1  0  0  0  0
 29 28  2  0  0  0  0
 30 31  1  0  0  0  0
 31 33  2  0  0  0  0
 31 32  1  0  0  0  0
 32 36  1  0  0  0  0
 34 24  1  0  0  0  0
 34 33  1  0  0  0  0
 35 30  1  0  0  0  0
 37 32  1  0  0  0  0
M  END
>  <minimizedAffinity>
-8.71675205

$$$$

 OpenBabel03272514373D

 37 43  0  0  1  0  0  0  0  0999 V2000
   32.9200   25.8560   47.5520 C   0  0  0  0  0  3  0  0  0  0  0  0
   31.5390   25.8350   47.7420 C   0  0  0  0  0  3  0  0  0  0  0  0
   30.9490   26.9530   48.3330 C   0  0  0  0  0  0  0  0  0  0  0  0
   31.7190   28.0200   48.7050 N   0  0  0  0  0  0  0  0  0  0  0  0
   33.0300   27.9960   48.5040 C   0  0  0  0  0  0  0  0  0  0  0  0
   33.6410   26.9280   47.9350 N   0  0  0  0  0  0  0  0  0  0  0  0
   34.0310   29.0580   48.8080 C   0  0  1  0  0  3  0  0  0  0  0  0
   34.3760   29.2080   50.3420 C   0  0  0  0  0  2  0  0  0  0  0  0
   35.3700   28.7370   49.3540 C   0  0  2  0  0  3  0  0  0  0  0  0
   36.5570   29.5570   49.1590 C   0  0  0  0  0  0  0  0  0  0  0  0
   37.4330   29.6800   50.2470 C   0  0  0  0  0  3  0  0  0  0  0  0
   38.4500   30.4850   49.8870 N   0  0  0  0  0  0  0  0  0  0  0  0
   38.3120   30.9130   48.6190 C   0  0  0  0  0  0  0  0  0  0  0  0
   38.9840   31.7110   47.7170 C   0  0  0  0  0  3  0  0  0  0  0  0
   38.5100   31.9230   46.4320 C   0  0  0  0  0  3  0  0  0  0  0  0
   37.3160   31.3140   46.0340 C   0  0  0  0  0  3  0  0  0  0  0  0
   36.6550   30.5210   46.9370 C   0  0  0  0  0  3  0  0  0  0  0  0
   37.1420   30.3260   48.2060 C   0  0  0  0  0  0  0  0  0  0  0  0
   39.2340   30.7410   50.5040 H   0  0  0  0  0  0  0  0  0  0  0  0
   29.5950   26.7960   48.4600 O   0  0  0  0  0  0  0  0  0  0  0  0
   28.6750   26.9930   47.3670 C   0  0  1  0  0  3  0  0  0  0  0  0
   27.2880   27.1110   47.7530 C   0  0  0  0  0  2  0  0  0  0  0  0
   28.0110   28.3930   47.4540 C   0  0  2  0  0  3  0  0  0  0  0  0
   27.6580   29.0530   46.2120 N   0  0  0  0  0  0  0  0  0  0  0  0
   27.7360   28.6570   44.9120 C   0  0  0  0  0  3  0  0  0  0  0  0
   27.2720   29.6550   44.1210 N   0  0  0  0  0  0  0  0  0  0  0  0
   26.9050   30.6760   44.9490 C   0  0  0  0  0  0  0  0  0  0  0  0
   26.3720   31.9110   44.6150 C   0  0  0  0  0  0  0  0  0  0  0  0
   26.1460   32.2710   43.4290 O   0  0  0  0  0  0  0  0  0  0  0  0
   26.0990   32.7350   45.6590 N   0  0  0  0  0  0  0  0  0  0  0  0
   26.3300   32.3770   46.9220 C   0  0  0  0  0  0  0  0  0  0  0  0
   26.0760   33.1730   48.0650 N   0  0  0  0  0  0  0  0  0  0  0  0
   26.8330   31.2060   47.2060 N   0  0  0  0  0  0  0  0  0  0  0  0
   27.1490   30.2880   46.2410 C   0  0  0  0  0  0  0  0  0  0  0  0
   25.7020   33.6660   45.4700 H   0  0  0  0  0  0  0  0  0  0  0  0
   26.2880   32.8080   49.0040 H   0  0  0  0  0  0  0  0  0  0  0  0
   25.6790   34.1170   47.9580 H   0  0  0  0  0  0  0  0  0  0  0  0
  1  2  2  0  0  0  0
  1  6  1  0  0  0  0
  2  3  1  0  0  0  0
  3 20  1  0  0  0  0
  3  4  2  0  0  0  0
  5  4  1  0  0  0  0
  6  5  2  0  0  0  0
  7  5  1  1  0  0  0
  7  9  1  0  0  0  0
  7  8  1  0  0  0  0
  9 10  1  6  0  0  0
  9  8  1  0  0  0  0
 10 11  2  0  0  0  0
 12 11  1  0  0  0  0
 12 19  1  0  0  0  0
 13 12  1  0  0  0  0
 14 13  2  0  0  0  0
 15 14  1  0  0  0  0
 16 15  2  0  0  0  0
 16 17  1  0  0  0  0
 17 18  2  0  0  0  0
 18 13  1  0  0  0  0
 18 10  1  0  0  0  0
 21 23  1  0  0  0  0
 21 22  1  0  0  0  0
 21 20  1  1  0  0  0
 23 24  1  6  0  0  0
 23 22  1  0  0  0  0
 24 34  1  0  0  0  0
 25 24  1  0  0  0  0
 26 25  2  0  0  0  0
 26 27  1  0  0  0  0
 27 34  2  0  0  0  0
 28 27  1  0  0  0  0
 28 30  1  0  0  0  0
 29 28  2  0  0  0  0
 30 31  1  0  0  0  0
 31 33  2  0  0  0  0
 31 32  1  0  0  0  0
 32 36  1  0  0  0  0
 34 33  1  0  0  0  0
 35 30  1  0  0  0  0
 37 32  1  0  0  0  0
M  END
>  <minimizedAffinity>
-8.65821934

$$$$

 OpenBabel03272514373D

 37 43  0  0  1  0  0  0  0  0999 V2000
   30.9910   29.0830   45.4610 C   0  0  0  0  0  3  0  0  0  0  0  0
   29.7790   28.3970   45.5270 C   0  0  0  0  0  3  0  0  0  0  0  0
   29.5750   27.5450   46.6140 C   0  0  0  0  0  0  0  0  0  0  0  0
   30.5440   27.4060   47.5690 N   0  0  0  0  0  0  0  0  0  0  0  0
   31.6820   28.0800   47.4640 C   0  0  0  0  0  0  0  0  0  0  0  0
   31.9190   28.9140   46.4240 N   0  0  0  0  0  0  0  0  0  0  0  0
   32.8390   28.0890   48.4040 C   0  0  1  0  0  3  0  0  0  0  0  0
   34.0060   27.1010   48.0100 C   0  0  0  0  0  2  0  0  0  0  0  0
   34.1770   28.5690   47.9900 C   0  0  2  0  0  3  0  0  0  0  0  0
   35.1650   29.1370   48.8960 C   0  0  0  0  0  0  0  0  0  0  0  0
   35.0440   28.8160   50.2560 C   0  0  0  0  0  3  0  0  0  0  0  0
   36.0230   29.4450   50.9310 N   0  0  0  0  0  0  0  0  0  0  0  0
   36.8000   30.1720   50.1080 C   0  0  0  0  0  0  0  0  0  0  0  0
   37.9060   30.9930   50.1840 C   0  0  0  0  0  3  0  0  0  0  0  0
   38.4520   31.5910   49.0590 C   0  0  0  0  0  3  0  0  0  0  0  0
   37.8690   31.3600   47.8100 C   0  0  0  0  0  3  0  0  0  0  0  0
   36.7700   30.5410   47.7430 C   0  0  0  0  0  3  0  0  0  0  0  0
   36.2450   29.9610   48.8710 C   0  0  0  0  0  0  0  0  0  0  0  0
   36.1610   29.3780   51.9500 H   0  0  0  0  0  0  0  0  0  0  0  0
   28.3500   26.9380   46.5510 O   0  0  0  0  0  0  0  0  0  0  0  0
   27.1360   27.5670   47.0060 C   0  0  1  0  0  3  0  0  0  0  0  0
   26.7660   27.2630   48.3690 C   0  0  0  0  0  2  0  0  0  0  0  0
   27.4350   28.5870   48.1370 C   0  0  2  0  0  3  0  0  0  0  0  0
   26.5880   29.7590   48.2330 N   0  0  0  0  0  0  0  0  0  0  0  0
   25.6170   30.1150   49.1180 C   0  0  0  0  0  3  0  0  0  0  0  0
   25.1220   31.3260   48.7640 N   0  0  0  0  0  0  0  0  0  0  0  0
   25.8000   31.7170   47.6470 C   0  0  0  0  0  0  0  0  0  0  0  0
   25.6570   32.8830   46.9110 C   0  0  0  0  0  0  0  0  0  0  0  0
   24.8270   33.7860   47.1990 O   0  0  0  0  0  0  0  0  0  0  0  0
   26.4770   33.0050   45.8360 N   0  0  0  0  0  0  0  0  0  0  0  0
   27.3620   32.0630   45.5110 C   0  0  0  0  0  0  0  0  0  0  0  0
   28.2520   32.1100   44.4100 N   0  0  0  0  0  0  0  0  0  0  0  0
   27.4760   30.9740   46.2240 N   0  0  0  0  0  0  0  0  0  0  0  0
   26.7050   30.7370   47.3300 C   0  0  0  0  0  0  0  0  0  0  0  0
   26.4130   33.8510   45.2530 H   0  0  0  0  0  0  0  0  0  0  0  0
   28.9020   31.3310   44.2400 H   0  0  0  0  0  0  0  0  0  0  0  0
   28.2480   32.9250   43.7790 H   0  0  0  0  0  0  0  0  0  0  0  0
  1  2  2  0  0  0  0
  1  6  1  0  0  0  0
  2  3  1  0  0  0  0
  3  4  2  0  0  0  0
  5  4  1  0  0  0  0
  6  5  2  0  0  0  0
  7  5  1  6  0  0  0
  8  7  1  0  0  0  0
  9  8  1  0  0  0  0
  9  7  1  0  0  0  0
  9 10  1  1  0  0  0
 10 11  2  0  0  0  0
 11 12  1  0  0  0  0
 12 19  1  0  0  0  0
 13 14  1  0  0  0  0
 13 12  1  0  0  0  0
 15 14  2  0  0  0  0
 16 15  1  0  0  0  0
 17 16  2  0  0  0  0
 17 18  1  0  0  0  0
 18 10  1  0  0  0  0
 18 13  2  0  0  0  0
 20  3  1  0  0  0  0
 21 20  1  1  0  0  0
 21 23  1  0  0  0  0
 21 22  1  0  0  0  0
 23 24  1  6  0  0  0
 23 22  1  0  0  0  0
 24 25  1  0  0  0  0
 26 25  2  0  0  0  0
 27 26  1  0  0  0  0
 28 29  2  0  0  0  0
 28 27  1  0  0  0  0
 30 28  1  0  0  0  0
 31 30  1  0  0  0  0
 31 33  2  0  0  0  0
 32 31  1  0  0  0  0
 33 34  1  0  0  0  0
 34 27  2  0  0  0  0
 34 24  1  0  0  0  0
 35 30  1  0  0  0  0
 36 32  1  0  0  0  0
 37 32  1  0  0  0  0
M  END
>  <minimizedAffinity>
-8.57493019

$$$$

 OpenBabel03272514373D

 37 43  0  0  1  0  0  0  0  0999 V2000
   30.1820   26.5580   46.5660 C   0  0  0  0  0  3  0  0  0  0  0  0
   29.0420   26.5740   47.3690 C   0  0  0  0  0  3  0  0  0  0  0  0
   29.1810   27.0230   48.6830 C   0  0  0  0  0  0  0  0  0  0  0  0
   30.4030   27.4290   49.1440 N   0  0  0  0  0  0  0  0  0  0  0  0
   31.4600   27.3970   48.3440 C   0  0  0  0  0  0  0  0  0  0  0  0
   31.3660   26.9660   47.0620 N   0  0  0  0  0  0  0  0  0  0  0  0
   32.8580   27.8200   48.6420 C   0  0  1  0  0  3  0  0  0  0  0  0
   33.9680   26.9350   47.9510 C   0  0  0  0  0  2  0  0  0  0  0  0
   33.7540   28.3520   47.5900 C   0  0  2  0  0  3  0  0  0  0  0  0
   34.8530   29.2750   47.8340 C   0  0  0  0  0  0  0  0  0  0  0  0
   35.2840   30.0550   46.7510 C   0  0  0  0  0  3  0  0  0  0  0  0
   36.3110   30.8220   47.1600 N   0  0  0  0  0  0  0  0  0  0  0  0
   36.6000   30.6070   48.4560 C   0  0  0  0  0  0  0  0  0  0  0  0
   37.4900   31.0600   49.4080 C   0  0  0  0  0  3  0  0  0  0  0  0
   37.4770   30.5800   50.7090 C   0  0  0  0  0  3  0  0  0  0  0  0
   36.5380   29.6100   51.0710 C   0  0  0  0  0  3  0  0  0  0  0  0
   35.6560   29.1660   50.1180 C   0  0  0  0  0  3  0  0  0  0  0  0
   35.6890   29.6540   48.8360 C   0  0  0  0  0  0  0  0  0  0  0  0
   36.8130   31.4900   46.5570 H   0  0  0  0  0  0  0  0  0  0  0  0
   27.9890   26.9830   49.3540 O   0  0  0  0  0  0  0  0  0  0  0  0
   26.8880   27.8650   49.0550 C   0  0  1  0  0  3  0  0  0  0  0  0
   26.2730   28.4840   50.2060 C   0  0  0  0  0  2  0  0  0  0  0  0
   27.2390   29.3290   49.4270 C   0  0  2  0  0  3  0  0  0  0  0  0
   26.6620   30.3890   48.6250 N   0  0  0  0  0  0  0  0  0  0  0  0
   25.7010   31.3160   48.8890 C   0  0  0  0  0  3  0  0  0  0  0  0
   25.5230   32.0900   47.7910 N   0  0  0  0  0  0  0  0  0  0  0  0
   26.3880   31.6300   46.8410 C   0  0  0  0  0  0  0  0  0  0  0  0
   26.5820   32.0960   45.5500 C   0  0  0  0  0  0  0  0  0  0  0  0
   25.9420   33.0630   45.0580 O   0  0  0  0  0  0  0  0  0  0  0  0
   27.5210   31.4380   44.8220 N   0  0  0  0  0  0  0  0  0  0  0  0
   28.2100   30.4110   45.3200 C   0  0  0  0  0  0  0  0  0  0  0  0
   29.2030   29.6720   44.6320 N   0  0  0  0  0  0  0  0  0  0  0  0
   28.0060   29.9950   46.5410 N   0  0  0  0  0  0  0  0  0  0  0  0
   27.0870   30.5780   47.3710 C   0  0  0  0  0  0  0  0  0  0  0  0
   27.7060   31.7410   43.8560 H   0  0  0  0  0  0  0  0  0  0  0  0
   29.6830   28.8930   45.1020 H   0  0  0  0  0  0  0  0  0  0  0  0
   29.4450   29.9150   43.6600 H   0  0  0  0  0  0  0  0  0  0  0  0
  1  6  2  0  0  0  0
  1  2  1  0  0  0  0
  2  3  2  0  0  0  0
  3  4  1  0  0  0  0
  3 20  1  0  0  0  0
  5  4  2  0  0  0  0
  6  5  1  0  0  0  0
  7  5  1  6  0  0  0
  8  7  1  0  0  0  0
  9 10  1  1  0  0  0
  9  8  1  0  0  0  0
  9  7  1  0  0  0  0
 10 18  1  0  0  0  0
 11 12  1  0  0  0  0
 11 10  2  0  0  0  0
 12 13  1  0  0  0  0
 13 18  2  0  0  0  0
 13 14  1  0  0  0  0
 14 15  2  0  0  0  0
 15 16  1  0  0  0  0
 17 16  2  0  0  0  0
 18 17  1  0  0  0  0
 19 12  1  0  0  0  0
 21 20  1  1  0  0  0
 21 23  1  0  0  0  0
 21 22  1  0  0  0  0
 23 24  1  6  0  0  0
 23 22  1  0  0  0  0
 24 25  1  0  0  0  0
 26 25  2  0  0  0  0
 27 34  2  0  0  0  0
 27 26  1  0  0  0  0
 28 27  1  0  0  0  0
 29 28  2  0  0  0  0
 30 31  1  0  0  0  0
 30 28  1  0  0  0  0
 31 33  2  0  0  0  0
 32 36  1  0  0  0  0
 32 31  1  0  0  0  0
 33 34  1  0  0  0  0
 34 24  1  0  0  0  0
 35 30  1  0  0  0  0
 37 32  1  0  0  0  0
M  END
>  <minimizedAffinity>
-8.49428082

$$$$

 OpenBabel03272514373D

 37 43  0  0  1  0  0  0  0  0999 V2000
   33.0480   30.6400   43.3390 C   0  0  0  0  0  3  0  0  0  0  0  0
   31.6570   30.7140   43.2680 C   0  0  0  0  0  3  0  0  0  0  0  0
   30.9420   30.6160   44.4620 C   0  0  0  0  0  0  0  0  0  0  0  0
   31.6040   30.4520   45.6480 N   0  0  0  0  0  0  0  0  0  0  0  0
   32.9280   30.3870   45.6670 C   0  0  0  0  0  0  0  0  0  0  0  0
   33.6590   30.4770   44.5290 N   0  0  0  0  0  0  0  0  0  0  0  0
   33.8290   30.2430   46.8460 C   0  0  1  0  0  3  0  0  0  0  0  0
   34.3300   28.7680   47.1060 C   0  0  0  0  0  2  0  0  0  0  0  0
   35.2500   29.8510   46.6990 C   0  0  2  0  0  3  0  0  0  0  0  0
   36.3050   30.2150   47.6330 C   0  0  0  0  0  0  0  0  0  0  0  0
   37.4410   30.8420   47.1000 C   0  0  0  0  0  3  0  0  0  0  0  0
   38.3060   31.0800   48.1040 N   0  0  0  0  0  0  0  0  0  0  0  0
   37.8220   30.6510   49.2830 C   0  0  0  0  0  0  0  0  0  0  0  0
   38.2060   30.6110   50.6070 C   0  0  0  0  0  3  0  0  0  0  0  0
   37.3930   30.0660   51.5890 C   0  0  0  0  0  3  0  0  0  0  0  0
   36.1480   29.5390   51.2310 C   0  0  0  0  0  3  0  0  0  0  0  0
   35.7750   29.5830   49.9120 C   0  0  0  0  0  3  0  0  0  0  0  0
   36.5970   30.1270   48.9570 C   0  0  0  0  0  0  0  0  0  0  0  0
   39.2240   31.5330   47.9830 H   0  0  0  0  0  0  0  0  0  0  0  0
   29.5930   30.7020   44.2460 O   0  0  0  0  0  0  0  0  0  0  0  0
   28.6620   29.6880   44.6730 C   0  0  1  0  0  3  0  0  0  0  0  0
   29.2060   28.3520   44.7450 C   0  0  0  0  0  2  0  0  0  0  0  0
   29.0830   29.0960   46.0430 C   0  0  2  0  0  3  0  0  0  0  0  0
   28.0350   28.6510   46.9400 N   0  0  0  0  0  0  0  0  0  0  0  0
   27.6510   27.4130   47.3560 C   0  0  0  0  0  3  0  0  0  0  0  0
   26.6040   27.5410   48.2070 N   0  0  0  0  0  0  0  0  0  0  0  0
   26.3430   28.8760   48.3140 C   0  0  0  0  0  0  0  0  0  0  0  0
   25.3680   29.5090   49.0680 C   0  0  0  0  0  0  0  0  0  0  0  0
   24.5450   28.8930   49.7950 O   0  0  0  0  0  0  0  0  0  0  0  0
   25.3440   30.8640   48.9800 N   0  0  0  0  0  0  0  0  0  0  0  0
   26.2040   31.5390   48.2170 C   0  0  0  0  0  0  0  0  0  0  0  0
   26.2480   32.9460   48.0690 N   0  0  0  0  0  0  0  0  0  0  0  0
   27.1140   30.9140   47.5180 N   0  0  0  0  0  0  0  0  0  0  0  0
   27.2380   29.5510   47.5250 C   0  0  0  0  0  0  0  0  0  0  0  0
   24.6390   31.3870   49.5180 H   0  0  0  0  0  0  0  0  0  0  0  0
   26.9520   33.3780   47.4540 H   0  0  0  0  0  0  0  0  0  0  0  0
   25.5740   33.5390   48.5760 H   0  0  0  0  0  0  0  0  0  0  0  0
  1  6  1  0  0  0  0
  2  1  2  0  0  0  0
  2  3  1  0  0  0  0
  3  4  2  0  0  0  0
  4  5  1  0  0  0  0
  6  5  2  0  0  0  0
  7  5  1  6  0  0  0
  7  8  1  0  0  0  0
  9  7  1  0  0  0  0
  9  8  1  0  0  0  0
  9 10  1  1  0  0  0
 10 18  1  0  0  0  0
 11 10  2  0  0  0  0
 11 12  1  0  0  0  0
 12 13  1  0  0  0  0
 13 14  1  0  0  0  0
 14 15  2  0  0  0  0
 16 15  1  0  0  0  0
 17 16  2  0  0  0  0
 18 13  2  0  0  0  0
 18 17  1  0  0  0  0
 19 12  1  0  0  0  0
 20  3  1  0  0  0  0
 21 20  1  6  0  0  0
 21 22  1  0  0  0  0
 21 23  1  0  0  0  0
 23 22  1  6  0  0  0
 23 24  1  0  0  0  0
 24 25  1  0  0  0  0
 24 34  1  0  0  0  0
 25 26  2  0  0  0  0
 26 27  1  0  0  0  0
 27 28  1  0  0  0  0
 28 29  2  0  0  0  0
 30 28  1  0  0  0  0
 30 35  1  0  0  0  0
 31 30  1  0  0  0  0
 32 31  1  0  0  0  0
 32 37  1  0  0  0  0
 33 34  1  0  0  0  0
 33 31  2  0  0  0  0
 34 27  2  0  0  0  0
 36 32  1  0  0  0  0
M  END
>  <minimizedAffinity>
-8.39902782

$$$$

 OpenBabel03272514373D

 37 43  0  0  1  0  0  0  0  0999 V2000
   32.4780   31.2190   43.6670 C   0  0  0  0  0  3  0  0  0  0  0  0
   31.1010   31.0050   43.6500 C   0  0  0  0  0  3  0  0  0  0  0  0
   30.5180   30.4450   44.7880 C   0  0  0  0  0  0  0  0  0  0  0  0
   31.2910   30.1270   45.8710 N   0  0  0  0  0  0  0  0  0  0  0  0
   32.5980   30.3500   45.8420 C   0  0  0  0  0  0  0  0  0  0  0  0
   33.2020   30.8890   44.7550 N   0  0  0  0  0  0  0  0  0  0  0  0
   33.6010   30.1040   46.9170 C   0  0  1  0  0  3  0  0  0  0  0  0
   34.2420   28.6610   46.8920 C   0  0  0  0  0  2  0  0  0  0  0  0
   35.0330   29.8780   46.6130 C   0  0  2  0  0  3  0  0  0  0  0  0
   36.1260   30.1860   47.5240 C   0  0  0  0  0  0  0  0  0  0  0  0
   37.2860   30.7420   46.9640 C   0  0  0  0  0  3  0  0  0  0  0  0
   38.1840   30.9360   47.9480 N   0  0  0  0  0  0  0  0  0  0  0  0
   37.6990   30.5430   49.1400 C   0  0  0  0  0  0  0  0  0  0  0  0
   38.1070   30.4890   50.4560 C   0  0  0  0  0  3  0  0  0  0  0  0
   37.2840   29.9980   51.4580 C   0  0  0  0  0  3  0  0  0  0  0  0
   36.0030   29.5420   51.1290 C   0  0  0  0  0  3  0  0  0  0  0  0
   35.6060   29.6000   49.8170 C   0  0  0  0  0  3  0  0  0  0  0  0
   36.4390   30.0890   48.8420 C   0  0  0  0  0  0  0  0  0  0  0  0
   39.1230   31.3340   47.8060 H   0  0  0  0  0  0  0  0  0  0  0  0
   29.1670   30.2900   44.6330 O   0  0  0  0  0  0  0  0  0  0  0  0
   28.2320   30.4010   45.7250 C   0  0  1  0  0  3  0  0  0  0  0  0
   26.8450   30.2380   45.3580 C   0  0  0  0  0  2  0  0  0  0  0  0
   27.5180   29.0480   45.9780 C   0  0  2  0  0  3  0  0  0  0  0  0
   27.1320   28.7300   47.3390 N   0  0  0  0  0  0  0  0  0  0  0  0
   25.9200   28.6680   47.9560 C   0  0  0  0  0  3  0  0  0  0  0  0
   26.1040   28.3190   49.2520 N   0  0  0  0  0  0  0  0  0  0  0  0
   27.4480   28.1650   49.4320 C   0  0  0  0  0  0  0  0  0  0  0  0
   28.1310   27.8110   50.5840 C   0  0  0  0  0  0  0  0  0  0  0  0
   27.5620   27.5740   51.6830 O   0  0  0  0  0  0  0  0  0  0  0  0
   29.4820   27.7320   50.4660 N   0  0  0  0  0  0  0  0  0  0  0  0
   30.1070   27.9780   49.3150 C   0  0  0  0  0  0  0  0  0  0  0  0
   31.5060   27.9180   49.1060 N   0  0  0  0  0  0  0  0  0  0  0  0
   29.4360   28.3090   48.2450 N   0  0  0  0  0  0  0  0  0  0  0  0
   28.0720   28.4210   48.2380 C   0  0  0  0  0  0  0  0  0  0  0  0
   30.0410   27.4740   51.2920 H   0  0  0  0  0  0  0  0  0  0  0  0
   31.8970   28.1260   48.1770 H   0  0  0  0  0  0  0  0  0  0  0  0
   32.1330   27.6670   49.8850 H   0  0  0  0  0  0  0  0  0  0  0  0
  1  6  1  0  0  0  0
  2  1  2  0  0  0  0
  2  3  1  0  0  0  0
  3  4  2  0  0  0  0
  5  4  1  0  0  0  0
  6  5  2  0  0  0  0
  7  5  1  6  0  0  0
  8  7  1  0  0  0  0
  9  8  1  0  0  0  0
  9  7  1  0  0  0  0
  9 10  1  1  0  0  0
 10 18  1  0  0  0  0
 11 10  2  0  0  0  0
 11 12  1  0  0  0  0
 12 13  1  0  0  0  0
 13 14  1  0  0  0  0
 14 15  2  0  0  0  0
 16 15  1  0  0  0  0
 17 16  2  0  0  0  0
 18 13  2  0  0  0  0
 18 17  1  0  0  0  0
 19 12  1  0  0  0  0
 20  3  1  0  0  0  0
 21 20  1  6  0  0  0
 21 23  1  0  0  0  0
 22 21  1  0  0  0  0
 23 22  1  6  0  0  0
 23 24  1  0  0  0  0
 24 25  1  0  0  0  0
 24 34  1  0  0  0  0
 25 26  2  0  0  0  0
 26 27  1  0  0  0  0
 27 28  1  0  0  0  0
 28 29  2  0  0  0  0
 30 28  1  0  0  0  0
 30 35  1  0  0  0  0
 31 30  1  0  0  0  0
 32 31  1  0  0  0  0
 32 37  1  0  0  0  0
 33 31  2  0  0  0  0
 34 33  1  0  0  0  0
 34 27  2  0  0  0  0
 36 32  1  0  0  0  0
M  END
>  <minimizedAffinity>
-8.25375175

$$$$

 OpenBabel03272514373D

 37 43  0  0  1  0  0  0  0  0999 V2000
   29.4850   26.9700   48.4580 C   0  0  0  0  0  3  0  0  0  0  0  0
   29.1060   27.3040   47.1590 C   0  0  0  0  0  3  0  0  0  0  0  0
   30.0780   27.8550   46.3220 C   0  0  0  0  0  0  0  0  0  0  0  0
   31.3510   28.0500   46.7830 N   0  0  0  0  0  0  0  0  0  0  0  0
   31.6650   27.7170   48.0280 C   0  0  0  0  0  0  0  0  0  0  0  0
   30.7500   27.1810   48.8720 N   0  0  0  0  0  0  0  0  0  0  0  0
   32.9890   27.8210   48.7050 C   0  0  1  0  0  3  0  0  0  0  0  0
   34.1930   27.2200   47.8780 C   0  0  0  0  0  2  0  0  0  0  0  0
   34.0790   28.6660   48.1640 C   0  0  2  0  0  3  0  0  0  0  0  0
   35.1290   29.2710   48.9700 C   0  0  0  0  0  0  0  0  0  0  0  0
   35.0920   29.0320   50.3510 C   0  0  0  0  0  3  0  0  0  0  0  0
   36.1200   29.6840   50.9250 N   0  0  0  0  0  0  0  0  0  0  0  0
   36.8510   30.3500   50.0120 C   0  0  0  0  0  0  0  0  0  0  0  0
   37.9680   31.1560   49.9690 C   0  0  0  0  0  3  0  0  0  0  0  0
   38.4480   31.6790   48.7780 C   0  0  0  0  0  3  0  0  0  0  0  0
   37.7830   31.3840   47.5840 C   0  0  0  0  0  3  0  0  0  0  0  0
   36.6730   30.5800   47.6360 C   0  0  0  0  0  3  0  0  0  0  0  0
   36.2140   30.0750   48.8270 C   0  0  0  0  0  0  0  0  0  0  0  0
   36.3220   29.6750   51.9350 H   0  0  0  0  0  0  0  0  0  0  0  0
   29.5700   28.1360   45.0830 O   0  0  0  0  0  0  0  0  0  0  0  0
   29.1970   29.4650   44.6680 C   0  0  1  0  0  3  0  0  0  0  0  0
   28.6640   29.5590   43.3290 C   0  0  0  0  0  2  0  0  0  0  0  0
   27.6650   29.5640   44.4510 C   0  0  2  0  0  3  0  0  0  0  0  0
   27.0220   30.8330   44.7300 N   0  0  0  0  0  0  0  0  0  0  0  0
   26.5440   31.8150   43.9180 C   0  0  0  0  0  3  0  0  0  0  0  0
   26.0280   32.8070   44.6840 N   0  0  0  0  0  0  0  0  0  0  0  0
   26.1930   32.4270   45.9840 C   0  0  0  0  0  0  0  0  0  0  0  0
   25.8250   33.1040   47.1360 C   0  0  0  0  0  0  0  0  0  0  0  0
   25.2590   34.2290   47.1280 O   0  0  0  0  0  0  0  0  0  0  0  0
   26.1160   32.4760   48.3050 N   0  0  0  0  0  0  0  0  0  0  0  0
   26.7150   31.2860   48.3380 C   0  0  0  0  0  0  0  0  0  0  0  0
   27.0530   30.5650   49.5090 N   0  0  0  0  0  0  0  0  0  0  0  0
   27.0480   30.6710   47.2360 N   0  0  0  0  0  0  0  0  0  0  0  0
   26.8080   31.2020   45.9970 C   0  0  0  0  0  0  0  0  0  0  0  0
   25.8660   32.9340   49.1920 H   0  0  0  0  0  0  0  0  0  0  0  0
   27.5160   29.6490   49.4340 H   0  0  0  0  0  0  0  0  0  0  0  0
   26.8350   30.9570   50.4370 H   0  0  0  0  0  0  0  0  0  0  0  0
  1  6  1  0  0  0  0
  2  1  2  0  0  0  0
  3  4  2  0  0  0  0
  3  2  1  0  0  0  0
  4  5  1  0  0  0  0
  5  6  2  0  0  0  0
  7  5  1  6  0  0  0
  8  9  1  0  0  0  0
  8  7  1  0  0  0  0
  9  7  1  0  0  0  0
  9 10  1  1  0  0  0
 10 11  2  0  0  0  0
 11 12  1  0  0  0  0
 12 19  1  0  0  0  0
 13 12  1  0  0  0  0
 14 13  1  0  0  0  0
 15 14  2  0  0  0  0
 16 17  2  0  0  0  0
 16 15  1  0  0  0  0
 17 18  1  0  0  0  0
 18 10  1  0  0  0  0
 18 13  2  0  0  0  0
 20  3  1  0  0  0  0
 21 20  1  6  0  0  0
 22 21  1  0  0  0  0
 23 22  1  6  0  0  0
 23 21  1  0  0  0  0
 23 24  1  0  0  0  0
 24 34  1  0  0  0  0
 25 26  2  0  0  0  0
 25 24  1  0  0  0  0
 26 27  1  0  0  0  0
 27 34  2  0  0  0  0
 27 28  1  0  0  0  0
 28 30  1  0  0  0  0
 29 28  2  0  0  0  0
 30 31  1  0  0  0  0
 30 35  1  0  0  0  0
 31 32  1  0  0  0  0
 32 37  1  0  0  0  0
 33 31  2  0  0  0  0
 34 33  1  0  0  0  0
 36 32  1  0  0  0  0
M  END
>  <minimizedAffinity>
-8.11830235

$$$$

 OpenBabel03272514373D

 37 43  0  0  1  0  0  0  0  0999 V2000
   32.9790   28.2890   42.8770 C   0  0  0  0  0  3  0  0  0  0  0  0
   31.7130   28.7070   43.2870 C   0  0  0  0  0  3  0  0  0  0  0  0
   31.6100   29.3450   44.5230 C   0  0  0  0  0  0  0  0  0  0  0  0
   32.7260   29.5440   45.2890 N   0  0  0  0  0  0  0  0  0  0  0  0
   33.9100   29.1300   44.8580 C   0  0  0  0  0  0  0  0  0  0  0  0
   34.0510   28.5040   43.6650 N   0  0  0  0  0  0  0  0  0  0  0  0
   35.2360   29.2750   45.5230 C   0  0  1  0  0  3  0  0  0  0  0  0
   36.1500   30.4100   44.9120 C   0  0  0  0  0  2  0  0  0  0  0  0
   35.6000   30.4940   46.2810 C   0  0  2  0  0  3  0  0  0  0  0  0
   36.5530   30.5260   47.3810 C   0  0  0  0  0  0  0  0  0  0  0  0
   37.8430   30.9960   47.0950 C   0  0  0  0  0  3  0  0  0  0  0  0
   38.5800   30.9310   48.2190 N   0  0  0  0  0  0  0  0  0  0  0  0
   37.8640   30.4440   49.2490 C   0  0  0  0  0  0  0  0  0  0  0  0
   38.0390   30.1550   50.5860 C   0  0  0  0  0  3  0  0  0  0  0  0
   37.0120   29.6430   51.3640 C   0  0  0  0  0  3  0  0  0  0  0  0
   35.7620   29.4100   50.7810 C   0  0  0  0  0  3  0  0  0  0  0  0
   35.5980   29.7010   49.4510 C   0  0  0  0  0  3  0  0  0  0  0  0
   36.6300   30.2060   48.6990 C   0  0  0  0  0  0  0  0  0  0  0  0
   39.5680   31.2180   48.2830 H   0  0  0  0  0  0  0  0  0  0  0  0
   30.3160   29.6970   44.7980 O   0  0  0  0  0  0  0  0  0  0  0  0
   29.7770   29.7300   46.1350 C   0  0  1  0  0  3  0  0  0  0  0  0
   28.3420   29.5940   46.2160 C   0  0  0  0  0  2  0  0  0  0  0  0
   29.1480   28.3610   46.5070 C   0  0  2  0  0  3  0  0  0  0  0  0
   29.2050   27.9460   47.8950 N   0  0  0  0  0  0  0  0  0  0  0  0
   30.2330   27.5300   48.6840 C   0  0  0  0  0  3  0  0  0  0  0  0
   29.7540   27.2560   49.9220 N   0  0  0  0  0  0  0  0  0  0  0  0
   28.4140   27.5070   49.8900 C   0  0  0  0  0  0  0  0  0  0  0  0
   27.4850   27.3790   50.9110 C   0  0  0  0  0  0  0  0  0  0  0  0
   27.7810   26.9880   52.0710 O   0  0  0  0  0  0  0  0  0  0  0  0
   26.2070   27.7050   50.5880 N   0  0  0  0  0  0  0  0  0  0  0  0
   25.8700   28.1210   49.3670 C   0  0  0  0  0  0  0  0  0  0  0  0
   24.5660   28.4790   48.9480 N   0  0  0  0  0  0  0  0  0  0  0  0
   26.7670   28.2330   48.4250 N   0  0  0  0  0  0  0  0  0  0  0  0
   28.0880   27.9340   48.6290 C   0  0  0  0  0  0  0  0  0  0  0  0
   25.4750   27.6280   51.3080 H   0  0  0  0  0  0  0  0  0  0  0  0
   24.4030   28.7900   47.9810 H   0  0  0  0  0  0  0  0  0  0  0  0
   23.7790   28.4280   49.6120 H   0  0  0  0  0  0  0  0  0  0  0  0
  1  2  2  0  0  0  0
  1  6  1  0  0  0  0
  2  3  1  0  0  0  0
  3 20  1  0  0  0  0
  3  4  2  0  0  0  0
  5  4  1  0  0  0  0
  6  5  2  0  0  0  0
  7  5  1  6  0  0  0
  7  9  1  0  0  0  0
  8  7  1  0  0  0  0
  8  9  1  0  0  0  0
  9 10  1  1  0  0  0
 10 18  1  0  0  0  0
 11 10  2  0  0  0  0
 11 12  1  0  0  0  0
 12 19  1  0  0  0  0
 12 13  1  0  0  0  0
 13 14  1  0  0  0  0
 14 15  2  0  0  0  0
 16 15  1  0  0  0  0
 17 16  2  0  0  0  0
 18 13  2  0  0  0  0
 18 17  1  0  0  0  0
 21 20  1  6  0  0  0
 21 22  1  0  0  0  0
 21 23  1  0  0  0  0
 23 22  1  1  0  0  0
 23 24  1  0  0  0  0
 24 34  1  0  0  0  0
 24 25  1  0  0  0  0
 25 26  2  0  0  0  0
 27 26  1  0  0  0  0
 27 28  1  0  0  0  0
 28 29  2  0  0  0  0
 30 28  1  0  0  0  0
 30 35  1  0  0  0  0
 31 30  1  0  0  0  0
 32 31  1  0  0  0  0
 32 37  1  0  0  0  0
 33 34  1  0  0  0  0
 33 31  2  0  0  0  0
 34 27  2  0  0  0  0
 36 32  1  0  0  0  0
M  END
>  <minimizedAffinity>
-8.04887295

$$$$
