
 OpenBabel03272514343D

 32 37  0  0  0  0  0  0  0  0999 V2000
   36.1100   29.9960   44.0730 C   0  0  0  0  0  3  0  0  0  0  0  0
   34.7980   29.5290   44.0250 C   0  0  0  0  0  3  0  0  0  0  0  0
   34.1500   29.5140   45.2510 C   0  0  0  0  0  0  0  0  0  0  0  0
   34.8050   29.9250   46.3170 N   0  0  0  0  0  0  0  0  0  0  0  0
   36.0470   30.3710   46.3810 C   0  0  0  0  0  0  0  0  0  0  0  0
   36.6600   30.3850   45.2160 N   0  0  0  0  0  0  0  0  0  0  0  0
   36.8670   30.8460   47.4760 C   0  0  0  0  0  0  0  0  0  0  0  0
   37.8620   31.8020   47.2760 C   0  0  0  0  0  3  0  0  0  0  0  0
   38.6580   32.2730   48.2930 C   0  0  0  0  0  3  0  0  0  0  0  0
   38.5130   31.8200   49.5820 C   0  0  0  0  0  3  0  0  0  0  0  0
   37.5540   30.8910   49.8130 C   0  0  0  0  0  0  0  0  0  0  0  0
   37.3940   30.4220   51.1060 C   0  0  0  0  0  3  0  0  0  0  0  0
   36.4540   29.4830   51.4340 C   0  0  0  0  0  3  0  0  0  0  0  0
   35.6500   29.0080   50.4060 C   0  0  0  0  0  3  0  0  0  0  0  0
   35.8350   29.4900   49.1400 C   0  0  0  0  0  3  0  0  0  0  0  0
   36.7610   30.4210   48.7950 C   0  0  0  0  0  0  0  0  0  0  0  0
   32.8000   29.0610   45.3650 N   0  0  0  0  0  0  0  0  0  0  0  0
   31.9200   28.8820   44.3780 C   0  0  0  0  0  3  0  0  0  0  0  0
   30.7730   28.4560   44.8500 N   0  0  0  0  0  0  0  0  0  0  0  0
   30.8950   28.3520   46.1730 C   0  0  0  0  0  0  0  0  0  0  0  0
   32.1630   28.7330   46.4740 N   0  0  0  0  0  0  0  0  0  0  0  0
   30.0020   27.9430   47.2580 C   0  0  0  0  0  0  0  0  0  0  0  0
   29.5320   26.7710   47.7200 N   0  0  0  0  0  0  0  0  0  0  0  0
   28.7500   26.9750   48.7350 O   0  0  0  0  0  0  0  0  0  0  0  0
   28.6890   28.2870   48.9630 C   0  0  0  0  0  0  0  0  0  0  0  0
   29.4690   28.9200   48.0480 N   0  0  0  0  0  0  0  0  0  0  0  0
   27.8850   28.8960   50.0540 C   0  0  0  0  0  3  0  0  0  0  0  0
   26.5470   28.1980   50.1800 C   0  0  0  0  0  2  0  0  0  0  0  0
   25.6430   28.4780   48.9940 C   0  0  0  0  0  2  0  0  0  0  0  0
   25.4310   29.9740   48.9220 C   0  0  0  0  0  2  0  0  0  0  0  0
   26.7330   30.7200   48.7780 C   0  0  0  0  0  2  0  0  0  0  0  0
   27.6700   30.3640   49.8860 C   0  0  0  0  0  2  0  0  0  0  0  0
  1  6  1  0  0  0  0
  2  1  2  0  0  0  0
  2  3  1  0  0  0  0
  3 17  1  0  0  0  0
  3  4  2  0  0  0  0
  4  5  1  0  0  0  0
  5  7  1  0  0  0  0
  6  5  2  0  0  0  0
  7 16  1  0  0  0  0
  8  7  2  0  0  0  0
  8  9  1  0  0  0  0
  9 10  2  0  0  0  0
 10 11  1  0  0  0  0
 11 12  1  0  0  0  0
 12 13  2  0  0  0  0
 14 13  1  0  0  0  0
 15 14  2  0  0  0  0
 16 15  1  0  0  0  0
 16 11  2  0  0  0  0
 17 21  1  0  0  0  0
 18 19  2  0  0  0  0
 18 17  1  0  0  0  0
 19 20  1  0  0  0  0
 20 21  2  0  0  0  0
 20 22  1  0  0  0  0
 22 23  2  0  0  0  0
 22 26  1  0  0  0  0
 23 24  1  0  0  0  0
 24 25  1  0  0  0  0
 25 27  1  0  0  0  0
 26 25  2  0  0  0  0
 27 28  1  0  0  0  0
 29 28  1  0  0  0  0
 30 29  1  0  0  0  0
 31 30  1  0  0  0  0
 31 32  1  0  0  0  0
 32 27  1  0  0  0  0
M  END
>  <minimizedAffinity>
-8.73395634

$$$$

 OpenBabel03272514343D

 32 37  0  0  0  0  0  0  0  0999 V2000
   35.9460   30.1540   44.0510 C   0  0  0  0  0  3  0  0  0  0  0  0
   34.7180   29.4960   44.0560 C   0  0  0  0  0  3  0  0  0  0  0  0
   34.1890   29.2770   45.3200 C   0  0  0  0  0  0  0  0  0  0  0  0
   34.8680   29.6950   46.3690 N   0  0  0  0  0  0  0  0  0  0  0  0
   36.0320   30.3210   46.3830 C   0  0  0  0  0  0  0  0  0  0  0  0
   36.5310   30.5260   45.1820 N   0  0  0  0  0  0  0  0  0  0  0  0
   36.8660   30.8230   47.4540 C   0  0  0  0  0  0  0  0  0  0  0  0
   37.8480   31.7850   47.2190 C   0  0  0  0  0  3  0  0  0  0  0  0
   38.6570   32.2810   48.2130 C   0  0  0  0  0  3  0  0  0  0  0  0
   38.5380   31.8510   49.5120 C   0  0  0  0  0  3  0  0  0  0  0  0
   37.5930   30.9180   49.7780 C   0  0  0  0  0  0  0  0  0  0  0  0
   37.4600   30.4720   51.0810 C   0  0  0  0  0  3  0  0  0  0  0  0
   36.5350   29.5310   51.4430 C   0  0  0  0  0  3  0  0  0  0  0  0
   35.7170   29.0300   50.4380 C   0  0  0  0  0  3  0  0  0  0  0  0
   35.8760   29.4890   49.1610 C   0  0  0  0  0  3  0  0  0  0  0  0
   36.7870   30.4220   48.7820 C   0  0  0  0  0  0  0  0  0  0  0  0
   32.9370   28.6140   45.4900 N   0  0  0  0  0  0  0  0  0  0  0  0
   32.6870   27.3090   45.3580 C   0  0  0  0  0  3  0  0  0  0  0  0
   31.4220   27.0530   45.5900 N   0  0  0  0  0  0  0  0  0  0  0  0
   30.8230   28.2070   45.8800 C   0  0  0  0  0  0  0  0  0  0  0  0
   31.7820   29.1660   45.8120 N   0  0  0  0  0  0  0  0  0  0  0  0
   29.4550   28.5970   46.2240 C   0  0  0  0  0  0  0  0  0  0  0  0
   28.2490   28.4720   45.6410 N   0  0  0  0  0  0  0  0  0  0  0  0
   27.3350   29.0070   46.3910 O   0  0  0  0  0  0  0  0  0  0  0  0
   27.9220   29.4970   47.4840 C   0  0  0  0  0  0  0  0  0  0  0  0
   29.2550   29.2510   47.4050 N   0  0  0  0  0  0  0  0  0  0  0  0
   27.1830   30.1850   48.5740 C   0  0  0  0  0  3  0  0  0  0  0  0
   27.8840   29.9830   49.9010 C   0  0  0  0  0  2  0  0  0  0  0  0
   27.7910   28.5470   50.3820 C   0  0  0  0  0  2  0  0  0  0  0  0
   26.3240   28.2040   50.5250 C   0  0  0  0  0  2  0  0  0  0  0  0
   25.5800   28.3730   49.2250 C   0  0  0  0  0  2  0  0  0  0  0  0
   25.7580   29.7560   48.6900 C   0  0  0  0  0  2  0  0  0  0  0  0
  1  2  2  0  0  0  0
  1  6  1  0  0  0  0
  2  3  1  0  0  0  0
  3 17  1  0  0  0  0
  3  4  2  0  0  0  0
  4  5  1  0  0  0  0
  5  7  1  0  0  0  0
  6  5  2  0  0  0  0
  7 16  1  0  0  0  0
  8  7  2  0  0  0  0
  8  9  1  0  0  0  0
  9 10  2  0  0  0  0
 10 11  1  0  0  0  0
 11 12  1  0  0  0  0
 12 13  2  0  0  0  0
 14 13  1  0  0  0  0
 15 14  2  0  0  0  0
 16 15  1  0  0  0  0
 16 11  2  0  0  0  0
 17 21  1  0  0  0  0
 18 17  1  0  0  0  0
 18 19  2  0  0  0  0
 19 20  1  0  0  0  0
 20 22  1  0  0  0  0
 21 20  2  0  0  0  0
 22 26  1  0  0  0  0
 23 22  2  0  0  0  0
 23 24  1  0  0  0  0
 24 25  1  0  0  0  0
 25 27  1  0  0  0  0
 26 25  2  0  0  0  0
 27 32  1  0  0  0  0
 27 28  1  0  0  0  0
 28 29  1  0  0  0  0
 29 30  1  0  0  0  0
 31 30  1  0  0  0  0
 32 31  1  0  0  0  0
M  END
>  <minimizedAffinity>
-8.62241459

$$$$

 OpenBabel03272514343D

 32 37  0  0  0  0  0  0  0  0999 V2000
   31.9120   26.4290   47.6020 C   0  0  0  0  0  3  0  0  0  0  0  0
   33.0900   27.1240   47.8670 C   0  0  0  0  0  3  0  0  0  0  0  0
   32.9760   28.0850   48.8620 C   0  0  0  0  0  0  0  0  0  0  0  0
   31.8080   28.2520   49.4480 N   0  0  0  0  0  0  0  0  0  0  0  0
   30.6830   27.6020   49.2100 C   0  0  0  0  0  0  0  0  0  0  0  0
   30.7940   26.6910   48.2660 N   0  0  0  0  0  0  0  0  0  0  0  0
   29.3550   27.6920   49.7790 C   0  0  0  0  0  0  0  0  0  0  0  0
   29.0100   26.9880   50.9320 C   0  0  0  0  0  3  0  0  0  0  0  0
   27.7580   27.0510   51.4960 C   0  0  0  0  0  3  0  0  0  0  0  0
   26.7650   27.8240   50.9470 C   0  0  0  0  0  3  0  0  0  0  0  0
   27.0650   28.5240   49.8270 C   0  0  0  0  0  0  0  0  0  0  0  0
   26.0760   29.3080   49.2580 C   0  0  0  0  0  3  0  0  0  0  0  0
   26.2870   30.0470   48.1270 C   0  0  0  0  0  3  0  0  0  0  0  0
   27.5520   29.9840   47.5560 C   0  0  0  0  0  3  0  0  0  0  0  0
   28.5050   29.1980   48.1410 C   0  0  0  0  0  3  0  0  0  0  0  0
   28.3170   28.4580   49.2640 C   0  0  0  0  0  0  0  0  0  0  0  0
   34.0960   28.8820   49.2480 N   0  0  0  0  0  0  0  0  0  0  0  0
   34.4960   29.1690   50.4880 C   0  0  0  0  0  3  0  0  0  0  0  0
   35.5660   29.9280   50.4670 N   0  0  0  0  0  0  0  0  0  0  0  0
   35.8790   30.1480   49.1910 C   0  0  0  0  0  0  0  0  0  0  0  0
   34.9530   29.4900   48.4480 N   0  0  0  0  0  0  0  0  0  0  0  0
   36.9340   30.8970   48.5060 C   0  0  0  0  0  0  0  0  0  0  0  0
   37.5320   32.0880   48.6840 N   0  0  0  0  0  0  0  0  0  0  0  0
   38.4320   32.2750   47.7680 O   0  0  0  0  0  0  0  0  0  0  0  0
   38.4440   31.2100   46.9670 C   0  0  0  0  0  0  0  0  0  0  0  0
   37.5120   30.3270   47.4090 N   0  0  0  0  0  0  0  0  0  0  0  0
   39.3530   31.0710   45.7990 C   0  0  0  0  0  3  0  0  0  0  0  0
   39.3490   32.3360   44.9690 C   0  0  0  0  0  2  0  0  0  0  0  0
   38.0260   32.5450   44.2540 C   0  0  0  0  0  2  0  0  0  0  0  0
   37.7950   31.3490   43.3580 C   0  0  0  0  0  2  0  0  0  0  0  0
   37.7720   30.0600   44.1370 C   0  0  0  0  0  2  0  0  0  0  0  0
   39.0290   29.9010   44.9300 C   0  0  0  0  0  2  0  0  0  0  0  0
  1  2  2  0  0  0  0
  1  6  1  0  0  0  0
  2  3  1  0  0  0  0
  3 17  1  0  0  0  0
  3  4  2  0  0  0  0
  5  4  1  0  0  0  0
  5  7  1  0  0  0  0
  6  5  2  0  0  0  0
  7  8  1  0  0  0  0
  8  9  2  0  0  0  0
 10  9  1  0  0  0  0
 11 10  2  0  0  0  0
 12 11  1  0  0  0  0
 13 12  2  0  0  0  0
 14 13  1  0  0  0  0
 14 15  2  0  0  0  0
 15 16  1  0  0  0  0
 16  7  2  0  0  0  0
 16 11  1  0  0  0  0
 17 18  1  0  0  0  0
 19 18  2  0  0  0  0
 20 19  1  0  0  0  0
 21 20  2  0  0  0  0
 21 17  1  0  0  0  0
 22 23  2  0  0  0  0
 22 20  1  0  0  0  0
 24 23  1  0  0  0  0
 25 26  2  0  0  0  0
 25 24  1  0  0  0  0
 26 22  1  0  0  0  0
 27 25  1  0  0  0  0
 28 27  1  0  0  0  0
 29 28  1  0  0  0  0
 30 31  1  0  0  0  0
 30 29  1  0  0  0  0
 31 32  1  0  0  0  0
 32 27  1  0  0  0  0
M  END
>  <minimizedAffinity>
-8.45077896

$$$$

 OpenBabel03272514343D

 32 37  0  0  0  0  0  0  0  0999 V2000
   34.9890   28.0950   49.3140 C   0  0  0  0  0  3  0  0  0  0  0  0
   33.8700   27.9810   48.4900 C   0  0  0  0  0  3  0  0  0  0  0  0
   33.7520   28.9870   47.5420 C   0  0  0  0  0  0  0  0  0  0  0  0
   34.6720   29.9290   47.5030 N   0  0  0  0  0  0  0  0  0  0  0  0
   35.7380   30.0510   48.2740 C   0  0  0  0  0  0  0  0  0  0  0  0
   35.8470   29.0950   49.1720 N   0  0  0  0  0  0  0  0  0  0  0  0
   36.8070   31.0260   48.3270 C   0  0  0  0  0  0  0  0  0  0  0  0
   37.1320   31.6830   49.5140 C   0  0  0  0  0  3  0  0  0  0  0  0
   38.1390   32.6130   49.5980 C   0  0  0  0  0  3  0  0  0  0  0  0
   38.8940   32.9510   48.5010 C   0  0  0  0  0  3  0  0  0  0  0  0
   38.6070   32.3320   47.3310 C   0  0  0  0  0  0  0  0  0  0  0  0
   39.3560   32.6600   46.2140 C   0  0  0  0  0  3  0  0  0  0  0  0
   39.1380   32.0880   44.9910 C   0  0  0  0  0  3  0  0  0  0  0  0
   38.1190   31.1470   44.9060 C   0  0  0  0  0  3  0  0  0  0  0  0
   37.3970   30.8470   46.0270 C   0  0  0  0  0  3  0  0  0  0  0  0
   37.5990   31.4030   47.2490 C   0  0  0  0  0  0  0  0  0  0  0  0
   32.6580   29.0100   46.6250 N   0  0  0  0  0  0  0  0  0  0  0  0
   32.7200   29.0450   45.2920 C   0  0  0  0  0  3  0  0  0  0  0  0
   31.5160   29.0560   44.7720 N   0  0  0  0  0  0  0  0  0  0  0  0
   30.6420   29.0300   45.7770 C   0  0  0  0  0  0  0  0  0  0  0  0
   31.3720   29.0020   46.9210 N   0  0  0  0  0  0  0  0  0  0  0  0
   29.1810   29.0260   45.8680 C   0  0  0  0  0  0  0  0  0  0  0  0
   28.1680   28.8630   44.9980 N   0  0  0  0  0  0  0  0  0  0  0  0
   27.0320   28.9550   45.6180 O   0  0  0  0  0  0  0  0  0  0  0  0
   27.2730   29.1800   46.9090 C   0  0  0  0  0  0  0  0  0  0  0  0
   28.6180   29.2290   47.0940 N   0  0  0  0  0  0  0  0  0  0  0  0
   26.2050   29.3420   47.9290 C   0  0  0  0  0  3  0  0  0  0  0  0
   26.5610   30.4450   48.9020 C   0  0  0  0  0  2  0  0  0  0  0  0
   27.7260   30.0630   49.7950 C   0  0  0  0  0  2  0  0  0  0  0  0
   27.3310   28.8200   50.5610 C   0  0  0  0  0  2  0  0  0  0  0  0
   26.9810   27.6810   49.6380 C   0  0  0  0  0  2  0  0  0  0  0  0
   25.9070   28.0870   48.6820 C   0  0  0  0  0  2  0  0  0  0  0  0
  2  1  2  0  0  0  0
  3  2  1  0  0  0  0
  4  3  2  0  0  0  0
  4  5  1  0  0  0  0
  5  7  1  0  0  0  0
  5  6  2  0  0  0  0
  6  1  1  0  0  0  0
  7  8  1  0  0  0  0
  8  9  2  0  0  0  0
 10  9  1  0  0  0  0
 11 10  2  0  0  0  0
 12 11  1  0  0  0  0
 13 12  2  0  0  0  0
 14 13  1  0  0  0  0
 14 15  2  0  0  0  0
 15 16  1  0  0  0  0
 16 11  1  0  0  0  0
 16  7  2  0  0  0  0
 17 21  1  0  0  0  0
 17  3  1  0  0  0  0
 18 17  1  0  0  0  0
 19 18  2  0  0  0  0
 19 20  1  0  0  0  0
 20 22  1  0  0  0  0
 20 21  2  0  0  0  0
 22 26  1  0  0  0  0
 23 24  1  0  0  0  0
 23 22  2  0  0  0  0
 24 25  1  0  0  0  0
 25 26  2  0  0  0  0
 25 27  1  0  0  0  0
 27 32  1  0  0  0  0
 27 28  1  0  0  0  0
 28 29  1  0  0  0  0
 29 30  1  0  0  0  0
 31 30  1  0  0  0  0
 32 31  1  0  0  0  0
M  END
>  <minimizedAffinity>
-8.35709095

$$$$

 OpenBabel03272514343D

 32 37  0  0  0  0  0  0  0  0999 V2000
   35.8620   29.5560   50.7120 C   0  0  0  0  0  3  0  0  0  0  0  0
   34.8520   28.6770   50.3250 C   0  0  0  0  0  3  0  0  0  0  0  0
   34.6700   28.5830   48.9530 C   0  0  0  0  0  0  0  0  0  0  0  0
   35.4370   29.3060   48.1630 N   0  0  0  0  0  0  0  0  0  0  0  0
   36.3990   30.1420   48.5130 C   0  0  0  0  0  0  0  0  0  0  0  0
   36.5690   30.2300   49.8150 N   0  0  0  0  0  0  0  0  0  0  0  0
   37.2990   30.9810   47.7490 C   0  0  0  0  0  0  0  0  0  0  0  0
   38.2850   31.7440   48.3750 C   0  0  0  0  0  3  0  0  0  0  0  0
   39.1540   32.5510   47.6800 C   0  0  0  0  0  3  0  0  0  0  0  0
   39.0980   32.6500   46.3110 C   0  0  0  0  0  3  0  0  0  0  0  0
   38.1530   31.9210   45.6700 C   0  0  0  0  0  0  0  0  0  0  0  0
   38.0810   32.0080   44.2900 C   0  0  0  0  0  3  0  0  0  0  0  0
   37.1600   31.3110   43.5590 C   0  0  0  0  0  3  0  0  0  0  0  0
   36.2810   30.4950   44.2610 C   0  0  0  0  0  3  0  0  0  0  0  0
   36.3770   30.4330   45.6230 C   0  0  0  0  0  3  0  0  0  0  0  0
   37.2850   31.1160   46.3670 C   0  0  0  0  0  0  0  0  0  0  0  0
   33.6730   27.7250   48.3990 N   0  0  0  0  0  0  0  0  0  0  0  0
   33.8670   26.6360   47.6520 C   0  0  0  0  0  3  0  0  0  0  0  0
   32.7200   26.0920   47.3190 N   0  0  0  0  0  0  0  0  0  0  0  0
   31.7510   26.8330   47.8540 C   0  0  0  0  0  0  0  0  0  0  0  0
   32.3640   27.8440   48.5220 N   0  0  0  0  0  0  0  0  0  0  0  0
   30.2890   26.7670   47.8550 C   0  0  0  0  0  0  0  0  0  0  0  0
   29.3560   26.2130   47.0610 N   0  0  0  0  0  0  0  0  0  0  0  0
   28.1710   26.4610   47.5290 O   0  0  0  0  0  0  0  0  0  0  0  0
   28.3000   27.1850   48.6400 C   0  0  0  0  0  0  0  0  0  0  0  0
   29.6230   27.3920   48.8690 N   0  0  0  0  0  0  0  0  0  0  0  0
   27.1480   27.6570   49.4520 C   0  0  0  0  0  3  0  0  0  0  0  0
   26.0690   28.2300   48.5600 C   0  0  0  0  0  2  0  0  0  0  0  0
   26.4940   29.5370   47.9160 C   0  0  0  0  0  2  0  0  0  0  0  0
   26.8080   30.5150   49.0270 C   0  0  0  0  0  2  0  0  0  0  0  0
   27.8920   30.0010   49.9390 C   0  0  0  0  0  2  0  0  0  0  0  0
   27.5250   28.6610   50.4910 C   0  0  0  0  0  2  0  0  0  0  0  0
  2  1  1  0  0  0  0
  3  2  2  0  0  0  0
  4  5  2  0  0  0  0
  4  3  1  0  0  0  0
  5  6  1  0  0  0  0
  6  1  2  0  0  0  0
  7  8  1  0  0  0  0
  7  5  1  0  0  0  0
  9  8  2  0  0  0  0
 10  9  1  0  0  0  0
 11 10  2  0  0  0  0
 11 16  1  0  0  0  0
 12 11  1  0  0  0  0
 13 14  1  0  0  0  0
 13 12  2  0  0  0  0
 14 15  2  0  0  0  0
 15 16  1  0  0  0  0
 16  7  2  0  0  0  0
 17 21  1  0  0  0  0
 17  3  1  0  0  0  0
 18 17  1  0  0  0  0
 19 18  2  0  0  0  0
 19 20  1  0  0  0  0
 20 22  1  0  0  0  0
 20 21  2  0  0  0  0
 22 26  1  0  0  0  0
 23 24  1  0  0  0  0
 23 22  2  0  0  0  0
 24 25  1  0  0  0  0
 25 26  2  0  0  0  0
 25 27  1  0  0  0  0
 27 32  1  0  0  0  0
 28 27  1  0  0  0  0
 29 28  1  0  0  0  0
 29 30  1  0  0  0  0
 30 31  1  0  0  0  0
 31 32  1  0  0  0  0
M  END
>  <minimizedAffinity>
-8.24222279

$$$$

 OpenBabel03272514343D

 32 37  0  0  0  0  0  0  0  0999 V2000
   28.5440   27.6890   45.1370 C   0  0  0  0  0  3  0  0  0  0  0  0
   29.8870   27.6010   45.4960 C   0  0  0  0  0  3  0  0  0  0  0  0
   30.1740   28.0830   46.7650 C   0  0  0  0  0  0  0  0  0  0  0  0
   29.1890   28.5660   47.4950 N   0  0  0  0  0  0  0  0  0  0  0  0
   27.9120   28.6560   47.1710 C   0  0  0  0  0  0  0  0  0  0  0  0
   27.6420   28.1980   45.9670 N   0  0  0  0  0  0  0  0  0  0  0  0
   26.7510   29.1580   47.8760 C   0  0  0  0  0  0  0  0  0  0  0  0
   26.0580   28.3660   48.7910 C   0  0  0  0  0  3  0  0  0  0  0  0
   24.9530   28.8120   49.4750 C   0  0  0  0  0  3  0  0  0  0  0  0
   24.4640   30.0830   49.2930 C   0  0  0  0  0  3  0  0  0  0  0  0
   25.1130   30.8810   48.4120 C   0  0  0  0  0  0  0  0  0  0  0  0
   24.6350   32.1650   48.2140 C   0  0  0  0  0  3  0  0  0  0  0  0
   25.2240   33.0410   47.3440 C   0  0  0  0  0  3  0  0  0  0  0  0
   26.3420   32.5900   46.6530 C   0  0  0  0  0  3  0  0  0  0  0  0
   26.7870   31.3160   46.8690 C   0  0  0  0  0  3  0  0  0  0  0  0
   26.2170   30.4320   47.7290 C   0  0  0  0  0  0  0  0  0  0  0  0
   31.5070   28.0620   47.2780 N   0  0  0  0  0  0  0  0  0  0  0  0
   32.0180   27.2080   48.1670 C   0  0  0  0  0  3  0  0  0  0  0  0
   33.2780   27.4860   48.4060 N   0  0  0  0  0  0  0  0  0  0  0  0
   33.6060   28.5420   47.6630 C   0  0  0  0  0  0  0  0  0  0  0  0
   32.4910   28.8860   46.9690 N   0  0  0  0  0  0  0  0  0  0  0  0
   34.8270   29.3270   47.4750 C   0  0  0  0  0  0  0  0  0  0  0  0
   35.3210   30.1080   46.4980 N   0  0  0  0  0  0  0  0  0  0  0  0
   36.4780   30.5800   46.8490 O   0  0  0  0  0  0  0  0  0  0  0  0
   36.7700   30.1180   48.0650 C   0  0  0  0  0  0  0  0  0  0  0  0
   35.7470   29.3280   48.4830 N   0  0  0  0  0  0  0  0  0  0  0  0
   38.0220   30.4500   48.7920 C   0  0  0  0  0  3  0  0  0  0  0  0
   37.7080   31.0560   50.1430 C   0  0  0  0  0  2  0  0  0  0  0  0
   37.0970   32.4390   50.0190 C   0  0  0  0  0  2  0  0  0  0  0  0
   38.0890   33.3160   49.2880 C   0  0  0  0  0  2  0  0  0  0  0  0
   38.4260   32.7670   47.9250 C   0  0  0  0  0  2  0  0  0  0  0  0
   38.9260   31.3630   48.0320 C   0  0  0  0  0  2  0  0  0  0  0  0
  1  2  2  0  0  0  0
  1  6  1  0  0  0  0
  2  3  1  0  0  0  0
  3 17  1  0  0  0  0
  3  4  2  0  0  0  0
  5  4  1  0  0  0  0
  5  7  1  0  0  0  0
  6  5  2  0  0  0  0
  7  8  1  0  0  0  0
  8  9  2  0  0  0  0
 10  9  1  0  0  0  0
 11 10  2  0  0  0  0
 12 11  1  0  0  0  0
 13 12  2  0  0  0  0
 14 15  2  0  0  0  0
 14 13  1  0  0  0  0
 15 16  1  0  0  0  0
 16  7  2  0  0  0  0
 16 11  1  0  0  0  0
 17 18  1  0  0  0  0
 18 19  2  0  0  0  0
 20 19  1  0  0  0  0
 21 17  1  0  0  0  0
 21 20  2  0  0  0  0
 22 20  1  0  0  0  0
 22 26  1  0  0  0  0
 23 24  1  0  0  0  0
 23 22  2  0  0  0  0
 24 25  1  0  0  0  0
 25 26  2  0  0  0  0
 25 27  1  0  0  0  0
 27 28  1  0  0  0  0
 29 28  1  0  0  0  0
 30 29  1  0  0  0  0
 31 32  1  0  0  0  0
 31 30  1  0  0  0  0
 32 27  1  0  0  0  0
M  END
>  <minimizedAffinity>
-8.07263851

$$$$

 OpenBabel03272514343D

 32 37  0  0  0  0  0  0  0  0999 V2000
   28.7910   26.6660   44.3710 C   0  0  0  0  0  3  0  0  0  0  0  0
   30.0870   27.1200   44.1330 C   0  0  0  0  0  3  0  0  0  0  0  0
   30.5730   27.9960   45.0930 C   0  0  0  0  0  0  0  0  0  0  0  0
   29.7970   28.3130   46.1090 N   0  0  0  0  0  0  0  0  0  0  0  0
   28.5680   27.8920   46.3510 C   0  0  0  0  0  0  0  0  0  0  0  0
   28.1100   27.0610   45.4390 N   0  0  0  0  0  0  0  0  0  0  0  0
   27.6270   28.1630   47.4180 C   0  0  0  0  0  0  0  0  0  0  0  0
   26.4040   28.7840   47.1660 C   0  0  0  0  0  3  0  0  0  0  0  0
   25.4900   29.0570   48.1550 C   0  0  0  0  0  3  0  0  0  0  0  0
   25.7350   28.7250   49.4660 C   0  0  0  0  0  3  0  0  0  0  0  0
   26.9130   28.1190   49.7470 C   0  0  0  0  0  0  0  0  0  0  0  0
   27.1790   27.7790   51.0620 C   0  0  0  0  0  3  0  0  0  0  0  0
   28.3410   27.1660   51.4410 C   0  0  0  0  0  3  0  0  0  0  0  0
   29.2650   26.8900   50.4400 C   0  0  0  0  0  3  0  0  0  0  0  0
   28.9740   27.2410   49.1520 C   0  0  0  0  0  3  0  0  0  0  0  0
   27.8260   27.8490   48.7560 C   0  0  0  0  0  0  0  0  0  0  0  0
   31.8850   28.5490   44.9890 N   0  0  0  0  0  0  0  0  0  0  0  0
   32.6020   28.7280   43.8770 C   0  0  0  0  0  3  0  0  0  0  0  0
   33.7670   29.2630   44.1570 N   0  0  0  0  0  0  0  0  0  0  0  0
   33.8220   29.4410   45.4770 C   0  0  0  0  0  0  0  0  0  0  0  0
   32.6420   28.9900   45.9760 N   0  0  0  0  0  0  0  0  0  0  0  0
   34.8220   29.9780   46.4000 C   0  0  0  0  0  0  0  0  0  0  0  0
   36.0990   30.3890   46.2950 N   0  0  0  0  0  0  0  0  0  0  0  0
   36.5340   30.7850   47.4510 O   0  0  0  0  0  0  0  0  0  0  0  0
   35.5530   30.6440   48.3420 C   0  0  0  0  0  0  0  0  0  0  0  0
   34.4640   30.1390   47.7070 N   0  0  0  0  0  0  0  0  0  0  0  0
   35.6890   31.0000   49.7780 C   0  0  0  0  0  3  0  0  0  0  0  0
   36.8420   31.9580   49.9810 C   0  0  0  0  0  2  0  0  0  0  0  0
   38.1850   31.2940   49.7430 C   0  0  0  0  0  2  0  0  0  0  0  0
   38.3060   30.1410   50.7150 C   0  0  0  0  0  2  0  0  0  0  0  0
   37.1890   29.1440   50.5450 C   0  0  0  0  0  2  0  0  0  0  0  0
   35.8600   29.8150   50.6700 C   0  0  0  0  0  2  0  0  0  0  0  0
  1  6  1  0  0  0  0
  2  1  2  0  0  0  0
  2  3  1  0  0  0  0
  3  4  2  0  0  0  0
  4  5  1  0  0  0  0
  5  7  1  0  0  0  0
  6  5  2  0  0  0  0
  7 16  1  0  0  0  0
  8  7  2  0  0  0  0
  8  9  1  0  0  0  0
  9 10  2  0  0  0  0
 10 11  1  0  0  0  0
 11 12  1  0  0  0  0
 12 13  2  0  0  0  0
 14 13  1  0  0  0  0
 15 14  2  0  0  0  0
 16 15  1  0  0  0  0
 16 11  2  0  0  0  0
 17  3  1  0  0  0  0
 17 21  1  0  0  0  0
 18 19  2  0  0  0  0
 18 17  1  0  0  0  0
 19 20  1  0  0  0  0
 20 21  2  0  0  0  0
 20 22  1  0  0  0  0
 22 26  1  0  0  0  0
 23 22  2  0  0  0  0
 23 24  1  0  0  0  0
 24 25  1  0  0  0  0
 25 27  1  0  0  0  0
 26 25  2  0  0  0  0
 27 28  1  0  0  0  0
 27 32  1  0  0  0  0
 29 28  1  0  0  0  0
 29 30  1  0  0  0  0
 31 32  1  0  0  0  0
 31 30  1  0  0  0  0
M  END
>  <minimizedAffinity>
-7.84212542

$$$$

 OpenBabel03272514343D

 32 37  0  0  0  0  0  0  0  0999 V2000
   32.6330   26.2120   47.5290 C   0  0  0  0  0  3  0  0  0  0  0  0
   31.2920   26.5910   47.5360 C   0  0  0  0  0  3  0  0  0  0  0  0
   31.0840   27.9630   47.5630 C   0  0  0  0  0  0  0  0  0  0  0  0
   32.1330   28.7600   47.5790 N   0  0  0  0  0  0  0  0  0  0  0  0
   33.4090   28.4170   47.5710 C   0  0  0  0  0  0  0  0  0  0  0  0
   33.6030   27.1160   47.5460 N   0  0  0  0  0  0  0  0  0  0  0  0
   34.6350   29.1880   47.5870 C   0  0  0  0  0  0  0  0  0  0  0  0
   35.1630   29.7360   46.4180 C   0  0  0  0  0  3  0  0  0  0  0  0
   36.3240   30.4700   46.3980 C   0  0  0  0  0  3  0  0  0  0  0  0
   37.0380   30.7100   47.5470 C   0  0  0  0  0  3  0  0  0  0  0  0
   36.5540   30.1950   48.7020 C   0  0  0  0  0  0  0  0  0  0  0  0
   37.2590   30.4250   49.8700 C   0  0  0  0  0  3  0  0  0  0  0  0
   36.8480   29.9430   51.0830 C   0  0  0  0  0  3  0  0  0  0  0  0
   35.6740   29.2010   51.1020 C   0  0  0  0  0  3  0  0  0  0  0  0
   35.0020   28.9890   49.9320 C   0  0  0  0  0  3  0  0  0  0  0  0
   35.3930   29.4590   48.7190 C   0  0  0  0  0  0  0  0  0  0  0  0
   29.7650   28.5090   47.5730 N   0  0  0  0  0  0  0  0  0  0  0  0
   28.7710   28.2060   48.4100 C   0  0  0  0  0  3  0  0  0  0  0  0
   27.6970   28.9030   48.1270 N   0  0  0  0  0  0  0  0  0  0  0  0
   27.9840   29.6810   47.0840 C   0  0  0  0  0  0  0  0  0  0  0  0
   29.2760   29.4210   46.7540 N   0  0  0  0  0  0  0  0  0  0  0  0
   27.2390   30.6680   46.3020 C   0  0  0  0  0  0  0  0  0  0  0  0
   26.5990   31.8190   46.5740 N   0  0  0  0  0  0  0  0  0  0  0  0
   26.0920   32.3140   45.4870 O   0  0  0  0  0  0  0  0  0  0  0  0
   26.3890   31.4980   44.4750 C   0  0  0  0  0  0  0  0  0  0  0  0
   27.1110   30.4550   44.9600 N   0  0  0  0  0  0  0  0  0  0  0  0
   25.9700   31.7440   43.0710 C   0  0  0  0  0  3  0  0  0  0  0  0
   27.1800   31.8710   42.1710 C   0  0  0  0  0  2  0  0  0  0  0  0
   27.9640   33.1420   42.4430 C   0  0  0  0  0  2  0  0  0  0  0  0
   27.0340   34.3130   42.2110 C   0  0  0  0  0  2  0  0  0  0  0  0
   25.8160   34.2460   43.0970 C   0  0  0  0  0  2  0  0  0  0  0  0
   25.1000   32.9470   42.9120 C   0  0  0  0  0  2  0  0  0  0  0  0
  1  2  2  0  0  0  0
  1  6  1  0  0  0  0
  2  3  1  0  0  0  0
  3 17  1  0  0  0  0
  3  4  2  0  0  0  0
  5  4  1  0  0  0  0
  5  7  1  0  0  0  0
  6  5  2  0  0  0  0
  7 16  1  0  0  0  0
  8  7  2  0  0  0  0
  9  8  1  0  0  0  0
  9 10  2  0  0  0  0
 10 11  1  0  0  0  0
 11 16  2  0  0  0  0
 11 12  1  0  0  0  0
 12 13  2  0  0  0  0
 13 14  1  0  0  0  0
 15 14  2  0  0  0  0
 16 15  1  0  0  0  0
 17 18  1  0  0  0  0
 19 18  2  0  0  0  0
 20 19  1  0  0  0  0
 21 20  2  0  0  0  0
 21 17  1  0  0  0  0
 22 23  2  0  0  0  0
 22 20  1  0  0  0  0
 24 23  1  0  0  0  0
 25 26  2  0  0  0  0
 25 24  1  0  0  0  0
 26 22  1  0  0  0  0
 27 25  1  0  0  0  0
 28 29  1  0  0  0  0
 28 27  1  0  0  0  0
 30 29  1  0  0  0  0
 30 31  1  0  0  0  0
 32 27  1  0  0  0  0
 32 31  1  0  0  0  0
M  END
>  <minimizedAffinity>
-7.76537037

$$$$

 OpenBabel03272514343D

 32 37  0  0  0  0  0  0  0  0999 V2000
   33.5800   27.0250   47.6810 C   0  0  0  0  0  3  0  0  0  0  0  0
   32.6800   27.6820   46.8430 C   0  0  0  0  0  3  0  0  0  0  0  0
   32.7830   29.0650   46.8640 C   0  0  0  0  0  0  0  0  0  0  0  0
   33.6880   29.6200   47.6440 N   0  0  0  0  0  0  0  0  0  0  0  0
   34.5490   29.0130   48.4420 C   0  0  0  0  0  0  0  0  0  0  0  0
   34.4490   27.7010   48.4210 N   0  0  0  0  0  0  0  0  0  0  0  0
   35.5780   29.5040   49.3350 C   0  0  0  0  0  0  0  0  0  0  0  0
   35.5900   29.1610   50.6870 C   0  0  0  0  0  3  0  0  0  0  0  0
   36.5500   29.6110   51.5610 C   0  0  0  0  0  3  0  0  0  0  0  0
   37.5670   30.4350   51.1420 C   0  0  0  0  0  3  0  0  0  0  0  0
   37.5880   30.7870   49.8350 C   0  0  0  0  0  0  0  0  0  0  0  0
   38.6050   31.6170   49.3950 C   0  0  0  0  0  3  0  0  0  0  0  0
   38.7060   32.0260   48.0940 C   0  0  0  0  0  3  0  0  0  0  0  0
   37.7350   31.5710   47.2110 C   0  0  0  0  0  3  0  0  0  0  0  0
   36.7430   30.7550   47.6770 C   0  0  0  0  0  3  0  0  0  0  0  0
   36.6260   30.3370   48.9640 C   0  0  0  0  0  0  0  0  0  0  0  0
   31.9290   29.8800   46.0610 N   0  0  0  0  0  0  0  0  0  0  0  0
   30.6380   29.6770   45.7890 C   0  0  0  0  0  3  0  0  0  0  0  0
   30.1710   30.6290   45.0170 N   0  0  0  0  0  0  0  0  0  0  0  0
   31.1700   31.4770   44.7730 C   0  0  0  0  0  0  0  0  0  0  0  0
   32.2550   30.9930   45.4310 N   0  0  0  0  0  0  0  0  0  0  0  0
   31.3030   32.7130   44.0020 C   0  0  0  0  0  0  0  0  0  0  0  0
   30.9760   34.0030   44.1970 N   0  0  0  0  0  0  0  0  0  0  0  0
   31.3260   34.7110   43.1670 O   0  0  0  0  0  0  0  0  0  0  0  0
   31.8900   33.9010   42.2720 C   0  0  0  0  0  0  0  0  0  0  0  0
   31.8890   32.6380   42.7720 N   0  0  0  0  0  0  0  0  0  0  0  0
   32.4150   34.3640   40.9610 C   0  0  0  0  0  3  0  0  0  0  0  0
   33.4170   33.3730   40.4100 C   0  0  0  0  0  2  0  0  0  0  0  0
   34.7010   33.3500   41.2190 C   0  0  0  0  0  2  0  0  0  0  0  0
   35.2920   34.7420   41.1820 C   0  0  0  0  0  2  0  0  0  0  0  0
   34.3400   35.7700   41.7370 C   0  0  0  0  0  2  0  0  0  0  0  0
   33.0330   35.7230   41.0150 C   0  0  0  0  0  2  0  0  0  0  0  0
  1  6  1  0  0  0  0
  2  3  1  0  0  0  0
  2  1  2  0  0  0  0
  3  4  2  0  0  0  0
  4  5  1  0  0  0  0
  5  7  1  0  0  0  0
  6  5  2  0  0  0  0
  7  8  1  0  0  0  0
  8  9  2  0  0  0  0
 10  9  1  0  0  0  0
 11 10  2  0  0  0  0
 12 11  1  0  0  0  0
 13 12  2  0  0  0  0
 14 15  2  0  0  0  0
 14 13  1  0  0  0  0
 15 16  1  0  0  0  0
 16  7  2  0  0  0  0
 16 11  1  0  0  0  0
 17  3  1  0  0  0  0
 18 17  1  0  0  0  0
 19 18  2  0  0  0  0
 20 19  1  0  0  0  0
 20 21  2  0  0  0  0
 21 17  1  0  0  0  0
 22 23  2  0  0  0  0
 22 20  1  0  0  0  0
 24 23  1  0  0  0  0
 25 26  2  0  0  0  0
 25 24  1  0  0  0  0
 26 22  1  0  0  0  0
 27 32  1  0  0  0  0
 27 25  1  0  0  0  0
 28 27  1  0  0  0  0
 28 29  1  0  0  0  0
 30 29  1  0  0  0  0
 30 31  1  0  0  0  0
 32 31  1  0  0  0  0
M  END
>  <minimizedAffinity>
-7.72626925

$$$$
