
 OpenBabel03272514443D

 35 40  0  0  0  0  0  0  0  0999 V2000
   29.6290   27.8100   48.4170 N   0  0  0  0  0  0  0  0  0  0  0  0
   29.4470   27.2220   49.6020 C   0  0  0  0  0  3  0  0  0  0  0  0
   28.1890   27.5620   49.9880 C   0  0  0  0  0  0  0  0  0  0  0  0
   27.6570   28.3250   49.0550 N   0  0  0  0  0  0  0  0  0  0  0  0
   28.5450   28.4970   48.0500 C   0  0  0  0  0  0  0  0  0  0  0  0
   28.2250   29.3040   46.8980 C   0  0  0  0  0  0  0  0  0  0  0  0
   28.6430   29.1490   45.6400 N   0  0  0  0  0  0  0  0  0  0  0  0
   28.3350   29.9260   44.6060 C   0  0  0  0  0  3  0  0  0  0  0  0
   27.5330   30.9910   44.7460 N   0  0  0  0  0  0  0  0  0  0  0  0
   27.0490   31.2430   45.9960 C   0  0  0  0  0  0  0  0  0  0  0  0
   26.2470   32.3510   46.1050 C   0  0  0  0  0  3  0  0  0  0  0  0
   25.7330   32.6910   47.3300 C   0  0  0  0  0  3  0  0  0  0  0  0
   26.0340   31.9100   48.4220 C   0  0  0  0  0  3  0  0  0  0  0  0
   26.8470   30.8240   48.1910 C   0  0  0  0  0  3  0  0  0  0  0  0
   27.4070   30.4040   47.0090 C   0  0  0  0  0  0  0  0  0  0  0  0
   32.2130   26.9560   45.8750 C   0  0  0  0  0  3  0  0  0  0  0  0
   30.9440   27.0210   46.4810 C   0  0  0  0  0  3  0  0  0  0  0  0
   30.8640   27.6880   47.7160 C   0  0  0  0  0  0  0  0  0  0  0  0
   32.0050   28.1770   48.1600 N   0  0  0  0  0  0  0  0  0  0  0  0
   33.2210   28.1260   47.6000 C   0  0  0  0  0  0  0  0  0  0  0  0
   33.2790   27.4920   46.4340 N   0  0  0  0  0  0  0  0  0  0  0  0
   34.2420   28.7860   48.3990 C   0  0  0  0  0  0  0  0  0  0  0  0
   34.2600   28.6600   49.7740 C   0  0  0  0  0  3  0  0  0  0  0  0
   35.1960   29.2530   50.5930 C   0  0  0  0  0  3  0  0  0  0  0  0
   36.1980   30.0360   50.0390 C   0  0  0  0  0  3  0  0  0  0  0  0
   36.2070   30.1790   48.6910 C   0  0  0  0  0  0  0  0  0  0  0  0
   37.2240   30.9490   48.1390 C   0  0  0  0  0  3  0  0  0  0  0  0
   37.3190   31.1350   46.7740 C   0  0  0  0  0  3  0  0  0  0  0  0
   36.3520   30.5150   45.9870 C   0  0  0  0  0  3  0  0  0  0  0  0
   35.3600   29.7600   46.5730 C   0  0  0  0  0  3  0  0  0  0  0  0
   35.2460   29.5620   47.9120 C   0  0  0  0  0  0  0  0  0  0  0  0
   27.4480   27.1750   51.2190 C   0  0  0  0  0  0  0  0  0  0  0  0
   26.3370   27.9780   51.4450 F   0  0  0  0  0  0  0  0  0  0  0  0
   28.2750   27.3310   52.3530 F   0  0  0  0  0  0  0  0  0  0  0  0
   27.1320   25.8280   51.1950 F   0  0  0  0  0  0  0  0  0  0  0  0
  1  2  1  0  0  0  0
  2  3  2  0  0  0  0
  3 32  1  0  0  0  0
  4  3  1  0  0  0  0
  5  1  1  0  0  0  0
  5  4  2  0  0  0  0
  6 15  1  0  0  0  0
  6  5  1  0  0  0  0
  7  6  2  0  0  0  0
  8  9  2  0  0  0  0
  8  7  1  0  0  0  0
  9 10  1  0  0  0  0
 10 11  2  0  0  0  0
 10 15  1  0  0  0  0
 11 12  1  0  0  0  0
 12 13  2  0  0  0  0
 14 13  1  0  0  0  0
 15 14  2  0  0  0  0
 16 21  2  0  0  0  0
 16 17  1  0  0  0  0
 17 18  2  0  0  0  0
 18 19  1  0  0  0  0
 18  1  1  0  0  0  0
 20 19  2  0  0  0  0
 20 22  1  0  0  0  0
 21 20  1  0  0  0  0
 22 23  1  0  0  0  0
 23 24  2  0  0  0  0
 25 24  1  0  0  0  0
 26 25  2  0  0  0  0
 27 26  1  0  0  0  0
 28 27  2  0  0  0  0
 29 30  2  0  0  0  0
 29 28  1  0  0  0  0
 30 31  1  0  0  0  0
 31 22  2  0  0  0  0
 31 26  1  0  0  0  0
 32 33  1  0  0  0  0
 32 34  1  0  0  0  0
 35 32  1  0  0  0  0
M  END
>  <minimizedAffinity>
-8.78932953

$$$$

 OpenBabel03272514443D

 35 40  0  0  0  0  0  0  0  0999 V2000
   33.8250   28.7750   46.3010 N   0  0  0  0  0  0  0  0  0  0  0  0
   33.7720   29.0750   45.0000 C   0  0  0  0  0  3  0  0  0  0  0  0
   34.7420   30.0050   44.8020 C   0  0  0  0  0  0  0  0  0  0  0  0
   35.3400   30.2390   45.9530 N   0  0  0  0  0  0  0  0  0  0  0  0
   34.7810   29.4740   46.9170 C   0  0  0  0  0  0  0  0  0  0  0  0
   35.2390   29.5380   48.2830 C   0  0  0  0  0  0  0  0  0  0  0  0
   34.7030   28.9610   49.3610 N   0  0  0  0  0  0  0  0  0  0  0  0
   35.1490   29.0570   50.6090 C   0  0  0  0  0  3  0  0  0  0  0  0
   36.2350   29.7820   50.9100 N   0  0  0  0  0  0  0  0  0  0  0  0
   36.8620   30.4180   49.8790 C   0  0  0  0  0  0  0  0  0  0  0  0
   37.9580   31.1650   50.2260 C   0  0  0  0  0  3  0  0  0  0  0  0
   38.6380   31.8560   49.2550 C   0  0  0  0  0  3  0  0  0  0  0  0
   38.2010   31.7800   47.9520 C   0  0  0  0  0  3  0  0  0  0  0  0
   37.0920   30.9990   47.7240 C   0  0  0  0  0  3  0  0  0  0  0  0
   36.3490   30.2750   48.6240 C   0  0  0  0  0  0  0  0  0  0  0  0
   32.3300   25.6610   47.6920 C   0  0  0  0  0  3  0  0  0  0  0  0
   33.3010   26.5050   47.1220 C   0  0  0  0  0  3  0  0  0  0  0  0
   32.9210   27.8360   46.8770 C   0  0  0  0  0  0  0  0  0  0  0  0
   31.6820   28.1330   47.2170 N   0  0  0  0  0  0  0  0  0  0  0  0
   30.7430   27.3450   47.7600 C   0  0  0  0  0  0  0  0  0  0  0  0
   31.1190   26.0910   47.9840 N   0  0  0  0  0  0  0  0  0  0  0  0
   29.4860   28.0390   47.9950 C   0  0  0  0  0  0  0  0  0  0  0  0
   28.9610   28.8970   47.0480 C   0  0  0  0  0  3  0  0  0  0  0  0
   27.7770   29.5860   47.2010 C   0  0  0  0  0  3  0  0  0  0  0  0
   27.0390   29.4340   48.3650 C   0  0  0  0  0  3  0  0  0  0  0  0
   27.5290   28.5990   49.3140 C   0  0  0  0  0  0  0  0  0  0  0  0
   26.7760   28.4370   50.4710 C   0  0  0  0  0  3  0  0  0  0  0  0
   27.1910   27.5940   51.4820 C   0  0  0  0  0  3  0  0  0  0  0  0
   28.3920   26.9190   51.2820 C   0  0  0  0  0  3  0  0  0  0  0  0
   29.1100   27.1070   50.1210 C   0  0  0  0  0  3  0  0  0  0  0  0
   28.7210   27.9300   49.1130 C   0  0  0  0  0  0  0  0  0  0  0  0
   35.1480   30.6860   43.5420 C   0  0  0  0  0  0  0  0  0  0  0  0
   35.5500   29.7910   42.5590 F   0  0  0  0  0  0  0  0  0  0  0  0
   36.2580   31.5250   43.7790 F   0  0  0  0  0  0  0  0  0  0  0  0
   34.1480   31.5380   43.1060 F   0  0  0  0  0  0  0  0  0  0  0  0
  1 18  1  0  0  0  0
  1  5  1  0  0  0  0
  2  1  1  0  0  0  0
  3  2  2  0  0  0  0
  3  4  1  0  0  0  0
  4  5  2  0  0  0  0
  5  6  1  0  0  0  0
  6 15  2  0  0  0  0
  6  7  1  0  0  0  0
  7  8  2  0  0  0  0
  8  9  1  0  0  0  0
 10 11  1  0  0  0  0
 10  9  2  0  0  0  0
 12 11  2  0  0  0  0
 13 12  1  0  0  0  0
 14 13  2  0  0  0  0
 14 15  1  0  0  0  0
 15 10  1  0  0  0  0
 16 21  1  0  0  0  0
 17 16  2  0  0  0  0
 18 17  1  0  0  0  0
 18 19  2  0  0  0  0
 19 20  1  0  0  0  0
 20 21  2  0  0  0  0
 20 22  1  0  0  0  0
 22 31  1  0  0  0  0
 23 24  1  0  0  0  0
 23 22  2  0  0  0  0
 24 25  2  0  0  0  0
 25 26  1  0  0  0  0
 26 27  1  0  0  0  0
 27 28  2  0  0  0  0
 29 28  1  0  0  0  0
 30 29  2  0  0  0  0
 31 26  2  0  0  0  0
 31 30  1  0  0  0  0
 32 34  1  0  0  0  0
 32  3  1  0  0  0  0
 33 32  1  0  0  0  0
 35 32  1  0  0  0  0
M  END
>  <minimizedAffinity>
-8.51114082

$$$$

 OpenBabel03272514443D

 35 40  0  0  0  0  0  0  0  0999 V2000
   31.2020   30.2580   45.4110 N   0  0  0  0  0  0  0  0  0  0  0  0
   30.5510   31.1580   44.6710 C   0  0  0  0  0  3  0  0  0  0  0  0
   29.2310   30.9260   44.8940 C   0  0  0  0  0  0  0  0  0  0  0  0
   29.1200   29.9190   45.7370 N   0  0  0  0  0  0  0  0  0  0  0  0
   30.3510   29.4790   46.0820 C   0  0  0  0  0  0  0  0  0  0  0  0
   30.5230   28.3720   46.9900 C   0  0  0  0  0  0  0  0  0  0  0  0
   31.3700   27.3450   46.8880 N   0  0  0  0  0  0  0  0  0  0  0  0
   31.4880   26.3350   47.7440 C   0  0  0  0  0  3  0  0  0  0  0  0
   30.7230   26.2540   48.8420 N   0  0  0  0  0  0  0  0  0  0  0  0
   29.8180   27.2550   49.0420 C   0  0  0  0  0  0  0  0  0  0  0  0
   29.0410   27.1300   50.1660 C   0  0  0  0  0  3  0  0  0  0  0  0
   28.0910   28.0820   50.4350 C   0  0  0  0  0  3  0  0  0  0  0  0
   27.9410   29.1410   49.5690 C   0  0  0  0  0  3  0  0  0  0  0  0
   28.7770   29.1600   48.4770 C   0  0  0  0  0  3  0  0  0  0  0  0
   29.7530   28.2610   48.1240 C   0  0  0  0  0  0  0  0  0  0  0  0
   34.7620   30.2090   44.3170 C   0  0  0  0  0  3  0  0  0  0  0  0
   33.3610   30.2900   44.2100 C   0  0  0  0  0  3  0  0  0  0  0  0
   32.6270   30.1920   45.4050 C   0  0  0  0  0  0  0  0  0  0  0  0
   33.3530   30.0340   46.4940 N   0  0  0  0  0  0  0  0  0  0  0  0
   34.6850   29.9550   46.6180 C   0  0  0  0  0  0  0  0  0  0  0  0
   35.3640   30.0490   45.4790 N   0  0  0  0  0  0  0  0  0  0  0  0
   35.1180   29.7790   47.9950 C   0  0  0  0  0  0  0  0  0  0  0  0
   34.4280   28.9490   48.8560 C   0  0  0  0  0  3  0  0  0  0  0  0
   34.7810   28.7330   50.1710 C   0  0  0  0  0  3  0  0  0  0  0  0
   35.8920   29.3730   50.6990 C   0  0  0  0  0  3  0  0  0  0  0  0
   36.5900   30.1960   49.8780 C   0  0  0  0  0  0  0  0  0  0  0  0
   37.7140   30.8210   50.4070 C   0  0  0  0  0  3  0  0  0  0  0  0
   38.4920   31.6610   49.6370 C   0  0  0  0  0  3  0  0  0  0  0  0
   38.0980   31.8470   48.3150 C   0  0  0  0  0  3  0  0  0  0  0  0
   36.9770   31.2100   47.8280 C   0  0  0  0  0  3  0  0  0  0  0  0
   36.1960   30.3780   48.5660 C   0  0  0  0  0  0  0  0  0  0  0  0
   28.0450   31.6380   44.3430 C   0  0  0  0  0  0  0  0  0  0  0  0
   27.1100   31.9480   45.3220 F   0  0  0  0  0  0  0  0  0  0  0  0
   27.3750   30.8160   43.4130 F   0  0  0  0  0  0  0  0  0  0  0  0
   28.4390   32.7480   43.6150 F   0  0  0  0  0  0  0  0  0  0  0  0
  1  5  1  0  0  0  0
  2  3  2  0  0  0  0
  2  1  1  0  0  0  0
  3  4  1  0  0  0  0
  4  5  2  0  0  0  0
  5  6  1  0  0  0  0
  6 15  1  0  0  0  0
  7  6  2  0  0  0  0
  7  8  1  0  0  0  0
  8  9  2  0  0  0  0
  9 10  1  0  0  0  0
 10 11  1  0  0  0  0
 11 12  2  0  0  0  0
 13 12  1  0  0  0  0
 14 13  2  0  0  0  0
 15 14  1  0  0  0  0
 15 10  2  0  0  0  0
 16 21  1  0  0  0  0
 17 16  2  0  0  0  0
 17 18  1  0  0  0  0
 18  1  1  0  0  0  0
 18 19  2  0  0  0  0
 19 20  1  0  0  0  0
 20 22  1  0  0  0  0
 21 20  2  0  0  0  0
 22 31  2  0  0  0  0
 22 23  1  0  0  0  0
 23 24  2  0  0  0  0
 24 25  1  0  0  0  0
 26 27  1  0  0  0  0
 26 25  2  0  0  0  0
 28 27  2  0  0  0  0
 29 28  1  0  0  0  0
 30 29  2  0  0  0  0
 30 31  1  0  0  0  0
 31 26  1  0  0  0  0
 32  3  1  0  0  0  0
 32 33  1  0  0  0  0
 34 32  1  0  0  0  0
 35 32  1  0  0  0  0
M  END
>  <minimizedAffinity>
-8.41890526

$$$$

 OpenBabel03272514443D

 35 40  0  0  0  0  0  0  0  0999 V2000
   33.9440   28.8150   48.3880 N   0  0  0  0  0  0  0  0  0  0  0  0
   34.8060   28.7940   49.4080 C   0  0  0  0  0  3  0  0  0  0  0  0
   35.5940   29.8880   49.2400 C   0  0  0  0  0  0  0  0  0  0  0  0
   35.2020   30.5240   48.1550 N   0  0  0  0  0  0  0  0  0  0  0  0
   34.1600   29.8680   47.5970 C   0  0  0  0  0  0  0  0  0  0  0  0
   33.5380   30.3430   46.3860 C   0  0  0  0  0  0  0  0  0  0  0  0
   32.4060   31.0390   46.2570 N   0  0  0  0  0  0  0  0  0  0  0  0
   31.8580   31.4470   45.1170 C   0  0  0  0  0  3  0  0  0  0  0  0
   32.4250   31.1790   43.9320 N   0  0  0  0  0  0  0  0  0  0  0  0
   33.5890   30.4680   43.9490 C   0  0  0  0  0  0  0  0  0  0  0  0
   34.1320   30.1970   42.7180 C   0  0  0  0  0  3  0  0  0  0  0  0
   35.2920   29.4690   42.6400 C   0  0  0  0  0  3  0  0  0  0  0  0
   35.8850   29.0300   43.8020 C   0  0  0  0  0  3  0  0  0  0  0  0
   35.2510   29.3640   44.9750 C   0  0  0  0  0  3  0  0  0  0  0  0
   34.0950   30.0830   45.1550 C   0  0  0  0  0  0  0  0  0  0  0  0
   32.2140   25.6660   47.4070 C   0  0  0  0  0  3  0  0  0  0  0  0
   33.2500   26.6140   47.5060 C   0  0  0  0  0  3  0  0  0  0  0  0
   32.9680   27.7880   48.2270 C   0  0  0  0  0  0  0  0  0  0  0  0
   31.7500   27.8560   48.7280 N   0  0  0  0  0  0  0  0  0  0  0  0
   30.7520   26.9660   48.6440 C   0  0  0  0  0  0  0  0  0  0  0  0
   31.0340   25.8630   47.9600 N   0  0  0  0  0  0  0  0  0  0  0  0
   29.5460   27.4000   49.3320 C   0  0  0  0  0  0  0  0  0  0  0  0
   29.2460   26.9390   50.6000 C   0  0  0  0  0  3  0  0  0  0  0  0
   28.1260   27.3070   51.3120 C   0  0  0  0  0  3  0  0  0  0  0  0
   27.2170   28.1940   50.7540 C   0  0  0  0  0  3  0  0  0  0  0  0
   27.4840   28.6650   49.5100 C   0  0  0  0  0  0  0  0  0  0  0  0
   26.5790   29.5670   48.9630 C   0  0  0  0  0  3  0  0  0  0  0  0
   26.7800   30.1090   47.7100 C   0  0  0  0  0  3  0  0  0  0  0  0
   27.9260   29.7090   47.0290 C   0  0  0  0  0  3  0  0  0  0  0  0
   28.7990   28.8110   47.6060 C   0  0  0  0  0  3  0  0  0  0  0  0
   28.6230   28.2650   48.8380 C   0  0  0  0  0  0  0  0  0  0  0  0
   36.7160   30.3760   50.0880 C   0  0  0  0  0  0  0  0  0  0  0  0
   37.9460   29.8700   49.6860 F   0  0  0  0  0  0  0  0  0  0  0  0
   36.5380   29.9490   51.4210 F   0  0  0  0  0  0  0  0  0  0  0  0
   36.7080   31.7590   50.1560 F   0  0  0  0  0  0  0  0  0  0  0  0
  1  2  1  0  0  0  0
  3  2  2  0  0  0  0
  3 32  1  0  0  0  0
  4  3  1  0  0  0  0
  5  4  2  0  0  0  0
  5  1  1  0  0  0  0
  6  5  1  0  0  0  0
  7  6  1  0  0  0  0
  8  7  2  0  0  0  0
  9 10  2  0  0  0  0
  9  8  1  0  0  0  0
 10 15  1  0  0  0  0
 11 10  1  0  0  0  0
 12 11  2  0  0  0  0
 12 13  1  0  0  0  0
 13 14  2  0  0  0  0
 14 15  1  0  0  0  0
 15  6  2  0  0  0  0
 16 17  2  0  0  0  0
 16 21  1  0  0  0  0
 17 18  1  0  0  0  0
 18  1  1  0  0  0  0
 18 19  2  0  0  0  0
 20 19  1  0  0  0  0
 20 22  1  0  0  0  0
 21 20  2  0  0  0  0
 22 23  1  0  0  0  0
 23 24  2  0  0  0  0
 25 24  1  0  0  0  0
 26 25  2  0  0  0  0
 27 26  1  0  0  0  0
 28 27  2  0  0  0  0
 29 30  2  0  0  0  0
 29 28  1  0  0  0  0
 30 31  1  0  0  0  0
 31 22  2  0  0  0  0
 31 26  1  0  0  0  0
 32 35  1  0  0  0  0
 32 34  1  0  0  0  0
 33 32  1  0  0  0  0
M  END
>  <minimizedAffinity>
-8.32927895

$$$$

 OpenBabel03272514443D

 35 40  0  0  0  0  0  0  0  0999 V2000
   31.4680   30.0630   45.7290 N   0  0  0  0  0  0  0  0  0  0  0  0
   31.8480   31.2610   45.2780 C   0  0  0  0  0  3  0  0  0  0  0  0
   30.7980   31.7280   44.5540 C   0  0  0  0  0  0  0  0  0  0  0  0
   29.8360   30.8280   44.5840 N   0  0  0  0  0  0  0  0  0  0  0  0
   30.2320   29.7660   45.3210 C   0  0  0  0  0  0  0  0  0  0  0  0
   29.3730   28.6230   45.5110 C   0  0  0  0  0  0  0  0  0  0  0  0
   29.2250   27.5600   44.7180 N   0  0  0  0  0  0  0  0  0  0  0  0
   28.4080   26.5320   44.9230 C   0  0  0  0  0  3  0  0  0  0  0  0
   27.6180   26.4710   46.0040 N   0  0  0  0  0  0  0  0  0  0  0  0
   27.6880   27.5110   46.8830 C   0  0  0  0  0  0  0  0  0  0  0  0
   26.8530   27.4230   47.9680 C   0  0  0  0  0  3  0  0  0  0  0  0
   26.8430   28.4360   48.8930 C   0  0  0  0  0  3  0  0  0  0  0  0
   27.6750   29.5170   48.7100 C   0  0  0  0  0  3  0  0  0  0  0  0
   28.4680   29.4940   47.5860 C   0  0  0  0  0  3  0  0  0  0  0  0
   28.5490   28.5320   46.6090 C   0  0  0  0  0  0  0  0  0  0  0  0
   32.9060   27.2750   47.7360 C   0  0  0  0  0  3  0  0  0  0  0  0
   31.9670   27.9810   46.9610 C   0  0  0  0  0  3  0  0  0  0  0  0
   32.3430   29.2610   46.5180 C   0  0  0  0  0  0  0  0  0  0  0  0
   33.5480   29.6470   46.8890 N   0  0  0  0  0  0  0  0  0  0  0  0
   34.4560   28.9910   47.6250 C   0  0  0  0  0  0  0  0  0  0  0  0
   34.0840   27.7830   48.0360 N   0  0  0  0  0  0  0  0  0  0  0  0
   35.6810   29.7500   47.8250 C   0  0  0  0  0  0  0  0  0  0  0  0
   36.3020   30.3870   46.7670 C   0  0  0  0  0  3  0  0  0  0  0  0
   37.4610   31.1230   46.8820 C   0  0  0  0  0  3  0  0  0  0  0  0
   38.0720   31.2570   48.1200 C   0  0  0  0  0  3  0  0  0  0  0  0
   37.4860   30.6430   49.1770 C   0  0  0  0  0  0  0  0  0  0  0  0
   38.0920   30.7960   50.4180 C   0  0  0  0  0  3  0  0  0  0  0  0
   37.5550   30.2200   51.5520 C   0  0  0  0  0  3  0  0  0  0  0  0
   36.3830   29.4860   51.3870 C   0  0  0  0  0  3  0  0  0  0  0  0
   35.8130   29.3580   50.1400 C   0  0  0  0  0  3  0  0  0  0  0  0
   36.3220   29.9160   49.0110 C   0  0  0  0  0  0  0  0  0  0  0  0
   30.6540   33.0220   43.8330 C   0  0  0  0  0  0  0  0  0  0  0  0
   31.5160   33.1250   42.7490 F   0  0  0  0  0  0  0  0  0  0  0  0
   30.9810   34.0940   44.6910 F   0  0  0  0  0  0  0  0  0  0  0  0
   29.3330   33.2410   43.4830 F   0  0  0  0  0  0  0  0  0  0  0  0
  1 18  1  0  0  0  0
  2  1  1  0  0  0  0
  3  4  1  0  0  0  0
  3  2  2  0  0  0  0
  4  5  2  0  0  0  0
  5  6  1  0  0  0  0
  5  1  1  0  0  0  0
  6 15  1  0  0  0  0
  7  8  1  0  0  0  0
  7  6  2  0  0  0  0
  8  9  2  0  0  0  0
  9 10  1  0  0  0  0
 10 11  1  0  0  0  0
 11 12  2  0  0  0  0
 13 12  1  0  0  0  0
 14 13  2  0  0  0  0
 15 10  2  0  0  0  0
 15 14  1  0  0  0  0
 16 21  1  0  0  0  0
 17 16  2  0  0  0  0
 18 19  2  0  0  0  0
 18 17  1  0  0  0  0
 19 20  1  0  0  0  0
 20 22  1  0  0  0  0
 20 21  2  0  0  0  0
 22 31  1  0  0  0  0
 23 24  1  0  0  0  0
 23 22  2  0  0  0  0
 24 25  2  0  0  0  0
 25 26  1  0  0  0  0
 26 27  1  0  0  0  0
 27 28  2  0  0  0  0
 29 28  1  0  0  0  0
 30 29  2  0  0  0  0
 31 26  2  0  0  0  0
 31 30  1  0  0  0  0
 32  3  1  0  0  0  0
 32 34  1  0  0  0  0
 33 32  1  0  0  0  0
 35 32  1  0  0  0  0
M  END
>  <minimizedAffinity>
-8.30895042

$$$$

 OpenBabel03272514443D

 35 40  0  0  0  0  0  0  0  0999 V2000
   32.1040   26.7540   46.8830 N   0  0  0  0  0  0  0  0  0  0  0  0
   33.0720   25.8390   46.9810 C   0  0  0  0  0  3  0  0  0  0  0  0
   32.4340   24.6540   47.1670 C   0  0  0  0  0  0  0  0  0  0  0  0
   31.1350   24.8750   47.1790 N   0  0  0  0  0  0  0  0  0  0  0  0
   30.8980   26.1940   47.0000 C   0  0  0  0  0  0  0  0  0  0  0  0
   29.5550   26.7180   46.9800 C   0  0  0  0  0  0  0  0  0  0  0  0
   28.7570   26.9060   45.9270 N   0  0  0  0  0  0  0  0  0  0  0  0
   27.5260   27.4070   45.9500 C   0  0  0  0  0  3  0  0  0  0  0  0
   26.9480   27.7890   47.0970 N   0  0  0  0  0  0  0  0  0  0  0  0
   27.6800   27.6430   48.2400 C   0  0  0  0  0  0  0  0  0  0  0  0
   27.0640   28.0610   49.3910 C   0  0  0  0  0  3  0  0  0  0  0  0
   27.7350   27.9690   50.5850 C   0  0  0  0  0  3  0  0  0  0  0  0
   29.0120   27.4570   50.5960 C   0  0  0  0  0  3  0  0  0  0  0  0
   29.5250   27.0700   49.3800 C   0  0  0  0  0  3  0  0  0  0  0  0
   28.9360   27.1220   48.1410 C   0  0  0  0  0  0  0  0  0  0  0  0
   31.8770   30.3750   46.0420 C   0  0  0  0  0  3  0  0  0  0  0  0
   31.4680   29.0350   46.1790 C   0  0  0  0  0  3  0  0  0  0  0  0
   32.4120   28.1350   46.7040 C   0  0  0  0  0  0  0  0  0  0  0  0
   33.5800   28.6660   47.0070 N   0  0  0  0  0  0  0  0  0  0  0  0
   33.9880   29.9360   46.8840 C   0  0  0  0  0  0  0  0  0  0  0  0
   33.0850   30.7740   46.3860 N   0  0  0  0  0  0  0  0  0  0  0  0
   35.3580   30.1380   47.3290 C   0  0  0  0  0  0  0  0  0  0  0  0
   36.3360   30.5610   46.4490 C   0  0  0  0  0  3  0  0  0  0  0  0
   37.6510   30.7750   46.7990 C   0  0  0  0  0  3  0  0  0  0  0  0
   38.0580   30.5620   48.1070 C   0  0  0  0  0  3  0  0  0  0  0  0
   37.1210   30.1460   48.9950 C   0  0  0  0  0  0  0  0  0  0  0  0
   37.5310   29.9520   50.3090 C   0  0  0  0  0  3  0  0  0  0  0  0
   36.6410   29.5450   51.2820 C   0  0  0  0  0  3  0  0  0  0  0  0
   35.3220   29.3430   50.8820 C   0  0  0  0  0  3  0  0  0  0  0  0
   34.9560   29.5460   49.5690 C   0  0  0  0  0  3  0  0  0  0  0  0
   35.8140   29.9470   48.5940 C   0  0  0  0  0  0  0  0  0  0  0  0
   33.0100   23.2900   47.3240 C   0  0  0  0  0  0  0  0  0  0  0  0
   34.1570   23.2850   48.1080 F   0  0  0  0  0  0  0  0  0  0  0  0
   33.3980   22.7810   46.0660 F   0  0  0  0  0  0  0  0  0  0  0  0
   32.0500   22.4050   47.7830 F   0  0  0  0  0  0  0  0  0  0  0  0
  1  2  1  0  0  0  0
  1  5  1  0  0  0  0
  2  3  2  0  0  0  0
  3  4  1  0  0  0  0
  3 32  1  0  0  0  0
  5  4  2  0  0  0  0
  6  5  1  0  0  0  0
  6 15  1  0  0  0  0
  7  8  1  0  0  0  0
  7  6  2  0  0  0  0
  8  9  2  0  0  0  0
  9 10  1  0  0  0  0
 10 11  1  0  0  0  0
 11 12  2  0  0  0  0
 12 13  1  0  0  0  0
 14 13  2  0  0  0  0
 15 10  2  0  0  0  0
 15 14  1  0  0  0  0
 16 17  2  0  0  0  0
 16 21  1  0  0  0  0
 17 18  1  0  0  0  0
 18  1  1  0  0  0  0
 18 19  2  0  0  0  0
 20 19  1  0  0  0  0
 20 22  1  0  0  0  0
 21 20  2  0  0  0  0
 22 31  1  0  0  0  0
 23 24  1  0  0  0  0
 23 22  2  0  0  0  0
 24 25  2  0  0  0  0
 25 26  1  0  0  0  0
 26 27  1  0  0  0  0
 27 28  2  0  0  0  0
 29 28  1  0  0  0  0
 30 29  2  0  0  0  0
 31 26  2  0  0  0  0
 31 30  1  0  0  0  0
 32 35  1  0  0  0  0
 32 33  1  0  0  0  0
 34 32  1  0  0  0  0
M  END
>  <minimizedAffinity>
-8.22940445

$$$$

 OpenBabel03272514443D

 35 40  0  0  0  0  0  0  0  0999 V2000
   31.2620   26.7800   46.3980 N   0  0  0  0  0  0  0  0  0  0  0  0
   32.0150   25.7050   46.1520 C   0  0  0  0  0  3  0  0  0  0  0  0
   31.1720   24.6430   46.2350 C   0  0  0  0  0  0  0  0  0  0  0  0
   29.9650   25.0880   46.5200 N   0  0  0  0  0  0  0  0  0  0  0  0
   29.9930   26.4360   46.6280 C   0  0  0  0  0  0  0  0  0  0  0  0
   28.8040   27.1870   46.9460 C   0  0  0  0  0  0  0  0  0  0  0  0
   27.9440   27.7670   46.1060 N   0  0  0  0  0  0  0  0  0  0  0  0
   26.8640   28.4650   46.4420 C   0  0  0  0  0  3  0  0  0  0  0  0
   26.5260   28.6580   47.7250 N   0  0  0  0  0  0  0  0  0  0  0  0
   27.3420   28.1080   48.6700 C   0  0  0  0  0  0  0  0  0  0  0  0
   26.9760   28.3410   49.9710 C   0  0  0  0  0  3  0  0  0  0  0  0
   27.7500   27.8410   50.9880 C   0  0  0  0  0  3  0  0  0  0  0  0
   28.8770   27.1160   50.6750 C   0  0  0  0  0  3  0  0  0  0  0  0
   29.1420   26.9470   49.3360 C   0  0  0  0  0  3  0  0  0  0  0  0
   28.4320   27.4040   48.2530 C   0  0  0  0  0  0  0  0  0  0  0  0
   32.0130   30.3490   45.6460 C   0  0  0  0  0  3  0  0  0  0  0  0
   31.3820   29.0950   45.5440 C   0  0  0  0  0  3  0  0  0  0  0  0
   31.8290   28.0880   46.4180 C   0  0  0  0  0  0  0  0  0  0  0  0
   32.7980   28.4490   47.2360 N   0  0  0  0  0  0  0  0  0  0  0  0
   33.4110   29.6360   47.3480 C   0  0  0  0  0  0  0  0  0  0  0  0
   32.9760   30.5760   46.5160 N   0  0  0  0  0  0  0  0  0  0  0  0
   34.4400   29.6480   48.3760 C   0  0  0  0  0  0  0  0  0  0  0  0
   34.1670   29.2190   49.6600 C   0  0  0  0  0  3  0  0  0  0  0  0
   35.0910   29.2010   50.6820 C   0  0  0  0  0  3  0  0  0  0  0  0
   36.3870   29.6330   50.4450 C   0  0  0  0  0  3  0  0  0  0  0  0
   36.6860   30.0610   49.1940 C   0  0  0  0  0  0  0  0  0  0  0  0
   37.9910   30.4770   48.9580 C   0  0  0  0  0  3  0  0  0  0  0  0
   38.3870   30.9120   47.7090 C   0  0  0  0  0  3  0  0  0  0  0  0
   37.4200   30.9120   46.7080 C   0  0  0  0  0  3  0  0  0  0  0  0
   36.1360   30.4930   46.9830 C   0  0  0  0  0  3  0  0  0  0  0  0
   35.7230   30.0590   48.2030 C   0  0  0  0  0  0  0  0  0  0  0  0
   31.4600   23.1960   46.0360 C   0  0  0  0  0  0  0  0  0  0  0  0
   32.3580   22.9700   45.0010 F   0  0  0  0  0  0  0  0  0  0  0  0
   30.2780   22.5110   45.6810 F   0  0  0  0  0  0  0  0  0  0  0  0
   31.8630   22.6130   47.2250 F   0  0  0  0  0  0  0  0  0  0  0  0
  1 18  1  0  0  0  0
  1  5  1  0  0  0  0
  2  3  2  0  0  0  0
  2  1  1  0  0  0  0
  3  4  1  0  0  0  0
  4  5  2  0  0  0  0
  5  6  1  0  0  0  0
  6 15  1  0  0  0  0
  7  8  1  0  0  0  0
  7  6  2  0  0  0  0
  8  9  2  0  0  0  0
  9 10  1  0  0  0  0
 10 11  1  0  0  0  0
 11 12  2  0  0  0  0
 13 12  1  0  0  0  0
 14 13  2  0  0  0  0
 15 10  2  0  0  0  0
 15 14  1  0  0  0  0
 16 21  1  0  0  0  0
 17 16  2  0  0  0  0
 17 18  1  0  0  0  0
 18 19  2  0  0  0  0
 19 20  1  0  0  0  0
 20 22  1  0  0  0  0
 21 20  2  0  0  0  0
 22 23  1  0  0  0  0
 23 24  2  0  0  0  0
 25 24  1  0  0  0  0
 26 25  2  0  0  0  0
 27 26  1  0  0  0  0
 28 27  2  0  0  0  0
 29 30  2  0  0  0  0
 29 28  1  0  0  0  0
 30 31  1  0  0  0  0
 31 22  2  0  0  0  0
 31 26  1  0  0  0  0
 32  3  1  0  0  0  0
 32 35  1  0  0  0  0
 33 32  1  0  0  0  0
 34 32  1  0  0  0  0
M  END
>  <minimizedAffinity>
-8.14958191

$$$$

 OpenBabel03272514443D

 35 40  0  0  0  0  0  0  0  0999 V2000
   31.7910   29.4950   46.1520 N   0  0  0  0  0  0  0  0  0  0  0  0
   32.2240   30.6830   45.7230 C   0  0  0  0  0  3  0  0  0  0  0  0
   31.1620   31.2510   45.0930 C   0  0  0  0  0  0  0  0  0  0  0  0
   30.1440   30.4170   45.1540 N   0  0  0  0  0  0  0  0  0  0  0  0
   30.5130   29.2990   45.8200 C   0  0  0  0  0  0  0  0  0  0  0  0
   29.5900   28.2100   46.0240 C   0  0  0  0  0  0  0  0  0  0  0  0
   29.3760   27.1510   45.2400 N   0  0  0  0  0  0  0  0  0  0  0  0
   28.5030   26.1730   45.4590 C   0  0  0  0  0  3  0  0  0  0  0  0
   27.7170   26.1670   46.5440 N   0  0  0  0  0  0  0  0  0  0  0  0
   27.8520   27.2090   47.4150 C   0  0  0  0  0  0  0  0  0  0  0  0
   27.0200   27.1780   48.5040 C   0  0  0  0  0  3  0  0  0  0  0  0
   27.0740   28.1970   49.4210 C   0  0  0  0  0  3  0  0  0  0  0  0
   27.9660   29.2260   49.2240 C   0  0  0  0  0  3  0  0  0  0  0  0
   28.7490   29.1480   48.0970 C   0  0  0  0  0  3  0  0  0  0  0  0
   28.7690   28.1760   47.1270 C   0  0  0  0  0  0  0  0  0  0  0  0
   33.4460   26.4170   47.4400 C   0  0  0  0  0  3  0  0  0  0  0  0
   32.5400   27.2070   46.7080 C   0  0  0  0  0  3  0  0  0  0  0  0
   32.6590   28.6010   46.8460 C   0  0  0  0  0  0  0  0  0  0  0  0
   33.6180   29.0010   47.6570 N   0  0  0  0  0  0  0  0  0  0  0  0
   34.4900   28.2670   48.3620 C   0  0  0  0  0  0  0  0  0  0  0  0
   34.3640   26.9510   48.2200 N   0  0  0  0  0  0  0  0  0  0  0  0
   35.4080   29.0750   49.1490 C   0  0  0  0  0  0  0  0  0  0  0  0
   35.4360   28.9800   50.5270 C   0  0  0  0  0  3  0  0  0  0  0  0
   36.2780   29.7120   51.3350 C   0  0  0  0  0  3  0  0  0  0  0  0
   37.1680   30.6110   50.7660 C   0  0  0  0  0  3  0  0  0  0  0  0
   37.1650   30.7270   49.4160 C   0  0  0  0  0  0  0  0  0  0  0  0
   38.0710   31.6160   48.8500 C   0  0  0  0  0  3  0  0  0  0  0  0
   38.1480   31.7840   47.4830 C   0  0  0  0  0  3  0  0  0  0  0  0
   37.2780   31.0230   46.7060 C   0  0  0  0  0  3  0  0  0  0  0  0
   36.3930   30.1530   47.3050 C   0  0  0  0  0  3  0  0  0  0  0  0
   36.3000   29.9690   48.6480 C   0  0  0  0  0  0  0  0  0  0  0  0
   31.0630   32.5820   44.4350 C   0  0  0  0  0  0  0  0  0  0  0  0
   29.7570   32.9100   44.0940 F   0  0  0  0  0  0  0  0  0  0  0  0
   31.7910   32.5810   43.2260 F   0  0  0  0  0  0  0  0  0  0  0  0
   31.6680   33.5550   45.2110 F   0  0  0  0  0  0  0  0  0  0  0  0
  1 18  1  0  0  0  0
  2  1  1  0  0  0  0
  3  4  1  0  0  0  0
  3  2  2  0  0  0  0
  4  5  2  0  0  0  0
  5  6  1  0  0  0  0
  5  1  1  0  0  0  0
  6 15  1  0  0  0  0
  7  8  1  0  0  0  0
  7  6  2  0  0  0  0
  8  9  2  0  0  0  0
  9 10  1  0  0  0  0
 10 11  1  0  0  0  0
 11 12  2  0  0  0  0
 13 12  1  0  0  0  0
 14 13  2  0  0  0  0
 15 10  2  0  0  0  0
 15 14  1  0  0  0  0
 16 21  1  0  0  0  0
 17 18  1  0  0  0  0
 17 16  2  0  0  0  0
 18 19  2  0  0  0  0
 19 20  1  0  0  0  0
 20 22  1  0  0  0  0
 21 20  2  0  0  0  0
 22 23  1  0  0  0  0
 23 24  2  0  0  0  0
 25 24  1  0  0  0  0
 26 25  2  0  0  0  0
 27 26  1  0  0  0  0
 28 27  2  0  0  0  0
 29 30  2  0  0  0  0
 29 28  1  0  0  0  0
 30 31  1  0  0  0  0
 31 22  2  0  0  0  0
 31 26  1  0  0  0  0
 32  3  1  0  0  0  0
 32 35  1  0  0  0  0
 33 32  1  0  0  0  0
 34 32  1  0  0  0  0
M  END
>  <minimizedAffinity>
-8.13870907

$$$$

 OpenBabel03272514443D

 35 40  0  0  0  0  0  0  0  0999 V2000
   33.7770   28.7130   48.1590 N   0  0  0  0  0  0  0  0  0  0  0  0
   34.5860   28.6950   49.2210 C   0  0  0  0  0  3  0  0  0  0  0  0
   35.3080   29.8430   49.1470 C   0  0  0  0  0  0  0  0  0  0  0  0
   34.9300   30.5080   48.0740 N   0  0  0  0  0  0  0  0  0  0  0  0
   33.9620   29.8160   47.4310 C   0  0  0  0  0  0  0  0  0  0  0  0
   33.3710   30.3120   46.2130 C   0  0  0  0  0  0  0  0  0  0  0  0
   32.2960   31.0910   46.0740 N   0  0  0  0  0  0  0  0  0  0  0  0
   31.7740   31.5160   44.9280 C   0  0  0  0  0  3  0  0  0  0  0  0
   32.3100   31.1780   43.7470 N   0  0  0  0  0  0  0  0  0  0  0  0
   33.4160   30.3790   43.7740 C   0  0  0  0  0  0  0  0  0  0  0  0
   33.9270   30.0390   42.5470 C   0  0  0  0  0  3  0  0  0  0  0  0
   35.0260   29.2210   42.4790 C   0  0  0  0  0  3  0  0  0  0  0  0
   35.5900   28.7620   43.6470 C   0  0  0  0  0  3  0  0  0  0  0  0
   34.9920   29.1700   44.8160 C   0  0  0  0  0  3  0  0  0  0  0  0
   33.8970   29.9820   44.9850 C   0  0  0  0  0  0  0  0  0  0  0  0
   32.3770   25.3530   47.3700 C   0  0  0  0  0  3  0  0  0  0  0  0
   33.3480   26.3410   47.6140 C   0  0  0  0  0  3  0  0  0  0  0  0
   32.8790   27.6360   47.8990 C   0  0  0  0  0  0  0  0  0  0  0  0
   31.5670   27.7650   47.9010 N   0  0  0  0  0  0  0  0  0  0  0  0
   30.6260   26.8380   47.6710 C   0  0  0  0  0  0  0  0  0  0  0  0
   31.0870   25.6210   47.4040 N   0  0  0  0  0  0  0  0  0  0  0  0
   29.2740   27.3670   47.7640 C   0  0  0  0  0  0  0  0  0  0  0  0
   28.6060   27.8080   46.6380 C   0  0  0  0  0  3  0  0  0  0  0  0
   27.3260   28.3180   46.6500 C   0  0  0  0  0  3  0  0  0  0  0  0
   26.6330   28.4100   47.8470 C   0  0  0  0  0  3  0  0  0  0  0  0
   27.2630   27.9850   48.9700 C   0  0  0  0  0  0  0  0  0  0  0  0
   26.5570   28.0620   50.1650 C   0  0  0  0  0  3  0  0  0  0  0  0
   27.1140   27.6360   51.3530 C   0  0  0  0  0  3  0  0  0  0  0  0
   28.4090   27.1270   51.2920 C   0  0  0  0  0  3  0  0  0  0  0  0
   29.0760   27.0670   50.0880 C   0  0  0  0  0  3  0  0  0  0  0  0
   28.5470   27.4800   48.9060 C   0  0  0  0  0  0  0  0  0  0  0  0
   36.3530   30.3580   50.0750 C   0  0  0  0  0  0  0  0  0  0  0  0
   36.3610   31.7450   50.1490 F   0  0  0  0  0  0  0  0  0  0  0  0
   37.6350   29.9860   49.6160 F   0  0  0  0  0  0  0  0  0  0  0  0
   36.2350   29.7610   51.3180 F   0  0  0  0  0  0  0  0  0  0  0  0
  1  2  1  0  0  0  0
  3  2  2  0  0  0  0
  3 32  1  0  0  0  0
  4  3  1  0  0  0  0
  5  4  2  0  0  0  0
  5  1  1  0  0  0  0
  6  5  1  0  0  0  0
  7  6  1  0  0  0  0
  8  7  2  0  0  0  0
  9 10  2  0  0  0  0
  9  8  1  0  0  0  0
 10 15  1  0  0  0  0
 11 10  1  0  0  0  0
 12 11  2  0  0  0  0
 12 13  1  0  0  0  0
 13 14  2  0  0  0  0
 14 15  1  0  0  0  0
 15  6  2  0  0  0  0
 16 21  2  0  0  0  0
 16 17  1  0  0  0  0
 17 18  2  0  0  0  0
 18 19  1  0  0  0  0
 18  1  1  0  0  0  0
 20 22  1  0  0  0  0
 20 19  2  0  0  0  0
 21 20  1  0  0  0  0
 22 31  1  0  0  0  0
 23 24  1  0  0  0  0
 23 22  2  0  0  0  0
 24 25  2  0  0  0  0
 25 26  1  0  0  0  0
 26 27  1  0  0  0  0
 27 28  2  0  0  0  0
 29 28  1  0  0  0  0
 30 29  2  0  0  0  0
 31 26  2  0  0  0  0
 31 30  1  0  0  0  0
 32 33  1  0  0  0  0
 32 35  1  0  0  0  0
 34 32  1  0  0  0  0
M  END
>  <minimizedAffinity>
-8.0239296

$$$$
