
 OpenBabel03272514553D

 29 33  0  0  0  0  0  0  0  0999 V2000
   32.1600   25.9240   46.8000 C   0  0  0  0  0  3  0  0  0  0  0  0
   31.0060   26.6680   46.6180 C   0  0  0  0  0  3  0  0  0  0  0  0
   30.9040   27.9190   47.2800 C   0  0  0  0  0  0  0  0  0  0  0  0
   31.9760   28.3020   48.0620 N   0  0  0  0  0  0  0  0  0  0  0  0
   33.0530   27.5490   48.1980 C   0  0  0  0  0  0  0  0  0  0  0  0
   33.1540   26.3680   47.5760 N   0  0  0  0  0  0  0  0  0  0  0  0
   29.7240   28.7360   47.1560 C   0  0  0  0  0  0  0  0  0  0  0  0
   29.6580   29.4920   46.1340 O   0  0  0  0  0  0  0  0  0  0  0  0
   28.5080   28.9560   47.9250 C   0  0  0  0  0  0  0  0  0  0  0  0
   27.5940   29.8050   47.4300 N   0  0  0  0  0  0  0  0  0  0  0  0
   26.4190   30.0760   48.0830 C   0  0  0  0  0  3  0  0  0  0  0  0
   26.1290   29.4950   49.2600 N   0  0  0  0  0  0  0  0  0  0  0  0
   26.9890   28.6240   49.8350 C   0  0  0  0  0  0  0  0  0  0  0  0
   26.7240   28.0000   51.0340 C   0  0  0  0  0  3  0  0  0  0  0  0
   27.6070   27.1050   51.5990 C   0  0  0  0  0  3  0  0  0  0  0  0
   28.7860   26.8680   50.8860 C   0  0  0  0  0  3  0  0  0  0  0  0
   29.0030   27.5060   49.7090 C   0  0  0  0  0  3  0  0  0  0  0  0
   28.1460   28.3980   49.1300 C   0  0  0  0  0  0  0  0  0  0  0  0
   34.2130   27.9460   49.0540 C   0  0  0  0  0  2  0  0  0  0  0  0
   35.0940   28.9220   48.4190 C   0  0  0  0  0  0  0  0  0  0  0  0
   34.9130   29.2750   47.0830 C   0  0  0  0  0  3  0  0  0  0  0  0
   35.7270   30.2060   46.4800 C   0  0  0  0  0  3  0  0  0  0  0  0
   36.7580   30.8240   47.1890 C   0  0  0  0  0  3  0  0  0  0  0  0
   36.9270   30.4660   48.5140 C   0  0  0  0  0  0  0  0  0  0  0  0
   37.9480   31.0800   49.2180 C   0  0  0  0  0  3  0  0  0  0  0  0
   38.1710   30.7670   50.5500 C   0  0  0  0  0  3  0  0  0  0  0  0
   37.3500   29.8240   51.1710 C   0  0  0  0  0  3  0  0  0  0  0  0
   36.3380   29.2350   50.4170 C   0  0  0  0  0  3  0  0  0  0  0  0
   36.0950   29.5280   49.0960 C   0  0  0  0  0  0  0  0  0  0  0  0
  1  6  1  0  0  0  0
  2  1  2  0  0  0  0
  2  3  1  0  0  0  0
  3  4  2  0  0  0  0
  4  5  1  0  0  0  0
  5 19  1  0  0  0  0
  6  5  2  0  0  0  0
  7  3  1  0  0  0  0
  7  9  1  0  0  0  0
  8  7  2  0  0  0  0
  9 18  1  0  0  0  0
 10  9  2  0  0  0  0
 10 11  1  0  0  0  0
 11 12  2  0  0  0  0
 12 13  1  0  0  0  0
 13 14  1  0  0  0  0
 14 15  2  0  0  0  0
 16 15  1  0  0  0  0
 17 16  2  0  0  0  0
 18 17  1  0  0  0  0
 18 13  2  0  0  0  0
 20 19  1  0  0  0  0
 20 29  1  0  0  0  0
 21 20  2  0  0  0  0
 22 21  1  0  0  0  0
 22 23  2  0  0  0  0
 23 24  1  0  0  0  0
 24 29  2  0  0  0  0
 24 25  1  0  0  0  0
 25 26  2  0  0  0  0
 26 27  1  0  0  0  0
 28 27  2  0  0  0  0
 29 28  1  0  0  0  0
M  END
>  <minimizedAffinity>
-8.72469616

$$$$

 OpenBabel03272514553D

 29 33  0  0  0  0  0  0  0  0999 V2000
   33.6440   25.9520   47.4400 C   0  0  0  0  0  3  0  0  0  0  0  0
   32.2750   25.8010   47.5900 C   0  0  0  0  0  3  0  0  0  0  0  0
   31.4900   26.9670   47.7880 C   0  0  0  0  0  0  0  0  0  0  0  0
   32.1600   28.1740   47.8150 N   0  0  0  0  0  0  0  0  0  0  0  0
   33.4710   28.2560   47.6660 C   0  0  0  0  0  0  0  0  0  0  0  0
   34.2150   27.1590   47.4790 N   0  0  0  0  0  0  0  0  0  0  0  0
   30.0640   26.8860   47.9740 C   0  0  0  0  0  0  0  0  0  0  0  0
   29.4270   26.1230   47.1790 O   0  0  0  0  0  0  0  0  0  0  0  0
   29.0840   27.4730   48.8760 C   0  0  0  0  0  0  0  0  0  0  0  0
   28.9710   26.9540   50.1090 N   0  0  0  0  0  0  0  0  0  0  0  0
   28.0760   27.4400   51.0270 C   0  0  0  0  0  3  0  0  0  0  0  0
   27.2630   28.4680   50.7260 N   0  0  0  0  0  0  0  0  0  0  0  0
   27.3050   29.0550   49.5090 C   0  0  0  0  0  0  0  0  0  0  0  0
   26.4980   30.1170   49.1680 C   0  0  0  0  0  3  0  0  0  0  0  0
   26.5650   30.7110   47.9250 C   0  0  0  0  0  3  0  0  0  0  0  0
   27.4990   30.1740   47.0330 C   0  0  0  0  0  3  0  0  0  0  0  0
   28.2720   29.1280   47.4150 C   0  0  0  0  0  3  0  0  0  0  0  0
   28.2240   28.5210   48.6380 C   0  0  0  0  0  0  0  0  0  0  0  0
   34.2080   29.5560   47.7100 C   0  0  0  0  0  2  0  0  0  0  0  0
   35.0610   29.6990   48.8860 C   0  0  0  0  0  0  0  0  0  0  0  0
   34.6920   29.1250   50.1020 C   0  0  0  0  0  3  0  0  0  0  0  0
   35.4970   29.2390   51.2120 C   0  0  0  0  0  3  0  0  0  0  0  0
   36.7070   29.9320   51.1520 C   0  0  0  0  0  3  0  0  0  0  0  0
   37.0630   30.4950   49.9410 C   0  0  0  0  0  0  0  0  0  0  0  0
   38.2640   31.1810   49.8810 C   0  0  0  0  0  3  0  0  0  0  0  0
   38.6800   31.7680   48.6970 C   0  0  0  0  0  3  0  0  0  0  0  0
   37.8700   31.6580   47.5640 C   0  0  0  0  0  3  0  0  0  0  0  0
   36.6710   30.9590   47.6790 C   0  0  0  0  0  3  0  0  0  0  0  0
   36.2360   30.3660   48.8410 C   0  0  0  0  0  0  0  0  0  0  0  0
  1  6  2  0  0  0  0
  1  2  1  0  0  0  0
  2  3  2  0  0  0  0
  3  4  1  0  0  0  0
  3  7  1  0  0  0  0
  5 19  1  0  0  0  0
  5  4  2  0  0  0  0
  6  5  1  0  0  0  0
  7  9  1  0  0  0  0
  8  7  2  0  0  0  0
  9 10  1  0  0  0  0
 10 11  2  0  0  0  0
 12 11  1  0  0  0  0
 13 12  2  0  0  0  0
 14 13  1  0  0  0  0
 15 14  2  0  0  0  0
 16 17  2  0  0  0  0
 16 15  1  0  0  0  0
 17 18  1  0  0  0  0
 18  9  2  0  0  0  0
 18 13  1  0  0  0  0
 19 20  1  0  0  0  0
 20 21  1  0  0  0  0
 21 22  2  0  0  0  0
 23 22  1  0  0  0  0
 24 23  2  0  0  0  0
 25 24  1  0  0  0  0
 26 25  2  0  0  0  0
 27 28  2  0  0  0  0
 27 26  1  0  0  0  0
 28 29  1  0  0  0  0
 29 20  2  0  0  0  0
 29 24  1  0  0  0  0
M  END
>  <minimizedAffinity>
-8.35967541

$$$$

 OpenBabel03272514553D

 29 33  0  0  0  0  0  0  0  0999 V2000
   33.4340   25.6880   47.5450 C   0  0  0  0  0  3  0  0  0  0  0  0
   32.0830   25.4470   47.3550 C   0  0  0  0  0  3  0  0  0  0  0  0
   31.2240   26.5600   47.1670 C   0  0  0  0  0  0  0  0  0  0  0  0
   31.8090   27.8120   47.1880 N   0  0  0  0  0  0  0  0  0  0  0  0
   33.1060   27.9800   47.3740 C   0  0  0  0  0  0  0  0  0  0  0  0
   33.9200   26.9330   47.5520 N   0  0  0  0  0  0  0  0  0  0  0  0
   29.8060   26.3880   46.9860 C   0  0  0  0  0  0  0  0  0  0  0  0
   29.4340   25.3670   46.3240 O   0  0  0  0  0  0  0  0  0  0  0  0
   28.5990   27.1040   47.3730 C   0  0  0  0  0  0  0  0  0  0  0  0
   27.8040   27.5730   46.3980 N   0  0  0  0  0  0  0  0  0  0  0  0
   26.6470   28.2600   46.6650 C   0  0  0  0  0  3  0  0  0  0  0  0
   26.2560   28.4940   47.9300 N   0  0  0  0  0  0  0  0  0  0  0  0
   26.9920   28.0590   48.9770 C   0  0  0  0  0  0  0  0  0  0  0  0
   26.6190   28.2690   50.2860 C   0  0  0  0  0  3  0  0  0  0  0  0
   27.3760   27.8060   51.3410 C   0  0  0  0  0  3  0  0  0  0  0  0
   28.5430   27.1120   51.0060 C   0  0  0  0  0  3  0  0  0  0  0  0
   28.8680   26.9290   49.7030 C   0  0  0  0  0  3  0  0  0  0  0  0
   28.1380   27.3790   48.6410 C   0  0  0  0  0  0  0  0  0  0  0  0
   33.7470   29.3310   47.4140 C   0  0  0  0  0  2  0  0  0  0  0  0
   34.6590   29.5060   48.5410 C   0  0  0  0  0  0  0  0  0  0  0  0
   34.2910   29.0910   49.8200 C   0  0  0  0  0  3  0  0  0  0  0  0
   35.1500   29.2350   50.8860 C   0  0  0  0  0  3  0  0  0  0  0  0
   36.4140   29.8010   50.7160 C   0  0  0  0  0  3  0  0  0  0  0  0
   36.7680   30.2090   49.4430 C   0  0  0  0  0  0  0  0  0  0  0  0
   38.0220   30.7680   49.2740 C   0  0  0  0  0  3  0  0  0  0  0  0
   38.4390   31.1950   48.0240 C   0  0  0  0  0  3  0  0  0  0  0  0
   37.5750   31.0530   46.9350 C   0  0  0  0  0  3  0  0  0  0  0  0
   36.3240   30.4840   47.1600 C   0  0  0  0  0  3  0  0  0  0  0  0
   35.8860   30.0520   48.3900 C   0  0  0  0  0  0  0  0  0  0  0  0
  1  6  1  0  0  0  0
  2  1  2  0  0  0  0
  3  4  2  0  0  0  0
  3  2  1  0  0  0  0
  4  5  1  0  0  0  0
  5 19  1  0  0  0  0
  5  6  2  0  0  0  0
  7  3  1  0  0  0  0
  7  9  1  0  0  0  0
  8  7  2  0  0  0  0
  9 18  1  0  0  0  0
 10 11  1  0  0  0  0
 10  9  2  0  0  0  0
 11 12  2  0  0  0  0
 12 13  1  0  0  0  0
 13 14  1  0  0  0  0
 14 15  2  0  0  0  0
 16 15  1  0  0  0  0
 17 16  2  0  0  0  0
 18 13  2  0  0  0  0
 18 17  1  0  0  0  0
 19 20  1  0  0  0  0
 20 21  1  0  0  0  0
 21 22  2  0  0  0  0
 23 22  1  0  0  0  0
 24 23  2  0  0  0  0
 25 24  1  0  0  0  0
 26 25  2  0  0  0  0
 27 28  2  0  0  0  0
 27 26  1  0  0  0  0
 28 29  1  0  0  0  0
 29 20  2  0  0  0  0
 29 24  1  0  0  0  0
M  END
>  <minimizedAffinity>
-8.26922226

$$$$

 OpenBabel03272514553D

 29 33  0  0  0  0  0  0  0  0999 V2000
   32.2090   31.0240   45.4170 C   0  0  0  0  0  3  0  0  0  0  0  0
   30.9510   30.5070   45.6820 C   0  0  0  0  0  3  0  0  0  0  0  0
   30.8670   29.2930   46.4120 C   0  0  0  0  0  0  0  0  0  0  0  0
   32.0580   28.7150   46.8050 N   0  0  0  0  0  0  0  0  0  0  0  0
   33.2300   29.2560   46.5220 C   0  0  0  0  0  0  0  0  0  0  0  0
   33.3150   30.4010   45.8340 N   0  0  0  0  0  0  0  0  0  0  0  0
   29.5950   28.6830   46.7050 C   0  0  0  0  0  0  0  0  0  0  0  0
   29.2860   27.6510   46.0270 O   0  0  0  0  0  0  0  0  0  0  0  0
   28.4910   28.9350   47.6190 C   0  0  0  0  0  0  0  0  0  0  0  0
   27.5210   29.7750   47.2210 N   0  0  0  0  0  0  0  0  0  0  0  0
   26.4430   30.0730   48.0130 C   0  0  0  0  0  3  0  0  0  0  0  0
   26.3090   29.5310   49.2370 N   0  0  0  0  0  0  0  0  0  0  0  0
   27.2340   28.6730   49.7220 C   0  0  0  0  0  0  0  0  0  0  0  0
   27.1270   28.0890   50.9640 C   0  0  0  0  0  3  0  0  0  0  0  0
   28.0750   27.2070   51.4370 C   0  0  0  0  0  3  0  0  0  0  0  0
   29.1500   26.9390   50.5830 C   0  0  0  0  0  3  0  0  0  0  0  0
   29.2120   27.5390   49.3690 C   0  0  0  0  0  3  0  0  0  0  0  0
   28.2890   28.4170   48.8790 C   0  0  0  0  0  0  0  0  0  0  0  0
   34.5270   28.6320   46.9290 C   0  0  0  0  0  2  0  0  0  0  0  0
   35.0400   29.1370   48.1990 C   0  0  0  0  0  0  0  0  0  0  0  0
   34.4870   28.7100   49.4070 C   0  0  0  0  0  3  0  0  0  0  0  0
   34.9750   29.1680   50.6090 C   0  0  0  0  0  3  0  0  0  0  0  0
   36.0360   30.0720   50.6550 C   0  0  0  0  0  3  0  0  0  0  0  0
   36.5760   30.4880   49.4530 C   0  0  0  0  0  0  0  0  0  0  0  0
   37.6300   31.3840   49.4980 C   0  0  0  0  0  3  0  0  0  0  0  0
   38.2170   31.8380   48.3280 C   0  0  0  0  0  3  0  0  0  0  0  0
   37.7300   31.3800   47.1020 C   0  0  0  0  0  3  0  0  0  0  0  0
   36.6670   30.4810   47.1130 C   0  0  0  0  0  3  0  0  0  0  0  0
   36.0670   30.0130   48.2580 C   0  0  0  0  0  0  0  0  0  0  0  0
  1  2  2  0  0  0  0
  1  6  1  0  0  0  0
  2  3  1  0  0  0  0
  3  7  1  0  0  0  0
  3  4  2  0  0  0  0
  5  4  1  0  0  0  0
  5 19  1  0  0  0  0
  6  5  2  0  0  0  0
  7  9  1  0  0  0  0
  8  7  2  0  0  0  0
  9 18  1  0  0  0  0
 10  9  2  0  0  0  0
 10 11  1  0  0  0  0
 11 12  2  0  0  0  0
 12 13  1  0  0  0  0
 13 14  1  0  0  0  0
 14 15  2  0  0  0  0
 16 15  1  0  0  0  0
 17 16  2  0  0  0  0
 18 17  1  0  0  0  0
 18 13  2  0  0  0  0
 19 20  1  0  0  0  0
 20 29  2  0  0  0  0
 20 21  1  0  0  0  0
 21 22  2  0  0  0  0
 22 23  1  0  0  0  0
 24 25  1  0  0  0  0
 24 23  2  0  0  0  0
 26 25  2  0  0  0  0
 27 28  2  0  0  0  0
 27 26  1  0  0  0  0
 28 29  1  0  0  0  0
 29 24  1  0  0  0  0
M  END
>  <minimizedAffinity>
-8.26327991

$$$$

 OpenBabel03272514553D

 29 33  0  0  0  0  0  0  0  0999 V2000
   33.2410   25.8950   47.4070 C   0  0  0  0  0  3  0  0  0  0  0  0
   31.8600   25.8260   47.3330 C   0  0  0  0  0  3  0  0  0  0  0  0
   31.1020   26.8280   47.9930 C   0  0  0  0  0  0  0  0  0  0  0  0
   31.8100   27.8050   48.6670 N   0  0  0  0  0  0  0  0  0  0  0  0
   33.1310   27.8180   48.7030 C   0  0  0  0  0  0  0  0  0  0  0  0
   33.8490   26.8750   48.0820 N   0  0  0  0  0  0  0  0  0  0  0  0
   29.6620   26.8090   47.9790 C   0  0  0  0  0  0  0  0  0  0  0  0
   29.1100   26.1110   47.0690 O   0  0  0  0  0  0  0  0  0  0  0  0
   28.5910   27.4040   48.7640 C   0  0  0  0  0  0  0  0  0  0  0  0
   28.2620   26.8200   49.9270 N   0  0  0  0  0  0  0  0  0  0  0  0
   27.2670   27.3080   50.7340 C   0  0  0  0  0  3  0  0  0  0  0  0
   26.5710   28.4060   50.3900 N   0  0  0  0  0  0  0  0  0  0  0  0
   26.8330   29.0620   49.2380 C   0  0  0  0  0  0  0  0  0  0  0  0
   26.1500   30.1960   48.8560 C   0  0  0  0  0  3  0  0  0  0  0  0
   26.4400   30.8590   47.6830 C   0  0  0  0  0  3  0  0  0  0  0  0
   27.4660   30.3150   46.9040 C   0  0  0  0  0  3  0  0  0  0  0  0
   28.1100   29.1970   47.3210 C   0  0  0  0  0  3  0  0  0  0  0  0
   27.8410   28.5210   48.4760 C   0  0  0  0  0  0  0  0  0  0  0  0
   33.9070   28.8620   49.4420 C   0  0  0  0  0  2  0  0  0  0  0  0
   34.9250   29.5140   48.6230 C   0  0  0  0  0  0  0  0  0  0  0  0
   34.7390   29.6650   47.2490 C   0  0  0  0  0  3  0  0  0  0  0  0
   35.6850   30.2940   46.4720 C   0  0  0  0  0  3  0  0  0  0  0  0
   36.8570   30.7990   47.0370 C   0  0  0  0  0  3  0  0  0  0  0  0
   37.0300   30.6430   48.3990 C   0  0  0  0  0  0  0  0  0  0  0  0
   38.1910   31.1460   48.9600 C   0  0  0  0  0  3  0  0  0  0  0  0
   38.4250   31.0250   50.3200 C   0  0  0  0  0  3  0  0  0  0  0  0
   37.4720   30.3880   51.1190 C   0  0  0  0  0  3  0  0  0  0  0  0
   36.3210   29.9000   50.5040 C   0  0  0  0  0  3  0  0  0  0  0  0
   36.0640   30.0080   49.1580 C   0  0  0  0  0  0  0  0  0  0  0  0
  1  6  1  0  0  0  0
  2  1  2  0  0  0  0
  2  3  1  0  0  0  0
  3  4  2  0  0  0  0
  4  5  1  0  0  0  0
  5 19  1  0  0  0  0
  6  5  2  0  0  0  0
  7  3  1  0  0  0  0
  7  9  1  0  0  0  0
  8  7  2  0  0  0  0
  9 10  1  0  0  0  0
 10 11  2  0  0  0  0
 12 11  1  0  0  0  0
 13 12  2  0  0  0  0
 14 13  1  0  0  0  0
 15 14  2  0  0  0  0
 16 17  2  0  0  0  0
 16 15  1  0  0  0  0
 17 18  1  0  0  0  0
 18  9  2  0  0  0  0
 18 13  1  0  0  0  0
 20 29  1  0  0  0  0
 20 19  1  0  0  0  0
 21 20  2  0  0  0  0
 22 23  2  0  0  0  0
 22 21  1  0  0  0  0
 23 24  1  0  0  0  0
 24 25  2  0  0  0  0
 24 29  1  0  0  0  0
 25 26  1  0  0  0  0
 26 27  2  0  0  0  0
 28 27  1  0  0  0  0
 29 28  2  0  0  0  0
M  END
>  <minimizedAffinity>
-8.23957062

$$$$

 OpenBabel03272514553D

 29 33  0  0  0  0  0  0  0  0999 V2000
   33.2150   26.2150   45.9680 C   0  0  0  0  0  3  0  0  0  0  0  0
   33.9220   27.4030   46.0490 C   0  0  0  0  0  3  0  0  0  0  0  0
   33.5650   28.3270   47.0650 C   0  0  0  0  0  0  0  0  0  0  0  0
   32.5280   27.9660   47.9030 N   0  0  0  0  0  0  0  0  0  0  0  0
   31.8890   26.8160   47.7770 C   0  0  0  0  0  0  0  0  0  0  0  0
   32.2230   25.9410   46.8200 N   0  0  0  0  0  0  0  0  0  0  0  0
   34.2400   29.5930   47.1960 C   0  0  0  0  0  0  0  0  0  0  0  0
   33.5410   30.6370   46.9860 O   0  0  0  0  0  0  0  0  0  0  0  0
   35.5850   30.0420   47.5200 C   0  0  0  0  0  0  0  0  0  0  0  0
   36.3420   30.5360   46.5260 N   0  0  0  0  0  0  0  0  0  0  0  0
   37.6210   30.9820   46.7340 C   0  0  0  0  0  3  0  0  0  0  0  0
   38.1790   30.9440   47.9580 N   0  0  0  0  0  0  0  0  0  0  0  0
   37.4930   30.4650   49.0200 C   0  0  0  0  0  0  0  0  0  0  0  0
   38.0250   30.4200   50.2880 C   0  0  0  0  0  3  0  0  0  0  0  0
   37.3060   29.9390   51.3620 C   0  0  0  0  0  3  0  0  0  0  0  0
   36.0060   29.5010   51.0880 C   0  0  0  0  0  3  0  0  0  0  0  0
   35.5250   29.5650   49.8220 C   0  0  0  0  0  3  0  0  0  0  0  0
   36.2180   30.0340   48.7420 C   0  0  0  0  0  0  0  0  0  0  0  0
   30.7550   26.4200   48.6680 C   0  0  0  0  0  2  0  0  0  0  0  0
   29.5140   27.1310   48.3760 C   0  0  0  0  0  0  0  0  0  0  0  0
   29.2390   27.5740   47.0830 C   0  0  0  0  0  3  0  0  0  0  0  0
   28.0650   28.2300   46.7930 C   0  0  0  0  0  3  0  0  0  0  0  0
   27.1140   28.4690   47.7860 C   0  0  0  0  0  3  0  0  0  0  0  0
   27.3970   28.0250   49.0640 C   0  0  0  0  0  0  0  0  0  0  0  0
   26.4530   28.2610   50.0490 C   0  0  0  0  0  3  0  0  0  0  0  0
   26.6750   27.8400   51.3500 C   0  0  0  0  0  3  0  0  0  0  0  0
   27.8640   27.1730   51.6550 C   0  0  0  0  0  3  0  0  0  0  0  0
   28.7800   26.9630   50.6270 C   0  0  0  0  0  3  0  0  0  0  0  0
   28.5850   27.3690   49.3280 C   0  0  0  0  0  0  0  0  0  0  0  0
  1  2  2  0  0  0  0
  1  6  1  0  0  0  0
  2  3  1  0  0  0  0
  3  7  1  0  0  0  0
  3  4  2  0  0  0  0
  5  4  1  0  0  0  0
  5 19  1  0  0  0  0
  6  5  2  0  0  0  0
  7  9  1  0  0  0  0
  8  7  2  0  0  0  0
  9 18  1  0  0  0  0
 10 11  1  0  0  0  0
 10  9  2  0  0  0  0
 11 12  2  0  0  0  0
 12 13  1  0  0  0  0
 13 14  1  0  0  0  0
 14 15  2  0  0  0  0
 16 15  1  0  0  0  0
 17 16  2  0  0  0  0
 18 13  2  0  0  0  0
 18 17  1  0  0  0  0
 20 19  1  0  0  0  0
 20 29  1  0  0  0  0
 21 20  2  0  0  0  0
 22 21  1  0  0  0  0
 22 23  2  0  0  0  0
 23 24  1  0  0  0  0
 24 29  2  0  0  0  0
 24 25  1  0  0  0  0
 25 26  2  0  0  0  0
 26 27  1  0  0  0  0
 28 27  2  0  0  0  0
 29 28  1  0  0  0  0
M  END
>  <minimizedAffinity>
-8.08504391

$$$$

 OpenBabel03272514553D

 29 33  0  0  0  0  0  0  0  0999 V2000
   33.1820   25.9160   47.5580 C   0  0  0  0  0  3  0  0  0  0  0  0
   33.9630   27.0600   47.5400 C   0  0  0  0  0  3  0  0  0  0  0  0
   33.3150   28.3110   47.3710 C   0  0  0  0  0  0  0  0  0  0  0  0
   31.9400   28.2900   47.2370 N   0  0  0  0  0  0  0  0  0  0  0  0
   31.2470   27.1650   47.2620 C   0  0  0  0  0  0  0  0  0  0  0  0
   31.8550   25.9820   47.4210 N   0  0  0  0  0  0  0  0  0  0  0  0
   34.0640   29.5400   47.3190 C   0  0  0  0  0  0  0  0  0  0  0  0
   33.4290   30.5790   46.9450 O   0  0  0  0  0  0  0  0  0  0  0  0
   35.4330   29.9540   47.5890 C   0  0  0  0  0  0  0  0  0  0  0  0
   36.1710   30.3990   46.5600 N   0  0  0  0  0  0  0  0  0  0  0  0
   37.4700   30.8100   46.7170 C   0  0  0  0  0  3  0  0  0  0  0  0
   38.0660   30.7830   47.9220 N   0  0  0  0  0  0  0  0  0  0  0  0
   37.4000   30.3510   49.0170 C   0  0  0  0  0  0  0  0  0  0  0  0
   37.9710   30.3190   50.2690 C   0  0  0  0  0  3  0  0  0  0  0  0
   37.2720   29.8870   51.3760 C   0  0  0  0  0  3  0  0  0  0  0  0
   35.9510   29.4830   51.1540 C   0  0  0  0  0  3  0  0  0  0  0  0
   35.4320   29.5330   49.9020 C   0  0  0  0  0  3  0  0  0  0  0  0
   36.1040   29.9540   48.7900 C   0  0  0  0  0  0  0  0  0  0  0  0
   29.7610   27.1290   47.1020 C   0  0  0  0  0  2  0  0  0  0  0  0
   29.0420   27.6890   48.2420 C   0  0  0  0  0  0  0  0  0  0  0  0
   29.1960   27.1410   49.5160 C   0  0  0  0  0  3  0  0  0  0  0  0
   28.5370   27.6730   50.6000 C   0  0  0  0  0  3  0  0  0  0  0  0
   27.6950   28.7770   50.4560 C   0  0  0  0  0  3  0  0  0  0  0  0
   27.5500   29.3120   49.1900 C   0  0  0  0  0  0  0  0  0  0  0  0
   26.7170   30.4080   49.0470 C   0  0  0  0  0  3  0  0  0  0  0  0
   26.5300   30.9920   47.8050 C   0  0  0  0  0  3  0  0  0  0  0  0
   27.1950   30.4610   46.6980 C   0  0  0  0  0  3  0  0  0  0  0  0
   28.0210   29.3570   46.8960 C   0  0  0  0  0  3  0  0  0  0  0  0
   28.2250   28.7580   48.1170 C   0  0  0  0  0  0  0  0  0  0  0  0
  2  1  1  0  0  0  0
  3  2  2  0  0  0  0
  4  5  2  0  0  0  0
  4  3  1  0  0  0  0
  5  6  1  0  0  0  0
  6  1  2  0  0  0  0
  7  3  1  0  0  0  0
  7  9  1  0  0  0  0
  8  7  2  0  0  0  0
  9 18  1  0  0  0  0
 10 11  1  0  0  0  0
 10  9  2  0  0  0  0
 11 12  2  0  0  0  0
 12 13  1  0  0  0  0
 13 14  1  0  0  0  0
 14 15  2  0  0  0  0
 16 15  1  0  0  0  0
 17 16  2  0  0  0  0
 18 13  2  0  0  0  0
 18 17  1  0  0  0  0
 19  5  1  0  0  0  0
 19 20  1  0  0  0  0
 20 21  1  0  0  0  0
 21 22  2  0  0  0  0
 23 22  1  0  0  0  0
 24 23  2  0  0  0  0
 25 24  1  0  0  0  0
 26 25  2  0  0  0  0
 27 28  2  0  0  0  0
 27 26  1  0  0  0  0
 28 29  1  0  0  0  0
 29 20  2  0  0  0  0
 29 24  1  0  0  0  0
M  END
>  <minimizedAffinity>
-7.98013496

$$$$

 OpenBabel03272514553D

 29 33  0  0  0  0  0  0  0  0999 V2000
   32.1460   30.6060   45.7900 C   0  0  0  0  0  3  0  0  0  0  0  0
   31.0730   29.8300   46.1990 C   0  0  0  0  0  3  0  0  0  0  0  0
   31.3430   28.6560   46.9490 C   0  0  0  0  0  0  0  0  0  0  0  0
   32.6690   28.3750   47.2150 N   0  0  0  0  0  0  0  0  0  0  0  0
   33.6520   29.1540   46.7980 C   0  0  0  0  0  0  0  0  0  0  0  0
   33.4020   30.2620   46.0900 N   0  0  0  0  0  0  0  0  0  0  0  0
   30.2810   27.7880   47.3880 C   0  0  0  0  0  0  0  0  0  0  0  0
   29.9950   26.8070   46.6300 O   0  0  0  0  0  0  0  0  0  0  0  0
   29.3820   27.7160   48.5310 C   0  0  0  0  0  0  0  0  0  0  0  0
   29.7840   27.0200   49.6070 N   0  0  0  0  0  0  0  0  0  0  0  0
   29.0070   26.8960   50.7290 C   0  0  0  0  0  3  0  0  0  0  0  0
   27.7940   27.4730   50.8010 N   0  0  0  0  0  0  0  0  0  0  0  0
   27.3060   28.1940   49.7660 C   0  0  0  0  0  0  0  0  0  0  0  0
   26.0750   28.8090   49.8060 C   0  0  0  0  0  3  0  0  0  0  0  0
   25.5980   29.5520   48.7460 C   0  0  0  0  0  3  0  0  0  0  0  0
   26.4370   29.6440   47.6310 C   0  0  0  0  0  3  0  0  0  0  0  0
   27.6420   29.0220   47.6390 C   0  0  0  0  0  3  0  0  0  0  0  0
   28.1350   28.2790   48.6740 C   0  0  0  0  0  0  0  0  0  0  0  0
   35.0910   28.8510   47.0670 C   0  0  0  0  0  2  0  0  0  0  0  0
   35.5580   29.3560   48.3540 C   0  0  0  0  0  0  0  0  0  0  0  0
   35.0150   28.8730   49.5440 C   0  0  0  0  0  3  0  0  0  0  0  0
   35.4610   29.3300   50.7630 C   0  0  0  0  0  3  0  0  0  0  0  0
   36.4690   30.2900   50.8440 C   0  0  0  0  0  3  0  0  0  0  0  0
   37.0010   30.7620   49.6580 C   0  0  0  0  0  0  0  0  0  0  0  0
   38.0030   31.7140   49.7370 C   0  0  0  0  0  3  0  0  0  0  0  0
   38.5790   32.2260   48.5860 C   0  0  0  0  0  3  0  0  0  0  0  0
   38.1340   31.7680   47.3430 C   0  0  0  0  0  3  0  0  0  0  0  0
   37.1230   30.8110   47.3200 C   0  0  0  0  0  3  0  0  0  0  0  0
   36.5350   30.2860   48.4460 C   0  0  0  0  0  0  0  0  0  0  0  0
  1  6  2  0  0  0  0
  1  2  1  0  0  0  0
  2  3  2  0  0  0  0
  3  4  1  0  0  0  0
  3  7  1  0  0  0  0
  5 19  1  0  0  0  0
  5  4  2  0  0  0  0
  6  5  1  0  0  0  0
  7  9  1  0  0  0  0
  8  7  2  0  0  0  0
  9 18  2  0  0  0  0
  9 10  1  0  0  0  0
 10 11  2  0  0  0  0
 11 12  1  0  0  0  0
 13 14  1  0  0  0  0
 13 12  2  0  0  0  0
 15 14  2  0  0  0  0
 16 17  2  0  0  0  0
 16 15  1  0  0  0  0
 17 18  1  0  0  0  0
 18 13  1  0  0  0  0
 19 20  1  0  0  0  0
 20 29  2  0  0  0  0
 20 21  1  0  0  0  0
 21 22  2  0  0  0  0
 22 23  1  0  0  0  0
 24 25  1  0  0  0  0
 24 23  2  0  0  0  0
 26 25  2  0  0  0  0
 27 26  1  0  0  0  0
 28 27  2  0  0  0  0
 28 29  1  0  0  0  0
 29 24  1  0  0  0  0
M  END
>  <minimizedAffinity>
-7.91862011

$$$$

 OpenBabel03272514553D

 29 33  0  0  0  0  0  0  0  0999 V2000
   32.7500   25.7700   47.1250 C   0  0  0  0  0  3  0  0  0  0  0  0
   31.4130   25.9220   46.7970 C   0  0  0  0  0  3  0  0  0  0  0  0
   30.7100   27.0260   47.3460 C   0  0  0  0  0  0  0  0  0  0  0  0
   31.4220   27.8720   48.1740 N   0  0  0  0  0  0  0  0  0  0  0  0
   32.6990   27.6750   48.4510 C   0  0  0  0  0  0  0  0  0  0  0  0
   33.3660   26.6360   47.9360 N   0  0  0  0  0  0  0  0  0  0  0  0
   29.3120   27.2350   47.0670 C   0  0  0  0  0  0  0  0  0  0  0  0
   28.5350   26.2500   47.2770 O   0  0  0  0  0  0  0  0  0  0  0  0
   28.4870   28.3300   46.5790 C   0  0  0  0  0  0  0  0  0  0  0  0
   28.2770   28.4200   45.2560 N   0  0  0  0  0  0  0  0  0  0  0  0
   27.5150   29.4170   44.7030 C   0  0  0  0  0  3  0  0  0  0  0  0
   26.9370   30.3570   45.4720 N   0  0  0  0  0  0  0  0  0  0  0  0
   27.0920   30.3460   46.8160 C   0  0  0  0  0  0  0  0  0  0  0  0
   26.5080   31.2840   47.6370 C   0  0  0  0  0  3  0  0  0  0  0  0
   26.6660   31.2500   49.0070 C   0  0  0  0  0  3  0  0  0  0  0  0
   27.4520   30.2090   49.5120 C   0  0  0  0  0  3  0  0  0  0  0  0
   28.0060   29.3090   48.6630 C   0  0  0  0  0  3  0  0  0  0  0  0
   27.8670   29.3220   47.3040 C   0  0  0  0  0  0  0  0  0  0  0  0
   33.4750   28.5760   49.3590 C   0  0  0  0  0  2  0  0  0  0  0  0
   34.5770   29.2620   48.6900 C   0  0  0  0  0  0  0  0  0  0  0  0
   34.5050   29.5570   47.3290 C   0  0  0  0  0  3  0  0  0  0  0  0
   35.5310   30.2180   46.6930 C   0  0  0  0  0  3  0  0  0  0  0  0
   36.6720   30.6130   47.3920 C   0  0  0  0  0  3  0  0  0  0  0  0
   36.7310   30.3150   48.7410 C   0  0  0  0  0  0  0  0  0  0  0  0
   37.8630   30.7080   49.4350 C   0  0  0  0  0  3  0  0  0  0  0  0
   37.9840   30.4410   50.7890 C   0  0  0  0  0  3  0  0  0  0  0  0
   36.9490   29.7710   51.4450 C   0  0  0  0  0  3  0  0  0  0  0  0
   35.8340   29.3970   50.6990 C   0  0  0  0  0  3  0  0  0  0  0  0
   35.6870   29.6490   49.3560 C   0  0  0  0  0  0  0  0  0  0  0  0
  1  6  1  0  0  0  0
  2  1  2  0  0  0  0
  2  3  1  0  0  0  0
  3  4  2  0  0  0  0
  4  5  1  0  0  0  0
  5 19  1  0  0  0  0
  6  5  2  0  0  0  0
  7  8  2  0  0  0  0
  7  3  1  0  0  0  0
  9  7  1  0  0  0  0
  9 18  1  0  0  0  0
 10  9  2  0  0  0  0
 11 10  1  0  0  0  0
 11 12  2  0  0  0  0
 12 13  1  0  0  0  0
 13 18  2  0  0  0  0
 13 14  1  0  0  0  0
 14 15  2  0  0  0  0
 15 16  1  0  0  0  0
 17 16  2  0  0  0  0
 18 17  1  0  0  0  0
 20 29  1  0  0  0  0
 20 19  1  0  0  0  0
 21 20  2  0  0  0  0
 22 21  1  0  0  0  0
 22 23  2  0  0  0  0
 23 24  1  0  0  0  0
 24 29  2  0  0  0  0
 24 25  1  0  0  0  0
 25 26  2  0  0  0  0
 26 27  1  0  0  0  0
 28 27  2  0  0  0  0
 29 28  1  0  0  0  0
M  END
>  <minimizedAffinity>
-7.84529781

$$$$
