
 OpenBabel03272514403D

 39 44  0  0  0  0  0  0  0  0999 V2000
   29.2060   28.3010   48.5940 C   0  0  0  0  0  0  0  0  0  0  0  0
   28.6480   28.6920   49.8000 C   0  0  0  0  0  3  0  0  0  0  0  0
   27.6890   29.6600   49.8920 C   0  0  0  0  0  3  0  0  0  0  0  0
   27.2540   30.2800   48.7450 C   0  0  0  0  0  3  0  0  0  0  0  0
   27.8070   29.8940   47.5480 C   0  0  0  0  0  0  0  0  0  0  0  0
   28.7760   28.9130   47.4630 N   0  0  0  0  0  0  0  0  0  0  0  0
   27.2890   30.5970   46.4120 N   0  0  0  0  0  0  0  0  0  0  0  0
   27.4590   30.0550   45.1750 C   0  0  0  0  0  3  0  0  0  0  0  0
   26.9120   30.8450   44.2210 N   0  0  0  0  0  0  0  0  0  0  0  0
   26.3890   31.9020   44.8610 C   0  0  0  0  0  0  0  0  0  0  0  0
   25.7140   33.0460   44.5570 C   0  0  0  0  0  0  0  0  0  0  0  0
   25.4540   33.2720   43.3270 O   0  0  0  0  0  0  0  0  0  0  0  0
   25.2980   33.9630   45.4470 N   0  0  0  0  0  0  0  0  0  0  0  0
   25.5780   33.7150   46.7570 C   0  0  0  0  0  0  0  0  0  0  0  0
   25.1460   34.6720   47.7080 N   0  0  0  0  0  0  0  0  0  0  0  0
   26.2500   32.5970   47.1670 N   0  0  0  0  0  0  0  0  0  0  0  0
   26.6280   31.7400   46.2170 C   0  0  0  0  0  0  0  0  0  0  0  0
   24.7920   34.8110   45.1540 H   0  0  0  0  0  0  0  0  0  0  0  0
   25.3370   34.5250   48.7090 H   0  0  0  0  0  0  0  0  0  0  0  0
   24.6420   35.5150   47.3980 H   0  0  0  0  0  0  0  0  0  0  0  0
   30.1490   27.3850   48.2490 O   0  0  0  0  0  0  0  0  0  0  0  0
   33.5500   28.3130   47.6490 C   0  0  0  0  0  0  0  0  0  0  0  0
   33.6770   28.2370   46.2590 C   0  0  0  0  0  3  0  0  0  0  0  0
   32.5480   27.8550   45.5370 C   0  0  0  0  0  3  0  0  0  0  0  0
   31.4120   27.5820   46.1910 N   0  0  0  0  0  0  0  0  0  0  0  0
   31.2830   27.6540   47.5450 C   0  0  0  0  0  0  0  0  0  0  0  0
   32.3850   28.0270   48.2500 N   0  0  0  0  0  0  0  0  0  0  0  0
   34.6550   28.6970   48.4810 N   0  0  0  0  0  0  0  0  0  0  0  0
   34.8550   28.3120   49.7550 C   0  0  0  0  0  3  0  0  0  0  0  0
   36.0100   28.9050   50.1560 N   0  0  0  0  0  0  0  0  0  0  0  0
   36.4890   29.6230   49.1610 C   0  0  0  0  0  0  0  0  0  0  0  0
   37.5940   30.4230   48.9720 C   0  0  0  0  0  0  0  0  0  0  0  0
   37.8330   31.0690   47.7640 N   0  0  0  0  0  0  0  0  0  0  0  0
   36.9540   30.9090   46.7420 C   0  0  0  0  0  3  0  0  0  0  0  0
   35.8620   30.1320   46.8970 N   0  0  0  0  0  0  0  0  0  0  0  0
   35.6500   29.5140   48.0730 C   0  0  0  0  0  0  0  0  0  0  0  0
   38.5240   30.6120   50.0090 N   0  0  0  0  0  0  0  0  0  0  0  0
   39.3480   31.2110   49.8600 H   0  0  0  0  0  0  0  0  0  0  0  0
   38.3810   30.1500   50.9190 H   0  0  0  0  0  0  0  0  0  0  0  0
  1  2  1  0  0  0  0
  2  3  2  0  0  0  0
  4  3  1  0  0  0  0
  5  4  2  0  0  0  0
  6  5  1  0  0  0  0
  6  1  2  0  0  0  0
  7  5  1  0  0  0  0
  8  7  1  0  0  0  0
  9 10  1  0  0  0  0
  9  8  2  0  0  0  0
 10 17  2  0  0  0  0
 11 10  1  0  0  0  0
 11 13  1  0  0  0  0
 12 11  2  0  0  0  0
 13 14  1  0  0  0  0
 14 16  2  0  0  0  0
 14 15  1  0  0  0  0
 15 19  1  0  0  0  0
 17  7  1  0  0  0  0
 17 16  1  0  0  0  0
 18 13  1  0  0  0  0
 20 15  1  0  0  0  0
 21  1  1  0  0  0  0
 22 27  1  0  0  0  0
 22 28  1  0  0  0  0
 23 22  2  0  0  0  0
 24 25  2  0  0  0  0
 24 23  1  0  0  0  0
 25 26  1  0  0  0  0
 26 21  1  0  0  0  0
 26 27  2  0  0  0  0
 28 29  1  0  0  0  0
 29 30  2  0  0  0  0
 31 30  1  0  0  0  0
 32 31  1  0  0  0  0
 32 37  1  0  0  0  0
 33 32  2  0  0  0  0
 34 35  2  0  0  0  0
 34 33  1  0  0  0  0
 35 36  1  0  0  0  0
 36 28  1  0  0  0  0
 36 31  2  0  0  0  0
 37 39  1  0  0  0  0
 38 37  1  0  0  0  0
M  END
>  <minimizedAffinity>
-9.07204247

$$$$

 OpenBabel03272514403D

 39 44  0  0  0  0  0  0  0  0999 V2000
   32.3310   28.5150   46.2100 C   0  0  0  0  0  0  0  0  0  0  0  0
   32.8890   27.4680   46.9240 C   0  0  0  0  0  3  0  0  0  0  0  0
   32.2040   26.7790   47.8840 C   0  0  0  0  0  3  0  0  0  0  0  0
   30.9050   27.1350   48.1620 C   0  0  0  0  0  3  0  0  0  0  0  0
   30.3510   28.1750   47.4550 C   0  0  0  0  0  0  0  0  0  0  0  0
   31.0510   28.8650   46.4850 N   0  0  0  0  0  0  0  0  0  0  0  0
   28.9970   28.4700   47.8160 N   0  0  0  0  0  0  0  0  0  0  0  0
   28.2310   29.1890   46.9500 C   0  0  0  0  0  3  0  0  0  0  0  0
   26.9850   29.3760   47.4460 N   0  0  0  0  0  0  0  0  0  0  0  0
   26.9600   28.7680   48.6420 C   0  0  0  0  0  0  0  0  0  0  0  0
   26.0780   28.5560   49.6590 C   0  0  0  0  0  0  0  0  0  0  0  0
   24.9020   29.0390   49.5350 O   0  0  0  0  0  0  0  0  0  0  0  0
   26.3440   27.8790   50.7900 N   0  0  0  0  0  0  0  0  0  0  0  0
   27.6000   27.3670   50.9150 C   0  0  0  0  0  0  0  0  0  0  0  0
   27.8960   26.6510   52.1010 N   0  0  0  0  0  0  0  0  0  0  0  0
   28.5580   27.5230   49.9530 N   0  0  0  0  0  0  0  0  0  0  0  0
   28.2090   28.2100   48.8630 C   0  0  0  0  0  0  0  0  0  0  0  0
   25.6330   27.7540   51.5240 H   0  0  0  0  0  0  0  0  0  0  0  0
   28.8330   26.2470   52.2380 H   0  0  0  0  0  0  0  0  0  0  0  0
   27.1740   26.5350   52.8260 H   0  0  0  0  0  0  0  0  0  0  0  0
   32.7950   29.3350   45.2300 O   0  0  0  0  0  0  0  0  0  0  0  0
   36.0720   30.3070   46.2840 C   0  0  0  0  0  0  0  0  0  0  0  0
   36.6990   30.7060   45.1010 C   0  0  0  0  0  3  0  0  0  0  0  0
   35.9510   30.6280   43.9270 C   0  0  0  0  0  3  0  0  0  0  0  0
   34.6900   30.1830   43.9810 N   0  0  0  0  0  0  0  0  0  0  0  0
   34.0740   29.7930   45.1310 C   0  0  0  0  0  0  0  0  0  0  0  0
   34.8030   29.8680   46.2770 N   0  0  0  0  0  0  0  0  0  0  0  0
   36.7560   30.3490   47.5450 N   0  0  0  0  0  0  0  0  0  0  0  0
   38.0050   30.8070   47.7520 C   0  0  0  0  0  3  0  0  0  0  0  0
   38.2500   30.6620   49.0800 N   0  0  0  0  0  0  0  0  0  0  0  0
   37.1880   30.1360   49.6560 C   0  0  0  0  0  0  0  0  0  0  0  0
   36.8490   29.7680   50.9380 C   0  0  0  0  0  0  0  0  0  0  0  0
   35.6060   29.2210   51.2390 N   0  0  0  0  0  0  0  0  0  0  0  0
   34.7010   29.0430   50.2430 C   0  0  0  0  0  3  0  0  0  0  0  0
   35.0050   29.3930   48.9760 N   0  0  0  0  0  0  0  0  0  0  0  0
   36.2120   29.9220   48.7060 C   0  0  0  0  0  0  0  0  0  0  0  0
   37.7620   29.9370   51.9940 N   0  0  0  0  0  0  0  0  0  0  0  0
   37.5000   29.6600   52.9510 H   0  0  0  0  0  0  0  0  0  0  0  0
   38.6930   30.3390   51.8110 H   0  0  0  0  0  0  0  0  0  0  0  0
  1  6  2  0  0  0  0
  1  2  1  0  0  0  0
  2  3  2  0  0  0  0
  3  4  1  0  0  0  0
  5  7  1  0  0  0  0
  5  4  2  0  0  0  0
  6  5  1  0  0  0  0
  7 17  1  0  0  0  0
  8  9  2  0  0  0  0
  8  7  1  0  0  0  0
  9 10  1  0  0  0  0
 10 17  2  0  0  0  0
 10 11  1  0  0  0  0
 11 13  1  0  0  0  0
 12 11  2  0  0  0  0
 13 14  1  0  0  0  0
 13 18  1  0  0  0  0
 14 15  1  0  0  0  0
 15 19  1  0  0  0  0
 15 20  1  0  0  0  0
 16 14  2  0  0  0  0
 17 16  1  0  0  0  0
 21  1  1  0  0  0  0
 22 28  1  0  0  0  0
 23 22  2  0  0  0  0
 24 25  2  0  0  0  0
 24 23  1  0  0  0  0
 25 26  1  0  0  0  0
 26 21  1  0  0  0  0
 26 27  2  0  0  0  0
 27 22  1  0  0  0  0
 28 29  1  0  0  0  0
 28 36  1  0  0  0  0
 29 30  2  0  0  0  0
 30 31  1  0  0  0  0
 31 32  1  0  0  0  0
 32 33  2  0  0  0  0
 32 37  1  0  0  0  0
 34 33  1  0  0  0  0
 35 34  2  0  0  0  0
 36 35  1  0  0  0  0
 36 31  2  0  0  0  0
 37 38  1  0  0  0  0
 39 37  1  0  0  0  0
M  END
>  <minimizedAffinity>
-8.79804611

$$$$

 OpenBabel03272514403D

 39 44  0  0  0  0  0  0  0  0999 V2000
   31.6130   27.8800   48.5620 C   0  0  0  0  0  0  0  0  0  0  0  0
   31.7900   27.5990   47.2170 C   0  0  0  0  0  3  0  0  0  0  0  0
   32.9620   27.8400   46.5590 C   0  0  0  0  0  3  0  0  0  0  0  0
   34.0160   28.3870   47.2520 C   0  0  0  0  0  3  0  0  0  0  0  0
   33.8420   28.6680   48.5850 C   0  0  0  0  0  0  0  0  0  0  0  0
   32.6540   28.4190   49.2440 N   0  0  0  0  0  0  0  0  0  0  0  0
   34.9950   29.2340   49.2180 N   0  0  0  0  0  0  0  0  0  0  0  0
   35.0830   29.1920   50.5760 C   0  0  0  0  0  3  0  0  0  0  0  0
   36.2310   29.7680   51.0060 N   0  0  0  0  0  0  0  0  0  0  0  0
   36.8790   30.1810   49.9070 C   0  0  0  0  0  0  0  0  0  0  0  0
   38.0430   30.8150   49.5880 C   0  0  0  0  0  0  0  0  0  0  0  0
   38.8130   31.1590   50.5470 O   0  0  0  0  0  0  0  0  0  0  0  0
   38.4500   31.1110   48.3420 N   0  0  0  0  0  0  0  0  0  0  0  0
   37.6240   30.7420   47.3240 C   0  0  0  0  0  0  0  0  0  0  0  0
   38.0380   31.0470   46.0040 N   0  0  0  0  0  0  0  0  0  0  0  0
   36.4350   30.1020   47.5370 N   0  0  0  0  0  0  0  0  0  0  0  0
   36.1080   29.8470   48.8050 C   0  0  0  0  0  0  0  0  0  0  0  0
   39.3430   31.5940   48.1650 H   0  0  0  0  0  0  0  0  0  0  0  0
   37.4450   30.7860   45.2040 H   0  0  0  0  0  0  0  0  0  0  0  0
   38.9340   31.5310   45.8450 H   0  0  0  0  0  0  0  0  0  0  0  0
   30.5710   27.7350   49.4210 O   0  0  0  0  0  0  0  0  0  0  0  0
   27.4020   29.0060   48.3570 C   0  0  0  0  0  0  0  0  0  0  0  0
   26.5840   27.8740   48.3150 C   0  0  0  0  0  3  0  0  0  0  0  0
   27.1650   26.6570   48.6670 C   0  0  0  0  0  3  0  0  0  0  0  0
   28.4550   26.6240   49.0240 N   0  0  0  0  0  0  0  0  0  0  0  0
   29.2570   27.7230   49.0660 C   0  0  0  0  0  0  0  0  0  0  0  0
   28.6900   28.9120   48.7220 N   0  0  0  0  0  0  0  0  0  0  0  0
   26.8990   30.3060   48.0130 N   0  0  0  0  0  0  0  0  0  0  0  0
   26.4630   31.2390   48.8790 C   0  0  0  0  0  3  0  0  0  0  0  0
   26.0800   32.3060   48.1290 N   0  0  0  0  0  0  0  0  0  0  0  0
   26.2780   32.0270   46.8570 C   0  0  0  0  0  0  0  0  0  0  0  0
   26.0890   32.6930   45.6670 C   0  0  0  0  0  0  0  0  0  0  0  0
   26.4070   32.1120   44.4440 N   0  0  0  0  0  0  0  0  0  0  0  0
   26.9180   30.8540   44.4200 C   0  0  0  0  0  3  0  0  0  0  0  0
   27.1140   30.1770   45.5710 N   0  0  0  0  0  0  0  0  0  0  0  0
   26.8020   30.7580   46.7430 C   0  0  0  0  0  0  0  0  0  0  0  0
   25.5610   33.9960   45.6550 N   0  0  0  0  0  0  0  0  0  0  0  0
   25.4230   34.4870   44.7600 H   0  0  0  0  0  0  0  0  0  0  0  0
   25.3120   34.4600   46.5400 H   0  0  0  0  0  0  0  0  0  0  0  0
  1  6  1  0  0  0  0
  1 21  1  0  0  0  0
  2  1  2  0  0  0  0
  3  2  1  0  0  0  0
  3  4  2  0  0  0  0
  4  5  1  0  0  0  0
  5  7  1  0  0  0  0
  5  6  2  0  0  0  0
  7  8  1  0  0  0  0
  8  9  2  0  0  0  0
 10  9  1  0  0  0  0
 11 10  1  0  0  0  0
 11 12  2  0  0  0  0
 13 11  1  0  0  0  0
 14 16  2  0  0  0  0
 14 13  1  0  0  0  0
 15 14  1  0  0  0  0
 16 17  1  0  0  0  0
 17  7  1  0  0  0  0
 17 10  2  0  0  0  0
 18 13  1  0  0  0  0
 19 15  1  0  0  0  0
 20 15  1  0  0  0  0
 22 27  1  0  0  0  0
 23 22  2  0  0  0  0
 23 24  1  0  0  0  0
 24 25  2  0  0  0  0
 25 26  1  0  0  0  0
 26 21  1  0  0  0  0
 27 26  2  0  0  0  0
 28 22  1  0  0  0  0
 28 29  1  0  0  0  0
 30 29  2  0  0  0  0
 31 30  1  0  0  0  0
 32 31  2  0  0  0  0
 33 32  1  0  0  0  0
 34 33  2  0  0  0  0
 34 35  1  0  0  0  0
 35 36  2  0  0  0  0
 36 31  1  0  0  0  0
 36 28  1  0  0  0  0
 37 32  1  0  0  0  0
 37 39  1  0  0  0  0
 38 37  1  0  0  0  0
M  END
>  <minimizedAffinity>
-8.7820015

$$$$

 OpenBabel03272514403D

 39 44  0  0  0  0  0  0  0  0999 V2000
   31.2130   29.0960   45.1260 C   0  0  0  0  0  0  0  0  0  0  0  0
   30.3010   29.9780   44.5700 C   0  0  0  0  0  3  0  0  0  0  0  0
   29.1220   30.3050   45.1790 C   0  0  0  0  0  3  0  0  0  0  0  0
   28.8190   29.7370   46.3940 C   0  0  0  0  0  3  0  0  0  0  0  0
   29.7220   28.8610   46.9460 C   0  0  0  0  0  0  0  0  0  0  0  0
   30.9130   28.5370   46.3240 N   0  0  0  0  0  0  0  0  0  0  0  0
   29.3170   28.3240   48.2100 N   0  0  0  0  0  0  0  0  0  0  0  0
   30.2630   27.7710   49.0190 C   0  0  0  0  0  3  0  0  0  0  0  0
   29.7100   27.3150   50.1680 N   0  0  0  0  0  0  0  0  0  0  0  0
   28.3980   27.5810   50.0870 C   0  0  0  0  0  0  0  0  0  0  0  0
   27.2760   27.4130   50.8410 C   0  0  0  0  0  0  0  0  0  0  0  0
   27.4040   26.8440   51.9780 O   0  0  0  0  0  0  0  0  0  0  0  0
   26.0370   27.7960   50.4870 N   0  0  0  0  0  0  0  0  0  0  0  0
   25.9070   28.4020   49.2740 C   0  0  0  0  0  0  0  0  0  0  0  0
   24.6070   28.8120   48.8860 N   0  0  0  0  0  0  0  0  0  0  0  0
   26.9690   28.6180   48.4420 N   0  0  0  0  0  0  0  0  0  0  0  0
   28.1630   28.2050   48.8710 C   0  0  0  0  0  0  0  0  0  0  0  0
   25.2260   27.6390   51.1030 H   0  0  0  0  0  0  0  0  0  0  0  0
   24.4630   29.2740   47.9770 H   0  0  0  0  0  0  0  0  0  0  0  0
   23.8070   28.6470   49.5140 H   0  0  0  0  0  0  0  0  0  0  0  0
   32.4220   28.6230   44.7260 O   0  0  0  0  0  0  0  0  0  0  0  0
   35.5580   30.3200   45.0090 C   0  0  0  0  0  0  0  0  0  0  0  0
   35.7170   30.9370   43.7660 C   0  0  0  0  0  3  0  0  0  0  0  0
   34.7050   30.7470   42.8270 C   0  0  0  0  0  3  0  0  0  0  0  0
   33.6440   29.9970   43.1490 N   0  0  0  0  0  0  0  0  0  0  0  0
   33.4830   29.3930   44.3580 C   0  0  0  0  0  0  0  0  0  0  0  0
   34.4710   29.5780   45.2750 N   0  0  0  0  0  0  0  0  0  0  0  0
   36.5440   30.4540   46.0430 N   0  0  0  0  0  0  0  0  0  0  0  0
   37.8710   30.5850   45.8580 C   0  0  0  0  0  3  0  0  0  0  0  0
   38.4210   30.6800   47.0960 N   0  0  0  0  0  0  0  0  0  0  0  0
   37.4630   30.6090   47.9970 C   0  0  0  0  0  0  0  0  0  0  0  0
   37.4040   30.6470   49.3720 C   0  0  0  0  0  0  0  0  0  0  0  0
   36.1990   30.5450   50.0570 N   0  0  0  0  0  0  0  0  0  0  0  0
   35.0460   30.4040   49.3540 C   0  0  0  0  0  3  0  0  0  0  0  0
   35.0720   30.3640   48.0060 N   0  0  0  0  0  0  0  0  0  0  0  0
   36.2480   30.4660   47.3620 C   0  0  0  0  0  0  0  0  0  0  0  0
   38.5790   30.7900   50.1320 N   0  0  0  0  0  0  0  0  0  0  0  0
   38.5260   30.8180   51.1600 H   0  0  0  0  0  0  0  0  0  0  0  0
   39.4910   30.8690   49.6610 H   0  0  0  0  0  0  0  0  0  0  0  0
  1  6  1  0  0  0  0
  2  1  2  0  0  0  0
  2  3  1  0  0  0  0
  3  4  2  0  0  0  0
  4  5  1  0  0  0  0
  5  7  1  0  0  0  0
  6  5  2  0  0  0  0
  7 17  1  0  0  0  0
  7  8  1  0  0  0  0
  8  9  2  0  0  0  0
 10  9  1  0  0  0  0
 10 11  1  0  0  0  0
 11 12  2  0  0  0  0
 13 11  1  0  0  0  0
 13 18  1  0  0  0  0
 14 13  1  0  0  0  0
 15 14  1  0  0  0  0
 15 20  1  0  0  0  0
 16 17  1  0  0  0  0
 16 14  2  0  0  0  0
 17 10  2  0  0  0  0
 19 15  1  0  0  0  0
 21  1  1  0  0  0  0
 22 27  1  0  0  0  0
 22 28  1  0  0  0  0
 23 22  2  0  0  0  0
 24 25  2  0  0  0  0
 24 23  1  0  0  0  0
 25 26  1  0  0  0  0
 26 21  1  0  0  0  0
 26 27  2  0  0  0  0
 28 36  1  0  0  0  0
 29 28  1  0  0  0  0
 29 30  2  0  0  0  0
 30 31  1  0  0  0  0
 31 32  1  0  0  0  0
 32 33  2  0  0  0  0
 32 37  1  0  0  0  0
 34 33  1  0  0  0  0
 35 34  2  0  0  0  0
 36 31  2  0  0  0  0
 36 35  1  0  0  0  0
 37 38  1  0  0  0  0
 39 37  1  0  0  0  0
M  END
>  <minimizedAffinity>
-8.59357262

$$$$

 OpenBabel03272514403D

 39 44  0  0  0  0  0  0  0  0999 V2000
   31.7920   27.7370   48.3110 C   0  0  0  0  0  0  0  0  0  0  0  0
   32.0210   27.4610   46.9730 C   0  0  0  0  0  3  0  0  0  0  0  0
   33.2060   27.7390   46.3530 C   0  0  0  0  0  3  0  0  0  0  0  0
   34.2190   28.3200   47.0800 C   0  0  0  0  0  3  0  0  0  0  0  0
   33.9920   28.5950   48.4060 C   0  0  0  0  0  0  0  0  0  0  0  0
   32.7910   28.3090   49.0260 N   0  0  0  0  0  0  0  0  0  0  0  0
   35.1050   29.1980   49.0760 N   0  0  0  0  0  0  0  0  0  0  0  0
   35.1490   29.1590   50.4360 C   0  0  0  0  0  3  0  0  0  0  0  0
   36.2640   29.7720   50.9020 N   0  0  0  0  0  0  0  0  0  0  0  0
   36.9340   30.2050   49.8250 C   0  0  0  0  0  0  0  0  0  0  0  0
   38.0870   30.8750   49.5430 C   0  0  0  0  0  0  0  0  0  0  0  0
   38.8140   31.2440   50.5270 O   0  0  0  0  0  0  0  0  0  0  0  0
   38.5250   31.1840   48.3110 N   0  0  0  0  0  0  0  0  0  0  0  0
   37.7450   30.7880   47.2670 C   0  0  0  0  0  0  0  0  0  0  0  0
   38.1930   31.1060   45.9610 N   0  0  0  0  0  0  0  0  0  0  0  0
   36.5710   30.1100   47.4410 N   0  0  0  0  0  0  0  0  0  0  0  0
   36.2100   29.8460   48.6980 C   0  0  0  0  0  0  0  0  0  0  0  0
   39.4070   31.6950   48.1630 H   0  0  0  0  0  0  0  0  0  0  0  0
   37.6340   30.8260   45.1420 H   0  0  0  0  0  0  0  0  0  0  0  0
   39.0770   31.6180   45.8300 H   0  0  0  0  0  0  0  0  0  0  0  0
   30.7270   27.5580   49.1360 O   0  0  0  0  0  0  0  0  0  0  0  0
   27.8030   28.6100   47.3640 C   0  0  0  0  0  0  0  0  0  0  0  0
   26.7980   27.7710   47.8500 C   0  0  0  0  0  3  0  0  0  0  0  0
   27.1640   26.8290   48.8110 C   0  0  0  0  0  3  0  0  0  0  0  0
   28.4370   26.7700   49.2200 N   0  0  0  0  0  0  0  0  0  0  0  0
   29.4210   27.5850   48.7490 C   0  0  0  0  0  0  0  0  0  0  0  0
   29.0640   28.5030   47.8110 N   0  0  0  0  0  0  0  0  0  0  0  0
   27.5280   29.6120   46.3740 N   0  0  0  0  0  0  0  0  0  0  0  0
   27.8850   29.5600   45.0770 C   0  0  0  0  0  3  0  0  0  0  0  0
   27.4280   30.7060   44.5090 N   0  0  0  0  0  0  0  0  0  0  0  0
   26.8170   31.4250   45.4290 C   0  0  0  0  0  0  0  0  0  0  0  0
   26.1720   32.6410   45.4550 C   0  0  0  0  0  0  0  0  0  0  0  0
   25.6100   33.1470   46.6220 N   0  0  0  0  0  0  0  0  0  0  0  0
   25.6990   32.4250   47.7680 C   0  0  0  0  0  3  0  0  0  0  0  0
   26.3250   31.2300   47.7740 N   0  0  0  0  0  0  0  0  0  0  0  0
   26.8610   30.7580   46.6340 C   0  0  0  0  0  0  0  0  0  0  0  0
   26.0630   33.4160   44.2870 N   0  0  0  0  0  0  0  0  0  0  0  0
   25.5790   34.3240   44.3150 H   0  0  0  0  0  0  0  0  0  0  0  0
   26.4670   33.0750   43.4030 H   0  0  0  0  0  0  0  0  0  0  0  0
  1  6  1  0  0  0  0
  1 21  1  0  0  0  0
  2  1  2  0  0  0  0
  3  2  1  0  0  0  0
  3  4  2  0  0  0  0
  4  5  1  0  0  0  0
  5  6  2  0  0  0  0
  5  7  1  0  0  0  0
  7  8  1  0  0  0  0
  8  9  2  0  0  0  0
 10  9  1  0  0  0  0
 11 10  1  0  0  0  0
 11 12  2  0  0  0  0
 13 11  1  0  0  0  0
 14 16  2  0  0  0  0
 14 13  1  0  0  0  0
 15 14  1  0  0  0  0
 16 17  1  0  0  0  0
 17  7  1  0  0  0  0
 17 10  2  0  0  0  0
 18 13  1  0  0  0  0
 19 15  1  0  0  0  0
 20 15  1  0  0  0  0
 22 27  2  0  0  0  0
 22 23  1  0  0  0  0
 23 24  2  0  0  0  0
 24 25  1  0  0  0  0
 26 21  1  0  0  0  0
 26 25  2  0  0  0  0
 27 26  1  0  0  0  0
 28 36  1  0  0  0  0
 28 22  1  0  0  0  0
 29 28  1  0  0  0  0
 30 29  2  0  0  0  0
 30 31  1  0  0  0  0
 31 32  2  0  0  0  0
 31 36  1  0  0  0  0
 32 33  1  0  0  0  0
 33 34  2  0  0  0  0
 34 35  1  0  0  0  0
 36 35  2  0  0  0  0
 37 38  1  0  0  0  0
 37 32  1  0  0  0  0
 39 37  1  0  0  0  0
M  END
>  <minimizedAffinity>
-8.48658562

$$$$

 OpenBabel03272514403D

 39 44  0  0  0  0  0  0  0  0999 V2000
   33.6070   27.8920   48.1880 C   0  0  0  0  0  0  0  0  0  0  0  0
   33.4900   28.4330   49.4580 C   0  0  0  0  0  3  0  0  0  0  0  0
   34.1770   29.5450   49.8540 C   0  0  0  0  0  3  0  0  0  0  0  0
   35.0240   30.1600   48.9620 C   0  0  0  0  0  3  0  0  0  0  0  0
   35.1410   29.6240   47.7030 C   0  0  0  0  0  0  0  0  0  0  0  0
   34.4430   28.4990   47.3090 N   0  0  0  0  0  0  0  0  0  0  0  0
   36.0460   30.3340   46.8480 N   0  0  0  0  0  0  0  0  0  0  0  0
   35.9560   30.1470   45.5030 C   0  0  0  0  0  3  0  0  0  0  0  0
   36.8800   30.8910   44.8490 N   0  0  0  0  0  0  0  0  0  0  0  0
   37.5640   31.5560   45.7910 C   0  0  0  0  0  0  0  0  0  0  0  0
   38.5920   32.4480   45.8650 C   0  0  0  0  0  0  0  0  0  0  0  0
   39.1320   32.8240   44.7700 O   0  0  0  0  0  0  0  0  0  0  0  0
   39.0900   32.9670   47.0010 N   0  0  0  0  0  0  0  0  0  0  0  0
   38.5100   32.5620   48.1650 C   0  0  0  0  0  0  0  0  0  0  0  0
   39.0230   33.1000   49.3710 N   0  0  0  0  0  0  0  0  0  0  0  0
   37.4730   31.6720   48.1990 N   0  0  0  0  0  0  0  0  0  0  0  0
   37.0420   31.2050   47.0260 C   0  0  0  0  0  0  0  0  0  0  0  0
   39.8720   33.6380   46.9910 H   0  0  0  0  0  0  0  0  0  0  0  0
   38.6140   32.8210   50.2740 H   0  0  0  0  0  0  0  0  0  0  0  0
   39.8050   33.7700   49.3430 H   0  0  0  0  0  0  0  0  0  0  0  0
   33.0440   26.8210   47.5690 O   0  0  0  0  0  0  0  0  0  0  0  0
   29.5360   27.5030   47.6810 C   0  0  0  0  0  0  0  0  0  0  0  0
   28.9790   26.5290   46.8490 C   0  0  0  0  0  3  0  0  0  0  0  0
   29.8570   25.6280   46.2480 C   0  0  0  0  0  3  0  0  0  0  0  0
   31.1700   25.7320   46.4890 N   0  0  0  0  0  0  0  0  0  0  0  0
   31.7180   26.6790   47.2980 C   0  0  0  0  0  0  0  0  0  0  0  0
   30.8610   27.5590   47.8850 N   0  0  0  0  0  0  0  0  0  0  0  0
   28.7160   28.4760   48.3460 N   0  0  0  0  0  0  0  0  0  0  0  0
   28.4970   28.5510   49.6720 C   0  0  0  0  0  3  0  0  0  0  0  0
   27.6690   29.6110   49.8630 N   0  0  0  0  0  0  0  0  0  0  0  0
   27.3980   30.1570   48.6950 C   0  0  0  0  0  0  0  0  0  0  0  0
   26.6430   31.2240   48.2630 C   0  0  0  0  0  0  0  0  0  0  0  0
   26.5530   31.5610   46.9170 N   0  0  0  0  0  0  0  0  0  0  0  0
   27.2280   30.8200   46.0020 C   0  0  0  0  0  3  0  0  0  0  0  0
   27.9760   29.7680   46.3950 N   0  0  0  0  0  0  0  0  0  0  0  0
   28.0500   29.4600   47.7020 C   0  0  0  0  0  0  0  0  0  0  0  0
   25.9300   32.0120   49.1840 N   0  0  0  0  0  0  0  0  0  0  0  0
   25.3680   32.8090   48.8520 H   0  0  0  0  0  0  0  0  0  0  0  0
   25.9710   31.7940   50.1900 H   0  0  0  0  0  0  0  0  0  0  0  0
  1  2  1  0  0  0  0
  2  3  2  0  0  0  0
  4  3  1  0  0  0  0
  5  4  2  0  0  0  0
  6  5  1  0  0  0  0
  6  1  2  0  0  0  0
  7 17  1  0  0  0  0
  7  5  1  0  0  0  0
  8  7  1  0  0  0  0
  9  8  2  0  0  0  0
  9 10  1  0  0  0  0
 10 11  1  0  0  0  0
 10 17  2  0  0  0  0
 11 13  1  0  0  0  0
 12 11  2  0  0  0  0
 13 14  1  0  0  0  0
 14 16  2  0  0  0  0
 14 15  1  0  0  0  0
 15 19  1  0  0  0  0
 17 16  1  0  0  0  0
 18 13  1  0  0  0  0
 20 15  1  0  0  0  0
 21  1  1  0  0  0  0
 22 27  1  0  0  0  0
 22 28  1  0  0  0  0
 23 22  2  0  0  0  0
 24 25  2  0  0  0  0
 24 23  1  0  0  0  0
 25 26  1  0  0  0  0
 26 21  1  0  0  0  0
 26 27  2  0  0  0  0
 28 29  1  0  0  0  0
 29 30  2  0  0  0  0
 31 30  1  0  0  0  0
 32 31  1  0  0  0  0
 32 37  1  0  0  0  0
 33 32  2  0  0  0  0
 34 35  2  0  0  0  0
 34 33  1  0  0  0  0
 35 36  1  0  0  0  0
 36 28  1  0  0  0  0
 36 31  2  0  0  0  0
 37 39  1  0  0  0  0
 38 37  1  0  0  0  0
M  END
>  <minimizedAffinity>
-8.48548794

$$$$

 OpenBabel03272514403D

 39 44  0  0  0  0  0  0  0  0999 V2000
   29.1320   27.8270   49.4880 C   0  0  0  0  0  0  0  0  0  0  0  0
   28.2220   28.1620   50.4770 C   0  0  0  0  0  3  0  0  0  0  0  0
   27.2010   29.0470   50.2740 C   0  0  0  0  0  3  0  0  0  0  0  0
   27.0640   29.6350   49.0380 C   0  0  0  0  0  3  0  0  0  0  0  0
   27.9660   29.3040   48.0570 C   0  0  0  0  0  0  0  0  0  0  0  0
   28.9950   28.4070   48.2700 N   0  0  0  0  0  0  0  0  0  0  0  0
   27.7400   29.9670   46.8080 N   0  0  0  0  0  0  0  0  0  0  0  0
   28.3010   29.4490   45.6810 C   0  0  0  0  0  3  0  0  0  0  0  0
   27.9870   30.1960   44.5960 N   0  0  0  0  0  0  0  0  0  0  0  0
   27.2190   31.2020   45.0400 C   0  0  0  0  0  0  0  0  0  0  0  0
   26.5680   32.2870   44.5350 C   0  0  0  0  0  0  0  0  0  0  0  0
   26.6540   32.4980   43.2780 O   0  0  0  0  0  0  0  0  0  0  0  0
   25.8400   33.1610   45.2520 N   0  0  0  0  0  0  0  0  0  0  0  0
   25.7530   32.9300   46.5920 C   0  0  0  0  0  0  0  0  0  0  0  0
   24.9900   33.8420   47.3620 N   0  0  0  0  0  0  0  0  0  0  0  0
   26.3680   31.8700   47.1970 N   0  0  0  0  0  0  0  0  0  0  0  0
   27.0710   31.0530   46.4110 C   0  0  0  0  0  0  0  0  0  0  0  0
   25.3720   33.9650   44.8110 H   0  0  0  0  0  0  0  0  0  0  0  0
   24.8980   33.7060   48.3790 H   0  0  0  0  0  0  0  0  0  0  0  0
   24.5290   34.6410   46.9050 H   0  0  0  0  0  0  0  0  0  0  0  0
   30.2050   26.9950   49.4440 O   0  0  0  0  0  0  0  0  0  0  0  0
   33.0250   27.8280   47.4080 C   0  0  0  0  0  0  0  0  0  0  0  0
   32.9880   26.8810   46.3810 C   0  0  0  0  0  3  0  0  0  0  0  0
   31.9550   25.9460   46.4160 C   0  0  0  0  0  3  0  0  0  0  0  0
   31.0610   25.9920   47.4110 N   0  0  0  0  0  0  0  0  0  0  0  0
   31.0930   26.9120   48.4150 C   0  0  0  0  0  0  0  0  0  0  0  0
   32.1010   27.8250   48.3810 N   0  0  0  0  0  0  0  0  0  0  0  0
   34.0480   28.8330   47.4620 N   0  0  0  0  0  0  0  0  0  0  0  0
   34.4740   29.5840   46.4290 C   0  0  0  0  0  3  0  0  0  0  0  0
   35.4440   30.3970   46.9230 N   0  0  0  0  0  0  0  0  0  0  0  0
   35.5990   30.1470   48.2070 C   0  0  0  0  0  0  0  0  0  0  0  0
   36.4050   30.6350   49.2100 C   0  0  0  0  0  0  0  0  0  0  0  0
   36.3300   30.1510   50.5120 N   0  0  0  0  0  0  0  0  0  0  0  0
   35.4390   29.1690   50.8030 C   0  0  0  0  0  3  0  0  0  0  0  0
   34.6360   28.6700   49.8400 N   0  0  0  0  0  0  0  0  0  0  0  0
   34.7240   29.1530   48.5880 C   0  0  0  0  0  0  0  0  0  0  0  0
   37.3400   31.6510   48.9440 N   0  0  0  0  0  0  0  0  0  0  0  0
   37.9380   32.0120   49.7010 H   0  0  0  0  0  0  0  0  0  0  0  0
   37.4260   32.0360   47.9920 H   0  0  0  0  0  0  0  0  0  0  0  0
  1  2  1  0  0  0  0
  3  2  2  0  0  0  0
  4  3  1  0  0  0  0
  5  6  1  0  0  0  0
  5  4  2  0  0  0  0
  6  1  2  0  0  0  0
  7  5  1  0  0  0  0
  8  7  1  0  0  0  0
  9 10  1  0  0  0  0
  9  8  2  0  0  0  0
 10 17  2  0  0  0  0
 11 10  1  0  0  0  0
 11 13  1  0  0  0  0
 12 11  2  0  0  0  0
 13 14  1  0  0  0  0
 14 16  2  0  0  0  0
 14 15  1  0  0  0  0
 15 19  1  0  0  0  0
 17  7  1  0  0  0  0
 17 16  1  0  0  0  0
 18 13  1  0  0  0  0
 20 15  1  0  0  0  0
 21  1  1  0  0  0  0
 22 28  1  0  0  0  0
 22 27  1  0  0  0  0
 23 24  1  0  0  0  0
 23 22  2  0  0  0  0
 24 25  2  0  0  0  0
 25 26  1  0  0  0  0
 26 21  1  0  0  0  0
 27 26  2  0  0  0  0
 28 36  1  0  0  0  0
 29 30  2  0  0  0  0
 29 28  1  0  0  0  0
 30 31  1  0  0  0  0
 31 36  2  0  0  0  0
 31 32  1  0  0  0  0
 32 33  2  0  0  0  0
 33 34  1  0  0  0  0
 35 34  2  0  0  0  0
 36 35  1  0  0  0  0
 37 32  1  0  0  0  0
 37 38  1  0  0  0  0
 39 37  1  0  0  0  0
M  END
>  <minimizedAffinity>
-8.39807701

$$$$

 OpenBabel03272514403D

 39 44  0  0  0  0  0  0  0  0999 V2000
   32.0250   27.7730   46.6760 C   0  0  0  0  0  0  0  0  0  0  0  0
   31.6380   27.4900   47.9750 C   0  0  0  0  0  3  0  0  0  0  0  0
   32.3690   27.8710   49.0640 C   0  0  0  0  0  3  0  0  0  0  0  0
   33.5410   28.5640   48.8720 C   0  0  0  0  0  3  0  0  0  0  0  0
   33.9260   28.8450   47.5840 C   0  0  0  0  0  0  0  0  0  0  0  0
   33.1800   28.4570   46.4870 N   0  0  0  0  0  0  0  0  0  0  0  0
   35.1580   29.5690   47.4870 N   0  0  0  0  0  0  0  0  0  0  0  0
   35.4390   30.2300   46.3310 C   0  0  0  0  0  3  0  0  0  0  0  0
   36.6360   30.8580   46.4110 N   0  0  0  0  0  0  0  0  0  0  0  0
   37.1210   30.5920   47.6330 C   0  0  0  0  0  0  0  0  0  0  0  0
   38.2270   30.8790   48.3760 C   0  0  0  0  0  0  0  0  0  0  0  0
   39.1270   31.6110   47.8410 O   0  0  0  0  0  0  0  0  0  0  0  0
   38.4520   30.4540   49.6310 N   0  0  0  0  0  0  0  0  0  0  0  0
   37.4870   29.6740   50.1950 C   0  0  0  0  0  0  0  0  0  0  0  0
   37.7100   29.2180   51.5180 N   0  0  0  0  0  0  0  0  0  0  0  0
   36.3420   29.3280   49.5350 N   0  0  0  0  0  0  0  0  0  0  0  0
   36.2000   29.7930   48.2920 C   0  0  0  0  0  0  0  0  0  0  0  0
   39.3110   30.7050   50.1410 H   0  0  0  0  0  0  0  0  0  0  0  0
   37.0070   28.6260   51.9830 H   0  0  0  0  0  0  0  0  0  0  0  0
   38.5740   29.4780   52.0130 H   0  0  0  0  0  0  0  0  0  0  0  0
   31.4830   27.5100   45.4570 O   0  0  0  0  0  0  0  0  0  0  0  0
   28.1640   28.8030   45.1470 C   0  0  0  0  0  0  0  0  0  0  0  0
   27.4320   27.7280   44.6370 C   0  0  0  0  0  3  0  0  0  0  0  0
   28.1240   26.5410   44.4050 C   0  0  0  0  0  3  0  0  0  0  0  0
   29.4340   26.4820   44.6740 N   0  0  0  0  0  0  0  0  0  0  0  0
   30.1520   27.5260   45.1700 C   0  0  0  0  0  0  0  0  0  0  0  0
   29.4770   28.6850   45.3970 N   0  0  0  0  0  0  0  0  0  0  0  0
   27.5430   30.0680   45.4210 N   0  0  0  0  0  0  0  0  0  0  0  0
   27.3060   31.0430   44.5240 C   0  0  0  0  0  3  0  0  0  0  0  0
   26.7090   32.0540   45.2070 N   0  0  0  0  0  0  0  0  0  0  0  0
   26.5900   31.7040   46.4710 C   0  0  0  0  0  0  0  0  0  0  0  0
   26.0830   32.2910   47.6080 C   0  0  0  0  0  0  0  0  0  0  0  0
   26.1020   31.6450   48.8390 N   0  0  0  0  0  0  0  0  0  0  0  0
   26.6360   30.3990   48.9240 C   0  0  0  0  0  3  0  0  0  0  0  0
   27.1410   29.7980   47.8280 N   0  0  0  0  0  0  0  0  0  0  0  0
   27.1120   30.4400   46.6470 C   0  0  0  0  0  0  0  0  0  0  0  0
   25.5240   33.5810   47.5560 N   0  0  0  0  0  0  0  0  0  0  0  0
   25.1460   34.0130   48.4110 H   0  0  0  0  0  0  0  0  0  0  0  0
   25.4920   34.0930   46.6620 H   0  0  0  0  0  0  0  0  0  0  0  0
  1  2  1  0  0  0  0
  2  3  2  0  0  0  0
  4  3  1  0  0  0  0
  5  4  2  0  0  0  0
  6  1  2  0  0  0  0
  6  5  1  0  0  0  0
  7  5  1  0  0  0  0
  7 17  1  0  0  0  0
  8  9  2  0  0  0  0
  8  7  1  0  0  0  0
  9 10  1  0  0  0  0
 10 17  2  0  0  0  0
 10 11  1  0  0  0  0
 11 13  1  0  0  0  0
 12 11  2  0  0  0  0
 13 18  1  0  0  0  0
 13 14  1  0  0  0  0
 14 15  1  0  0  0  0
 15 19  1  0  0  0  0
 15 20  1  0  0  0  0
 16 14  2  0  0  0  0
 17 16  1  0  0  0  0
 21  1  1  0  0  0  0
 22 27  1  0  0  0  0
 22 28  1  0  0  0  0
 23 22  2  0  0  0  0
 24 23  1  0  0  0  0
 24 25  2  0  0  0  0
 25 26  1  0  0  0  0
 26 27  2  0  0  0  0
 26 21  1  0  0  0  0
 28 36  1  0  0  0  0
 29 30  2  0  0  0  0
 29 28  1  0  0  0  0
 30 31  1  0  0  0  0
 31 36  2  0  0  0  0
 31 32  1  0  0  0  0
 32 33  2  0  0  0  0
 33 34  1  0  0  0  0
 35 34  2  0  0  0  0
 36 35  1  0  0  0  0
 37 32  1  0  0  0  0
 37 38  1  0  0  0  0
 39 37  1  0  0  0  0
M  END
>  <minimizedAffinity>
-8.10961628

$$$$

 OpenBabel03272514403D

 39 44  0  0  0  0  0  0  0  0999 V2000
   32.3350   30.0480   44.6290 C   0  0  0  0  0  0  0  0  0  0  0  0
   33.2730   30.3010   43.6430 C   0  0  0  0  0  3  0  0  0  0  0  0
   34.6160   30.3360   43.8900 C   0  0  0  0  0  3  0  0  0  0  0  0
   35.0640   30.1130   45.1710 C   0  0  0  0  0  3  0  0  0  0  0  0
   34.1350   29.8630   46.1510 C   0  0  0  0  0  0  0  0  0  0  0  0
   32.7780   29.8290   45.8920 N   0  0  0  0  0  0  0  0  0  0  0  0
   34.6990   29.6450   47.4490 N   0  0  0  0  0  0  0  0  0  0  0  0
   33.9440   29.0190   48.3930 C   0  0  0  0  0  3  0  0  0  0  0  0
   34.6280   28.8950   49.5550 N   0  0  0  0  0  0  0  0  0  0  0  0
   35.8310   29.4490   49.3460 C   0  0  0  0  0  0  0  0  0  0  0  0
   36.9840   29.6730   50.0370 C   0  0  0  0  0  0  0  0  0  0  0  0
   37.0350   29.2780   51.2510 O   0  0  0  0  0  0  0  0  0  0  0  0
   38.0790   30.2810   49.5470 N   0  0  0  0  0  0  0  0  0  0  0  0
   38.0180   30.6990   48.2520 C   0  0  0  0  0  0  0  0  0  0  0  0
   39.1630   31.3410   47.7200 N   0  0  0  0  0  0  0  0  0  0  0  0
   36.9090   30.5220   47.4730 N   0  0  0  0  0  0  0  0  0  0  0  0
   35.8670   29.9110   48.0390 C   0  0  0  0  0  0  0  0  0  0  0  0
   38.9220   30.4220   50.1220 H   0  0  0  0  0  0  0  0  0  0  0  0
   39.1610   31.6740   46.7450 H   0  0  0  0  0  0  0  0  0  0  0  0
   39.9980   31.4750   48.3080 H   0  0  0  0  0  0  0  0  0  0  0  0
   30.9790   29.9620   44.6340 O   0  0  0  0  0  0  0  0  0  0  0  0
   28.6460   27.7870   46.2540 C   0  0  0  0  0  0  0  0  0  0  0  0
   28.7330   26.6000   45.5230 C   0  0  0  0  0  3  0  0  0  0  0  0
   29.6240   26.5760   44.4510 C   0  0  0  0  0  3  0  0  0  0  0  0
   30.3460   27.6690   44.1730 N   0  0  0  0  0  0  0  0  0  0  0  0
   30.2650   28.8290   44.8820 C   0  0  0  0  0  0  0  0  0  0  0  0
   29.3950   28.8520   45.9280 N   0  0  0  0  0  0  0  0  0  0  0  0
   27.7590   27.9130   47.3750 N   0  0  0  0  0  0  0  0  0  0  0  0
   26.4720   28.3050   47.3240 C   0  0  0  0  0  3  0  0  0  0  0  0
   26.0160   28.2830   48.6030 N   0  0  0  0  0  0  0  0  0  0  0  0
   26.9900   27.8920   49.3980 C   0  0  0  0  0  0  0  0  0  0  0  0
   27.1270   27.6820   50.7520 C   0  0  0  0  0  0  0  0  0  0  0  0
   28.3260   27.2530   51.3090 N   0  0  0  0  0  0  0  0  0  0  0  0
   29.3930   27.0340   50.4990 C   0  0  0  0  0  3  0  0  0  0  0  0
   29.2900   27.2320   49.1690 N   0  0  0  0  0  0  0  0  0  0  0  0
   28.1200   27.6460   48.6490 C   0  0  0  0  0  0  0  0  0  0  0  0
   26.0430   27.9000   51.6200 N   0  0  0  0  0  0  0  0  0  0  0  0
   26.1530   27.7400   52.6320 H   0  0  0  0  0  0  0  0  0  0  0  0
   25.1380   28.2190   51.2450 H   0  0  0  0  0  0  0  0  0  0  0  0
  1 21  1  0  0  0  0
  1  6  1  0  0  0  0
  2  3  1  0  0  0  0
  2  1  2  0  0  0  0
  3  4  2  0  0  0  0
  4  5  1  0  0  0  0
  5  7  1  0  0  0  0
  6  5  2  0  0  0  0
  7 17  1  0  0  0  0
  7  8  1  0  0  0  0
  8  9  2  0  0  0  0
 10  9  1  0  0  0  0
 10 11  1  0  0  0  0
 11 12  2  0  0  0  0
 13 11  1  0  0  0  0
 13 18  1  0  0  0  0
 14 13  1  0  0  0  0
 15 14  1  0  0  0  0
 15 20  1  0  0  0  0
 16 17  1  0  0  0  0
 16 14  2  0  0  0  0
 17 10  2  0  0  0  0
 19 15  1  0  0  0  0
 21 26  1  0  0  0  0
 22 28  1  0  0  0  0
 23 22  2  0  0  0  0
 24 23  1  0  0  0  0
 25 24  2  0  0  0  0
 25 26  1  0  0  0  0
 26 27  2  0  0  0  0
 27 22  1  0  0  0  0
 28 36  1  0  0  0  0
 29 28  1  0  0  0  0
 29 30  2  0  0  0  0
 30 31  1  0  0  0  0
 31 32  1  0  0  0  0
 32 33  2  0  0  0  0
 32 37  1  0  0  0  0
 34 33  1  0  0  0  0
 35 34  2  0  0  0  0
 36 35  1  0  0  0  0
 36 31  2  0  0  0  0
 37 38  1  0  0  0  0
 39 37  1  0  0  0  0
M  END
>  <minimizedAffinity>
-8.04390907

$$$$
