
 OpenBabel03272514513D

 39 43  0  0  1  0  0  0  0  0999 V2000
   32.1670   28.7950   45.6770 C   0  0  1  0  0  0  0  0  0  0  0  0
   33.1600   28.3410   44.6880 C   0  0  0  0  0  1  0  0  0  0  0  0
   30.9960   32.2080   44.8030 C   0  0  0  0  0  3  0  0  0  0  0  0
   29.8810   31.9990   44.0290 C   0  0  0  0  0  0  0  0  0  0  0  0
   29.5380   30.6850   43.8180 C   0  0  0  0  0  3  0  0  0  0  0  0
   30.2760   29.6900   44.3530 N   0  0  0  0  0  0  0  0  0  0  0  0
   31.3770   29.9280   45.1160 C   0  0  0  0  0  0  0  0  0  0  0  0
   31.7140   31.2250   45.3250 N   0  0  0  0  0  0  0  0  0  0  0  0
   29.1910   33.1250   43.5170 N   0  0  0  0  0  0  0  0  0  0  0  0
   28.3520   32.9940   42.9350 H   0  0  0  0  0  0  0  0  0  0  0  0
   29.5280   34.0750   43.7290 H   0  0  0  0  0  0  0  0  0  0  0  0
   31.1360   27.7140   45.9670 C   0  0  0  0  0  2  0  0  0  0  0  0
   30.6060   27.7280   47.3030 N   0  0  0  0  0  0  0  0  0  0  0  0
   29.4220   28.3560   47.4550 C   0  0  0  0  0  3  0  0  0  0  0  0
   28.7810   28.4540   48.6780 C   0  0  0  0  0  0  0  0  0  0  0  0
   29.3950   27.8810   49.7690 C   0  0  0  0  0  0  0  0  0  0  0  0
   28.7180   27.9930   51.0100 N   0  0  0  0  0  0  0  0  0  0  0  0
   30.5790   27.2560   49.6150 N   0  0  0  0  0  0  0  0  0  0  0  0
   31.1440   27.1980   48.4030 C   0  0  0  0  0  0  0  0  0  0  0  0
   32.2360   26.6270   48.2550 O   0  0  0  0  0  0  0  0  0  0  0  0
   29.1300   27.5830   51.8600 H   0  0  0  0  0  0  0  0  0  0  0  0
   27.8130   28.4840   51.0610 H   0  0  0  0  0  0  0  0  0  0  0  0
   27.4940   29.1590   48.7820 C   0  0  0  0  0  0  0  0  0  0  0  0
   27.4280   30.5230   48.8440 C   0  0  0  0  0  3  0  0  0  0  0  0
   26.2140   31.1770   48.9440 C   0  0  0  0  0  3  0  0  0  0  0  0
   25.1000   30.4000   48.9770 C   0  0  0  0  0  3  0  0  0  0  0  0
   25.1050   29.0300   48.9190 C   0  0  0  0  0  3  0  0  0  0  0  0
   26.3380   28.3700   48.8170 C   0  0  0  0  0  3  0  0  0  0  0  0
   32.7500   29.2180   47.0020 C   0  0  0  0  0  2  0  0  0  0  0  0
   34.1490   29.6590   47.0620 C   0  0  0  0  0  0  0  0  0  0  0  0
   35.0260   30.1370   46.1190 C   0  0  0  0  0  3  0  0  0  0  0  0
   36.3410   30.4760   46.2600 C   0  0  0  0  0  3  0  0  0  0  0  0
   36.9010   30.3410   47.4950 C   0  0  0  0  0  3  0  0  0  0  0  0
   36.1140   29.8740   48.5390 C   0  0  0  0  0  0  0  0  0  0  0  0
   36.7540   29.8230   49.7540 C   0  0  0  0  0  3  0  0  0  0  0  0
   36.0400   29.4260   50.8540 C   0  0  0  0  0  3  0  0  0  0  0  0
   34.7120   29.0930   50.7180 C   0  0  0  0  0  3  0  0  0  0  0  0
   34.1530   29.1720   49.4630 C   0  0  0  0  0  3  0  0  0  0  0  0
   34.7900   29.5530   48.3070 C   0  0  0  0  0  0  0  0  0  0  0  0
  1  2  1  6  0  0  0
  1 12  1  0  0  0  0
  1 29  1  0  0  0  0
  3  8  1  0  0  0  0
  4  3  2  0  0  0  0
  5  4  1  0  0  0  0
  5  6  2  0  0  0  0
  6  7  1  0  0  0  0
  7  8  2  0  0  0  0
  7  1  1  0  0  0  0
  9 11  1  0  0  0  0
  9  4  1  0  0  0  0
 10  9  1  0  0  0  0
 12 13  1  0  0  0  0
 13 14  1  0  0  0  0
 13 19  1  0  0  0  0
 14 15  2  0  0  0  0
 15 23  1  0  0  0  0
 15 16  1  0  0  0  0
 16 17  1  0  0  0  0
 17 22  1  0  0  0  0
 17 21  1  0  0  0  0
 18 16  2  0  0  0  0
 19 18  1  0  0  0  0
 20 19  2  0  0  0  0
 23 28  2  0  0  0  0
 23 24  1  0  0  0  0
 24 25  2  0  0  0  0
 25 26  1  0  0  0  0
 27 26  2  0  0  0  0
 28 27  1  0  0  0  0
 29 30  1  0  0  0  0
 30 39  1  0  0  0  0
 31 32  1  0  0  0  0
 31 30  2  0  0  0  0
 32 33  2  0  0  0  0
 33 34  1  0  0  0  0
 34 35  1  0  0  0  0
 35 36  2  0  0  0  0
 37 36  1  0  0  0  0
 38 37  2  0  0  0  0
 39 34  2  0  0  0  0
 39 38  1  0  0  0  0
M  END
>  <minimizedAffinity>
-7.80237341

$$$$

 OpenBabel03272514513D

 39 43  0  0  1  0  0  0  0  0999 V2000
   33.6930   29.1730   46.4560 C   0  0  1  0  0  0  0  0  0  0  0  0
   33.6500   27.8350   47.0730 C   0  0  0  0  0  1  0  0  0  0  0  0
   35.5260   28.1160   43.4060 C   0  0  0  0  0  3  0  0  0  0  0  0
   36.3210   29.1920   43.0950 C   0  0  0  0  0  0  0  0  0  0  0  0
   36.2230   30.2710   43.9400 C   0  0  0  0  0  3  0  0  0  0  0  0
   35.3860   30.2390   44.9980 N   0  0  0  0  0  0  0  0  0  0  0  0
   34.6100   29.1580   45.2810 C   0  0  0  0  0  0  0  0  0  0  0  0
   34.7090   28.0920   44.4470 N   0  0  0  0  0  0  0  0  0  0  0  0
   37.1560   29.1100   41.9540 N   0  0  0  0  0  0  0  0  0  0  0  0
   37.7610   29.9040   41.7000 H   0  0  0  0  0  0  0  0  0  0  0  0
   37.1580   28.2560   41.3780 H   0  0  0  0  0  0  0  0  0  0  0  0
   32.3390   29.5640   45.8810 C   0  0  0  0  0  2  0  0  0  0  0  0
   31.3150   28.5640   46.0160 N   0  0  0  0  0  0  0  0  0  0  0  0
   30.6310   28.5810   47.1790 C   0  0  0  0  0  3  0  0  0  0  0  0
   29.6140   27.6860   47.4600 C   0  0  0  0  0  0  0  0  0  0  0  0
   29.3050   26.7490   46.5000 C   0  0  0  0  0  0  0  0  0  0  0  0
   28.2580   25.8440   46.8100 N   0  0  0  0  0  0  0  0  0  0  0  0
   29.9910   26.7320   45.3390 N   0  0  0  0  0  0  0  0  0  0  0  0
   30.9630   27.6280   45.1330 C   0  0  0  0  0  0  0  0  0  0  0  0
   31.6010   27.6160   44.0680 O   0  0  0  0  0  0  0  0  0  0  0  0
   27.9830   25.1210   46.1300 H   0  0  0  0  0  0  0  0  0  0  0  0
   27.7720   25.9080   47.7160 H   0  0  0  0  0  0  0  0  0  0  0  0
   28.9100   27.7490   48.7510 C   0  0  0  0  0  0  0  0  0  0  0  0
   29.3620   27.0680   49.8460 C   0  0  0  0  0  3  0  0  0  0  0  0
   28.6920   27.1310   51.0540 C   0  0  0  0  0  3  0  0  0  0  0  0
   27.5730   27.8990   51.0960 C   0  0  0  0  0  3  0  0  0  0  0  0
   27.0730   28.6040   50.0300 C   0  0  0  0  0  3  0  0  0  0  0  0
   27.7550   28.5380   48.8060 C   0  0  0  0  0  3  0  0  0  0  0  0
   34.1140   30.2800   47.3890 C   0  0  0  0  0  2  0  0  0  0  0  0
   34.6820   29.9370   48.6990 C   0  0  0  0  0  0  0  0  0  0  0  0
   34.2070   29.2260   49.7730 C   0  0  0  0  0  3  0  0  0  0  0  0
   34.7940   29.0020   50.9850 C   0  0  0  0  0  3  0  0  0  0  0  0
   36.0280   29.5370   51.1990 C   0  0  0  0  0  3  0  0  0  0  0  0
   36.6230   30.2750   50.1840 C   0  0  0  0  0  0  0  0  0  0  0  0
   37.8870   30.7280   50.4780 C   0  0  0  0  0  3  0  0  0  0  0  0
   38.5740   31.4180   49.5150 C   0  0  0  0  0  3  0  0  0  0  0  0
   37.9900   31.6370   48.2880 C   0  0  0  0  0  3  0  0  0  0  0  0
   36.7200   31.1490   48.0820 C   0  0  0  0  0  3  0  0  0  0  0  0
   35.9570   30.4520   48.9870 C   0  0  0  0  0  0  0  0  0  0  0  0
  1  2  1  1  0  0  0
  1 29  1  0  0  0  0
  3  8  1  0  0  0  0
  4  3  2  0  0  0  0
  4  5  1  0  0  0  0
  5  6  2  0  0  0  0
  6  7  1  0  0  0  0
  7  1  1  0  0  0  0
  8  7  2  0  0  0  0
  9  4  1  0  0  0  0
 10  9  1  0  0  0  0
 11  9  1  0  0  0  0
 12 13  1  0  0  0  0
 12  1  1  0  0  0  0
 13 14  1  0  0  0  0
 14 15  2  0  0  0  0
 15 23  1  0  0  0  0
 16 17  1  0  0  0  0
 16 15  1  0  0  0  0
 17 22  1  0  0  0  0
 18 16  2  0  0  0  0
 19 18  1  0  0  0  0
 19 13  1  0  0  0  0
 20 19  2  0  0  0  0
 21 17  1  0  0  0  0
 23 28  2  0  0  0  0
 23 24  1  0  0  0  0
 24 25  2  0  0  0  0
 25 26  1  0  0  0  0
 27 26  2  0  0  0  0
 28 27  1  0  0  0  0
 29 30  1  0  0  0  0
 30 39  2  0  0  0  0
 30 31  1  0  0  0  0
 31 32  2  0  0  0  0
 32 33  1  0  0  0  0
 34 35  1  0  0  0  0
 34 33  2  0  0  0  0
 36 35  2  0  0  0  0
 37 36  1  0  0  0  0
 38 37  2  0  0  0  0
 38 39  1  0  0  0  0
 39 34  1  0  0  0  0
M  END
>  <minimizedAffinity>
-7.65172434

$$$$

 OpenBabel03272514513D

 39 43  0  0  1  0  0  0  0  0999 V2000
   32.8960   28.0690   47.6070 C   0  0  1  0  0  0  0  0  0  0  0  0
   33.8350   26.9970   47.2310 C   0  0  0  0  0  1  0  0  0  0  0  0
   31.2500   30.4000   45.2330 C   0  0  0  0  0  3  0  0  0  0  0  0
   31.1370   29.6790   44.0690 C   0  0  0  0  0  0  0  0  0  0  0  0
   31.6240   28.3950   44.1120 C   0  0  0  0  0  3  0  0  0  0  0  0
   32.1730   27.9090   45.2450 N   0  0  0  0  0  0  0  0  0  0  0  0
   32.2710   28.6470   46.3830 C   0  0  0  0  0  0  0  0  0  0  0  0
   31.7890   29.9140   46.3400 N   0  0  0  0  0  0  0  0  0  0  0  0
   30.5470   30.3010   42.9420 N   0  0  0  0  0  0  0  0  0  0  0  0
   30.4510   29.7810   42.0580 H   0  0  0  0  0  0  0  0  0  0  0  0
   30.2130   31.2730   43.0060 H   0  0  0  0  0  0  0  0  0  0  0  0
   31.7260   27.5260   48.4150 C   0  0  0  0  0  2  0  0  0  0  0  0
   30.4850   27.4360   47.6950 N   0  0  0  0  0  0  0  0  0  0  0  0
   29.6780   28.5130   47.7860 C   0  0  0  0  0  3  0  0  0  0  0  0
   28.4510   28.5820   47.1490 C   0  0  0  0  0  0  0  0  0  0  0  0
   28.0590   27.4960   46.4000 C   0  0  0  0  0  0  0  0  0  0  0  0
   26.7990   27.5910   45.7550 N   0  0  0  0  0  0  0  0  0  0  0  0
   28.8660   26.4200   46.3120 N   0  0  0  0  0  0  0  0  0  0  0  0
   30.0400   26.4200   46.9540 C   0  0  0  0  0  0  0  0  0  0  0  0
   30.7860   25.4310   46.8810 O   0  0  0  0  0  0  0  0  0  0  0  0
   26.4540   26.8090   45.1810 H   0  0  0  0  0  0  0  0  0  0  0  0
   26.2290   28.4430   45.8620 H   0  0  0  0  0  0  0  0  0  0  0  0
   27.6120   29.7820   47.2930 C   0  0  0  0  0  0  0  0  0  0  0  0
   26.9200   30.0370   48.4440 C   0  0  0  0  0  3  0  0  0  0  0  0
   26.1310   31.1660   48.5680 C   0  0  0  0  0  3  0  0  0  0  0  0
   26.0800   32.0010   47.4980 C   0  0  0  0  0  3  0  0  0  0  0  0
   26.7520   31.7950   46.3190 C   0  0  0  0  0  3  0  0  0  0  0  0
   27.5510   30.6500   46.1960 C   0  0  0  0  0  3  0  0  0  0  0  0
   33.5100   29.1860   48.4130 C   0  0  0  0  0  2  0  0  0  0  0  0
   34.8370   29.6930   48.0410 C   0  0  0  0  0  0  0  0  0  0  0  0
   35.3900   30.0960   46.8510 C   0  0  0  0  0  3  0  0  0  0  0  0
   36.6650   30.5070   46.5900 C   0  0  0  0  0  3  0  0  0  0  0  0
   37.5440   30.5430   47.6300 C   0  0  0  0  0  3  0  0  0  0  0  0
   37.1040   30.1660   48.8910 C   0  0  0  0  0  0  0  0  0  0  0  0
   38.0490   30.2860   49.8810 C   0  0  0  0  0  3  0  0  0  0  0  0
   37.6890   29.9890   51.1700 C   0  0  0  0  0  3  0  0  0  0  0  0
   36.4010   29.5840   51.4390 C   0  0  0  0  0  3  0  0  0  0  0  0
   35.5220   29.4900   50.3840 C   0  0  0  0  0  3  0  0  0  0  0  0
   35.7950   29.7620   49.0660 C   0  0  0  0  0  0  0  0  0  0  0  0
  1  2  1  6  0  0  0
  1 29  1  0  0  0  0
  1 12  1  0  0  0  0
  3  8  1  0  0  0  0
  4  5  1  0  0  0  0
  4  3  2  0  0  0  0
  5  6  2  0  0  0  0
  6  7  1  0  0  0  0
  7  1  1  0  0  0  0
  8  7  2  0  0  0  0
  9 11  1  0  0  0  0
  9  4  1  0  0  0  0
 10  9  1  0  0  0  0
 13 14  1  0  0  0  0
 13 12  1  0  0  0  0
 15 23  1  0  0  0  0
 15 14  2  0  0  0  0
 16 15  1  0  0  0  0
 17 22  1  0  0  0  0
 17 16  1  0  0  0  0
 18 16  2  0  0  0  0
 18 19  1  0  0  0  0
 19 13  1  0  0  0  0
 20 19  2  0  0  0  0
 21 17  1  0  0  0  0
 23 24  1  0  0  0  0
 24 25  2  0  0  0  0
 26 25  1  0  0  0  0
 27 26  2  0  0  0  0
 28 27  1  0  0  0  0
 28 23  2  0  0  0  0
 30 29  1  0  0  0  0
 30 39  1  0  0  0  0
 31 30  2  0  0  0  0
 32 31  1  0  0  0  0
 32 33  2  0  0  0  0
 33 34  1  0  0  0  0
 34 39  2  0  0  0  0
 34 35  1  0  0  0  0
 35 36  2  0  0  0  0
 36 37  1  0  0  0  0
 38 37  2  0  0  0  0
 39 38  1  0  0  0  0
M  END
>  <minimizedAffinity>
-7.49624205

$$$$

 OpenBabel03272514513D

 39 43  0  0  1  0  0  0  0  0999 V2000
   32.6650   28.4350   46.9530 C   0  0  1  0  0  0  0  0  0  0  0  0
   33.5250   27.2870   46.6170 C   0  0  0  0  0  1  0  0  0  0  0  0
   30.7460   28.2630   43.7790 C   0  0  0  0  0  3  0  0  0  0  0  0
   30.2500   29.5330   43.6110 C   0  0  0  0  0  0  0  0  0  0  0  0
   30.5840   30.4390   44.5880 C   0  0  0  0  0  3  0  0  0  0  0  0
   31.3520   30.0680   45.6330 N   0  0  0  0  0  0  0  0  0  0  0  0
   31.8290   28.8020   45.7740 C   0  0  0  0  0  0  0  0  0  0  0  0
   31.5000   27.9080   44.8080 N   0  0  0  0  0  0  0  0  0  0  0  0
   29.4500   29.8010   42.4730 N   0  0  0  0  0  0  0  0  0  0  0  0
   29.0670   30.7450   42.3250 H   0  0  0  0  0  0  0  0  0  0  0  0
   29.2510   29.0520   41.7950 H   0  0  0  0  0  0  0  0  0  0  0  0
   31.6620   28.0800   48.0400 C   0  0  0  0  0  2  0  0  0  0  0  0
   30.3120   27.8950   47.5790 N   0  0  0  0  0  0  0  0  0  0  0  0
   29.5210   28.9860   47.6380 C   0  0  0  0  0  3  0  0  0  0  0  0
   28.1980   28.9700   47.2290 C   0  0  0  0  0  0  0  0  0  0  0  0
   27.6920   27.7840   46.7490 C   0  0  0  0  0  0  0  0  0  0  0  0
   26.3350   27.7940   46.3340 N   0  0  0  0  0  0  0  0  0  0  0  0
   28.4840   26.6940   46.6930 N   0  0  0  0  0  0  0  0  0  0  0  0
   29.7550   26.7790   47.1050 C   0  0  0  0  0  0  0  0  0  0  0  0
   30.4890   25.7800   47.0600 O   0  0  0  0  0  0  0  0  0  0  0  0
   25.9030   26.9340   45.9660 H   0  0  0  0  0  0  0  0  0  0  0  0
   25.7820   28.6600   46.4020 H   0  0  0  0  0  0  0  0  0  0  0  0
   27.3820   30.1910   47.3240 C   0  0  0  0  0  0  0  0  0  0  0  0
   27.1880   31.0070   46.2450 C   0  0  0  0  0  3  0  0  0  0  0  0
   26.4220   32.1540   46.3440 C   0  0  0  0  0  3  0  0  0  0  0  0
   25.8770   32.4250   47.5590 C   0  0  0  0  0  3  0  0  0  0  0  0
   26.0390   31.6440   48.6750 C   0  0  0  0  0  3  0  0  0  0  0  0
   26.8160   30.4810   48.5710 C   0  0  0  0  0  3  0  0  0  0  0  0
   33.4090   29.6610   47.4210 C   0  0  0  0  0  2  0  0  0  0  0  0
   34.3530   29.5430   48.5390 C   0  0  0  0  0  0  0  0  0  0  0  0
   34.2320   29.0840   49.8280 C   0  0  0  0  0  3  0  0  0  0  0  0
   35.1640   29.0620   50.8250 C   0  0  0  0  0  3  0  0  0  0  0  0
   36.4050   29.5500   50.5430 C   0  0  0  0  0  3  0  0  0  0  0  0
   36.6580   30.0380   49.2680 C   0  0  0  0  0  0  0  0  0  0  0  0
   37.9500   30.4600   49.0680 C   0  0  0  0  0  3  0  0  0  0  0  0
   38.3070   30.9060   47.8220 C   0  0  0  0  0  3  0  0  0  0  0  0
   37.3730   30.9200   46.8120 C   0  0  0  0  0  3  0  0  0  0  0  0
   36.1020   30.4820   47.1030 C   0  0  0  0  0  3  0  0  0  0  0  0
   35.6550   30.0230   48.3180 C   0  0  0  0  0  0  0  0  0  0  0  0
  1  2  1  6  0  0  0
  1 29  1  0  0  0  0
  1 12  1  0  0  0  0
  3  8  1  0  0  0  0
  4  3  2  0  0  0  0
  4  5  1  0  0  0  0
  5  6  2  0  0  0  0
  6  7  1  0  0  0  0
  7  1  1  0  0  0  0
  8  7  2  0  0  0  0
  9  4  1  0  0  0  0
 10  9  1  0  0  0  0
 11  9  1  0  0  0  0
 13 14  1  0  0  0  0
 13 12  1  0  0  0  0
 15 23  1  0  0  0  0
 15 14  2  0  0  0  0
 16 15  1  0  0  0  0
 17 22  1  0  0  0  0
 17 16  1  0  0  0  0
 18 16  2  0  0  0  0
 18 19  1  0  0  0  0
 19 13  1  0  0  0  0
 20 19  2  0  0  0  0
 21 17  1  0  0  0  0
 23 28  1  0  0  0  0
 24 25  1  0  0  0  0
 24 23  2  0  0  0  0
 25 26  2  0  0  0  0
 26 27  1  0  0  0  0
 28 27  2  0  0  0  0
 29 30  1  0  0  0  0
 30 31  1  0  0  0  0
 31 32  2  0  0  0  0
 33 32  1  0  0  0  0
 34 33  2  0  0  0  0
 35 34  1  0  0  0  0
 36 35  2  0  0  0  0
 37 38  2  0  0  0  0
 37 36  1  0  0  0  0
 38 39  1  0  0  0  0
 39 30  2  0  0  0  0
 39 34  1  0  0  0  0
M  END
>  <minimizedAffinity>
-7.40928984

$$$$

 OpenBabel03272514513D

 39 43  0  0  1  0  0  0  0  0999 V2000
   32.4640   28.2150   47.0270 C   0  0  1  0  0  0  0  0  0  0  0  0
   31.6230   27.9390   48.2050 C   0  0  0  0  0  1  0  0  0  0  0  0
   34.0380   24.8540   47.1150 C   0  0  0  0  0  3  0  0  0  0  0  0
   34.6210   24.7180   45.8790 C   0  0  0  0  0  0  0  0  0  0  0  0
   34.4720   25.7850   45.0270 C   0  0  0  0  0  3  0  0  0  0  0  0
   33.7880   26.8810   45.4150 N   0  0  0  0  0  0  0  0  0  0  0  0
   33.2200   26.9880   46.6470 C   0  0  0  0  0  0  0  0  0  0  0  0
   33.3690   25.9340   47.4870 N   0  0  0  0  0  0  0  0  0  0  0  0
   35.3100   23.5160   45.5840 N   0  0  0  0  0  0  0  0  0  0  0  0
   35.7560   23.3890   44.6650 H   0  0  0  0  0  0  0  0  0  0  0  0
   35.3650   22.7680   46.2900 H   0  0  0  0  0  0  0  0  0  0  0  0
   31.6190   28.5400   45.8040 C   0  0  0  0  0  2  0  0  0  0  0  0
   30.2140   28.2740   45.9540 N   0  0  0  0  0  0  0  0  0  0  0  0
   29.4580   29.3250   46.3330 C   0  0  0  0  0  3  0  0  0  0  0  0
   28.0890   29.2320   46.5180 C   0  0  0  0  0  0  0  0  0  0  0  0
   27.4980   28.0080   46.3020 C   0  0  0  0  0  0  0  0  0  0  0  0
   26.0940   27.9380   46.4960 N   0  0  0  0  0  0  0  0  0  0  0  0
   28.2550   26.9580   45.9260 N   0  0  0  0  0  0  0  0  0  0  0  0
   29.5740   27.1180   45.7650 C   0  0  0  0  0  0  0  0  0  0  0  0
   30.2780   26.1560   45.4220 O   0  0  0  0  0  0  0  0  0  0  0  0
   25.5980   27.0470   46.3500 H   0  0  0  0  0  0  0  0  0  0  0  0
   25.5710   28.7770   46.7850 H   0  0  0  0  0  0  0  0  0  0  0  0
   27.3190   30.4130   46.9400 C   0  0  0  0  0  0  0  0  0  0  0  0
   26.9190   30.5790   48.2360 C   0  0  0  0  0  3  0  0  0  0  0  0
   26.1930   31.6910   48.6230 C   0  0  0  0  0  3  0  0  0  0  0  0
   25.9010   32.6010   47.6560 C   0  0  0  0  0  3  0  0  0  0  0  0
   26.2760   32.4850   46.3420 C   0  0  0  0  0  3  0  0  0  0  0  0
   27.0130   31.3570   45.9530 C   0  0  0  0  0  3  0  0  0  0  0  0
   33.4390   29.3520   47.2050 C   0  0  0  0  0  2  0  0  0  0  0  0
   34.3840   29.3160   48.3280 C   0  0  0  0  0  0  0  0  0  0  0  0
   34.2910   28.8650   49.6220 C   0  0  0  0  0  3  0  0  0  0  0  0
   35.2170   28.9230   50.6230 C   0  0  0  0  0  3  0  0  0  0  0  0
   36.4200   29.4990   50.3400 C   0  0  0  0  0  3  0  0  0  0  0  0
   36.6420   29.9890   49.0610 C   0  0  0  0  0  0  0  0  0  0  0  0
   37.9010   30.5030   48.8610 C   0  0  0  0  0  3  0  0  0  0  0  0
   38.2300   30.9600   47.6120 C   0  0  0  0  0  3  0  0  0  0  0  0
   37.3020   30.8940   46.5970 C   0  0  0  0  0  3  0  0  0  0  0  0
   36.0650   30.3660   46.8890 C   0  0  0  0  0  3  0  0  0  0  0  0
   35.6470   29.8890   48.1070 C   0  0  0  0  0  0  0  0  0  0  0  0
  1 29  1  0  0  0  0
  1  2  1  1  0  0  0
  3  8  1  0  0  0  0
  4  3  2  0  0  0  0
  5  6  2  0  0  0  0
  5  4  1  0  0  0  0
  6  7  1  0  0  0  0
  7  1  1  0  0  0  0
  7  8  2  0  0  0  0
  9  4  1  0  0  0  0
  9 11  1  0  0  0  0
 10  9  1  0  0  0  0
 12 13  1  0  0  0  0
 12  1  1  0  0  0  0
 13 14  1  0  0  0  0
 14 15  2  0  0  0  0
 15 23  1  0  0  0  0
 16 17  1  0  0  0  0
 16 15  1  0  0  0  0
 17 22  1  0  0  0  0
 18 16  2  0  0  0  0
 19 18  1  0  0  0  0
 19 13  1  0  0  0  0
 20 19  2  0  0  0  0
 21 17  1  0  0  0  0
 23 24  1  0  0  0  0
 24 25  2  0  0  0  0
 26 25  1  0  0  0  0
 27 26  2  0  0  0  0
 28 27  1  0  0  0  0
 28 23  2  0  0  0  0
 29 30  1  0  0  0  0
 30 31  1  0  0  0  0
 31 32  2  0  0  0  0
 33 32  1  0  0  0  0
 34 33  2  0  0  0  0
 35 34  1  0  0  0  0
 36 35  2  0  0  0  0
 37 38  2  0  0  0  0
 37 36  1  0  0  0  0
 38 39  1  0  0  0  0
 39 30  2  0  0  0  0
 39 34  1  0  0  0  0
M  END
>  <minimizedAffinity>
-7.40420055

$$$$

 OpenBabel03272514513D

 39 43  0  0  1  0  0  0  0  0999 V2000
   27.6060   28.8980   45.7770 C   0  0  1  0  0  0  0  0  0  0  0  0
   26.3940   28.5290   45.0240 C   0  0  0  0  0  1  0  0  0  0  0  0
   27.3550   28.9010   49.4810 C   0  0  0  0  0  3  0  0  0  0  0  0
   27.2040   27.5770   49.8140 C   0  0  0  0  0  0  0  0  0  0  0  0
   27.1940   26.6930   48.7620 C   0  0  0  0  0  3  0  0  0  0  0  0
   27.3260   27.1360   47.4940 N   0  0  0  0  0  0  0  0  0  0  0  0
   27.4740   28.4550   47.1950 C   0  0  0  0  0  0  0  0  0  0  0  0
   27.4850   29.3260   48.2340 N   0  0  0  0  0  0  0  0  0  0  0  0
   27.0680   27.2340   51.1820 N   0  0  0  0  0  0  0  0  0  0  0  0
   26.9540   26.2480   51.4560 H   0  0  0  0  0  0  0  0  0  0  0  0
   27.0850   27.9700   51.9010 H   0  0  0  0  0  0  0  0  0  0  0  0
   28.8310   28.1610   45.2560 C   0  0  0  0  0  2  0  0  0  0  0  0
   30.0910   28.7340   45.6480 N   0  0  0  0  0  0  0  0  0  0  0  0
   30.4470   29.8610   44.9980 C   0  0  0  0  0  3  0  0  0  0  0  0
   31.6280   30.5330   45.2620 C   0  0  0  0  0  0  0  0  0  0  0  0
   32.4570   30.0110   46.2290 C   0  0  0  0  0  0  0  0  0  0  0  0
   33.6600   30.7170   46.4830 N   0  0  0  0  0  0  0  0  0  0  0  0
   32.1000   28.8820   46.8750 N   0  0  0  0  0  0  0  0  0  0  0  0
   30.9430   28.2840   46.5700 C   0  0  0  0  0  0  0  0  0  0  0  0
   30.6100   27.2430   47.1580 O   0  0  0  0  0  0  0  0  0  0  0  0
   34.3200   30.3730   47.1950 H   0  0  0  0  0  0  0  0  0  0  0  0
   33.8760   31.5750   45.9540 H   0  0  0  0  0  0  0  0  0  0  0  0
   31.9650   31.7540   44.5140 C   0  0  0  0  0  0  0  0  0  0  0  0
   32.7800   31.7190   43.4170 C   0  0  0  0  0  3  0  0  0  0  0  0
   33.0940   32.8730   42.7230 C   0  0  0  0  0  3  0  0  0  0  0  0
   32.5550   34.0320   43.1830 C   0  0  0  0  0  3  0  0  0  0  0  0
   31.7330   34.1270   44.2770 C   0  0  0  0  0  3  0  0  0  0  0  0
   31.4160   32.9550   44.9790 C   0  0  0  0  0  3  0  0  0  0  0  0
   27.9320   30.3700   45.7560 C   0  0  0  0  0  2  0  0  0  0  0  0
   27.2520   31.2420   44.7900 C   0  0  0  0  0  0  0  0  0  0  0  0
   27.2650   31.3180   43.4190 C   0  0  0  0  0  3  0  0  0  0  0  0
   26.6320   32.2080   42.6000 C   0  0  0  0  0  3  0  0  0  0  0  0
   25.8640   33.1700   43.1840 C   0  0  0  0  0  3  0  0  0  0  0  0
   25.7620   33.1970   44.5680 C   0  0  0  0  0  0  0  0  0  0  0  0
   24.9250   34.1710   45.0570 C   0  0  0  0  0  3  0  0  0  0  0  0
   24.7190   34.2380   46.4100 C   0  0  0  0  0  3  0  0  0  0  0  0
   25.3480   33.3350   47.2380 C   0  0  0  0  0  3  0  0  0  0  0  0
   26.1700   32.3950   46.6610 C   0  0  0  0  0  3  0  0  0  0  0  0
   26.4380   32.2560   45.3220 C   0  0  0  0  0  0  0  0  0  0  0  0
  1  2  1  6  0  0  0
  1  7  1  0  0  0  0
  3  4  1  0  0  0  0
  4  9  1  0  0  0  0
  5  4  2  0  0  0  0
  6  5  1  0  0  0  0
  7  6  2  0  0  0  0
  7  8  1  0  0  0  0
  8  3  2  0  0  0  0
  9 10  1  0  0  0  0
  9 11  1  0  0  0  0
 12 13  1  0  0  0  0
 12  1  1  0  0  0  0
 13 19  1  0  0  0  0
 14 15  2  0  0  0  0
 14 13  1  0  0  0  0
 15 16  1  0  0  0  0
 16 17  1  0  0  0  0
 16 18  2  0  0  0  0
 17 21  1  0  0  0  0
 19 18  1  0  0  0  0
 19 20  2  0  0  0  0
 22 17  1  0  0  0  0
 23 28  1  0  0  0  0
 23 15  1  0  0  0  0
 24 23  2  0  0  0  0
 25 26  2  0  0  0  0
 25 24  1  0  0  0  0
 26 27  1  0  0  0  0
 27 28  2  0  0  0  0
 29  1  1  0  0  0  0
 30 39  1  0  0  0  0
 30 29  1  0  0  0  0
 31 30  2  0  0  0  0
 32 33  2  0  0  0  0
 32 31  1  0  0  0  0
 33 34  1  0  0  0  0
 34 35  2  0  0  0  0
 34 39  1  0  0  0  0
 35 36  1  0  0  0  0
 36 37  2  0  0  0  0
 38 37  1  0  0  0  0
 39 38  2  0  0  0  0
M  END
>  <minimizedAffinity>
-7.11522293

$$$$

 OpenBabel03272514513D

 39 43  0  0  1  0  0  0  0  0999 V2000
   33.5350   28.8190   46.2140 C   0  0  1  0  0  0  0  0  0  0  0  0
   34.5460   28.3220   45.2640 C   0  0  0  0  0  1  0  0  0  0  0  0
   30.7850   28.8120   43.7190 C   0  0  0  0  0  3  0  0  0  0  0  0
   29.8960   29.7480   44.1890 C   0  0  0  0  0  0  0  0  0  0  0  0
   30.2520   30.3770   45.3570 C   0  0  0  0  0  3  0  0  0  0  0  0
   31.4100   30.0670   45.9770 N   0  0  0  0  0  0  0  0  0  0  0  0
   32.2720   29.1350   45.4880 C   0  0  0  0  0  0  0  0  0  0  0  0
   31.9200   28.5160   44.3340 N   0  0  0  0  0  0  0  0  0  0  0  0
   28.7090   29.9830   43.4530 N   0  0  0  0  0  0  0  0  0  0  0  0
   28.0270   30.6790   43.7840 H   0  0  0  0  0  0  0  0  0  0  0  0
   28.5280   29.4570   42.5860 H   0  0  0  0  0  0  0  0  0  0  0  0
   33.1420   27.7480   47.2200 C   0  0  0  0  0  2  0  0  0  0  0  0
   32.0040   26.9540   46.8440 N   0  0  0  0  0  0  0  0  0  0  0  0
   30.8100   27.4010   47.2850 C   0  0  0  0  0  3  0  0  0  0  0  0
   29.6200   26.7500   47.0060 C   0  0  0  0  0  0  0  0  0  0  0  0
   29.6830   25.6030   46.2460 C   0  0  0  0  0  0  0  0  0  0  0  0
   28.4520   24.9560   45.9710 N   0  0  0  0  0  0  0  0  0  0  0  0
   30.8780   25.1580   45.8080 N   0  0  0  0  0  0  0  0  0  0  0  0
   31.9890   25.8370   46.1150 C   0  0  0  0  0  0  0  0  0  0  0  0
   33.0930   25.4310   45.7180 O   0  0  0  0  0  0  0  0  0  0  0  0
   28.4370   24.0940   45.4080 H   0  0  0  0  0  0  0  0  0  0  0  0
   27.5710   25.3470   46.3360 H   0  0  0  0  0  0  0  0  0  0  0  0
   28.3490   27.2810   47.5220 C   0  0  0  0  0  0  0  0  0  0  0  0
   27.9290   27.0160   48.7960 C   0  0  0  0  0  3  0  0  0  0  0  0
   26.7310   27.5170   49.2720 C   0  0  0  0  0  3  0  0  0  0  0  0
   26.0010   28.2800   48.4160 C   0  0  0  0  0  3  0  0  0  0  0  0
   26.3730   28.5770   47.1300 C   0  0  0  0  0  3  0  0  0  0  0  0
   27.5880   28.0680   46.6500 C   0  0  0  0  0  3  0  0  0  0  0  0
   33.9600   30.0330   47.0020 C   0  0  0  0  0  2  0  0  0  0  0  0
   35.3880   30.2630   47.2500 C   0  0  0  0  0  0  0  0  0  0  0  0
   36.4280   30.6730   46.4500 C   0  0  0  0  0  3  0  0  0  0  0  0
   37.7500   30.8090   46.7600 C   0  0  0  0  0  3  0  0  0  0  0  0
   38.1360   30.5120   48.0330 C   0  0  0  0  0  3  0  0  0  0  0  0
   37.1750   30.0920   48.9430 C   0  0  0  0  0  0  0  0  0  0  0  0
   37.6550   29.8670   50.2110 C   0  0  0  0  0  3  0  0  0  0  0  0
   36.7680   29.5030   51.1900 C   0  0  0  0  0  3  0  0  0  0  0  0
   35.4320   29.3750   50.8840 C   0  0  0  0  0  3  0  0  0  0  0  0
   35.0420   29.6180   49.5870 C   0  0  0  0  0  3  0  0  0  0  0  0
   35.8570   29.9820   48.5440 C   0  0  0  0  0  0  0  0  0  0  0  0
  1  2  1  6  0  0  0
  1 29  1  0  0  0  0
  1 12  1  0  0  0  0
  3  4  2  0  0  0  0
  3  8  1  0  0  0  0
  4  5  1  0  0  0  0
  5  6  2  0  0  0  0
  7  6  1  0  0  0  0
  7  1  1  0  0  0  0
  8  7  2  0  0  0  0
  9 10  1  0  0  0  0
  9  4  1  0  0  0  0
 11  9  1  0  0  0  0
 13 12  1  0  0  0  0
 13 14  1  0  0  0  0
 15 14  2  0  0  0  0
 15 23  1  0  0  0  0
 16 15  1  0  0  0  0
 17 16  1  0  0  0  0
 17 22  1  0  0  0  0
 18 19  1  0  0  0  0
 18 16  2  0  0  0  0
 19 13  1  0  0  0  0
 20 19  2  0  0  0  0
 21 17  1  0  0  0  0
 23 24  1  0  0  0  0
 24 25  2  0  0  0  0
 26 25  1  0  0  0  0
 27 26  2  0  0  0  0
 28 27  1  0  0  0  0
 28 23  2  0  0  0  0
 29 30  1  0  0  0  0
 30 39  1  0  0  0  0
 31 32  1  0  0  0  0
 31 30  2  0  0  0  0
 32 33  2  0  0  0  0
 33 34  1  0  0  0  0
 34 35  1  0  0  0  0
 35 36  2  0  0  0  0
 37 36  1  0  0  0  0
 38 37  2  0  0  0  0
 39 34  2  0  0  0  0
 39 38  1  0  0  0  0
M  END
>  <minimizedAffinity>
-6.96293449

$$$$

 OpenBabel03272514513D

 39 43  0  0  1  0  0  0  0  0999 V2000
   32.4770   29.3830   45.7180 C   0  0  1  0  0  0  0  0  0  0  0  0
   32.4700   30.5490   46.6190 C   0  0  0  0  0  1  0  0  0  0  0  0
   32.6820   29.4250   42.0120 C   0  0  0  0  0  3  0  0  0  0  0  0
   32.4770   30.7400   41.6740 C   0  0  0  0  0  0  0  0  0  0  0  0
   32.2750   31.6030   42.7240 C   0  0  0  0  0  3  0  0  0  0  0  0
   32.2820   31.1490   43.9940 N   0  0  0  0  0  0  0  0  0  0  0  0
   32.4880   29.8390   44.2990 C   0  0  0  0  0  0  0  0  0  0  0  0
   32.6890   28.9890   43.2620 N   0  0  0  0  0  0  0  0  0  0  0  0
   32.4860   31.0960   40.3030 N   0  0  0  0  0  0  0  0  0  0  0  0
   32.3350   32.0760   40.0240 H   0  0  0  0  0  0  0  0  0  0  0  0
   32.6440   30.3750   39.5850 H   0  0  0  0  0  0  0  0  0  0  0  0
   33.7540   28.5700   45.8710 C   0  0  0  0  0  2  0  0  0  0  0  0
   34.3770   28.6620   47.1640 N   0  0  0  0  0  0  0  0  0  0  0  0
   35.2680   29.6640   47.3120 C   0  0  0  0  0  3  0  0  0  0  0  0
   35.9500   29.8860   48.4960 C   0  0  0  0  0  0  0  0  0  0  0  0
   35.6930   29.0380   49.5500 C   0  0  0  0  0  0  0  0  0  0  0  0
   36.4020   29.2870   50.7530 N   0  0  0  0  0  0  0  0  0  0  0  0
   34.8030   28.0370   49.3980 N   0  0  0  0  0  0  0  0  0  0  0  0
   34.1790   27.8780   48.2260 C   0  0  0  0  0  0  0  0  0  0  0  0
   33.3610   26.9570   48.0780 O   0  0  0  0  0  0  0  0  0  0  0  0
   36.2500   28.6860   51.5750 H   0  0  0  0  0  0  0  0  0  0  0  0
   37.0700   30.0710   50.8050 H   0  0  0  0  0  0  0  0  0  0  0  0
   36.9170   30.9910   48.5940 C   0  0  0  0  0  0  0  0  0  0  0  0
   36.7940   31.9650   49.5450 C   0  0  0  0  0  3  0  0  0  0  0  0
   37.7060   33.0020   49.6280 C   0  0  0  0  0  3  0  0  0  0  0  0
   38.7200   33.0010   48.7250 C   0  0  0  0  0  3  0  0  0  0  0  0
   38.8930   32.0510   47.7500 C   0  0  0  0  0  3  0  0  0  0  0  0
   37.9660   31.0010   47.6690 C   0  0  0  0  0  3  0  0  0  0  0  0
   31.3210   28.4330   45.9150 C   0  0  0  0  0  2  0  0  0  0  0  0
   30.0030   28.9710   46.2730 C   0  0  0  0  0  0  0  0  0  0  0  0
   29.0870   29.7420   45.6000 C   0  0  0  0  0  3  0  0  0  0  0  0
   27.8960   30.2440   46.0400 C   0  0  0  0  0  3  0  0  0  0  0  0
   27.5240   29.9620   47.3200 C   0  0  0  0  0  3  0  0  0  0  0  0
   28.3630   29.1820   48.1050 C   0  0  0  0  0  0  0  0  0  0  0  0
   27.8750   28.9110   49.3600 C   0  0  0  0  0  3  0  0  0  0  0  0
   28.6110   28.1020   50.1870 C   0  0  0  0  0  3  0  0  0  0  0  0
   29.8070   27.5850   49.7430 C   0  0  0  0  0  3  0  0  0  0  0  0
   30.2180   27.9120   48.4710 C   0  0  0  0  0  3  0  0  0  0  0  0
   29.5520   28.7150   47.5780 C   0  0  0  0  0  0  0  0  0  0  0  0
  1 12  1  0  0  0  0
  1 29  1  0  0  0  0
  1  2  1  1  0  0  0
  3  8  1  0  0  0  0
  4  3  2  0  0  0  0
  4  5  1  0  0  0  0
  5  6  2  0  0  0  0
  6  7  1  0  0  0  0
  7  1  1  0  0  0  0
  8  7  2  0  0  0  0
  9  4  1  0  0  0  0
 10  9  1  0  0  0  0
 11  9  1  0  0  0  0
 12 13  1  0  0  0  0
 13 14  1  0  0  0  0
 13 19  1  0  0  0  0
 14 15  2  0  0  0  0
 15 23  1  0  0  0  0
 15 16  1  0  0  0  0
 16 17  1  0  0  0  0
 17 22  1  0  0  0  0
 17 21  1  0  0  0  0
 18 16  2  0  0  0  0
 19 18  1  0  0  0  0
 20 19  2  0  0  0  0
 23 24  1  0  0  0  0
 24 25  2  0  0  0  0
 26 25  1  0  0  0  0
 27 26  2  0  0  0  0
 28 27  1  0  0  0  0
 28 23  2  0  0  0  0
 29 30  1  0  0  0  0
 30 39  1  0  0  0  0
 31 32  1  0  0  0  0
 31 30  2  0  0  0  0
 32 33  2  0  0  0  0
 33 34  1  0  0  0  0
 34 35  1  0  0  0  0
 35 36  2  0  0  0  0
 37 36  1  0  0  0  0
 38 37  2  0  0  0  0
 39 34  2  0  0  0  0
 39 38  1  0  0  0  0
M  END
>  <minimizedAffinity>
-6.93458319

$$$$

 OpenBabel03272514513D

 39 43  0  0  1  0  0  0  0  0999 V2000
   29.2680   29.7440   45.1890 C   0  0  1  0  0  0  0  0  0  0  0  0
   29.2240   31.2120   45.0640 C   0  0  0  0  0  1  0  0  0  0  0  0
   26.0640   29.3270   43.3620 C   0  0  0  0  0  3  0  0  0  0  0  0
   25.8020   27.9810   43.4340 C   0  0  0  0  0  0  0  0  0  0  0  0
   26.7290   27.2280   44.1140 C   0  0  0  0  0  3  0  0  0  0  0  0
   27.8150   27.8100   44.6630 N   0  0  0  0  0  0  0  0  0  0  0  0
   28.0480   29.1470   44.5760 C   0  0  0  0  0  0  0  0  0  0  0  0
   27.1320   29.8900   43.9050 N   0  0  0  0  0  0  0  0  0  0  0  0
   24.6300   27.4850   42.8130 N   0  0  0  0  0  0  0  0  0  0  0  0
   24.4120   26.4790   42.8530 H   0  0  0  0  0  0  0  0  0  0  0  0
   23.9960   28.1300   42.3220 H   0  0  0  0  0  0  0  0  0  0  0  0
   30.4250   29.1530   44.3970 C   0  0  0  0  0  2  0  0  0  0  0  0
   31.2720   28.2600   45.1410 N   0  0  0  0  0  0  0  0  0  0  0  0
   32.0810   28.8440   46.0480 C   0  0  0  0  0  3  0  0  0  0  0  0
   32.9530   28.1210   46.8440 C   0  0  0  0  0  0  0  0  0  0  0  0
   32.9790   26.7540   46.6850 C   0  0  0  0  0  0  0  0  0  0  0  0
   33.8790   26.0350   47.5130 N   0  0  0  0  0  0  0  0  0  0  0  0
   32.1700   26.1730   45.7760 N   0  0  0  0  0  0  0  0  0  0  0  0
   31.3510   26.9320   45.0390 C   0  0  0  0  0  0  0  0  0  0  0  0
   30.6060   26.4050   44.1980 O   0  0  0  0  0  0  0  0  0  0  0  0
   33.9410   25.0090   47.4370 H   0  0  0  0  0  0  0  0  0  0  0  0
   34.4710   26.5380   48.1890 H   0  0  0  0  0  0  0  0  0  0  0  0
   33.8180   28.8150   47.8110 C   0  0  0  0  0  0  0  0  0  0  0  0
   34.8750   29.5810   47.4050 C   0  0  0  0  0  3  0  0  0  0  0  0
   35.6840   30.2270   48.3210 C   0  0  0  0  0  3  0  0  0  0  0  0
   35.3760   30.0640   49.6340 C   0  0  0  0  0  3  0  0  0  0  0  0
   34.3300   29.3080   50.0990 C   0  0  0  0  0  3  0  0  0  0  0  0
   33.5110   28.6540   49.1670 C   0  0  0  0  0  3  0  0  0  0  0  0
   29.3980   29.2400   46.6050 C   0  0  0  0  0  2  0  0  0  0  0  0
   28.2570   29.3700   47.5200 C   0  0  0  0  0  0  0  0  0  0  0  0
   27.0920   30.0960   47.4730 C   0  0  0  0  0  3  0  0  0  0  0  0
   26.1020   30.1960   48.4080 C   0  0  0  0  0  3  0  0  0  0  0  0
   26.2490   29.4890   49.5640 C   0  0  0  0  0  3  0  0  0  0  0  0
   27.3840   28.7080   49.7310 C   0  0  0  0  0  0  0  0  0  0  0  0
   27.4140   27.9940   50.9050 C   0  0  0  0  0  3  0  0  0  0  0  0
   28.4710   27.1520   51.1310 C   0  0  0  0  0  3  0  0  0  0  0  0
   29.4660   27.0400   50.1860 C   0  0  0  0  0  3  0  0  0  0  0  0
   29.3540   27.7940   49.0410 C   0  0  0  0  0  3  0  0  0  0  0  0
   28.3370   28.6640   48.7320 C   0  0  0  0  0  0  0  0  0  0  0  0
  1  2  1  6  0  0  0
  1 29  1  0  0  0  0
  3  4  2  0  0  0  0
  3  8  1  0  0  0  0
  4  5  1  0  0  0  0
  5  6  2  0  0  0  0
  7  6  1  0  0  0  0
  7  1  1  0  0  0  0
  8  7  2  0  0  0  0
  9 10  1  0  0  0  0
  9  4  1  0  0  0  0
 11  9  1  0  0  0  0
 12 13  1  0  0  0  0
 12  1  1  0  0  0  0
 13 14  1  0  0  0  0
 14 15  2  0  0  0  0
 15 23  1  0  0  0  0
 16 15  1  0  0  0  0
 16 17  1  0  0  0  0
 17 22  1  0  0  0  0
 18 16  2  0  0  0  0
 19 13  1  0  0  0  0
 19 18  1  0  0  0  0
 20 19  2  0  0  0  0
 21 17  1  0  0  0  0
 23 28  1  0  0  0  0
 24 23  2  0  0  0  0
 24 25  1  0  0  0  0
 25 26  2  0  0  0  0
 26 27  1  0  0  0  0
 28 27  2  0  0  0  0
 29 30  1  0  0  0  0
 30 39  1  0  0  0  0
 31 30  2  0  0  0  0
 31 32  1  0  0  0  0
 32 33  2  0  0  0  0
 33 34  1  0  0  0  0
 34 35  1  0  0  0  0
 35 36  2  0  0  0  0
 37 36  1  0  0  0  0
 38 37  2  0  0  0  0
 39 38  1  0  0  0  0
 39 34  2  0  0  0  0
M  END
>  <minimizedAffinity>
-6.8829875

$$$$
