
 OpenBabel03272514553D

 29 33  0  0  0  0  0  0  0  0999 V2000
   33.1630   25.6280   47.5330 C   0  0  0  0  0  3  0  0  0  0  0  0
   31.7970   25.7200   47.6980 C   0  0  0  0  0  3  0  0  0  0  0  0
   31.2320   27.0170   47.7440 C   0  0  0  0  0  0  0  0  0  0  0  0
   32.0590   28.0990   47.6250 N   0  0  0  0  0  0  0  0  0  0  0  0
   33.3660   27.9480   47.4680 C   0  0  0  0  0  0  0  0  0  0  0  0
   33.9260   26.7170   47.4220 N   0  0  0  0  0  0  0  0  0  0  0  0
   29.8010   27.1980   47.9150 C   0  0  0  0  0  0  0  0  0  0  0  0
   29.0260   26.4230   47.2860 O   0  0  0  0  0  0  0  0  0  0  0  0
   29.0590   28.1640   48.7250 C   0  0  0  0  0  0  0  0  0  0  0  0
   29.0520   28.2710   50.1020 C   0  0  0  0  0  3  0  0  0  0  0  0
   28.2300   29.2990   50.4080 N   0  0  0  0  0  0  0  0  0  0  0  0
   27.7150   29.8490   49.2930 C   0  0  0  0  0  0  0  0  0  0  0  0
   26.8350   30.9110   49.0810 C   0  0  0  0  0  3  0  0  0  0  0  0
   26.4570   31.2810   47.8050 C   0  0  0  0  0  3  0  0  0  0  0  0
   26.9850   30.5600   46.7570 C   0  0  0  0  0  3  0  0  0  0  0  0
   27.8540   29.5100   46.9230 C   0  0  0  0  0  3  0  0  0  0  0  0
   28.2290   29.1420   48.2040 C   0  0  0  0  0  0  0  0  0  0  0  0
   28.0260   29.6180   51.3660 H   0  0  0  0  0  0  0  0  0  0  0  0
   34.3130   29.1050   47.3380 C   0  0  0  0  0  2  0  0  0  0  0  0
   35.0650   29.3690   48.5530 C   0  0  0  0  0  0  0  0  0  0  0  0
   34.6480   28.8470   49.7750 C   0  0  0  0  0  3  0  0  0  0  0  0
   35.3520   29.0740   50.9240 C   0  0  0  0  0  3  0  0  0  0  0  0
   36.5200   29.8430   50.9070 C   0  0  0  0  0  3  0  0  0  0  0  0
   36.9410   30.3650   49.6930 C   0  0  0  0  0  0  0  0  0  0  0  0
   38.0940   31.1280   49.6620 C   0  0  0  0  0  3  0  0  0  0  0  0
   38.5530   31.6680   48.4790 C   0  0  0  0  0  3  0  0  0  0  0  0
   37.8360   31.4370   47.3140 C   0  0  0  0  0  3  0  0  0  0  0  0
   36.6810   30.6660   47.3810 C   0  0  0  0  0  3  0  0  0  0  0  0
   36.1930   30.1100   48.5420 C   0  0  0  0  0  0  0  0  0  0  0  0
  1  2  1  0  0  0  0
  2  3  2  0  0  0  0
  3  7  1  0  0  0  0
  4  3  1  0  0  0  0
  5  4  2  0  0  0  0
  6  5  1  0  0  0  0
  6  1  2  0  0  0  0
  7  9  1  0  0  0  0
  8  7  2  0  0  0  0
  9 10  2  0  0  0  0
 10 11  1  0  0  0  0
 11 18  1  0  0  0  0
 12 11  1  0  0  0  0
 13 12  1  0  0  0  0
 14 13  2  0  0  0  0
 15 16  2  0  0  0  0
 15 14  1  0  0  0  0
 16 17  1  0  0  0  0
 17  9  1  0  0  0  0
 17 12  2  0  0  0  0
 19  5  1  0  0  0  0
 19 20  1  0  0  0  0
 20 21  1  0  0  0  0
 21 22  2  0  0  0  0
 23 22  1  0  0  0  0
 24 23  2  0  0  0  0
 25 24  1  0  0  0  0
 26 25  2  0  0  0  0
 27 28  2  0  0  0  0
 27 26  1  0  0  0  0
 28 29  1  0  0  0  0
 29 20  2  0  0  0  0
 29 24  1  0  0  0  0
M  END
>  <minimizedAffinity>
-8.36618042

$$$$

 OpenBabel03272514553D

 29 33  0  0  0  0  0  0  0  0999 V2000
   31.4670   30.3500   45.6630 C   0  0  0  0  0  3  0  0  0  0  0  0
   30.5680   29.4750   46.2370 C   0  0  0  0  0  3  0  0  0  0  0  0
   31.0930   28.4300   47.0330 C   0  0  0  0  0  0  0  0  0  0  0  0
   32.4480   28.3410   47.1910 N   0  0  0  0  0  0  0  0  0  0  0  0
   33.2630   29.2130   46.6150 C   0  0  0  0  0  0  0  0  0  0  0  0
   32.7820   30.2180   45.8490 N   0  0  0  0  0  0  0  0  0  0  0  0
   30.2110   27.4680   47.6720 C   0  0  0  0  0  0  0  0  0  0  0  0
   30.1310   26.3120   47.1690 O   0  0  0  0  0  0  0  0  0  0  0  0
   29.3570   27.6050   48.8520 C   0  0  0  0  0  0  0  0  0  0  0  0
   29.7080   27.3780   50.1690 C   0  0  0  0  0  3  0  0  0  0  0  0
   28.6080   27.6280   50.9120 N   0  0  0  0  0  0  0  0  0  0  0  0
   27.5770   28.0030   50.1320 C   0  0  0  0  0  0  0  0  0  0  0  0
   26.2580   28.3610   50.4140 C   0  0  0  0  0  3  0  0  0  0  0  0
   25.3820   28.7120   49.4050 C   0  0  0  0  0  3  0  0  0  0  0  0
   25.8660   28.6940   48.1160 C   0  0  0  0  0  3  0  0  0  0  0  0
   27.1570   28.3480   47.7970 C   0  0  0  0  0  3  0  0  0  0  0  0
   28.0300   27.9960   48.8120 C   0  0  0  0  0  0  0  0  0  0  0  0
   28.5640   27.5440   51.9380 H   0  0  0  0  0  0  0  0  0  0  0  0
   34.7560   29.1520   46.7570 C   0  0  0  0  0  2  0  0  0  0  0  0
   35.2130   29.4100   48.1130 C   0  0  0  0  0  0  0  0  0  0  0  0
   34.5810   28.8120   49.2020 C   0  0  0  0  0  3  0  0  0  0  0  0
   35.0080   29.0330   50.4820 C   0  0  0  0  0  3  0  0  0  0  0  0
   36.0980   29.8700   50.7380 C   0  0  0  0  0  3  0  0  0  0  0  0
   36.7320   30.4680   49.6580 C   0  0  0  0  0  0  0  0  0  0  0  0
   37.8100   31.2990   49.8970 C   0  0  0  0  0  3  0  0  0  0  0  0
   38.4720   31.9150   48.8570 C   0  0  0  0  0  3  0  0  0  0  0  0
   38.0380   31.6900   47.5580 C   0  0  0  0  0  3  0  0  0  0  0  0
   36.9500   30.8500   47.3530 C   0  0  0  0  0  3  0  0  0  0  0  0
   36.2650   30.2160   48.3660 C   0  0  0  0  0  0  0  0  0  0  0  0
  1  6  2  0  0  0  0
  1  2  1  0  0  0  0
  2  3  2  0  0  0  0
  3  4  1  0  0  0  0
  3  7  1  0  0  0  0
  5 19  1  0  0  0  0
  5  4  2  0  0  0  0
  6  5  1  0  0  0  0
  7  9  1  0  0  0  0
  8  7  2  0  0  0  0
  9 10  2  0  0  0  0
 10 11  1  0  0  0  0
 11 18  1  0  0  0  0
 12 13  1  0  0  0  0
 12 11  1  0  0  0  0
 14 13  2  0  0  0  0
 15 14  1  0  0  0  0
 16 15  2  0  0  0  0
 16 17  1  0  0  0  0
 17  9  1  0  0  0  0
 17 12  2  0  0  0  0
 19 20  1  0  0  0  0
 20 29  2  0  0  0  0
 20 21  1  0  0  0  0
 21 22  2  0  0  0  0
 22 23  1  0  0  0  0
 24 25  1  0  0  0  0
 24 23  2  0  0  0  0
 26 25  2  0  0  0  0
 27 26  1  0  0  0  0
 28 27  2  0  0  0  0
 28 29  1  0  0  0  0
 29 24  1  0  0  0  0
M  END
>  <minimizedAffinity>
-8.33324718

$$$$

 OpenBabel03272514553D

 29 33  0  0  0  0  0  0  0  0999 V2000
   32.3030   30.8680   45.6000 C   0  0  0  0  0  3  0  0  0  0  0  0
   31.0070   30.3990   45.6650 C   0  0  0  0  0  3  0  0  0  0  0  0
   30.7720   29.2400   46.4430 C   0  0  0  0  0  0  0  0  0  0  0  0
   31.8280   28.6510   47.0810 N   0  0  0  0  0  0  0  0  0  0  0  0
   33.0520   29.1480   46.9810 C   0  0  0  0  0  0  0  0  0  0  0  0
   33.2980   30.2540   46.2420 N   0  0  0  0  0  0  0  0  0  0  0  0
   29.4350   28.6850   46.5620 C   0  0  0  0  0  0  0  0  0  0  0  0
   29.0260   27.9180   45.6450 O   0  0  0  0  0  0  0  0  0  0  0  0
   28.4260   28.8630   47.6070 C   0  0  0  0  0  0  0  0  0  0  0  0
   27.3050   29.6680   47.5590 C   0  0  0  0  0  3  0  0  0  0  0  0
   26.6670   29.5170   48.7410 N   0  0  0  0  0  0  0  0  0  0  0  0
   27.3280   28.6570   49.5360 C   0  0  0  0  0  0  0  0  0  0  0  0
   27.0850   28.1790   50.8240 C   0  0  0  0  0  3  0  0  0  0  0  0
   27.9410   27.2790   51.4270 C   0  0  0  0  0  3  0  0  0  0  0  0
   29.0420   26.8760   50.7030 C   0  0  0  0  0  3  0  0  0  0  0  0
   29.3180   27.3220   49.4340 C   0  0  0  0  0  3  0  0  0  0  0  0
   28.4560   28.2240   48.8350 C   0  0  0  0  0  0  0  0  0  0  0  0
   25.7920   29.9960   48.9980 H   0  0  0  0  0  0  0  0  0  0  0  0
   34.2410   28.5330   47.6590 C   0  0  0  0  0  2  0  0  0  0  0  0
   35.3930   29.4180   47.7090 C   0  0  0  0  0  0  0  0  0  0  0  0
   35.8770   30.0200   46.5500 C   0  0  0  0  0  3  0  0  0  0  0  0
   36.9500   30.8660   46.5820 C   0  0  0  0  0  3  0  0  0  0  0  0
   37.5980   31.1540   47.7860 C   0  0  0  0  0  3  0  0  0  0  0  0
   37.1200   30.5580   48.9450 C   0  0  0  0  0  0  0  0  0  0  0  0
   37.7520   30.8340   50.1430 C   0  0  0  0  0  3  0  0  0  0  0  0
   37.3140   30.2650   51.3200 C   0  0  0  0  0  3  0  0  0  0  0  0
   36.2250   29.4060   51.2860 C   0  0  0  0  0  3  0  0  0  0  0  0
   35.6130   29.1510   50.0640 C   0  0  0  0  0  3  0  0  0  0  0  0
   36.0210   29.7000   48.8690 C   0  0  0  0  0  0  0  0  0  0  0  0
  1  2  2  0  0  0  0
  1  6  1  0  0  0  0
  2  3  1  0  0  0  0
  3  7  1  0  0  0  0
  3  4  2  0  0  0  0
  5  4  1  0  0  0  0
  5 19  1  0  0  0  0
  6  5  2  0  0  0  0
  7  9  1  0  0  0  0
  8  7  2  0  0  0  0
  9 17  1  0  0  0  0
 10  9  2  0  0  0  0
 10 11  1  0  0  0  0
 11 18  1  0  0  0  0
 11 12  1  0  0  0  0
 12 13  1  0  0  0  0
 13 14  2  0  0  0  0
 15 14  1  0  0  0  0
 16 15  2  0  0  0  0
 17 16  1  0  0  0  0
 17 12  2  0  0  0  0
 19 20  1  0  0  0  0
 20 29  1  0  0  0  0
 21 22  1  0  0  0  0
 21 20  2  0  0  0  0
 22 23  2  0  0  0  0
 23 24  1  0  0  0  0
 24 25  1  0  0  0  0
 25 26  2  0  0  0  0
 27 26  1  0  0  0  0
 28 27  2  0  0  0  0
 29 24  2  0  0  0  0
 29 28  1  0  0  0  0
M  END
>  <minimizedAffinity>
-8.23033524

$$$$

 OpenBabel03272514553D

 29 33  0  0  0  0  0  0  0  0999 V2000
   33.4300   25.6570   47.1670 C   0  0  0  0  0  3  0  0  0  0  0  0
   32.0980   25.4940   46.8470 C   0  0  0  0  0  3  0  0  0  0  0  0
   31.1860   26.4510   47.3510 C   0  0  0  0  0  0  0  0  0  0  0  0
   31.6640   27.4750   48.1200 N   0  0  0  0  0  0  0  0  0  0  0  0
   32.9560   27.5800   48.3940 C   0  0  0  0  0  0  0  0  0  0  0  0
   33.8450   26.6760   47.9230 N   0  0  0  0  0  0  0  0  0  0  0  0
   29.7670   26.3480   47.0580 C   0  0  0  0  0  0  0  0  0  0  0  0
   29.3840   25.4180   46.2930 O   0  0  0  0  0  0  0  0  0  0  0  0
   28.6440   27.1700   47.5130 C   0  0  0  0  0  0  0  0  0  0  0  0
   27.8070   27.9470   46.7360 C   0  0  0  0  0  3  0  0  0  0  0  0
   26.9210   28.5230   47.5770 N   0  0  0  0  0  0  0  0  0  0  0  0
   27.1540   28.1500   48.8490 C   0  0  0  0  0  0  0  0  0  0  0  0
   26.5310   28.4650   50.0580 C   0  0  0  0  0  3  0  0  0  0  0  0
   26.9780   27.9340   51.2510 C   0  0  0  0  0  3  0  0  0  0  0  0
   28.0620   27.0840   51.1960 C   0  0  0  0  0  3  0  0  0  0  0  0
   28.7030   26.7500   50.0290 C   0  0  0  0  0  3  0  0  0  0  0  0
   28.2500   27.2860   48.8350 C   0  0  0  0  0  0  0  0  0  0  0  0
   26.1680   29.1620   47.2840 H   0  0  0  0  0  0  0  0  0  0  0  0
   33.5250   28.6840   49.2360 C   0  0  0  0  0  2  0  0  0  0  0  0
   34.6590   29.3500   48.6160 C   0  0  0  0  0  0  0  0  0  0  0  0
   34.6450   29.6610   47.2580 C   0  0  0  0  0  3  0  0  0  0  0  0
   35.6970   30.3000   46.6640 C   0  0  0  0  0  3  0  0  0  0  0  0
   36.8250   30.6640   47.4060 C   0  0  0  0  0  3  0  0  0  0  0  0
   36.8440   30.3590   48.7590 C   0  0  0  0  0  0  0  0  0  0  0  0
   37.9530   30.7130   49.5050 C   0  0  0  0  0  3  0  0  0  0  0  0
   38.0180   30.4310   50.8530 C   0  0  0  0  0  3  0  0  0  0  0  0
   36.9490   29.7810   51.4540 C   0  0  0  0  0  3  0  0  0  0  0  0
   35.8500   29.4390   50.6750 C   0  0  0  0  0  3  0  0  0  0  0  0
   35.7490   29.7050   49.3280 C   0  0  0  0  0  0  0  0  0  0  0  0
  1  6  1  0  0  0  0
  2  1  2  0  0  0  0
  2  3  1  0  0  0  0
  3  4  2  0  0  0  0
  4  5  1  0  0  0  0
  5 19  1  0  0  0  0
  6  5  2  0  0  0  0
  7  3  1  0  0  0  0
  7  9  1  0  0  0  0
  8  7  2  0  0  0  0
  9 17  1  0  0  0  0
 10  9  2  0  0  0  0
 10 11  1  0  0  0  0
 11 12  1  0  0  0  0
 12 13  1  0  0  0  0
 13 14  2  0  0  0  0
 15 14  1  0  0  0  0
 16 15  2  0  0  0  0
 17 12  2  0  0  0  0
 17 16  1  0  0  0  0
 18 11  1  0  0  0  0
 20 19  1  0  0  0  0
 20 29  1  0  0  0  0
 21 20  2  0  0  0  0
 22 21  1  0  0  0  0
 22 23  2  0  0  0  0
 23 24  1  0  0  0  0
 24 29  2  0  0  0  0
 24 25  1  0  0  0  0
 25 26  2  0  0  0  0
 26 27  1  0  0  0  0
 28 27  2  0  0  0  0
 29 28  1  0  0  0  0
M  END
>  <minimizedAffinity>
-8.1604538

$$$$

 OpenBabel03272514553D

 29 33  0  0  0  0  0  0  0  0999 V2000
   32.8280   25.8550   47.4650 C   0  0  0  0  0  3  0  0  0  0  0  0
   33.6820   26.8720   47.8410 C   0  0  0  0  0  3  0  0  0  0  0  0
   33.1510   27.8980   48.6580 C   0  0  0  0  0  0  0  0  0  0  0  0
   31.8370   27.8310   49.0280 N   0  0  0  0  0  0  0  0  0  0  0  0
   31.0650   26.8280   48.6350 C   0  0  0  0  0  0  0  0  0  0  0  0
   31.5520   25.8380   47.8530 N   0  0  0  0  0  0  0  0  0  0  0  0
   33.9850   29.0030   49.0970 C   0  0  0  0  0  0  0  0  0  0  0  0
   33.8400   29.4240   50.2800 O   0  0  0  0  0  0  0  0  0  0  0  0
   35.0170   29.7540   48.3800 C   0  0  0  0  0  0  0  0  0  0  0  0
   35.0420   30.0640   47.0350 C   0  0  0  0  0  3  0  0  0  0  0  0
   36.1770   30.7650   46.8190 N   0  0  0  0  0  0  0  0  0  0  0  0
   36.8730   30.9140   47.9610 C   0  0  0  0  0  0  0  0  0  0  0  0
   38.0820   31.5450   48.2580 C   0  0  0  0  0  3  0  0  0  0  0  0
   38.5870   31.5530   49.5430 C   0  0  0  0  0  3  0  0  0  0  0  0
   37.8470   30.9140   50.5150 C   0  0  0  0  0  3  0  0  0  0  0  0
   36.6540   30.2830   50.2640 C   0  0  0  0  0  3  0  0  0  0  0  0
   36.1530   30.2770   48.9730 C   0  0  0  0  0  0  0  0  0  0  0  0
   36.4700   31.1350   45.9030 H   0  0  0  0  0  0  0  0  0  0  0  0
   29.6170   26.7150   49.0130 C   0  0  0  0  0  2  0  0  0  0  0  0
   28.7240   27.3440   48.0540 C   0  0  0  0  0  0  0  0  0  0  0  0
   28.4820   26.7540   46.8150 C   0  0  0  0  0  3  0  0  0  0  0  0
   27.6340   27.3250   45.9080 C   0  0  0  0  0  3  0  0  0  0  0  0
   26.9800   28.5260   46.1970 C   0  0  0  0  0  3  0  0  0  0  0  0
   27.2160   29.1190   47.4300 C   0  0  0  0  0  0  0  0  0  0  0  0
   26.5760   30.3070   47.7290 C   0  0  0  0  0  3  0  0  0  0  0  0
   26.7790   30.9330   48.9400 C   0  0  0  0  0  3  0  0  0  0  0  0
   27.6410   30.3520   49.8600 C   0  0  0  0  0  3  0  0  0  0  0  0
   28.2680   29.1580   49.5260 C   0  0  0  0  0  3  0  0  0  0  0  0
   28.0900   28.5030   48.3290 C   0  0  0  0  0  0  0  0  0  0  0  0
  1  2  2  0  0  0  0
  1  6  1  0  0  0  0
  2  3  1  0  0  0  0
  3  4  2  0  0  0  0
  3  7  1  0  0  0  0
  5 19  1  0  0  0  0
  5  4  1  0  0  0  0
  6  5  2  0  0  0  0
  7  8  2  0  0  0  0
  9 17  1  0  0  0  0
  9  7  1  0  0  0  0
 10  9  2  0  0  0  0
 11 10  1  0  0  0  0
 11 12  1  0  0  0  0
 12 13  2  0  0  0  0
 12 17  1  0  0  0  0
 13 14  1  0  0  0  0
 14 15  2  0  0  0  0
 16 15  1  0  0  0  0
 17 16  2  0  0  0  0
 18 11  1  0  0  0  0
 20 29  1  0  0  0  0
 20 19  1  0  0  0  0
 21 20  2  0  0  0  0
 22 23  2  0  0  0  0
 22 21  1  0  0  0  0
 23 24  1  0  0  0  0
 24 25  2  0  0  0  0
 24 29  1  0  0  0  0
 25 26  1  0  0  0  0
 26 27  2  0  0  0  0
 28 27  1  0  0  0  0
 29 28  2  0  0  0  0
M  END
>  <minimizedAffinity>
-7.9211812

$$$$

 OpenBabel03272514553D

 29 33  0  0  0  0  0  0  0  0999 V2000
   33.0990   26.5100   45.7520 C   0  0  0  0  0  3  0  0  0  0  0  0
   33.8090   27.6870   45.8600 C   0  0  0  0  0  3  0  0  0  0  0  0
   33.4890   28.5450   46.9380 C   0  0  0  0  0  0  0  0  0  0  0  0
   32.5030   28.1690   47.8070 N   0  0  0  0  0  0  0  0  0  0  0  0
   31.8550   27.0250   47.6530 C   0  0  0  0  0  0  0  0  0  0  0  0
   32.1450   26.1900   46.6290 N   0  0  0  0  0  0  0  0  0  0  0  0
   34.1930   29.8030   47.1200 C   0  0  0  0  0  0  0  0  0  0  0  0
   33.5940   30.8700   46.8020 O   0  0  0  0  0  0  0  0  0  0  0  0
   35.5380   30.0700   47.6300 C   0  0  0  0  0  0  0  0  0  0  0  0
   36.6280   30.5290   46.9170 C   0  0  0  0  0  3  0  0  0  0  0  0
   37.6520   30.6290   47.7930 N   0  0  0  0  0  0  0  0  0  0  0  0
   37.2650   30.2560   49.0260 C   0  0  0  0  0  0  0  0  0  0  0  0
   37.9370   30.1820   50.2480 C   0  0  0  0  0  3  0  0  0  0  0  0
   37.2930   29.7560   51.3930 C   0  0  0  0  0  3  0  0  0  0  0  0
   35.9650   29.4090   51.2770 C   0  0  0  0  0  3  0  0  0  0  0  0
   35.2680   29.4670   50.0940 C   0  0  0  0  0  3  0  0  0  0  0  0
   35.9190   29.8940   48.9500 C   0  0  0  0  0  0  0  0  0  0  0  0
   38.6000   30.9470   47.5490 H   0  0  0  0  0  0  0  0  0  0  0  0
   30.7640   26.5730   48.5800 C   0  0  0  0  0  2  0  0  0  0  0  0
   29.4960   27.2430   48.3420 C   0  0  0  0  0  0  0  0  0  0  0  0
   29.1680   27.7120   47.0720 C   0  0  0  0  0  3  0  0  0  0  0  0
   27.9740   28.3310   46.8280 C   0  0  0  0  0  3  0  0  0  0  0  0
   27.0400   28.5140   47.8530 C   0  0  0  0  0  3  0  0  0  0  0  0
   27.3610   28.0480   49.1200 C   0  0  0  0  0  0  0  0  0  0  0  0
   26.4480   28.2220   50.1430 C   0  0  0  0  0  3  0  0  0  0  0  0
   26.7210   27.7770   51.4190 C   0  0  0  0  0  3  0  0  0  0  0  0
   27.9340   27.1480   51.6640 C   0  0  0  0  0  3  0  0  0  0  0  0
   28.8300   26.9900   50.6130 C   0  0  0  0  0  3  0  0  0  0  0  0
   28.5910   27.4210   49.3270 C   0  0  0  0  0  0  0  0  0  0  0  0
  1  2  2  0  0  0  0
  1  6  1  0  0  0  0
  2  3  1  0  0  0  0
  3  7  1  0  0  0  0
  3  4  2  0  0  0  0
  5  4  1  0  0  0  0
  5 19  1  0  0  0  0
  6  5  2  0  0  0  0
  7  9  1  0  0  0  0
  8  7  2  0  0  0  0
  9 17  1  0  0  0  0
 10  9  2  0  0  0  0
 10 11  1  0  0  0  0
 11 12  1  0  0  0  0
 12 13  1  0  0  0  0
 13 14  2  0  0  0  0
 15 14  1  0  0  0  0
 16 15  2  0  0  0  0
 17 12  2  0  0  0  0
 17 16  1  0  0  0  0
 18 11  1  0  0  0  0
 20 19  1  0  0  0  0
 20 29  1  0  0  0  0
 21 20  2  0  0  0  0
 22 21  1  0  0  0  0
 22 23  2  0  0  0  0
 23 24  1  0  0  0  0
 24 29  2  0  0  0  0
 24 25  1  0  0  0  0
 25 26  2  0  0  0  0
 26 27  1  0  0  0  0
 28 27  2  0  0  0  0
 29 28  1  0  0  0  0
M  END
>  <minimizedAffinity>
-7.91391563

$$$$

 OpenBabel03272514553D

 29 33  0  0  0  0  0  0  0  0999 V2000
   32.0670   31.0840   45.3870 C   0  0  0  0  0  3  0  0  0  0  0  0
   30.8410   30.5010   45.6330 C   0  0  0  0  0  3  0  0  0  0  0  0
   30.8360   29.2520   46.2990 C   0  0  0  0  0  0  0  0  0  0  0  0
   32.0310   28.6940   46.6590 N   0  0  0  0  0  0  0  0  0  0  0  0
   33.1780   29.3030   46.3960 C   0  0  0  0  0  0  0  0  0  0  0  0
   33.2050   30.4970   45.7600 N   0  0  0  0  0  0  0  0  0  0  0  0
   29.5860   28.5740   46.5950 C   0  0  0  0  0  0  0  0  0  0  0  0
   29.2620   27.5860   45.8760 O   0  0  0  0  0  0  0  0  0  0  0  0
   28.5850   28.8420   47.6270 C   0  0  0  0  0  0  0  0  0  0  0  0
   27.5300   29.7300   47.5590 C   0  0  0  0  0  3  0  0  0  0  0  0
   26.8720   29.6440   48.7360 N   0  0  0  0  0  0  0  0  0  0  0  0
   27.4580   28.7450   49.5470 C   0  0  0  0  0  0  0  0  0  0  0  0
   27.1660   28.3030   50.8390 C   0  0  0  0  0  3  0  0  0  0  0  0
   27.9460   27.3470   51.4600 C   0  0  0  0  0  3  0  0  0  0  0  0
   29.0180   26.8510   50.7520 C   0  0  0  0  0  3  0  0  0  0  0  0
   29.3390   27.2590   49.4800 C   0  0  0  0  0  3  0  0  0  0  0  0
   28.5550   28.2180   48.8630 C   0  0  0  0  0  0  0  0  0  0  0  0
   26.0350   30.1930   48.9790 H   0  0  0  0  0  0  0  0  0  0  0  0
   34.5130   28.7270   46.7700 C   0  0  0  0  0  2  0  0  0  0  0  0
   34.9820   29.1670   48.0730 C   0  0  0  0  0  0  0  0  0  0  0  0
   34.3830   28.6950   49.2400 C   0  0  0  0  0  3  0  0  0  0  0  0
   34.8220   29.0880   50.4740 C   0  0  0  0  0  3  0  0  0  0  0  0
   35.8910   29.9790   50.6030 C   0  0  0  0  0  3  0  0  0  0  0  0
   36.4920   30.4510   49.4440 C   0  0  0  0  0  0  0  0  0  0  0  0
   37.5510   31.3330   49.5570 C   0  0  0  0  0  3  0  0  0  0  0  0
   38.1800   31.8300   48.4360 C   0  0  0  0  0  3  0  0  0  0  0  0
   37.7330   31.4310   47.1840 C   0  0  0  0  0  3  0  0  0  0  0  0
   36.6660   30.5430   47.1070 C   0  0  0  0  0  3  0  0  0  0  0  0
   36.0140   30.0260   48.2030 C   0  0  0  0  0  0  0  0  0  0  0  0
  1  2  2  0  0  0  0
  1  6  1  0  0  0  0
  2  3  1  0  0  0  0
  3  7  1  0  0  0  0
  3  4  2  0  0  0  0
  5  4  1  0  0  0  0
  5 19  1  0  0  0  0
  6  5  2  0  0  0  0
  7  9  1  0  0  0  0
  8  7  2  0  0  0  0
  9 17  1  0  0  0  0
 10  9  2  0  0  0  0
 10 11  1  0  0  0  0
 11 18  1  0  0  0  0
 11 12  1  0  0  0  0
 12 13  1  0  0  0  0
 13 14  2  0  0  0  0
 15 14  1  0  0  0  0
 16 15  2  0  0  0  0
 17 16  1  0  0  0  0
 17 12  2  0  0  0  0
 19 20  1  0  0  0  0
 20 29  2  0  0  0  0
 20 21  1  0  0  0  0
 21 22  2  0  0  0  0
 22 23  1  0  0  0  0
 24 25  1  0  0  0  0
 24 23  2  0  0  0  0
 26 25  2  0  0  0  0
 27 26  1  0  0  0  0
 28 27  2  0  0  0  0
 28 29  1  0  0  0  0
 29 24  1  0  0  0  0
M  END
>  <minimizedAffinity>
-7.8504734

$$$$

 OpenBabel03272514553D

 29 33  0  0  0  0  0  0  0  0999 V2000
   32.9960   25.6790   47.2050 C   0  0  0  0  0  3  0  0  0  0  0  0
   33.8160   26.7470   47.5050 C   0  0  0  0  0  3  0  0  0  0  0  0
   33.2040   28.0110   47.6750 C   0  0  0  0  0  0  0  0  0  0  0  0
   31.8470   28.1100   47.5330 N   0  0  0  0  0  0  0  0  0  0  0  0
   31.1110   27.0470   47.2440 C   0  0  0  0  0  0  0  0  0  0  0  0
   31.6760   25.8300   47.0770 N   0  0  0  0  0  0  0  0  0  0  0  0
   33.9990   29.1840   47.9930 C   0  0  0  0  0  0  0  0  0  0  0  0
   33.9300   30.1780   47.2140 O   0  0  0  0  0  0  0  0  0  0  0  0
   34.9110   29.4360   49.1100 C   0  0  0  0  0  0  0  0  0  0  0  0
   34.7820   28.9910   50.4100 C   0  0  0  0  0  3  0  0  0  0  0  0
   35.8520   29.4620   51.0900 N   0  0  0  0  0  0  0  0  0  0  0  0
   36.6520   30.1830   50.2830 C   0  0  0  0  0  0  0  0  0  0  0  0
   37.8500   30.8640   50.5010 C   0  0  0  0  0  3  0  0  0  0  0  0
   38.4830   31.5420   49.4780 C   0  0  0  0  0  3  0  0  0  0  0  0
   37.8810   31.5170   48.2390 C   0  0  0  0  0  3  0  0  0  0  0  0
   36.7030   30.8600   47.9830 C   0  0  0  0  0  3  0  0  0  0  0  0
   36.0730   30.1820   49.0130 C   0  0  0  0  0  0  0  0  0  0  0  0
   36.0300   29.2920   52.0890 H   0  0  0  0  0  0  0  0  0  0  0  0
   29.6210   27.1080   47.0750 C   0  0  0  0  0  2  0  0  0  0  0  0
   28.9380   27.6860   48.2210 C   0  0  0  0  0  0  0  0  0  0  0  0
   29.0930   27.1370   49.4920 C   0  0  0  0  0  3  0  0  0  0  0  0
   28.4690   27.6770   50.5820 C   0  0  0  0  0  3  0  0  0  0  0  0
   27.6520   28.8040   50.4530 C   0  0  0  0  0  3  0  0  0  0  0  0
   27.4940   29.3560   49.1900 C   0  0  0  0  0  0  0  0  0  0  0  0
   26.6890   30.4710   49.0480 C   0  0  0  0  0  3  0  0  0  0  0  0
   26.5010   31.0540   47.8130 C   0  0  0  0  0  3  0  0  0  0  0  0
   27.1350   30.5040   46.7080 C   0  0  0  0  0  3  0  0  0  0  0  0
   27.9370   29.3840   46.8860 C   0  0  0  0  0  3  0  0  0  0  0  0
   28.1490   28.7740   48.1020 C   0  0  0  0  0  0  0  0  0  0  0  0
  1  2  1  0  0  0  0
  2  3  2  0  0  0  0
  3  7  1  0  0  0  0
  4  3  1  0  0  0  0
  5  4  2  0  0  0  0
  6  1  2  0  0  0  0
  6  5  1  0  0  0  0
  7  9  1  0  0  0  0
  8  7  2  0  0  0  0
  9 10  2  0  0  0  0
 10 11  1  0  0  0  0
 11 18  1  0  0  0  0
 12 13  1  0  0  0  0
 12 11  1  0  0  0  0
 14 13  2  0  0  0  0
 15 14  1  0  0  0  0
 16 15  2  0  0  0  0
 16 17  1  0  0  0  0
 17  9  1  0  0  0  0
 17 12  2  0  0  0  0
 19  5  1  0  0  0  0
 19 20  1  0  0  0  0
 20 21  1  0  0  0  0
 21 22  2  0  0  0  0
 23 22  1  0  0  0  0
 24 23  2  0  0  0  0
 25 24  1  0  0  0  0
 26 25  2  0  0  0  0
 27 28  2  0  0  0  0
 27 26  1  0  0  0  0
 28 29  1  0  0  0  0
 29 20  2  0  0  0  0
 29 24  1  0  0  0  0
M  END
>  <minimizedAffinity>
-7.69364786

$$$$

 OpenBabel03272514553D

 29 33  0  0  0  0  0  0  0  0999 V2000
   32.0670   30.8000   45.7010 C   0  0  0  0  0  3  0  0  0  0  0  0
   33.1700   30.3080   46.3680 C   0  0  0  0  0  3  0  0  0  0  0  0
   33.0150   29.0920   47.0740 C   0  0  0  0  0  0  0  0  0  0  0  0
   31.7960   28.4740   47.0620 N   0  0  0  0  0  0  0  0  0  0  0  0
   30.7710   28.9950   46.4030 C   0  0  0  0  0  0  0  0  0  0  0  0
   30.8970   30.1570   45.7220 N   0  0  0  0  0  0  0  0  0  0  0  0
   34.1300   28.5090   47.8010 C   0  0  0  0  0  0  0  0  0  0  0  0
   34.4920   27.3380   47.4930 O   0  0  0  0  0  0  0  0  0  0  0  0
   34.9520   29.0620   48.8780 C   0  0  0  0  0  0  0  0  0  0  0  0
   34.7850   28.8770   50.2360 C   0  0  0  0  0  3  0  0  0  0  0  0
   35.7700   29.5710   50.8470 N   0  0  0  0  0  0  0  0  0  0  0  0
   36.5530   30.1880   49.9430 C   0  0  0  0  0  0  0  0  0  0  0  0
   37.6770   31.0070   50.0650 C   0  0  0  0  0  3  0  0  0  0  0  0
   38.3100   31.5220   48.9520 C   0  0  0  0  0  3  0  0  0  0  0  0
   37.7860   31.1940   47.7200 C   0  0  0  0  0  3  0  0  0  0  0  0
   36.6830   30.3920   47.5570 C   0  0  0  0  0  3  0  0  0  0  0  0
   36.0520   29.8780   48.6770 C   0  0  0  0  0  0  0  0  0  0  0  0
   35.9040   29.6220   51.8670 H   0  0  0  0  0  0  0  0  0  0  0  0
   29.4140   28.3550   46.3650 C   0  0  0  0  0  2  0  0  0  0  0  0
   28.4830   28.9300   47.3220 C   0  0  0  0  0  0  0  0  0  0  0  0
   27.6630   29.9970   46.9620 C   0  0  0  0  0  3  0  0  0  0  0  0
   26.7720   30.5390   47.8460 C   0  0  0  0  0  3  0  0  0  0  0  0
   26.6560   30.0350   49.1450 C   0  0  0  0  0  3  0  0  0  0  0  0
   27.4700   28.9710   49.5090 C   0  0  0  0  0  0  0  0  0  0  0  0
   27.3660   28.4640   50.7910 C   0  0  0  0  0  3  0  0  0  0  0  0
   28.1540   27.4080   51.1990 C   0  0  0  0  0  3  0  0  0  0  0  0
   29.0580   26.8590   50.3000 C   0  0  0  0  0  3  0  0  0  0  0  0
   29.1360   27.3940   49.0200 C   0  0  0  0  0  3  0  0  0  0  0  0
   28.3670   28.4460   48.5770 C   0  0  0  0  0  0  0  0  0  0  0  0
  1  6  2  0  0  0  0
  1  2  1  0  0  0  0
  2  3  2  0  0  0  0
  3  7  1  0  0  0  0
  4  3  1  0  0  0  0
  5  4  2  0  0  0  0
  6  5  1  0  0  0  0
  7  9  1  0  0  0  0
  8  7  2  0  0  0  0
  9 10  2  0  0  0  0
 10 11  1  0  0  0  0
 11 18  1  0  0  0  0
 12 13  1  0  0  0  0
 12 11  1  0  0  0  0
 14 13  2  0  0  0  0
 15 14  1  0  0  0  0
 16 15  2  0  0  0  0
 16 17  1  0  0  0  0
 17  9  1  0  0  0  0
 17 12  2  0  0  0  0
 19  5  1  0  0  0  0
 19 20  1  0  0  0  0
 20 29  1  0  0  0  0
 21 20  2  0  0  0  0
 21 22  1  0  0  0  0
 22 23  2  0  0  0  0
 23 24  1  0  0  0  0
 24 25  1  0  0  0  0
 25 26  2  0  0  0  0
 27 26  1  0  0  0  0
 28 27  2  0  0  0  0
 29 28  1  0  0  0  0
 29 24  2  0  0  0  0
M  END
>  <minimizedAffinity>
-7.6680789

$$$$
