
 OpenBabel03272514313D

 31 35  0  0  0  0  0  0  0  0999 V2000
   33.0190   25.9390   47.5030 C   0  0  0  0  0  3  0  0  0  0  0  0
   31.6550   26.1660   47.6920 C   0  0  0  0  0  3  0  0  0  0  0  0
   31.3290   27.4910   47.9340 C   0  0  0  0  0  0  0  0  0  0  0  0
   32.3020   28.3970   47.9640 N   0  0  0  0  0  0  0  0  0  0  0  0
   33.5870   28.1910   47.7880 C   0  0  0  0  0  0  0  0  0  0  0  0
   33.9020   26.9300   47.5560 N   0  0  0  0  0  0  0  0  0  0  0  0
   34.7330   29.0790   47.7950 C   0  0  0  0  0  0  0  0  0  0  0  0
   35.2050   29.6760   46.6480 C   0  0  0  0  0  3  0  0  0  0  0  0
   36.2880   30.5250   46.5910 C   0  0  0  0  0  3  0  0  0  0  0  0
   36.9720   30.8190   47.7470 C   0  0  0  0  0  3  0  0  0  0  0  0
   36.5520   30.2610   48.9030 C   0  0  0  0  0  0  0  0  0  0  0  0
   37.2480   30.5650   50.0670 C   0  0  0  0  0  3  0  0  0  0  0  0
   36.8990   30.0480   51.2830 C   0  0  0  0  0  3  0  0  0  0  0  0
   35.7940   29.1870   51.3010 C   0  0  0  0  0  3  0  0  0  0  0  0
   35.1320   28.9110   50.1360 C   0  0  0  0  0  3  0  0  0  0  0  0
   35.4670   29.4170   48.9270 C   0  0  0  0  0  0  0  0  0  0  0  0
   29.9930   27.8950   48.1490 N   0  0  0  0  0  0  0  0  0  0  0  0
   29.0550   27.2270   48.8520 C   0  0  0  0  0  3  0  0  0  0  0  0
   27.9100   27.8860   48.8530 N   0  0  0  0  0  0  0  0  0  0  0  0
   28.0990   29.0080   48.1370 C   0  0  0  0  0  0  0  0  0  0  0  0
   29.3830   28.9880   47.7180 N   0  0  0  0  0  0  0  0  0  0  0  0
   25.8410   32.4610   47.2050 C   0  0  0  0  0  0  0  0  0  0  0  0
   25.9110   31.9670   48.5040 C   0  0  0  0  0  3  0  0  0  0  0  0
   26.6700   30.8350   48.7190 C   0  0  0  0  0  3  0  0  0  0  0  0
   27.3490   30.1930   47.7010 C   0  0  0  0  0  0  0  0  0  0  0  0
   27.2830   30.6840   46.3940 C   0  0  0  0  0  3  0  0  0  0  0  0
   26.5200   31.8160   46.1930 C   0  0  0  0  0  3  0  0  0  0  0  0
   24.9190   33.8770   46.8030 S   0  0  0  0  0  0  0  0  0  0  0  0
   24.9190   34.0870   45.3210 O   0  0  0  0  0  0  0  0  0  0  0  0
   25.5920   35.0580   47.4820 O   0  0  0  0  0  0  0  0  0  0  0  0
   23.6210   33.7410   47.2180 H   0  0  0  0  0  0  0  0  0  0  0  0
  1  6  2  0  0  0  0
  1  2  1  0  0  0  0
  2  3  2  0  0  0  0
  3  4  1  0  0  0  0
  3 17  1  0  0  0  0
  5  7  1  0  0  0  0
  5  4  2  0  0  0  0
  6  5  1  0  0  0  0
  7 16  1  0  0  0  0
  8  7  2  0  0  0  0
  9  8  1  0  0  0  0
  9 10  2  0  0  0  0
 10 11  1  0  0  0  0
 11 16  2  0  0  0  0
 11 12  1  0  0  0  0
 12 13  2  0  0  0  0
 13 14  1  0  0  0  0
 15 14  2  0  0  0  0
 16 15  1  0  0  0  0
 17 18  1  0  0  0  0
 18 19  2  0  0  0  0
 20 19  1  0  0  0  0
 21 20  2  0  0  0  0
 21 17  1  0  0  0  0
 22 23  1  0  0  0  0
 23 24  2  0  0  0  0
 25 20  1  0  0  0  0
 25 24  1  0  0  0  0
 26 25  2  0  0  0  0
 27 26  1  0  0  0  0
 27 22  2  0  0  0  0
 28 22  1  0  0  0  0
 28 31  1  0  0  0  0
 28 30  2  0  0  0  0
 29 28  2  0  0  0  0
M  END
>  <minimizedAffinity>
-8.47284126

$$$$

 OpenBabel03272514313D

 31 35  0  0  0  0  0  0  0  0999 V2000
   33.1890   26.1150   47.5210 C   0  0  0  0  0  3  0  0  0  0  0  0
   31.8120   26.3340   47.5630 C   0  0  0  0  0  3  0  0  0  0  0  0
   31.4420   27.4900   48.2330 C   0  0  0  0  0  0  0  0  0  0  0  0
   32.3900   28.2610   48.7560 N   0  0  0  0  0  0  0  0  0  0  0  0
   33.6880   28.0610   48.7210 C   0  0  0  0  0  0  0  0  0  0  0  0
   34.0450   26.9620   48.0830 N   0  0  0  0  0  0  0  0  0  0  0  0
   34.8110   28.8140   49.2440 C   0  0  0  0  0  0  0  0  0  0  0  0
   35.1320   28.8170   50.5820 C   0  0  0  0  0  3  0  0  0  0  0  0
   36.1840   29.5110   51.1380 C   0  0  0  0  0  3  0  0  0  0  0  0
   36.9940   30.2680   50.3230 C   0  0  0  0  0  3  0  0  0  0  0  0
   36.7250   30.3010   49.0000 C   0  0  0  0  0  0  0  0  0  0  0  0
   37.5490   31.0680   48.1850 C   0  0  0  0  0  3  0  0  0  0  0  0
   37.3550   31.1640   46.8350 C   0  0  0  0  0  3  0  0  0  0  0  0
   36.2750   30.4450   46.3070 C   0  0  0  0  0  3  0  0  0  0  0  0
   35.4850   29.7010   47.1400 C   0  0  0  0  0  3  0  0  0  0  0  0
   35.6670   29.5970   48.4760 C   0  0  0  0  0  0  0  0  0  0  0  0
   30.0860   27.8620   48.3700 N   0  0  0  0  0  0  0  0  0  0  0  0
   29.1230   27.1670   49.0100 C   0  0  0  0  0  3  0  0  0  0  0  0
   27.9660   27.8010   48.9470 N   0  0  0  0  0  0  0  0  0  0  0  0
   28.1710   28.9330   48.2520 C   0  0  0  0  0  0  0  0  0  0  0  0
   29.4780   28.9450   47.9110 N   0  0  0  0  0  0  0  0  0  0  0  0
   25.9140   32.3560   47.2170 C   0  0  0  0  0  0  0  0  0  0  0  0
   25.9810   31.8990   48.5290 C   0  0  0  0  0  3  0  0  0  0  0  0
   26.7400   30.7740   48.7790 C   0  0  0  0  0  3  0  0  0  0  0  0
   27.4220   30.1040   47.7800 C   0  0  0  0  0  0  0  0  0  0  0  0
   27.3590   30.5580   46.4600 C   0  0  0  0  0  3  0  0  0  0  0  0
   26.5960   31.6830   46.2250 C   0  0  0  0  0  3  0  0  0  0  0  0
   24.9920   33.7600   46.7720 S   0  0  0  0  0  0  0  0  0  0  0  0
   25.0740   33.9820   45.2940 O   0  0  0  0  0  0  0  0  0  0  0  0
   25.6040   34.9460   47.4970 O   0  0  0  0  0  0  0  0  0  0  0  0
   23.6750   33.5980   47.1100 H   0  0  0  0  0  0  0  0  0  0  0  0
  1  2  2  0  0  0  0
  1  6  1  0  0  0  0
  2  3  1  0  0  0  0
  3 17  1  0  0  0  0
  3  4  2  0  0  0  0
  5  4  1  0  0  0  0
  5  7  1  0  0  0  0
  6  5  2  0  0  0  0
  7  8  1  0  0  0  0
  8  9  2  0  0  0  0
 10  9  1  0  0  0  0
 11 10  2  0  0  0  0
 12 11  1  0  0  0  0
 13 12  2  0  0  0  0
 14 13  1  0  0  0  0
 14 15  2  0  0  0  0
 15 16  1  0  0  0  0
 16 11  1  0  0  0  0
 16  7  2  0  0  0  0
 17 18  1  0  0  0  0
 19 18  2  0  0  0  0
 20 19  1  0  0  0  0
 21 20  2  0  0  0  0
 21 17  1  0  0  0  0
 22 23  1  0  0  0  0
 23 24  2  0  0  0  0
 25 20  1  0  0  0  0
 25 24  1  0  0  0  0
 26 25  2  0  0  0  0
 27 26  1  0  0  0  0
 27 22  2  0  0  0  0
 28 31  1  0  0  0  0
 28 22  1  0  0  0  0
 28 30  2  0  0  0  0
 29 28  2  0  0  0  0
M  END
>  <minimizedAffinity>
-8.41281414

$$$$

 OpenBabel03272514313D

 31 35  0  0  0  0  0  0  0  0999 V2000
   36.2950   30.1100   44.1650 C   0  0  0  0  0  3  0  0  0  0  0  0
   35.0040   29.5820   44.1370 C   0  0  0  0  0  3  0  0  0  0  0  0
   34.3840   29.5380   45.3750 C   0  0  0  0  0  0  0  0  0  0  0  0
   35.0420   29.9840   46.4400 N   0  0  0  0  0  0  0  0  0  0  0  0
   36.2570   30.4820   46.4740 C   0  0  0  0  0  0  0  0  0  0  0  0
   36.8520   30.5270   45.2970 N   0  0  0  0  0  0  0  0  0  0  0  0
   37.0770   30.9970   47.5530 C   0  0  0  0  0  0  0  0  0  0  0  0
   37.9870   32.0120   47.3620 C   0  0  0  0  0  3  0  0  0  0  0  0
   38.7940   32.5410   48.3450 C   0  0  0  0  0  3  0  0  0  0  0  0
   38.7100   32.0410   49.6230 C   0  0  0  0  0  3  0  0  0  0  0  0
   37.8340   31.0440   49.8690 C   0  0  0  0  0  0  0  0  0  0  0  0
   37.7550   30.5460   51.1630 C   0  0  0  0  0  3  0  0  0  0  0  0
   36.8990   29.5370   51.5070 C   0  0  0  0  0  3  0  0  0  0  0  0
   36.0960   29.0230   50.4810 C   0  0  0  0  0  3  0  0  0  0  0  0
   36.2000   29.5380   49.2180 C   0  0  0  0  0  3  0  0  0  0  0  0
   37.0420   30.5360   48.8650 C   0  0  0  0  0  0  0  0  0  0  0  0
   33.0740   29.0310   45.5270 N   0  0  0  0  0  0  0  0  0  0  0  0
   32.2870   28.5350   44.5510 C   0  0  0  0  0  3  0  0  0  0  0  0
   31.1210   28.1480   45.0370 N   0  0  0  0  0  0  0  0  0  0  0  0
   31.1420   28.3950   46.3580 C   0  0  0  0  0  0  0  0  0  0  0  0
   32.3490   28.9360   46.6310 N   0  0  0  0  0  0  0  0  0  0  0  0
   28.4230   28.2030   49.5920 C   0  0  0  0  0  0  0  0  0  0  0  0
   28.1670   28.9890   48.4730 C   0  0  0  0  0  3  0  0  0  0  0  0
   29.1080   28.9940   47.4630 C   0  0  0  0  0  3  0  0  0  0  0  0
   30.2730   28.2540   47.5340 C   0  0  0  0  0  0  0  0  0  0  0  0
   30.5370   27.4630   48.6560 C   0  0  0  0  0  3  0  0  0  0  0  0
   29.5870   27.4680   49.6570 C   0  0  0  0  0  3  0  0  0  0  0  0
   27.3190   28.1120   50.9300 S   0  0  0  0  0  0  0  0  0  0  0  0
   27.4360   26.7800   51.6030 O   0  0  0  0  0  0  0  0  0  0  0  0
   25.9170   28.2730   50.3660 O   0  0  0  0  0  0  0  0  0  0  0  0
   27.5970   29.0860   51.8520 H   0  0  0  0  0  0  0  0  0  0  0  0
  1  6  1  0  0  0  0
  2  1  2  0  0  0  0
  2  3  1  0  0  0  0
  3 17  1  0  0  0  0
  3  4  2  0  0  0  0
  4  5  1  0  0  0  0
  5  7  1  0  0  0  0
  6  5  2  0  0  0  0
  7 16  1  0  0  0  0
  8  7  2  0  0  0  0
  8  9  1  0  0  0  0
  9 10  2  0  0  0  0
 10 11  1  0  0  0  0
 11 12  1  0  0  0  0
 12 13  2  0  0  0  0
 14 13  1  0  0  0  0
 15 14  2  0  0  0  0
 16 15  1  0  0  0  0
 16 11  2  0  0  0  0
 17 21  1  0  0  0  0
 18 19  2  0  0  0  0
 18 17  1  0  0  0  0
 19 20  1  0  0  0  0
 20 21  2  0  0  0  0
 20 25  1  0  0  0  0
 22 27  1  0  0  0  0
 22 28  1  0  0  0  0
 23 22  2  0  0  0  0
 24 25  2  0  0  0  0
 24 23  1  0  0  0  0
 25 26  1  0  0  0  0
 26 27  2  0  0  0  0
 28 29  2  0  0  0  0
 28 31  1  0  0  0  0
 30 28  2  0  0  0  0
M  END
>  <minimizedAffinity>
-8.29487133

$$$$

 OpenBabel03272514313D

 31 35  0  0  0  0  0  0  0  0999 V2000
   34.7770   28.9710   44.4630 C   0  0  0  0  0  3  0  0  0  0  0  0
   33.6480   28.3260   44.9700 C   0  0  0  0  0  3  0  0  0  0  0  0
   33.5060   28.4300   46.3440 C   0  0  0  0  0  0  0  0  0  0  0  0
   34.4170   29.1060   47.0360 N   0  0  0  0  0  0  0  0  0  0  0  0
   35.4820   29.7150   46.5670 C   0  0  0  0  0  0  0  0  0  0  0  0
   35.6220   29.6200   45.2570 N   0  0  0  0  0  0  0  0  0  0  0  0
   36.5380   30.4770   47.2040 C   0  0  0  0  0  0  0  0  0  0  0  0
   37.3300   31.3590   46.5050 C   0  0  0  0  0  3  0  0  0  0  0  0
   38.3470   32.1080   47.0530 C   0  0  0  0  0  3  0  0  0  0  0  0
   38.6190   31.9900   48.3960 C   0  0  0  0  0  3  0  0  0  0  0  0
   37.8730   31.1390   49.1320 C   0  0  0  0  0  0  0  0  0  0  0  0
   38.1530   31.0260   50.4880 C   0  0  0  0  0  3  0  0  0  0  0  0
   37.4530   30.1910   51.3120 C   0  0  0  0  0  3  0  0  0  0  0  0
   36.4270   29.4440   50.7190 C   0  0  0  0  0  3  0  0  0  0  0  0
   36.1790   29.5800   49.3800 C   0  0  0  0  0  3  0  0  0  0  0  0
   36.8640   30.4040   48.5550 C   0  0  0  0  0  0  0  0  0  0  0  0
   32.4180   27.8340   47.0200 N   0  0  0  0  0  0  0  0  0  0  0  0
   32.4300   26.6570   47.6800 C   0  0  0  0  0  3  0  0  0  0  0  0
   31.2430   26.3960   48.1980 N   0  0  0  0  0  0  0  0  0  0  0  0
   30.4350   27.4200   47.8720 C   0  0  0  0  0  0  0  0  0  0  0  0
   31.1800   28.2860   47.1510 N   0  0  0  0  0  0  0  0  0  0  0  0
   26.5320   28.8190   48.7080 C   0  0  0  0  0  0  0  0  0  0  0  0
   27.6080   29.1250   49.5350 C   0  0  0  0  0  3  0  0  0  0  0  0
   28.8470   28.6280   49.1890 C   0  0  0  0  0  3  0  0  0  0  0  0
   29.0440   27.8490   48.0640 C   0  0  0  0  0  0  0  0  0  0  0  0
   27.9680   27.5360   47.2280 C   0  0  0  0  0  3  0  0  0  0  0  0
   26.7350   28.0410   47.5870 C   0  0  0  0  0  3  0  0  0  0  0  0
   24.9220   29.3840   49.0350 S   0  0  0  0  0  0  0  0  0  0  0  0
   24.8900   30.8800   49.0190 O   0  0  0  0  0  0  0  0  0  0  0  0
   24.5430   28.8820   50.4180 O   0  0  0  0  0  0  0  0  0  0  0  0
   24.0490   28.9240   48.0850 H   0  0  0  0  0  0  0  0  0  0  0  0
  1  2  2  0  0  0  0
  1  6  1  0  0  0  0
  2  3  1  0  0  0  0
  3 17  1  0  0  0  0
  3  4  2  0  0  0  0
  5  4  1  0  0  0  0
  5  7  1  0  0  0  0
  6  5  2  0  0  0  0
  7 16  1  0  0  0  0
  8  9  1  0  0  0  0
  8  7  2  0  0  0  0
  9 10  2  0  0  0  0
 10 11  1  0  0  0  0
 11 12  1  0  0  0  0
 12 13  2  0  0  0  0
 14 13  1  0  0  0  0
 15 14  2  0  0  0  0
 16 11  2  0  0  0  0
 16 15  1  0  0  0  0
 17 21  1  0  0  0  0
 17 18  1  0  0  0  0
 18 19  2  0  0  0  0
 20 25  1  0  0  0  0
 20 19  1  0  0  0  0
 21 20  2  0  0  0  0
 22 28  1  0  0  0  0
 22 23  1  0  0  0  0
 24 23  2  0  0  0  0
 25 24  1  0  0  0  0
 26 27  1  0  0  0  0
 26 25  2  0  0  0  0
 27 22  2  0  0  0  0
 28 30  2  0  0  0  0
 29 28  2  0  0  0  0
 31 28  1  0  0  0  0
M  END
>  <minimizedAffinity>
-8.02528763

$$$$

 OpenBabel03272514313D

 31 35  0  0  0  0  0  0  0  0999 V2000
   28.2740   26.7370   45.2990 C   0  0  0  0  0  3  0  0  0  0  0  0
   29.6310   26.5420   45.5600 C   0  0  0  0  0  3  0  0  0  0  0  0
   30.0770   27.1520   46.7210 C   0  0  0  0  0  0  0  0  0  0  0  0
   29.2120   27.8420   47.4590 N   0  0  0  0  0  0  0  0  0  0  0  0
   27.9350   28.0290   47.2200 C   0  0  0  0  0  0  0  0  0  0  0  0
   27.5050   27.4500   46.1150 N   0  0  0  0  0  0  0  0  0  0  0  0
   26.8980   28.7490   47.9340 C   0  0  0  0  0  0  0  0  0  0  0  0
   26.1820   28.1760   48.9600 C   0  0  0  0  0  3  0  0  0  0  0  0
   25.1870   28.8060   49.6730 C   0  0  0  0  0  3  0  0  0  0  0  0
   24.8570   30.1050   49.3610 C   0  0  0  0  0  3  0  0  0  0  0  0
   25.5280   30.7170   48.3620 C   0  0  0  0  0  0  0  0  0  0  0  0
   25.1890   32.0290   48.0550 C   0  0  0  0  0  3  0  0  0  0  0  0
   25.8110   32.7300   47.0590 C   0  0  0  0  0  3  0  0  0  0  0  0
   26.8170   32.0560   46.3560 C   0  0  0  0  0  3  0  0  0  0  0  0
   27.1240   30.7640   46.6860 C   0  0  0  0  0  3  0  0  0  0  0  0
   26.5170   30.0600   47.6680 C   0  0  0  0  0  0  0  0  0  0  0  0
   31.4250   27.0560   47.1350 N   0  0  0  0  0  0  0  0  0  0  0  0
   32.1930   25.9470   47.1180 C   0  0  0  0  0  3  0  0  0  0  0  0
   33.4050   26.2080   47.5740 N   0  0  0  0  0  0  0  0  0  0  0  0
   33.4350   27.5120   47.8960 C   0  0  0  0  0  0  0  0  0  0  0  0
   32.2100   28.0080   47.6170 N   0  0  0  0  0  0  0  0  0  0  0  0
   36.1470   30.5100   49.1400 C   0  0  0  0  0  0  0  0  0  0  0  0
   35.7210   30.4170   47.8190 C   0  0  0  0  0  3  0  0  0  0  0  0
   34.8360   29.4080   47.4990 C   0  0  0  0  0  3  0  0  0  0  0  0
   34.3690   28.5070   48.4370 C   0  0  0  0  0  0  0  0  0  0  0  0
   34.7930   28.5940   49.7670 C   0  0  0  0  0  3  0  0  0  0  0  0
   35.6780   29.6080   50.0720 C   0  0  0  0  0  3  0  0  0  0  0  0
   37.2600   31.7340   49.6700 S   0  0  0  0  0  0  0  0  0  0  0  0
   37.8600   32.4290   48.4890 O   0  0  0  0  0  0  0  0  0  0  0  0
   38.3550   31.0340   50.4570 O   0  0  0  0  0  0  0  0  0  0  0  0
   36.6180   32.6680   50.4390 H   0  0  0  0  0  0  0  0  0  0  0  0
  1  2  2  0  0  0  0
  1  6  1  0  0  0  0
  2  3  1  0  0  0  0
  3 17  1  0  0  0  0
  3  4  2  0  0  0  0
  5  4  1  0  0  0  0
  5  7  1  0  0  0  0
  6  5  2  0  0  0  0
  7  8  1  0  0  0  0
  8  9  2  0  0  0  0
 10  9  1  0  0  0  0
 11 10  2  0  0  0  0
 12 11  1  0  0  0  0
 13 12  2  0  0  0  0
 14 15  2  0  0  0  0
 14 13  1  0  0  0  0
 15 16  1  0  0  0  0
 16  7  2  0  0  0  0
 16 11  1  0  0  0  0
 17 21  1  0  0  0  0
 18 17  1  0  0  0  0
 18 19  2  0  0  0  0
 19 20  1  0  0  0  0
 20 25  1  0  0  0  0
 21 20  2  0  0  0  0
 22 28  1  0  0  0  0
 22 27  1  0  0  0  0
 23 22  2  0  0  0  0
 24 23  1  0  0  0  0
 24 25  2  0  0  0  0
 25 26  1  0  0  0  0
 26 27  2  0  0  0  0
 28 31  1  0  0  0  0
 28 30  2  0  0  0  0
 29 28  2  0  0  0  0
M  END
>  <minimizedAffinity>
-7.69926596

$$$$

 OpenBabel03272514313D

 31 35  0  0  0  0  0  0  0  0999 V2000
   37.1250   30.0590   44.0200 C   0  0  0  0  0  3  0  0  0  0  0  0
   35.8250   29.6370   43.7350 C   0  0  0  0  0  3  0  0  0  0  0  0
   34.9590   29.7060   44.8150 C   0  0  0  0  0  0  0  0  0  0  0  0
   35.4180   30.1500   45.9810 N   0  0  0  0  0  0  0  0  0  0  0  0
   36.6390   30.5480   46.2560 C   0  0  0  0  0  0  0  0  0  0  0  0
   37.4680   30.4850   45.2300 N   0  0  0  0  0  0  0  0  0  0  0  0
   37.2590   31.0480   47.4670 C   0  0  0  0  0  0  0  0  0  0  0  0
   38.1710   32.0790   47.4530 C   0  0  0  0  0  3  0  0  0  0  0  0
   38.7930   32.5940   48.5670 C   0  0  0  0  0  3  0  0  0  0  0  0
   38.5060   32.0630   49.8030 C   0  0  0  0  0  3  0  0  0  0  0  0
   37.6180   31.0490   49.8770 C   0  0  0  0  0  0  0  0  0  0  0  0
   37.3330   30.5190   51.1290 C   0  0  0  0  0  3  0  0  0  0  0  0
   36.4490   29.4910   51.3030 C   0  0  0  0  0  3  0  0  0  0  0  0
   35.8370   28.9910   50.1470 C   0  0  0  0  0  3  0  0  0  0  0  0
   36.1410   29.5380   48.9300 C   0  0  0  0  0  3  0  0  0  0  0  0
   37.0130   30.5550   48.7450 C   0  0  0  0  0  0  0  0  0  0  0  0
   33.6060   29.3150   44.7010 N   0  0  0  0  0  0  0  0  0  0  0  0
   33.0250   28.7350   43.6310 C   0  0  0  0  0  3  0  0  0  0  0  0
   31.7450   28.5020   43.8600 N   0  0  0  0  0  0  0  0  0  0  0  0
   31.4790   28.9390   45.1030 C   0  0  0  0  0  0  0  0  0  0  0  0
   32.6360   29.4320   45.5950 N   0  0  0  0  0  0  0  0  0  0  0  0
   28.3930   28.9880   47.9950 C   0  0  0  0  0  0  0  0  0  0  0  0
   29.5480   28.2330   48.1760 C   0  0  0  0  0  3  0  0  0  0  0  0
   30.5040   28.2740   47.1820 C   0  0  0  0  0  3  0  0  0  0  0  0
   30.3490   29.0310   46.0350 C   0  0  0  0  0  0  0  0  0  0  0  0
   29.1920   29.7920   45.8470 C   0  0  0  0  0  3  0  0  0  0  0  0
   28.2440   29.7410   46.8490 C   0  0  0  0  0  3  0  0  0  0  0  0
   27.1160   29.0210   49.1710 S   0  0  0  0  0  0  0  0  0  0  0  0
   26.1530   27.9040   48.9160 O   0  0  0  0  0  0  0  0  0  0  0  0
   26.4000   30.3530   49.0190 O   0  0  0  0  0  0  0  0  0  0  0  0
   27.6210   28.8730   50.4360 H   0  0  0  0  0  0  0  0  0  0  0  0
  1  6  1  0  0  0  0
  2  1  2  0  0  0  0
  2  3  1  0  0  0  0
  3  4  2  0  0  0  0
  4  5  1  0  0  0  0
  5  7  1  0  0  0  0
  6  5  2  0  0  0  0
  7 16  1  0  0  0  0
  8  7  2  0  0  0  0
  8  9  1  0  0  0  0
  9 10  2  0  0  0  0
 10 11  1  0  0  0  0
 11 12  1  0  0  0  0
 12 13  2  0  0  0  0
 14 13  1  0  0  0  0
 15 14  2  0  0  0  0
 16 15  1  0  0  0  0
 16 11  2  0  0  0  0
 17  3  1  0  0  0  0
 17 21  1  0  0  0  0
 18 19  2  0  0  0  0
 18 17  1  0  0  0  0
 19 20  1  0  0  0  0
 20 21  2  0  0  0  0
 20 25  1  0  0  0  0
 22 23  1  0  0  0  0
 22 28  1  0  0  0  0
 24 23  2  0  0  0  0
 25 24  1  0  0  0  0
 26 25  2  0  0  0  0
 26 27  1  0  0  0  0
 27 22  2  0  0  0  0
 28 31  1  0  0  0  0
 29 28  2  0  0  0  0
 30 28  2  0  0  0  0
M  END
>  <minimizedAffinity>
-7.57851934

$$$$

 OpenBabel03272514313D

 31 35  0  0  0  0  0  0  0  0999 V2000
   26.8160   27.2120   48.3120 C   0  0  0  0  0  3  0  0  0  0  0  0
   28.1280   26.7390   48.3340 C   0  0  0  0  0  3  0  0  0  0  0  0
   29.0720   27.6650   47.9220 C   0  0  0  0  0  0  0  0  0  0  0  0
   28.6660   28.8770   47.5560 N   0  0  0  0  0  0  0  0  0  0  0  0
   27.4330   29.3310   47.5330 C   0  0  0  0  0  0  0  0  0  0  0  0
   26.5300   28.4510   47.9250 N   0  0  0  0  0  0  0  0  0  0  0  0
   26.8650   30.6120   47.1620 C   0  0  0  0  0  0  0  0  0  0  0  0
   26.3870   31.5010   48.0970 C   0  0  0  0  0  3  0  0  0  0  0  0
   25.8360   32.7280   47.8070 C   0  0  0  0  0  3  0  0  0  0  0  0
   25.7410   33.1280   46.4940 C   0  0  0  0  0  3  0  0  0  0  0  0
   26.1950   32.2950   45.5330 C   0  0  0  0  0  0  0  0  0  0  0  0
   26.0950   32.7080   44.2100 C   0  0  0  0  0  3  0  0  0  0  0  0
   26.5270   31.9330   43.1700 C   0  0  0  0  0  3  0  0  0  0  0  0
   27.0800   30.6910   43.5040 C   0  0  0  0  0  3  0  0  0  0  0  0
   27.1620   30.3180   44.8170 C   0  0  0  0  0  3  0  0  0  0  0  0
   26.7400   31.0750   45.8560 C   0  0  0  0  0  0  0  0  0  0  0  0
   30.4490   27.3500   47.8830 N   0  0  0  0  0  0  0  0  0  0  0  0
   30.9890   26.1500   47.5890 C   0  0  0  0  0  3  0  0  0  0  0  0
   32.3080   26.2020   47.6440 N   0  0  0  0  0  0  0  0  0  0  0  0
   32.6410   27.4600   47.9800 C   0  0  0  0  0  0  0  0  0  0  0  0
   31.4830   28.1420   48.1200 N   0  0  0  0  0  0  0  0  0  0  0  0
   36.0390   29.9430   48.3900 C   0  0  0  0  0  0  0  0  0  0  0  0
   35.2140   30.0180   47.2730 C   0  0  0  0  0  3  0  0  0  0  0  0
   34.1270   29.1710   47.2190 C   0  0  0  0  0  3  0  0  0  0  0  0
   33.8410   28.2680   48.2270 C   0  0  0  0  0  0  0  0  0  0  0  0
   34.6660   28.1870   49.3520 C   0  0  0  0  0  3  0  0  0  0  0  0
   35.7490   29.0410   49.3910 C   0  0  0  0  0  3  0  0  0  0  0  0
   37.4390   30.9540   48.5760 S   0  0  0  0  0  0  0  0  0  0  0  0
   38.4200   30.6820   47.4790 O   0  0  0  0  0  0  0  0  0  0  0  0
   38.0680   30.6070   49.9150 O   0  0  0  0  0  0  0  0  0  0  0  0
   37.0880   32.2770   48.5220 H   0  0  0  0  0  0  0  0  0  0  0  0
  1  2  1  0  0  0  0
  3  2  2  0  0  0  0
  4  3  1  0  0  0  0
  5  4  2  0  0  0  0
  5  6  1  0  0  0  0
  6  1  2  0  0  0  0
  7  5  1  0  0  0  0
  7  8  1  0  0  0  0
  9  8  2  0  0  0  0
 10  9  1  0  0  0  0
 11 16  1  0  0  0  0
 11 10  2  0  0  0  0
 12 11  1  0  0  0  0
 13 14  1  0  0  0  0
 13 12  2  0  0  0  0
 14 15  2  0  0  0  0
 15 16  1  0  0  0  0
 16  7  2  0  0  0  0
 17  3  1  0  0  0  0
 17 21  1  0  0  0  0
 18 19  2  0  0  0  0
 18 17  1  0  0  0  0
 19 20  1  0  0  0  0
 20 21  2  0  0  0  0
 20 25  1  0  0  0  0
 22 28  1  0  0  0  0
 22 27  1  0  0  0  0
 23 22  2  0  0  0  0
 24 23  1  0  0  0  0
 24 25  2  0  0  0  0
 25 26  1  0  0  0  0
 26 27  2  0  0  0  0
 28 30  2  0  0  0  0
 29 28  2  0  0  0  0
 31 28  1  0  0  0  0
M  END
>  <minimizedAffinity>
-7.4667263

$$$$

 OpenBabel03272514313D

 31 35  0  0  0  0  0  0  0  0999 V2000
   33.1950   26.5120   46.6720 C   0  0  0  0  0  3  0  0  0  0  0  0
   31.8390   26.8410   46.6840 C   0  0  0  0  0  3  0  0  0  0  0  0
   31.5790   28.1620   47.0120 C   0  0  0  0  0  0  0  0  0  0  0  0
   32.6000   28.9720   47.2750 N   0  0  0  0  0  0  0  0  0  0  0  0
   33.8780   28.6700   47.2650 C   0  0  0  0  0  0  0  0  0  0  0  0
   34.1310   27.4130   46.9530 N   0  0  0  0  0  0  0  0  0  0  0  0
   35.0730   29.4490   47.5290 C   0  0  0  0  0  0  0  0  0  0  0  0
   35.7450   30.1190   46.5330 C   0  0  0  0  0  3  0  0  0  0  0  0
   36.8830   30.8710   46.7200 C   0  0  0  0  0  3  0  0  0  0  0  0
   37.4140   30.9820   47.9840 C   0  0  0  0  0  3  0  0  0  0  0  0
   36.7950   30.3450   49.0000 C   0  0  0  0  0  0  0  0  0  0  0  0
   37.3370   30.4630   50.2740 C   0  0  0  0  0  3  0  0  0  0  0  0
   36.7820   29.8530   51.3640 C   0  0  0  0  0  3  0  0  0  0  0  0
   35.6260   29.0960   51.1340 C   0  0  0  0  0  3  0  0  0  0  0  0
   35.1200   29.0020   49.8670 C   0  0  0  0  0  3  0  0  0  0  0  0
   35.6600   29.6000   48.7810 C   0  0  0  0  0  0  0  0  0  0  0  0
   30.2590   28.6620   47.0730 N   0  0  0  0  0  0  0  0  0  0  0  0
   29.3490   28.4120   48.0370 C   0  0  0  0  0  3  0  0  0  0  0  0
   28.2130   29.0370   47.7850 N   0  0  0  0  0  0  0  0  0  0  0  0
   28.3790   29.7100   46.6330 C   0  0  0  0  0  0  0  0  0  0  0  0
   29.6400   29.4630   46.2190 N   0  0  0  0  0  0  0  0  0  0  0  0
   26.1060   32.4360   44.3320 C   0  0  0  0  0  0  0  0  0  0  0  0
   26.2020   32.5540   45.7150 C   0  0  0  0  0  3  0  0  0  0  0  0
   26.9640   31.6220   46.3880 C   0  0  0  0  0  3  0  0  0  0  0  0
   27.6220   30.5940   45.7380 C   0  0  0  0  0  0  0  0  0  0  0  0
   27.5290   30.4690   44.3490 C   0  0  0  0  0  3  0  0  0  0  0  0
   26.7640   31.4080   43.6890 C   0  0  0  0  0  3  0  0  0  0  0  0
   25.1780   33.5450   43.3700 S   0  0  0  0  0  0  0  0  0  0  0  0
   25.9180   33.8790   42.1130 O   0  0  0  0  0  0  0  0  0  0  0  0
   24.9880   34.8050   44.1970 O   0  0  0  0  0  0  0  0  0  0  0  0
   23.9720   32.9920   43.0260 H   0  0  0  0  0  0  0  0  0  0  0  0
  1  2  2  0  0  0  0
  1  6  1  0  0  0  0
  2  3  1  0  0  0  0
  3 17  1  0  0  0  0
  3  4  2  0  0  0  0
  5  4  1  0  0  0  0
  5  7  1  0  0  0  0
  6  5  2  0  0  0  0
  7 16  1  0  0  0  0
  8  9  1  0  0  0  0
  8  7  2  0  0  0  0
  9 10  2  0  0  0  0
 10 11  1  0  0  0  0
 11 12  1  0  0  0  0
 12 13  2  0  0  0  0
 14 13  1  0  0  0  0
 15 14  2  0  0  0  0
 16 11  2  0  0  0  0
 16 15  1  0  0  0  0
 17 18  1  0  0  0  0
 19 18  2  0  0  0  0
 20 19  1  0  0  0  0
 21 20  2  0  0  0  0
 21 17  1  0  0  0  0
 22 23  1  0  0  0  0
 23 24  2  0  0  0  0
 25 24  1  0  0  0  0
 25 20  1  0  0  0  0
 26 25  2  0  0  0  0
 27 22  2  0  0  0  0
 27 26  1  0  0  0  0
 28 30  2  0  0  0  0
 28 22  1  0  0  0  0
 29 28  2  0  0  0  0
 31 28  1  0  0  0  0
M  END
>  <minimizedAffinity>
-7.42247057

$$$$

 OpenBabel03272514313D

 31 35  0  0  0  0  0  0  0  0999 V2000
   26.8300   27.6650   47.9700 C   0  0  0  0  0  3  0  0  0  0  0  0
   28.1120   27.2010   48.2700 C   0  0  0  0  0  3  0  0  0  0  0  0
   29.1230   27.8370   47.5680 C   0  0  0  0  0  0  0  0  0  0  0  0
   28.8020   28.7970   46.7050 N   0  0  0  0  0  0  0  0  0  0  0  0
   27.5990   29.2390   46.4180 C   0  0  0  0  0  0  0  0  0  0  0  0
   26.6320   28.6360   47.0850 N   0  0  0  0  0  0  0  0  0  0  0  0
   27.1200   30.2640   45.5120 C   0  0  0  0  0  0  0  0  0  0  0  0
   27.2560   30.1580   44.1470 C   0  0  0  0  0  3  0  0  0  0  0  0
   26.8230   31.0970   43.2370 C   0  0  0  0  0  3  0  0  0  0  0  0
   26.2060   32.2380   43.6930 C   0  0  0  0  0  3  0  0  0  0  0  0
   26.0450   32.3960   45.0240 C   0  0  0  0  0  0  0  0  0  0  0  0
   25.4200   33.5510   45.4760 C   0  0  0  0  0  3  0  0  0  0  0  0
   25.2130   33.7990   46.8040 C   0  0  0  0  0  3  0  0  0  0  0  0
   25.6680   32.8220   47.6990 C   0  0  0  0  0  3  0  0  0  0  0  0
   26.2800   31.6960   47.2190 C   0  0  0  0  0  3  0  0  0  0  0  0
   26.4890   31.4390   45.9070 C   0  0  0  0  0  0  0  0  0  0  0  0
   30.4800   27.4890   47.7490 N   0  0  0  0  0  0  0  0  0  0  0  0
   31.0000   26.2440   47.7170 C   0  0  0  0  0  3  0  0  0  0  0  0
   32.3040   26.2750   47.9250 N   0  0  0  0  0  0  0  0  0  0  0  0
   32.6480   27.5630   48.0980 C   0  0  0  0  0  0  0  0  0  0  0  0
   31.5120   28.2840   47.9850 N   0  0  0  0  0  0  0  0  0  0  0  0
   36.0320   30.0570   48.5590 C   0  0  0  0  0  0  0  0  0  0  0  0
   35.2070   30.1500   47.4430 C   0  0  0  0  0  3  0  0  0  0  0  0
   34.1240   29.2970   47.3720 C   0  0  0  0  0  3  0  0  0  0  0  0
   33.8430   28.3730   48.3610 C   0  0  0  0  0  0  0  0  0  0  0  0
   34.6680   28.2740   49.4850 C   0  0  0  0  0  3  0  0  0  0  0  0
   35.7470   29.1330   49.5420 C   0  0  0  0  0  3  0  0  0  0  0  0
   37.4270   31.0720   48.7660 S   0  0  0  0  0  0  0  0  0  0  0  0
   37.1530   32.1160   49.8030 O   0  0  0  0  0  0  0  0  0  0  0  0
   37.6950   31.7430   47.4300 O   0  0  0  0  0  0  0  0  0  0  0  0
   38.5050   30.3320   49.1750 H   0  0  0  0  0  0  0  0  0  0  0  0
  1  2  1  0  0  0  0
  3 17  1  0  0  0  0
  3  2  2  0  0  0  0
  4  3  1  0  0  0  0
  5  4  2  0  0  0  0
  5  6  1  0  0  0  0
  6  1  2  0  0  0  0
  7 16  1  0  0  0  0
  7  5  1  0  0  0  0
  8  7  2  0  0  0  0
  9 10  2  0  0  0  0
  9  8  1  0  0  0  0
 10 11  1  0  0  0  0
 11 12  2  0  0  0  0
 11 16  1  0  0  0  0
 12 13  1  0  0  0  0
 13 14  2  0  0  0  0
 15 14  1  0  0  0  0
 16 15  2  0  0  0  0
 17 21  1  0  0  0  0
 18 17  1  0  0  0  0
 18 19  2  0  0  0  0
 19 20  1  0  0  0  0
 20 25  1  0  0  0  0
 21 20  2  0  0  0  0
 22 28  1  0  0  0  0
 22 27  1  0  0  0  0
 23 22  2  0  0  0  0
 24 23  1  0  0  0  0
 24 25  2  0  0  0  0
 25 26  1  0  0  0  0
 26 27  2  0  0  0  0
 28 31  1  0  0  0  0
 28 29  2  0  0  0  0
 30 28  2  0  0  0  0
M  END
>  <minimizedAffinity>
-7.38751888

$$$$
