
 OpenBabel03272514393D

 37 43  0  0  1  0  0  0  0  0999 V2000
   24.8860   35.8100   46.5120 C   0  0  0  0  0  3  0  0  0  0  0  0
   24.7920   35.8500   45.0980 C   0  0  0  0  0  3  0  0  0  0  0  0
   25.0110   34.6420   44.4150 C   0  0  0  0  0  3  0  0  0  0  0  0
   25.2940   33.5240   45.1200 N   0  0  0  0  0  0  0  0  0  0  0  0
   25.3740   33.5290   46.4740 C   0  0  0  0  0  0  0  0  0  0  0  0
   25.1710   34.6650   47.1530 N   0  0  0  0  0  0  0  0  0  0  0  0
   25.6690   32.3750   47.2370 N   0  0  0  0  0  0  0  0  0  0  0  0
   24.9120   32.0350   48.3040 C   0  0  0  0  0  3  0  0  0  0  0  0
   25.4400   30.8950   48.8180 N   0  0  0  0  0  0  0  0  0  0  0  0
   26.4990   30.5080   48.1140 C   0  0  0  0  0  0  0  0  0  0  0  0
   27.4570   29.4880   48.0900 C   0  0  0  0  0  0  0  0  0  0  0  0
   27.3150   28.6300   49.0150 O   0  0  0  0  0  0  0  0  0  0  0  0
   28.4360   29.4640   47.1360 N   0  0  0  0  0  0  0  0  0  0  0  0
   28.5170   30.3890   46.2110 C   0  0  0  0  0  0  0  0  0  0  0  0
   29.6050   30.1780   45.3110 N   0  0  0  0  0  0  0  0  0  0  0  0
   27.6070   31.3960   46.1970 N   0  0  0  0  0  0  0  0  0  0  0  0
   26.6450   31.4500   47.1070 C   0  0  0  0  0  0  0  0  0  0  0  0
   29.7710   30.8410   44.5400 H   0  0  0  0  0  0  0  0  0  0  0  0
   30.2240   29.3640   45.4330 H   0  0  0  0  0  0  0  0  0  0  0  0
   29.4040   28.3730   47.1690 C   0  0  0  0  0  0  0  0  0  0  0  0
   29.1180   27.1160   46.6130 C   0  0  0  0  0  3  0  0  0  0  0  0
   30.6730   26.1610   46.9370 S   0  0  0  0  0  0  0  0  0  0  0  0
   31.4360   27.6480   47.7730 C   0  0  0  0  0  0  0  0  0  0  0  0
   30.6100   28.4210   47.6920 N   0  0  0  0  0  0  0  0  0  0  0  0
   32.8820   27.4810   48.3070 C   0  0  1  0  0  3  0  0  0  0  0  0
   33.9100   27.1400   47.3110 C   0  0  0  0  0  2  0  0  0  0  0  0
   33.7430   28.5850   47.8640 C   0  0  2  0  0  3  0  0  0  0  0  0
   34.8310   29.0110   48.7790 C   0  0  0  0  0  0  0  0  0  0  0  0
   34.9280   28.7610   50.1320 C   0  0  0  0  0  3  0  0  0  0  0  0
   36.0160   29.2310   50.8460 C   0  0  0  0  0  3  0  0  0  0  0  0
   37.0460   29.9600   50.2600 C   0  0  0  0  0  3  0  0  0  0  0  0
   36.9320   30.2020   48.8930 C   0  0  0  0  0  0  0  0  0  0  0  0
   37.9490   30.9280   48.2910 C   0  0  0  0  0  3  0  0  0  0  0  0
   37.9020   31.2050   46.9400 C   0  0  0  0  0  3  0  0  0  0  0  0
   36.8320   30.7550   46.1880 C   0  0  0  0  0  3  0  0  0  0  0  0
   35.8360   30.0350   46.8160 C   0  0  0  0  0  3  0  0  0  0  0  0
   35.8390   29.7320   48.1690 C   0  0  0  0  0  0  0  0  0  0  0  0
  1  6  1  0  0  0  0
  2  1  2  0  0  0  0
  3  2  1  0  0  0  0
  3  4  2  0  0  0  0
  4  5  1  0  0  0  0
  5  6  2  0  0  0  0
  5  7  1  0  0  0  0
  7  8  1  0  0  0  0
  8  9  2  0  0  0  0
 10  9  1  0  0  0  0
 11 10  1  0  0  0  0
 11 12  2  0  0  0  0
 13 20  1  0  0  0  0
 13 11  1  0  0  0  0
 14 13  1  0  0  0  0
 15 19  1  0  0  0  0
 15 14  1  0  0  0  0
 16 14  2  0  0  0  0
 16 17  1  0  0  0  0
 17  7  1  0  0  0  0
 17 10  2  0  0  0  0
 18 15  1  0  0  0  0
 20 24  1  0  0  0  0
 21 22  1  0  0  0  0
 21 20  2  0  0  0  0
 22 23  1  0  0  0  0
 24 23  2  0  0  0  0
 25 23  1  6  0  0  0
 26 27  1  0  0  0  0
 26 25  1  0  0  0  0
 27 25  1  0  0  0  0
 27 28  1  1  0  0  0
 28 29  1  0  0  0  0
 29 30  2  0  0  0  0
 31 30  1  0  0  0  0
 32 31  2  0  0  0  0
 33 32  1  0  0  0  0
 34 33  2  0  0  0  0
 35 36  2  0  0  0  0
 35 34  1  0  0  0  0
 36 37  1  0  0  0  0
 37 28  2  0  0  0  0
 37 32  1  0  0  0  0
M  END
>  <minimizedAffinity>
-9.72984982

$$$$

 OpenBabel03272514393D

 37 43  0  0  1  0  0  0  0  0999 V2000
   24.8410   35.5910   46.7880 C   0  0  0  0  0  3  0  0  0  0  0  0
   24.5700   35.7820   45.4090 C   0  0  0  0  0  3  0  0  0  0  0  0
   24.8460   34.7010   44.5560 C   0  0  0  0  0  3  0  0  0  0  0  0
   25.3450   33.5570   45.0740 N   0  0  0  0  0  0  0  0  0  0  0  0
   25.5900   33.4170   46.4010 C   0  0  0  0  0  0  0  0  0  0  0  0
   25.3380   34.4290   47.2400 N   0  0  0  0  0  0  0  0  0  0  0  0
   26.1120   32.2310   46.9700 N   0  0  0  0  0  0  0  0  0  0  0  0
   25.5390   31.6720   48.0590 C   0  0  0  0  0  3  0  0  0  0  0  0
   26.2580   30.5620   48.3610 N   0  0  0  0  0  0  0  0  0  0  0  0
   27.2610   30.4040   47.5030 C   0  0  0  0  0  0  0  0  0  0  0  0
   28.3240   29.5310   47.2430 C   0  0  0  0  0  0  0  0  0  0  0  0
   28.4000   28.5610   48.0590 O   0  0  0  0  0  0  0  0  0  0  0  0
   29.1730   29.7490   46.1950 N   0  0  0  0  0  0  0  0  0  0  0  0
   29.0280   30.7760   45.3950 C   0  0  0  0  0  0  0  0  0  0  0  0
   30.0150   30.8180   44.3630 N   0  0  0  0  0  0  0  0  0  0  0  0
   28.0100   31.6480   45.6100 N   0  0  0  0  0  0  0  0  0  0  0  0
   27.1680   31.4670   46.6170 C   0  0  0  0  0  0  0  0  0  0  0  0
   30.0040   31.5820   43.6710 H   0  0  0  0  0  0  0  0  0  0  0  0
   30.7370   30.0860   44.3110 H   0  0  0  0  0  0  0  0  0  0  0  0
   30.2610   28.8000   45.9810 C   0  0  0  0  0  0  0  0  0  0  0  0
   30.0170   27.4660   45.6170 C   0  0  0  0  0  3  0  0  0  0  0  0
   31.7240   26.7580   45.4840 S   0  0  0  0  0  0  0  0  0  0  0  0
   32.4670   28.4090   45.9500 C   0  0  0  0  0  0  0  0  0  0  0  0
   31.5470   29.0570   46.0910 N   0  0  0  0  0  0  0  0  0  0  0  0
   34.0150   28.4840   46.0060 C   0  0  1  0  0  3  0  0  0  0  0  0
   34.6850   29.0300   44.8160 C   0  0  0  0  0  2  0  0  0  0  0  0
   34.4750   29.8750   46.1060 C   0  0  2  0  0  3  0  0  0  0  0  0
   35.7220   30.1270   46.8720 C   0  0  0  0  0  0  0  0  0  0  0  0
   36.9300   30.5660   46.3740 C   0  0  0  0  0  3  0  0  0  0  0  0
   38.0030   30.7540   47.2280 C   0  0  0  0  0  3  0  0  0  0  0  0
   37.9280   30.5200   48.5970 C   0  0  0  0  0  3  0  0  0  0  0  0
   36.7000   30.0780   49.0820 C   0  0  0  0  0  0  0  0  0  0  0  0
   36.6040   29.8390   50.4450 C   0  0  0  0  0  3  0  0  0  0  0  0
   35.4180   29.4000   50.9950 C   0  0  0  0  0  3  0  0  0  0  0  0
   34.3210   29.1980   50.1780 C   0  0  0  0  0  3  0  0  0  0  0  0
   34.4460   29.4450   48.8260 C   0  0  0  0  0  3  0  0  0  0  0  0
   35.6160   29.8870   48.2270 C   0  0  0  0  0  0  0  0  0  0  0  0
  1  6  1  0  0  0  0
  2  1  2  0  0  0  0
  3  4  2  0  0  0  0
  3  2  1  0  0  0  0
  4  5  1  0  0  0  0
  5  7  1  0  0  0  0
  5  6  2  0  0  0  0
  7  8  1  0  0  0  0
  8  9  2  0  0  0  0
 10  9  1  0  0  0  0
 11 10  1  0  0  0  0
 11 12  2  0  0  0  0
 13 11  1  0  0  0  0
 14 16  2  0  0  0  0
 14 13  1  0  0  0  0
 15 14  1  0  0  0  0
 16 17  1  0  0  0  0
 17  7  1  0  0  0  0
 17 10  2  0  0  0  0
 18 15  1  0  0  0  0
 19 15  1  0  0  0  0
 20 24  1  0  0  0  0
 20 13  1  0  0  0  0
 21 20  2  0  0  0  0
 22 21  1  0  0  0  0
 22 23  1  0  0  0  0
 23 24  2  0  0  0  0
 25 23  1  6  0  0  0
 25 27  1  0  0  0  0
 26 25  1  0  0  0  0
 26 27  1  0  0  0  0
 27 28  1  1  0  0  0
 28 37  1  0  0  0  0
 29 28  2  0  0  0  0
 29 30  1  0  0  0  0
 30 31  2  0  0  0  0
 31 32  1  0  0  0  0
 32 33  1  0  0  0  0
 33 34  2  0  0  0  0
 35 34  1  0  0  0  0
 36 35  2  0  0  0  0
 37 36  1  0  0  0  0
 37 32  2  0  0  0  0
M  END
>  <minimizedAffinity>
-9.01226807

$$$$

 OpenBabel03272514393D

 37 43  0  0  1  0  0  0  0  0999 V2000
   25.5750   34.2670   43.1780 C   0  0  0  0  0  3  0  0  0  0  0  0
   25.2700   33.5370   42.0010 C   0  0  0  0  0  3  0  0  0  0  0  0
   25.3700   32.1390   42.0810 C   0  0  0  0  0  3  0  0  0  0  0  0
   25.7430   31.5660   43.2470 N   0  0  0  0  0  0  0  0  0  0  0  0
   26.0270   32.3020   44.3510 C   0  0  0  0  0  0  0  0  0  0  0  0
   25.9410   33.6370   44.3050 N   0  0  0  0  0  0  0  0  0  0  0  0
   26.4210   31.7290   45.5830 N   0  0  0  0  0  0  0  0  0  0  0  0
   25.8300   32.0990   46.7410 C   0  0  0  0  0  3  0  0  0  0  0  0
   26.4160   31.3820   47.7330 N   0  0  0  0  0  0  0  0  0  0  0  0
   27.3530   30.5770   47.2400 C   0  0  0  0  0  0  0  0  0  0  0  0
   28.2850   29.6250   47.6690 C   0  0  0  0  0  0  0  0  0  0  0  0
   28.2750   29.4290   48.9240 O   0  0  0  0  0  0  0  0  0  0  0  0
   29.1080   28.9940   46.7790 N   0  0  0  0  0  0  0  0  0  0  0  0
   29.0590   29.2510   45.4960 C   0  0  0  0  0  0  0  0  0  0  0  0
   29.9960   28.4840   44.7400 N   0  0  0  0  0  0  0  0  0  0  0  0
   28.1680   30.1670   45.0350 N   0  0  0  0  0  0  0  0  0  0  0  0
   27.3560   30.7980   45.8710 C   0  0  0  0  0  0  0  0  0  0  0  0
   30.0510   28.5990   43.7180 H   0  0  0  0  0  0  0  0  0  0  0  0
   30.6170   27.8150   45.2180 H   0  0  0  0  0  0  0  0  0  0  0  0
   30.0580   28.0130   47.2950 C   0  0  0  0  0  0  0  0  0  0  0  0
   29.6970   26.6720   47.4980 C   0  0  0  0  0  3  0  0  0  0  0  0
   31.2630   25.9180   48.1420 S   0  0  0  0  0  0  0  0  0  0  0  0
   32.1300   27.5690   48.0200 C   0  0  0  0  0  0  0  0  0  0  0  0
   31.3120   28.2430   47.6170 N   0  0  0  0  0  0  0  0  0  0  0  0
   33.6230   27.6040   48.4420 C   0  0  1  0  0  3  0  0  0  0  0  0
   34.6060   27.7380   47.3570 C   0  0  0  0  0  2  0  0  0  0  0  0
   34.1970   28.9420   48.2540 C   0  0  2  0  0  3  0  0  0  0  0  0
   35.2530   29.3710   49.2050 C   0  0  0  0  0  0  0  0  0  0  0  0
   35.3220   29.0920   50.5540 C   0  0  0  0  0  3  0  0  0  0  0  0
   36.3810   29.5700   51.3050 C   0  0  0  0  0  3  0  0  0  0  0  0
   37.4070   30.3370   50.7620 C   0  0  0  0  0  3  0  0  0  0  0  0
   37.3200   30.6080   49.3990 C   0  0  0  0  0  0  0  0  0  0  0  0
   38.3340   31.3710   48.8390 C   0  0  0  0  0  3  0  0  0  0  0  0
   38.3140   31.6800   47.4940 C   0  0  0  0  0  3  0  0  0  0  0  0
   37.2730   31.2220   46.7060 C   0  0  0  0  0  3  0  0  0  0  0  0
   36.2800   30.4650   47.2920 C   0  0  0  0  0  3  0  0  0  0  0  0
   36.2570   30.1290   48.6370 C   0  0  0  0  0  0  0  0  0  0  0  0
  1  6  1  0  0  0  0
  2  3  1  0  0  0  0
  2  1  2  0  0  0  0
  3  4  2  0  0  0  0
  4  5  1  0  0  0  0
  5  7  1  0  0  0  0
  6  5  2  0  0  0  0
  7 17  1  0  0  0  0
  7  8  1  0  0  0  0
  8  9  2  0  0  0  0
 10 11  1  0  0  0  0
 10  9  1  0  0  0  0
 11 12  2  0  0  0  0
 13 20  1  0  0  0  0
 13 11  1  0  0  0  0
 14 13  1  0  0  0  0
 15 19  1  0  0  0  0
 15 14  1  0  0  0  0
 16 14  2  0  0  0  0
 16 17  1  0  0  0  0
 17 10  2  0  0  0  0
 18 15  1  0  0  0  0
 20 21  2  0  0  0  0
 20 24  1  0  0  0  0
 21 22  1  0  0  0  0
 23 22  1  0  0  0  0
 24 23  2  0  0  0  0
 25 23  1  6  0  0  0
 26 27  1  0  0  0  0
 26 25  1  0  0  0  0
 27 25  1  0  0  0  0
 27 28  1  1  0  0  0
 28 29  1  0  0  0  0
 29 30  2  0  0  0  0
 31 30  1  0  0  0  0
 32 31  2  0  0  0  0
 33 32  1  0  0  0  0
 34 33  2  0  0  0  0
 35 36  2  0  0  0  0
 35 34  1  0  0  0  0
 36 37  1  0  0  0  0
 37 28  2  0  0  0  0
 37 32  1  0  0  0  0
M  END
>  <minimizedAffinity>
-8.64470863

$$$$

 OpenBabel03272514393D

 37 43  0  0  1  0  0  0  0  0999 V2000
   28.3740   33.9960   40.1320 C   0  0  0  0  0  3  0  0  0  0  0  0
   27.6380   33.7120   41.3100 C   0  0  0  0  0  3  0  0  0  0  0  0
   28.3720   33.6060   42.5030 C   0  0  0  0  0  3  0  0  0  0  0  0
   29.7120   33.7740   42.4750 N   0  0  0  0  0  0  0  0  0  0  0  0
   30.3790   34.0440   41.3240 C   0  0  0  0  0  0  0  0  0  0  0  0
   29.7070   34.1520   40.1710 N   0  0  0  0  0  0  0  0  0  0  0  0
   31.7800   34.2240   41.2650 N   0  0  0  0  0  0  0  0  0  0  0  0
   32.3180   35.2860   40.6240 C   0  0  0  0  0  3  0  0  0  0  0  0
   33.6660   35.1800   40.7420 N   0  0  0  0  0  0  0  0  0  0  0  0
   33.9930   34.0930   41.4320 C   0  0  0  0  0  0  0  0  0  0  0  0
   35.1280   33.4170   41.8970 C   0  0  0  0  0  0  0  0  0  0  0  0
   36.2220   33.9820   41.5880 O   0  0  0  0  0  0  0  0  0  0  0  0
   35.0130   32.2590   42.6140 N   0  0  0  0  0  0  0  0  0  0  0  0
   33.8450   31.7360   42.8930 C   0  0  0  0  0  0  0  0  0  0  0  0
   33.9440   30.5310   43.6520 N   0  0  0  0  0  0  0  0  0  0  0  0
   32.7180   32.3590   42.4630 N   0  0  0  0  0  0  0  0  0  0  0  0
   32.7930   33.4840   41.7660 C   0  0  0  0  0  0  0  0  0  0  0  0
   33.0910   30.0270   43.9330 H   0  0  0  0  0  0  0  0  0  0  0  0
   34.8700   30.1650   43.9190 H   0  0  0  0  0  0  0  0  0  0  0  0
   36.2370   31.6050   43.0670 C   0  0  0  0  0  0  0  0  0  0  0  0
   37.1780   31.0890   42.1620 C   0  0  0  0  0  3  0  0  0  0  0  0
   38.4870   30.4020   43.2780 S   0  0  0  0  0  0  0  0  0  0  0  0
   37.5170   30.9400   44.7810 C   0  0  0  0  0  0  0  0  0  0  0  0
   36.6020   31.4260   44.3180 N   0  0  0  0  0  0  0  0  0  0  0  0
   38.1500   30.6360   46.1640 C   0  0  1  0  0  3  0  0  0  0  0  0
   39.0670   31.6530   46.7010 C   0  0  0  0  0  2  0  0  0  0  0  0
   37.6010   31.5140   47.2050 C   0  0  2  0  0  3  0  0  0  0  0  0
   37.4850   30.9580   48.5760 C   0  0  0  0  0  0  0  0  0  0  0  0
   38.3340   31.1780   49.6390 C   0  0  0  0  0  3  0  0  0  0  0  0
   38.0820   30.5800   50.8620 C   0  0  0  0  0  3  0  0  0  0  0  0
   36.9890   29.7480   51.0840 C   0  0  0  0  0  3  0  0  0  0  0  0
   36.1420   29.5380   49.9990 C   0  0  0  0  0  0  0  0  0  0  0  0
   35.0470   28.7110   50.2010 C   0  0  0  0  0  3  0  0  0  0  0  0
   34.1650   28.4570   49.1710 C   0  0  0  0  0  3  0  0  0  0  0  0
   34.3790   29.0340   47.9320 C   0  0  0  0  0  3  0  0  0  0  0  0
   35.4770   29.8520   47.7620 C   0  0  0  0  0  3  0  0  0  0  0  0
   36.3900   30.1370   48.7660 C   0  0  0  0  0  0  0  0  0  0  0  0
  1  6  2  0  0  0  0
  1  2  1  0  0  0  0
  2  3  2  0  0  0  0
  4  3  1  0  0  0  0
  5  4  2  0  0  0  0
  6  5  1  0  0  0  0
  7  5  1  0  0  0  0
  7 17  1  0  0  0  0
  8  9  2  0  0  0  0
  8  7  1  0  0  0  0
  9 10  1  0  0  0  0
 10 17  2  0  0  0  0
 10 11  1  0  0  0  0
 11 13  1  0  0  0  0
 12 11  2  0  0  0  0
 13 14  1  0  0  0  0
 13 20  1  0  0  0  0
 14 15  1  0  0  0  0
 15 19  1  0  0  0  0
 15 18  1  0  0  0  0
 16 14  2  0  0  0  0
 17 16  1  0  0  0  0
 20 24  1  0  0  0  0
 21 20  2  0  0  0  0
 21 22  1  0  0  0  0
 22 23  1  0  0  0  0
 24 23  2  0  0  0  0
 25 23  1  6  0  0  0
 25 26  1  0  0  0  0
 25 27  1  0  0  0  0
 26 27  1  0  0  0  0
 27 28  1  1  0  0  0
 28 37  2  0  0  0  0
 28 29  1  0  0  0  0
 29 30  2  0  0  0  0
 30 31  1  0  0  0  0
 32 33  1  0  0  0  0
 32 31  2  0  0  0  0
 34 33  2  0  0  0  0
 35 34  1  0  0  0  0
 36 35  2  0  0  0  0
 36 37  1  0  0  0  0
 37 32  1  0  0  0  0
M  END
>  <minimizedAffinity>
-8.10434341

$$$$

 OpenBabel03272514393D

 37 43  0  0  1  0  0  0  0  0999 V2000
   27.1320   34.0950   42.3080 C   0  0  0  0  0  3  0  0  0  0  0  0
   27.3840   35.3850   41.7770 C   0  0  0  0  0  3  0  0  0  0  0  0
   28.6440   35.5940   41.1930 C   0  0  0  0  0  3  0  0  0  0  0  0
   29.5380   34.5810   41.1650 N   0  0  0  0  0  0  0  0  0  0  0  0
   29.2570   33.3600   41.6860 C   0  0  0  0  0  0  0  0  0  0  0  0
   28.0640   33.1310   42.2490 N   0  0  0  0  0  0  0  0  0  0  0  0
   30.1730   32.2820   41.6710 N   0  0  0  0  0  0  0  0  0  0  0  0
   29.7960   31.0550   41.2460 C   0  0  0  0  0  3  0  0  0  0  0  0
   30.8810   30.2480   41.3490 N   0  0  0  0  0  0  0  0  0  0  0  0
   31.9250   30.9220   41.8220 C   0  0  0  0  0  0  0  0  0  0  0  0
   33.2690   30.7230   42.1560 C   0  0  0  0  0  0  0  0  0  0  0  0
   33.6740   29.5340   41.9640 O   0  0  0  0  0  0  0  0  0  0  0  0
   34.0340   31.7470   42.6400 N   0  0  0  0  0  0  0  0  0  0  0  0
   33.5430   32.9500   42.8100 C   0  0  0  0  0  0  0  0  0  0  0  0
   34.5040   33.8740   43.3210 N   0  0  0  0  0  0  0  0  0  0  0  0
   32.2430   33.1880   42.4980 N   0  0  0  0  0  0  0  0  0  0  0  0
   31.4740   32.2170   42.0270 C   0  0  0  0  0  0  0  0  0  0  0  0
   34.2350   34.8530   43.4970 H   0  0  0  0  0  0  0  0  0  0  0  0
   35.4670   33.5610   43.5130 H   0  0  0  0  0  0  0  0  0  0  0  0
   35.4290   31.4710   42.9690 C   0  0  0  0  0  0  0  0  0  0  0  0
   36.4420   31.5340   42.0000 C   0  0  0  0  0  3  0  0  0  0  0  0
   37.9620   31.1040   42.9690 S   0  0  0  0  0  0  0  0  0  0  0  0
   36.9430   30.9150   44.5240 C   0  0  0  0  0  0  0  0  0  0  0  0
   35.8960   31.1470   44.1560 N   0  0  0  0  0  0  0  0  0  0  0  0
   37.7110   30.5390   45.8180 C   0  0  1  0  0  3  0  0  0  0  0  0
   38.8440   31.4050   46.1800 C   0  0  0  0  0  2  0  0  0  0  0  0
   37.4610   31.5150   46.8860 C   0  0  2  0  0  3  0  0  0  0  0  0
   37.4550   31.0120   48.2830 C   0  0  0  0  0  0  0  0  0  0  0  0
   38.3940   31.2600   49.2610 C   0  0  0  0  0  3  0  0  0  0  0  0
   38.2390   30.7120   50.5230 C   0  0  0  0  0  3  0  0  0  0  0  0
   37.1600   29.9050   50.8680 C   0  0  0  0  0  3  0  0  0  0  0  0
   36.2220   29.6660   49.8670 C   0  0  0  0  0  0  0  0  0  0  0  0
   35.1390   28.8630   50.1920 C   0  0  0  0  0  3  0  0  0  0  0  0
   34.1700   28.5840   49.2510 C   0  0  0  0  0  3  0  0  0  0  0  0
   34.2850   29.1100   47.9770 C   0  0  0  0  0  3  0  0  0  0  0  0
   35.3740   29.9060   47.6840 C   0  0  0  0  0  3  0  0  0  0  0  0
   36.3720   30.2150   48.5950 C   0  0  0  0  0  0  0  0  0  0  0  0
  2  1  2  0  0  0  0
  3  2  1  0  0  0  0
  4  3  2  0  0  0  0
  4  5  1  0  0  0  0
  5  6  2  0  0  0  0
  6  1  1  0  0  0  0
  7  5  1  0  0  0  0
  7 17  1  0  0  0  0
  8  9  2  0  0  0  0
  8  7  1  0  0  0  0
  9 10  1  0  0  0  0
 10 17  2  0  0  0  0
 10 11  1  0  0  0  0
 11 13  1  0  0  0  0
 12 11  2  0  0  0  0
 13 14  1  0  0  0  0
 13 20  1  0  0  0  0
 14 15  1  0  0  0  0
 15 18  1  0  0  0  0
 15 19  1  0  0  0  0
 16 14  2  0  0  0  0
 17 16  1  0  0  0  0
 20 24  1  0  0  0  0
 21 20  2  0  0  0  0
 21 22  1  0  0  0  0
 22 23  1  0  0  0  0
 24 23  2  0  0  0  0
 25 23  1  6  0  0  0
 25 26  1  0  0  0  0
 25 27  1  0  0  0  0
 26 27  1  0  0  0  0
 27 28  1  1  0  0  0
 28 37  2  0  0  0  0
 28 29  1  0  0  0  0
 29 30  2  0  0  0  0
 30 31  1  0  0  0  0
 32 33  1  0  0  0  0
 32 31  2  0  0  0  0
 34 33  2  0  0  0  0
 35 34  1  0  0  0  0
 36 35  2  0  0  0  0
 36 37  1  0  0  0  0
 37 32  1  0  0  0  0
M  END
>  <minimizedAffinity>
-8.02887726

$$$$

 OpenBabel03272514393D

 37 43  0  0  1  0  0  0  0  0999 V2000
   38.5010   32.6670   48.7190 C   0  0  0  0  0  3  0  0  0  0  0  0
   38.6190   31.8150   49.8460 C   0  0  0  0  0  3  0  0  0  0  0  0
   38.0780   30.5250   49.7230 C   0  0  0  0  0  3  0  0  0  0  0  0
   37.4850   30.1630   48.5630 N   0  0  0  0  0  0  0  0  0  0  0  0
   37.3930   31.0100   47.5080 C   0  0  0  0  0  0  0  0  0  0  0  0
   37.8990   32.2460   47.5960 N   0  0  0  0  0  0  0  0  0  0  0  0
   36.7770   30.6580   46.2840 N   0  0  0  0  0  0  0  0  0  0  0  0
   37.3960   30.8870   45.1040 C   0  0  0  0  0  3  0  0  0  0  0  0
   36.5640   30.4450   44.1270 N   0  0  0  0  0  0  0  0  0  0  0  0
   35.4470   29.9490   44.6500 C   0  0  0  0  0  0  0  0  0  0  0  0
   34.2420   29.3630   44.2470 C   0  0  0  0  0  0  0  0  0  0  0  0
   34.1260   29.2420   42.9880 O   0  0  0  0  0  0  0  0  0  0  0  0
   33.3070   28.9730   45.1650 N   0  0  0  0  0  0  0  0  0  0  0  0
   33.4990   29.1310   46.4510 C   0  0  0  0  0  0  0  0  0  0  0  0
   32.4070   28.6570   47.2370 N   0  0  0  0  0  0  0  0  0  0  0  0
   34.6550   29.6950   46.8860 N   0  0  0  0  0  0  0  0  0  0  0  0
   35.5830   30.0840   46.0230 C   0  0  0  0  0  0  0  0  0  0  0  0
   32.4420   28.7270   48.2650 H   0  0  0  0  0  0  0  0  0  0  0  0
   31.5820   28.2440   46.7780 H   0  0  0  0  0  0  0  0  0  0  0  0
   32.0710   28.3690   44.6770 C   0  0  0  0  0  0  0  0  0  0  0  0
   31.9960   27.7590   43.4150 C   0  0  0  0  0  3  0  0  0  0  0  0
   30.2360   27.1830   43.3420 S   0  0  0  0  0  0  0  0  0  0  0  0
   29.9170   27.8800   45.0470 C   0  0  0  0  0  0  0  0  0  0  0  0
   30.9260   28.3170   45.3230 N   0  0  0  0  0  0  0  0  0  0  0  0
   28.4880   27.6900   45.6200 C   0  0  1  0  0  3  0  0  0  0  0  0
   28.1400   26.3340   46.0700 C   0  0  0  0  0  2  0  0  0  0  0  0
   28.5230   27.4630   47.0700 C   0  0  2  0  0  3  0  0  0  0  0  0
   27.3800   27.9750   47.8680 C   0  0  0  0  0  0  0  0  0  0  0  0
   26.2870   28.6740   47.4040 C   0  0  0  0  0  3  0  0  0  0  0  0
   25.3010   29.0820   48.2860 C   0  0  0  0  0  3  0  0  0  0  0  0
   25.3530   28.8190   49.6510 C   0  0  0  0  0  3  0  0  0  0  0  0
   26.4650   28.1110   50.1010 C   0  0  0  0  0  0  0  0  0  0  0  0
   26.5350   27.8380   51.4590 C   0  0  0  0  0  3  0  0  0  0  0  0
   27.6070   27.1410   51.9770 C   0  0  0  0  0  3  0  0  0  0  0  0
   28.6150   26.7150   51.1310 C   0  0  0  0  0  3  0  0  0  0  0  0
   28.5170   27.0010   49.7850 C   0  0  0  0  0  3  0  0  0  0  0  0
   27.4600   27.6970   49.2190 C   0  0  0  0  0  0  0  0  0  0  0  0
  1  2  1  0  0  0  0
  3  2  2  0  0  0  0
  4  3  1  0  0  0  0
  5  6  1  0  0  0  0
  5  4  2  0  0  0  0
  6  1  2  0  0  0  0
  7  5  1  0  0  0  0
  8  7  1  0  0  0  0
  9 10  1  0  0  0  0
  9  8  2  0  0  0  0
 10 17  2  0  0  0  0
 11 10  1  0  0  0  0
 11 13  1  0  0  0  0
 12 11  2  0  0  0  0
 13 14  1  0  0  0  0
 14 16  2  0  0  0  0
 14 15  1  0  0  0  0
 15 18  1  0  0  0  0
 17  7  1  0  0  0  0
 17 16  1  0  0  0  0
 19 15  1  0  0  0  0
 20 13  1  0  0  0  0
 20 24  1  0  0  0  0
 21 20  2  0  0  0  0
 22 21  1  0  0  0  0
 22 23  1  0  0  0  0
 23 24  2  0  0  0  0
 25 23  1  6  0  0  0
 25 26  1  0  0  0  0
 25 27  1  0  0  0  0
 26 27  1  0  0  0  0
 27 28  1  1  0  0  0
 28 37  1  0  0  0  0
 29 28  2  0  0  0  0
 29 30  1  0  0  0  0
 30 31  2  0  0  0  0
 31 32  1  0  0  0  0
 32 33  1  0  0  0  0
 33 34  2  0  0  0  0
 35 34  1  0  0  0  0
 36 35  2  0  0  0  0
 37 36  1  0  0  0  0
 37 32  2  0  0  0  0
M  END
>  <minimizedAffinity>
-7.89876366

$$$$

 OpenBabel03272514393D

 37 43  0  0  1  0  0  0  0  0999 V2000
   37.4610   31.6790   49.9440 C   0  0  0  0  0  3  0  0  0  0  0  0
   37.5470   30.6530   50.9200 C   0  0  0  0  0  3  0  0  0  0  0  0
   36.9950   29.4080   50.5780 C   0  0  0  0  0  3  0  0  0  0  0  0
   36.4220   29.2470   49.3650 N   0  0  0  0  0  0  0  0  0  0  0  0
   36.3610   30.2560   48.4590 C   0  0  0  0  0  0  0  0  0  0  0  0
   36.8780   31.4540   48.7560 N   0  0  0  0  0  0  0  0  0  0  0  0
   35.7660   30.1150   47.1840 N   0  0  0  0  0  0  0  0  0  0  0  0
   36.4110   30.5240   46.0680 C   0  0  0  0  0  3  0  0  0  0  0  0
   35.5940   30.2590   45.0170 N   0  0  0  0  0  0  0  0  0  0  0  0
   34.4620   29.6990   45.4320 C   0  0  0  0  0  0  0  0  0  0  0  0
   33.2590   29.2030   44.9170 C   0  0  0  0  0  0  0  0  0  0  0  0
   33.1680   29.2900   43.6530 O   0  0  0  0  0  0  0  0  0  0  0  0
   32.3020   28.6820   45.7430 N   0  0  0  0  0  0  0  0  0  0  0  0
   32.4690   28.6270   47.0410 C   0  0  0  0  0  0  0  0  0  0  0  0
   31.3560   28.0460   47.7190 N   0  0  0  0  0  0  0  0  0  0  0  0
   33.6220   29.0970   47.5820 N   0  0  0  0  0  0  0  0  0  0  0  0
   34.5710   29.6080   46.8110 C   0  0  0  0  0  0  0  0  0  0  0  0
   31.3710   27.9480   48.7450 H   0  0  0  0  0  0  0  0  0  0  0  0
   30.5370   27.7240   47.1830 H   0  0  0  0  0  0  0  0  0  0  0  0
   31.0700   28.1830   45.1400 C   0  0  0  0  0  0  0  0  0  0  0  0
   30.9420   26.8500   44.7180 C   0  0  0  0  0  3  0  0  0  0  0  0
   29.2110   26.7930   44.0580 S   0  0  0  0  0  0  0  0  0  0  0  0
   28.9710   28.5990   44.4760 C   0  0  0  0  0  0  0  0  0  0  0  0
   29.9730   28.8780   44.9290 N   0  0  0  0  0  0  0  0  0  0  0  0
   27.5830   29.2100   44.1490 C   0  0  1  0  0  3  0  0  0  0  0  0
   26.5390   29.0430   45.1710 C   0  0  0  0  0  2  0  0  0  0  0  0
   27.3090   30.3830   44.9870 C   0  0  2  0  0  3  0  0  0  0  0  0
   26.4930   31.4720   44.3920 C   0  0  0  0  0  0  0  0  0  0  0  0
   26.1130   31.6010   43.0730 C   0  0  0  0  0  3  0  0  0  0  0  0
   25.3450   32.6830   42.6780 C   0  0  0  0  0  3  0  0  0  0  0  0
   24.9240   33.6730   43.5600 C   0  0  0  0  0  3  0  0  0  0  0  0
   25.3170   33.5250   44.8880 C   0  0  0  0  0  0  0  0  0  0  0  0
   24.9070   34.5010   45.7840 C   0  0  0  0  0  3  0  0  0  0  0  0
   25.2590   34.4200   47.1150 C   0  0  0  0  0  3  0  0  0  0  0  0
   26.0260   33.3560   47.5530 C   0  0  0  0  0  3  0  0  0  0  0  0
   26.4180   32.3990   46.6390 C   0  0  0  0  0  3  0  0  0  0  0  0
   26.0900   32.4380   45.2920 C   0  0  0  0  0  0  0  0  0  0  0  0
  1  2  1  0  0  0  0
  3  2  2  0  0  0  0
  4  3  1  0  0  0  0
  5  6  1  0  0  0  0
  5  4  2  0  0  0  0
  6  1  2  0  0  0  0
  7  5  1  0  0  0  0
  8  7  1  0  0  0  0
  9 10  1  0  0  0  0
  9  8  2  0  0  0  0
 10 17  2  0  0  0  0
 11 10  1  0  0  0  0
 11 13  1  0  0  0  0
 12 11  2  0  0  0  0
 13 14  1  0  0  0  0
 14 16  2  0  0  0  0
 14 15  1  0  0  0  0
 15 18  1  0  0  0  0
 17  7  1  0  0  0  0
 17 16  1  0  0  0  0
 19 15  1  0  0  0  0
 20 13  1  0  0  0  0
 21 20  2  0  0  0  0
 22 23  1  0  0  0  0
 22 21  1  0  0  0  0
 23 24  2  0  0  0  0
 24 20  1  0  0  0  0
 25 23  1  1  0  0  0
 25 27  1  0  0  0  0
 25 26  1  0  0  0  0
 27 28  1  6  0  0  0
 27 26  1  0  0  0  0
 28 37  1  0  0  0  0
 29 28  2  0  0  0  0
 30 29  1  0  0  0  0
 30 31  2  0  0  0  0
 31 32  1  0  0  0  0
 32 37  2  0  0  0  0
 32 33  1  0  0  0  0
 33 34  2  0  0  0  0
 34 35  1  0  0  0  0
 36 35  2  0  0  0  0
 37 36  1  0  0  0  0
M  END
>  <minimizedAffinity>
-7.85771942

$$$$

 OpenBabel03272514393D

 37 43  0  0  1  0  0  0  0  0999 V2000
   25.1870   33.6500   42.9410 C   0  0  0  0  0  3  0  0  0  0  0  0
   25.8440   34.0870   41.7640 C   0  0  0  0  0  3  0  0  0  0  0  0
   26.9360   33.3190   41.3270 C   0  0  0  0  0  3  0  0  0  0  0  0
   27.3000   32.2250   42.0310 N   0  0  0  0  0  0  0  0  0  0  0  0
   26.6430   31.8410   43.1540 C   0  0  0  0  0  0  0  0  0  0  0  0
   25.5990   32.5530   43.5950 N   0  0  0  0  0  0  0  0  0  0  0  0
   27.0030   30.7010   43.9100 N   0  0  0  0  0  0  0  0  0  0  0  0
   26.0740   29.7950   44.2880 C   0  0  0  0  0  3  0  0  0  0  0  0
   26.7200   28.8310   44.9890 N   0  0  0  0  0  0  0  0  0  0  0  0
   28.0200   29.0980   45.0670 C   0  0  0  0  0  0  0  0  0  0  0  0
   29.1960   28.5630   45.6060 C   0  0  0  0  0  0  0  0  0  0  0  0
   29.0210   27.4720   46.2330 O   0  0  0  0  0  0  0  0  0  0  0  0
   30.3960   29.1960   45.4450 N   0  0  0  0  0  0  0  0  0  0  0  0
   30.4960   30.3220   44.7830 C   0  0  0  0  0  0  0  0  0  0  0  0
   31.8350   30.8150   44.7270 N   0  0  0  0  0  0  0  0  0  0  0  0
   29.3810   30.8760   44.2420 N   0  0  0  0  0  0  0  0  0  0  0  0
   28.2010   30.2890   44.3800 C   0  0  0  0  0  0  0  0  0  0  0  0
   32.0390   31.6960   44.2320 H   0  0  0  0  0  0  0  0  0  0  0  0
   32.5960   30.2910   45.1810 H   0  0  0  0  0  0  0  0  0  0  0  0
   31.5830   28.5840   46.0340 C   0  0  0  0  0  0  0  0  0  0  0  0
   32.1460   27.4090   45.5100 C   0  0  0  0  0  3  0  0  0  0  0  0
   33.5930   27.1130   46.6290 S   0  0  0  0  0  0  0  0  0  0  0  0
   33.1710   28.6450   47.6140 C   0  0  0  0  0  0  0  0  0  0  0  0
   32.2490   29.0310   47.0770 N   0  0  0  0  0  0  0  0  0  0  0  0
   34.1080   28.9900   48.8000 C   0  0  1  0  0  3  0  0  0  0  0  0
   34.8270   27.8620   49.4130 C   0  0  0  0  0  2  0  0  0  0  0  0
   35.5190   28.8420   48.4230 C   0  0  2  0  0  3  0  0  0  0  0  0
   36.4960   29.7590   49.0630 C   0  0  0  0  0  0  0  0  0  0  0  0
   36.7970   29.8480   50.4060 C   0  0  0  0  0  3  0  0  0  0  0  0
   37.7400   30.7620   50.8440 C   0  0  0  0  0  3  0  0  0  0  0  0
   38.4210   31.6160   49.9820 C   0  0  0  0  0  3  0  0  0  0  0  0
   38.1050   31.5100   48.6300 C   0  0  0  0  0  0  0  0  0  0  0  0
   38.7730   32.3540   47.7550 C   0  0  0  0  0  3  0  0  0  0  0  0
   38.5110   32.3050   46.4010 C   0  0  0  0  0  3  0  0  0  0  0  0
   37.5750   31.4070   45.9200 C   0  0  0  0  0  3  0  0  0  0  0  0
   36.9270   30.5810   46.8160 C   0  0  0  0  0  3  0  0  0  0  0  0
   37.1560   30.5930   48.1830 C   0  0  0  0  0  0  0  0  0  0  0  0
  1  6  1  0  0  0  0
  2  1  2  0  0  0  0
  3  2  1  0  0  0  0
  3  4  2  0  0  0  0
  4  5  1  0  0  0  0
  5  6  2  0  0  0  0
  5  7  1  0  0  0  0
  7  8  1  0  0  0  0
  7 17  1  0  0  0  0
  8  9  2  0  0  0  0
  9 10  1  0  0  0  0
 10 11  1  0  0  0  0
 11 12  2  0  0  0  0
 13 11  1  0  0  0  0
 13 20  1  0  0  0  0
 14 13  1  0  0  0  0
 15 14  1  0  0  0  0
 15 19  1  0  0  0  0
 16 17  1  0  0  0  0
 16 14  2  0  0  0  0
 17 10  2  0  0  0  0
 18 15  1  0  0  0  0
 20 24  1  0  0  0  0
 21 20  2  0  0  0  0
 21 22  1  0  0  0  0
 22 23  1  0  0  0  0
 24 23  2  0  0  0  0
 25 23  1  6  0  0  0
 25 26  1  0  0  0  0
 27 25  1  0  0  0  0
 27 28  1  1  0  0  0
 27 26  1  0  0  0  0
 28 29  1  0  0  0  0
 29 30  2  0  0  0  0
 31 30  1  0  0  0  0
 32 31  2  0  0  0  0
 33 32  1  0  0  0  0
 34 33  2  0  0  0  0
 35 34  1  0  0  0  0
 35 36  2  0  0  0  0
 36 37  1  0  0  0  0
 37 32  1  0  0  0  0
 37 28  2  0  0  0  0
M  END
>  <minimizedAffinity>
-7.8060441

$$$$

 OpenBabel03272514393D

 37 43  0  0  1  0  0  0  0  0999 V2000
   37.7490   29.5600   50.3450 C   0  0  0  0  0  3  0  0  0  0  0  0
   37.9520   30.9630   50.3710 C   0  0  0  0  0  3  0  0  0  0  0  0
   36.9450   31.7580   49.8010 C   0  0  0  0  0  3  0  0  0  0  0  0
   35.8550   31.1640   49.2660 N   0  0  0  0  0  0  0  0  0  0  0  0
   35.7000   29.8160   49.2620 C   0  0  0  0  0  0  0  0  0  0  0  0
   36.6430   29.0320   49.7980 N   0  0  0  0  0  0  0  0  0  0  0  0
   34.5700   29.1690   48.7090 N   0  0  0  0  0  0  0  0  0  0  0  0
   33.9060   28.2170   49.4020 C   0  0  0  0  0  3  0  0  0  0  0  0
   32.8840   27.7930   48.6160 N   0  0  0  0  0  0  0  0  0  0  0  0
   32.8830   28.4420   47.4560 C   0  0  0  0  0  0  0  0  0  0  0  0
   32.1590   28.5010   46.2600 C   0  0  0  0  0  0  0  0  0  0  0  0
   31.1780   27.6960   46.2150 O   0  0  0  0  0  0  0  0  0  0  0  0
   32.5170   29.3630   45.2620 N   0  0  0  0  0  0  0  0  0  0  0  0
   33.5460   30.1660   45.3830 C   0  0  0  0  0  0  0  0  0  0  0  0
   33.7470   30.9860   44.2320 N   0  0  0  0  0  0  0  0  0  0  0  0
   34.2750   30.1430   46.5270 N   0  0  0  0  0  0  0  0  0  0  0  0
   33.9560   29.3190   47.5150 C   0  0  0  0  0  0  0  0  0  0  0  0
   34.5270   31.6600   44.2090 H   0  0  0  0  0  0  0  0  0  0  0  0
   33.1120   30.9050   43.4250 H   0  0  0  0  0  0  0  0  0  0  0  0
   31.7200   29.3720   44.0390 C   0  0  0  0  0  0  0  0  0  0  0  0
   32.1020   28.6420   42.9030 C   0  0  0  0  0  3  0  0  0  0  0  0
   30.7460   29.0190   41.6980 S   0  0  0  0  0  0  0  0  0  0  0  0
   29.9000   30.1080   42.9600 C   0  0  0  0  0  0  0  0  0  0  0  0
   30.5950   30.0290   43.8520 N   0  0  0  0  0  0  0  0  0  0  0  0
   28.5690   30.7750   42.5230 C   0  0  1  0  0  3  0  0  0  0  0  0
   27.3730   29.9200   42.5440 C   0  0  0  0  0  2  0  0  0  0  0  0
   27.6660   30.9570   43.6660 C   0  0  2  0  0  3  0  0  0  0  0  0
   26.7690   32.1400   43.6450 C   0  0  0  0  0  0  0  0  0  0  0  0
   26.3970   32.8830   42.5450 C   0  0  0  0  0  3  0  0  0  0  0  0
   25.5450   33.9630   42.6960 C   0  0  0  0  0  3  0  0  0  0  0  0
   25.0290   34.3510   43.9290 C   0  0  0  0  0  3  0  0  0  0  0  0
   25.4150   33.5880   45.0280 C   0  0  0  0  0  0  0  0  0  0  0  0
   24.9120   33.9590   46.2660 C   0  0  0  0  0  3  0  0  0  0  0  0
   25.2510   33.2500   47.3990 C   0  0  0  0  0  3  0  0  0  0  0  0
   26.1000   32.1630   47.2930 C   0  0  0  0  0  3  0  0  0  0  0  0
   26.5850   31.8180   46.0480 C   0  0  0  0  0  3  0  0  0  0  0  0
   26.2720   32.5000   44.8820 C   0  0  0  0  0  0  0  0  0  0  0  0
  1  2  1  0  0  0  0
  3  2  2  0  0  0  0
  4  3  1  0  0  0  0
  5  4  2  0  0  0  0
  5  6  1  0  0  0  0
  6  1  2  0  0  0  0
  7  5  1  0  0  0  0
  7  8  1  0  0  0  0
  9  8  2  0  0  0  0
 10 17  2  0  0  0  0
 10  9  1  0  0  0  0
 11 10  1  0  0  0  0
 12 11  2  0  0  0  0
 13 14  1  0  0  0  0
 13 11  1  0  0  0  0
 14 16  2  0  0  0  0
 15 14  1  0  0  0  0
 16 17  1  0  0  0  0
 17  7  1  0  0  0  0
 18 15  1  0  0  0  0
 19 15  1  0  0  0  0
 20 13  1  0  0  0  0
 21 20  2  0  0  0  0
 22 21  1  0  0  0  0
 22 23  1  0  0  0  0
 23 24  2  0  0  0  0
 24 20  1  0  0  0  0
 25 26  1  0  0  0  0
 25 23  1  1  0  0  0
 25 27  1  0  0  0  0
 26 27  1  0  0  0  0
 27 28  1  6  0  0  0
 28 37  1  0  0  0  0
 29 30  1  0  0  0  0
 29 28  2  0  0  0  0
 30 31  2  0  0  0  0
 31 32  1  0  0  0  0
 32 33  1  0  0  0  0
 33 34  2  0  0  0  0
 35 34  1  0  0  0  0
 36 35  2  0  0  0  0
 37 32  2  0  0  0  0
 37 36  1  0  0  0  0
M  END
>  <minimizedAffinity>
-7.67086411

$$$$
