
 OpenBabel03272514433D

 31 36  0  0  0  0  0  0  0  0999 V2000
   34.2680   29.4520   45.2220 C   0  0  0  0  0  3  0  0  0  0  0  0
   33.0750   28.7230   45.4310 C   0  0  0  0  0  3  0  0  0  0  0  0
   32.8190   28.3670   46.7430 C   0  0  0  0  0  0  0  0  0  0  0  0
   33.7060   28.7370   47.6700 N   0  0  0  0  0  0  0  0  0  0  0  0
   34.8320   29.4260   47.4720 C   0  0  0  0  0  0  0  0  0  0  0  0
   35.0950   29.7770   46.2130 N   0  0  0  0  0  0  0  0  0  0  0  0
   35.5730   29.6610   48.7050 C   0  0  0  0  0  0  0  0  0  0  0  0
   35.2300   29.0270   49.8810 C   0  0  0  0  0  3  0  0  0  0  0  0
   35.8870   29.2080   51.0690 C   0  0  0  0  0  3  0  0  0  0  0  0
   36.9700   30.0700   51.1500 C   0  0  0  0  0  3  0  0  0  0  0  0
   37.3400   30.7170   50.0040 C   0  0  0  0  0  0  0  0  0  0  0  0
   38.4190   31.5770   50.0860 C   0  0  0  0  0  3  0  0  0  0  0  0
   38.8650   32.2720   48.9880 C   0  0  0  0  0  3  0  0  0  0  0  0
   38.1630   32.0580   47.7860 C   0  0  0  0  0  3  0  0  0  0  0  0
   37.0970   31.1940   47.7570 C   0  0  0  0  0  3  0  0  0  0  0  0
   36.6520   30.5040   48.8430 C   0  0  0  0  0  0  0  0  0  0  0  0
   31.6330   27.6220   47.1090 N   0  0  0  0  0  0  0  0  0  0  0  0
   30.8930   27.9640   48.1540 C   0  0  0  0  0  3  0  0  0  0  0  0
   29.8670   27.0790   48.2320 C   0  0  0  0  0  0  0  0  0  0  0  0
   30.0160   26.2260   47.2330 N   0  0  0  0  0  0  0  0  0  0  0  0
   31.1070   26.5380   46.5140 C   0  0  0  0  0  3  0  0  0  0  0  0
   28.8940   27.2590   49.3350 C   0  0  0  0  0  0  0  0  0  0  0  0
   29.0870   26.8640   50.6100 N   0  0  0  0  0  0  0  0  0  0  0  0
   28.2300   27.0170   51.6040 C   0  0  0  0  0  3  0  0  0  0  0  0
   27.0380   27.6100   51.4140 N   0  0  0  0  0  0  0  0  0  0  0  0
   26.7460   28.0420   50.1750 C   0  0  0  0  0  0  0  0  0  0  0  0
   25.5290   28.6520   49.9690 C   0  0  0  0  0  3  0  0  0  0  0  0
   25.1640   29.1180   48.7300 C   0  0  0  0  0  3  0  0  0  0  0  0
   26.0750   28.9530   47.6790 C   0  0  0  0  0  3  0  0  0  0  0  0
   27.2740   28.3380   47.9470 C   0  0  0  0  0  3  0  0  0  0  0  0
   27.6710   27.8620   49.1700 C   0  0  0  0  0  0  0  0  0  0  0  0
  1  2  2  0  0  0  0
  1  6  1  0  0  0  0
  2  3  1  0  0  0  0
  3 17  1  0  0  0  0
  3  4  2  0  0  0  0
  5  4  1  0  0  0  0
  5  7  1  0  0  0  0
  6  5  2  0  0  0  0
  7 16  2  0  0  0  0
  7  8  1  0  0  0  0
  8  9  2  0  0  0  0
  9 10  1  0  0  0  0
 11 12  1  0  0  0  0
 11 10  2  0  0  0  0
 13 12  2  0  0  0  0
 14 13  1  0  0  0  0
 15 14  2  0  0  0  0
 15 16  1  0  0  0  0
 16 11  1  0  0  0  0
 17 18  1  0  0  0  0
 18 19  2  0  0  0  0
 19 22  1  0  0  0  0
 20 19  1  0  0  0  0
 21 17  1  0  0  0  0
 21 20  2  0  0  0  0
 22 23  1  0  0  0  0
 23 24  2  0  0  0  0
 25 24  1  0  0  0  0
 26 25  2  0  0  0  0
 27 26  1  0  0  0  0
 28 27  2  0  0  0  0
 29 30  2  0  0  0  0
 29 28  1  0  0  0  0
 30 31  1  0  0  0  0
 31 22  2  0  0  0  0
 31 26  1  0  0  0  0
M  END
>  <minimizedAffinity>
-9.39142227

$$$$

 OpenBabel03272514433D

 31 36  0  0  0  0  0  0  0  0999 V2000
   35.0080   29.5310   44.3010 C   0  0  0  0  0  3  0  0  0  0  0  0
   33.8920   28.8790   44.8750 C   0  0  0  0  0  3  0  0  0  0  0  0
   33.8410   28.8990   46.2570 C   0  0  0  0  0  0  0  0  0  0  0  0
   34.8290   29.5190   46.9060 N   0  0  0  0  0  0  0  0  0  0  0  0
   35.8810   30.1350   46.3630 C   0  0  0  0  0  0  0  0  0  0  0  0
   35.9480   30.1250   45.0320 N   0  0  0  0  0  0  0  0  0  0  0  0
   36.7750   30.7090   47.3610 C   0  0  0  0  0  0  0  0  0  0  0  0
   37.7020   31.6740   47.0240 C   0  0  0  0  0  3  0  0  0  0  0  0
   38.5670   32.2500   47.9160 C   0  0  0  0  0  3  0  0  0  0  0  0
   38.5520   31.8780   49.2510 C   0  0  0  0  0  3  0  0  0  0  0  0
   37.6470   30.9240   49.6230 C   0  0  0  0  0  0  0  0  0  0  0  0
   37.6330   30.5540   50.9550 C   0  0  0  0  0  3  0  0  0  0  0  0
   36.7590   29.6030   51.4250 C   0  0  0  0  0  3  0  0  0  0  0  0
   35.8850   29.0350   50.4770 C   0  0  0  0  0  3  0  0  0  0  0  0
   35.9390   29.4370   49.1650 C   0  0  0  0  0  3  0  0  0  0  0  0
   36.8040   30.3780   48.6960 C   0  0  0  0  0  0  0  0  0  0  0  0
   32.7550   28.2760   46.9840 N   0  0  0  0  0  0  0  0  0  0  0  0
   31.5260   28.7720   46.9590 C   0  0  0  0  0  3  0  0  0  0  0  0
   30.7490   27.9720   47.7320 C   0  0  0  0  0  0  0  0  0  0  0  0
   31.5300   27.0150   48.2040 N   0  0  0  0  0  0  0  0  0  0  0  0
   32.7850   27.1760   47.7560 C   0  0  0  0  0  3  0  0  0  0  0  0
   29.3180   28.3310   47.8600 C   0  0  0  0  0  0  0  0  0  0  0  0
   28.5820   28.9340   46.9030 N   0  0  0  0  0  0  0  0  0  0  0  0
   27.3050   29.2610   47.0020 C   0  0  0  0  0  3  0  0  0  0  0  0
   26.6030   29.0030   48.1190 N   0  0  0  0  0  0  0  0  0  0  0  0
   27.2440   28.4020   49.1360 C   0  0  0  0  0  0  0  0  0  0  0  0
   26.5340   28.1330   50.2850 C   0  0  0  0  0  3  0  0  0  0  0  0
   27.1240   27.5210   51.3630 C   0  0  0  0  0  3  0  0  0  0  0  0
   28.4780   27.1780   51.2550 C   0  0  0  0  0  3  0  0  0  0  0  0
   29.1320   27.4710   50.0830 C   0  0  0  0  0  3  0  0  0  0  0  0
   28.5750   28.0800   48.9880 C   0  0  0  0  0  0  0  0  0  0  0  0
  1  2  2  0  0  0  0
  1  6  1  0  0  0  0
  2  3  1  0  0  0  0
  3  4  2  0  0  0  0
  3 17  1  0  0  0  0
  5  4  1  0  0  0  0
  5  7  1  0  0  0  0
  6  5  2  0  0  0  0
  7 16  1  0  0  0  0
  8  7  2  0  0  0  0
  8  9  1  0  0  0  0
  9 10  2  0  0  0  0
 10 11  1  0  0  0  0
 11 12  1  0  0  0  0
 12 13  2  0  0  0  0
 14 13  1  0  0  0  0
 15 14  2  0  0  0  0
 16 15  1  0  0  0  0
 16 11  2  0  0  0  0
 17 21  1  0  0  0  0
 18 17  1  0  0  0  0
 18 19  2  0  0  0  0
 19 22  1  0  0  0  0
 19 20  1  0  0  0  0
 21 20  2  0  0  0  0
 22 31  1  0  0  0  0
 23 24  1  0  0  0  0
 23 22  2  0  0  0  0
 24 25  2  0  0  0  0
 25 26  1  0  0  0  0
 26 27  1  0  0  0  0
 27 28  2  0  0  0  0
 29 28  1  0  0  0  0
 30 29  2  0  0  0  0
 31 26  2  0  0  0  0
 31 30  1  0  0  0  0
M  END
>  <minimizedAffinity>
-9.31746674

$$$$

 OpenBabel03272514433D

 31 36  0  0  0  0  0  0  0  0999 V2000
   29.3700   29.5760   44.7470 C   0  0  0  0  0  3  0  0  0  0  0  0
   30.6940   29.2990   45.1620 C   0  0  0  0  0  3  0  0  0  0  0  0
   30.8370   28.9510   46.4920 C   0  0  0  0  0  0  0  0  0  0  0  0
   29.7360   28.9100   47.2460 N   0  0  0  0  0  0  0  0  0  0  0  0
   28.4870   29.1710   46.8540 C   0  0  0  0  0  0  0  0  0  0  0  0
   28.3290   29.5090   45.5740 N   0  0  0  0  0  0  0  0  0  0  0  0
   27.5170   29.0340   47.9330 C   0  0  0  0  0  0  0  0  0  0  0  0
   26.2610   29.5970   47.8450 C   0  0  0  0  0  3  0  0  0  0  0  0
   25.3080   29.5020   48.8250 C   0  0  0  0  0  3  0  0  0  0  0  0
   25.5710   28.8100   49.9960 C   0  0  0  0  0  3  0  0  0  0  0  0
   26.8060   28.2380   50.1200 C   0  0  0  0  0  0  0  0  0  0  0  0
   27.0660   27.5480   51.2900 C   0  0  0  0  0  3  0  0  0  0  0  0
   28.2790   26.9390   51.5060 C   0  0  0  0  0  3  0  0  0  0  0  0
   29.2320   27.0590   50.4750 C   0  0  0  0  0  3  0  0  0  0  0  0
   28.9240   27.7560   49.3330 C   0  0  0  0  0  3  0  0  0  0  0  0
   27.7240   28.3610   49.1150 C   0  0  0  0  0  0  0  0  0  0  0  0
   32.1320   28.6350   47.0570 N   0  0  0  0  0  0  0  0  0  0  0  0
   33.1420   29.4930   47.0050 C   0  0  0  0  0  3  0  0  0  0  0  0
   34.2050   28.9070   47.6110 C   0  0  0  0  0  0  0  0  0  0  0  0
   33.8090   27.7120   48.0140 N   0  0  0  0  0  0  0  0  0  0  0  0
   32.5230   27.5120   47.6840 C   0  0  0  0  0  3  0  0  0  0  0  0
   35.4650   29.6830   47.6750 C   0  0  0  0  0  0  0  0  0  0  0  0
   36.0630   30.2780   46.6220 N   0  0  0  0  0  0  0  0  0  0  0  0
   37.1860   30.9720   46.6640 C   0  0  0  0  0  3  0  0  0  0  0  0
   37.8550   31.1520   47.8160 N   0  0  0  0  0  0  0  0  0  0  0  0
   37.3420   30.5990   48.9280 C   0  0  0  0  0  0  0  0  0  0  0  0
   38.0180   30.7770   50.1150 C   0  0  0  0  0  3  0  0  0  0  0  0
   37.5530   30.2410   51.2900 C   0  0  0  0  0  3  0  0  0  0  0  0
   36.3620   29.5050   51.2420 C   0  0  0  0  0  3  0  0  0  0  0  0
   35.7330   29.3630   50.0290 C   0  0  0  0  0  3  0  0  0  0  0  0
   36.1680   29.8840   48.8380 C   0  0  0  0  0  0  0  0  0  0  0  0
  1  2  2  0  0  0  0
  1  6  1  0  0  0  0
  2  3  1  0  0  0  0
  3 17  1  0  0  0  0
  3  4  2  0  0  0  0
  5  4  1  0  0  0  0
  5  7  1  0  0  0  0
  6  5  2  0  0  0  0
  7 16  1  0  0  0  0
  8  7  2  0  0  0  0
  8  9  1  0  0  0  0
  9 10  2  0  0  0  0
 10 11  1  0  0  0  0
 11 12  1  0  0  0  0
 12 13  2  0  0  0  0
 14 13  1  0  0  0  0
 15 14  2  0  0  0  0
 16 15  1  0  0  0  0
 16 11  2  0  0  0  0
 17 21  1  0  0  0  0
 18 17  1  0  0  0  0
 18 19  2  0  0  0  0
 19 22  1  0  0  0  0
 19 20  1  0  0  0  0
 21 20  2  0  0  0  0
 22 31  1  0  0  0  0
 23 24  1  0  0  0  0
 23 22  2  0  0  0  0
 24 25  2  0  0  0  0
 25 26  1  0  0  0  0
 26 27  1  0  0  0  0
 27 28  2  0  0  0  0
 29 28  1  0  0  0  0
 30 29  2  0  0  0  0
 31 26  2  0  0  0  0
 31 30  1  0  0  0  0
M  END
>  <minimizedAffinity>
-9.03255463

$$$$

 OpenBabel03272514433D

 31 36  0  0  0  0  0  0  0  0999 V2000
   34.2110   29.9400   44.8980 C   0  0  0  0  0  3  0  0  0  0  0  0
   32.9670   29.2700   44.9500 C   0  0  0  0  0  3  0  0  0  0  0  0
   32.6120   28.7740   46.1910 C   0  0  0  0  0  0  0  0  0  0  0  0
   33.4600   28.9700   47.2030 N   0  0  0  0  0  0  0  0  0  0  0  0
   34.6340   29.6030   47.1530 C   0  0  0  0  0  0  0  0  0  0  0  0
   34.9930   30.0870   45.9650 N   0  0  0  0  0  0  0  0  0  0  0  0
   35.3100   29.6380   48.4440 C   0  0  0  0  0  0  0  0  0  0  0  0
   34.8430   28.9110   49.5200 C   0  0  0  0  0  3  0  0  0  0  0  0
   35.4350   28.9030   50.7550 C   0  0  0  0  0  3  0  0  0  0  0  0
   36.5750   29.6550   50.9930 C   0  0  0  0  0  3  0  0  0  0  0  0
   37.0680   30.3890   49.9510 C   0  0  0  0  0  0  0  0  0  0  0  0
   38.2050   31.1390   50.1900 C   0  0  0  0  0  3  0  0  0  0  0  0
   38.7740   31.9090   49.2050 C   0  0  0  0  0  3  0  0  0  0  0  0
   38.1370   31.8890   47.9490 C   0  0  0  0  0  3  0  0  0  0  0  0
   37.0090   31.1290   47.7630 C   0  0  0  0  0  3  0  0  0  0  0  0
   36.4410   30.3650   48.7370 C   0  0  0  0  0  0  0  0  0  0  0  0
   31.3640   28.0690   46.3970 N   0  0  0  0  0  0  0  0  0  0  0  0
   30.3640   28.6100   47.0770 C   0  0  0  0  0  3  0  0  0  0  0  0
   29.3500   27.7090   47.0950 C   0  0  0  0  0  0  0  0  0  0  0  0
   29.7650   26.6480   46.4260 N   0  0  0  0  0  0  0  0  0  0  0  0
   31.0160   26.8410   45.9770 C   0  0  0  0  0  3  0  0  0  0  0  0
   28.1090   28.0940   47.8080 C   0  0  0  0  0  0  0  0  0  0  0  0
   27.0750   28.7630   47.2570 N   0  0  0  0  0  0  0  0  0  0  0  0
   25.9630   29.1130   47.8790 C   0  0  0  0  0  3  0  0  0  0  0  0
   25.7630   28.8140   49.1750 N   0  0  0  0  0  0  0  0  0  0  0  0
   26.7360   28.1470   49.8190 C   0  0  0  0  0  0  0  0  0  0  0  0
   26.5420   27.8350   51.1460 C   0  0  0  0  0  3  0  0  0  0  0  0
   27.4920   27.1550   51.8660 C   0  0  0  0  0  3  0  0  0  0  0  0
   28.6690   26.7860   51.2040 C   0  0  0  0  0  3  0  0  0  0  0  0
   28.8050   27.1240   49.8790 C   0  0  0  0  0  3  0  0  0  0  0  0
   27.8770   27.8020   49.1300 C   0  0  0  0  0  0  0  0  0  0  0  0
  1  2  2  0  0  0  0
  1  6  1  0  0  0  0
  2  3  1  0  0  0  0
  3 17  1  0  0  0  0
  3  4  2  0  0  0  0
  5  4  1  0  0  0  0
  5  7  1  0  0  0  0
  6  5  2  0  0  0  0
  7 16  2  0  0  0  0
  7  8  1  0  0  0  0
  8  9  2  0  0  0  0
  9 10  1  0  0  0  0
 11 12  1  0  0  0  0
 11 10  2  0  0  0  0
 13 12  2  0  0  0  0
 14 13  1  0  0  0  0
 15 14  2  0  0  0  0
 15 16  1  0  0  0  0
 16 11  1  0  0  0  0
 17 18  1  0  0  0  0
 18 19  2  0  0  0  0
 19 22  1  0  0  0  0
 20 19  1  0  0  0  0
 21 17  1  0  0  0  0
 21 20  2  0  0  0  0
 22 31  1  0  0  0  0
 23 22  2  0  0  0  0
 23 24  1  0  0  0  0
 24 25  2  0  0  0  0
 25 26  1  0  0  0  0
 26 27  1  0  0  0  0
 27 28  2  0  0  0  0
 29 28  1  0  0  0  0
 30 29  2  0  0  0  0
 31 26  2  0  0  0  0
 31 30  1  0  0  0  0
M  END
>  <minimizedAffinity>
-9.01542091

$$$$

 OpenBabel03272514433D

 31 36  0  0  0  0  0  0  0  0999 V2000
   34.7740   30.1510   44.4130 C   0  0  0  0  0  3  0  0  0  0  0  0
   33.3650   30.2010   44.3100 C   0  0  0  0  0  3  0  0  0  0  0  0
   32.6780   30.0870   45.5060 C   0  0  0  0  0  0  0  0  0  0  0  0
   33.3960   29.9440   46.6220 N   0  0  0  0  0  0  0  0  0  0  0  0
   34.7270   29.8980   46.7180 C   0  0  0  0  0  0  0  0  0  0  0  0
   35.4050   30.0050   45.5760 N   0  0  0  0  0  0  0  0  0  0  0  0
   35.1870   29.7320   48.0910 C   0  0  0  0  0  0  0  0  0  0  0  0
   34.5500   28.8730   48.9640 C   0  0  0  0  0  3  0  0  0  0  0  0
   34.9360   28.6750   50.2630 C   0  0  0  0  0  3  0  0  0  0  0  0
   36.0250   29.3550   50.7850 C   0  0  0  0  0  3  0  0  0  0  0  0
   36.6820   30.2160   49.9500 C   0  0  0  0  0  0  0  0  0  0  0  0
   37.7680   30.8930   50.4720 C   0  0  0  0  0  3  0  0  0  0  0  0
   38.4920   31.7800   49.7110 C   0  0  0  0  0  3  0  0  0  0  0  0
   38.0640   31.9550   48.3800 C   0  0  0  0  0  3  0  0  0  0  0  0
   36.9780   31.2580   47.9100 C   0  0  0  0  0  3  0  0  0  0  0  0
   36.2590   30.3800   48.6610 C   0  0  0  0  0  0  0  0  0  0  0  0
   31.2320   30.1240   45.5560 N   0  0  0  0  0  0  0  0  0  0  0  0
   30.5450   29.3510   46.3840 C   0  0  0  0  0  3  0  0  0  0  0  0
   29.2290   29.6170   46.1900 C   0  0  0  0  0  0  0  0  0  0  0  0
   29.1560   30.5440   45.2500 N   0  0  0  0  0  0  0  0  0  0  0  0
   30.3880   30.8810   44.8350 C   0  0  0  0  0  3  0  0  0  0  0  0
   28.2530   28.8640   47.0120 C   0  0  0  0  0  0  0  0  0  0  0  0
   28.2770   27.5300   47.2150 N   0  0  0  0  0  0  0  0  0  0  0  0
   27.4150   26.8450   47.9450 C   0  0  0  0  0  3  0  0  0  0  0  0
   26.3950   27.4530   48.5760 N   0  0  0  0  0  0  0  0  0  0  0  0
   26.2800   28.7840   48.4390 C   0  0  0  0  0  0  0  0  0  0  0  0
   25.2400   29.4180   49.0810 C   0  0  0  0  0  3  0  0  0  0  0  0
   25.0620   30.7750   48.9860 C   0  0  0  0  0  3  0  0  0  0  0  0
   25.9770   31.4990   48.2100 C   0  0  0  0  0  3  0  0  0  0  0  0
   26.9940   30.8110   47.5940 C   0  0  0  0  0  3  0  0  0  0  0  0
   27.2030   29.4570   47.6690 C   0  0  0  0  0  0  0  0  0  0  0  0
  1  6  1  0  0  0  0
  2  1  2  0  0  0  0
  2  3  1  0  0  0  0
  3 17  1  0  0  0  0
  3  4  2  0  0  0  0
  4  5  1  0  0  0  0
  5  7  1  0  0  0  0
  6  5  2  0  0  0  0
  7 16  2  0  0  0  0
  7  8  1  0  0  0  0
  8  9  2  0  0  0  0
  9 10  1  0  0  0  0
 11 12  1  0  0  0  0
 11 10  2  0  0  0  0
 13 12  2  0  0  0  0
 14 13  1  0  0  0  0
 15 14  2  0  0  0  0
 15 16  1  0  0  0  0
 16 11  1  0  0  0  0
 17 18  1  0  0  0  0
 19 18  2  0  0  0  0
 19 22  1  0  0  0  0
 20 19  1  0  0  0  0
 21 20  2  0  0  0  0
 21 17  1  0  0  0  0
 22 23  2  0  0  0  0
 22 31  1  0  0  0  0
 23 24  1  0  0  0  0
 24 25  2  0  0  0  0
 26 25  1  0  0  0  0
 26 27  1  0  0  0  0
 28 27  2  0  0  0  0
 29 28  1  0  0  0  0
 30 31  1  0  0  0  0
 30 29  2  0  0  0  0
 31 26  2  0  0  0  0
M  END
>  <minimizedAffinity>
-8.91705894

$$$$

 OpenBabel03272514433D

 31 36  0  0  0  0  0  0  0  0999 V2000
   29.8610   30.8970   44.5450 C   0  0  0  0  0  3  0  0  0  0  0  0
   31.1780   30.5320   44.9090 C   0  0  0  0  0  3  0  0  0  0  0  0
   31.2790   29.6950   46.0050 C   0  0  0  0  0  0  0  0  0  0  0  0
   30.1480   29.3170   46.6050 N   0  0  0  0  0  0  0  0  0  0  0  0
   28.9050   29.6620   46.2600 C   0  0  0  0  0  0  0  0  0  0  0  0
   28.7880   30.4690   45.2060 N   0  0  0  0  0  0  0  0  0  0  0  0
   27.8950   29.0720   47.1300 C   0  0  0  0  0  0  0  0  0  0  0  0
   27.9020   27.7250   47.4280 C   0  0  0  0  0  3  0  0  0  0  0  0
   26.9810   27.1150   48.2370 C   0  0  0  0  0  3  0  0  0  0  0  0
   25.9580   27.8490   48.8180 C   0  0  0  0  0  3  0  0  0  0  0  0
   25.9190   29.1880   48.5460 C   0  0  0  0  0  0  0  0  0  0  0  0
   24.8980   29.9190   49.1250 C   0  0  0  0  0  3  0  0  0  0  0  0
   24.7750   31.2710   48.9100 C   0  0  0  0  0  3  0  0  0  0  0  0
   25.7420   31.8610   48.0730 C   0  0  0  0  0  3  0  0  0  0  0  0
   26.7350   31.0910   47.5210 C   0  0  0  0  0  3  0  0  0  0  0  0
   26.8600   29.7510   47.7310 C   0  0  0  0  0  0  0  0  0  0  0  0
   32.5630   29.2340   46.4900 N   0  0  0  0  0  0  0  0  0  0  0  0
   33.5600   30.0750   46.7250 C   0  0  0  0  0  3  0  0  0  0  0  0
   34.6150   29.3430   47.1630 C   0  0  0  0  0  0  0  0  0  0  0  0
   34.2270   28.0790   47.1810 N   0  0  0  0  0  0  0  0  0  0  0  0
   32.9530   27.9780   46.7680 C   0  0  0  0  0  3  0  0  0  0  0  0
   35.8610   30.0730   47.4930 C   0  0  0  0  0  0  0  0  0  0  0  0
   36.6140   30.7590   46.6090 N   0  0  0  0  0  0  0  0  0  0  0  0
   37.7270   31.4140   46.8880 C   0  0  0  0  0  3  0  0  0  0  0  0
   38.2210   31.4520   48.1380 N   0  0  0  0  0  0  0  0  0  0  0  0
   37.5440   30.7990   49.0970 C   0  0  0  0  0  0  0  0  0  0  0  0
   38.0410   30.8310   50.3810 C   0  0  0  0  0  3  0  0  0  0  0  0
   37.4010   30.1870   51.4110 C   0  0  0  0  0  3  0  0  0  0  0  0
   36.2220   29.4930   51.1110 C   0  0  0  0  0  3  0  0  0  0  0  0
   35.7770   29.4970   49.8120 C   0  0  0  0  0  3  0  0  0  0  0  0
   36.3880   30.1300   48.7600 C   0  0  0  0  0  0  0  0  0  0  0  0
  1  2  2  0  0  0  0
  1  6  1  0  0  0  0
  2  3  1  0  0  0  0
  3 17  1  0  0  0  0
  3  4  2  0  0  0  0
  5  4  1  0  0  0  0
  5  7  1  0  0  0  0
  6  5  2  0  0  0  0
  7  8  2  0  0  0  0
  7 16  1  0  0  0  0
  8  9  1  0  0  0  0
  9 10  2  0  0  0  0
 11 10  1  0  0  0  0
 11 12  1  0  0  0  0
 13 12  2  0  0  0  0
 14 13  1  0  0  0  0
 15 16  1  0  0  0  0
 15 14  2  0  0  0  0
 16 11  2  0  0  0  0
 17 18  1  0  0  0  0
 17 21  1  0  0  0  0
 18 19  2  0  0  0  0
 19 20  1  0  0  0  0
 19 22  1  0  0  0  0
 21 20  2  0  0  0  0
 22 31  1  0  0  0  0
 23 24  1  0  0  0  0
 23 22  2  0  0  0  0
 24 25  2  0  0  0  0
 25 26  1  0  0  0  0
 26 27  1  0  0  0  0
 27 28  2  0  0  0  0
 29 28  1  0  0  0  0
 30 29  2  0  0  0  0
 31 26  2  0  0  0  0
 31 30  1  0  0  0  0
M  END
>  <minimizedAffinity>
-8.71038628

$$$$

 OpenBabel03272514433D

 31 36  0  0  0  0  0  0  0  0999 V2000
   30.5710   25.7040   45.9830 C   0  0  0  0  0  3  0  0  0  0  0  0
   31.7580   26.4710   45.9360 C   0  0  0  0  0  3  0  0  0  0  0  0
   31.8960   27.4120   46.9400 C   0  0  0  0  0  0  0  0  0  0  0  0
   30.9150   27.5070   47.8410 N   0  0  0  0  0  0  0  0  0  0  0  0
   29.7950   26.7820   47.8850 C   0  0  0  0  0  0  0  0  0  0  0  0
   29.6440   25.8700   46.9250 N   0  0  0  0  0  0  0  0  0  0  0  0
   28.9340   27.1430   49.0030 C   0  0  0  0  0  0  0  0  0  0  0  0
   29.2780   26.8350   50.3040 C   0  0  0  0  0  3  0  0  0  0  0  0
   28.5110   27.1480   51.3940 C   0  0  0  0  0  3  0  0  0  0  0  0
   27.3060   27.8140   51.2390 C   0  0  0  0  0  3  0  0  0  0  0  0
   26.9300   28.1370   49.9650 C   0  0  0  0  0  0  0  0  0  0  0  0
   25.7270   28.8010   49.8110 C   0  0  0  0  0  3  0  0  0  0  0  0
   25.2660   29.1670   48.5690 C   0  0  0  0  0  3  0  0  0  0  0  0
   26.0840   28.8280   47.4730 C   0  0  0  0  0  3  0  0  0  0  0  0
   27.2690   28.1670   47.6800 C   0  0  0  0  0  3  0  0  0  0  0  0
   27.7300   27.8020   48.9080 C   0  0  0  0  0  0  0  0  0  0  0  0
   33.0610   28.2670   47.0220 N   0  0  0  0  0  0  0  0  0  0  0  0
   33.7090   28.4520   48.1630 C   0  0  0  0  0  3  0  0  0  0  0  0
   34.7390   29.2980   47.9130 C   0  0  0  0  0  0  0  0  0  0  0  0
   34.6860   29.6020   46.6280 N   0  0  0  0  0  0  0  0  0  0  0  0
   33.6520   28.9760   46.0450 C   0  0  0  0  0  3  0  0  0  0  0  0
   35.6170   29.6580   49.0520 C   0  0  0  0  0  0  0  0  0  0  0  0
   35.4870   29.1850   50.3090 N   0  0  0  0  0  0  0  0  0  0  0  0
   36.2610   29.4980   51.3340 C   0  0  0  0  0  3  0  0  0  0  0  0
   37.2910   30.3520   51.1980 N   0  0  0  0  0  0  0  0  0  0  0  0
   37.5070   30.8810   49.9820 C   0  0  0  0  0  0  0  0  0  0  0  0
   38.5580   31.7570   49.8310 C   0  0  0  0  0  3  0  0  0  0  0  0
   38.8390   32.3350   48.6180 C   0  0  0  0  0  3  0  0  0  0  0  0
   38.0160   32.0030   47.5340 C   0  0  0  0  0  3  0  0  0  0  0  0
   36.9830   31.1230   47.7470 C   0  0  0  0  0  3  0  0  0  0  0  0
   36.6750   30.5270   48.9430 C   0  0  0  0  0  0  0  0  0  0  0  0
  1  6  1  0  0  0  0
  2  1  2  0  0  0  0
  2  3  1  0  0  0  0
  3 17  1  0  0  0  0
  3  4  2  0  0  0  0
  4  5  1  0  0  0  0
  5  7  1  0  0  0  0
  6  5  2  0  0  0  0
  7  8  1  0  0  0  0
  8  9  2  0  0  0  0
 10  9  1  0  0  0  0
 11 10  2  0  0  0  0
 12 11  1  0  0  0  0
 13 12  2  0  0  0  0
 14 15  2  0  0  0  0
 14 13  1  0  0  0  0
 15 16  1  0  0  0  0
 16  7  2  0  0  0  0
 16 11  1  0  0  0  0
 17 18  1  0  0  0  0
 19 18  2  0  0  0  0
 19 22  1  0  0  0  0
 20 19  1  0  0  0  0
 21 20  2  0  0  0  0
 21 17  1  0  0  0  0
 22 23  1  0  0  0  0
 23 24  2  0  0  0  0
 25 24  1  0  0  0  0
 26 25  2  0  0  0  0
 27 26  1  0  0  0  0
 28 27  2  0  0  0  0
 29 30  2  0  0  0  0
 29 28  1  0  0  0  0
 30 31  1  0  0  0  0
 31 22  2  0  0  0  0
 31 26  1  0  0  0  0
M  END
>  <minimizedAffinity>
-8.70168686

$$$$

 OpenBabel03272514433D

 31 36  0  0  0  0  0  0  0  0999 V2000
   31.8930   25.8270   47.7980 C   0  0  0  0  0  3  0  0  0  0  0  0
   30.6400   26.4780   47.7350 C   0  0  0  0  0  3  0  0  0  0  0  0
   30.6920   27.8510   47.5690 C   0  0  0  0  0  0  0  0  0  0  0  0
   31.8970   28.4200   47.4880 N   0  0  0  0  0  0  0  0  0  0  0  0
   33.0800   27.8040   47.5480 C   0  0  0  0  0  0  0  0  0  0  0  0
   33.0490   26.4810   47.7070 N   0  0  0  0  0  0  0  0  0  0  0  0
   34.2020   28.7260   47.4260 C   0  0  0  0  0  0  0  0  0  0  0  0
   34.5670   29.2560   46.2050 C   0  0  0  0  0  3  0  0  0  0  0  0
   35.6100   30.1250   46.0290 C   0  0  0  0  0  3  0  0  0  0  0  0
   36.3800   30.5300   47.1080 C   0  0  0  0  0  3  0  0  0  0  0  0
   36.0490   30.0250   48.3350 C   0  0  0  0  0  0  0  0  0  0  0  0
   36.8180   30.4290   49.4100 C   0  0  0  0  0  3  0  0  0  0  0  0
   36.5630   29.9750   50.6820 C   0  0  0  0  0  3  0  0  0  0  0  0
   35.4810   29.0830   50.8230 C   0  0  0  0  0  3  0  0  0  0  0  0
   34.7490   28.7130   49.7220 C   0  0  0  0  0  3  0  0  0  0  0  0
   34.9990   29.1590   48.4610 C   0  0  0  0  0  0  0  0  0  0  0  0
   29.4890   28.6500   47.4830 N   0  0  0  0  0  0  0  0  0  0  0  0
   29.1380   29.2590   46.3590 C   0  0  0  0  0  3  0  0  0  0  0  0
   27.9790   29.9220   46.6010 C   0  0  0  0  0  0  0  0  0  0  0  0
   27.6610   29.6960   47.8640 N   0  0  0  0  0  0  0  0  0  0  0  0
   28.5820   28.9070   48.4410 C   0  0  0  0  0  3  0  0  0  0  0  0
   27.3860   30.6870   45.4800 C   0  0  0  0  0  0  0  0  0  0  0  0
   27.5430   30.3940   44.1720 N   0  0  0  0  0  0  0  0  0  0  0  0
   27.0210   31.0670   43.1620 C   0  0  0  0  0  3  0  0  0  0  0  0
   26.2510   32.1500   43.3670 N   0  0  0  0  0  0  0  0  0  0  0  0
   26.0320   32.5280   44.6370 C   0  0  0  0  0  0  0  0  0  0  0  0
   25.2440   33.6370   44.8590 C   0  0  0  0  0  3  0  0  0  0  0  0
   24.9770   34.0800   46.1300 C   0  0  0  0  0  3  0  0  0  0  0  0
   25.5330   33.3650   47.1990 C   0  0  0  0  0  3  0  0  0  0  0  0
   26.3090   32.2680   46.9140 C   0  0  0  0  0  3  0  0  0  0  0  0
   26.5960   31.7970   45.6580 C   0  0  0  0  0  0  0  0  0  0  0  0
  2  1  1  0  0  0  0
  3  2  2  0  0  0  0
  4  5  2  0  0  0  0
  4  3  1  0  0  0  0
  5  6  1  0  0  0  0
  6  1  2  0  0  0  0
  7  5  1  0  0  0  0
  7 16  1  0  0  0  0
  8  7  2  0  0  0  0
  9  8  1  0  0  0  0
  9 10  2  0  0  0  0
 10 11  1  0  0  0  0
 11 16  2  0  0  0  0
 11 12  1  0  0  0  0
 12 13  2  0  0  0  0
 13 14  1  0  0  0  0
 15 14  2  0  0  0  0
 16 15  1  0  0  0  0
 17  3  1  0  0  0  0
 17 21  1  0  0  0  0
 18 19  2  0  0  0  0
 18 17  1  0  0  0  0
 19 20  1  0  0  0  0
 20 21  2  0  0  0  0
 22 31  1  0  0  0  0
 22 19  1  0  0  0  0
 23 22  2  0  0  0  0
 24 25  2  0  0  0  0
 24 23  1  0  0  0  0
 25 26  1  0  0  0  0
 26 27  2  0  0  0  0
 26 31  1  0  0  0  0
 27 28  1  0  0  0  0
 28 29  2  0  0  0  0
 30 29  1  0  0  0  0
 31 30  2  0  0  0  0
M  END
>  <minimizedAffinity>
-8.47190285

$$$$

 OpenBabel03272514433D

 31 36  0  0  0  0  0  0  0  0999 V2000
   34.2680   30.0370   44.0530 C   0  0  0  0  0  3  0  0  0  0  0  0
   33.2360   29.1500   44.4360 C   0  0  0  0  0  3  0  0  0  0  0  0
   33.2900   28.7070   45.7450 C   0  0  0  0  0  0  0  0  0  0  0  0
   34.2920   29.1490   46.5090 N   0  0  0  0  0  0  0  0  0  0  0  0
   35.2660   29.9870   46.1460 C   0  0  0  0  0  0  0  0  0  0  0  0
   35.2310   30.4240   44.8880 N   0  0  0  0  0  0  0  0  0  0  0  0
   36.2030   30.2640   47.2280 C   0  0  0  0  0  0  0  0  0  0  0  0
   37.4160   30.8770   46.9880 C   0  0  0  0  0  3  0  0  0  0  0  0
   38.3350   31.1630   47.9620 C   0  0  0  0  0  3  0  0  0  0  0  0
   38.0840   30.8360   49.2850 C   0  0  0  0  0  3  0  0  0  0  0  0
   36.8920   30.2260   49.5620 C   0  0  0  0  0  0  0  0  0  0  0  0
   36.6430   29.9010   50.8830 C   0  0  0  0  0  3  0  0  0  0  0  0
   35.4730   29.2860   51.2590 C   0  0  0  0  0  3  0  0  0  0  0  0
   34.5520   29.0100   50.2290 C   0  0  0  0  0  3  0  0  0  0  0  0
   34.8480   29.3530   48.9330 C   0  0  0  0  0  3  0  0  0  0  0  0
   36.0060   29.9610   48.5560 C   0  0  0  0  0  0  0  0  0  0  0  0
   32.2980   27.8000   46.2800 N   0  0  0  0  0  0  0  0  0  0  0  0
   31.4880   28.1560   47.2670 C   0  0  0  0  0  3  0  0  0  0  0  0
   30.6870   27.0960   47.5390 C   0  0  0  0  0  0  0  0  0  0  0  0
   31.0340   26.1270   46.7100 N   0  0  0  0  0  0  0  0  0  0  0  0
   32.0350   26.5340   45.9120 C   0  0  0  0  0  3  0  0  0  0  0  0
   29.6870   27.2580   48.6200 C   0  0  0  0  0  0  0  0  0  0  0  0
   29.8940   26.9560   49.9180 N   0  0  0  0  0  0  0  0  0  0  0  0
   29.0120   27.0940   50.8930 C   0  0  0  0  0  3  0  0  0  0  0  0
   27.7780   27.5720   50.6560 N   0  0  0  0  0  0  0  0  0  0  0  0
   27.4690   27.9050   49.3920 C   0  0  0  0  0  0  0  0  0  0  0  0
   26.2070   28.3960   49.1380 C   0  0  0  0  0  3  0  0  0  0  0  0
   25.8230   28.7560   47.8700 C   0  0  0  0  0  3  0  0  0  0  0  0
   26.7600   28.6070   46.8390 C   0  0  0  0  0  3  0  0  0  0  0  0
   28.0020   28.1120   47.1550 C   0  0  0  0  0  3  0  0  0  0  0  0
   28.4200   27.7440   48.4080 C   0  0  0  0  0  0  0  0  0  0  0  0
  1  2  2  0  0  0  0
  1  6  1  0  0  0  0
  2  3  1  0  0  0  0
  3 17  1  0  0  0  0
  3  4  2  0  0  0  0
  5  4  1  0  0  0  0
  5  7  1  0  0  0  0
  6  5  2  0  0  0  0
  7 16  1  0  0  0  0
  8  7  2  0  0  0  0
  8  9  1  0  0  0  0
  9 10  2  0  0  0  0
 10 11  1  0  0  0  0
 11 12  1  0  0  0  0
 12 13  2  0  0  0  0
 14 13  1  0  0  0  0
 15 14  2  0  0  0  0
 16 15  1  0  0  0  0
 16 11  2  0  0  0  0
 17 18  1  0  0  0  0
 18 19  2  0  0  0  0
 19 22  1  0  0  0  0
 20 19  1  0  0  0  0
 21 17  1  0  0  0  0
 21 20  2  0  0  0  0
 22 23  1  0  0  0  0
 23 24  2  0  0  0  0
 25 24  1  0  0  0  0
 26 25  2  0  0  0  0
 27 26  1  0  0  0  0
 28 27  2  0  0  0  0
 29 30  2  0  0  0  0
 29 28  1  0  0  0  0
 30 31  1  0  0  0  0
 31 22  2  0  0  0  0
 31 26  1  0  0  0  0
M  END
>  <minimizedAffinity>
-8.21507931

$$$$
