
 OpenBabel03272514403D

 31 36  0  0  1  0  0  0  0  0999 V2000
   31.5620   26.9310   45.2930 N   0  0  0  0  0  0  0  0  0  0  0  0
   31.3620   25.7540   44.4150 C   0  0  0  0  0  2  0  0  0  0  0  0
   32.4760   25.7330   43.4440 C   0  0  0  0  0  2  0  0  0  0  0  0
   33.3690   26.8570   43.9510 C   0  0  0  0  0  2  0  0  0  0  0  0
   32.3490   27.8350   44.4530 C   0  0  2  0  0  3  0  0  0  0  0  0
   32.9890   28.8110   45.3310 C   0  0  0  0  0  0  0  0  0  0  0  0
   32.4590   29.9320   45.8670 C   0  0  0  0  0  3  0  0  0  0  0  0
   33.4700   30.5450   46.6210 C   0  0  0  0  0  3  0  0  0  0  0  0
   34.5710   29.7550   46.5000 N   0  0  0  0  0  0  0  0  0  0  0  0
   34.2820   28.7080   45.7220 N   0  0  0  0  0  0  0  0  0  0  0  0
   35.7740   30.1290   47.1670 C   0  0  0  0  0  0  0  0  0  0  0  0
   36.7690   30.7130   46.4580 N   0  0  0  0  0  0  0  0  0  0  0  0
   37.9280   31.0900   47.0250 C   0  0  0  0  0  3  0  0  0  0  0  0
   38.1450   30.8980   48.3270 N   0  0  0  0  0  0  0  0  0  0  0  0
   37.2060   30.3220   49.1070 C   0  0  0  0  0  0  0  0  0  0  0  0
   37.4030   30.1130   50.4480 C   0  0  0  0  0  3  0  0  0  0  0  0
   36.4210   29.5150   51.2440 C   0  0  0  0  0  3  0  0  0  0  0  0
   35.2420   29.1410   50.6270 C   0  0  0  0  0  3  0  0  0  0  0  0
   35.0370   29.3480   49.2720 C   0  0  0  0  0  3  0  0  0  0  0  0
   36.0280   29.9450   48.5090 C   0  0  0  0  0  0  0  0  0  0  0  0
   29.8050   27.2000   48.3730 C   0  0  0  0  0  0  0  0  0  0  0  0
   31.0690   26.7930   48.8120 C   0  0  0  0  0  3  0  0  0  0  0  0
   31.8810   26.6460   47.6820 C   0  0  0  0  0  3  0  0  0  0  0  0
   31.0270   26.9820   46.6170 C   0  0  0  0  0  0  0  0  0  0  0  0
   29.8700   27.2850   47.0650 O   0  0  0  0  0  0  0  0  0  0  0  0
   28.1000   27.0890   51.5870 C   0  0  0  0  0  3  0  0  0  0  0  0
   26.9100   27.7720   51.3470 C   0  0  0  0  0  3  0  0  0  0  0  0
   26.6940   28.2800   50.0500 C   0  0  0  0  0  3  0  0  0  0  0  0
   27.6300   28.0970   49.0870 N   0  0  0  0  0  0  0  0  0  0  0  0
   28.7820   27.4190   49.3740 C   0  0  0  0  0  0  0  0  0  0  0  0
   28.9970   26.9320   50.6030 N   0  0  0  0  0  0  0  0  0  0  0  0
  1 24  1  0  0  0  0
  2  1  1  0  0  0  0
  3  4  1  0  0  0  0
  3  2  1  0  0  0  0
  4  5  1  0  0  0  0
  5  1  1  0  0  0  0
  5  6  1  1  0  0  0
  6 10  2  0  0  0  0
  6  7  1  0  0  0  0
  7  8  2  0  0  0  0
  9  8  1  0  0  0  0
  9 11  1  0  0  0  0
 10  9  1  0  0  0  0
 11 20  1  0  0  0  0
 12 13  1  0  0  0  0
 12 11  2  0  0  0  0
 13 14  2  0  0  0  0
 14 15  1  0  0  0  0
 15 16  1  0  0  0  0
 16 17  2  0  0  0  0
 18 17  1  0  0  0  0
 19 18  2  0  0  0  0
 20 15  2  0  0  0  0
 20 19  1  0  0  0  0
 21 22  2  0  0  0  0
 21 30  1  0  0  0  0
 23 22  1  0  0  0  0
 24 25  1  0  0  0  0
 24 23  2  0  0  0  0
 25 21  1  0  0  0  0
 27 26  1  0  0  0  0
 28 27  2  0  0  0  0
 29 30  2  0  0  0  0
 29 28  1  0  0  0  0
 30 31  1  0  0  0  0
 31 26  2  0  0  0  0
M  END
>  <minimizedAffinity>
-7.63362694

$$$$

 OpenBabel03272514403D

 31 36  0  0  1  0  0  0  0  0999 V2000
   30.5030   30.0970   44.8300 N   0  0  0  0  0  0  0  0  0  0  0  0
   29.6550   30.4830   43.6770 C   0  0  0  0  0  2  0  0  0  0  0  0
   30.5600   30.8290   42.5610 C   0  0  0  0  0  2  0  0  0  0  0  0
   31.9240   30.4480   43.1190 C   0  0  0  0  0  2  0  0  0  0  0  0
   31.7560   30.8060   44.5650 C   0  0  2  0  0  3  0  0  0  0  0  0
   32.8020   30.1650   45.3590 C   0  0  0  0  0  0  0  0  0  0  0  0
   33.5930   29.1240   45.0210 C   0  0  0  0  0  3  0  0  0  0  0  0
   34.4220   28.8630   46.1210 C   0  0  0  0  0  3  0  0  0  0  0  0
   34.0850   29.7680   47.0780 N   0  0  0  0  0  0  0  0  0  0  0  0
   33.1070   30.5560   46.6200 N   0  0  0  0  0  0  0  0  0  0  0  0
   34.7680   29.7480   48.3290 C   0  0  0  0  0  0  0  0  0  0  0  0
   34.1660   29.1830   49.4020 N   0  0  0  0  0  0  0  0  0  0  0  0
   34.7550   29.1310   50.6100 C   0  0  0  0  0  3  0  0  0  0  0  0
   35.9720   29.6420   50.7990 N   0  0  0  0  0  0  0  0  0  0  0  0
   36.6430   30.2230   49.7820 C   0  0  0  0  0  0  0  0  0  0  0  0
   37.8960   30.7560   49.9490 C   0  0  0  0  0  3  0  0  0  0  0  0
   38.5790   31.3560   48.8860 C   0  0  0  0  0  3  0  0  0  0  0  0
   37.9430   31.3920   47.6590 C   0  0  0  0  0  3  0  0  0  0  0  0
   36.6770   30.8550   47.4850 C   0  0  0  0  0  3  0  0  0  0  0  0
   36.0250   30.2670   48.5560 C   0  0  0  0  0  0  0  0  0  0  0  0
   29.1900   28.3540   47.6370 C   0  0  0  0  0  0  0  0  0  0  0  0
   29.5860   27.2940   46.8160 C   0  0  0  0  0  3  0  0  0  0  0  0
   30.1330   27.8440   45.6510 C   0  0  0  0  0  3  0  0  0  0  0  0
   30.0230   29.2300   45.8590 C   0  0  0  0  0  0  0  0  0  0  0  0
   29.4840   29.4590   46.9940 O   0  0  0  0  0  0  0  0  0  0  0  0
   26.7140   28.2060   50.3010 C   0  0  0  0  0  3  0  0  0  0  0  0
   27.3540   27.4760   51.2990 C   0  0  0  0  0  3  0  0  0  0  0  0
   28.6650   27.0250   51.0450 C   0  0  0  0  0  3  0  0  0  0  0  0
   29.2610   27.3080   49.8610 N   0  0  0  0  0  0  0  0  0  0  0  0
   28.5890   28.0290   48.9140 C   0  0  0  0  0  0  0  0  0  0  0  0
   27.3430   28.4620   49.1450 N   0  0  0  0  0  0  0  0  0  0  0  0
  1 24  1  0  0  0  0
  2  1  1  0  0  0  0
  3  4  1  0  0  0  0
  3  2  1  0  0  0  0
  4  5  1  0  0  0  0
  5  1  1  0  0  0  0
  5  6  1  1  0  0  0
  6 10  2  0  0  0  0
  7  6  1  0  0  0  0
  7  8  2  0  0  0  0
  8  9  1  0  0  0  0
  9 11  1  0  0  0  0
 10  9  1  0  0  0  0
 11 20  2  0  0  0  0
 11 12  1  0  0  0  0
 12 13  2  0  0  0  0
 13 14  1  0  0  0  0
 15 16  1  0  0  0  0
 15 14  2  0  0  0  0
 17 16  2  0  0  0  0
 18 17  1  0  0  0  0
 19 18  2  0  0  0  0
 19 20  1  0  0  0  0
 20 15  1  0  0  0  0
 21 30  1  0  0  0  0
 22 21  2  0  0  0  0
 23 24  2  0  0  0  0
 23 22  1  0  0  0  0
 24 25  1  0  0  0  0
 25 21  1  0  0  0  0
 26 27  1  0  0  0  0
 28 27  2  0  0  0  0
 29 28  1  0  0  0  0
 30 31  1  0  0  0  0
 30 29  2  0  0  0  0
 31 26  2  0  0  0  0
M  END
>  <minimizedAffinity>
-7.35233927

$$$$

 OpenBabel03272514403D

 31 36  0  0  1  0  0  0  0  0999 V2000
   36.7660   30.7650   49.3740 N   0  0  0  0  0  0  0  0  0  0  0  0
   37.5220   30.7970   50.6490 C   0  0  0  0  0  2  0  0  0  0  0  0
   36.9150   29.7920   51.5460 C   0  0  0  0  0  2  0  0  0  0  0  0
   35.9090   29.1060   50.6330 C   0  0  0  0  0  2  0  0  0  0  0  0
   35.4560   30.2570   49.7840 C   0  0  2  0  0  3  0  0  0  0  0  0
   34.7840   29.7550   48.5890 C   0  0  0  0  0  0  0  0  0  0  0  0
   34.7990   28.5040   48.0790 C   0  0  0  0  0  3  0  0  0  0  0  0
   34.0210   28.5250   46.9130 C   0  0  0  0  0  3  0  0  0  0  0  0
   33.5700   29.8010   46.7750 N   0  0  0  0  0  0  0  0  0  0  0  0
   34.0300   30.5460   47.7860 N   0  0  0  0  0  0  0  0  0  0  0  0
   32.7410   30.1330   45.6640 C   0  0  0  0  0  0  0  0  0  0  0  0
   33.2840   30.7740   44.6020 N   0  0  0  0  0  0  0  0  0  0  0  0
   32.5580   31.1150   43.5230 C   0  0  0  0  0  3  0  0  0  0  0  0
   31.2570   30.8320   43.4580 N   0  0  0  0  0  0  0  0  0  0  0  0
   30.6370   30.1950   44.4740 C   0  0  0  0  0  0  0  0  0  0  0  0
   29.3000   29.8910   44.4320 C   0  0  0  0  0  3  0  0  0  0  0  0
   28.6700   29.2310   45.4930 C   0  0  0  0  0  3  0  0  0  0  0  0
   29.4470   28.8960   46.5850 C   0  0  0  0  0  3  0  0  0  0  0  0
   30.7980   29.2000   46.6330 C   0  0  0  0  0  3  0  0  0  0  0  0
   31.3950   29.8540   45.5670 C   0  0  0  0  0  0  0  0  0  0  0  0
   37.9320   31.4680   46.0900 C   0  0  0  0  0  0  0  0  0  0  0  0
   38.7000   32.3560   46.8500 C   0  0  0  0  0  3  0  0  0  0  0  0
   38.3390   32.1850   48.1910 C   0  0  0  0  0  3  0  0  0  0  0  0
   37.3540   31.1820   48.1410 C   0  0  0  0  0  0  0  0  0  0  0  0
   37.1660   30.8160   46.9320 O   0  0  0  0  0  0  0  0  0  0  0  0
   38.5910   32.7140   42.7340 C   0  0  0  0  0  3  0  0  0  0  0  0
   38.5230   31.5700   41.9430 C   0  0  0  0  0  3  0  0  0  0  0  0
   38.2450   30.3450   42.5830 C   0  0  0  0  0  3  0  0  0  0  0  0
   38.0540   30.3100   43.9240 N   0  0  0  0  0  0  0  0  0  0  0  0
   38.1320   31.4630   44.6560 C   0  0  0  0  0  0  0  0  0  0  0  0
   38.3960   32.6310   44.0580 N   0  0  0  0  0  0  0  0  0  0  0  0
  1  5  1  0  0  0  0
  1  2  1  0  0  0  0
  2  3  1  0  0  0  0
  4  3  1  0  0  0  0
  5  6  1  6  0  0  0
  5  4  1  0  0  0  0
  7  6  1  0  0  0  0
  8  7  2  0  0  0  0
  9  8  1  0  0  0  0
  9 10  1  0  0  0  0
 10  6  2  0  0  0  0
 11  9  1  0  0  0  0
 12 11  2  0  0  0  0
 13 12  1  0  0  0  0
 14 13  2  0  0  0  0
 14 15  1  0  0  0  0
 15 20  1  0  0  0  0
 16 15  2  0  0  0  0
 16 17  1  0  0  0  0
 17 18  2  0  0  0  0
 18 19  1  0  0  0  0
 20 11  1  0  0  0  0
 20 19  2  0  0  0  0
 21 22  2  0  0  0  0
 21 25  1  0  0  0  0
 22 23  1  0  0  0  0
 24 23  2  0  0  0  0
 24  1  1  0  0  0  0
 25 24  1  0  0  0  0
 26 31  1  0  0  0  0
 27 28  1  0  0  0  0
 27 26  2  0  0  0  0
 28 29  2  0  0  0  0
 29 30  1  0  0  0  0
 30 21  1  0  0  0  0
 31 30  2  0  0  0  0
M  END
>  <minimizedAffinity>
-6.85560465

$$$$

 OpenBabel03272514403D

 31 36  0  0  1  0  0  0  0  0999 V2000
   37.6900   31.3060   48.4380 N   0  0  0  0  0  0  0  0  0  0  0  0
   37.9710   32.0220   49.7050 C   0  0  0  0  0  2  0  0  0  0  0  0
   38.8750   33.1460   49.3850 C   0  0  0  0  0  2  0  0  0  0  0  0
   38.9280   33.0970   47.8640 C   0  0  0  0  0  2  0  0  0  0  0  0
   38.8620   31.6190   47.6190 C   0  0  2  0  0  3  0  0  0  0  0  0
   38.5080   31.3640   46.2250 C   0  0  0  0  0  0  0  0  0  0  0  0
   38.6940   30.2370   45.5040 C   0  0  0  0  0  3  0  0  0  0  0  0
   38.2080   30.4890   44.2140 C   0  0  0  0  0  3  0  0  0  0  0  0
   37.7500   31.7700   44.2190 N   0  0  0  0  0  0  0  0  0  0  0  0
   37.9300   32.3000   45.4330 N   0  0  0  0  0  0  0  0  0  0  0  0
   37.1900   32.3160   43.0280 C   0  0  0  0  0  0  0  0  0  0  0  0
   37.9390   33.1490   42.2670 N   0  0  0  0  0  0  0  0  0  0  0  0
   37.4710   33.6980   41.1320 C   0  0  0  0  0  3  0  0  0  0  0  0
   36.2330   33.4390   40.7080 N   0  0  0  0  0  0  0  0  0  0  0  0
   35.4200   32.6200   41.4070 C   0  0  0  0  0  0  0  0  0  0  0  0
   34.1430   32.3360   40.9930 C   0  0  0  0  0  3  0  0  0  0  0  0
   33.3120   31.4860   41.7280 C   0  0  0  0  0  3  0  0  0  0  0  0
   33.8260   30.9390   42.8890 C   0  0  0  0  0  3  0  0  0  0  0  0
   35.1150   31.2220   43.3130 C   0  0  0  0  0  3  0  0  0  0  0  0
   35.9160   32.0680   42.5630 C   0  0  0  0  0  0  0  0  0  0  0  0
   34.6010   29.7320   47.6480 C   0  0  0  0  0  0  0  0  0  0  0  0
   35.1050   28.8710   48.6280 C   0  0  0  0  0  3  0  0  0  0  0  0
   36.3440   29.3790   49.0380 C   0  0  0  0  0  3  0  0  0  0  0  0
   36.5000   30.5370   48.2570 C   0  0  0  0  0  0  0  0  0  0  0  0
   35.4880   30.6860   47.4910 O   0  0  0  0  0  0  0  0  0  0  0  0
   31.5440   30.1140   45.7100 C   0  0  0  0  0  3  0  0  0  0  0  0
   30.8760   28.9090   45.9150 C   0  0  0  0  0  3  0  0  0  0  0  0
   31.4960   27.9460   46.7370 C   0  0  0  0  0  3  0  0  0  0  0  0
   32.7010   28.2110   47.2990 N   0  0  0  0  0  0  0  0  0  0  0  0
   33.3150   29.4100   47.0660 C   0  0  0  0  0  0  0  0  0  0  0  0
   32.7350   30.3310   46.2860 N   0  0  0  0  0  0  0  0  0  0  0  0
  1  2  1  0  0  0  0
  3  2  1  0  0  0  0
  4  3  1  0  0  0  0
  5  6  1  6  0  0  0
  5  4  1  0  0  0  0
  5  1  1  0  0  0  0
  7  6  1  0  0  0  0
  8  9  1  0  0  0  0
  8  7  2  0  0  0  0
  9 10  1  0  0  0  0
 10  6  2  0  0  0  0
 11  9  1  0  0  0  0
 12 11  2  0  0  0  0
 13 12  1  0  0  0  0
 14 13  2  0  0  0  0
 14 15  1  0  0  0  0
 15 20  1  0  0  0  0
 16 15  2  0  0  0  0
 16 17  1  0  0  0  0
 17 18  2  0  0  0  0
 18 19  1  0  0  0  0
 20 11  1  0  0  0  0
 20 19  2  0  0  0  0
 21 22  2  0  0  0  0
 22 23  1  0  0  0  0
 24  1  1  0  0  0  0
 24 23  2  0  0  0  0
 25 21  1  0  0  0  0
 25 24  1  0  0  0  0
 26 27  2  0  0  0  0
 26 31  1  0  0  0  0
 27 28  1  0  0  0  0
 28 29  2  0  0  0  0
 30 29  1  0  0  0  0
 30 21  1  0  0  0  0
 31 30  2  0  0  0  0
M  END
>  <minimizedAffinity>
-6.73637772

$$$$

 OpenBabel03272514403D

 31 36  0  0  1  0  0  0  0  0999 V2000
   27.5060   28.4370   49.3970 N   0  0  0  0  0  0  0  0  0  0  0  0
   27.2520   28.1420   50.8270 C   0  0  0  0  0  2  0  0  0  0  0  0
   28.2670   27.1610   51.2620 C   0  0  0  0  0  2  0  0  0  0  0  0
   29.1770   27.0730   50.0450 C   0  0  0  0  0  2  0  0  0  0  0  0
   28.1860   27.2280   48.9300 C   0  0  2  0  0  3  0  0  0  0  0  0
   28.8830   27.5630   47.6910 C   0  0  0  0  0  0  0  0  0  0  0  0
   28.6230   27.1300   46.4380 C   0  0  0  0  0  3  0  0  0  0  0  0
   29.5770   27.7150   45.5950 C   0  0  0  0  0  3  0  0  0  0  0  0
   30.3750   28.4800   46.3890 N   0  0  0  0  0  0  0  0  0  0  0  0
   29.9560   28.3890   47.6550 N   0  0  0  0  0  0  0  0  0  0  0  0
   31.4520   29.2070   45.8030 C   0  0  0  0  0  0  0  0  0  0  0  0
   32.7120   28.7230   45.9100 N   0  0  0  0  0  0  0  0  0  0  0  0
   33.7720   29.3600   45.3810 C   0  0  0  0  0  3  0  0  0  0  0  0
   33.6180   30.5090   44.7230 N   0  0  0  0  0  0  0  0  0  0  0  0
   32.3960   31.0610   44.5700 C   0  0  0  0  0  0  0  0  0  0  0  0
   32.2110   32.2420   43.8960 C   0  0  0  0  0  3  0  0  0  0  0  0
   30.9390   32.8020   43.7470 C   0  0  0  0  0  3  0  0  0  0  0  0
   29.8730   32.1210   44.3030 C   0  0  0  0  0  3  0  0  0  0  0  0
   30.0530   30.9280   44.9850 C   0  0  0  0  0  3  0  0  0  0  0  0
   31.3260   30.3960   45.1170 C   0  0  0  0  0  0  0  0  0  0  0  0
   26.4830   31.2530   47.4820 C   0  0  0  0  0  0  0  0  0  0  0  0
   26.5660   31.8070   48.7630 C   0  0  0  0  0  3  0  0  0  0  0  0
   26.9670   30.7900   49.6380 C   0  0  0  0  0  3  0  0  0  0  0  0
   27.0990   29.6690   48.7990 C   0  0  0  0  0  0  0  0  0  0  0  0
   26.8130   29.9880   47.5960 O   0  0  0  0  0  0  0  0  0  0  0  0
   24.9920   34.0930   45.7610 C   0  0  0  0  0  3  0  0  0  0  0  0
   25.2670   33.8410   44.4200 C   0  0  0  0  0  3  0  0  0  0  0  0
   25.9830   32.6680   44.1050 C   0  0  0  0  0  3  0  0  0  0  0  0
   26.3770   31.8300   45.0940 N   0  0  0  0  0  0  0  0  0  0  0  0
   26.0810   32.1230   46.3970 C   0  0  0  0  0  0  0  0  0  0  0  0
   25.4030   33.2350   46.7070 N   0  0  0  0  0  0  0  0  0  0  0  0
  1  2  1  0  0  0  0
  2  3  1  0  0  0  0
  4  3  1  0  0  0  0
  5  6  1  6  0  0  0
  5  1  1  0  0  0  0
  5  4  1  0  0  0  0
  7  6  1  0  0  0  0
  8  9  1  0  0  0  0
  8  7  2  0  0  0  0
  9 10  1  0  0  0  0
 10  6  2  0  0  0  0
 11 12  1  0  0  0  0
 11  9  1  0  0  0  0
 13 12  2  0  0  0  0
 14 13  1  0  0  0  0
 15 14  2  0  0  0  0
 15 20  1  0  0  0  0
 16 15  1  0  0  0  0
 17 16  2  0  0  0  0
 17 18  1  0  0  0  0
 18 19  2  0  0  0  0
 19 20  1  0  0  0  0
 20 11  2  0  0  0  0
 21 25  1  0  0  0  0
 21 22  2  0  0  0  0
 22 23  1  0  0  0  0
 24  1  1  0  0  0  0
 24 23  2  0  0  0  0
 25 24  1  0  0  0  0
 26 31  1  0  0  0  0
 27 26  2  0  0  0  0
 28 27  1  0  0  0  0
 28 29  2  0  0  0  0
 29 30  1  0  0  0  0
 30 31  2  0  0  0  0
 30 21  1  0  0  0  0
M  END
>  <minimizedAffinity>
-6.73534775

$$$$

 OpenBabel03272514403D

 31 36  0  0  1  0  0  0  0  0999 V2000
   36.8730   30.6570   49.0780 N   0  0  0  0  0  0  0  0  0  0  0  0
   37.9000   31.1750   50.0120 C   0  0  0  0  0  2  0  0  0  0  0  0
   37.6840   30.5130   51.3160 C   0  0  0  0  0  2  0  0  0  0  0  0
   36.6000   29.4960   50.9870 C   0  0  0  0  0  2  0  0  0  0  0  0
   35.7910   30.2500   49.9750 C   0  0  2  0  0  3  0  0  0  0  0  0
   34.9320   29.3250   49.2400 C   0  0  0  0  0  0  0  0  0  0  0  0
   35.0850   27.9940   49.0660 C   0  0  0  0  0  3  0  0  0  0  0  0
   34.0160   27.5580   48.2710 C   0  0  0  0  0  3  0  0  0  0  0  0
   33.2630   28.6580   48.0020 N   0  0  0  0  0  0  0  0  0  0  0  0
   33.8150   29.7260   48.5860 N   0  0  0  0  0  0  0  0  0  0  0  0
   32.0920   28.5230   47.2010 C   0  0  0  0  0  0  0  0  0  0  0  0
   32.1360   28.8880   45.8980 N   0  0  0  0  0  0  0  0  0  0  0  0
   31.0670   28.7860   45.0880 C   0  0  0  0  0  3  0  0  0  0  0  0
   29.9060   28.3160   45.5460 N   0  0  0  0  0  0  0  0  0  0  0  0
   29.7760   27.9300   46.8330 C   0  0  0  0  0  0  0  0  0  0  0  0
   28.5930   27.4430   47.3290 C   0  0  0  0  0  3  0  0  0  0  0  0
   28.4730   27.0480   48.6650 C   0  0  0  0  0  3  0  0  0  0  0  0
   29.5910   27.1660   49.4680 C   0  0  0  0  0  3  0  0  0  0  0  0
   30.7890   27.6580   48.9730 C   0  0  0  0  0  3  0  0  0  0  0  0
   30.8790   28.0410   47.6440 C   0  0  0  0  0  0  0  0  0  0  0  0
   36.8950   30.5590   45.5230 C   0  0  0  0  0  0  0  0  0  0  0  0
   38.2460   30.7850   45.8000 C   0  0  0  0  0  3  0  0  0  0  0  0
   38.3870   30.8480   47.1920 C   0  0  0  0  0  3  0  0  0  0  0  0
   37.0780   30.6500   47.6640 C   0  0  0  0  0  0  0  0  0  0  0  0
   36.2780   30.4930   46.6800 O   0  0  0  0  0  0  0  0  0  0  0  0
   35.6280   29.1020   42.4370 C   0  0  0  0  0  3  0  0  0  0  0  0
   35.7260   30.1460   41.5210 C   0  0  0  0  0  3  0  0  0  0  0  0
   36.2380   31.3760   41.9790 C   0  0  0  0  0  3  0  0  0  0  0  0
   36.6170   31.5120   43.2740 N   0  0  0  0  0  0  0  0  0  0  0  0
   36.5000   30.4560   44.1340 C   0  0  0  0  0  0  0  0  0  0  0  0
   36.0150   29.2820   43.7090 N   0  0  0  0  0  0  0  0  0  0  0  0
  1  5  1  0  0  0  0
  1  2  1  0  0  0  0
  2  3  1  0  0  0  0
  4  3  1  0  0  0  0
  5  6  1  6  0  0  0
  5  4  1  0  0  0  0
  7  6  1  0  0  0  0
  8  7  2  0  0  0  0
  9  8  1  0  0  0  0
  9 10  1  0  0  0  0
 10  6  2  0  0  0  0
 11 20  1  0  0  0  0
 11  9  1  0  0  0  0
 12 11  2  0  0  0  0
 13 14  2  0  0  0  0
 13 12  1  0  0  0  0
 14 15  1  0  0  0  0
 15 16  2  0  0  0  0
 15 20  1  0  0  0  0
 16 17  1  0  0  0  0
 17 18  2  0  0  0  0
 19 18  1  0  0  0  0
 20 19  2  0  0  0  0
 21 22  2  0  0  0  0
 21 25  1  0  0  0  0
 22 23  1  0  0  0  0
 23 24  2  0  0  0  0
 24  1  1  0  0  0  0
 25 24  1  0  0  0  0
 26 31  1  0  0  0  0
 27 28  1  0  0  0  0
 27 26  2  0  0  0  0
 28 29  2  0  0  0  0
 29 30  1  0  0  0  0
 30 21  1  0  0  0  0
 31 30  2  0  0  0  0
M  END
>  <minimizedAffinity>
-6.69009495

$$$$

 OpenBabel03272514403D

 31 36  0  0  1  0  0  0  0  0999 V2000
   37.0930   30.6740   49.4790 N   0  0  0  0  0  0  0  0  0  0  0  0
   38.0150   30.6600   50.6400 C   0  0  0  0  0  2  0  0  0  0  0  0
   37.4140   29.7860   51.6690 C   0  0  0  0  0  2  0  0  0  0  0  0
   36.2130   29.2020   50.9380 C   0  0  0  0  0  2  0  0  0  0  0  0
   35.7980   30.3640   50.0870 C   0  0  2  0  0  3  0  0  0  0  0  0
   34.9090   29.9060   49.0220 C   0  0  0  0  0  0  0  0  0  0  0  0
   34.6850   30.4690   47.8150 C   0  0  0  0  0  3  0  0  0  0  0  0
   33.7370   29.6720   47.1590 C   0  0  0  0  0  3  0  0  0  0  0  0
   33.4320   28.6570   48.0110 N   0  0  0  0  0  0  0  0  0  0  0  0
   34.1390   28.7970   49.1370 N   0  0  0  0  0  0  0  0  0  0  0  0
   32.4810   27.6730   47.6140 C   0  0  0  0  0  0  0  0  0  0  0  0
   31.2160   27.7450   48.0910 N   0  0  0  0  0  0  0  0  0  0  0  0
   30.2710   26.8480   47.7560 C   0  0  0  0  0  3  0  0  0  0  0  0
   30.5500   25.8400   46.9290 N   0  0  0  0  0  0  0  0  0  0  0  0
   31.7860   25.6940   46.4080 C   0  0  0  0  0  0  0  0  0  0  0  0
   32.0990   24.6670   45.5540 C   0  0  0  0  0  3  0  0  0  0  0  0
   33.3850   24.5290   45.0230 C   0  0  0  0  0  3  0  0  0  0  0  0
   34.3310   25.4670   45.3890 C   0  0  0  0  0  3  0  0  0  0  0  0
   34.0210   26.5080   46.2510 C   0  0  0  0  0  3  0  0  0  0  0  0
   32.7380   26.6200   46.7620 C   0  0  0  0  0  0  0  0  0  0  0  0
   38.1230   30.8990   46.0830 C   0  0  0  0  0  0  0  0  0  0  0  0
   38.4040   32.1900   46.5420 C   0  0  0  0  0  3  0  0  0  0  0  0
   38.0410   32.2460   47.8930 C   0  0  0  0  0  3  0  0  0  0  0  0
   37.5550   30.9540   48.1560 C   0  0  0  0  0  0  0  0  0  0  0  0
   37.6240   30.2380   47.1010 O   0  0  0  0  0  0  0  0  0  0  0  0
   39.1660   31.3980   42.6320 C   0  0  0  0  0  3  0  0  0  0  0  0
   39.0020   30.1400   42.0580 C   0  0  0  0  0  3  0  0  0  0  0  0
   38.5230   29.1000   42.8800 C   0  0  0  0  0  3  0  0  0  0  0  0
   38.2380   29.3440   44.1820 N   0  0  0  0  0  0  0  0  0  0  0  0
   38.4170   30.5980   44.6980 C   0  0  0  0  0  0  0  0  0  0  0  0
   38.8720   31.5920   43.9260 N   0  0  0  0  0  0  0  0  0  0  0  0
  1  5  1  0  0  0  0
  1  2  1  0  0  0  0
  2  3  1  0  0  0  0
  4  3  1  0  0  0  0
  5  6  1  6  0  0  0
  5  4  1  0  0  0  0
  6 10  2  0  0  0  0
  7  6  1  0  0  0  0
  8  7  2  0  0  0  0
  8  9  1  0  0  0  0
  9 10  1  0  0  0  0
 11  9  1  0  0  0  0
 11 12  1  0  0  0  0
 13 12  2  0  0  0  0
 14 13  1  0  0  0  0
 15 20  1  0  0  0  0
 15 14  2  0  0  0  0
 16 15  1  0  0  0  0
 17 18  1  0  0  0  0
 17 16  2  0  0  0  0
 18 19  2  0  0  0  0
 19 20  1  0  0  0  0
 20 11  2  0  0  0  0
 21 22  2  0  0  0  0
 21 25  1  0  0  0  0
 22 23  1  0  0  0  0
 23 24  2  0  0  0  0
 24  1  1  0  0  0  0
 25 24  1  0  0  0  0
 26 31  1  0  0  0  0
 27 26  2  0  0  0  0
 27 28  1  0  0  0  0
 28 29  2  0  0  0  0
 29 30  1  0  0  0  0
 30 21  1  0  0  0  0
 31 30  2  0  0  0  0
M  END
>  <minimizedAffinity>
-6.67752838

$$$$

 OpenBabel03272514403D

 31 36  0  0  1  0  0  0  0  0999 V2000
   33.9580   28.2830   48.5330 N   0  0  0  0  0  0  0  0  0  0  0  0
   34.9180   28.4050   49.6550 C   0  0  0  0  0  2  0  0  0  0  0  0
   35.9470   29.3850   49.2500 C   0  0  0  0  0  2  0  0  0  0  0  0
   35.3980   29.9040   47.9280 C   0  0  0  0  0  2  0  0  0  0  0  0
   34.7620   28.6660   47.3720 C   0  0  2  0  0  3  0  0  0  0  0  0
   33.8410   29.0230   46.2950 C   0  0  0  0  0  0  0  0  0  0  0  0
   33.5570   28.3320   45.1700 C   0  0  0  0  0  3  0  0  0  0  0  0
   32.6320   29.0930   44.4420 C   0  0  0  0  0  3  0  0  0  0  0  0
   32.4030   30.2180   45.1720 N   0  0  0  0  0  0  0  0  0  0  0  0
   33.1320   30.1770   46.2910 N   0  0  0  0  0  0  0  0  0  0  0  0
   31.4920   31.1970   44.6770 C   0  0  0  0  0  0  0  0  0  0  0  0
   31.9790   32.3160   44.0900 N   0  0  0  0  0  0  0  0  0  0  0  0
   31.1750   33.2780   43.6030 C   0  0  0  0  0  3  0  0  0  0  0  0
   29.8490   33.1630   43.6820 N   0  0  0  0  0  0  0  0  0  0  0  0
   29.2810   32.0800   44.2520 C   0  0  0  0  0  0  0  0  0  0  0  0
   27.9200   31.9370   44.3450 C   0  0  0  0  0  3  0  0  0  0  0  0
   27.3450   30.8090   44.9390 C   0  0  0  0  0  3  0  0  0  0  0  0
   28.2010   29.8410   45.4290 C   0  0  0  0  0  3  0  0  0  0  0  0
   29.5780   29.9790   45.3370 C   0  0  0  0  0  3  0  0  0  0  0  0
   30.1180   31.1080   44.7430 C   0  0  0  0  0  0  0  0  0  0  0  0
   30.5600   27.6360   49.3570 C   0  0  0  0  0  0  0  0  0  0  0  0
   30.8320   26.5880   48.4730 C   0  0  0  0  0  3  0  0  0  0  0  0
   32.1630   26.7200   48.0600 C   0  0  0  0  0  3  0  0  0  0  0  0
   32.6070   27.8660   48.7420 C   0  0  0  0  0  0  0  0  0  0  0  0
   31.6620   28.3420   49.4570 O   0  0  0  0  0  0  0  0  0  0  0  0
   27.1050   28.6860   49.8220 C   0  0  0  0  0  3  0  0  0  0  0  0
   26.6830   27.9380   50.9180 C   0  0  0  0  0  3  0  0  0  0  0  0
   27.6090   27.0530   51.5050 C   0  0  0  0  0  3  0  0  0  0  0  0
   28.8640   26.9540   51.0020 N   0  0  0  0  0  0  0  0  0  0  0  0
   29.2290   27.7110   49.9240 C   0  0  0  0  0  0  0  0  0  0  0  0
   28.3570   28.5550   49.3580 N   0  0  0  0  0  0  0  0  0  0  0  0
  1 24  1  0  0  0  0
  1  2  1  0  0  0  0
  3  2  1  0  0  0  0
  4  3  1  0  0  0  0
  5  6  1  6  0  0  0
  5  4  1  0  0  0  0
  5  1  1  0  0  0  0
  7  6  1  0  0  0  0
  8  7  2  0  0  0  0
  8  9  1  0  0  0  0
  9 10  1  0  0  0  0
 10  6  2  0  0  0  0
 11 20  1  0  0  0  0
 11  9  1  0  0  0  0
 12 11  2  0  0  0  0
 13 14  2  0  0  0  0
 13 12  1  0  0  0  0
 14 15  1  0  0  0  0
 15 16  2  0  0  0  0
 15 20  1  0  0  0  0
 16 17  1  0  0  0  0
 17 18  2  0  0  0  0
 19 18  1  0  0  0  0
 20 19  2  0  0  0  0
 21 25  1  0  0  0  0
 21 30  1  0  0  0  0
 22 21  2  0  0  0  0
 23 22  1  0  0  0  0
 23 24  2  0  0  0  0
 24 25  1  0  0  0  0
 26 27  1  0  0  0  0
 27 28  2  0  0  0  0
 29 28  1  0  0  0  0
 30 29  2  0  0  0  0
 31 26  2  0  0  0  0
 31 30  1  0  0  0  0
M  END
>  <minimizedAffinity>
-6.62735844

$$$$

 OpenBabel03272514403D

 31 36  0  0  1  0  0  0  0  0999 V2000
   31.0700   31.2660   44.0810 N   0  0  0  0  0  0  0  0  0  0  0  0
   31.4170   32.5850   43.5000 C   0  0  0  0  0  2  0  0  0  0  0  0
   30.1500   33.3030   43.2480 C   0  0  0  0  0  2  0  0  0  0  0  0
   29.1200   32.3740   43.8760 C   0  0  0  0  0  2  0  0  0  0  0  0
   29.7170   31.0320   43.5740 C   0  0  2  0  0  3  0  0  0  0  0  0
   29.0990   30.0130   44.4190 C   0  0  0  0  0  0  0  0  0  0  0  0
   28.9090   28.7030   44.1520 C   0  0  0  0  0  3  0  0  0  0  0  0
   28.2580   28.1470   45.2610 C   0  0  0  0  0  3  0  0  0  0  0  0
   28.0830   29.1600   46.1520 N   0  0  0  0  0  0  0  0  0  0  0  0
   28.5910   30.2880   45.6440 N   0  0  0  0  0  0  0  0  0  0  0  0
   27.4390   28.8940   47.3950 C   0  0  0  0  0  0  0  0  0  0  0  0
   26.1390   29.2420   47.5530 N   0  0  0  0  0  0  0  0  0  0  0  0
   25.4720   29.0190   48.7000 C   0  0  0  0  0  3  0  0  0  0  0  0
   26.0750   28.4400   49.7380 N   0  0  0  0  0  0  0  0  0  0  0  0
   27.3690   28.0630   49.6650 C   0  0  0  0  0  0  0  0  0  0  0  0
   28.0120   27.4640   50.7180 C   0  0  0  0  0  3  0  0  0  0  0  0
   29.3530   27.0790   50.6280 C   0  0  0  0  0  3  0  0  0  0  0  0
   30.0070   27.3230   49.4360 C   0  0  0  0  0  3  0  0  0  0  0  0
   29.3630   27.9270   48.3670 C   0  0  0  0  0  3  0  0  0  0  0  0
   28.0330   28.2980   48.4860 C   0  0  0  0  0  0  0  0  0  0  0  0
   33.2790   29.8430   46.4760 C   0  0  0  0  0  0  0  0  0  0  0  0
   33.3430   28.8970   45.4480 C   0  0  0  0  0  3  0  0  0  0  0  0
   32.5040   29.3380   44.4170 C   0  0  0  0  0  3  0  0  0  0  0  0
   31.9830   30.5460   44.9120 C   0  0  0  0  0  0  0  0  0  0  0  0
   32.4530   30.7810   46.0760 O   0  0  0  0  0  0  0  0  0  0  0  0
   34.5210   28.1830   49.4680 C   0  0  0  0  0  3  0  0  0  0  0  0
   35.5120   29.0450   49.9300 C   0  0  0  0  0  3  0  0  0  0  0  0
   35.7560   30.2210   49.1930 C   0  0  0  0  0  3  0  0  0  0  0  0
   35.0350   30.4810   48.0750 N   0  0  0  0  0  0  0  0  0  0  0  0
   34.0730   29.6010   47.6630 C   0  0  0  0  0  0  0  0  0  0  0  0
   33.8330   28.4810   48.3560 N   0  0  0  0  0  0  0  0  0  0  0  0
  1 24  1  0  0  0  0
  2  1  1  0  0  0  0
  3  2  1  0  0  0  0
  3  4  1  0  0  0  0
  5  4  1  0  0  0  0
  5  1  1  0  0  0  0
  5  6  1  1  0  0  0
  6 10  2  0  0  0  0
  7  6  1  0  0  0  0
  7  8  2  0  0  0  0
  8  9  1  0  0  0  0
  9 11  1  0  0  0  0
 10  9  1  0  0  0  0
 11 12  2  0  0  0  0
 11 20  1  0  0  0  0
 12 13  1  0  0  0  0
 13 14  2  0  0  0  0
 15 14  1  0  0  0  0
 15 16  1  0  0  0  0
 17 16  2  0  0  0  0
 18 17  1  0  0  0  0
 19 20  1  0  0  0  0
 19 18  2  0  0  0  0
 20 15  2  0  0  0  0
 21 30  1  0  0  0  0
 22 21  2  0  0  0  0
 23 24  2  0  0  0  0
 23 22  1  0  0  0  0
 24 25  1  0  0  0  0
 25 21  1  0  0  0  0
 26 27  1  0  0  0  0
 28 27  2  0  0  0  0
 29 28  1  0  0  0  0
 30 29  2  0  0  0  0
 30 31  1  0  0  0  0
 31 26  2  0  0  0  0
M  END
>  <minimizedAffinity>
-6.59960461

$$$$
