
 OpenBabel03272514373D

 38 43  0  0  0  0  0  0  0  0999 V2000
   38.3180   32.3520   49.1320 C   0  0  0  0  0  3  0  0  0  0  0  0
   38.7360   31.4890   50.1780 C   0  0  0  0  0  3  0  0  0  0  0  0
   38.2110   30.1890   50.1710 C   0  0  0  0  0  3  0  0  0  0  0  0
   37.3480   29.8040   49.1970 N   0  0  0  0  0  0  0  0  0  0  0  0
   36.9750   30.6730   48.2070 C   0  0  0  0  0  0  0  0  0  0  0  0
   37.4590   31.9350   48.1780 N   0  0  0  0  0  0  0  0  0  0  0  0
   36.0820   30.3000   47.1850 N   0  0  0  0  0  0  0  0  0  0  0  0
   36.3930   30.5240   45.8790 C   0  0  0  0  0  3  0  0  0  0  0  0
   35.3540   30.0630   45.1290 N   0  0  0  0  0  0  0  0  0  0  0  0
   34.4090   29.5630   45.9240 C   0  0  0  0  0  0  0  0  0  0  0  0
   33.1500   28.9610   45.8050 C   0  0  0  0  0  0  0  0  0  0  0  0
   32.7180   28.8190   44.6340 O   0  0  0  0  0  0  0  0  0  0  0  0
   32.4800   28.5750   46.9130 N   0  0  0  0  0  0  0  0  0  0  0  0
   32.9660   28.7410   48.1380 C   0  0  0  0  0  0  0  0  0  0  0  0
   32.1150   28.2700   49.1840 N   0  0  0  0  0  0  0  0  0  0  0  0
   34.1820   29.3200   48.2950 N   0  0  0  0  0  0  0  0  0  0  0  0
   34.8690   29.7130   47.2200 C   0  0  0  0  0  0  0  0  0  0  0  0
   32.4100   28.3570   50.1670 H   0  0  0  0  0  0  0  0  0  0  0  0
   31.2050   27.8430   48.9550 H   0  0  0  0  0  0  0  0  0  0  0  0
   31.1670   27.9470   46.7680 C   0  0  0  0  0  0  0  0  0  0  0  0
   30.9740   26.8280   45.9300 C   0  0  0  0  0  3  0  0  0  0  0  0
   29.1770   26.4660   46.1280 S   0  0  0  0  0  0  0  0  0  0  0  0
   28.9900   27.9100   47.3260 C   0  0  0  0  0  0  0  0  0  0  0  0
   30.0490   28.3150   47.3630 N   0  0  0  0  0  0  0  0  0  0  0  0
   27.8230   28.4440   48.0670 N   0  0  0  0  0  0  0  0  0  0  0  0
   27.1730   27.9430   49.1400 C   0  0  0  0  0  3  0  0  0  0  0  0
   26.2160   28.8270   49.3780 N   0  0  0  0  0  0  0  0  0  0  0  0
   26.2550   29.8440   48.4990 C   0  0  0  0  0  0  0  0  0  0  0  0
   25.5100   30.9900   48.3080 C   0  0  0  0  0  0  0  0  0  0  0  0
   24.5460   31.2610   49.0610 O   0  0  0  0  0  0  0  0  0  0  0  0
   25.7690   31.8710   47.3180 N   0  0  0  0  0  0  0  0  0  0  0  0
   26.8010   31.5980   46.4950 C   0  0  0  0  0  0  0  0  0  0  0  0
   27.2370   32.3870   45.4020 N   0  0  0  0  0  0  0  0  0  0  0  0
   27.5390   30.4840   46.6690 N   0  0  0  0  0  0  0  0  0  0  0  0
   27.3060   29.5950   47.6390 C   0  0  0  0  0  0  0  0  0  0  0  0
   25.1990   32.7200   47.1960 H   0  0  0  0  0  0  0  0  0  0  0  0
   28.0420   32.0820   44.8360 H   0  0  0  0  0  0  0  0  0  0  0  0
   26.7490   33.2650   45.1730 H   0  0  0  0  0  0  0  0  0  0  0  0
  1  2  1  0  0  0  0
  3  2  2  0  0  0  0
  4  3  1  0  0  0  0
  5  4  2  0  0  0  0
  6  5  1  0  0  0  0
  6  1  2  0  0  0  0
  7 17  1  0  0  0  0
  7  5  1  0  0  0  0
  8  7  1  0  0  0  0
  9  8  2  0  0  0  0
  9 10  1  0  0  0  0
 10 17  2  0  0  0  0
 11 10  1  0  0  0  0
 11 13  1  0  0  0  0
 12 11  2  0  0  0  0
 13 14  1  0  0  0  0
 14 16  2  0  0  0  0
 14 15  1  0  0  0  0
 15 18  1  0  0  0  0
 17 16  1  0  0  0  0
 19 15  1  0  0  0  0
 20 13  1  0  0  0  0
 20 24  1  0  0  0  0
 21 22  1  0  0  0  0
 21 20  2  0  0  0  0
 22 23  1  0  0  0  0
 23 24  2  0  0  0  0
 23 25  1  0  0  0  0
 25 26  1  0  0  0  0
 26 27  2  0  0  0  0
 28 27  1  0  0  0  0
 29 28  1  0  0  0  0
 29 30  2  0  0  0  0
 31 29  1  0  0  0  0
 32 34  2  0  0  0  0
 32 31  1  0  0  0  0
 33 32  1  0  0  0  0
 34 35  1  0  0  0  0
 35 25  1  0  0  0  0
 35 28  2  0  0  0  0
 36 31  1  0  0  0  0
 37 33  1  0  0  0  0
 38 33  1  0  0  0  0
M  END
>  <minimizedAffinity>
-7.93822908

$$$$

 OpenBabel03272514373D

 38 43  0  0  0  0  0  0  0  0999 V2000
   25.0360   34.0390   46.0530 C   0  0  0  0  0  3  0  0  0  0  0  0
   24.8310   34.2810   44.6700 C   0  0  0  0  0  3  0  0  0  0  0  0
   25.4760   33.4150   43.7750 C   0  0  0  0  0  3  0  0  0  0  0  0
   26.2520   32.4030   44.2410 N   0  0  0  0  0  0  0  0  0  0  0  0
   26.4190   32.2100   45.5860 C   0  0  0  0  0  0  0  0  0  0  0  0
   25.8130   33.0220   46.4810 N   0  0  0  0  0  0  0  0  0  0  0  0
   27.2170   31.1680   46.0960 N   0  0  0  0  0  0  0  0  0  0  0  0
   26.7330   30.3320   47.0550 C   0  0  0  0  0  3  0  0  0  0  0  0
   27.7170   29.4360   47.3470 N   0  0  0  0  0  0  0  0  0  0  0  0
   28.7930   29.6890   46.6030 C   0  0  0  0  0  0  0  0  0  0  0  0
   30.0830   29.1740   46.4170 C   0  0  0  0  0  0  0  0  0  0  0  0
   30.3850   28.1820   47.1270 O   0  0  0  0  0  0  0  0  0  0  0  0
   30.9130   29.7440   45.5180 N   0  0  0  0  0  0  0  0  0  0  0  0
   30.5610   30.7940   44.7830 C   0  0  0  0  0  0  0  0  0  0  0  0
   31.5720   31.2580   43.8860 N   0  0  0  0  0  0  0  0  0  0  0  0
   29.3210   31.3210   44.9340 N   0  0  0  0  0  0  0  0  0  0  0  0
   28.4770   30.7810   45.8150 C   0  0  0  0  0  0  0  0  0  0  0  0
   31.3880   32.0670   43.2770 H   0  0  0  0  0  0  0  0  0  0  0  0
   32.4850   30.7820   43.8500 H   0  0  0  0  0  0  0  0  0  0  0  0
   32.2550   29.1910   45.3370 C   0  0  0  0  0  0  0  0  0  0  0  0
   32.4610   27.9560   44.6860 C   0  0  0  0  0  3  0  0  0  0  0  0
   34.2930   27.7590   44.7400 S   0  0  0  0  0  0  0  0  0  0  0  0
   34.4710   29.4030   45.6460 C   0  0  0  0  0  0  0  0  0  0  0  0
   33.3890   29.7350   45.7310 N   0  0  0  0  0  0  0  0  0  0  0  0
   35.6550   30.1400   46.1490 N   0  0  0  0  0  0  0  0  0  0  0  0
   36.6010   30.8260   45.4720 C   0  0  0  0  0  3  0  0  0  0  0  0
   37.4110   31.2760   46.4190 N   0  0  0  0  0  0  0  0  0  0  0  0
   37.0000   30.8950   47.6410 C   0  0  0  0  0  0  0  0  0  0  0  0
   37.4660   31.0880   48.9260 C   0  0  0  0  0  0  0  0  0  0  0  0
   38.5050   31.7560   49.1370 O   0  0  0  0  0  0  0  0  0  0  0  0
   36.8450   30.5790   50.0110 N   0  0  0  0  0  0  0  0  0  0  0  0
   35.7260   29.8570   49.8060 C   0  0  0  0  0  0  0  0  0  0  0  0
   34.9280   29.2400   50.8020 N   0  0  0  0  0  0  0  0  0  0  0  0
   35.2560   29.6600   48.5590 N   0  0  0  0  0  0  0  0  0  0  0  0
   35.8510   30.1500   47.4670 C   0  0  0  0  0  0  0  0  0  0  0  0
   37.2120   30.7380   50.9600 H   0  0  0  0  0  0  0  0  0  0  0  0
   34.0880   28.7070   50.5330 H   0  0  0  0  0  0  0  0  0  0  0  0
   35.1880   29.3240   51.7950 H   0  0  0  0  0  0  0  0  0  0  0  0
  1  6  1  0  0  0  0
  2  1  2  0  0  0  0
  3  4  2  0  0  0  0
  3  2  1  0  0  0  0
  4  5  1  0  0  0  0
  5  7  1  0  0  0  0
  5  6  2  0  0  0  0
  7  8  1  0  0  0  0
  8  9  2  0  0  0  0
 10  9  1  0  0  0  0
 11 10  1  0  0  0  0
 11 12  2  0  0  0  0
 13 11  1  0  0  0  0
 14 16  2  0  0  0  0
 14 13  1  0  0  0  0
 15 14  1  0  0  0  0
 16 17  1  0  0  0  0
 17  7  1  0  0  0  0
 17 10  2  0  0  0  0
 18 15  1  0  0  0  0
 19 15  1  0  0  0  0
 20 13  1  0  0  0  0
 20 24  1  0  0  0  0
 21 22  1  0  0  0  0
 21 20  2  0  0  0  0
 22 23  1  0  0  0  0
 23 24  2  0  0  0  0
 23 25  1  0  0  0  0
 25 35  1  0  0  0  0
 26 25  1  0  0  0  0
 26 27  2  0  0  0  0
 27 28  1  0  0  0  0
 28 29  1  0  0  0  0
 29 30  2  0  0  0  0
 29 31  1  0  0  0  0
 31 36  1  0  0  0  0
 32 31  1  0  0  0  0
 32 33  1  0  0  0  0
 33 38  1  0  0  0  0
 34 32  2  0  0  0  0
 35 28  2  0  0  0  0
 35 34  1  0  0  0  0
 37 33  1  0  0  0  0
M  END
>  <minimizedAffinity>
-7.38511562

$$$$

 OpenBabel03272514373D

 38 43  0  0  0  0  0  0  0  0999 V2000
   27.1690   27.3720   50.8450 C   0  0  0  0  0  3  0  0  0  0  0  0
   28.5600   27.1040   50.9350 C   0  0  0  0  0  3  0  0  0  0  0  0
   29.4120   27.9320   50.1890 C   0  0  0  0  0  3  0  0  0  0  0  0
   28.9000   28.9330   49.4280 N   0  0  0  0  0  0  0  0  0  0  0  0
   27.5500   29.1520   49.3740 C   0  0  0  0  0  0  0  0  0  0  0  0
   26.6960   28.3770   50.0790 N   0  0  0  0  0  0  0  0  0  0  0  0
   26.9930   30.1830   48.5940 N   0  0  0  0  0  0  0  0  0  0  0  0
   26.0980   31.0530   49.1350 C   0  0  0  0  0  3  0  0  0  0  0  0
   25.7390   31.9290   48.1550 N   0  0  0  0  0  0  0  0  0  0  0  0
   26.3790   31.6300   47.0250 C   0  0  0  0  0  0  0  0  0  0  0  0
   26.4610   32.1050   45.7100 C   0  0  0  0  0  0  0  0  0  0  0  0
   25.7480   33.1040   45.4420 O   0  0  0  0  0  0  0  0  0  0  0  0
   27.2720   31.4920   44.8210 N   0  0  0  0  0  0  0  0  0  0  0  0
   28.0140   30.4360   45.1380 C   0  0  0  0  0  0  0  0  0  0  0  0
   28.8080   29.9240   44.0660 N   0  0  0  0  0  0  0  0  0  0  0  0
   27.9620   29.9460   46.4010 N   0  0  0  0  0  0  0  0  0  0  0  0
   27.1690   30.5290   47.3030 C   0  0  0  0  0  0  0  0  0  0  0  0
   29.4140   29.1070   44.2200 H   0  0  0  0  0  0  0  0  0  0  0  0
   28.7730   30.3740   43.1400 H   0  0  0  0  0  0  0  0  0  0  0  0
   27.3450   32.0040   43.4530 C   0  0  0  0  0  0  0  0  0  0  0  0
   26.4710   31.5400   42.4460 C   0  0  0  0  0  3  0  0  0  0  0  0
   26.9990   32.5020   40.9640 S   0  0  0  0  0  0  0  0  0  0  0  0
   28.3300   33.3780   41.9720 C   0  0  0  0  0  0  0  0  0  0  0  0
   28.1840   32.9130   42.9970 N   0  0  0  0  0  0  0  0  0  0  0  0
   29.3360   34.4060   41.6130 N   0  0  0  0  0  0  0  0  0  0  0  0
   29.1760   35.7230   41.3570 C   0  0  0  0  0  3  0  0  0  0  0  0
   30.4020   36.1500   41.0940 N   0  0  0  0  0  0  0  0  0  0  0  0
   31.3010   35.1520   41.1800 C   0  0  0  0  0  0  0  0  0  0  0  0
   32.6670   35.0600   41.0090 C   0  0  0  0  0  0  0  0  0  0  0  0
   33.3440   36.0680   40.7000 O   0  0  0  0  0  0  0  0  0  0  0  0
   33.3440   33.9010   41.1590 N   0  0  0  0  0  0  0  0  0  0  0  0
   32.6340   32.8040   41.4900 C   0  0  0  0  0  0  0  0  0  0  0  0
   33.1470   31.4990   41.6940 N   0  0  0  0  0  0  0  0  0  0  0  0
   31.2990   32.8770   41.6620 N   0  0  0  0  0  0  0  0  0  0  0  0
   30.6040   34.0090   41.5190 C   0  0  0  0  0  0  0  0  0  0  0  0
   34.3640   33.8570   41.0270 H   0  0  0  0  0  0  0  0  0  0  0  0
   32.5110   30.7280   41.9450 H   0  0  0  0  0  0  0  0  0  0  0  0
   34.1570   31.3210   41.5920 H   0  0  0  0  0  0  0  0  0  0  0  0
  1  2  1  0  0  0  0
  3  2  2  0  0  0  0
  4  3  1  0  0  0  0
  5  4  2  0  0  0  0
  5  6  1  0  0  0  0
  6  1  2  0  0  0  0
  7  8  1  0  0  0  0
  7  5  1  0  0  0  0
  9  8  2  0  0  0  0
 10 17  2  0  0  0  0
 10  9  1  0  0  0  0
 11 10  1  0  0  0  0
 12 11  2  0  0  0  0
 13 14  1  0  0  0  0
 13 11  1  0  0  0  0
 14 16  2  0  0  0  0
 15 18  1  0  0  0  0
 15 14  1  0  0  0  0
 16 17  1  0  0  0  0
 17  7  1  0  0  0  0
 19 15  1  0  0  0  0
 20 13  1  0  0  0  0
 21 20  2  0  0  0  0
 22 23  1  0  0  0  0
 22 21  1  0  0  0  0
 23 24  2  0  0  0  0
 24 20  1  0  0  0  0
 25 23  1  0  0  0  0
 26 25  1  0  0  0  0
 27 28  1  0  0  0  0
 27 26  2  0  0  0  0
 28 35  2  0  0  0  0
 29 31  1  0  0  0  0
 29 28  1  0  0  0  0
 30 29  2  0  0  0  0
 31 32  1  0  0  0  0
 32 34  2  0  0  0  0
 32 33  1  0  0  0  0
 33 37  1  0  0  0  0
 35 25  1  0  0  0  0
 35 34  1  0  0  0  0
 36 31  1  0  0  0  0
 38 33  1  0  0  0  0
M  END
>  <minimizedAffinity>
-7.28375292

$$$$

 OpenBabel03272514373D

 38 43  0  0  0  0  0  0  0  0999 V2000
   37.6690   29.4980   50.4180 C   0  0  0  0  0  3  0  0  0  0  0  0
   37.9010   30.8970   50.4620 C   0  0  0  0  0  3  0  0  0  0  0  0
   36.9260   31.7170   49.8760 C   0  0  0  0  0  3  0  0  0  0  0  0
   35.8240   31.1680   49.3030 N   0  0  0  0  0  0  0  0  0  0  0  0
   35.6450   29.8110   49.2870 C   0  0  0  0  0  0  0  0  0  0  0  0
   36.5610   28.9870   49.8420 N   0  0  0  0  0  0  0  0  0  0  0  0
   34.5120   29.2170   48.7000 N   0  0  0  0  0  0  0  0  0  0  0  0
   33.7820   28.2950   49.3860 C   0  0  0  0  0  3  0  0  0  0  0  0
   32.7600   27.9020   48.5750 N   0  0  0  0  0  0  0  0  0  0  0  0
   32.8320   28.5480   47.4120 C   0  0  0  0  0  0  0  0  0  0  0  0
   32.1290   28.6080   46.2010 C   0  0  0  0  0  0  0  0  0  0  0  0
   31.1230   27.8600   46.1130 O   0  0  0  0  0  0  0  0  0  0  0  0
   32.5470   29.4350   45.2190 N   0  0  0  0  0  0  0  0  0  0  0  0
   33.6170   30.2130   45.3450 C   0  0  0  0  0  0  0  0  0  0  0  0
   33.9040   31.0190   44.2010 N   0  0  0  0  0  0  0  0  0  0  0  0
   34.3240   30.1830   46.5020 N   0  0  0  0  0  0  0  0  0  0  0  0
   33.9370   29.3760   47.4920 C   0  0  0  0  0  0  0  0  0  0  0  0
   34.7150   31.6530   44.2090 H   0  0  0  0  0  0  0  0  0  0  0  0
   33.2990   30.9650   43.3690 H   0  0  0  0  0  0  0  0  0  0  0  0
   31.8000   29.4840   43.9630 C   0  0  0  0  0  0  0  0  0  0  0  0
   32.0530   28.5690   42.9190 C   0  0  0  0  0  3  0  0  0  0  0  0
   30.8530   29.0830   41.6170 S   0  0  0  0  0  0  0  0  0  0  0  0
   30.2050   30.4670   42.7210 C   0  0  0  0  0  0  0  0  0  0  0  0
   30.8440   30.3370   43.6500 N   0  0  0  0  0  0  0  0  0  0  0  0
   29.1530   31.4920   42.5190 N   0  0  0  0  0  0  0  0  0  0  0  0
   27.8090   31.3650   42.5090 C   0  0  0  0  0  3  0  0  0  0  0  0
   27.3710   32.5950   42.2860 N   0  0  0  0  0  0  0  0  0  0  0  0
   28.3890   33.4650   42.1630 C   0  0  0  0  0  0  0  0  0  0  0  0
   28.4820   34.8230   41.9330 C   0  0  0  0  0  0  0  0  0  0  0  0
   27.4510   35.5210   41.7880 O   0  0  0  0  0  0  0  0  0  0  0  0
   29.6650   35.4690   41.8510 N   0  0  0  0  0  0  0  0  0  0  0  0
   30.7860   34.7370   42.0020 C   0  0  0  0  0  0  0  0  0  0  0  0
   32.1180   35.2180   41.9520 N   0  0  0  0  0  0  0  0  0  0  0  0
   30.7130   33.4110   42.2290 N   0  0  0  0  0  0  0  0  0  0  0  0
   29.5570   32.7450   42.3140 C   0  0  0  0  0  0  0  0  0  0  0  0
   29.7080   36.4840   41.6790 H   0  0  0  0  0  0  0  0  0  0  0  0
   32.9060   34.5660   42.0820 H   0  0  0  0  0  0  0  0  0  0  0  0
   32.2990   36.2180   41.7870 H   0  0  0  0  0  0  0  0  0  0  0  0
  1  2  1  0  0  0  0
  3  2  2  0  0  0  0
  4  3  1  0  0  0  0
  5  4  2  0  0  0  0
  5  6  1  0  0  0  0
  6  1  2  0  0  0  0
  7  5  1  0  0  0  0
  7  8  1  0  0  0  0
  9  8  2  0  0  0  0
 10 17  2  0  0  0  0
 10  9  1  0  0  0  0
 11 10  1  0  0  0  0
 12 11  2  0  0  0  0
 13 14  1  0  0  0  0
 13 11  1  0  0  0  0
 14 16  2  0  0  0  0
 15 18  1  0  0  0  0
 15 14  1  0  0  0  0
 16 17  1  0  0  0  0
 17  7  1  0  0  0  0
 19 15  1  0  0  0  0
 20 13  1  0  0  0  0
 21 20  2  0  0  0  0
 22 23  1  0  0  0  0
 22 21  1  0  0  0  0
 23 24  2  0  0  0  0
 24 20  1  0  0  0  0
 25 23  1  0  0  0  0
 26 25  1  0  0  0  0
 27 26  2  0  0  0  0
 28 27  1  0  0  0  0
 28 35  2  0  0  0  0
 29 28  1  0  0  0  0
 30 29  2  0  0  0  0
 31 29  1  0  0  0  0
 31 32  1  0  0  0  0
 32 34  2  0  0  0  0
 33 32  1  0  0  0  0
 33 37  1  0  0  0  0
 34 35  1  0  0  0  0
 35 25  1  0  0  0  0
 36 31  1  0  0  0  0
 38 33  1  0  0  0  0
M  END
>  <minimizedAffinity>
-6.89567089

$$$$

 OpenBabel03272514373D

 38 43  0  0  0  0  0  0  0  0999 V2000
   37.4820   31.4130   50.0200 C   0  0  0  0  0  3  0  0  0  0  0  0
   37.3020   30.3390   50.9300 C   0  0  0  0  0  3  0  0  0  0  0  0
   36.6170   29.2130   50.4500 C   0  0  0  0  0  3  0  0  0  0  0  0
   36.1610   29.1820   49.1720 N   0  0  0  0  0  0  0  0  0  0  0  0
   36.3600   30.2440   48.3310 C   0  0  0  0  0  0  0  0  0  0  0  0
   37.0160   31.3470   48.7550 N   0  0  0  0  0  0  0  0  0  0  0  0
   35.8980   30.2380   47.0010 N   0  0  0  0  0  0  0  0  0  0  0  0
   36.7340   30.5620   45.9770 C   0  0  0  0  0  3  0  0  0  0  0  0
   36.0170   30.4680   44.8230 N   0  0  0  0  0  0  0  0  0  0  0  0
   34.7660   30.1000   45.0960 C   0  0  0  0  0  0  0  0  0  0  0  0
   33.5770   29.8360   44.4040 C   0  0  0  0  0  0  0  0  0  0  0  0
   33.6280   29.9640   43.1560 O   0  0  0  0  0  0  0  0  0  0  0  0
   32.4690   29.4680   45.0840 N   0  0  0  0  0  0  0  0  0  0  0  0
   32.4490   29.3420   46.4070 C   0  0  0  0  0  0  0  0  0  0  0  0
   31.1880   28.9450   46.9470 N   0  0  0  0  0  0  0  0  0  0  0  0
   33.5800   29.5900   47.1120 N   0  0  0  0  0  0  0  0  0  0  0  0
   34.6920   29.9550   46.4700 C   0  0  0  0  0  0  0  0  0  0  0  0
   31.0780   28.8230   47.9640 H   0  0  0  0  0  0  0  0  0  0  0  0
   30.3880   28.7810   46.3190 H   0  0  0  0  0  0  0  0  0  0  0  0
   31.2370   29.1950   44.3440 C   0  0  0  0  0  0  0  0  0  0  0  0
   31.1160   28.0630   43.5090 C   0  0  0  0  0  3  0  0  0  0  0  0
   29.4010   28.2170   42.8490 S   0  0  0  0  0  0  0  0  0  0  0  0
   29.1380   29.8080   43.8270 C   0  0  0  0  0  0  0  0  0  0  0  0
   30.1370   29.9210   44.3530 N   0  0  0  0  0  0  0  0  0  0  0  0
   27.9800   30.7260   43.9420 N   0  0  0  0  0  0  0  0  0  0  0  0
   26.8050   30.5630   44.5890 C   0  0  0  0  0  3  0  0  0  0  0  0
   26.1520   31.6920   44.3580 N   0  0  0  0  0  0  0  0  0  0  0  0
   26.8760   32.5340   43.6010 C   0  0  0  0  0  0  0  0  0  0  0  0
   26.6710   33.7990   43.0880 C   0  0  0  0  0  0  0  0  0  0  0  0
   25.6010   34.4140   43.3080 O   0  0  0  0  0  0  0  0  0  0  0  0
   27.5910   34.4390   42.3340 N   0  0  0  0  0  0  0  0  0  0  0  0
   28.7480   33.7950   42.0850 C   0  0  0  0  0  0  0  0  0  0  0  0
   29.8360   34.2850   41.3210 N   0  0  0  0  0  0  0  0  0  0  0  0
   28.9650   32.5600   42.5780 N   0  0  0  0  0  0  0  0  0  0  0  0
   28.0730   31.9030   43.3260 C   0  0  0  0  0  0  0  0  0  0  0  0
   27.4140   35.3830   41.9630 H   0  0  0  0  0  0  0  0  0  0  0  0
   30.6780   33.7050   41.1930 H   0  0  0  0  0  0  0  0  0  0  0  0
   29.7860   35.2220   40.8940 H   0  0  0  0  0  0  0  0  0  0  0  0
  1  2  1  0  0  0  0
  3  2  2  0  0  0  0
  4  3  1  0  0  0  0
  5  6  1  0  0  0  0
  5  4  2  0  0  0  0
  6  1  2  0  0  0  0
  7  5  1  0  0  0  0
  8  7  1  0  0  0  0
  9 10  1  0  0  0  0
  9  8  2  0  0  0  0
 10 17  2  0  0  0  0
 11 13  1  0  0  0  0
 11 10  1  0  0  0  0
 12 11  2  0  0  0  0
 13 14  1  0  0  0  0
 14 15  1  0  0  0  0
 14 16  2  0  0  0  0
 15 18  1  0  0  0  0
 17  7  1  0  0  0  0
 17 16  1  0  0  0  0
 19 15  1  0  0  0  0
 20 24  1  0  0  0  0
 20 13  1  0  0  0  0
 21 20  2  0  0  0  0
 22 21  1  0  0  0  0
 22 23  1  0  0  0  0
 23 25  1  0  0  0  0
 23 24  2  0  0  0  0
 25 26  1  0  0  0  0
 27 26  2  0  0  0  0
 28 27  1  0  0  0  0
 29 30  2  0  0  0  0
 29 28  1  0  0  0  0
 31 29  1  0  0  0  0
 32 31  1  0  0  0  0
 32 34  2  0  0  0  0
 33 32  1  0  0  0  0
 34 35  1  0  0  0  0
 35 28  2  0  0  0  0
 35 25  1  0  0  0  0
 36 31  1  0  0  0  0
 37 33  1  0  0  0  0
 38 33  1  0  0  0  0
M  END
>  <minimizedAffinity>
-6.77215624

$$$$

 OpenBabel03272514373D

 38 43  0  0  0  0  0  0  0  0999 V2000
   38.6470   30.6420   43.2270 C   0  0  0  0  0  3  0  0  0  0  0  0
   38.2530   31.7300   42.4050 C   0  0  0  0  0  3  0  0  0  0  0  0
   37.0140   32.3220   42.6920 C   0  0  0  0  0  3  0  0  0  0  0  0
   36.2530   31.8550   43.7140 N   0  0  0  0  0  0  0  0  0  0  0  0
   36.6770   30.8030   44.4800 C   0  0  0  0  0  0  0  0  0  0  0  0
   37.8650   30.2050   44.2360 N   0  0  0  0  0  0  0  0  0  0  0  0
   35.9070   30.2990   45.5470 N   0  0  0  0  0  0  0  0  0  0  0  0
   36.4640   30.1150   46.7750 C   0  0  0  0  0  3  0  0  0  0  0  0
   35.4910   29.6250   47.5920 N   0  0  0  0  0  0  0  0  0  0  0  0
   34.3520   29.4990   46.9130 C   0  0  0  0  0  0  0  0  0  0  0  0
   33.0360   29.0750   47.1430 C   0  0  0  0  0  0  0  0  0  0  0  0
   32.7820   28.6850   48.3100 O   0  0  0  0  0  0  0  0  0  0  0  0
   32.1340   29.1030   46.1400 N   0  0  0  0  0  0  0  0  0  0  0  0
   32.4370   29.5220   44.9150 C   0  0  0  0  0  0  0  0  0  0  0  0
   31.3520   29.4800   43.9870 N   0  0  0  0  0  0  0  0  0  0  0  0
   33.6990   29.9400   44.6530 N   0  0  0  0  0  0  0  0  0  0  0  0
   34.6160   29.9240   45.6230 C   0  0  0  0  0  0  0  0  0  0  0  0
   31.4940   29.7860   43.0140 H   0  0  0  0  0  0  0  0  0  0  0  0
   30.4270   29.1440   44.2920 H   0  0  0  0  0  0  0  0  0  0  0  0
   30.7650   28.6590   46.4000 C   0  0  0  0  0  0  0  0  0  0  0  0
   30.3820   27.3120   46.2190 C   0  0  0  0  0  3  0  0  0  0  0  0
   28.5970   27.3230   46.6820 S   0  0  0  0  0  0  0  0  0  0  0  0
   28.6740   29.1720   47.0450 C   0  0  0  0  0  0  0  0  0  0  0  0
   29.7600   29.4050   46.8140 N   0  0  0  0  0  0  0  0  0  0  0  0
   27.6510   30.1390   47.5100 N   0  0  0  0  0  0  0  0  0  0  0  0
   27.0940   30.2920   48.7300 C   0  0  0  0  0  3  0  0  0  0  0  0
   26.2490   31.3000   48.5740 N   0  0  0  0  0  0  0  0  0  0  0  0
   26.2680   31.7680   47.3130 C   0  0  0  0  0  0  0  0  0  0  0  0
   25.6030   32.7740   46.6410 C   0  0  0  0  0  0  0  0  0  0  0  0
   24.7610   33.4900   47.2300 O   0  0  0  0  0  0  0  0  0  0  0  0
   25.8160   33.0410   45.3350 N   0  0  0  0  0  0  0  0  0  0  0  0
   26.7170   32.2810   44.6820 C   0  0  0  0  0  0  0  0  0  0  0  0
   27.0850   32.3970   43.3180 N   0  0  0  0  0  0  0  0  0  0  0  0
   27.3750   31.2960   45.3230 N   0  0  0  0  0  0  0  0  0  0  0  0
   27.1850   31.0080   46.6140 C   0  0  0  0  0  0  0  0  0  0  0  0
   25.3080   33.7980   44.8550 H   0  0  0  0  0  0  0  0  0  0  0  0
   27.7890   31.7590   42.9190 H   0  0  0  0  0  0  0  0  0  0  0  0
   26.6480   33.1180   42.7260 H   0  0  0  0  0  0  0  0  0  0  0  0
  1  6  1  0  0  0  0
  2  3  1  0  0  0  0
  2  1  2  0  0  0  0
  3  4  2  0  0  0  0
  4  5  1  0  0  0  0
  5  7  1  0  0  0  0
  6  5  2  0  0  0  0
  7 17  1  0  0  0  0
  7  8  1  0  0  0  0
  8  9  2  0  0  0  0
 10 11  1  0  0  0  0
 10  9  1  0  0  0  0
 11 12  2  0  0  0  0
 13 20  1  0  0  0  0
 13 11  1  0  0  0  0
 14 13  1  0  0  0  0
 15 19  1  0  0  0  0
 15 14  1  0  0  0  0
 16 14  2  0  0  0  0
 16 17  1  0  0  0  0
 17 10  2  0  0  0  0
 18 15  1  0  0  0  0
 20 24  1  0  0  0  0
 21 20  2  0  0  0  0
 21 22  1  0  0  0  0
 22 23  1  0  0  0  0
 23 25  1  0  0  0  0
 24 23  2  0  0  0  0
 25 26  1  0  0  0  0
 27 26  2  0  0  0  0
 28 27  1  0  0  0  0
 29 30  2  0  0  0  0
 29 28  1  0  0  0  0
 31 29  1  0  0  0  0
 32 34  2  0  0  0  0
 32 31  1  0  0  0  0
 33 32  1  0  0  0  0
 34 35  1  0  0  0  0
 35 28  2  0  0  0  0
 35 25  1  0  0  0  0
 36 31  1  0  0  0  0
 37 33  1  0  0  0  0
 38 33  1  0  0  0  0
M  END
>  <minimizedAffinity>
-6.56728125

$$$$

 OpenBabel03272514373D

 38 43  0  0  0  0  0  0  0  0999 V2000
   38.8270   32.2570   42.1830 C   0  0  0  0  0  3  0  0  0  0  0  0
   37.8970   32.9600   41.3750 C   0  0  0  0  0  3  0  0  0  0  0  0
   36.5840   33.0540   41.8590 C   0  0  0  0  0  3  0  0  0  0  0  0
   36.2500   32.4880   43.0470 N   0  0  0  0  0  0  0  0  0  0  0  0
   37.1840   31.8200   43.7920 C   0  0  0  0  0  0  0  0  0  0  0  0
   38.4600   31.7080   43.3610 N   0  0  0  0  0  0  0  0  0  0  0  0
   36.8650   31.2250   45.0270 N   0  0  0  0  0  0  0  0  0  0  0  0
   37.6280   31.4660   46.1280 C   0  0  0  0  0  3  0  0  0  0  0  0
   37.0830   30.7650   47.1610 N   0  0  0  0  0  0  0  0  0  0  0  0
   36.0110   30.0970   46.7380 C   0  0  0  0  0  0  0  0  0  0  0  0
   35.0420   29.2300   47.2610 C   0  0  0  0  0  0  0  0  0  0  0  0
   35.1530   28.9560   48.4830 O   0  0  0  0  0  0  0  0  0  0  0  0
   34.0680   28.7460   46.4610 N   0  0  0  0  0  0  0  0  0  0  0  0
   33.9800   29.0560   45.1720 C   0  0  0  0  0  0  0  0  0  0  0  0
   32.8830   28.4480   44.4880 N   0  0  0  0  0  0  0  0  0  0  0  0
   34.8990   29.8910   44.6280 N   0  0  0  0  0  0  0  0  0  0  0  0
   35.8750   30.3870   45.3920 C   0  0  0  0  0  0  0  0  0  0  0  0
   32.7360   28.6310   43.4850 H   0  0  0  0  0  0  0  0  0  0  0  0
   32.2400   27.8260   44.9980 H   0  0  0  0  0  0  0  0  0  0  0  0
   33.0650   27.8440   47.0260 C   0  0  0  0  0  0  0  0  0  0  0  0
   33.2430   26.4440   47.0110 C   0  0  0  0  0  3  0  0  0  0  0  0
   31.7130   25.8230   47.8320 S   0  0  0  0  0  0  0  0  0  0  0  0
   31.0850   27.5860   48.0580 C   0  0  0  0  0  0  0  0  0  0  0  0
   31.9260   28.1900   47.5930 N   0  0  0  0  0  0  0  0  0  0  0  0
   29.8490   28.1330   48.6660 N   0  0  0  0  0  0  0  0  0  0  0  0
   29.4870   28.2250   49.9640 C   0  0  0  0  0  3  0  0  0  0  0  0
   28.2900   28.7910   49.9250 N   0  0  0  0  0  0  0  0  0  0  0  0
   27.9080   29.0490   48.6610 C   0  0  0  0  0  0  0  0  0  0  0  0
   26.7890   29.6120   48.0820 C   0  0  0  0  0  0  0  0  0  0  0  0
   25.8370   30.0190   48.7880 O   0  0  0  0  0  0  0  0  0  0  0  0
   26.6540   29.7570   46.7460 N   0  0  0  0  0  0  0  0  0  0  0  0
   27.6660   29.3250   45.9680 C   0  0  0  0  0  0  0  0  0  0  0  0
   27.7240   29.3830   44.5530 N   0  0  0  0  0  0  0  0  0  0  0  0
   28.7660   28.7740   46.5170 N   0  0  0  0  0  0  0  0  0  0  0  0
   28.9260   28.6170   47.8350 C   0  0  0  0  0  0  0  0  0  0  0  0
   25.8090   30.1810   46.3370 H   0  0  0  0  0  0  0  0  0  0  0  0
   28.5510   29.0210   44.0560 H   0  0  0  0  0  0  0  0  0  0  0  0
   26.9390   29.7870   44.0220 H   0  0  0  0  0  0  0  0  0  0  0  0
  1  6  1  0  0  0  0
  2  3  1  0  0  0  0
  2  1  2  0  0  0  0
  3  4  2  0  0  0  0
  4  5  1  0  0  0  0
  5  7  1  0  0  0  0
  6  5  2  0  0  0  0
  7 17  1  0  0  0  0
  7  8  1  0  0  0  0
  8  9  2  0  0  0  0
 10  9  1  0  0  0  0
 10 11  1  0  0  0  0
 11 12  2  0  0  0  0
 13 20  1  0  0  0  0
 13 11  1  0  0  0  0
 14 13  1  0  0  0  0
 15 19  1  0  0  0  0
 15 14  1  0  0  0  0
 16 14  2  0  0  0  0
 16 17  1  0  0  0  0
 17 10  2  0  0  0  0
 18 15  1  0  0  0  0
 20 24  1  0  0  0  0
 21 20  2  0  0  0  0
 21 22  1  0  0  0  0
 22 23  1  0  0  0  0
 23 25  1  0  0  0  0
 24 23  2  0  0  0  0
 25 26  1  0  0  0  0
 27 26  2  0  0  0  0
 28 27  1  0  0  0  0
 29 28  1  0  0  0  0
 29 30  2  0  0  0  0
 31 29  1  0  0  0  0
 32 34  2  0  0  0  0
 32 31  1  0  0  0  0
 33 32  1  0  0  0  0
 34 35  1  0  0  0  0
 35 28  2  0  0  0  0
 35 25  1  0  0  0  0
 36 31  1  0  0  0  0
 37 33  1  0  0  0  0
 38 33  1  0  0  0  0
M  END
>  <minimizedAffinity>
-6.51106691

$$$$

 OpenBabel03272514373D

 38 43  0  0  0  0  0  0  0  0999 V2000
   36.4710   34.0790   41.2240 C   0  0  0  0  0  3  0  0  0  0  0  0
   36.8090   33.1910   40.1700 C   0  0  0  0  0  3  0  0  0  0  0  0
   35.7440   32.6030   39.4720 C   0  0  0  0  0  3  0  0  0  0  0  0
   34.4610   32.8910   39.8130 N   0  0  0  0  0  0  0  0  0  0  0  0
   34.1850   33.7550   40.8380 C   0  0  0  0  0  0  0  0  0  0  0  0
   35.1840   34.3430   41.5340 N   0  0  0  0  0  0  0  0  0  0  0  0
   32.8650   34.0710   41.2110 N   0  0  0  0  0  0  0  0  0  0  0  0
   32.4770   35.3680   41.3500 C   0  0  0  0  0  3  0  0  0  0  0  0
   31.1640   35.3630   41.7120 N   0  0  0  0  0  0  0  0  0  0  0  0
   30.7260   34.1080   41.8030 C   0  0  0  0  0  0  0  0  0  0  0  0
   29.5380   33.4340   42.1160 C   0  0  0  0  0  0  0  0  0  0  0  0
   28.5540   34.1590   42.4060 O   0  0  0  0  0  0  0  0  0  0  0  0
   29.5040   32.0840   42.0920 N   0  0  0  0  0  0  0  0  0  0  0  0
   30.5640   31.3460   41.7800 C   0  0  0  0  0  0  0  0  0  0  0  0
   30.3360   29.9360   41.8080 N   0  0  0  0  0  0  0  0  0  0  0  0
   31.7320   31.9620   41.4730 N   0  0  0  0  0  0  0  0  0  0  0  0
   31.7990   33.2950   41.4880 C   0  0  0  0  0  0  0  0  0  0  0  0
   31.1010   29.2850   41.5810 H   0  0  0  0  0  0  0  0  0  0  0  0
   29.4050   29.5700   42.0560 H   0  0  0  0  0  0  0  0  0  0  0  0
   28.2540   31.3970   42.4190 C   0  0  0  0  0  0  0  0  0  0  0  0
   27.2210   31.2570   41.4680 C   0  0  0  0  0  3  0  0  0  0  0  0
   25.9230   30.3360   42.4000 S   0  0  0  0  0  0  0  0  0  0  0  0
   27.0140   30.2980   43.9370 C   0  0  0  0  0  0  0  0  0  0  0  0
   27.9390   30.8480   43.5750 N   0  0  0  0  0  0  0  0  0  0  0  0
   26.8080   29.7290   45.2900 N   0  0  0  0  0  0  0  0  0  0  0  0
   26.8120   28.4420   45.7000 C   0  0  0  0  0  3  0  0  0  0  0  0
   26.5770   28.5180   47.0010 N   0  0  0  0  0  0  0  0  0  0  0  0
   26.4320   29.7940   47.4020 C   0  0  0  0  0  0  0  0  0  0  0  0
   26.1820   30.4080   48.6120 C   0  0  0  0  0  0  0  0  0  0  0  0
   26.0370   29.7310   49.6570 O   0  0  0  0  0  0  0  0  0  0  0  0
   26.0790   31.7480   48.7420 N   0  0  0  0  0  0  0  0  0  0  0  0
   26.2300   32.4950   47.6310 C   0  0  0  0  0  0  0  0  0  0  0  0
   26.1610   33.9080   47.5500 N   0  0  0  0  0  0  0  0  0  0  0  0
   26.4760   31.9110   46.4410 N   0  0  0  0  0  0  0  0  0  0  0  0
   26.5810   30.5880   46.2830 C   0  0  0  0  0  0  0  0  0  0  0  0
   25.8930   32.1840   49.6570 H   0  0  0  0  0  0  0  0  0  0  0  0
   26.2920   34.3800   46.6430 H   0  0  0  0  0  0  0  0  0  0  0  0
   25.9800   34.4640   48.3980 H   0  0  0  0  0  0  0  0  0  0  0  0
  1  6  1  0  0  0  0
  2  1  2  0  0  0  0
  3  4  2  0  0  0  0
  3  2  1  0  0  0  0
  4  5  1  0  0  0  0
  5  7  1  0  0  0  0
  5  6  2  0  0  0  0
  7  8  1  0  0  0  0
  7 17  1  0  0  0  0
  8  9  2  0  0  0  0
  9 10  1  0  0  0  0
 10 11  1  0  0  0  0
 11 12  2  0  0  0  0
 13 11  1  0  0  0  0
 13 20  1  0  0  0  0
 14 15  1  0  0  0  0
 14 13  1  0  0  0  0
 15 19  1  0  0  0  0
 16 17  1  0  0  0  0
 16 14  2  0  0  0  0
 17 10  2  0  0  0  0
 18 15  1  0  0  0  0
 20 24  1  0  0  0  0
 21 22  1  0  0  0  0
 21 20  2  0  0  0  0
 22 23  1  0  0  0  0
 23 25  1  0  0  0  0
 24 23  2  0  0  0  0
 25 26  1  0  0  0  0
 25 35  1  0  0  0  0
 26 27  2  0  0  0  0
 27 28  1  0  0  0  0
 28 29  1  0  0  0  0
 29 31  1  0  0  0  0
 29 30  2  0  0  0  0
 31 36  1  0  0  0  0
 32 31  1  0  0  0  0
 33 32  1  0  0  0  0
 33 38  1  0  0  0  0
 34 32  2  0  0  0  0
 35 34  1  0  0  0  0
 35 28  2  0  0  0  0
 37 33  1  0  0  0  0
M  END
>  <minimizedAffinity>
-6.45739841

$$$$

 OpenBabel03272514373D

 38 43  0  0  0  0  0  0  0  0999 V2000
   25.3800   28.4450   48.4750 C   0  0  0  0  0  3  0  0  0  0  0  0
   25.7340   29.0600   49.7040 C   0  0  0  0  0  3  0  0  0  0  0  0
   26.9070   29.8290   49.7100 C   0  0  0  0  0  3  0  0  0  0  0  0
   27.6460   29.9600   48.5790 N   0  0  0  0  0  0  0  0  0  0  0  0
   27.2620   29.3470   47.4160 C   0  0  0  0  0  0  0  0  0  0  0  0
   26.1370   28.5990   47.3690 N   0  0  0  0  0  0  0  0  0  0  0  0
   28.0090   29.4670   46.2290 N   0  0  0  0  0  0  0  0  0  0  0  0
   27.4020   29.8220   45.0630 C   0  0  0  0  0  3  0  0  0  0  0  0
   28.3640   29.8570   44.0990 N   0  0  0  0  0  0  0  0  0  0  0  0
   29.5440   29.5350   44.6270 C   0  0  0  0  0  0  0  0  0  0  0  0
   30.8740   29.3890   44.2090 C   0  0  0  0  0  0  0  0  0  0  0  0
   31.0940   29.6080   42.9920 O   0  0  0  0  0  0  0  0  0  0  0  0
   31.8240   29.0320   45.1000 N   0  0  0  0  0  0  0  0  0  0  0  0
   31.5570   28.8070   46.3820 C   0  0  0  0  0  0  0  0  0  0  0  0
   32.6900   28.4400   47.1700 N   0  0  0  0  0  0  0  0  0  0  0  0
   30.2820   28.9380   46.8240 N   0  0  0  0  0  0  0  0  0  0  0  0
   29.3190   29.2890   45.9690 C   0  0  0  0  0  0  0  0  0  0  0  0
   32.5780   28.2460   48.1750 H   0  0  0  0  0  0  0  0  0  0  0  0
   33.6200   28.3690   46.7320 H   0  0  0  0  0  0  0  0  0  0  0  0
   33.2070   28.8850   44.6450 C   0  0  0  0  0  0  0  0  0  0  0  0
   33.6020   27.8040   43.8280 C   0  0  0  0  0  3  0  0  0  0  0  0
   35.4010   28.1170   43.5680 S   0  0  0  0  0  0  0  0  0  0  0  0
   35.3100   29.6760   44.6240 C   0  0  0  0  0  0  0  0  0  0  0  0
   34.2140   29.6910   44.9170 N   0  0  0  0  0  0  0  0  0  0  0  0
   36.3340   30.6730   45.0180 N   0  0  0  0  0  0  0  0  0  0  0  0
   36.9290   31.6400   44.2880 C   0  0  0  0  0  3  0  0  0  0  0  0
   37.7550   32.2260   45.1410 N   0  0  0  0  0  0  0  0  0  0  0  0
   37.6890   31.6590   46.3590 C   0  0  0  0  0  0  0  0  0  0  0  0
   38.3170   31.8800   47.5680 C   0  0  0  0  0  0  0  0  0  0  0  0
   39.1680   32.7920   47.6910 O   0  0  0  0  0  0  0  0  0  0  0  0
   38.0590   31.1430   48.6690 N   0  0  0  0  0  0  0  0  0  0  0  0
   37.1470   30.1570   48.5590 C   0  0  0  0  0  0  0  0  0  0  0  0
   36.7340   29.2740   49.5870 N   0  0  0  0  0  0  0  0  0  0  0  0
   36.5240   29.9290   47.3860 N   0  0  0  0  0  0  0  0  0  0  0  0
   36.7600   30.6410   46.2810 C   0  0  0  0  0  0  0  0  0  0  0  0
   38.5400   31.3280   49.5610 H   0  0  0  0  0  0  0  0  0  0  0  0
   36.0250   28.5510   49.3920 H   0  0  0  0  0  0  0  0  0  0  0  0
   37.1410   29.3540   50.5300 H   0  0  0  0  0  0  0  0  0  0  0  0
  1  2  1  0  0  0  0
  2  3  2  0  0  0  0
  4  3  1  0  0  0  0
  5  4  2  0  0  0  0
  6  5  1  0  0  0  0
  6  1  2  0  0  0  0
  7  5  1  0  0  0  0
  8  7  1  0  0  0  0
  9 10  1  0  0  0  0
  9  8  2  0  0  0  0
 10 17  2  0  0  0  0
 11 10  1  0  0  0  0
 11 13  1  0  0  0  0
 12 11  2  0  0  0  0
 13 14  1  0  0  0  0
 14 16  2  0  0  0  0
 14 15  1  0  0  0  0
 15 18  1  0  0  0  0
 17  7  1  0  0  0  0
 17 16  1  0  0  0  0
 19 15  1  0  0  0  0
 20 24  1  0  0  0  0
 20 13  1  0  0  0  0
 21 20  2  0  0  0  0
 22 21  1  0  0  0  0
 22 23  1  0  0  0  0
 23 24  2  0  0  0  0
 23 25  1  0  0  0  0
 25 35  1  0  0  0  0
 26 25  1  0  0  0  0
 26 27  2  0  0  0  0
 27 28  1  0  0  0  0
 28 29  1  0  0  0  0
 29 30  2  0  0  0  0
 29 31  1  0  0  0  0
 31 36  1  0  0  0  0
 32 31  1  0  0  0  0
 32 33  1  0  0  0  0
 33 38  1  0  0  0  0
 34 32  2  0  0  0  0
 35 28  2  0  0  0  0
 35 34  1  0  0  0  0
 37 33  1  0  0  0  0
M  END
>  <minimizedAffinity>
-6.41731405

$$$$
