
 OpenBabel03272514313D

 33 38  0  0  0  0  0  0  0  0999 V2000
   32.2630   27.8960   46.8320 N   0  0  0  0  0  0  0  0  0  0  0  0
   32.3370   26.6720   47.3870 C   0  0  0  0  0  3  0  0  0  0  0  0
   31.1340   26.2930   47.8350 N   0  0  0  0  0  0  0  0  0  0  0  0
   30.2910   27.2920   47.5580 C   0  0  0  0  0  0  0  0  0  0  0  0
   30.9920   28.2550   46.9500 N   0  0  0  0  0  0  0  0  0  0  0  0
   28.9140   27.2110   47.9060 N   0  0  0  0  0  0  0  0  0  0  0  0
   28.0750   26.1400   48.0090 C   0  0  0  0  0  3  0  0  0  0  0  0
   26.8480   26.5390   48.3700 N   0  0  0  0  0  0  0  0  0  0  0  0
   26.8760   27.8950   48.5050 C   0  0  0  0  0  0  0  0  0  0  0  0
   25.8740   28.7720   48.8580 C   0  0  0  0  0  0  0  0  0  0  0  0
   26.1970   30.0900   48.9130 N   0  0  0  0  0  0  0  0  0  0  0  0
   27.4500   30.5180   48.6350 C   0  0  0  0  0  3  0  0  0  0  0  0
   28.3760   29.6100   48.2990 N   0  0  0  0  0  0  0  0  0  0  0  0
   28.1690   28.2940   48.2130 C   0  0  0  0  0  0  0  0  0  0  0  0
   34.5700   29.5030   44.4790 C   0  0  0  0  0  3  0  0  0  0  0  0
   33.4560   28.7740   44.8860 C   0  0  0  0  0  3  0  0  0  0  0  0
   33.3430   28.6140   46.2520 C   0  0  0  0  0  0  0  0  0  0  0  0
   34.2720   29.1510   47.0320 N   0  0  0  0  0  0  0  0  0  0  0  0
   35.3220   29.8370   46.6740 C   0  0  0  0  0  0  0  0  0  0  0  0
   35.4280   29.9870   45.3800 N   0  0  0  0  0  0  0  0  0  0  0  0
   36.3990   30.4680   47.4240 C   0  0  0  0  0  0  0  0  0  0  0  0
   37.3160   31.3170   46.8090 C   0  0  0  0  0  3  0  0  0  0  0  0
   38.3500   31.9380   47.4720 C   0  0  0  0  0  3  0  0  0  0  0  0
   38.5200   31.7320   48.8180 C   0  0  0  0  0  3  0  0  0  0  0  0
   37.6490   30.9070   49.4720 C   0  0  0  0  0  0  0  0  0  0  0  0
   37.8210   30.7020   50.8240 C   0  0  0  0  0  3  0  0  0  0  0  0
   37.0090   29.9050   51.5500 C   0  0  0  0  0  3  0  0  0  0  0  0
   35.9600   29.2790   50.8630 C   0  0  0  0  0  3  0  0  0  0  0  0
   35.8110   29.5010   49.5100 C   0  0  0  0  0  3  0  0  0  0  0  0
   36.6260   30.3040   48.7800 C   0  0  0  0  0  0  0  0  0  0  0  0
   24.5440   28.3750   49.1590 N   0  0  0  0  0  0  0  0  0  0  0  0
   23.8410   29.0820   49.4170 H   0  0  0  0  0  0  0  0  0  0  0  0
   24.2830   27.3790   49.1200 H   0  0  0  0  0  0  0  0  0  0  0  0
  1  5  1  0  0  0  0
  1  2  1  0  0  0  0
  2  3  2  0  0  0  0
  4  3  1  0  0  0  0
  4  6  1  0  0  0  0
  5  4  2  0  0  0  0
  6  7  1  0  0  0  0
  6 14  1  0  0  0  0
  7  8  2  0  0  0  0
  8  9  1  0  0  0  0
  9 10  1  0  0  0  0
 10 11  2  0  0  0  0
 10 31  1  0  0  0  0
 12 11  1  0  0  0  0
 13 12  2  0  0  0  0
 14 13  1  0  0  0  0
 14  9  2  0  0  0  0
 15 16  2  0  0  0  0
 15 20  1  0  0  0  0
 16 17  1  0  0  0  0
 17  1  1  0  0  0  0
 17 18  2  0  0  0  0
 19 18  1  0  0  0  0
 19 21  1  0  0  0  0
 20 19  2  0  0  0  0
 21 30  1  0  0  0  0
 22 21  2  0  0  0  0
 22 23  1  0  0  0  0
 23 24  2  0  0  0  0
 24 25  1  0  0  0  0
 25 26  1  0  0  0  0
 26 27  2  0  0  0  0
 28 27  1  0  0  0  0
 29 28  2  0  0  0  0
 30 25  2  0  0  0  0
 30 29  1  0  0  0  0
 31 32  1  0  0  0  0
 33 31  1  0  0  0  0
M  END
>  <minimizedAffinity>
-9.24113655

$$$$

 OpenBabel03272514313D

 33 38  0  0  0  0  0  0  0  0999 V2000
   31.8870   29.0830   45.4080 N   0  0  0  0  0  0  0  0  0  0  0  0
   31.3680   28.5190   44.3030 C   0  0  0  0  0  3  0  0  0  0  0  0
   30.0550   28.3130   44.4600 N   0  0  0  0  0  0  0  0  0  0  0  0
   29.7430   28.7550   45.6810 C   0  0  0  0  0  0  0  0  0  0  0  0
   30.8660   29.2190   46.2430 N   0  0  0  0  0  0  0  0  0  0  0  0
   28.4100   28.6830   46.1720 N   0  0  0  0  0  0  0  0  0  0  0  0
   27.2100   28.7410   45.5240 C   0  0  0  0  0  3  0  0  0  0  0  0
   26.2010   28.6300   46.3970 N   0  0  0  0  0  0  0  0  0  0  0  0
   26.7410   28.4990   47.6420 C   0  0  0  0  0  0  0  0  0  0  0  0
   26.1240   28.3530   48.8660 C   0  0  0  0  0  0  0  0  0  0  0  0
   26.9300   28.2430   49.9530 N   0  0  0  0  0  0  0  0  0  0  0  0
   28.2780   28.2720   49.8360 C   0  0  0  0  0  3  0  0  0  0  0  0
   28.8100   28.4160   48.6150 N   0  0  0  0  0  0  0  0  0  0  0  0
   28.1150   28.5340   47.4810 C   0  0  0  0  0  0  0  0  0  0  0  0
   35.3730   30.0990   44.8930 C   0  0  0  0  0  3  0  0  0  0  0  0
   34.0680   29.7690   44.5380 C   0  0  0  0  0  3  0  0  0  0  0  0
   33.2480   29.4440   45.5990 C   0  0  0  0  0  0  0  0  0  0  0  0
   33.7570   29.4740   46.8250 N   0  0  0  0  0  0  0  0  0  0  0  0
   34.9730   29.7800   47.1810 C   0  0  0  0  0  0  0  0  0  0  0  0
   35.7480   30.0870   46.1740 N   0  0  0  0  0  0  0  0  0  0  0  0
   35.6420   29.8470   48.4730 C   0  0  0  0  0  0  0  0  0  0  0  0
   35.2470   29.0480   49.5430 C   0  0  0  0  0  3  0  0  0  0  0  0
   35.8460   29.0740   50.7810 C   0  0  0  0  0  3  0  0  0  0  0  0
   36.8980   29.9250   51.0140 C   0  0  0  0  0  3  0  0  0  0  0  0
   37.3270   30.7330   49.9990 C   0  0  0  0  0  0  0  0  0  0  0  0
   38.3830   31.5860   50.2340 C   0  0  0  0  0  3  0  0  0  0  0  0
   38.8730   32.4180   49.2910 C   0  0  0  0  0  3  0  0  0  0  0  0
   38.2540   32.3820   48.0340 C   0  0  0  0  0  3  0  0  0  0  0  0
   37.1990   31.5190   47.8250 C   0  0  0  0  0  3  0  0  0  0  0  0
   36.7070   30.6810   48.7730 C   0  0  0  0  0  0  0  0  0  0  0  0
   24.7160   28.3170   49.0430 N   0  0  0  0  0  0  0  0  0  0  0  0
   24.3190   28.2060   49.9870 H   0  0  0  0  0  0  0  0  0  0  0  0
   24.0920   28.4020   48.2290 H   0  0  0  0  0  0  0  0  0  0  0  0
  1 17  1  0  0  0  0
  1  5  1  0  0  0  0
  2  3  2  0  0  0  0
  2  1  1  0  0  0  0
  3  4  1  0  0  0  0
  4  6  1  0  0  0  0
  4  5  2  0  0  0  0
  6 14  1  0  0  0  0
  7  6  1  0  0  0  0
  7  8  2  0  0  0  0
  8  9  1  0  0  0  0
  9 10  1  0  0  0  0
 10 31  1  0  0  0  0
 10 11  2  0  0  0  0
 12 11  1  0  0  0  0
 13 12  2  0  0  0  0
 14  9  2  0  0  0  0
 14 13  1  0  0  0  0
 15 20  1  0  0  0  0
 16 15  2  0  0  0  0
 16 17  1  0  0  0  0
 17 18  2  0  0  0  0
 18 19  1  0  0  0  0
 19 21  1  0  0  0  0
 20 19  2  0  0  0  0
 21 30  2  0  0  0  0
 21 22  1  0  0  0  0
 22 23  2  0  0  0  0
 23 24  1  0  0  0  0
 25 26  1  0  0  0  0
 25 24  2  0  0  0  0
 27 26  2  0  0  0  0
 28 27  1  0  0  0  0
 29 28  2  0  0  0  0
 29 30  1  0  0  0  0
 30 25  1  0  0  0  0
 31 32  1  0  0  0  0
 33 31  1  0  0  0  0
M  END
>  <minimizedAffinity>
-9.08205032

$$$$

 OpenBabel03272514313D

 33 38  0  0  0  0  0  0  0  0999 V2000
   31.8230   29.5870   45.4590 N   0  0  0  0  0  0  0  0  0  0  0  0
   30.8630   29.7270   44.5270 C   0  0  0  0  0  3  0  0  0  0  0  0
   29.6530   29.6180   45.0880 N   0  0  0  0  0  0  0  0  0  0  0  0
   29.8540   29.4070   46.3920 C   0  0  0  0  0  0  0  0  0  0  0  0
   31.1760   29.3910   46.6000 N   0  0  0  0  0  0  0  0  0  0  0  0
   28.7620   29.2430   47.2890 N   0  0  0  0  0  0  0  0  0  0  0  0
   27.4980   29.7570   47.2670 C   0  0  0  0  0  3  0  0  0  0  0  0
   26.8000   29.3300   48.3270 N   0  0  0  0  0  0  0  0  0  0  0  0
   27.6160   28.5230   49.0630 C   0  0  0  0  0  0  0  0  0  0  0  0
   27.3690   27.8430   50.2360 C   0  0  0  0  0  0  0  0  0  0  0  0
   28.3870   27.1050   50.7480 N   0  0  0  0  0  0  0  0  0  0  0  0
   29.5880   27.0390   50.1290 C   0  0  0  0  0  3  0  0  0  0  0  0
   29.7590   27.7250   48.9910 N   0  0  0  0  0  0  0  0  0  0  0  0
   28.8310   28.4820   48.4010 C   0  0  0  0  0  0  0  0  0  0  0  0
   35.1550   29.4520   43.9340 C   0  0  0  0  0  3  0  0  0  0  0  0
   33.7680   29.3470   43.9950 C   0  0  0  0  0  3  0  0  0  0  0  0
   33.2240   29.6450   45.2280 C   0  0  0  0  0  0  0  0  0  0  0  0
   34.0410   29.9960   46.2130 N   0  0  0  0  0  0  0  0  0  0  0  0
   35.3400   30.1010   46.1790 C   0  0  0  0  0  0  0  0  0  0  0  0
   35.8540   29.8170   45.0110 N   0  0  0  0  0  0  0  0  0  0  0  0
   36.3330   30.4700   47.1770 C   0  0  0  0  0  0  0  0  0  0  0  0
   37.4630   31.2140   46.8440 C   0  0  0  0  0  3  0  0  0  0  0  0
   38.4290   31.5890   47.7490 C   0  0  0  0  0  3  0  0  0  0  0  0
   38.3080   31.2260   49.0670 C   0  0  0  0  0  3  0  0  0  0  0  0
   37.2190   30.4940   49.4500 C   0  0  0  0  0  0  0  0  0  0  0  0
   37.1000   30.1300   50.7740 C   0  0  0  0  0  3  0  0  0  0  0  0
   36.0590   29.4090   51.2410 C   0  0  0  0  0  3  0  0  0  0  0  0
   35.0810   29.0340   50.3090 C   0  0  0  0  0  3  0  0  0  0  0  0
   35.2260   29.4110   48.9910 C   0  0  0  0  0  3  0  0  0  0  0  0
   36.2710   30.1380   48.5210 C   0  0  0  0  0  0  0  0  0  0  0  0
   26.1280   27.8780   50.9250 N   0  0  0  0  0  0  0  0  0  0  0  0
   26.0080   27.3470   51.7990 H   0  0  0  0  0  0  0  0  0  0  0  0
   25.3470   28.4360   50.5500 H   0  0  0  0  0  0  0  0  0  0  0  0
  1  5  1  0  0  0  0
  2  3  2  0  0  0  0
  2  1  1  0  0  0  0
  3  4  1  0  0  0  0
  4  5  2  0  0  0  0
  4  6  1  0  0  0  0
  6 14  1  0  0  0  0
  7  6  1  0  0  0  0
  7  8  2  0  0  0  0
  8  9  1  0  0  0  0
  9 10  1  0  0  0  0
 10 11  2  0  0  0  0
 10 31  1  0  0  0  0
 12 11  1  0  0  0  0
 13 12  2  0  0  0  0
 14 13  1  0  0  0  0
 14  9  2  0  0  0  0
 15 16  2  0  0  0  0
 15 20  1  0  0  0  0
 16 17  1  0  0  0  0
 17  1  1  0  0  0  0
 17 18  2  0  0  0  0
 19 18  1  0  0  0  0
 19 21  1  0  0  0  0
 20 19  2  0  0  0  0
 21 30  1  0  0  0  0
 22 21  2  0  0  0  0
 22 23  1  0  0  0  0
 23 24  2  0  0  0  0
 24 25  1  0  0  0  0
 25 26  1  0  0  0  0
 26 27  2  0  0  0  0
 28 27  1  0  0  0  0
 29 28  2  0  0  0  0
 30 29  1  0  0  0  0
 30 25  2  0  0  0  0
 31 32  1  0  0  0  0
 33 31  1  0  0  0  0
M  END
>  <minimizedAffinity>
-9.06207752

$$$$

 OpenBabel03272514313D

 33 38  0  0  0  0  0  0  0  0999 V2000
   33.8530   28.2660   48.4230 N   0  0  0  0  0  0  0  0  0  0  0  0
   34.6830   28.1080   49.4700 C   0  0  0  0  0  3  0  0  0  0  0  0
   35.7330   28.9310   49.3570 N   0  0  0  0  0  0  0  0  0  0  0  0
   35.5610   29.6160   48.2240 C   0  0  0  0  0  0  0  0  0  0  0  0
   34.4160   29.2000   47.6700 N   0  0  0  0  0  0  0  0  0  0  0  0
   36.5090   30.5880   47.7990 N   0  0  0  0  0  0  0  0  0  0  0  0
   37.3380   31.4050   48.5130 C   0  0  0  0  0  3  0  0  0  0  0  0
   38.0670   32.1680   47.6880 N   0  0  0  0  0  0  0  0  0  0  0  0
   37.7130   31.8520   46.4100 C   0  0  0  0  0  0  0  0  0  0  0  0
   38.1730   32.3550   45.2120 C   0  0  0  0  0  0  0  0  0  0  0  0
   37.6290   31.8420   44.0780 N   0  0  0  0  0  0  0  0  0  0  0  0
   36.6800   30.8790   44.1260 C   0  0  0  0  0  3  0  0  0  0  0  0
   36.2800   30.4370   45.3250 N   0  0  0  0  0  0  0  0  0  0  0  0
   36.7440   30.8690   46.5000 C   0  0  0  0  0  0  0  0  0  0  0  0
   31.2780   25.9760   47.1690 C   0  0  0  0  0  3  0  0  0  0  0  0
   32.5340   26.5700   47.2530 C   0  0  0  0  0  3  0  0  0  0  0  0
   32.6390   27.5600   48.2090 C   0  0  0  0  0  0  0  0  0  0  0  0
   31.5710   27.8490   48.9420 N   0  0  0  0  0  0  0  0  0  0  0  0
   30.3860   27.3060   48.8810 C   0  0  0  0  0  0  0  0  0  0  0  0
   30.2890   26.3700   47.9750 N   0  0  0  0  0  0  0  0  0  0  0  0
   29.1510   27.5330   49.6180 C   0  0  0  0  0  0  0  0  0  0  0  0
   28.9210   26.9420   50.8580 C   0  0  0  0  0  3  0  0  0  0  0  0
   27.7730   27.1250   51.5940 C   0  0  0  0  0  3  0  0  0  0  0  0
   26.7730   27.9300   51.1100 C   0  0  0  0  0  3  0  0  0  0  0  0
   26.9450   28.5350   49.8970 C   0  0  0  0  0  0  0  0  0  0  0  0
   25.9380   29.3430   49.4130 C   0  0  0  0  0  3  0  0  0  0  0  0
   26.0230   29.9810   48.2270 C   0  0  0  0  0  3  0  0  0  0  0  0
   27.1970   29.7870   47.4870 C   0  0  0  0  0  3  0  0  0  0  0  0
   28.1880   28.9730   47.9940 C   0  0  0  0  0  3  0  0  0  0  0  0
   28.1050   28.3330   49.1890 C   0  0  0  0  0  0  0  0  0  0  0  0
   39.1660   33.3640   45.1060 N   0  0  0  0  0  0  0  0  0  0  0  0
   39.4670   33.6960   44.1780 H   0  0  0  0  0  0  0  0  0  0  0  0
   39.5860   33.7640   45.9570 H   0  0  0  0  0  0  0  0  0  0  0  0
  1  2  1  0  0  0  0
  3  2  2  0  0  0  0
  4  3  1  0  0  0  0
  5  4  2  0  0  0  0
  5  1  1  0  0  0  0
  6  4  1  0  0  0  0
  6  7  1  0  0  0  0
  8  7  2  0  0  0  0
  9 14  1  0  0  0  0
  9  8  1  0  0  0  0
 10  9  2  0  0  0  0
 11 12  2  0  0  0  0
 11 10  1  0  0  0  0
 12 13  1  0  0  0  0
 13 14  2  0  0  0  0
 14  6  1  0  0  0  0
 15 16  2  0  0  0  0
 15 20  1  0  0  0  0
 16 17  1  0  0  0  0
 17  1  1  0  0  0  0
 17 18  2  0  0  0  0
 19 18  1  0  0  0  0
 19 21  1  0  0  0  0
 20 19  2  0  0  0  0
 21 22  1  0  0  0  0
 22 23  2  0  0  0  0
 24 23  1  0  0  0  0
 25 24  2  0  0  0  0
 26 25  1  0  0  0  0
 27 26  2  0  0  0  0
 28 29  2  0  0  0  0
 28 27  1  0  0  0  0
 29 30  1  0  0  0  0
 30 21  2  0  0  0  0
 30 25  1  0  0  0  0
 31 10  1  0  0  0  0
 31 33  1  0  0  0  0
 32 31  1  0  0  0  0
M  END
>  <minimizedAffinity>
-8.8911314

$$$$

 OpenBabel03272514313D

 33 38  0  0  0  0  0  0  0  0999 V2000
   31.6910   29.3900   45.8710 N   0  0  0  0  0  0  0  0  0  0  0  0
   32.1280   30.3540   45.0410 C   0  0  0  0  0  3  0  0  0  0  0  0
   33.3750   30.7160   45.3670 N   0  0  0  0  0  0  0  0  0  0  0  0
   33.7280   29.9690   46.4160 C   0  0  0  0  0  0  0  0  0  0  0  0
   32.6950   29.1690   46.7090 N   0  0  0  0  0  0  0  0  0  0  0  0
   35.0100   30.1030   47.0180 N   0  0  0  0  0  0  0  0  0  0  0  0
   36.2170   30.4550   46.4900 C   0  0  0  0  0  3  0  0  0  0  0  0
   37.1630   30.4510   47.4380 N   0  0  0  0  0  0  0  0  0  0  0  0
   36.5720   30.0880   48.6120 C   0  0  0  0  0  0  0  0  0  0  0  0
   37.1140   29.9400   49.8700 C   0  0  0  0  0  0  0  0  0  0  0  0
   36.2700   29.5630   50.8650 N   0  0  0  0  0  0  0  0  0  0  0  0
   34.9560   29.3480   50.6290 C   0  0  0  0  0  3  0  0  0  0  0  0
   34.4960   29.5120   49.3820 N   0  0  0  0  0  0  0  0  0  0  0  0
   35.2330   29.8770   48.3300 C   0  0  0  0  0  0  0  0  0  0  0  0
   28.7490   27.4490   44.8590 C   0  0  0  0  0  3  0  0  0  0  0  0
   30.0270   27.9900   44.7510 C   0  0  0  0  0  3  0  0  0  0  0  0
   30.4160   28.7650   45.8250 C   0  0  0  0  0  0  0  0  0  0  0  0
   29.5680   28.9200   46.8340 N   0  0  0  0  0  0  0  0  0  0  0  0
   28.3680   28.4240   46.9570 C   0  0  0  0  0  0  0  0  0  0  0  0
   28.0020   27.6910   45.9390 N   0  0  0  0  0  0  0  0  0  0  0  0
   27.3560   28.5210   47.9990 C   0  0  0  0  0  0  0  0  0  0  0  0
   26.1250   29.1290   47.7660 C   0  0  0  0  0  3  0  0  0  0  0  0
   25.1360   29.2450   48.7150 C   0  0  0  0  0  3  0  0  0  0  0  0
   25.3370   28.7450   49.9770 C   0  0  0  0  0  3  0  0  0  0  0  0
   26.5280   28.1380   50.2610 C   0  0  0  0  0  0  0  0  0  0  0  0
   26.7290   27.6370   51.5290 C   0  0  0  0  0  3  0  0  0  0  0  0
   27.8720   27.0220   51.8980 C   0  0  0  0  0  3  0  0  0  0  0  0
   28.8720   26.9090   50.9220 C   0  0  0  0  0  3  0  0  0  0  0  0
   28.6450   27.4210   49.6610 C   0  0  0  0  0  3  0  0  0  0  0  0
   27.4950   28.0370   49.2900 C   0  0  0  0  0  0  0  0  0  0  0  0
   38.4850   30.1530   50.1710 N   0  0  0  0  0  0  0  0  0  0  0  0
   38.8270   30.0240   51.1340 H   0  0  0  0  0  0  0  0  0  0  0  0
   39.1370   30.4360   49.4260 H   0  0  0  0  0  0  0  0  0  0  0  0
  1  5  1  0  0  0  0
  2  3  2  0  0  0  0
  2  1  1  0  0  0  0
  3  4  1  0  0  0  0
  4  5  2  0  0  0  0
  4  6  1  0  0  0  0
  6 14  1  0  0  0  0
  7  6  1  0  0  0  0
  7  8  2  0  0  0  0
  8  9  1  0  0  0  0
  9 10  1  0  0  0  0
 10 31  1  0  0  0  0
 10 11  2  0  0  0  0
 12 11  1  0  0  0  0
 13 12  2  0  0  0  0
 14  9  2  0  0  0  0
 14 13  1  0  0  0  0
 15 20  1  0  0  0  0
 16 15  2  0  0  0  0
 16 17  1  0  0  0  0
 17  1  1  0  0  0  0
 17 18  2  0  0  0  0
 18 19  1  0  0  0  0
 19 21  1  0  0  0  0
 20 19  2  0  0  0  0
 21 30  1  0  0  0  0
 22 21  2  0  0  0  0
 22 23  1  0  0  0  0
 23 24  2  0  0  0  0
 24 25  1  0  0  0  0
 25 26  1  0  0  0  0
 26 27  2  0  0  0  0
 28 27  1  0  0  0  0
 29 28  2  0  0  0  0
 30 29  1  0  0  0  0
 30 25  2  0  0  0  0
 31 32  1  0  0  0  0
 33 31  1  0  0  0  0
M  END
>  <minimizedAffinity>
-8.53080368

$$$$

 OpenBabel03272514313D

 33 38  0  0  0  0  0  0  0  0999 V2000
   31.4930   29.5350   45.2430 N   0  0  0  0  0  0  0  0  0  0  0  0
   31.5160   29.0540   43.9870 C   0  0  0  0  0  3  0  0  0  0  0  0
   30.5890   29.6640   43.2400 N   0  0  0  0  0  0  0  0  0  0  0  0
   29.9730   30.5420   44.0360 C   0  0  0  0  0  0  0  0  0  0  0  0
   30.5340   30.4500   45.2480 N   0  0  0  0  0  0  0  0  0  0  0  0
   28.9200   31.3660   43.5510 N   0  0  0  0  0  0  0  0  0  0  0  0
   28.6840   31.8820   42.3090 C   0  0  0  0  0  3  0  0  0  0  0  0
   27.5600   32.6100   42.3110 N   0  0  0  0  0  0  0  0  0  0  0  0
   27.0460   32.5770   43.5730 C   0  0  0  0  0  0  0  0  0  0  0  0
   25.9090   33.1650   44.0840 C   0  0  0  0  0  0  0  0  0  0  0  0
   25.6440   32.9560   45.3990 N   0  0  0  0  0  0  0  0  0  0  0  0
   26.4600   32.2000   46.1690 C   0  0  0  0  0  3  0  0  0  0  0  0
   27.5480   31.6580   45.6070 N   0  0  0  0  0  0  0  0  0  0  0  0
   27.9060   31.7990   44.3290 C   0  0  0  0  0  0  0  0  0  0  0  0
   32.9030   27.8310   48.1680 C   0  0  0  0  0  3  0  0  0  0  0  0
   31.9650   28.1170   47.1790 C   0  0  0  0  0  3  0  0  0  0  0  0
   32.3360   29.1220   46.3090 C   0  0  0  0  0  0  0  0  0  0  0  0
   33.5140   29.7080   46.4840 N   0  0  0  0  0  0  0  0  0  0  0  0
   34.4070   29.4580   47.4000 C   0  0  0  0  0  0  0  0  0  0  0  0
   34.0530   28.5060   48.2240 N   0  0  0  0  0  0  0  0  0  0  0  0
   35.7160   30.0240   47.6920 C   0  0  0  0  0  0  0  0  0  0  0  0
   36.5120   30.5760   46.6920 C   0  0  0  0  0  3  0  0  0  0  0  0
   37.7550   31.1230   46.9160 C   0  0  0  0  0  3  0  0  0  0  0  0
   38.2740   31.1440   48.1860 C   0  0  0  0  0  3  0  0  0  0  0  0
   37.5350   30.6140   49.2070 C   0  0  0  0  0  0  0  0  0  0  0  0
   38.0580   30.6350   50.4810 C   0  0  0  0  0  3  0  0  0  0  0  0
   37.3990   30.1370   51.5480 C   0  0  0  0  0  3  0  0  0  0  0  0
   36.1350   29.5820   51.3070 C   0  0  0  0  0  3  0  0  0  0  0  0
   35.6350   29.5730   50.0220 C   0  0  0  0  0  3  0  0  0  0  0  0
   36.2970   30.0760   48.9490 C   0  0  0  0  0  0  0  0  0  0  0  0
   25.0200   33.9660   43.3190 N   0  0  0  0  0  0  0  0  0  0  0  0
   24.1860   34.3770   43.7620 H   0  0  0  0  0  0  0  0  0  0  0  0
   25.2100   34.1350   42.3210 H   0  0  0  0  0  0  0  0  0  0  0  0
  1  5  1  0  0  0  0
  1 17  1  0  0  0  0
  2  1  1  0  0  0  0
  3  2  2  0  0  0  0
  3  4  1  0  0  0  0
  4  5  2  0  0  0  0
  6  4  1  0  0  0  0
  6 14  1  0  0  0  0
  7  8  2  0  0  0  0
  7  6  1  0  0  0  0
  8  9  1  0  0  0  0
  9 10  2  0  0  0  0
  9 14  1  0  0  0  0
 10 11  1  0  0  0  0
 11 12  2  0  0  0  0
 13 12  1  0  0  0  0
 14 13  2  0  0  0  0
 15 20  1  0  0  0  0
 16 15  2  0  0  0  0
 17 18  2  0  0  0  0
 17 16  1  0  0  0  0
 18 19  1  0  0  0  0
 19 21  1  0  0  0  0
 19 20  2  0  0  0  0
 21 30  1  0  0  0  0
 22 23  1  0  0  0  0
 22 21  2  0  0  0  0
 23 24  2  0  0  0  0
 24 25  1  0  0  0  0
 25 26  1  0  0  0  0
 26 27  2  0  0  0  0
 28 27  1  0  0  0  0
 29 28  2  0  0  0  0
 30 25  2  0  0  0  0
 30 29  1  0  0  0  0
 31 32  1  0  0  0  0
 31 10  1  0  0  0  0
 33 31  1  0  0  0  0
M  END
>  <minimizedAffinity>
-8.37103081

$$$$

 OpenBabel03272514313D

 33 38  0  0  0  0  0  0  0  0999 V2000
   31.5670   29.2050   46.2310 N   0  0  0  0  0  0  0  0  0  0  0  0
   31.9280   30.1720   45.3670 C   0  0  0  0  0  3  0  0  0  0  0  0
   33.1810   30.5710   45.6170 N   0  0  0  0  0  0  0  0  0  0  0  0
   33.6150   29.8460   46.6510 C   0  0  0  0  0  0  0  0  0  0  0  0
   32.6230   29.0220   47.0110 N   0  0  0  0  0  0  0  0  0  0  0  0
   34.9250   30.0220   47.1770 N   0  0  0  0  0  0  0  0  0  0  0  0
   36.0900   30.4010   46.5760 C   0  0  0  0  0  3  0  0  0  0  0  0
   37.0880   30.4330   47.4680 N   0  0  0  0  0  0  0  0  0  0  0  0
   36.5760   30.0680   48.6770 C   0  0  0  0  0  0  0  0  0  0  0  0
   37.1940   29.9480   49.9030 C   0  0  0  0  0  0  0  0  0  0  0  0
   36.4190   29.5600   50.9490 N   0  0  0  0  0  0  0  0  0  0  0  0
   35.1000   29.3060   50.7910 C   0  0  0  0  0  3  0  0  0  0  0  0
   34.5650   29.4430   49.5710 N   0  0  0  0  0  0  0  0  0  0  0  0
   35.2300   29.8160   48.4750 C   0  0  0  0  0  0  0  0  0  0  0  0
   28.8010   26.8560   45.7030 C   0  0  0  0  0  3  0  0  0  0  0  0
   30.0850   27.3760   45.5670 C   0  0  0  0  0  3  0  0  0  0  0  0
   30.3090   28.5460   46.2640 C   0  0  0  0  0  0  0  0  0  0  0  0
   29.3160   29.0550   46.9820 N   0  0  0  0  0  0  0  0  0  0  0  0
   28.1070   28.5870   47.1250 C   0  0  0  0  0  0  0  0  0  0  0  0
   27.8970   27.4790   46.4630 N   0  0  0  0  0  0  0  0  0  0  0  0
   26.9450   29.0470   47.8720 C   0  0  0  0  0  0  0  0  0  0  0  0
   26.3110   28.2350   48.8090 C   0  0  0  0  0  3  0  0  0  0  0  0
   25.2120   28.6230   49.5410 C   0  0  0  0  0  3  0  0  0  0  0  0
   24.6810   29.8760   49.3640 C   0  0  0  0  0  3  0  0  0  0  0  0
   25.2640   30.7150   48.4560 C   0  0  0  0  0  0  0  0  0  0  0  0
   24.7290   31.9730   48.2800 C   0  0  0  0  0  3  0  0  0  0  0  0
   25.2400   32.8670   47.4070 C   0  0  0  0  0  3  0  0  0  0  0  0
   26.3590   32.4600   46.6680 C   0  0  0  0  0  3  0  0  0  0  0  0
   26.8730   31.1950   46.8630 C   0  0  0  0  0  3  0  0  0  0  0  0
   26.3620   30.2970   47.7430 C   0  0  0  0  0  0  0  0  0  0  0  0
   38.5730   30.2020   50.1220 N   0  0  0  0  0  0  0  0  0  0  0  0
   38.9740   30.0940   51.0650 H   0  0  0  0  0  0  0  0  0  0  0  0
   39.1730   30.4950   49.3380 H   0  0  0  0  0  0  0  0  0  0  0  0
  1 17  1  0  0  0  0
  1  5  1  0  0  0  0
  2  3  2  0  0  0  0
  2  1  1  0  0  0  0
  3  4  1  0  0  0  0
  4  5  2  0  0  0  0
  4  6  1  0  0  0  0
  6 14  1  0  0  0  0
  7  6  1  0  0  0  0
  7  8  2  0  0  0  0
  8  9  1  0  0  0  0
  9 10  1  0  0  0  0
 10 31  1  0  0  0  0
 10 11  2  0  0  0  0
 12 11  1  0  0  0  0
 13 12  2  0  0  0  0
 14  9  2  0  0  0  0
 14 13  1  0  0  0  0
 15 20  1  0  0  0  0
 16 15  2  0  0  0  0
 16 17  1  0  0  0  0
 17 18  2  0  0  0  0
 18 19  1  0  0  0  0
 19 21  1  0  0  0  0
 20 19  2  0  0  0  0
 21 22  1  0  0  0  0
 22 23  2  0  0  0  0
 24 23  1  0  0  0  0
 25 24  2  0  0  0  0
 26 25  1  0  0  0  0
 27 26  2  0  0  0  0
 28 29  2  0  0  0  0
 28 27  1  0  0  0  0
 29 30  1  0  0  0  0
 30 21  2  0  0  0  0
 30 25  1  0  0  0  0
 31 32  1  0  0  0  0
 33 31  1  0  0  0  0
M  END
>  <minimizedAffinity>
-8.33406639

$$$$

 OpenBabel03272514313D

 33 38  0  0  0  0  0  0  0  0999 V2000
   31.3690   29.1370   46.4680 N   0  0  0  0  0  0  0  0  0  0  0  0
   30.0570   28.9450   46.6970 C   0  0  0  0  0  3  0  0  0  0  0  0
   29.3280   29.7660   45.9310 N   0  0  0  0  0  0  0  0  0  0  0  0
   30.1930   30.4850   45.2100 C   0  0  0  0  0  0  0  0  0  0  0  0
   31.4260   30.0900   45.5480 N   0  0  0  0  0  0  0  0  0  0  0  0
   29.7440   31.4640   44.2820 N   0  0  0  0  0  0  0  0  0  0  0  0
   28.6070   31.5340   43.5300 C   0  0  0  0  0  3  0  0  0  0  0  0
   28.6030   32.6490   42.7880 N   0  0  0  0  0  0  0  0  0  0  0  0
   29.7560   33.3270   43.0530 C   0  0  0  0  0  0  0  0  0  0  0  0
   30.2190   34.5230   42.5480 C   0  0  0  0  0  0  0  0  0  0  0  0
   31.4210   34.9610   43.0020 N   0  0  0  0  0  0  0  0  0  0  0  0
   32.1290   34.2540   43.9120 C   0  0  0  0  0  3  0  0  0  0  0  0
   31.6200   33.0990   44.3610 N   0  0  0  0  0  0  0  0  0  0  0  0
   30.4520   32.5740   43.9830 C   0  0  0  0  0  0  0  0  0  0  0  0
   33.6620   26.5450   47.6800 C   0  0  0  0  0  3  0  0  0  0  0  0
   32.5650   27.0720   47.0040 C   0  0  0  0  0  3  0  0  0  0  0  0
   32.4340   28.4430   47.1000 C   0  0  0  0  0  0  0  0  0  0  0  0
   33.3360   29.1170   47.8040 N   0  0  0  0  0  0  0  0  0  0  0  0
   34.3700   28.6460   48.4440 C   0  0  0  0  0  0  0  0  0  0  0  0
   34.4910   27.3480   48.3520 N   0  0  0  0  0  0  0  0  0  0  0  0
   35.4150   29.2730   49.2400 C   0  0  0  0  0  0  0  0  0  0  0  0
   35.4920   29.0900   50.6190 C   0  0  0  0  0  3  0  0  0  0  0  0
   36.4590   29.6590   51.4150 C   0  0  0  0  0  3  0  0  0  0  0  0
   37.4210   30.4610   50.8540 C   0  0  0  0  0  3  0  0  0  0  0  0
   37.3930   30.6760   49.5040 C   0  0  0  0  0  0  0  0  0  0  0  0
   38.3590   31.4820   48.9430 C   0  0  0  0  0  3  0  0  0  0  0  0
   38.4090   31.7490   47.6210 C   0  0  0  0  0  3  0  0  0  0  0  0
   37.4190   31.1630   46.8210 C   0  0  0  0  0  3  0  0  0  0  0  0
   36.4630   30.3610   47.4080 C   0  0  0  0  0  3  0  0  0  0  0  0
   36.4140   30.0910   48.7380 C   0  0  0  0  0  0  0  0  0  0  0  0
   29.5150   35.3040   41.5930 N   0  0  0  0  0  0  0  0  0  0  0  0
   29.9170   36.1900   41.2560 H   0  0  0  0  0  0  0  0  0  0  0  0
   28.6030   34.9830   41.2380 H   0  0  0  0  0  0  0  0  0  0  0  0
  1  2  1  0  0  0  0
  1 17  1  0  0  0  0
  3  2  2  0  0  0  0
  4  5  2  0  0  0  0
  4  3  1  0  0  0  0
  5  1  1  0  0  0  0
  6  4  1  0  0  0  0
  7  6  1  0  0  0  0
  8  9  1  0  0  0  0
  8  7  2  0  0  0  0
  9 14  1  0  0  0  0
 10 11  1  0  0  0  0
 10  9  2  0  0  0  0
 11 12  2  0  0  0  0
 12 13  1  0  0  0  0
 14  6  1  0  0  0  0
 14 13  2  0  0  0  0
 15 20  1  0  0  0  0
 16 17  1  0  0  0  0
 16 15  2  0  0  0  0
 17 18  2  0  0  0  0
 18 19  1  0  0  0  0
 19 21  1  0  0  0  0
 20 19  2  0  0  0  0
 21 22  1  0  0  0  0
 22 23  2  0  0  0  0
 24 23  1  0  0  0  0
 25 24  2  0  0  0  0
 26 25  1  0  0  0  0
 27 26  2  0  0  0  0
 28 29  2  0  0  0  0
 28 27  1  0  0  0  0
 29 30  1  0  0  0  0
 30 21  2  0  0  0  0
 30 25  1  0  0  0  0
 31 10  1  0  0  0  0
 32 31  1  0  0  0  0
 33 31  1  0  0  0  0
M  END
>  <minimizedAffinity>
-8.26385784

$$$$

 OpenBabel03272514313D

 33 38  0  0  0  0  0  0  0  0999 V2000
   31.8830   29.5060   46.2960 N   0  0  0  0  0  0  0  0  0  0  0  0
   32.1060   30.6380   45.6020 C   0  0  0  0  0  3  0  0  0  0  0  0
   31.0010   31.0000   44.9390 N   0  0  0  0  0  0  0  0  0  0  0  0
   30.0700   30.0840   45.2190 C   0  0  0  0  0  0  0  0  0  0  0  0
   30.6220   29.1860   46.0440 N   0  0  0  0  0  0  0  0  0  0  0  0
   28.7610   30.1720   44.6690 N   0  0  0  0  0  0  0  0  0  0  0  0
   28.0100   31.2520   44.3060 C   0  0  0  0  0  3  0  0  0  0  0  0
   26.8230   30.8580   43.8280 N   0  0  0  0  0  0  0  0  0  0  0  0
   26.7870   29.4960   43.8770 C   0  0  0  0  0  0  0  0  0  0  0  0
   25.7930   28.6200   43.5000 C   0  0  0  0  0  0  0  0  0  0  0  0
   26.0410   27.2950   43.6660 N   0  0  0  0  0  0  0  0  0  0  0  0
   27.2160   26.8590   44.1750 C   0  0  0  0  0  3  0  0  0  0  0  0
   28.1390   27.7650   44.5200 N   0  0  0  0  0  0  0  0  0  0  0  0
   28.0010   29.0880   44.4020 C   0  0  0  0  0  0  0  0  0  0  0  0
   33.7580   26.9630   48.1550 C   0  0  0  0  0  3  0  0  0  0  0  0
   32.7590   27.4700   47.3300 C   0  0  0  0  0  3  0  0  0  0  0  0
   32.8280   28.8320   47.1140 C   0  0  0  0  0  0  0  0  0  0  0  0
   33.8080   29.5150   47.6910 N   0  0  0  0  0  0  0  0  0  0  0  0
   34.7540   29.0630   48.4670 C   0  0  0  0  0  0  0  0  0  0  0  0
   34.6860   27.7730   48.6700 N   0  0  0  0  0  0  0  0  0  0  0  0
   35.8680   29.7020   49.1520 C   0  0  0  0  0  0  0  0  0  0  0  0
   36.0620   29.5580   50.5240 C   0  0  0  0  0  3  0  0  0  0  0  0
   37.0980   30.1410   51.2160 C   0  0  0  0  0  3  0  0  0  0  0  0
   38.0140   30.9160   50.5520 C   0  0  0  0  0  3  0  0  0  0  0  0
   37.8720   31.0920   49.2040 C   0  0  0  0  0  0  0  0  0  0  0  0
   38.7930   31.8710   48.5380 C   0  0  0  0  0  3  0  0  0  0  0  0
   38.7310   32.0980   47.2090 C   0  0  0  0  0  3  0  0  0  0  0  0
   37.6720   31.4990   46.5140 C   0  0  0  0  0  3  0  0  0  0  0  0
   36.7640   30.7250   47.2050 C   0  0  0  0  0  3  0  0  0  0  0  0
   36.8260   30.4950   48.5410 C   0  0  0  0  0  0  0  0  0  0  0  0
   24.5430   29.0260   42.9610 N   0  0  0  0  0  0  0  0  0  0  0  0
   23.8410   28.3190   42.6990 H   0  0  0  0  0  0  0  0  0  0  0  0
   24.3390   30.0270   42.8320 H   0  0  0  0  0  0  0  0  0  0  0  0
  1 17  1  0  0  0  0
  2  1  1  0  0  0  0
  3  4  1  0  0  0  0
  3  2  2  0  0  0  0
  4  5  2  0  0  0  0
  5  1  1  0  0  0  0
  6  4  1  0  0  0  0
  7  6  1  0  0  0  0
  8  9  1  0  0  0  0
  8  7  2  0  0  0  0
  9 14  1  0  0  0  0
 10 11  1  0  0  0  0
 10  9  2  0  0  0  0
 11 12  2  0  0  0  0
 12 13  1  0  0  0  0
 14 13  2  0  0  0  0
 14  6  1  0  0  0  0
 15 20  1  0  0  0  0
 16 15  2  0  0  0  0
 17 16  1  0  0  0  0
 17 18  2  0  0  0  0
 18 19  1  0  0  0  0
 19 20  2  0  0  0  0
 19 21  1  0  0  0  0
 21 22  1  0  0  0  0
 22 23  2  0  0  0  0
 24 23  1  0  0  0  0
 25 24  2  0  0  0  0
 26 25  1  0  0  0  0
 27 26  2  0  0  0  0
 28 29  2  0  0  0  0
 28 27  1  0  0  0  0
 29 30  1  0  0  0  0
 30 21  2  0  0  0  0
 30 25  1  0  0  0  0
 31 10  1  0  0  0  0
 32 31  1  0  0  0  0
 33 31  1  0  0  0  0
M  END
>  <minimizedAffinity>
-8.19385624

$$$$
