
 OpenBabel03272514353D

 29 34  0  0  0  0  0  0  0  0999 V2000
   32.8880   26.1230   47.7090 C   0  0  0  0  0  3  0  0  0  0  0  0
   31.5560   26.4200   47.5020 C   0  0  0  0  0  3  0  0  0  0  0  0
   31.2840   27.7680   47.3080 C   0  0  0  0  0  0  0  0  0  0  0  0
   32.2940   28.6210   47.3390 N   0  0  0  0  0  0  0  0  0  0  0  0
   33.5730   28.3540   47.5360 C   0  0  0  0  0  0  0  0  0  0  0  0
   33.8150   27.0730   47.7170 N   0  0  0  0  0  0  0  0  0  0  0  0
   29.9660   28.2400   47.0830 N   0  0  0  0  0  0  0  0  0  0  0  0
   29.1180   27.8240   46.1230 C   0  0  0  0  0  3  0  0  0  0  0  0
   27.9740   28.4760   46.2030 N   0  0  0  0  0  0  0  0  0  0  0  0
   28.0770   29.3370   47.2370 C   0  0  0  0  0  0  0  0  0  0  0  0
   29.3160   29.1600   47.7510 N   0  0  0  0  0  0  0  0  0  0  0  0
   34.7610   29.1810   47.5920 C   0  0  0  0  0  0  0  0  0  0  0  0
   35.2870   29.7770   46.4560 C   0  0  0  0  0  3  0  0  0  0  0  0
   36.4120   30.5690   46.4670 C   0  0  0  0  0  3  0  0  0  0  0  0
   37.0850   30.8120   47.6560 C   0  0  0  0  0  3  0  0  0  0  0  0
   36.6010   30.2480   48.7840 C   0  0  0  0  0  0  0  0  0  0  0  0
   37.2670   30.4870   49.9660 C   0  0  0  0  0  3  0  0  0  0  0  0
   36.8550   29.9610   51.1600 C   0  0  0  0  0  3  0  0  0  0  0  0
   35.7150   29.1590   51.1330 C   0  0  0  0  0  3  0  0  0  0  0  0
   35.0800   28.9440   49.9470 C   0  0  0  0  0  3  0  0  0  0  0  0
   35.4810   29.4650   48.7460 C   0  0  0  0  0  0  0  0  0  0  0  0
   27.1810   30.3150   47.8290 C   0  0  0  0  0  0  0  0  0  0  0  0
   26.7480   30.5900   49.0630 N   0  0  0  0  0  0  0  0  0  0  0  0
   25.9320   31.5950   49.0450 O   0  0  0  0  0  0  0  0  0  0  0  0
   25.8090   32.0060   47.7810 C   0  0  0  0  0  0  0  0  0  0  0  0
   26.5860   31.2160   47.0000 N   0  0  0  0  0  0  0  0  0  0  0  0
   24.9540   33.1460   47.3410 C   0  0  0  0  0  3  0  0  0  0  0  0
   25.5650   34.4720   47.1820 C   0  0  0  0  0  2  0  0  0  0  0  0
   25.1850   33.7160   45.9570 C   0  0  0  0  0  2  0  0  0  0  0  0
  1  6  1  0  0  0  0
  2  1  2  0  0  0  0
  3  4  2  0  0  0  0
  3  2  1  0  0  0  0
  4  5  1  0  0  0  0
  5 12  1  0  0  0  0
  5  6  2  0  0  0  0
  7  3  1  0  0  0  0
  7 11  1  0  0  0  0
  8  9  2  0  0  0  0
  8  7  1  0  0  0  0
  9 10  1  0  0  0  0
 10 11  2  0  0  0  0
 10 22  1  0  0  0  0
 12 21  1  0  0  0  0
 13 14  1  0  0  0  0
 13 12  2  0  0  0  0
 14 15  2  0  0  0  0
 15 16  1  0  0  0  0
 16 17  1  0  0  0  0
 17 18  2  0  0  0  0
 19 18  1  0  0  0  0
 20 19  2  0  0  0  0
 21 16  2  0  0  0  0
 21 20  1  0  0  0  0
 22 23  2  0  0  0  0
 24 23  1  0  0  0  0
 25 24  1  0  0  0  0
 26 25  2  0  0  0  0
 26 22  1  0  0  0  0
 27 25  1  0  0  0  0
 28 27  1  0  0  0  0
 29 28  1  0  0  0  0
 29 27  1  0  0  0  0
M  END
>  <minimizedAffinity>
-8.32041073

$$$$

 OpenBabel03272514353D

 29 34  0  0  0  0  0  0  0  0999 V2000
   35.1200   29.9700   44.9050 C   0  0  0  0  0  3  0  0  0  0  0  0
   33.7940   30.1200   44.5520 C   0  0  0  0  0  3  0  0  0  0  0  0
   32.9120   30.2030   45.6220 C   0  0  0  0  0  0  0  0  0  0  0  0
   33.4070   30.1320   46.8470 N   0  0  0  0  0  0  0  0  0  0  0  0
   34.6720   29.9880   47.2020 C   0  0  0  0  0  0  0  0  0  0  0  0
   35.4940   29.9120   46.1770 N   0  0  0  0  0  0  0  0  0  0  0  0
   31.5170   30.3580   45.4310 N   0  0  0  0  0  0  0  0  0  0  0  0
   30.9070   31.3260   44.7190 C   0  0  0  0  0  3  0  0  0  0  0  0
   29.5970   31.1670   44.7520 N   0  0  0  0  0  0  0  0  0  0  0  0
   29.3460   30.0730   45.5010 C   0  0  0  0  0  0  0  0  0  0  0  0
   30.5520   29.6050   45.8990 N   0  0  0  0  0  0  0  0  0  0  0  0
   35.3360   29.8980   48.4860 C   0  0  0  0  0  0  0  0  0  0  0  0
   34.8610   29.0730   49.4940 C   0  0  0  0  0  3  0  0  0  0  0  0
   35.4620   28.9590   50.7270 C   0  0  0  0  0  3  0  0  0  0  0  0
   36.6060   29.6880   51.0170 C   0  0  0  0  0  3  0  0  0  0  0  0
   37.0980   30.5020   50.0590 C   0  0  0  0  0  0  0  0  0  0  0  0
   38.2350   31.2280   50.3440 C   0  0  0  0  0  3  0  0  0  0  0  0
   38.8090   32.0790   49.4390 C   0  0  0  0  0  3  0  0  0  0  0  0
   38.1880   32.1850   48.1960 C   0  0  0  0  0  3  0  0  0  0  0  0
   37.0670   31.4530   47.9460 C   0  0  0  0  0  3  0  0  0  0  0  0
   36.4830   30.5970   48.8420 C   0  0  0  0  0  0  0  0  0  0  0  0
   28.1330   29.3850   45.9080 C   0  0  0  0  0  0  0  0  0  0  0  0
   27.0520   28.9080   45.2850 N   0  0  0  0  0  0  0  0  0  0  0  0
   26.2390   28.3680   46.1370 O   0  0  0  0  0  0  0  0  0  0  0  0
   26.7760   28.4830   47.3530 C   0  0  0  0  0  0  0  0  0  0  0  0
   27.9670   29.1180   47.2320 N   0  0  0  0  0  0  0  0  0  0  0  0
   26.1450   27.9830   48.6070 C   0  0  0  0  0  3  0  0  0  0  0  0
   26.5190   28.6010   49.8860 C   0  0  0  0  0  2  0  0  0  0  0  0
   25.1700   28.8940   49.3260 C   0  0  0  0  0  2  0  0  0  0  0  0
  1  6  1  0  0  0  0
  2  1  2  0  0  0  0
  2  3  1  0  0  0  0
  3  4  2  0  0  0  0
  4  5  1  0  0  0  0
  5 12  1  0  0  0  0
  6  5  2  0  0  0  0
  7  3  1  0  0  0  0
  7 11  1  0  0  0  0
  8  9  2  0  0  0  0
  8  7  1  0  0  0  0
  9 10  1  0  0  0  0
 10 11  2  0  0  0  0
 10 22  1  0  0  0  0
 12 21  2  0  0  0  0
 12 13  1  0  0  0  0
 13 14  2  0  0  0  0
 14 15  1  0  0  0  0
 16 17  1  0  0  0  0
 16 15  2  0  0  0  0
 18 17  2  0  0  0  0
 19 18  1  0  0  0  0
 20 19  2  0  0  0  0
 20 21  1  0  0  0  0
 21 16  1  0  0  0  0
 22 26  1  0  0  0  0
 23 22  2  0  0  0  0
 23 24  1  0  0  0  0
 24 25  1  0  0  0  0
 25 27  1  0  0  0  0
 26 25  2  0  0  0  0
 27 29  1  0  0  0  0
 27 28  1  0  0  0  0
 29 28  1  0  0  0  0
M  END
>  <minimizedAffinity>
-8.29166794

$$$$

 OpenBabel03272514353D

 29 34  0  0  0  0  0  0  0  0999 V2000
   35.5010   29.5440   44.1900 C   0  0  0  0  0  3  0  0  0  0  0  0
   34.1240   29.4400   44.2210 C   0  0  0  0  0  3  0  0  0  0  0  0
   33.5410   29.8080   45.4270 C   0  0  0  0  0  0  0  0  0  0  0  0
   34.3310   30.2120   46.4070 N   0  0  0  0  0  0  0  0  0  0  0  0
   35.6480   30.3170   46.3940 C   0  0  0  0  0  0  0  0  0  0  0  0
   36.1860   29.9660   45.2460 N   0  0  0  0  0  0  0  0  0  0  0  0
   32.1380   29.7580   45.6230 N   0  0  0  0  0  0  0  0  0  0  0  0
   31.1990   30.3590   44.8660 C   0  0  0  0  0  3  0  0  0  0  0  0
   29.9930   30.1020   45.3350 N   0  0  0  0  0  0  0  0  0  0  0  0
   30.1460   29.3170   46.4230 C   0  0  0  0  0  0  0  0  0  0  0  0
   31.4790   29.1300   46.5660 N   0  0  0  0  0  0  0  0  0  0  0  0
   36.6180   30.7400   47.3830 C   0  0  0  0  0  0  0  0  0  0  0  0
   37.6680   31.5840   47.0570 C   0  0  0  0  0  3  0  0  0  0  0  0
   38.6100   32.0080   47.9660 C   0  0  0  0  0  3  0  0  0  0  0  0
   38.5420   31.5950   49.2890 C   0  0  0  0  0  3  0  0  0  0  0  0
   37.5320   30.7720   49.6430 C   0  0  0  0  0  0  0  0  0  0  0  0
   37.4600   30.3590   50.9570 C   0  0  0  0  0  3  0  0  0  0  0  0
   36.4750   29.5270   51.4120 C   0  0  0  0  0  3  0  0  0  0  0  0
   35.5290   29.1040   50.4790 C   0  0  0  0  0  3  0  0  0  0  0  0
   35.6280   29.5320   49.1900 C   0  0  0  0  0  3  0  0  0  0  0  0
   36.6080   30.3650   48.7210 C   0  0  0  0  0  0  0  0  0  0  0  0
   29.2250   28.7060   47.3640 C   0  0  0  0  0  0  0  0  0  0  0  0
   29.0680   27.4890   47.8930 N   0  0  0  0  0  0  0  0  0  0  0  0
   28.0590   27.4740   48.7050 O   0  0  0  0  0  0  0  0  0  0  0  0
   27.5250   28.6970   48.7260 C   0  0  0  0  0  0  0  0  0  0  0  0
   28.2420   29.4880   47.8910 N   0  0  0  0  0  0  0  0  0  0  0  0
   26.3420   29.0890   49.5430 C   0  0  0  0  0  3  0  0  0  0  0  0
   25.4490   30.1420   49.0400 C   0  0  0  0  0  2  0  0  0  0  0  0
   24.9650   28.7340   49.0190 C   0  0  0  0  0  2  0  0  0  0  0  0
  1  2  2  0  0  0  0
  1  6  1  0  0  0  0
  2  3  1  0  0  0  0
  3  7  1  0  0  0  0
  3  4  2  0  0  0  0
  5  4  1  0  0  0  0
  5 12  1  0  0  0  0
  6  5  2  0  0  0  0
  7 11  1  0  0  0  0
  8  9  2  0  0  0  0
  8  7  1  0  0  0  0
  9 10  1  0  0  0  0
 10 11  2  0  0  0  0
 10 22  1  0  0  0  0
 12 21  1  0  0  0  0
 13 12  2  0  0  0  0
 13 14  1  0  0  0  0
 14 15  2  0  0  0  0
 15 16  1  0  0  0  0
 16 17  1  0  0  0  0
 17 18  2  0  0  0  0
 19 18  1  0  0  0  0
 20 19  2  0  0  0  0
 21 20  1  0  0  0  0
 21 16  2  0  0  0  0
 22 26  1  0  0  0  0
 22 23  2  0  0  0  0
 23 24  1  0  0  0  0
 24 25  1  0  0  0  0
 25 27  1  0  0  0  0
 26 25  2  0  0  0  0
 28 27  1  0  0  0  0
 29 28  1  0  0  0  0
 29 27  1  0  0  0  0
M  END
>  <minimizedAffinity>
-8.12235355

$$$$

 OpenBabel03272514353D

 29 34  0  0  0  0  0  0  0  0999 V2000
   33.3610   26.1370   47.4960 C   0  0  0  0  0  3  0  0  0  0  0  0
   32.1100   26.5210   47.0550 C   0  0  0  0  0  3  0  0  0  0  0  0
   31.7910   27.8520   47.2940 C   0  0  0  0  0  0  0  0  0  0  0  0
   32.6860   28.6100   47.9050 N   0  0  0  0  0  0  0  0  0  0  0  0
   33.8870   28.2590   48.3330 C   0  0  0  0  0  0  0  0  0  0  0  0
   34.1740   26.9960   48.0990 N   0  0  0  0  0  0  0  0  0  0  0  0
   30.5450   28.4030   46.9030 N   0  0  0  0  0  0  0  0  0  0  0  0
   30.0140   28.3900   45.6650 C   0  0  0  0  0  3  0  0  0  0  0  0
   28.8410   28.9940   45.6590 N   0  0  0  0  0  0  0  0  0  0  0  0
   28.6000   29.4110   46.9200 C   0  0  0  0  0  0  0  0  0  0  0  0
   29.6710   29.0280   47.6530 N   0  0  0  0  0  0  0  0  0  0  0  0
   34.9470   28.9790   49.0060 C   0  0  0  0  0  0  0  0  0  0  0  0
   35.1300   28.8900   50.3770 C   0  0  0  0  0  3  0  0  0  0  0  0
   36.1250   29.5580   51.0550 C   0  0  0  0  0  3  0  0  0  0  0  0
   37.0140   30.3720   50.3670 C   0  0  0  0  0  3  0  0  0  0  0  0
   36.8660   30.4830   49.0300 C   0  0  0  0  0  0  0  0  0  0  0  0
   37.7480   31.2910   48.3440 C   0  0  0  0  0  3  0  0  0  0  0  0
   37.6800   31.4670   46.9890 C   0  0  0  0  0  3  0  0  0  0  0  0
   36.6660   30.7850   46.3170 C   0  0  0  0  0  3  0  0  0  0  0  0
   35.8130   29.9940   47.0250 C   0  0  0  0  0  3  0  0  0  0  0  0
   35.8700   29.8090   48.3810 C   0  0  0  0  0  0  0  0  0  0  0  0
   27.5050   30.1220   47.5560 C   0  0  0  0  0  0  0  0  0  0  0  0
   26.8210   29.9980   48.6970 N   0  0  0  0  0  0  0  0  0  0  0  0
   25.9150   30.9200   48.7850 O   0  0  0  0  0  0  0  0  0  0  0  0
   25.9860   31.6770   47.6890 C   0  0  0  0  0  0  0  0  0  0  0  0
   26.9790   31.1940   46.9020 N   0  0  0  0  0  0  0  0  0  0  0  0
   25.1060   32.8480   47.4110 C   0  0  0  0  0  3  0  0  0  0  0  0
   25.7100   34.1840   47.3180 C   0  0  0  0  0  2  0  0  0  0  0  0
   25.2360   33.5330   46.0650 C   0  0  0  0  0  2  0  0  0  0  0  0
  1  6  1  0  0  0  0
  2  3  1  0  0  0  0
  2  1  2  0  0  0  0
  3  4  2  0  0  0  0
  4  5  1  0  0  0  0
  5 12  1  0  0  0  0
  6  5  2  0  0  0  0
  7  3  1  0  0  0  0
  7 11  1  0  0  0  0
  8  7  1  0  0  0  0
  9  8  2  0  0  0  0
  9 10  1  0  0  0  0
 10 22  1  0  0  0  0
 10 11  2  0  0  0  0
 12 13  1  0  0  0  0
 13 14  2  0  0  0  0
 15 14  1  0  0  0  0
 16 15  2  0  0  0  0
 17 16  1  0  0  0  0
 18 17  2  0  0  0  0
 19 18  1  0  0  0  0
 19 20  2  0  0  0  0
 20 21  1  0  0  0  0
 21 12  2  0  0  0  0
 21 16  1  0  0  0  0
 22 23  2  0  0  0  0
 23 24  1  0  0  0  0
 25 24  1  0  0  0  0
 26 22  1  0  0  0  0
 26 25  2  0  0  0  0
 27 25  1  0  0  0  0
 28 27  1  0  0  0  0
 29 28  1  0  0  0  0
 29 27  1  0  0  0  0
M  END
>  <minimizedAffinity>
-7.83866358

$$$$

 OpenBabel03272514353D

 29 34  0  0  0  0  0  0  0  0999 V2000
   29.4130   28.6790   44.9910 C   0  0  0  0  0  3  0  0  0  0  0  0
   30.7540   28.4840   45.2580 C   0  0  0  0  0  3  0  0  0  0  0  0
   31.0640   28.3440   46.6050 C   0  0  0  0  0  0  0  0  0  0  0  0
   30.0780   28.4080   47.4840 N   0  0  0  0  0  0  0  0  0  0  0  0
   28.7920   28.5940   47.2460 C   0  0  0  0  0  0  0  0  0  0  0  0
   28.5140   28.7250   45.9660 N   0  0  0  0  0  0  0  0  0  0  0  0
   32.3950   28.1380   47.0480 N   0  0  0  0  0  0  0  0  0  0  0  0
   33.2330   27.1620   46.6460 C   0  0  0  0  0  3  0  0  0  0  0  0
   34.3940   27.2680   47.2630 N   0  0  0  0  0  0  0  0  0  0  0  0
   34.3140   28.3350   48.0850 C   0  0  0  0  0  0  0  0  0  0  0  0
   33.0690   28.8420   47.9230 N   0  0  0  0  0  0  0  0  0  0  0  0
   27.6280   28.6820   48.1030 C   0  0  0  0  0  0  0  0  0  0  0  0
   26.4710   29.3270   47.6940 C   0  0  0  0  0  3  0  0  0  0  0  0
   25.3440   29.4330   48.4770 C   0  0  0  0  0  3  0  0  0  0  0  0
   25.3230   28.8800   49.7490 C   0  0  0  0  0  3  0  0  0  0  0  0
   26.4320   28.2440   50.1820 C   0  0  0  0  0  0  0  0  0  0  0  0
   26.4140   27.6930   51.4450 C   0  0  0  0  0  3  0  0  0  0  0  0
   27.4880   27.0290   51.9720 C   0  0  0  0  0  3  0  0  0  0  0  0
   28.6220   26.9310   51.1670 C   0  0  0  0  0  3  0  0  0  0  0  0
   28.6060   27.4850   49.9240 C   0  0  0  0  0  3  0  0  0  0  0  0
   27.5380   28.1510   49.3840 C   0  0  0  0  0  0  0  0  0  0  0  0
   35.2360   28.9650   49.0130 C   0  0  0  0  0  0  0  0  0  0  0  0
   35.3590   29.0280   50.3420 N   0  0  0  0  0  0  0  0  0  0  0  0
   36.3880   29.7440   50.6700 O   0  0  0  0  0  0  0  0  0  0  0  0
   36.9690   30.1730   49.5470 C   0  0  0  0  0  0  0  0  0  0  0  0
   36.2620   29.6950   48.4940 N   0  0  0  0  0  0  0  0  0  0  0  0
   38.1880   31.0300   49.5000 C   0  0  0  0  0  3  0  0  0  0  0  0
   38.4790   31.7820   48.2720 C   0  0  0  0  0  2  0  0  0  0  0  0
   38.0010   32.5330   49.4660 C   0  0  0  0  0  2  0  0  0  0  0  0
  1  2  2  0  0  0  0
  1  6  1  0  0  0  0
  2  3  1  0  0  0  0
  3  7  1  0  0  0  0
  3  4  2  0  0  0  0
  5  4  1  0  0  0  0
  5 12  1  0  0  0  0
  6  5  2  0  0  0  0
  7 11  1  0  0  0  0
  8  7  1  0  0  0  0
  8  9  2  0  0  0  0
  9 10  1  0  0  0  0
 10 22  1  0  0  0  0
 11 10  2  0  0  0  0
 12 21  1  0  0  0  0
 13 12  2  0  0  0  0
 13 14  1  0  0  0  0
 14 15  2  0  0  0  0
 15 16  1  0  0  0  0
 16 17  1  0  0  0  0
 17 18  2  0  0  0  0
 19 18  1  0  0  0  0
 20 19  2  0  0  0  0
 21 20  1  0  0  0  0
 21 16  2  0  0  0  0
 22 23  2  0  0  0  0
 23 24  1  0  0  0  0
 25 24  1  0  0  0  0
 26 22  1  0  0  0  0
 26 25  2  0  0  0  0
 27 25  1  0  0  0  0
 28 29  1  0  0  0  0
 28 27  1  0  0  0  0
 29 27  1  0  0  0  0
M  END
>  <minimizedAffinity>
-7.70068455

$$$$

 OpenBabel03272514353D

 29 34  0  0  0  0  0  0  0  0999 V2000
   39.1380   30.0440   44.2730 C   0  0  0  0  0  3  0  0  0  0  0  0
   38.6870   30.8000   43.2090 C   0  0  0  0  0  3  0  0  0  0  0  0
   37.8450   31.8490   43.5570 C   0  0  0  0  0  0  0  0  0  0  0  0
   37.5590   32.0240   44.8360 N   0  0  0  0  0  0  0  0  0  0  0  0
   37.9810   31.3100   45.8650 C   0  0  0  0  0  0  0  0  0  0  0  0
   38.7780   30.3210   45.5200 N   0  0  0  0  0  0  0  0  0  0  0  0
   37.2960   32.7200   42.5830 N   0  0  0  0  0  0  0  0  0  0  0  0
   37.9790   33.4340   41.6680 C   0  0  0  0  0  3  0  0  0  0  0  0
   37.1510   34.1380   40.9200 N   0  0  0  0  0  0  0  0  0  0  0  0
   35.9000   33.8790   41.3550 C   0  0  0  0  0  0  0  0  0  0  0  0
   36.0330   33.0030   42.3780 N   0  0  0  0  0  0  0  0  0  0  0  0
   37.7470   31.3950   47.2920 C   0  0  0  0  0  0  0  0  0  0  0  0
   38.6190   32.0670   48.1330 C   0  0  0  0  0  3  0  0  0  0  0  0
   38.4330   32.1710   49.4930 C   0  0  0  0  0  3  0  0  0  0  0  0
   37.3270   31.5870   50.0940 C   0  0  0  0  0  3  0  0  0  0  0  0
   36.4550   30.9230   49.3050 C   0  0  0  0  0  0  0  0  0  0  0  0
   35.3560   30.3420   49.8990 C   0  0  0  0  0  3  0  0  0  0  0  0
   34.4160   29.6490   49.1850 C   0  0  0  0  0  3  0  0  0  0  0  0
   34.6190   29.5520   47.8090 C   0  0  0  0  0  3  0  0  0  0  0  0
   35.7160   30.1390   47.2550 C   0  0  0  0  0  3  0  0  0  0  0  0
   36.6630   30.8360   47.9570 C   0  0  0  0  0  0  0  0  0  0  0  0
   34.5790   34.3310   40.9570 C   0  0  0  0  0  0  0  0  0  0  0  0
   33.9780   34.6220   39.7990 N   0  0  0  0  0  0  0  0  0  0  0  0
   32.7540   34.9910   40.0030 O   0  0  0  0  0  0  0  0  0  0  0  0
   32.5220   34.9510   41.3170 C   0  0  0  0  0  0  0  0  0  0  0  0
   33.6550   34.5380   41.9350 N   0  0  0  0  0  0  0  0  0  0  0  0
   31.2240   35.3050   41.9580 C   0  0  0  0  0  3  0  0  0  0  0  0
   30.0010   35.2860   41.1450 C   0  0  0  0  0  2  0  0  0  0  0  0
   30.2000   34.2050   42.1490 C   0  0  0  0  0  2  0  0  0  0  0  0
  1  6  1  0  0  0  0
  2  3  1  0  0  0  0
  2  1  2  0  0  0  0
  3  4  2  0  0  0  0
  4  5  1  0  0  0  0
  5 12  1  0  0  0  0
  6  5  2  0  0  0  0
  7  3  1  0  0  0  0
  8  7  1  0  0  0  0
  9 10  1  0  0  0  0
  9  8  2  0  0  0  0
 10 11  2  0  0  0  0
 11  7  1  0  0  0  0
 12 21  2  0  0  0  0
 12 13  1  0  0  0  0
 13 14  2  0  0  0  0
 14 15  1  0  0  0  0
 16 17  1  0  0  0  0
 16 15  2  0  0  0  0
 18 17  2  0  0  0  0
 19 18  1  0  0  0  0
 20 19  2  0  0  0  0
 20 21  1  0  0  0  0
 21 16  1  0  0  0  0
 22 10  1  0  0  0  0
 22 26  1  0  0  0  0
 23 24  1  0  0  0  0
 23 22  2  0  0  0  0
 24 25  1  0  0  0  0
 25 26  2  0  0  0  0
 25 27  1  0  0  0  0
 27 29  1  0  0  0  0
 28 27  1  0  0  0  0
 28 29  1  0  0  0  0
M  END
>  <minimizedAffinity>
-7.47549057

$$$$

 OpenBabel03272514353D

 29 34  0  0  0  0  0  0  0  0999 V2000
   32.6830   27.5080   48.2350 C   0  0  0  0  0  3  0  0  0  0  0  0
   32.1800   28.0360   47.0620 C   0  0  0  0  0  3  0  0  0  0  0  0
   32.8280   29.1810   46.6150 C   0  0  0  0  0  0  0  0  0  0  0  0
   33.8380   29.6490   47.3300 N   0  0  0  0  0  0  0  0  0  0  0  0
   34.3310   29.1560   48.4530 C   0  0  0  0  0  0  0  0  0  0  0  0
   33.7070   28.0720   48.8640 N   0  0  0  0  0  0  0  0  0  0  0  0
   32.4340   29.8460   45.4270 N   0  0  0  0  0  0  0  0  0  0  0  0
   32.3260   29.3010   44.2000 C   0  0  0  0  0  3  0  0  0  0  0  0
   31.9350   30.2080   43.3250 N   0  0  0  0  0  0  0  0  0  0  0  0
   31.7840   31.3710   43.9940 C   0  0  0  0  0  0  0  0  0  0  0  0
   32.1010   31.1050   45.2830 N   0  0  0  0  0  0  0  0  0  0  0  0
   35.4150   29.5640   49.3210 C   0  0  0  0  0  0  0  0  0  0  0  0
   35.4480   29.2080   50.6610 C   0  0  0  0  0  3  0  0  0  0  0  0
   36.4590   29.5760   51.5190 C   0  0  0  0  0  3  0  0  0  0  0  0
   37.5210   30.3410   51.0610 C   0  0  0  0  0  3  0  0  0  0  0  0
   37.5240   30.7070   49.7610 C   0  0  0  0  0  0  0  0  0  0  0  0
   38.5780   31.4680   49.3030 C   0  0  0  0  0  3  0  0  0  0  0  0
   38.6700   31.8870   48.0040 C   0  0  0  0  0  3  0  0  0  0  0  0
   37.6380   31.5070   47.1470 C   0  0  0  0  0  3  0  0  0  0  0  0
   36.6120   30.7550   47.6320 C   0  0  0  0  0  3  0  0  0  0  0  0
   36.5080   30.3280   48.9290 C   0  0  0  0  0  0  0  0  0  0  0  0
   31.3830   32.7120   43.6100 C   0  0  0  0  0  0  0  0  0  0  0  0
   31.6790   33.9500   44.0150 N   0  0  0  0  0  0  0  0  0  0  0  0
   31.0250   34.8250   43.3180 O   0  0  0  0  0  0  0  0  0  0  0  0
   30.2760   34.1700   42.4290 C   0  0  0  0  0  0  0  0  0  0  0  0
   30.4850   32.8410   42.5940 N   0  0  0  0  0  0  0  0  0  0  0  0
   29.3740   34.8230   41.4370 C   0  0  0  0  0  3  0  0  0  0  0  0
   28.3380   34.0160   40.7800 C   0  0  0  0  0  2  0  0  0  0  0  0
   27.9170   35.0040   41.8110 C   0  0  0  0  0  2  0  0  0  0  0  0
  1  6  1  0  0  0  0
  2  1  2  0  0  0  0
  3  2  1  0  0  0  0
  3  4  2  0  0  0  0
  4  5  1  0  0  0  0
  5  6  2  0  0  0  0
  5 12  1  0  0  0  0
  7  3  1  0  0  0  0
  8  7  1  0  0  0  0
  9 10  1  0  0  0  0
  9  8  2  0  0  0  0
 10 11  2  0  0  0  0
 11  7  1  0  0  0  0
 12 13  1  0  0  0  0
 13 14  2  0  0  0  0
 15 14  1  0  0  0  0
 16 15  2  0  0  0  0
 17 16  1  0  0  0  0
 18 17  2  0  0  0  0
 19 20  2  0  0  0  0
 19 18  1  0  0  0  0
 20 21  1  0  0  0  0
 21 12  2  0  0  0  0
 21 16  1  0  0  0  0
 22 10  1  0  0  0  0
 22 23  2  0  0  0  0
 24 23  1  0  0  0  0
 25 26  2  0  0  0  0
 25 24  1  0  0  0  0
 26 22  1  0  0  0  0
 27 29  1  0  0  0  0
 27 25  1  0  0  0  0
 28 27  1  0  0  0  0
 28 29  1  0  0  0  0
M  END
>  <minimizedAffinity>
-7.40921497

$$$$

 OpenBabel03272514353D

 29 34  0  0  0  0  0  0  0  0999 V2000
   32.8230   27.5720   48.1060 C   0  0  0  0  0  3  0  0  0  0  0  0
   32.4040   28.1180   46.9090 C   0  0  0  0  0  3  0  0  0  0  0  0
   33.0860   29.2650   46.5240 C   0  0  0  0  0  0  0  0  0  0  0  0
   34.0450   29.7190   47.3130 N   0  0  0  0  0  0  0  0  0  0  0  0
   34.4580   29.2090   48.4600 C   0  0  0  0  0  0  0  0  0  0  0  0
   33.8040   28.1230   48.8120 N   0  0  0  0  0  0  0  0  0  0  0  0
   32.7770   29.9490   45.3210 N   0  0  0  0  0  0  0  0  0  0  0  0
   32.7520   29.4210   44.0810 C   0  0  0  0  0  3  0  0  0  0  0  0
   32.4250   30.3410   43.1940 N   0  0  0  0  0  0  0  0  0  0  0  0
   32.2330   31.4950   43.8680 C   0  0  0  0  0  0  0  0  0  0  0  0
   32.4580   31.2110   45.1720 N   0  0  0  0  0  0  0  0  0  0  0  0
   35.4810   29.6010   49.4070 C   0  0  0  0  0  0  0  0  0  0  0  0
   35.4570   29.1690   50.7240 C   0  0  0  0  0  3  0  0  0  0  0  0
   36.4090   29.5180   51.6550 C   0  0  0  0  0  3  0  0  0  0  0  0
   37.4660   30.3430   51.2980 C   0  0  0  0  0  3  0  0  0  0  0  0
   37.5220   30.7840   50.0230 C   0  0  0  0  0  0  0  0  0  0  0  0
   38.5710   31.6030   49.6650 C   0  0  0  0  0  3  0  0  0  0  0  0
   38.7150   32.1000   48.3980 C   0  0  0  0  0  3  0  0  0  0  0  0
   37.7420   31.7390   47.4680 C   0  0  0  0  0  3  0  0  0  0  0  0
   36.7200   30.9270   47.8540 C   0  0  0  0  0  3  0  0  0  0  0  0
   36.5640   30.4210   49.1180 C   0  0  0  0  0  0  0  0  0  0  0  0
   31.8630   32.8440   43.4750 C   0  0  0  0  0  0  0  0  0  0  0  0
   31.0320   33.7800   43.9410 N   0  0  0  0  0  0  0  0  0  0  0  0
   31.0790   34.8400   43.1970 O   0  0  0  0  0  0  0  0  0  0  0  0
   31.9540   34.6180   42.2140 C   0  0  0  0  0  0  0  0  0  0  0  0
   32.4590   33.3690   42.3690 N   0  0  0  0  0  0  0  0  0  0  0  0
   32.2920   35.6000   41.1450 C   0  0  0  0  0  3  0  0  0  0  0  0
   32.8910   35.1120   39.8950 C   0  0  0  0  0  2  0  0  0  0  0  0
   31.4760   35.5740   39.8690 C   0  0  0  0  0  2  0  0  0  0  0  0
  1  6  1  0  0  0  0
  2  1  2  0  0  0  0
  3  2  1  0  0  0  0
  3  4  2  0  0  0  0
  4  5  1  0  0  0  0
  5  6  2  0  0  0  0
  5 12  1  0  0  0  0
  7  3  1  0  0  0  0
  8  7  1  0  0  0  0
  9 10  1  0  0  0  0
  9  8  2  0  0  0  0
 10 11  2  0  0  0  0
 11  7  1  0  0  0  0
 12 13  1  0  0  0  0
 13 14  2  0  0  0  0
 15 14  1  0  0  0  0
 16 15  2  0  0  0  0
 17 16  1  0  0  0  0
 18 17  2  0  0  0  0
 19 20  2  0  0  0  0
 19 18  1  0  0  0  0
 20 21  1  0  0  0  0
 21 12  2  0  0  0  0
 21 16  1  0  0  0  0
 22 10  1  0  0  0  0
 22 23  2  0  0  0  0
 24 23  1  0  0  0  0
 25 26  2  0  0  0  0
 25 24  1  0  0  0  0
 26 22  1  0  0  0  0
 27 25  1  0  0  0  0
 28 27  1  0  0  0  0
 29 28  1  0  0  0  0
 29 27  1  0  0  0  0
M  END
>  <minimizedAffinity>
-7.40064621

$$$$

 OpenBabel03272514353D

 29 34  0  0  0  0  0  0  0  0999 V2000
   33.4100   26.8290   48.1040 C   0  0  0  0  0  3  0  0  0  0  0  0
   32.2650   27.0380   47.3610 C   0  0  0  0  0  3  0  0  0  0  0  0
   32.2270   28.2480   46.6790 C   0  0  0  0  0  0  0  0  0  0  0  0
   33.2580   29.0670   46.7990 N   0  0  0  0  0  0  0  0  0  0  0  0
   34.3600   28.8830   47.5060 C   0  0  0  0  0  0  0  0  0  0  0  0
   34.3810   27.7330   48.1460 N   0  0  0  0  0  0  0  0  0  0  0  0
   31.1220   28.6150   45.8700 N   0  0  0  0  0  0  0  0  0  0  0  0
   30.6020   27.9050   44.8510 C   0  0  0  0  0  3  0  0  0  0  0  0
   29.5780   28.5440   44.3180 N   0  0  0  0  0  0  0  0  0  0  0  0
   29.4260   29.6970   45.0040 C   0  0  0  0  0  0  0  0  0  0  0  0
   30.3940   29.7020   45.9490 N   0  0  0  0  0  0  0  0  0  0  0  0
   35.5450   29.6870   47.7200 C   0  0  0  0  0  0  0  0  0  0  0  0
   36.1740   30.3470   46.6750 C   0  0  0  0  0  3  0  0  0  0  0  0
   37.3010   31.1200   46.8360 C   0  0  0  0  0  3  0  0  0  0  0  0
   37.8700   31.2750   48.0920 C   0  0  0  0  0  3  0  0  0  0  0  0
   37.2850   30.6460   49.1330 C   0  0  0  0  0  0  0  0  0  0  0  0
   37.8480   30.7970   50.3820 C   0  0  0  0  0  3  0  0  0  0  0  0
   37.3280   30.2010   51.4990 C   0  0  0  0  0  3  0  0  0  0  0  0
   36.1870   29.4200   51.3200 C   0  0  0  0  0  3  0  0  0  0  0  0
   35.6560   29.2930   50.0730 C   0  0  0  0  0  3  0  0  0  0  0  0
   36.1650   29.8840   48.9470 C   0  0  0  0  0  0  0  0  0  0  0  0
   28.5000   30.8110   44.9100 C   0  0  0  0  0  0  0  0  0  0  0  0
   28.3060   31.8230   44.0590 N   0  0  0  0  0  0  0  0  0  0  0  0
   27.3150   32.5600   44.4480 O   0  0  0  0  0  0  0  0  0  0  0  0
   26.8310   32.0420   45.5790 C   0  0  0  0  0  0  0  0  0  0  0  0
   27.5610   30.9410   45.8870 N   0  0  0  0  0  0  0  0  0  0  0  0
   25.6810   32.6030   46.3430 C   0  0  0  0  0  3  0  0  0  0  0  0
   25.6520   32.4410   47.8030 C   0  0  0  0  0  2  0  0  0  0  0  0
   25.9390   33.7920   47.2470 C   0  0  0  0  0  2  0  0  0  0  0  0
  1  6  1  0  0  0  0
  2  1  2  0  0  0  0
  3  4  2  0  0  0  0
  3  2  1  0  0  0  0
  4  5  1  0  0  0  0
  5 12  1  0  0  0  0
  5  6  2  0  0  0  0
  7 11  1  0  0  0  0
  7  3  1  0  0  0  0
  8  7  1  0  0  0  0
  9  8  2  0  0  0  0
  9 10  1  0  0  0  0
 10 11  2  0  0  0  0
 12 21  1  0  0  0  0
 13 14  1  0  0  0  0
 13 12  2  0  0  0  0
 14 15  2  0  0  0  0
 15 16  1  0  0  0  0
 16 17  1  0  0  0  0
 17 18  2  0  0  0  0
 19 18  1  0  0  0  0
 20 19  2  0  0  0  0
 21 16  2  0  0  0  0
 21 20  1  0  0  0  0
 22 10  1  0  0  0  0
 22 26  1  0  0  0  0
 23 24  1  0  0  0  0
 23 22  2  0  0  0  0
 24 25  1  0  0  0  0
 25 26  2  0  0  0  0
 25 27  1  0  0  0  0
 27 29  1  0  0  0  0
 27 28  1  0  0  0  0
 29 28  1  0  0  0  0
M  END
>  <minimizedAffinity>
-7.39766502

$$$$
