
 OpenBabel03272514483D

 39 44  0  0  0  0  0  0  0  0999 V2000
   31.3220   31.7780   41.8730 C   0  0  0  0  0  0  0  0  0  0  0  0
   30.1680   32.5830   42.0790 C   0  0  0  0  0  3  0  0  0  0  0  0
   29.5800   32.5290   43.3160 C   0  0  0  0  0  3  0  0  0  0  0  0
   30.1620   31.7160   44.2100 N   0  0  0  0  0  0  0  0  0  0  0  0
   31.2050   30.9760   44.0500 C   0  0  0  0  0  0  0  0  0  0  0  0
   31.8080   31.0060   42.8440 N   0  0  0  0  0  0  0  0  0  0  0  0
   31.6120   30.2150   45.1620 N   0  0  0  0  0  0  0  0  0  0  0  0
   32.7970   30.5200   45.7580 C   0  0  0  0  0  3  0  0  0  0  0  0
   32.9960   29.6590   46.8140 C   0  0  0  0  0  0  0  0  0  0  0  0
   31.9480   28.8510   46.8470 N   0  0  0  0  0  0  0  0  0  0  0  0
   31.0760   29.1870   45.8210 C   0  0  0  0  0  0  0  0  0  0  0  0
   29.8550   28.5010   45.5470 C   0  0  0  0  0  0  0  0  0  0  0  0
   29.7350   27.5700   44.4980 C   0  0  0  0  0  3  0  0  0  0  0  0
   28.4480   27.0990   44.4630 N   0  0  0  0  0  0  0  0  0  0  0  0
   27.7710   27.7470   45.5010 C   0  0  0  0  0  3  0  0  0  0  0  0
   28.6580   28.5400   46.0830 N   0  0  0  0  0  0  0  0  0  0  0  0
   27.9350   29.0860   47.1470 C   0  0  0  0  0  0  0  0  0  0  0  0
   27.9570   28.3000   48.2280 N   0  0  0  0  0  0  0  0  0  0  0  0
   27.2520   28.6570   49.3330 C   0  0  0  0  0  3  0  0  0  0  0  0
   26.5210   29.7680   49.4190 N   0  0  0  0  0  0  0  0  0  0  0  0
   26.4710   30.5890   48.3560 C   0  0  0  0  0  0  0  0  0  0  0  0
   25.7600   31.7600   48.3030 C   0  0  0  0  0  3  0  0  0  0  0  0
   25.7430   32.5510   47.1960 C   0  0  0  0  0  3  0  0  0  0  0  0
   26.4720   32.1670   46.0720 C   0  0  0  0  0  3  0  0  0  0  0  0
   27.2030   31.0080   46.0630 C   0  0  0  0  0  3  0  0  0  0  0  0
   27.1870   30.2480   47.2000 C   0  0  0  0  0  0  0  0  0  0  0  0
   36.2730   29.5890   49.4390 C   0  0  0  0  0  0  0  0  0  0  0  0
   35.1170   28.8970   49.8210 C   0  0  0  0  0  3  0  0  0  0  0  0
   34.0780   28.9640   48.9080 C   0  0  0  0  0  3  0  0  0  0  0  0
   34.1430   29.6420   47.7190 C   0  0  0  0  0  0  0  0  0  0  0  0
   35.3010   30.3120   47.3760 C   0  0  0  0  0  3  0  0  0  0  0  0
   36.3600   30.2820   48.2400 C   0  0  0  0  0  3  0  0  0  0  0  0
   37.6850   29.6240   50.4470 S   0  0  0  0  0  0  0  0  0  0  0  0
   37.3400   29.5990   51.9090 O   0  0  0  0  0  0  0  0  0  0  0  0
   38.4810   30.8580   50.1020 O   0  0  0  0  0  0  0  0  0  0  0  0
   38.4290   28.4980   50.2120 H   0  0  0  0  0  0  0  0  0  0  0  0
   31.9760   31.8210   40.5870 N   0  0  0  0  0  0  0  0  0  0  0  0
   32.8140   31.2460   40.4150 H   0  0  0  0  0  0  0  0  0  0  0  0
   31.6050   32.4270   39.8400 H   0  0  0  0  0  0  0  0  0  0  0  0
  1  2  2  0  0  0  0
  1  6  1  0  0  0  0
  2  3  1  0  0  0  0
  3  4  2  0  0  0  0
  5  4  1  0  0  0  0
  5  7  1  0  0  0  0
  6  5  2  0  0  0  0
  7  8  1  0  0  0  0
  7 11  1  0  0  0  0
  8  9  2  0  0  0  0
  9 10  1  0  0  0  0
  9 30  1  0  0  0  0
 11 10  2  0  0  0  0
 12 11  1  0  0  0  0
 12 16  1  0  0  0  0
 13 12  2  0  0  0  0
 14 13  1  0  0  0  0
 14 15  2  0  0  0  0
 15 16  1  0  0  0  0
 16 17  1  0  0  0  0
 17 26  2  0  0  0  0
 17 18  1  0  0  0  0
 18 19  2  0  0  0  0
 19 20  1  0  0  0  0
 21 20  2  0  0  0  0
 22 21  1  0  0  0  0
 23 22  2  0  0  0  0
 24 23  1  0  0  0  0
 25 24  2  0  0  0  0
 25 26  1  0  0  0  0
 26 21  1  0  0  0  0
 27 28  1  0  0  0  0
 27 33  1  0  0  0  0
 29 28  2  0  0  0  0
 30 29  1  0  0  0  0
 31 30  2  0  0  0  0
 31 32  1  0  0  0  0
 32 27  2  0  0  0  0
 33 34  2  0  0  0  0
 35 33  2  0  0  0  0
 36 33  1  0  0  0  0
 37  1  1  0  0  0  0
 38 37  1  0  0  0  0
 39 37  1  0  0  0  0
M  END
>  <minimizedAffinity>
-7.91192865

$$$$

 OpenBabel03272514483D

 39 44  0  0  0  0  0  0  0  0999 V2000
   31.7360   28.2630   41.6770 C   0  0  0  0  0  0  0  0  0  0  0  0
   30.6110   29.1050   41.4540 C   0  0  0  0  0  3  0  0  0  0  0  0
   30.0200   29.6630   42.5570 C   0  0  0  0  0  3  0  0  0  0  0  0
   30.5700   29.3560   43.7410 N   0  0  0  0  0  0  0  0  0  0  0  0
   31.5860   28.5970   43.9720 C   0  0  0  0  0  0  0  0  0  0  0  0
   32.1910   28.0310   42.9070 N   0  0  0  0  0  0  0  0  0  0  0  0
   31.9630   28.4440   45.3190 N   0  0  0  0  0  0  0  0  0  0  0  0
   33.1570   28.9590   45.7200 C   0  0  0  0  0  3  0  0  0  0  0  0
   33.3230   28.6980   47.0620 C   0  0  0  0  0  0  0  0  0  0  0  0
   32.2470   28.0370   47.4550 N   0  0  0  0  0  0  0  0  0  0  0  0
   31.3890   27.8710   46.3770 C   0  0  0  0  0  0  0  0  0  0  0  0
   30.1450   27.1750   46.4390 C   0  0  0  0  0  0  0  0  0  0  0  0
   29.8860   26.0270   45.6670 C   0  0  0  0  0  3  0  0  0  0  0  0
   28.6080   25.5990   45.9170 N   0  0  0  0  0  0  0  0  0  0  0  0
   28.0760   26.4930   46.8520 C   0  0  0  0  0  3  0  0  0  0  0  0
   29.0330   27.3740   47.1050 N   0  0  0  0  0  0  0  0  0  0  0  0
   28.4600   28.1760   48.0960 C   0  0  0  0  0  0  0  0  0  0  0  0
   28.6310   27.6660   49.3200 N   0  0  0  0  0  0  0  0  0  0  0  0
   28.0830   28.2950   50.3920 C   0  0  0  0  0  3  0  0  0  0  0  0
   27.3670   29.4150   50.3090 N   0  0  0  0  0  0  0  0  0  0  0  0
   27.1700   29.9640   49.0980 C   0  0  0  0  0  0  0  0  0  0  0  0
   26.4540   31.1090   48.8650 C   0  0  0  0  0  3  0  0  0  0  0  0
   26.2830   31.6180   47.6140 C   0  0  0  0  0  3  0  0  0  0  0  0
   26.8530   30.9580   46.5260 C   0  0  0  0  0  3  0  0  0  0  0  0
   27.5800   29.8100   46.6950 C   0  0  0  0  0  3  0  0  0  0  0  0
   27.7220   29.3390   47.9710 C   0  0  0  0  0  0  0  0  0  0  0  0
   36.6220   29.8150   49.4080 C   0  0  0  0  0  0  0  0  0  0  0  0
   36.4150   30.5030   48.2070 C   0  0  0  0  0  3  0  0  0  0  0  0
   35.3100   30.0820   47.4860 C   0  0  0  0  0  3  0  0  0  0  0  0
   34.4680   29.0780   47.8880 C   0  0  0  0  0  0  0  0  0  0  0  0
   34.7050   28.4220   49.0800 C   0  0  0  0  0  3  0  0  0  0  0  0
   35.7820   28.7950   49.8340 C   0  0  0  0  0  3  0  0  0  0  0  0
   37.9530   30.1960   50.4550 S   0  0  0  0  0  0  0  0  0  0  0  0
   37.5500   30.2180   51.9020 O   0  0  0  0  0  0  0  0  0  0  0  0
   38.5190   31.5290   50.0330 O   0  0  0  0  0  0  0  0  0  0  0  0
   38.9050   29.2180   50.3390 H   0  0  0  0  0  0  0  0  0  0  0  0
   32.3930   27.6690   40.5370 N   0  0  0  0  0  0  0  0  0  0  0  0
   33.2090   27.0560   40.6750 H   0  0  0  0  0  0  0  0  0  0  0  0
   32.0450   27.8580   39.5860 H   0  0  0  0  0  0  0  0  0  0  0  0
  1  6  1  0  0  0  0
  2  1  2  0  0  0  0
  2  3  1  0  0  0  0
  3  4  2  0  0  0  0
  4  5  1  0  0  0  0
  5  7  1  0  0  0  0
  6  5  2  0  0  0  0
  7  8  1  0  0  0  0
  7 11  1  0  0  0  0
  8  9  2  0  0  0  0
  9 10  1  0  0  0  0
  9 30  1  0  0  0  0
 11 12  1  0  0  0  0
 11 10  2  0  0  0  0
 12 16  1  0  0  0  0
 13 14  1  0  0  0  0
 13 12  2  0  0  0  0
 14 15  2  0  0  0  0
 15 16  1  0  0  0  0
 16 17  1  0  0  0  0
 17 18  1  0  0  0  0
 18 19  2  0  0  0  0
 20 19  1  0  0  0  0
 21 20  2  0  0  0  0
 22 21  1  0  0  0  0
 23 22  2  0  0  0  0
 24 25  2  0  0  0  0
 24 23  1  0  0  0  0
 25 26  1  0  0  0  0
 26 17  2  0  0  0  0
 26 21  1  0  0  0  0
 27 32  1  0  0  0  0
 27 33  1  0  0  0  0
 28 27  2  0  0  0  0
 29 30  2  0  0  0  0
 29 28  1  0  0  0  0
 30 31  1  0  0  0  0
 31 32  2  0  0  0  0
 33 34  2  0  0  0  0
 35 33  2  0  0  0  0
 36 33  1  0  0  0  0
 37 38  1  0  0  0  0
 37  1  1  0  0  0  0
 39 37  1  0  0  0  0
M  END
>  <minimizedAffinity>
-7.72662973

$$$$

 OpenBabel03272514483D

 39 44  0  0  0  0  0  0  0  0999 V2000
   31.8210   23.1700   46.9870 C   0  0  0  0  0  0  0  0  0  0  0  0
   30.9240   23.2130   45.8840 C   0  0  0  0  0  3  0  0  0  0  0  0
   30.4080   24.4370   45.5460 C   0  0  0  0  0  3  0  0  0  0  0  0
   30.8090   25.4750   46.2960 N   0  0  0  0  0  0  0  0  0  0  0  0
   31.6180   25.4630   47.3000 C   0  0  0  0  0  0  0  0  0  0  0  0
   32.1430   24.2740   47.6590 N   0  0  0  0  0  0  0  0  0  0  0  0
   31.8740   26.7040   47.9130 N   0  0  0  0  0  0  0  0  0  0  0  0
   33.1280   27.2260   47.8200 C   0  0  0  0  0  3  0  0  0  0  0  0
   33.1560   28.4310   48.4860 C   0  0  0  0  0  0  0  0  0  0  0  0
   31.9400   28.6250   48.9690 N   0  0  0  0  0  0  0  0  0  0  0  0
   31.1290   27.5540   48.6190 C   0  0  0  0  0  0  0  0  0  0  0  0
   29.7610   27.4230   49.0020 C   0  0  0  0  0  0  0  0  0  0  0  0
   29.3680   26.7380   50.1670 C   0  0  0  0  0  3  0  0  0  0  0  0
   28.0000   26.7540   50.2560 N   0  0  0  0  0  0  0  0  0  0  0  0
   27.5480   27.4570   49.1340 C   0  0  0  0  0  3  0  0  0  0  0  0
   28.6310   27.8140   48.4610 N   0  0  0  0  0  0  0  0  0  0  0  0
   28.1070   28.5710   47.4090 C   0  0  0  0  0  0  0  0  0  0  0  0
   27.9220   29.8500   47.7520 N   0  0  0  0  0  0  0  0  0  0  0  0
   27.3620   30.7100   46.8620 C   0  0  0  0  0  3  0  0  0  0  0  0
   26.9760   30.3600   45.6350 N   0  0  0  0  0  0  0  0  0  0  0  0
   27.1440   29.0840   45.2480 C   0  0  0  0  0  0  0  0  0  0  0  0
   26.7910   28.5860   44.0210 C   0  0  0  0  0  3  0  0  0  0  0  0
   26.9810   27.2810   43.6830 C   0  0  0  0  0  3  0  0  0  0  0  0
   27.5550   26.4140   44.6110 C   0  0  0  0  0  3  0  0  0  0  0  0
   27.9310   26.8520   45.8540 C   0  0  0  0  0  3  0  0  0  0  0  0
   27.7170   28.1720   46.1440 C   0  0  0  0  0  0  0  0  0  0  0  0
   36.4700   30.9840   48.8590 C   0  0  0  0  0  0  0  0  0  0  0  0
   36.1320   30.5380   47.5760 C   0  0  0  0  0  3  0  0  0  0  0  0
   35.0300   29.7010   47.5290 C   0  0  0  0  0  3  0  0  0  0  0  0
   34.3070   29.3200   48.6290 C   0  0  0  0  0  0  0  0  0  0  0  0
   34.6700   29.7800   49.8800 C   0  0  0  0  0  3  0  0  0  0  0  0
   35.7510   30.6100   49.9870 C   0  0  0  0  0  3  0  0  0  0  0  0
   37.8190   32.0420   49.1280 S   0  0  0  0  0  0  0  0  0  0  0  0
   38.6050   32.2890   47.8720 O   0  0  0  0  0  0  0  0  0  0  0  0
   38.6900   31.4340   50.1980 O   0  0  0  0  0  0  0  0  0  0  0  0
   37.3530   33.2640   49.5330 H   0  0  0  0  0  0  0  0  0  0  0  0
   32.3950   21.9000   47.3640 N   0  0  0  0  0  0  0  0  0  0  0  0
   33.0470   21.8450   48.1590 H   0  0  0  0  0  0  0  0  0  0  0  0
   32.1520   21.0480   46.8360 H   0  0  0  0  0  0  0  0  0  0  0  0
  1 37  1  0  0  0  0
  1  6  1  0  0  0  0
  2  1  2  0  0  0  0
  3  2  1  0  0  0  0
  3  4  2  0  0  0  0
  4  5  1  0  0  0  0
  5  6  2  0  0  0  0
  5  7  1  0  0  0  0
  7 11  1  0  0  0  0
  8  7  1  0  0  0  0
  8  9  2  0  0  0  0
  9 30  1  0  0  0  0
  9 10  1  0  0  0  0
 11 10  2  0  0  0  0
 11 12  1  0  0  0  0
 12 13  2  0  0  0  0
 13 14  1  0  0  0  0
 15 14  2  0  0  0  0
 16 12  1  0  0  0  0
 16 15  1  0  0  0  0
 17 18  1  0  0  0  0
 17 16  1  0  0  0  0
 19 18  2  0  0  0  0
 20 19  1  0  0  0  0
 21 20  2  0  0  0  0
 21 26  1  0  0  0  0
 22 21  1  0  0  0  0
 23 22  2  0  0  0  0
 23 24  1  0  0  0  0
 24 25  2  0  0  0  0
 25 26  1  0  0  0  0
 26 17  2  0  0  0  0
 27 33  1  0  0  0  0
 27 32  1  0  0  0  0
 28 27  2  0  0  0  0
 29 28  1  0  0  0  0
 29 30  2  0  0  0  0
 30 31  1  0  0  0  0
 31 32  2  0  0  0  0
 33 36  1  0  0  0  0
 33 35  2  0  0  0  0
 34 33  2  0  0  0  0
 37 38  1  0  0  0  0
 39 37  1  0  0  0  0
M  END
>  <minimizedAffinity>
-7.45354843

$$$$

 OpenBabel03272514483D

 39 44  0  0  0  0  0  0  0  0999 V2000
   29.5000   23.3030   45.3890 C   0  0  0  0  0  0  0  0  0  0  0  0
   28.7270   23.6760   44.2540 C   0  0  0  0  0  3  0  0  0  0  0  0
   28.5420   25.0160   44.0370 C   0  0  0  0  0  3  0  0  0  0  0  0
   29.1150   25.8430   44.9250 N   0  0  0  0  0  0  0  0  0  0  0  0
   29.8180   25.5330   45.9600 C   0  0  0  0  0  0  0  0  0  0  0  0
   30.0190   24.2210   46.2030 N   0  0  0  0  0  0  0  0  0  0  0  0
   30.3100   26.6040   46.7280 N   0  0  0  0  0  0  0  0  0  0  0  0
   31.6550   26.8130   46.7620 C   0  0  0  0  0  3  0  0  0  0  0  0
   31.9130   27.9010   47.5660 C   0  0  0  0  0  0  0  0  0  0  0  0
   30.7430   28.3340   48.0060 N   0  0  0  0  0  0  0  0  0  0  0  0
   29.7330   27.5320   47.4910 C   0  0  0  0  0  0  0  0  0  0  0  0
   28.3470   27.6990   47.7840 C   0  0  0  0  0  0  0  0  0  0  0  0
   27.7030   26.9780   48.8080 C   0  0  0  0  0  3  0  0  0  0  0  0
   26.3770   27.3260   48.8360 N   0  0  0  0  0  0  0  0  0  0  0  0
   26.2050   28.2710   47.8180 C   0  0  0  0  0  3  0  0  0  0  0  0
   27.3950   28.4340   47.2600 N   0  0  0  0  0  0  0  0  0  0  0  0
   27.1600   29.4390   46.3180 C   0  0  0  0  0  0  0  0  0  0  0  0
   27.2630   30.6620   46.8490 N   0  0  0  0  0  0  0  0  0  0  0  0
   27.0050   31.7520   46.0790 C   0  0  0  0  0  3  0  0  0  0  0  0
   26.6500   31.6880   44.7970 N   0  0  0  0  0  0  0  0  0  0  0  0
   26.5350   30.4780   44.2220 C   0  0  0  0  0  0  0  0  0  0  0  0
   26.1760   30.2630   42.9170 C   0  0  0  0  0  3  0  0  0  0  0  0
   26.0720   29.0130   42.3870 C   0  0  0  0  0  3  0  0  0  0  0  0
   26.3390   27.9080   43.1930 C   0  0  0  0  0  3  0  0  0  0  0  0
   26.7030   28.0570   44.5050 C   0  0  0  0  0  3  0  0  0  0  0  0
   26.7930   29.3340   44.9890 C   0  0  0  0  0  0  0  0  0  0  0  0
   35.6860   29.5030   48.4800 C   0  0  0  0  0  0  0  0  0  0  0  0
   35.0950   28.6520   49.4210 C   0  0  0  0  0  3  0  0  0  0  0  0
   33.8530   28.1620   49.0530 C   0  0  0  0  0  3  0  0  0  0  0  0
   33.2260   28.4650   47.8720 C   0  0  0  0  0  0  0  0  0  0  0  0
   33.8410   29.3090   46.9680 C   0  0  0  0  0  3  0  0  0  0  0  0
   35.0690   29.8240   47.2780 C   0  0  0  0  0  3  0  0  0  0  0  0
   37.2430   30.2190   48.7550 S   0  0  0  0  0  0  0  0  0  0  0  0
   37.8840   29.7170   50.0180 O   0  0  0  0  0  0  0  0  0  0  0  0
   37.0740   31.7170   48.7940 O   0  0  0  0  0  0  0  0  0  0  0  0
   38.0840   29.8630   47.7330 H   0  0  0  0  0  0  0  0  0  0  0  0
   29.7280   21.9000   45.6410 N   0  0  0  0  0  0  0  0  0  0  0  0
   30.2840   21.6070   46.4570 H   0  0  0  0  0  0  0  0  0  0  0  0
   29.3340   21.1910   45.0050 H   0  0  0  0  0  0  0  0  0  0  0  0
  1 37  1  0  0  0  0
  1  6  1  0  0  0  0
  2  1  2  0  0  0  0
  3  2  1  0  0  0  0
  3  4  2  0  0  0  0
  4  5  1  0  0  0  0
  5  6  2  0  0  0  0
  5  7  1  0  0  0  0
  7  8  1  0  0  0  0
  7 11  1  0  0  0  0
  8  9  2  0  0  0  0
  9 30  1  0  0  0  0
  9 10  1  0  0  0  0
 11 12  1  0  0  0  0
 11 10  2  0  0  0  0
 12 13  2  0  0  0  0
 13 14  1  0  0  0  0
 15 14  2  0  0  0  0
 16 12  1  0  0  0  0
 16 15  1  0  0  0  0
 17 18  1  0  0  0  0
 17 16  1  0  0  0  0
 19 18  2  0  0  0  0
 20 19  1  0  0  0  0
 21 20  2  0  0  0  0
 21 26  1  0  0  0  0
 22 21  1  0  0  0  0
 23 22  2  0  0  0  0
 23 24  1  0  0  0  0
 24 25  2  0  0  0  0
 25 26  1  0  0  0  0
 26 17  2  0  0  0  0
 27 33  1  0  0  0  0
 27 28  1  0  0  0  0
 29 28  2  0  0  0  0
 30 29  1  0  0  0  0
 31 32  1  0  0  0  0
 31 30  2  0  0  0  0
 32 27  2  0  0  0  0
 33 35  2  0  0  0  0
 33 34  2  0  0  0  0
 36 33  1  0  0  0  0
 37 38  1  0  0  0  0
 39 37  1  0  0  0  0
M  END
>  <minimizedAffinity>
-7.21330166

$$$$

 OpenBabel03272514483D

 39 44  0  0  0  0  0  0  0  0999 V2000
   27.2790   28.7290   48.2600 C   0  0  0  0  0  0  0  0  0  0  0  0
   26.7820   27.3970   48.2060 C   0  0  0  0  0  3  0  0  0  0  0  0
   27.6540   26.4210   47.7980 C   0  0  0  0  0  3  0  0  0  0  0  0
   28.8950   26.8290   47.4910 N   0  0  0  0  0  0  0  0  0  0  0  0
   29.3700   28.0270   47.5300 C   0  0  0  0  0  0  0  0  0  0  0  0
   28.5370   29.0110   47.9270 N   0  0  0  0  0  0  0  0  0  0  0  0
   30.7180   28.1800   47.1570 N   0  0  0  0  0  0  0  0  0  0  0  0
   31.6140   28.5580   48.1090 C   0  0  0  0  0  3  0  0  0  0  0  0
   32.8620   28.6470   47.5320 C   0  0  0  0  0  0  0  0  0  0  0  0
   32.7130   28.3280   46.2560 N   0  0  0  0  0  0  0  0  0  0  0  0
   31.3780   28.0350   46.0080 C   0  0  0  0  0  0  0  0  0  0  0  0
   30.8590   27.6790   44.7280 C   0  0  0  0  0  0  0  0  0  0  0  0
   31.4290   26.6590   43.9430 C   0  0  0  0  0  3  0  0  0  0  0  0
   30.7380   26.5640   42.7620 N   0  0  0  0  0  0  0  0  0  0  0  0
   29.7340   27.5360   42.8230 C   0  0  0  0  0  3  0  0  0  0  0  0
   29.8700   28.1350   43.9970 N   0  0  0  0  0  0  0  0  0  0  0  0
   28.7940   29.0260   44.0160 C   0  0  0  0  0  0  0  0  0  0  0  0
   27.6710   28.4520   44.4610 N   0  0  0  0  0  0  0  0  0  0  0  0
   26.5160   29.1670   44.4870 C   0  0  0  0  0  3  0  0  0  0  0  0
   26.4190   30.4350   44.0910 N   0  0  0  0  0  0  0  0  0  0  0  0
   27.5240   31.0530   43.6360 C   0  0  0  0  0  0  0  0  0  0  0  0
   27.5700   32.3490   43.1940 C   0  0  0  0  0  3  0  0  0  0  0  0
   28.7180   32.9230   42.7400 C   0  0  0  0  0  3  0  0  0  0  0  0
   29.8920   32.1730   42.7210 C   0  0  0  0  0  3  0  0  0  0  0  0
   29.9110   30.8720   43.1500 C   0  0  0  0  0  3  0  0  0  0  0  0
   28.7310   30.3430   43.5960 C   0  0  0  0  0  0  0  0  0  0  0  0
   36.4480   29.7410   49.4240 C   0  0  0  0  0  0  0  0  0  0  0  0
   36.2470   30.1730   48.1070 C   0  0  0  0  0  3  0  0  0  0  0  0
   35.0450   29.7750   47.5480 C   0  0  0  0  0  3  0  0  0  0  0  0
   34.1060   29.0210   48.2010 C   0  0  0  0  0  0  0  0  0  0  0  0
   34.3390   28.6130   49.5000 C   0  0  0  0  0  3  0  0  0  0  0  0
   35.5100   28.9760   50.1040 C   0  0  0  0  0  3  0  0  0  0  0  0
   37.8930   30.1360   50.3000 S   0  0  0  0  0  0  0  0  0  0  0  0
   37.6700   30.1500   51.7850 O   0  0  0  0  0  0  0  0  0  0  0  0
   38.3860   31.4770   49.8160 O   0  0  0  0  0  0  0  0  0  0  0  0
   38.8360   29.1710   50.0640 H   0  0  0  0  0  0  0  0  0  0  0  0
   26.3920   29.7810   48.6990 N   0  0  0  0  0  0  0  0  0  0  0  0
   26.7300   30.7530   48.7450 H   0  0  0  0  0  0  0  0  0  0  0  0
   25.4220   29.5600   48.9660 H   0  0  0  0  0  0  0  0  0  0  0  0
  1 37  1  0  0  0  0
  2  1  1  0  0  0  0
  3  2  2  0  0  0  0
  4  5  2  0  0  0  0
  4  3  1  0  0  0  0
  5  6  1  0  0  0  0
  6  1  2  0  0  0  0
  7  5  1  0  0  0  0
  7  8  1  0  0  0  0
  9  8  2  0  0  0  0
  9 30  1  0  0  0  0
 10  9  1  0  0  0  0
 11 10  2  0  0  0  0
 11  7  1  0  0  0  0
 12 11  1  0  0  0  0
 13 12  2  0  0  0  0
 14 15  2  0  0  0  0
 14 13  1  0  0  0  0
 15 16  1  0  0  0  0
 16 17  1  0  0  0  0
 16 12  1  0  0  0  0
 17 18  1  0  0  0  0
 18 19  2  0  0  0  0
 20 19  1  0  0  0  0
 21 20  2  0  0  0  0
 22 21  1  0  0  0  0
 23 22  2  0  0  0  0
 24 23  1  0  0  0  0
 24 25  2  0  0  0  0
 25 26  1  0  0  0  0
 26 21  1  0  0  0  0
 26 17  2  0  0  0  0
 27 32  1  0  0  0  0
 27 33  1  0  0  0  0
 28 27  2  0  0  0  0
 29 28  1  0  0  0  0
 29 30  2  0  0  0  0
 30 31  1  0  0  0  0
 31 32  2  0  0  0  0
 33 34  2  0  0  0  0
 35 33  2  0  0  0  0
 36 33  1  0  0  0  0
 37 38  1  0  0  0  0
 37 39  1  0  0  0  0
M  END
>  <minimizedAffinity>
-6.9337678

$$$$

 OpenBabel03272514483D

 39 44  0  0  0  0  0  0  0  0999 V2000
   28.1080   26.8740   49.4510 C   0  0  0  0  0  0  0  0  0  0  0  0
   29.0680   27.1330   50.4680 C   0  0  0  0  0  3  0  0  0  0  0  0
   30.1410   27.9160   50.1290 C   0  0  0  0  0  3  0  0  0  0  0  0
   30.1720   28.3600   48.8640 N   0  0  0  0  0  0  0  0  0  0  0  0
   29.3170   28.1400   47.9240 C   0  0  0  0  0  0  0  0  0  0  0  0
   28.2490   27.3720   48.2240 N   0  0  0  0  0  0  0  0  0  0  0  0
   29.5880   28.7340   46.6770 N   0  0  0  0  0  0  0  0  0  0  0  0
   28.7550   29.7140   46.2320 C   0  0  0  0  0  3  0  0  0  0  0  0
   29.2020   30.1500   45.0040 C   0  0  0  0  0  0  0  0  0  0  0  0
   30.2830   29.4410   44.7200 N   0  0  0  0  0  0  0  0  0  0  0  0
   30.5350   28.5530   45.7570 C   0  0  0  0  0  0  0  0  0  0  0  0
   31.6110   27.6160   45.7670 C   0  0  0  0  0  0  0  0  0  0  0  0
   31.4150   26.2440   45.5190 C   0  0  0  0  0  3  0  0  0  0  0  0
   32.6170   25.5930   45.6220 N   0  0  0  0  0  0  0  0  0  0  0  0
   33.5620   26.5760   45.9390 C   0  0  0  0  0  3  0  0  0  0  0  0
   32.8980   27.7200   46.0000 N   0  0  0  0  0  0  0  0  0  0  0  0
   33.9100   28.6540   46.2370 C   0  0  0  0  0  0  0  0  0  0  0  0
   34.4870   29.0710   45.1060 N   0  0  0  0  0  0  0  0  0  0  0  0
   35.5330   29.9370   45.1640 C   0  0  0  0  0  3  0  0  0  0  0  0
   36.0370   30.4160   46.3010 N   0  0  0  0  0  0  0  0  0  0  0  0
   35.4870   30.0230   47.4630 C   0  0  0  0  0  0  0  0  0  0  0  0
   35.9040   30.4310   48.7030 C   0  0  0  0  0  3  0  0  0  0  0  0
   35.3110   29.9970   49.8490 C   0  0  0  0  0  3  0  0  0  0  0  0
   34.2410   29.1080   49.7680 C   0  0  0  0  0  3  0  0  0  0  0  0
   33.7770   28.6640   48.5580 C   0  0  0  0  0  3  0  0  0  0  0  0
   34.4080   29.1300   47.4370 C   0  0  0  0  0  0  0  0  0  0  0  0
   27.4970   33.1570   42.6190 C   0  0  0  0  0  0  0  0  0  0  0  0
   28.8940   33.0890   42.6820 C   0  0  0  0  0  3  0  0  0  0  0  0
   29.3850   32.0740   43.4860 C   0  0  0  0  0  3  0  0  0  0  0  0
   28.5960   31.1920   44.1770 C   0  0  0  0  0  0  0  0  0  0  0  0
   27.2210   31.2890   44.0900 C   0  0  0  0  0  3  0  0  0  0  0  0
   26.6800   32.2730   43.3110 C   0  0  0  0  0  3  0  0  0  0  0  0
   26.6880   34.3580   41.6630 S   0  0  0  0  0  0  0  0  0  0  0  0
   26.7780   35.7270   42.2770 O   0  0  0  0  0  0  0  0  0  0  0  0
   25.2500   33.9370   41.4940 O   0  0  0  0  0  0  0  0  0  0  0  0
   27.3040   34.4460   40.4430 H   0  0  0  0  0  0  0  0  0  0  0  0
   26.9570   26.0640   49.7750 N   0  0  0  0  0  0  0  0  0  0  0  0
   26.2490   25.8640   49.0550 H   0  0  0  0  0  0  0  0  0  0  0  0
   26.8440   25.6870   50.7280 H   0  0  0  0  0  0  0  0  0  0  0  0
  1 37  1  0  0  0  0
  1  2  1  0  0  0  0
  3  2  2  0  0  0  0
  4  3  1  0  0  0  0
  5  6  1  0  0  0  0
  5  4  2  0  0  0  0
  6  1  2  0  0  0  0
  7  5  1  0  0  0  0
  8  7  1  0  0  0  0
  9  8  2  0  0  0  0
 10  9  1  0  0  0  0
 10 11  2  0  0  0  0
 11 12  1  0  0  0  0
 11  7  1  0  0  0  0
 12 16  1  0  0  0  0
 13 14  1  0  0  0  0
 13 12  2  0  0  0  0
 14 15  2  0  0  0  0
 15 16  1  0  0  0  0
 16 17  1  0  0  0  0
 17 26  1  0  0  0  0
 18 19  1  0  0  0  0
 18 17  2  0  0  0  0
 19 20  2  0  0  0  0
 20 21  1  0  0  0  0
 21 22  1  0  0  0  0
 22 23  2  0  0  0  0
 24 23  1  0  0  0  0
 25 24  2  0  0  0  0
 26 21  2  0  0  0  0
 26 25  1  0  0  0  0
 27 28  2  0  0  0  0
 27 32  1  0  0  0  0
 28 29  1  0  0  0  0
 29 30  2  0  0  0  0
 30  9  1  0  0  0  0
 31 30  1  0  0  0  0
 32 31  2  0  0  0  0
 33 34  2  0  0  0  0
 33 27  1  0  0  0  0
 35 33  2  0  0  0  0
 36 33  1  0  0  0  0
 37 39  1  0  0  0  0
 38 37  1  0  0  0  0
M  END
>  <minimizedAffinity>
-6.92573357

$$$$

 OpenBabel03272514483D

 39 44  0  0  0  0  0  0  0  0999 V2000
   27.4180   29.0530   49.1650 C   0  0  0  0  0  0  0  0  0  0  0  0
   26.9060   27.9010   49.8250 C   0  0  0  0  0  3  0  0  0  0  0  0
   27.7140   26.7950   49.8680 C   0  0  0  0  0  3  0  0  0  0  0  0
   28.9130   26.9170   49.2800 N   0  0  0  0  0  0  0  0  0  0  0  0
   29.4010   27.9460   48.6760 C   0  0  0  0  0  0  0  0  0  0  0  0
   28.6310   29.0520   48.6150 N   0  0  0  0  0  0  0  0  0  0  0  0
   30.6970   27.8070   48.1470 N   0  0  0  0  0  0  0  0  0  0  0  0
   31.7040   28.5420   48.6950 C   0  0  0  0  0  3  0  0  0  0  0  0
   32.8750   28.2530   48.0300 C   0  0  0  0  0  0  0  0  0  0  0  0
   32.5730   27.3630   47.0990 N   0  0  0  0  0  0  0  0  0  0  0  0
   31.2160   27.0750   47.1600 C   0  0  0  0  0  0  0  0  0  0  0  0
   30.5450   26.1740   46.2800 C   0  0  0  0  0  0  0  0  0  0  0  0
   30.9150   24.8210   46.1660 C   0  0  0  0  0  3  0  0  0  0  0  0
   30.1160   24.2150   45.2310 N   0  0  0  0  0  0  0  0  0  0  0  0
   29.2460   25.2080   44.7660 C   0  0  0  0  0  3  0  0  0  0  0  0
   29.5580   26.3120   45.4280 N   0  0  0  0  0  0  0  0  0  0  0  0
   28.6050   27.2260   44.9710 C   0  0  0  0  0  0  0  0  0  0  0  0
   27.4650   27.1550   45.6660 N   0  0  0  0  0  0  0  0  0  0  0  0
   26.4120   27.9370   45.3120 C   0  0  0  0  0  3  0  0  0  0  0  0
   26.4360   28.7960   44.2940 N   0  0  0  0  0  0  0  0  0  0  0  0
   27.5620   28.9010   43.5670 C   0  0  0  0  0  0  0  0  0  0  0  0
   27.7260   29.7380   42.4950 C   0  0  0  0  0  3  0  0  0  0  0  0
   28.8910   29.8010   41.7920 C   0  0  0  0  0  3  0  0  0  0  0  0
   29.9590   28.9890   42.1710 C   0  0  0  0  0  3  0  0  0  0  0  0
   29.8570   28.1320   43.2350 C   0  0  0  0  0  3  0  0  0  0  0  0
   28.6660   28.1070   43.9070 C   0  0  0  0  0  0  0  0  0  0  0  0
   36.6640   29.8710   48.8420 C   0  0  0  0  0  0  0  0  0  0  0  0
   36.1430   28.9430   49.7520 C   0  0  0  0  0  3  0  0  0  0  0  0
   34.8920   28.4520   49.4200 C   0  0  0  0  0  3  0  0  0  0  0  0
   34.1930   28.8230   48.3010 C   0  0  0  0  0  0  0  0  0  0  0  0
   34.7390   29.7420   47.4260 C   0  0  0  0  0  3  0  0  0  0  0  0
   35.9730   30.2610   47.7030 C   0  0  0  0  0  3  0  0  0  0  0  0
   38.2210   30.6000   49.0800 S   0  0  0  0  0  0  0  0  0  0  0  0
   38.4120   31.0840   50.4900 O   0  0  0  0  0  0  0  0  0  0  0  0
   38.3660   31.7340   48.0960 O   0  0  0  0  0  0  0  0  0  0  0  0
   39.1920   29.6580   48.8660 H   0  0  0  0  0  0  0  0  0  0  0  0
   26.6000   30.2420   49.1130 N   0  0  0  0  0  0  0  0  0  0  0  0
   26.9510   31.0880   48.6400 H   0  0  0  0  0  0  0  0  0  0  0  0
   25.6660   30.2450   49.5470 H   0  0  0  0  0  0  0  0  0  0  0  0
  1  2  1  0  0  0  0
  2  3  2  0  0  0  0
  4  3  1  0  0  0  0
  5  4  2  0  0  0  0
  6  5  1  0  0  0  0
  6  1  2  0  0  0  0
  7  5  1  0  0  0  0
  7  8  1  0  0  0  0
  9 30  1  0  0  0  0
  9  8  2  0  0  0  0
 10 11  2  0  0  0  0
 10  9  1  0  0  0  0
 11  7  1  0  0  0  0
 12 11  1  0  0  0  0
 13 12  2  0  0  0  0
 14 13  1  0  0  0  0
 15 14  2  0  0  0  0
 15 16  1  0  0  0  0
 16 12  1  0  0  0  0
 17 16  1  0  0  0  0
 17 18  1  0  0  0  0
 19 18  2  0  0  0  0
 20 19  1  0  0  0  0
 21 26  1  0  0  0  0
 21 20  2  0  0  0  0
 22 21  1  0  0  0  0
 23 24  1  0  0  0  0
 23 22  2  0  0  0  0
 24 25  2  0  0  0  0
 25 26  1  0  0  0  0
 26 17  2  0  0  0  0
 27 33  1  0  0  0  0
 27 28  1  0  0  0  0
 29 28  2  0  0  0  0
 30 29  1  0  0  0  0
 31 32  1  0  0  0  0
 31 30  2  0  0  0  0
 32 27  2  0  0  0  0
 33 34  2  0  0  0  0
 35 33  2  0  0  0  0
 36 33  1  0  0  0  0
 37  1  1  0  0  0  0
 37 39  1  0  0  0  0
 38 37  1  0  0  0  0
M  END
>  <minimizedAffinity>
-6.81995678

$$$$

 OpenBabel03272514483D

 39 44  0  0  0  0  0  0  0  0999 V2000
   37.5970   29.6800   50.3330 C   0  0  0  0  0  0  0  0  0  0  0  0
   38.1500   30.9800   50.4940 C   0  0  0  0  0  3  0  0  0  0  0  0
   37.7830   31.9330   49.5800 C   0  0  0  0  0  3  0  0  0  0  0  0
   36.9310   31.5350   48.6220 N   0  0  0  0  0  0  0  0  0  0  0  0
   36.4170   30.3650   48.4530 C   0  0  0  0  0  0  0  0  0  0  0  0
   36.7590   29.4040   49.3360 N   0  0  0  0  0  0  0  0  0  0  0  0
   35.5420   30.2160   47.3610 N   0  0  0  0  0  0  0  0  0  0  0  0
   34.2260   29.9760   47.6140 C   0  0  0  0  0  3  0  0  0  0  0  0
   33.5590   29.8640   46.4140 C   0  0  0  0  0  0  0  0  0  0  0  0
   34.4610   30.0340   45.4610 N   0  0  0  0  0  0  0  0  0  0  0  0
   35.7040   30.2530   46.0390 C   0  0  0  0  0  0  0  0  0  0  0  0
   36.9100   30.4470   45.3010 C   0  0  0  0  0  0  0  0  0  0  0  0
   38.1640   30.5660   45.9290 C   0  0  0  0  0  3  0  0  0  0  0  0
   39.1260   30.7710   44.9730 N   0  0  0  0  0  0  0  0  0  0  0  0
   38.4540   30.7780   43.7450 C   0  0  0  0  0  3  0  0  0  0  0  0
   37.1740   30.5800   44.0230 N   0  0  0  0  0  0  0  0  0  0  0  0
   36.5880   30.5210   42.7560 C   0  0  0  0  0  0  0  0  0  0  0  0
   36.6450   29.2930   42.2300 N   0  0  0  0  0  0  0  0  0  0  0  0
   36.1710   29.0760   40.9750 C   0  0  0  0  0  3  0  0  0  0  0  0
   35.6380   30.0270   40.2100 N   0  0  0  0  0  0  0  0  0  0  0  0
   35.5600   31.2770   40.6980 C   0  0  0  0  0  0  0  0  0  0  0  0
   35.0400   32.3500   40.0220 C   0  0  0  0  0  3  0  0  0  0  0  0
   34.9890   33.5970   40.5660 C   0  0  0  0  0  3  0  0  0  0  0  0
   35.4820   33.7990   41.8540 C   0  0  0  0  0  3  0  0  0  0  0  0
   36.0130   32.7660   42.5810 C   0  0  0  0  0  3  0  0  0  0  0  0
   36.0410   31.5340   41.9890 C   0  0  0  0  0  0  0  0  0  0  0  0
   29.4540   29.1580   45.8710 C   0  0  0  0  0  0  0  0  0  0  0  0
   30.0140   30.2720   45.2330 C   0  0  0  0  0  3  0  0  0  0  0  0
   31.3700   30.4420   45.4570 C   0  0  0  0  0  3  0  0  0  0  0  0
   32.1310   29.6080   46.2320 C   0  0  0  0  0  0  0  0  0  0  0  0
   31.5440   28.5180   46.8460 C   0  0  0  0  0  3  0  0  0  0  0  0
   30.2070   28.3000   46.6610 C   0  0  0  0  0  3  0  0  0  0  0  0
   27.7700   28.7720   45.7130 S   0  0  0  0  0  0  0  0  0  0  0  0
   26.9690   29.9300   45.1880 O   0  0  0  0  0  0  0  0  0  0  0  0
   27.2580   28.3310   47.0610 O   0  0  0  0  0  0  0  0  0  0  0  0
   27.6270   27.7640   44.7980 H   0  0  0  0  0  0  0  0  0  0  0  0
   37.9500   28.6540   51.2870 N   0  0  0  0  0  0  0  0  0  0  0  0
   37.5620   27.7050   51.1900 H   0  0  0  0  0  0  0  0  0  0  0  0
   38.5910   28.8720   52.0640 H   0  0  0  0  0  0  0  0  0  0  0  0
  1  2  1  0  0  0  0
  1 37  1  0  0  0  0
  3  2  2  0  0  0  0
  4  3  1  0  0  0  0
  5  4  2  0  0  0  0
  5  6  1  0  0  0  0
  6  1  2  0  0  0  0
  7  8  1  0  0  0  0
  7  5  1  0  0  0  0
  9  8  2  0  0  0  0
 10 11  2  0  0  0  0
 10  9  1  0  0  0  0
 11  7  1  0  0  0  0
 12 13  2  0  0  0  0
 12 11  1  0  0  0  0
 14 13  1  0  0  0  0
 15 16  1  0  0  0  0
 15 14  2  0  0  0  0
 16 12  1  0  0  0  0
 17 16  1  0  0  0  0
 18 17  1  0  0  0  0
 19 18  2  0  0  0  0
 20 21  2  0  0  0  0
 20 19  1  0  0  0  0
 21 26  1  0  0  0  0
 22 23  2  0  0  0  0
 22 21  1  0  0  0  0
 23 24  1  0  0  0  0
 24 25  2  0  0  0  0
 26 25  1  0  0  0  0
 26 17  2  0  0  0  0
 27 32  1  0  0  0  0
 28 29  1  0  0  0  0
 28 27  2  0  0  0  0
 29 30  2  0  0  0  0
 30  9  1  0  0  0  0
 30 31  1  0  0  0  0
 32 31  2  0  0  0  0
 33 27  1  0  0  0  0
 33 35  2  0  0  0  0
 34 33  2  0  0  0  0
 36 33  1  0  0  0  0
 37 39  1  0  0  0  0
 38 37  1  0  0  0  0
M  END
>  <minimizedAffinity>
-6.78119087

$$$$

 OpenBabel03272514483D

 39 44  0  0  0  0  0  0  0  0999 V2000
   27.6540   28.7120   46.5320 C   0  0  0  0  0  0  0  0  0  0  0  0
   27.3190   27.4850   45.8950 C   0  0  0  0  0  3  0  0  0  0  0  0
   28.3350   26.8060   45.2750 C   0  0  0  0  0  3  0  0  0  0  0  0
   29.5490   27.3730   45.3360 N   0  0  0  0  0  0  0  0  0  0  0  0
   29.8790   28.4830   45.9050 C   0  0  0  0  0  0  0  0  0  0  0  0
   28.9020   29.1770   46.5240 N   0  0  0  0  0  0  0  0  0  0  0  0
   31.2350   28.8500   45.8240 N   0  0  0  0  0  0  0  0  0  0  0  0
   31.9700   28.8690   46.9700 C   0  0  0  0  0  3  0  0  0  0  0  0
   33.2570   29.2540   46.6630 C   0  0  0  0  0  0  0  0  0  0  0  0
   33.2890   29.4610   45.3560 N   0  0  0  0  0  0  0  0  0  0  0  0
   32.0330   29.2140   44.8200 C   0  0  0  0  0  0  0  0  0  0  0  0
   31.7040   29.3670   43.4400 C   0  0  0  0  0  0  0  0  0  0  0  0
   31.5280   28.2640   42.5830 C   0  0  0  0  0  3  0  0  0  0  0  0
   31.2480   28.7190   41.3200 N   0  0  0  0  0  0  0  0  0  0  0  0
   31.2530   30.1160   41.4030 C   0  0  0  0  0  3  0  0  0  0  0  0
   31.5210   30.4100   42.6660 N   0  0  0  0  0  0  0  0  0  0  0  0
   31.4300   31.8040   42.6860 C   0  0  0  0  0  0  0  0  0  0  0  0
   30.1750   32.2250   42.8740 N   0  0  0  0  0  0  0  0  0  0  0  0
   29.9030   33.5560   42.8590 C   0  0  0  0  0  3  0  0  0  0  0  0
   30.8250   34.4990   42.6680 N   0  0  0  0  0  0  0  0  0  0  0  0
   32.1000   34.1220   42.4750 C   0  0  0  0  0  0  0  0  0  0  0  0
   33.1470   34.9800   42.2630 C   0  0  0  0  0  3  0  0  0  0  0  0
   34.4210   34.5410   42.0700 C   0  0  0  0  0  3  0  0  0  0  0  0
   34.6790   33.1710   42.0870 C   0  0  0  0  0  3  0  0  0  0  0  0
   33.6750   32.2630   42.2950 C   0  0  0  0  0  3  0  0  0  0  0  0
   32.4130   32.7560   42.4830 C   0  0  0  0  0  0  0  0  0  0  0  0
   36.4650   29.7090   49.3350 C   0  0  0  0  0  0  0  0  0  0  0  0
   36.4520   30.5130   48.1880 C   0  0  0  0  0  3  0  0  0  0  0  0
   35.3670   30.3080   47.3540 C   0  0  0  0  0  3  0  0  0  0  0  0
   34.3680   29.4030   47.6000 C   0  0  0  0  0  0  0  0  0  0  0  0
   34.4140   28.6270   48.7430 C   0  0  0  0  0  3  0  0  0  0  0  0
   35.4640   28.7850   49.6030 C   0  0  0  0  0  3  0  0  0  0  0  0
   37.7410   29.8160   50.5060 S   0  0  0  0  0  0  0  0  0  0  0  0
   37.2200   29.8270   51.9150 O   0  0  0  0  0  0  0  0  0  0  0  0
   38.5430   31.0600   50.2180 O   0  0  0  0  0  0  0  0  0  0  0  0
   38.5350   28.7050   50.4020 H   0  0  0  0  0  0  0  0  0  0  0  0
   26.6110   29.4490   47.2070 N   0  0  0  0  0  0  0  0  0  0  0  0
   26.8310   30.3400   47.6750 H   0  0  0  0  0  0  0  0  0  0  0  0
   25.6480   29.0830   47.2210 H   0  0  0  0  0  0  0  0  0  0  0  0
  1 37  1  0  0  0  0
  2  1  2  0  0  0  0
  3  4  2  0  0  0  0
  3  2  1  0  0  0  0
  4  5  1  0  0  0  0
  5  6  2  0  0  0  0
  6  1  1  0  0  0  0
  7  5  1  0  0  0  0
  7  8  1  0  0  0  0
  9  8  2  0  0  0  0
  9 30  1  0  0  0  0
 10  9  1  0  0  0  0
 11 10  2  0  0  0  0
 11  7  1  0  0  0  0
 12 11  1  0  0  0  0
 13 12  2  0  0  0  0
 14 15  2  0  0  0  0
 14 13  1  0  0  0  0
 15 16  1  0  0  0  0
 16 17  1  0  0  0  0
 16 12  1  0  0  0  0
 17 18  1  0  0  0  0
 19 18  2  0  0  0  0
 20 19  1  0  0  0  0
 21 26  1  0  0  0  0
 21 20  2  0  0  0  0
 22 21  1  0  0  0  0
 23 24  1  0  0  0  0
 23 22  2  0  0  0  0
 24 25  2  0  0  0  0
 25 26  1  0  0  0  0
 26 17  2  0  0  0  0
 27 32  1  0  0  0  0
 27 33  1  0  0  0  0
 28 27  2  0  0  0  0
 29 30  2  0  0  0  0
 29 28  1  0  0  0  0
 30 31  1  0  0  0  0
 31 32  2  0  0  0  0
 33 34  2  0  0  0  0
 35 33  2  0  0  0  0
 36 33  1  0  0  0  0
 37 39  1  0  0  0  0
 37 38  1  0  0  0  0
M  END
>  <minimizedAffinity>
-6.71053648

$$$$
