
 OpenBabel03272514413D

 31 36  0  0  1  0  0  0  0  0999 V2000
   31.6420   26.2190   46.4200 N   0  0  0  0  0  0  0  0  0  0  0  0
   31.5070   24.8100   45.9680 C   0  0  0  0  0  2  0  0  0  0  0  0
   32.8660   24.3160   45.6560 C   0  0  0  0  0  2  0  0  0  0  0  0
   33.7390   25.4630   46.1360 C   0  0  0  0  0  2  0  0  0  0  0  0
   32.8880   26.6460   45.7780 C   0  0  2  0  0  3  0  0  0  0  0  0
   28.9900   27.8440   48.1310 C   0  0  0  0  0  0  0  0  0  0  0  0
   29.8080   27.4630   49.2010 C   0  0  0  0  0  3  0  0  0  0  0  0
   30.9180   26.7970   48.6590 C   0  0  0  0  0  3  0  0  0  0  0  0
   30.6730   26.8300   47.2720 C   0  0  0  0  0  0  0  0  0  0  0  0
   29.5730   27.4310   47.0300 O   0  0  0  0  0  0  0  0  0  0  0  0
   26.7690   30.6090   48.9600 C   0  0  0  0  0  3  0  0  0  0  0  0
   25.5180   30.0120   49.0510 C   0  0  0  0  0  3  0  0  0  0  0  0
   25.4310   28.6230   48.8190 C   0  0  0  0  0  3  0  0  0  0  0  0
   26.5630   27.9200   48.5200 N   0  0  0  0  0  0  0  0  0  0  0  0
   27.7660   28.5570   48.4440 C   0  0  0  0  0  0  0  0  0  0  0  0
   27.8530   29.8770   48.6630 N   0  0  0  0  0  0  0  0  0  0  0  0
   33.3640   27.8300   46.4980 C   0  0  0  0  0  0  0  0  0  0  0  0
   32.9950   29.1190   46.3290 C   0  0  0  0  0  3  0  0  0  0  0  0
   33.7430   29.8850   47.2340 C   0  0  0  0  0  3  0  0  0  0  0  0
   34.5390   29.0010   47.9130 N   0  0  0  0  0  0  0  0  0  0  0  0
   34.3080   27.7620   47.4690 N   0  0  0  0  0  0  0  0  0  0  0  0
   35.4330   29.4730   48.9190 C   0  0  0  0  0  0  0  0  0  0  0  0
   35.0970   29.0090   50.1930 C   0  0  0  0  0  3  0  0  0  0  0  0
   35.8680   29.3810   51.2750 C   0  0  0  0  0  3  0  0  0  0  0  0
   36.9730   30.2120   51.1150 C   0  0  0  0  0  3  0  0  0  0  0  0
   37.2730   30.6510   49.8400 C   0  0  0  0  0  0  0  0  0  0  0  0
   38.3550   31.4760   49.6130 C   0  0  0  0  0  3  0  0  0  0  0  0
   38.6340   31.9030   48.3200 C   0  0  0  0  0  3  0  0  0  0  0  0
   37.8530   31.5250   47.2300 C   0  0  0  0  0  3  0  0  0  0  0  0
   36.7540   30.6910   47.4430 C   0  0  0  0  0  3  0  0  0  0  0  0
   36.5240   30.2980   48.7390 C   0  0  0  0  0  0  0  0  0  0  0  0
  1  9  1  0  0  0  0
  2  1  1  0  0  0  0
  3  2  1  0  0  0  0
  3  4  1  0  0  0  0
  5  4  1  0  0  0  0
  5  1  1  0  0  0  0
  5 17  1  1  0  0  0
  6 15  1  0  0  0  0
  6  7  2  0  0  0  0
  8  7  1  0  0  0  0
  9  8  2  0  0  0  0
 10  9  1  0  0  0  0
 10  6  1  0  0  0  0
 11 12  1  0  0  0  0
 13 12  2  0  0  0  0
 14 13  1  0  0  0  0
 15 14  2  0  0  0  0
 15 16  1  0  0  0  0
 16 11  2  0  0  0  0
 17 21  2  0  0  0  0
 18 17  1  0  0  0  0
 18 19  2  0  0  0  0
 19 20  1  0  0  0  0
 20 22  1  0  0  0  0
 21 20  1  0  0  0  0
 22 23  1  0  0  0  0
 23 24  2  0  0  0  0
 25 24  1  0  0  0  0
 26 25  2  0  0  0  0
 27 26  1  0  0  0  0
 28 27  2  0  0  0  0
 29 30  2  0  0  0  0
 29 28  1  0  0  0  0
 30 31  1  0  0  0  0
 31 22  2  0  0  0  0
 31 26  1  0  0  0  0
M  END
>  <minimizedAffinity>
-8.20684147

$$$$

 OpenBabel03272514413D

 31 36  0  0  1  0  0  0  0  0999 V2000
   30.6740   30.0190   44.9330 N   0  0  0  0  0  0  0  0  0  0  0  0
   29.9670   30.4530   43.7010 C   0  0  0  0  0  2  0  0  0  0  0  0
   30.9970   30.7330   42.6770 C   0  0  0  0  0  2  0  0  0  0  0  0
   32.2650   30.2550   43.3640 C   0  0  0  0  0  2  0  0  0  0  0  0
   31.9910   30.6440   44.7880 C   0  0  2  0  0  3  0  0  0  0  0  0
   29.1080   28.3570   47.6510 C   0  0  0  0  0  0  0  0  0  0  0  0
   29.1610   27.3300   46.7010 C   0  0  0  0  0  3  0  0  0  0  0  0
   29.7690   27.8580   45.5520 C   0  0  0  0  0  3  0  0  0  0  0  0
   30.0410   29.1930   45.9110 C   0  0  0  0  0  0  0  0  0  0  0  0
   29.6470   29.4210   47.1040 O   0  0  0  0  0  0  0  0  0  0  0  0
   26.6130   28.1640   50.2970 C   0  0  0  0  0  3  0  0  0  0  0  0
   27.2810   27.5260   51.3350 C   0  0  0  0  0  3  0  0  0  0  0  0
   28.6240   27.1490   51.1230 C   0  0  0  0  0  3  0  0  0  0  0  0
   29.2160   27.4210   49.9230 N   0  0  0  0  0  0  0  0  0  0  0  0
   28.5130   28.0500   48.9380 C   0  0  0  0  0  0  0  0  0  0  0  0
   27.2360   28.4100   49.1360 N   0  0  0  0  0  0  0  0  0  0  0  0
   32.9100   29.9330   45.6780 C   0  0  0  0  0  0  0  0  0  0  0  0
   33.3870   28.6740   45.5590 C   0  0  0  0  0  3  0  0  0  0  0  0
   34.2140   28.4380   46.6670 C   0  0  0  0  0  3  0  0  0  0  0  0
   34.1910   29.5890   47.4090 N   0  0  0  0  0  0  0  0  0  0  0  0
   33.4060   30.4890   46.8110 N   0  0  0  0  0  0  0  0  0  0  0  0
   34.9430   29.6730   48.6180 C   0  0  0  0  0  0  0  0  0  0  0  0
   34.3130   29.0300   49.6860 C   0  0  0  0  0  3  0  0  0  0  0  0
   34.9180   29.0250   50.9260 C   0  0  0  0  0  3  0  0  0  0  0  0
   36.1450   29.6510   51.1270 C   0  0  0  0  0  3  0  0  0  0  0  0
   36.7370   30.2780   50.0470 C   0  0  0  0  0  0  0  0  0  0  0  0
   37.9510   30.9160   50.1790 C   0  0  0  0  0  3  0  0  0  0  0  0
   38.5240   31.5380   49.0760 C   0  0  0  0  0  3  0  0  0  0  0  0
   37.9100   31.5420   47.8260 C   0  0  0  0  0  3  0  0  0  0  0  0
   36.6800   30.9000   47.6760 C   0  0  0  0  0  3  0  0  0  0  0  0
   36.1590   30.3000   48.7970 C   0  0  0  0  0  0  0  0  0  0  0  0
  1  9  1  0  0  0  0
  2  1  1  0  0  0  0
  3  4  1  0  0  0  0
  3  2  1  0  0  0  0
  4  5  1  0  0  0  0
  5  1  1  0  0  0  0
  5 17  1  1  0  0  0
  6 15  1  0  0  0  0
  7  6  2  0  0  0  0
  8  9  2  0  0  0  0
  8  7  1  0  0  0  0
  9 10  1  0  0  0  0
 10  6  1  0  0  0  0
 11 12  1  0  0  0  0
 13 12  2  0  0  0  0
 14 13  1  0  0  0  0
 15 16  1  0  0  0  0
 15 14  2  0  0  0  0
 16 11  2  0  0  0  0
 17 21  2  0  0  0  0
 18 17  1  0  0  0  0
 18 19  2  0  0  0  0
 19 20  1  0  0  0  0
 20 22  1  0  0  0  0
 21 20  1  0  0  0  0
 22 31  2  0  0  0  0
 22 23  1  0  0  0  0
 23 24  2  0  0  0  0
 24 25  1  0  0  0  0
 26 27  1  0  0  0  0
 26 25  2  0  0  0  0
 28 27  2  0  0  0  0
 29 28  1  0  0  0  0
 30 29  2  0  0  0  0
 30 31  1  0  0  0  0
 31 26  1  0  0  0  0
M  END
>  <minimizedAffinity>
-7.68881369

$$$$

 OpenBabel03272514413D

 31 36  0  0  1  0  0  0  0  0999 V2000
   31.4870   26.8380   45.2650 N   0  0  0  0  0  0  0  0  0  0  0  0
   31.3100   25.6360   44.4100 C   0  0  0  0  0  2  0  0  0  0  0  0
   32.4220   25.6210   43.4350 C   0  0  0  0  0  2  0  0  0  0  0  0
   33.2930   26.7640   43.9280 C   0  0  0  0  0  2  0  0  0  0  0  0
   32.2530   27.7390   44.4010 C   0  0  2  0  0  3  0  0  0  0  0  0
   29.7470   27.1500   48.3430 C   0  0  0  0  0  0  0  0  0  0  0  0
   31.0020   26.7140   48.7850 C   0  0  0  0  0  3  0  0  0  0  0  0
   31.8080   26.5460   47.6500 C   0  0  0  0  0  3  0  0  0  0  0  0
   30.9540   26.9040   46.5880 C   0  0  0  0  0  0  0  0  0  0  0  0
   29.8040   27.2350   47.0350 O   0  0  0  0  0  0  0  0  0  0  0  0
   28.0640   27.1140   51.5730 C   0  0  0  0  0  3  0  0  0  0  0  0
   26.8750   27.7920   51.3340 C   0  0  0  0  0  3  0  0  0  0  0  0
   26.6440   28.2780   50.0290 C   0  0  0  0  0  3  0  0  0  0  0  0
   27.5800   28.0680   49.0580 N   0  0  0  0  0  0  0  0  0  0  0  0
   28.7300   27.3950   49.3490 C   0  0  0  0  0  0  0  0  0  0  0  0
   28.9540   26.9320   50.5870 N   0  0  0  0  0  0  0  0  0  0  0  0
   32.8780   28.7430   45.2650 C   0  0  0  0  0  0  0  0  0  0  0  0
   32.3560   29.9070   45.7100 C   0  0  0  0  0  3  0  0  0  0  0  0
   33.3420   30.5340   46.4860 C   0  0  0  0  0  3  0  0  0  0  0  0
   34.4270   29.6980   46.4660 N   0  0  0  0  0  0  0  0  0  0  0  0
   34.1450   28.6190   45.7300 N   0  0  0  0  0  0  0  0  0  0  0  0
   35.6140   30.0530   47.1720 C   0  0  0  0  0  0  0  0  0  0  0  0
   36.5740   30.6410   46.3440 C   0  0  0  0  0  3  0  0  0  0  0  0
   37.7800   31.0390   46.8820 C   0  0  0  0  0  3  0  0  0  0  0  0
   38.0540   30.8640   48.2350 C   0  0  0  0  0  3  0  0  0  0  0  0
   37.0800   30.2790   49.0220 C   0  0  0  0  0  0  0  0  0  0  0  0
   37.2880   30.0770   50.3700 C   0  0  0  0  0  3  0  0  0  0  0  0
   36.2920   29.4870   51.1390 C   0  0  0  0  0  3  0  0  0  0  0  0
   35.0750   29.0850   50.5920 C   0  0  0  0  0  3  0  0  0  0  0  0
   34.8490   29.2820   49.2290 C   0  0  0  0  0  3  0  0  0  0  0  0
   35.8660   29.8700   48.5160 C   0  0  0  0  0  0  0  0  0  0  0  0
  1  9  1  0  0  0  0
  2  1  1  0  0  0  0
  3  4  1  0  0  0  0
  3  2  1  0  0  0  0
  4  5  1  0  0  0  0
  5  1  1  0  0  0  0
  5 17  1  1  0  0  0
  6  7  2  0  0  0  0
  6 15  1  0  0  0  0
  8  7  1  0  0  0  0
  9 10  1  0  0  0  0
  9  8  2  0  0  0  0
 10  6  1  0  0  0  0
 12 11  1  0  0  0  0
 13 12  2  0  0  0  0
 14 15  2  0  0  0  0
 14 13  1  0  0  0  0
 15 16  1  0  0  0  0
 16 11  2  0  0  0  0
 17 18  1  0  0  0  0
 17 21  2  0  0  0  0
 18 19  2  0  0  0  0
 20 19  1  0  0  0  0
 20 22  1  0  0  0  0
 21 20  1  0  0  0  0
 22 31  1  0  0  0  0
 23 24  1  0  0  0  0
 23 22  2  0  0  0  0
 24 25  2  0  0  0  0
 25 26  1  0  0  0  0
 26 27  1  0  0  0  0
 27 28  2  0  0  0  0
 29 28  1  0  0  0  0
 30 29  2  0  0  0  0
 31 26  2  0  0  0  0
 31 30  1  0  0  0  0
M  END
>  <minimizedAffinity>
-7.58028269

$$$$

 OpenBabel03272514413D

 31 36  0  0  1  0  0  0  0  0999 V2000
   27.5220   28.1000   49.3930 N   0  0  0  0  0  0  0  0  0  0  0  0
   26.9080   28.0290   50.7450 C   0  0  0  0  0  2  0  0  0  0  0  0
   27.8220   27.2430   51.6030 C   0  0  0  0  0  2  0  0  0  0  0  0
   29.0280   27.0590   50.6970 C   0  0  0  0  0  2  0  0  0  0  0  0
   28.3660   26.9030   49.3590 C   0  0  2  0  0  3  0  0  0  0  0  0
   26.9410   30.4450   46.7920 C   0  0  0  0  0  0  0  0  0  0  0  0
   26.5100   31.1690   47.9100 C   0  0  0  0  0  3  0  0  0  0  0  0
   26.6860   30.3460   49.0330 C   0  0  0  0  0  3  0  0  0  0  0  0
   27.2230   29.1620   48.4880 C   0  0  0  0  0  0  0  0  0  0  0  0
   27.3450   29.2720   47.2210 O   0  0  0  0  0  0  0  0  0  0  0  0
   27.4530   31.0490   43.2380 C   0  0  0  0  0  3  0  0  0  0  0  0
   26.7660   32.2350   43.0020 C   0  0  0  0  0  3  0  0  0  0  0  0
   26.1070   32.8430   44.0910 C   0  0  0  0  0  3  0  0  0  0  0  0
   26.1650   32.2580   45.3240 N   0  0  0  0  0  0  0  0  0  0  0  0
   26.8540   31.0950   45.4980 C   0  0  0  0  0  0  0  0  0  0  0  0
   27.4820   30.5130   44.4660 N   0  0  0  0  0  0  0  0  0  0  0  0
   29.3540   27.0990   48.2960 C   0  0  0  0  0  0  0  0  0  0  0  0
   29.4380   26.4690   47.1030 C   0  0  0  0  0  3  0  0  0  0  0  0
   30.5640   26.9820   46.4430 C   0  0  0  0  0  3  0  0  0  0  0  0
   31.1090   27.9110   47.2890 N   0  0  0  0  0  0  0  0  0  0  0  0
   30.3780   27.9810   48.4050 N   0  0  0  0  0  0  0  0  0  0  0  0
   32.2830   28.6240   46.9050 C   0  0  0  0  0  0  0  0  0  0  0  0
   32.1760   29.1830   45.6290 C   0  0  0  0  0  3  0  0  0  0  0  0
   33.2340   29.9040   45.1150 C   0  0  0  0  0  3  0  0  0  0  0  0
   34.4040   30.0810   45.8460 C   0  0  0  0  0  3  0  0  0  0  0  0
   34.4730   29.5120   47.1040 C   0  0  0  0  0  0  0  0  0  0  0  0
   35.6040   29.6500   47.8800 C   0  0  0  0  0  3  0  0  0  0  0  0
   35.6460   29.0690   49.1420 C   0  0  0  0  0  3  0  0  0  0  0  0
   34.5770   28.3400   49.6590 C   0  0  0  0  0  3  0  0  0  0  0  0
   33.4250   28.1910   48.8840 C   0  0  0  0  0  3  0  0  0  0  0  0
   33.4350   28.7870   47.6460 C   0  0  0  0  0  0  0  0  0  0  0  0
  1  2  1  0  0  0  0
  2  3  1  0  0  0  0
  4  3  1  0  0  0  0
  5 17  1  6  0  0  0
  5  1  1  0  0  0  0
  5  4  1  0  0  0  0
  6 10  1  0  0  0  0
  6  7  2  0  0  0  0
  7  8  1  0  0  0  0
  9  8  2  0  0  0  0
  9  1  1  0  0  0  0
 10  9  1  0  0  0  0
 11 16  1  0  0  0  0
 12 11  2  0  0  0  0
 12 13  1  0  0  0  0
 13 14  2  0  0  0  0
 14 15  1  0  0  0  0
 15  6  1  0  0  0  0
 16 15  2  0  0  0  0
 17 21  2  0  0  0  0
 18 17  1  0  0  0  0
 19 18  2  0  0  0  0
 19 20  1  0  0  0  0
 20 21  1  0  0  0  0
 22 20  1  0  0  0  0
 22 31  1  0  0  0  0
 23 22  2  0  0  0  0
 24 23  1  0  0  0  0
 24 25  2  0  0  0  0
 25 26  1  0  0  0  0
 26 31  2  0  0  0  0
 26 27  1  0  0  0  0
 27 28  2  0  0  0  0
 28 29  1  0  0  0  0
 30 29  2  0  0  0  0
 31 30  1  0  0  0  0
M  END
>  <minimizedAffinity>
-7.44377327

$$$$

 OpenBabel03272514413D

 31 36  0  0  1  0  0  0  0  0999 V2000
   37.5750   30.3550   42.7600 N   0  0  0  0  0  0  0  0  0  0  0  0
   37.9360   29.3950   41.6850 C   0  0  0  0  0  2  0  0  0  0  0  0
   39.0610   28.5750   42.1870 C   0  0  0  0  0  2  0  0  0  0  0  0
   39.1570   29.0210   43.6360 C   0  0  0  0  0  2  0  0  0  0  0  0
   38.8240   30.4800   43.5150 C   0  0  2  0  0  3  0  0  0  0  0  0
   34.5000   32.1290   42.7500 C   0  0  0  0  0  0  0  0  0  0  0  0
   34.1420   30.9720   43.4530 C   0  0  0  0  0  3  0  0  0  0  0  0
   35.2860   30.1640   43.5330 C   0  0  0  0  0  3  0  0  0  0  0  0
   36.2660   30.9170   42.8560 C   0  0  0  0  0  0  0  0  0  0  0  0
   35.7690   32.0150   42.4350 O   0  0  0  0  0  0  0  0  0  0  0  0
   31.6130   34.2480   43.4120 C   0  0  0  0  0  3  0  0  0  0  0  0
   31.4750   34.9930   42.2460 C   0  0  0  0  0  3  0  0  0  0  0  0
   32.4000   34.7640   41.2050 C   0  0  0  0  0  3  0  0  0  0  0  0
   33.3830   33.8320   41.3720 N   0  0  0  0  0  0  0  0  0  0  0  0
   33.4710   33.1290   42.5370 C   0  0  0  0  0  0  0  0  0  0  0  0
   32.5950   33.3430   43.5290 N   0  0  0  0  0  0  0  0  0  0  0  0
   38.4820   31.0170   44.8340 C   0  0  0  0  0  0  0  0  0  0  0  0
   38.5030   32.3040   45.2460 C   0  0  0  0  0  3  0  0  0  0  0  0
   38.1170   32.3120   46.5950 C   0  0  0  0  0  3  0  0  0  0  0  0
   37.8810   31.0050   46.9300 N   0  0  0  0  0  0  0  0  0  0  0  0
   38.1000   30.2260   45.8680 N   0  0  0  0  0  0  0  0  0  0  0  0
   37.4650   30.6730   48.2530 C   0  0  0  0  0  0  0  0  0  0  0  0
   38.3940   31.0650   49.2210 C   0  0  0  0  0  3  0  0  0  0  0  0
   38.1340   30.8110   50.5510 C   0  0  0  0  0  3  0  0  0  0  0  0
   36.9620   30.1690   50.9430 C   0  0  0  0  0  3  0  0  0  0  0  0
   36.0680   29.7960   49.9580 C   0  0  0  0  0  0  0  0  0  0  0  0
   34.8890   29.1570   50.2790 C   0  0  0  0  0  3  0  0  0  0  0  0
   34.0080   28.7940   49.2680 C   0  0  0  0  0  3  0  0  0  0  0  0
   34.2740   29.0510   47.9250 C   0  0  0  0  0  3  0  0  0  0  0  0
   35.4630   29.6960   47.5830 C   0  0  0  0  0  3  0  0  0  0  0  0
   36.2980   30.0350   48.6210 C   0  0  0  0  0  0  0  0  0  0  0  0
  1  9  1  0  0  0  0
  1  5  1  0  0  0  0
  2  3  1  0  0  0  0
  2  1  1  0  0  0  0
  3  4  1  0  0  0  0
  5  4  1  0  0  0  0
  5 17  1  1  0  0  0
  6  7  2  0  0  0  0
  7  8  1  0  0  0  0
  9  8  2  0  0  0  0
 10  6  1  0  0  0  0
 10  9  1  0  0  0  0
 11 16  1  0  0  0  0
 12 11  2  0  0  0  0
 13 14  2  0  0  0  0
 13 12  1  0  0  0  0
 14 15  1  0  0  0  0
 15  6  1  0  0  0  0
 15 16  2  0  0  0  0
 17 18  1  0  0  0  0
 17 21  2  0  0  0  0
 18 19  2  0  0  0  0
 19 20  1  0  0  0  0
 20 22  1  0  0  0  0
 21 20  1  0  0  0  0
 22 31  2  0  0  0  0
 22 23  1  0  0  0  0
 23 24  2  0  0  0  0
 24 25  1  0  0  0  0
 26 27  1  0  0  0  0
 26 25  2  0  0  0  0
 28 27  2  0  0  0  0
 29 28  1  0  0  0  0
 30 29  2  0  0  0  0
 30 31  1  0  0  0  0
 31 26  1  0  0  0  0
M  END
>  <minimizedAffinity>
-7.17335415

$$$$

 OpenBabel03272514413D

 31 36  0  0  1  0  0  0  0  0999 V2000
   30.1350   28.3590   47.5350 N   0  0  0  0  0  0  0  0  0  0  0  0
   28.7330   28.5810   47.9700 C   0  0  0  0  0  2  0  0  0  0  0  0
   28.6850   28.3610   49.4320 C   0  0  0  0  0  2  0  0  0  0  0  0
   30.1550   28.1930   49.7760 C   0  0  0  0  0  2  0  0  0  0  0  0
   30.6550   27.4580   48.5660 C   0  0  2  0  0  3  0  0  0  0  0  0
   31.6580   30.1870   44.9000 C   0  0  0  0  0  0  0  0  0  0  0  0
   30.9730   29.1980   44.1830 C   0  0  0  0  0  3  0  0  0  0  0  0
   30.3130   28.3870   45.1180 C   0  0  0  0  0  3  0  0  0  0  0  0
   30.6610   28.9670   46.3540 C   0  0  0  0  0  0  0  0  0  0  0  0
   31.4210   29.9770   46.1740 O   0  0  0  0  0  0  0  0  0  0  0  0
   34.3990   31.6130   42.9730 C   0  0  0  0  0  3  0  0  0  0  0  0
   33.9700   32.9060   42.6950 C   0  0  0  0  0  3  0  0  0  0  0  0
   32.7050   33.2990   43.1800 C   0  0  0  0  0  3  0  0  0  0  0  0
   31.9550   32.4130   43.8970 N   0  0  0  0  0  0  0  0  0  0  0  0
   32.4250   31.1560   44.1410 C   0  0  0  0  0  0  0  0  0  0  0  0
   33.6270   30.7780   43.6810 N   0  0  0  0  0  0  0  0  0  0  0  0
   32.1170   27.5340   48.5140 C   0  0  0  0  0  0  0  0  0  0  0  0
   32.9790   26.6880   47.9070 C   0  0  0  0  0  3  0  0  0  0  0  0
   34.2730   27.1690   48.1560 C   0  0  0  0  0  3  0  0  0  0  0  0
   34.1190   28.3000   48.9140 N   0  0  0  0  0  0  0  0  0  0  0  0
   32.8180   28.5190   49.1270 N   0  0  0  0  0  0  0  0  0  0  0  0
   35.2650   29.0350   49.3390 C   0  0  0  0  0  0  0  0  0  0  0  0
   35.5150   28.8930   50.7060 C   0  0  0  0  0  3  0  0  0  0  0  0
   36.5910   29.5470   51.2680 C   0  0  0  0  0  3  0  0  0  0  0  0
   37.4290   30.3440   50.4950 C   0  0  0  0  0  3  0  0  0  0  0  0
   37.1500   30.4610   49.1470 C   0  0  0  0  0  0  0  0  0  0  0  0
   37.9410   31.2350   48.3250 C   0  0  0  0  0  3  0  0  0  0  0  0
   37.6370   31.3340   46.9720 C   0  0  0  0  0  3  0  0  0  0  0  0
   36.5480   30.6730   46.4080 C   0  0  0  0  0  3  0  0  0  0  0  0
   35.7380   29.8860   47.2260 C   0  0  0  0  0  3  0  0  0  0  0  0
   36.0830   29.8210   48.5540 C   0  0  0  0  0  0  0  0  0  0  0  0
  1  2  1  0  0  0  0
  1  5  1  0  0  0  0
  2  3  1  0  0  0  0
  3  4  1  0  0  0  0
  5 17  1  1  0  0  0
  5  4  1  0  0  0  0
  6 10  1  0  0  0  0
  7  6  2  0  0  0  0
  7  8  1  0  0  0  0
  8  9  2  0  0  0  0
  9  1  1  0  0  0  0
 10  9  1  0  0  0  0
 11 16  1  0  0  0  0
 12 11  2  0  0  0  0
 12 13  1  0  0  0  0
 13 14  2  0  0  0  0
 14 15  1  0  0  0  0
 15  6  1  0  0  0  0
 16 15  2  0  0  0  0
 17 21  2  0  0  0  0
 18 19  2  0  0  0  0
 18 17  1  0  0  0  0
 19 20  1  0  0  0  0
 20 21  1  0  0  0  0
 20 22  1  0  0  0  0
 22 23  1  0  0  0  0
 23 24  2  0  0  0  0
 25 24  1  0  0  0  0
 26 25  2  0  0  0  0
 27 26  1  0  0  0  0
 28 27  2  0  0  0  0
 29 28  1  0  0  0  0
 29 30  2  0  0  0  0
 30 31  1  0  0  0  0
 31 26  1  0  0  0  0
 31 22  2  0  0  0  0
M  END
>  <minimizedAffinity>
-6.9640851

$$$$

 OpenBabel03272514413D

 31 36  0  0  1  0  0  0  0  0999 V2000
   29.7410   28.2510   47.6690 N   0  0  0  0  0  0  0  0  0  0  0  0
   28.4680   28.4040   48.4190 C   0  0  0  0  0  2  0  0  0  0  0  0
   28.7570   28.1170   49.8410 C   0  0  0  0  0  2  0  0  0  0  0  0
   30.2710   27.9850   49.8370 C   0  0  0  0  0  2  0  0  0  0  0  0
   30.5020   27.3230   48.5100 C   0  0  2  0  0  3  0  0  0  0  0  0
   30.4980   30.2980   44.8690 C   0  0  0  0  0  0  0  0  0  0  0  0
   29.9430   29.1760   44.2420 C   0  0  0  0  0  3  0  0  0  0  0  0
   29.5910   28.2670   45.2500 C   0  0  0  0  0  3  0  0  0  0  0  0
   29.9720   28.9290   46.4340 C   0  0  0  0  0  0  0  0  0  0  0  0
   30.4780   30.0700   46.1620 O   0  0  0  0  0  0  0  0  0  0  0  0
   32.3260   32.0620   42.2600 C   0  0  0  0  0  3  0  0  0  0  0  0
   31.8680   33.3700   42.3620 C   0  0  0  0  0  3  0  0  0  0  0  0
   30.9040   33.6560   43.3520 C   0  0  0  0  0  3  0  0  0  0  0  0
   30.4600   32.6540   44.1660 N   0  0  0  0  0  0  0  0  0  0  0  0
   30.9440   31.3880   44.0220 C   0  0  0  0  0  0  0  0  0  0  0  0
   31.8610   31.1120   43.0830 N   0  0  0  0  0  0  0  0  0  0  0  0
   31.9120   27.4530   48.1350 C   0  0  0  0  0  0  0  0  0  0  0  0
   32.7130   26.5330   47.5540 C   0  0  0  0  0  3  0  0  0  0  0  0
   33.9810   27.1170   47.4150 C   0  0  0  0  0  3  0  0  0  0  0  0
   33.8740   28.3820   47.9310 N   0  0  0  0  0  0  0  0  0  0  0  0
   32.6260   28.5830   48.3630 N   0  0  0  0  0  0  0  0  0  0  0  0
   35.0090   29.2470   47.9380 C   0  0  0  0  0  0  0  0  0  0  0  0
   35.3040   29.7520   46.6690 C   0  0  0  0  0  3  0  0  0  0  0  0
   36.3770   30.6040   46.5130 C   0  0  0  0  0  3  0  0  0  0  0  0
   37.1680   30.9670   47.5990 C   0  0  0  0  0  3  0  0  0  0  0  0
   36.8460   30.4460   48.8380 C   0  0  0  0  0  0  0  0  0  0  0  0
   37.5890   30.7660   49.9540 C   0  0  0  0  0  3  0  0  0  0  0  0
   37.2410   30.2290   51.1880 C   0  0  0  0  0  3  0  0  0  0  0  0
   36.1570   29.3670   51.3420 C   0  0  0  0  0  3  0  0  0  0  0  0
   35.3950   29.0340   50.2210 C   0  0  0  0  0  3  0  0  0  0  0  0
   35.7810   29.5930   49.0270 C   0  0  0  0  0  0  0  0  0  0  0  0
  1  2  1  0  0  0  0
  1  5  1  0  0  0  0
  2  3  1  0  0  0  0
  4  3  1  0  0  0  0
  5 17  1  6  0  0  0
  5  4  1  0  0  0  0
  6 10  1  0  0  0  0
  7  6  2  0  0  0  0
  7  8  1  0  0  0  0
  8  9  2  0  0  0  0
  9  1  1  0  0  0  0
 10  9  1  0  0  0  0
 11 12  2  0  0  0  0
 11 16  1  0  0  0  0
 12 13  1  0  0  0  0
 13 14  2  0  0  0  0
 15 14  1  0  0  0  0
 15  6  1  0  0  0  0
 16 15  2  0  0  0  0
 17 21  2  0  0  0  0
 18 17  1  0  0  0  0
 19 18  2  0  0  0  0
 19 20  1  0  0  0  0
 20 22  1  0  0  0  0
 20 21  1  0  0  0  0
 22 31  1  0  0  0  0
 23 22  2  0  0  0  0
 24 23  1  0  0  0  0
 24 25  2  0  0  0  0
 25 26  1  0  0  0  0
 26 31  2  0  0  0  0
 26 27  1  0  0  0  0
 27 28  2  0  0  0  0
 28 29  1  0  0  0  0
 30 29  2  0  0  0  0
 31 30  1  0  0  0  0
M  END
>  <minimizedAffinity>
-6.93088055

$$$$

 OpenBabel03272514413D

 31 36  0  0  1  0  0  0  0  0999 V2000
   32.4380   26.8750   46.0250 N   0  0  0  0  0  0  0  0  0  0  0  0
   31.5610   25.8290   45.4390 C   0  0  0  0  0  2  0  0  0  0  0  0
   31.0730   24.9870   46.5540 C   0  0  0  0  0  2  0  0  0  0  0  0
   31.5830   25.7440   47.7690 C   0  0  0  0  0  2  0  0  0  0  0  0
   32.9040   26.2490   47.2650 C   0  0  2  0  0  3  0  0  0  0  0  0
   32.5210   30.1020   44.5490 C   0  0  0  0  0  0  0  0  0  0  0  0
   33.7930   29.6200   44.2160 C   0  0  0  0  0  3  0  0  0  0  0  0
   33.9000   28.3260   44.7480 C   0  0  0  0  0  3  0  0  0  0  0  0
   32.6530   28.1260   45.3730 C   0  0  0  0  0  0  0  0  0  0  0  0
   31.9140   29.1590   45.2310 O   0  0  0  0  0  0  0  0  0  0  0  0
   31.3840   33.5580   44.6950 C   0  0  0  0  0  3  0  0  0  0  0  0
   31.4770   33.9930   43.3780 C   0  0  0  0  0  3  0  0  0  0  0  0
   31.9450   33.0760   42.4130 C   0  0  0  0  0  3  0  0  0  0  0  0
   32.2840   31.8110   42.7960 N   0  0  0  0  0  0  0  0  0  0  0  0
   32.1730   31.4380   44.1030 C   0  0  0  0  0  0  0  0  0  0  0  0
   31.7280   32.3050   45.0240 N   0  0  0  0  0  0  0  0  0  0  0  0
   33.3860   27.3210   48.1390 C   0  0  0  0  0  0  0  0  0  0  0  0
   32.6790   28.0770   49.0060 C   0  0  0  0  0  3  0  0  0  0  0  0
   33.5750   28.9820   49.5930 C   0  0  0  0  0  3  0  0  0  0  0  0
   34.7990   28.7170   49.0370 N   0  0  0  0  0  0  0  0  0  0  0  0
   34.6840   27.7150   48.1620 N   0  0  0  0  0  0  0  0  0  0  0  0
   35.9400   29.4770   49.4310 C   0  0  0  0  0  0  0  0  0  0  0  0
   36.2220   29.3540   50.7930 C   0  0  0  0  0  3  0  0  0  0  0  0
   37.2980   30.0320   51.3270 C   0  0  0  0  0  3  0  0  0  0  0  0
   38.1050   30.8370   50.5280 C   0  0  0  0  0  3  0  0  0  0  0  0
   37.7950   30.9350   49.1850 C   0  0  0  0  0  0  0  0  0  0  0  0
   38.5550   31.7150   48.3400 C   0  0  0  0  0  3  0  0  0  0  0  0
   38.2200   31.7960   46.9930 C   0  0  0  0  0  3  0  0  0  0  0  0
   37.1320   31.1100   46.4580 C   0  0  0  0  0  3  0  0  0  0  0  0
   36.3530   30.3160   47.3010 C   0  0  0  0  0  3  0  0  0  0  0  0
   36.7280   30.2710   48.6220 C   0  0  0  0  0  0  0  0  0  0  0  0
  1  5  1  0  0  0  0
  2  1  1  0  0  0  0
  2  3  1  0  0  0  0
  3  4  1  0  0  0  0
  5  4  1  0  0  0  0
  5 17  1  1  0  0  0
  6 10  1  0  0  0  0
  7  6  2  0  0  0  0
  7  8  1  0  0  0  0
  8  9  2  0  0  0  0
  9  1  1  0  0  0  0
 10  9  1  0  0  0  0
 11 16  1  0  0  0  0
 12 11  2  0  0  0  0
 13 14  2  0  0  0  0
 13 12  1  0  0  0  0
 14 15  1  0  0  0  0
 15  6  1  0  0  0  0
 15 16  2  0  0  0  0
 17 21  2  0  0  0  0
 17 18  1  0  0  0  0
 18 19  2  0  0  0  0
 20 22  1  0  0  0  0
 20 19  1  0  0  0  0
 21 20  1  0  0  0  0
 22 23  1  0  0  0  0
 23 24  2  0  0  0  0
 25 24  1  0  0  0  0
 26 25  2  0  0  0  0
 27 26  1  0  0  0  0
 28 27  2  0  0  0  0
 29 28  1  0  0  0  0
 29 30  2  0  0  0  0
 30 31  1  0  0  0  0
 31 26  1  0  0  0  0
 31 22  2  0  0  0  0
M  END
>  <minimizedAffinity>
-6.81714821

$$$$

 OpenBabel03272514413D

 31 36  0  0  1  0  0  0  0  0999 V2000
   32.8590   27.7170   45.3090 N   0  0  0  0  0  0  0  0  0  0  0  0
   33.0230   27.7940   43.8340 C   0  0  0  0  0  2  0  0  0  0  0  0
   31.7960   27.2360   43.2240 C   0  0  0  0  0  2  0  0  0  0  0  0
   30.9040   27.0310   44.4370 C   0  0  0  0  0  2  0  0  0  0  0  0
   31.9090   26.6130   45.4710 C   0  0  2  0  0  3  0  0  0  0  0  0
   34.8920   29.5320   47.5830 C   0  0  0  0  0  0  0  0  0  0  0  0
   33.9510   30.5050   47.2260 C   0  0  0  0  0  3  0  0  0  0  0  0
   33.0660   29.9130   46.3120 C   0  0  0  0  0  3  0  0  0  0  0  0
   33.5570   28.5980   46.1890 C   0  0  0  0  0  0  0  0  0  0  0  0
   34.5870   28.4370   46.9260 O   0  0  0  0  0  0  0  0  0  0  0  0
   37.1890   29.3050   50.4000 C   0  0  0  0  0  3  0  0  0  0  0  0
   37.8590   30.5230   50.3790 C   0  0  0  0  0  3  0  0  0  0  0  0
   37.5150   31.4470   49.3700 C   0  0  0  0  0  3  0  0  0  0  0  0
   36.5500   31.1220   48.4610 N   0  0  0  0  0  0  0  0  0  0  0  0
   35.9240   29.9130   48.5290 C   0  0  0  0  0  0  0  0  0  0  0  0
   36.2470   29.0310   49.4860 N   0  0  0  0  0  0  0  0  0  0  0  0
   31.3220   26.7380   46.8060 C   0  0  0  0  0  0  0  0  0  0  0  0
   31.8480   26.3590   47.9920 C   0  0  0  0  0  3  0  0  0  0  0  0
   30.9010   26.6650   48.9810 C   0  0  0  0  0  3  0  0  0  0  0  0
   29.8340   27.2220   48.3260 N   0  0  0  0  0  0  0  0  0  0  0  0
   30.0910   27.2660   47.0150 N   0  0  0  0  0  0  0  0  0  0  0  0
   28.6890   27.6470   49.0610 C   0  0  0  0  0  0  0  0  0  0  0  0
   28.4930   26.9010   50.2260 C   0  0  0  0  0  3  0  0  0  0  0  0
   27.4230   27.1930   51.0450 C   0  0  0  0  0  3  0  0  0  0  0  0
   26.5370   28.2180   50.7280 C   0  0  0  0  0  3  0  0  0  0  0  0
   26.7630   28.9340   49.5680 C   0  0  0  0  0  0  0  0  0  0  0  0
   25.9220   29.9620   49.1970 C   0  0  0  0  0  3  0  0  0  0  0  0
   26.1740   30.6660   48.0260 C   0  0  0  0  0  3  0  0  0  0  0  0
   27.2550   30.3680   47.2000 C   0  0  0  0  0  3  0  0  0  0  0  0
   28.1150   29.3300   47.5610 C   0  0  0  0  0  3  0  0  0  0  0  0
   27.8220   28.6680   48.7290 C   0  0  0  0  0  0  0  0  0  0  0  0
  1  5  1  0  0  0  0
  1  9  1  0  0  0  0
  2  1  1  0  0  0  0
  3  2  1  0  0  0  0
  3  4  1  0  0  0  0
  4  5  1  0  0  0  0
  5 17  1  1  0  0  0
  6 15  1  0  0  0  0
  7  6  2  0  0  0  0
  8  7  1  0  0  0  0
  9  8  2  0  0  0  0
  9 10  1  0  0  0  0
 10  6  1  0  0  0  0
 12 11  1  0  0  0  0
 13 12  2  0  0  0  0
 14 15  2  0  0  0  0
 14 13  1  0  0  0  0
 15 16  1  0  0  0  0
 16 11  2  0  0  0  0
 17 21  2  0  0  0  0
 17 18  1  0  0  0  0
 18 19  2  0  0  0  0
 20 19  1  0  0  0  0
 20 22  1  0  0  0  0
 21 20  1  0  0  0  0
 22 23  1  0  0  0  0
 23 24  2  0  0  0  0
 25 24  1  0  0  0  0
 26 25  2  0  0  0  0
 27 26  1  0  0  0  0
 28 27  2  0  0  0  0
 29 30  2  0  0  0  0
 29 28  1  0  0  0  0
 30 31  1  0  0  0  0
 31 22  2  0  0  0  0
 31 26  1  0  0  0  0
M  END
>  <minimizedAffinity>
-6.78549767

$$$$
