
 OpenBabel03272514333D

 30 34  0  0  0  0  0  0  0  0999 V2000
   35.5090   29.7860   44.3510 C   0  0  0  0  0  3  0  0  0  0  0  0
   34.1460   29.5820   44.3890 C   0  0  0  0  0  3  0  0  0  0  0  0
   33.5540   29.7760   45.6340 C   0  0  0  0  0  0  0  0  0  0  0  0
   34.3330   30.1290   46.6340 N   0  0  0  0  0  0  0  0  0  0  0  0
   35.6370   30.3320   46.6230 C   0  0  0  0  0  0  0  0  0  0  0  0
   36.1760   30.1430   45.4410 N   0  0  0  0  0  0  0  0  0  0  0  0
   32.1660   29.6040   45.8350 N   0  0  0  0  0  0  0  0  0  0  0  0
   31.1750   30.2040   45.1550 C   0  0  0  0  0  3  0  0  0  0  0  0
   29.9910   29.8150   45.6010 N   0  0  0  0  0  0  0  0  0  0  0  0
   30.2160   28.9420   46.5950 C   0  0  0  0  0  0  0  0  0  0  0  0
   31.5570   28.8330   46.7120 N   0  0  0  0  0  0  0  0  0  0  0  0
   36.5810   30.7150   47.6400 C   0  0  0  0  0  0  0  0  0  0  0  0
   37.6630   31.5450   47.3640 C   0  0  0  0  0  3  0  0  0  0  0  0
   38.5870   31.9360   48.2980 C   0  0  0  0  0  3  0  0  0  0  0  0
   38.4810   31.5060   49.6020 C   0  0  0  0  0  3  0  0  0  0  0  0
   37.4480   30.6980   49.9240 C   0  0  0  0  0  0  0  0  0  0  0  0
   37.3350   30.2630   51.2310 C   0  0  0  0  0  3  0  0  0  0  0  0
   36.3300   29.4460   51.6480 C   0  0  0  0  0  3  0  0  0  0  0  0
   35.3920   29.0530   50.6880 C   0  0  0  0  0  3  0  0  0  0  0  0
   35.5340   29.5030   49.4020 C   0  0  0  0  0  3  0  0  0  0  0  0
   36.5260   30.3120   48.9740 C   0  0  0  0  0  0  0  0  0  0  0  0
   29.3640   28.1680   47.4790 C   0  0  0  0  0  0  0  0  0  0  0  0
   29.0020   26.8700   47.5570 N   0  0  0  0  0  0  0  0  0  0  0  0
   28.1960   26.6920   48.5640 O   0  0  0  0  0  0  0  0  0  0  0  0
   28.0140   27.8550   49.1560 C   0  0  0  0  0  0  0  0  0  0  0  0
   28.7330   28.7980   48.5000 N   0  0  0  0  0  0  0  0  0  0  0  0
   27.1640   28.1500   50.3640 C   0  0  0  0  0  0  0  0  0  0  0  0
   27.1820   27.1100   51.2420 F   0  0  0  0  0  0  0  0  0  0  0  0
   27.6350   29.2970   50.9580 F   0  0  0  0  0  0  0  0  0  0  0  0
   25.8460   28.3880   49.9860 F   0  0  0  0  0  0  0  0  0  0  0  0
  1  2  2  0  0  0  0
  1  6  1  0  0  0  0
  2  3  1  0  0  0  0
  3  7  1  0  0  0  0
  3  4  2  0  0  0  0
  5  4  1  0  0  0  0
  5 12  1  0  0  0  0
  6  5  2  0  0  0  0
  7 11  1  0  0  0  0
  8  9  2  0  0  0  0
  8  7  1  0  0  0  0
  9 10  1  0  0  0  0
 10 11  2  0  0  0  0
 10 22  1  0  0  0  0
 12 21  1  0  0  0  0
 13 12  2  0  0  0  0
 13 14  1  0  0  0  0
 14 15  2  0  0  0  0
 15 16  1  0  0  0  0
 16 17  1  0  0  0  0
 17 18  2  0  0  0  0
 19 18  1  0  0  0  0
 20 19  2  0  0  0  0
 21 20  1  0  0  0  0
 21 16  2  0  0  0  0
 22 23  2  0  0  0  0
 22 26  1  0  0  0  0
 23 24  1  0  0  0  0
 24 25  1  0  0  0  0
 25 27  1  0  0  0  0
 26 25  2  0  0  0  0
 27 29  1  0  0  0  0
 27 28  1  0  0  0  0
 30 27  1  0  0  0  0
M  END
>  <minimizedAffinity>
-8.4783392

$$$$

 OpenBabel03272514333D

 30 34  0  0  0  0  0  0  0  0999 V2000
   34.9620   29.5820   44.9350 C   0  0  0  0  0  3  0  0  0  0  0  0
   33.6320   29.7740   44.6260 C   0  0  0  0  0  3  0  0  0  0  0  0
   32.8000   30.0080   45.7170 C   0  0  0  0  0  0  0  0  0  0  0  0
   33.3480   30.0240   46.9130 N   0  0  0  0  0  0  0  0  0  0  0  0
   34.6160   29.8450   47.2340 C   0  0  0  0  0  0  0  0  0  0  0  0
   35.3840   29.6250   46.1930 N   0  0  0  0  0  0  0  0  0  0  0  0
   31.4120   30.2230   45.5640 N   0  0  0  0  0  0  0  0  0  0  0  0
   30.8220   31.1450   44.7850 C   0  0  0  0  0  3  0  0  0  0  0  0
   29.5040   31.0700   44.8780 N   0  0  0  0  0  0  0  0  0  0  0  0
   29.2280   30.0770   45.7370 C   0  0  0  0  0  0  0  0  0  0  0  0
   30.4180   29.5780   46.1390 N   0  0  0  0  0  0  0  0  0  0  0  0
   35.3210   29.8410   48.4890 C   0  0  0  0  0  0  0  0  0  0  0  0
   34.8910   29.0800   49.5720 C   0  0  0  0  0  3  0  0  0  0  0  0
   35.5300   29.0430   50.7850 C   0  0  0  0  0  3  0  0  0  0  0  0
   36.6680   29.7890   50.9920 C   0  0  0  0  0  3  0  0  0  0  0  0
   37.1290   30.5460   49.9740 C   0  0  0  0  0  0  0  0  0  0  0  0
   38.2710   31.2970   50.1750 C   0  0  0  0  0  3  0  0  0  0  0  0
   38.8090   32.0900   49.2090 C   0  0  0  0  0  3  0  0  0  0  0  0
   38.1510   32.1190   47.9750 C   0  0  0  0  0  3  0  0  0  0  0  0
   37.0220   31.3630   47.8090 C   0  0  0  0  0  3  0  0  0  0  0  0
   36.4770   30.5740   48.7590 C   0  0  0  0  0  0  0  0  0  0  0  0
   28.0050   29.4980   46.2620 C   0  0  0  0  0  0  0  0  0  0  0  0
   27.0740   28.6460   45.7850 N   0  0  0  0  0  0  0  0  0  0  0  0
   26.1530   28.4450   46.6830 O   0  0  0  0  0  0  0  0  0  0  0  0
   26.4570   29.1530   47.7510 C   0  0  0  0  0  0  0  0  0  0  0  0
   27.6120   29.8230   47.5180 N   0  0  0  0  0  0  0  0  0  0  0  0
   25.6910   29.2430   49.0440 C   0  0  0  0  0  0  0  0  0  0  0  0
   24.6860   28.3260   49.0840 F   0  0  0  0  0  0  0  0  0  0  0  0
   26.5680   29.0500   50.0850 F   0  0  0  0  0  0  0  0  0  0  0  0
   25.1390   30.5120   49.1960 F   0  0  0  0  0  0  0  0  0  0  0  0
  1  6  1  0  0  0  0
  2  1  2  0  0  0  0
  2  3  1  0  0  0  0
  3  4  2  0  0  0  0
  4  5  1  0  0  0  0
  5 12  1  0  0  0  0
  6  5  2  0  0  0  0
  7  3  1  0  0  0  0
  7 11  1  0  0  0  0
  8  9  2  0  0  0  0
  8  7  1  0  0  0  0
  9 10  1  0  0  0  0
 10 11  2  0  0  0  0
 10 22  1  0  0  0  0
 12 21  2  0  0  0  0
 12 13  1  0  0  0  0
 13 14  2  0  0  0  0
 14 15  1  0  0  0  0
 16 17  1  0  0  0  0
 16 15  2  0  0  0  0
 18 17  2  0  0  0  0
 19 18  1  0  0  0  0
 20 19  2  0  0  0  0
 20 21  1  0  0  0  0
 21 16  1  0  0  0  0
 22 26  1  0  0  0  0
 23 22  2  0  0  0  0
 23 24  1  0  0  0  0
 24 25  1  0  0  0  0
 25 27  1  0  0  0  0
 26 25  2  0  0  0  0
 27 28  1  0  0  0  0
 27 30  1  0  0  0  0
 27 29  1  0  0  0  0
M  END
>  <minimizedAffinity>
-8.44726372

$$$$

 OpenBabel03272514333D

 30 34  0  0  0  0  0  0  0  0999 V2000
   28.9010   30.0970   44.9150 C   0  0  0  0  0  3  0  0  0  0  0  0
   30.2610   29.8700   44.9550 C   0  0  0  0  0  3  0  0  0  0  0  0
   30.7380   29.3490   46.1540 C   0  0  0  0  0  0  0  0  0  0  0  0
   29.8670   29.1260   47.1150 N   0  0  0  0  0  0  0  0  0  0  0  0
   28.5630   29.3330   47.1000 C   0  0  0  0  0  0  0  0  0  0  0  0
   28.1330   29.8250   45.9630 N   0  0  0  0  0  0  0  0  0  0  0  0
   32.1070   29.0630   46.3510 N   0  0  0  0  0  0  0  0  0  0  0  0
   32.8840   28.2810   45.5830 C   0  0  0  0  0  3  0  0  0  0  0  0
   34.1200   28.2310   46.0530 N   0  0  0  0  0  0  0  0  0  0  0  0
   34.1490   28.9980   47.1550 C   0  0  0  0  0  0  0  0  0  0  0  0
   32.9020   29.4940   47.3090 N   0  0  0  0  0  0  0  0  0  0  0  0
   27.5250   29.1300   48.0770 C   0  0  0  0  0  0  0  0  0  0  0  0
   26.2440   29.6490   47.9080 C   0  0  0  0  0  3  0  0  0  0  0  0
   25.2250   29.4820   48.8090 C   0  0  0  0  0  3  0  0  0  0  0  0
   25.4320   28.7660   49.9660 C   0  0  0  0  0  3  0  0  0  0  0  0
   26.6560   28.2400   50.1800 C   0  0  0  0  0  0  0  0  0  0  0  0
   26.8710   27.5200   51.3400 C   0  0  0  0  0  3  0  0  0  0  0  0
   28.0710   26.9530   51.6410 C   0  0  0  0  0  3  0  0  0  0  0  0
   29.1050   27.1290   50.7150 C   0  0  0  0  0  3  0  0  0  0  0  0
   28.8580   27.8470   49.5770 C   0  0  0  0  0  3  0  0  0  0  0  0
   27.6740   28.4160   49.2660 C   0  0  0  0  0  0  0  0  0  0  0  0
   35.1760   29.3570   48.1150 C   0  0  0  0  0  0  0  0  0  0  0  0
   35.7790   28.7280   49.1450 N   0  0  0  0  0  0  0  0  0  0  0  0
   36.6550   29.5160   49.6980 O   0  0  0  0  0  0  0  0  0  0  0  0
   36.6440   30.6630   49.0500 C   0  0  0  0  0  0  0  0  0  0  0  0
   35.7280   30.5940   48.0530 N   0  0  0  0  0  0  0  0  0  0  0  0
   37.4830   31.8830   49.3220 C   0  0  0  0  0  0  0  0  0  0  0  0
   36.7870   32.8070   50.0390 F   0  0  0  0  0  0  0  0  0  0  0  0
   38.6140   31.4920   49.9990 F   0  0  0  0  0  0  0  0  0  0  0  0
   37.8950   32.4680   48.1280 F   0  0  0  0  0  0  0  0  0  0  0  0
  1  2  2  0  0  0  0
  1  6  1  0  0  0  0
  2  3  1  0  0  0  0
  3  7  1  0  0  0  0
  3  4  2  0  0  0  0
  5  4  1  0  0  0  0
  5 12  1  0  0  0  0
  6  5  2  0  0  0  0
  7 11  1  0  0  0  0
  8  9  2  0  0  0  0
  8  7  1  0  0  0  0
  9 10  1  0  0  0  0
 10 11  2  0  0  0  0
 10 22  1  0  0  0  0
 12 21  1  0  0  0  0
 13 12  2  0  0  0  0
 13 14  1  0  0  0  0
 14 15  2  0  0  0  0
 15 16  1  0  0  0  0
 16 17  1  0  0  0  0
 17 18  2  0  0  0  0
 19 18  1  0  0  0  0
 20 19  2  0  0  0  0
 21 20  1  0  0  0  0
 21 16  2  0  0  0  0
 22 23  2  0  0  0  0
 23 24  1  0  0  0  0
 25 27  1  0  0  0  0
 25 24  1  0  0  0  0
 26 22  1  0  0  0  0
 26 25  2  0  0  0  0
 27 29  1  0  0  0  0
 27 28  1  0  0  0  0
 30 27  1  0  0  0  0
M  END
>  <minimizedAffinity>
-8.22149372

$$$$

 OpenBabel03272514333D

 30 34  0  0  0  0  0  0  0  0999 V2000
   28.9010   30.1170   44.5820 C   0  0  0  0  0  3  0  0  0  0  0  0
   30.2720   29.9670   44.5790 C   0  0  0  0  0  3  0  0  0  0  0  0
   30.8190   29.5190   45.7790 C   0  0  0  0  0  0  0  0  0  0  0  0
   29.9950   29.2850   46.7780 N   0  0  0  0  0  0  0  0  0  0  0  0
   28.6820   29.4180   46.8040 C   0  0  0  0  0  0  0  0  0  0  0  0
   28.1860   29.8430   45.6660 N   0  0  0  0  0  0  0  0  0  0  0  0
   32.2080   29.3170   45.9350 N   0  0  0  0  0  0  0  0  0  0  0  0
   33.0010   28.5510   45.1670 C   0  0  0  0  0  3  0  0  0  0  0  0
   34.2530   28.5880   45.5940 N   0  0  0  0  0  0  0  0  0  0  0  0
   34.2770   29.3960   46.6650 C   0  0  0  0  0  0  0  0  0  0  0  0
   33.0090   29.8270   46.8470 N   0  0  0  0  0  0  0  0  0  0  0  0
   27.6910   29.1950   47.8240 C   0  0  0  0  0  0  0  0  0  0  0  0
   26.3990   29.7010   47.7180 C   0  0  0  0  0  3  0  0  0  0  0  0
   25.4230   29.5140   48.6620 C   0  0  0  0  0  3  0  0  0  0  0  0
   25.6900   28.7910   49.8030 C   0  0  0  0  0  3  0  0  0  0  0  0
   26.9290   28.2770   49.9560 C   0  0  0  0  0  0  0  0  0  0  0  0
   27.2040   27.5490   51.0980 C   0  0  0  0  0  3  0  0  0  0  0  0
   28.4230   26.9940   51.3400 C   0  0  0  0  0  3  0  0  0  0  0  0
   29.4120   27.1900   50.3700 C   0  0  0  0  0  3  0  0  0  0  0  0
   29.1060   27.9150   49.2510 C   0  0  0  0  0  3  0  0  0  0  0  0
   27.9020   28.4720   48.9980 C   0  0  0  0  0  0  0  0  0  0  0  0
   35.3150   29.8480   47.5740 C   0  0  0  0  0  0  0  0  0  0  0  0
   36.3250   30.7380   47.4980 N   0  0  0  0  0  0  0  0  0  0  0  0
   36.9810   30.7650   48.6220 O   0  0  0  0  0  0  0  0  0  0  0  0
   36.4210   29.9040   49.4460 C   0  0  0  0  0  0  0  0  0  0  0  0
   35.3740   29.3140   48.8190 N   0  0  0  0  0  0  0  0  0  0  0  0
   36.8270   29.5850   50.8610 C   0  0  0  0  0  0  0  0  0  0  0  0
   35.7460   29.2500   51.6170 F   0  0  0  0  0  0  0  0  0  0  0  0
   37.7380   28.5560   50.8310 F   0  0  0  0  0  0  0  0  0  0  0  0
   37.4550   30.6800   51.4470 F   0  0  0  0  0  0  0  0  0  0  0  0
  1  6  1  0  0  0  0
  2  1  2  0  0  0  0
  2  3  1  0  0  0  0
  3  7  1  0  0  0  0
  3  4  2  0  0  0  0
  4  5  1  0  0  0  0
  5 12  1  0  0  0  0
  6  5  2  0  0  0  0
  7 11  1  0  0  0  0
  8  9  2  0  0  0  0
  8  7  1  0  0  0  0
  9 10  1  0  0  0  0
 10 11  2  0  0  0  0
 10 22  1  0  0  0  0
 12 21  1  0  0  0  0
 13 12  2  0  0  0  0
 13 14  1  0  0  0  0
 14 15  2  0  0  0  0
 15 16  1  0  0  0  0
 16 17  1  0  0  0  0
 17 18  2  0  0  0  0
 19 18  1  0  0  0  0
 20 19  2  0  0  0  0
 21 20  1  0  0  0  0
 21 16  2  0  0  0  0
 22 26  1  0  0  0  0
 23 22  2  0  0  0  0
 23 24  1  0  0  0  0
 24 25  1  0  0  0  0
 25 27  1  0  0  0  0
 26 25  2  0  0  0  0
 27 30  1  0  0  0  0
 27 28  1  0  0  0  0
 29 27  1  0  0  0  0
M  END
>  <minimizedAffinity>
-8.18184662

$$$$

 OpenBabel03272514333D

 30 34  0  0  0  0  0  0  0  0999 V2000
   29.3630   30.7040   44.4420 C   0  0  0  0  0  3  0  0  0  0  0  0
   30.7420   30.7020   44.4780 C   0  0  0  0  0  3  0  0  0  0  0  0
   31.3040   29.9810   45.5280 C   0  0  0  0  0  0  0  0  0  0  0  0
   30.4850   29.3820   46.3670 N   0  0  0  0  0  0  0  0  0  0  0  0
   29.1660   29.3670   46.3510 C   0  0  0  0  0  0  0  0  0  0  0  0
   28.6550   30.0540   45.3560 N   0  0  0  0  0  0  0  0  0  0  0  0
   32.7020   29.8850   45.7030 N   0  0  0  0  0  0  0  0  0  0  0  0
   33.5990   29.4620   44.7950 C   0  0  0  0  0  3  0  0  0  0  0  0
   34.8260   29.4990   45.2880 N   0  0  0  0  0  0  0  0  0  0  0  0
   34.7280   29.9570   46.5460 C   0  0  0  0  0  0  0  0  0  0  0  0
   33.4140   30.1850   46.7680 N   0  0  0  0  0  0  0  0  0  0  0  0
   28.1790   28.7560   47.2040 C   0  0  0  0  0  0  0  0  0  0  0  0
   28.2030   27.3960   47.4970 C   0  0  0  0  0  3  0  0  0  0  0  0
   27.2870   26.7700   48.3030 C   0  0  0  0  0  3  0  0  0  0  0  0
   26.2620   27.4880   48.8770 C   0  0  0  0  0  3  0  0  0  0  0  0
   26.1930   28.8120   48.6250 C   0  0  0  0  0  0  0  0  0  0  0  0
   25.1670   29.5390   49.1980 C   0  0  0  0  0  3  0  0  0  0  0  0
   25.0160   30.8780   49.0010 C   0  0  0  0  0  3  0  0  0  0  0  0
   25.9560   31.5070   48.1790 C   0  0  0  0  0  3  0  0  0  0  0  0
   26.9600   30.7570   47.6270 C   0  0  0  0  0  3  0  0  0  0  0  0
   27.1210   29.4300   47.8120 C   0  0  0  0  0  0  0  0  0  0  0  0
   35.6810   30.2270   47.6070 C   0  0  0  0  0  0  0  0  0  0  0  0
   36.7700   31.0130   47.7310 N   0  0  0  0  0  0  0  0  0  0  0  0
   37.2810   30.8840   48.9210 O   0  0  0  0  0  0  0  0  0  0  0  0
   36.5470   30.0190   49.5920 C   0  0  0  0  0  0  0  0  0  0  0  0
   35.5380   29.5900   48.7960 N   0  0  0  0  0  0  0  0  0  0  0  0
   36.7440   29.5470   51.0080 C   0  0  0  0  0  0  0  0  0  0  0  0
   35.5740   29.1070   51.5450 F   0  0  0  0  0  0  0  0  0  0  0  0
   37.6860   28.5460   51.0070 F   0  0  0  0  0  0  0  0  0  0  0  0
   37.2350   30.5790   51.8020 F   0  0  0  0  0  0  0  0  0  0  0  0
  1  2  2  0  0  0  0
  1  6  1  0  0  0  0
  2  3  1  0  0  0  0
  3  7  1  0  0  0  0
  3  4  2  0  0  0  0
  5  4  1  0  0  0  0
  5 12  1  0  0  0  0
  6  5  2  0  0  0  0
  7 11  1  0  0  0  0
  8  9  2  0  0  0  0
  8  7  1  0  0  0  0
  9 10  1  0  0  0  0
 10 11  2  0  0  0  0
 10 22  1  0  0  0  0
 12 13  2  0  0  0  0
 12 21  1  0  0  0  0
 13 14  1  0  0  0  0
 14 15  2  0  0  0  0
 16 15  1  0  0  0  0
 16 17  1  0  0  0  0
 18 17  2  0  0  0  0
 19 18  1  0  0  0  0
 20 21  1  0  0  0  0
 20 19  2  0  0  0  0
 21 16  2  0  0  0  0
 22 23  2  0  0  0  0
 22 26  1  0  0  0  0
 23 24  1  0  0  0  0
 24 25  1  0  0  0  0
 25 27  1  0  0  0  0
 26 25  2  0  0  0  0
 27 28  1  0  0  0  0
 27 30  1  0  0  0  0
 29 27  1  0  0  0  0
M  END
>  <minimizedAffinity>
-7.93785667

$$$$

 OpenBabel03272514333D

 30 34  0  0  0  0  0  0  0  0999 V2000
   28.6180   26.8250   45.4290 C   0  0  0  0  0  3  0  0  0  0  0  0
   29.9630   26.7320   45.7180 C   0  0  0  0  0  3  0  0  0  0  0  0
   30.3590   27.3690   46.8910 C   0  0  0  0  0  0  0  0  0  0  0  0
   29.4350   27.9840   47.5970 N   0  0  0  0  0  0  0  0  0  0  0  0
   28.1440   28.0850   47.3420 C   0  0  0  0  0  0  0  0  0  0  0  0
   27.7900   27.4810   46.2320 N   0  0  0  0  0  0  0  0  0  0  0  0
   31.7040   27.3640   47.3240 N   0  0  0  0  0  0  0  0  0  0  0  0
   32.4810   26.2860   47.5240 C   0  0  0  0  0  3  0  0  0  0  0  0
   33.6900   26.6420   47.9280 N   0  0  0  0  0  0  0  0  0  0  0  0
   33.7010   27.9820   47.9940 C   0  0  0  0  0  0  0  0  0  0  0  0
   32.4710   28.3940   47.6170 N   0  0  0  0  0  0  0  0  0  0  0  0
   27.0530   28.7240   48.0310 C   0  0  0  0  0  0  0  0  0  0  0  0
   26.3470   28.0830   49.0450 C   0  0  0  0  0  3  0  0  0  0  0  0
   25.3030   28.6500   49.7280 C   0  0  0  0  0  3  0  0  0  0  0  0
   24.8900   29.9280   49.4280 C   0  0  0  0  0  3  0  0  0  0  0  0
   25.5410   30.5960   48.4520 C   0  0  0  0  0  0  0  0  0  0  0  0
   25.1310   31.8800   48.1460 C   0  0  0  0  0  3  0  0  0  0  0  0
   25.7260   32.6290   47.1780 C   0  0  0  0  0  3  0  0  0  0  0  0
   26.7910   32.0420   46.4870 C   0  0  0  0  0  3  0  0  0  0  0  0
   27.1710   30.7690   46.8160 C   0  0  0  0  0  3  0  0  0  0  0  0
   26.5890   30.0140   47.7720 C   0  0  0  0  0  0  0  0  0  0  0  0
   34.6970   28.9730   48.3600 C   0  0  0  0  0  0  0  0  0  0  0  0
   35.0450   30.1900   47.8940 N   0  0  0  0  0  0  0  0  0  0  0  0
   36.0300   30.6710   48.5960 O   0  0  0  0  0  0  0  0  0  0  0  0
   36.3440   29.7900   49.5220 C   0  0  0  0  0  0  0  0  0  0  0  0
   35.5270   28.7150   49.4010 N   0  0  0  0  0  0  0  0  0  0  0  0
   37.4200   29.8990   50.5710 C   0  0  0  0  0  0  0  0  0  0  0  0
   36.9190   30.3900   51.7380 F   0  0  0  0  0  0  0  0  0  0  0  0
   37.9700   28.6550   50.7630 F   0  0  0  0  0  0  0  0  0  0  0  0
   38.4390   30.7430   50.1380 F   0  0  0  0  0  0  0  0  0  0  0  0
  1  2  2  0  0  0  0
  1  6  1  0  0  0  0
  2  3  1  0  0  0  0
  3  7  1  0  0  0  0
  3  4  2  0  0  0  0
  5  4  1  0  0  0  0
  5 12  1  0  0  0  0
  6  5  2  0  0  0  0
  7  8  1  0  0  0  0
  7 11  1  0  0  0  0
  8  9  2  0  0  0  0
  9 10  1  0  0  0  0
 10 22  1  0  0  0  0
 11 10  2  0  0  0  0
 12 13  1  0  0  0  0
 13 14  2  0  0  0  0
 15 14  1  0  0  0  0
 16 15  2  0  0  0  0
 17 16  1  0  0  0  0
 18 17  2  0  0  0  0
 19 20  2  0  0  0  0
 19 18  1  0  0  0  0
 20 21  1  0  0  0  0
 21 12  2  0  0  0  0
 21 16  1  0  0  0  0
 22 26  1  0  0  0  0
 23 22  2  0  0  0  0
 23 24  1  0  0  0  0
 24 25  1  0  0  0  0
 25 27  1  0  0  0  0
 26 25  2  0  0  0  0
 27 29  1  0  0  0  0
 27 28  1  0  0  0  0
 30 27  1  0  0  0  0
M  END
>  <minimizedAffinity>
-7.87254763

$$$$

 OpenBabel03272514333D

 30 34  0  0  0  0  0  0  0  0999 V2000
   34.4080   29.1230   44.1860 C   0  0  0  0  0  3  0  0  0  0  0  0
   33.0330   29.1760   44.2770 C   0  0  0  0  0  3  0  0  0  0  0  0
   32.5380   29.5390   45.5260 C   0  0  0  0  0  0  0  0  0  0  0  0
   33.4090   29.7930   46.4800 N   0  0  0  0  0  0  0  0  0  0  0  0
   34.7260   29.7500   46.4170 C   0  0  0  0  0  0  0  0  0  0  0  0
   35.1740   29.4050   45.2320 N   0  0  0  0  0  0  0  0  0  0  0  0
   31.1520   29.6370   45.7790 N   0  0  0  0  0  0  0  0  0  0  0  0
   30.2600   30.3750   45.0960 C   0  0  0  0  0  3  0  0  0  0  0  0
   29.0440   30.2350   45.6000 N   0  0  0  0  0  0  0  0  0  0  0  0
   29.1460   29.3870   46.6350 C   0  0  0  0  0  0  0  0  0  0  0  0
   30.4490   29.0380   46.7180 N   0  0  0  0  0  0  0  0  0  0  0  0
   35.7650   30.0030   47.3810 C   0  0  0  0  0  0  0  0  0  0  0  0
   35.7170   29.4780   48.6690 C   0  0  0  0  0  3  0  0  0  0  0  0
   36.6820   29.6910   49.6200 C   0  0  0  0  0  3  0  0  0  0  0  0
   37.7830   30.4660   49.3300 C   0  0  0  0  0  3  0  0  0  0  0  0
   37.8790   31.0000   48.0940 C   0  0  0  0  0  0  0  0  0  0  0  0
   38.9810   31.7780   47.7960 C   0  0  0  0  0  3  0  0  0  0  0  0
   39.1640   32.3580   46.5790 C   0  0  0  0  0  3  0  0  0  0  0  0
   38.1750   32.1340   45.6150 C   0  0  0  0  0  3  0  0  0  0  0  0
   37.0960   31.3580   45.9430 C   0  0  0  0  0  3  0  0  0  0  0  0
   36.9010   30.7780   47.1470 C   0  0  0  0  0  0  0  0  0  0  0  0
   28.2040   28.8290   47.5880 C   0  0  0  0  0  0  0  0  0  0  0  0
   26.8710   28.6220   47.5990 N   0  0  0  0  0  0  0  0  0  0  0  0
   26.5130   28.0780   48.7260 O   0  0  0  0  0  0  0  0  0  0  0  0
   27.5910   27.9210   49.4670 C   0  0  0  0  0  0  0  0  0  0  0  0
   28.6650   28.3810   48.7820 N   0  0  0  0  0  0  0  0  0  0  0  0
   27.6790   27.3330   50.8510 C   0  0  0  0  0  0  0  0  0  0  0  0
   26.9450   28.0560   51.7390 F   0  0  0  0  0  0  0  0  0  0  0  0
   27.2390   26.0320   50.8010 F   0  0  0  0  0  0  0  0  0  0  0  0
   29.0010   27.3080   51.2860 F   0  0  0  0  0  0  0  0  0  0  0  0
  1  2  2  0  0  0  0
  1  6  1  0  0  0  0
  2  3  1  0  0  0  0
  3  7  1  0  0  0  0
  3  4  2  0  0  0  0
  5  4  1  0  0  0  0
  5 12  1  0  0  0  0
  6  5  2  0  0  0  0
  7 11  1  0  0  0  0
  8  9  2  0  0  0  0
  8  7  1  0  0  0  0
  9 10  1  0  0  0  0
 10 11  2  0  0  0  0
 10 22  1  0  0  0  0
 12 13  1  0  0  0  0
 13 14  2  0  0  0  0
 15 14  1  0  0  0  0
 16 15  2  0  0  0  0
 17 16  1  0  0  0  0
 18 17  2  0  0  0  0
 19 20  2  0  0  0  0
 19 18  1  0  0  0  0
 20 21  1  0  0  0  0
 21 12  2  0  0  0  0
 21 16  1  0  0  0  0
 22 23  2  0  0  0  0
 22 26  1  0  0  0  0
 23 24  1  0  0  0  0
 24 25  1  0  0  0  0
 25 27  1  0  0  0  0
 26 25  2  0  0  0  0
 27 30  1  0  0  0  0
 27 28  1  0  0  0  0
 29 27  1  0  0  0  0
M  END
>  <minimizedAffinity>
-7.87146282

$$$$

 OpenBabel03272514333D

 30 34  0  0  0  0  0  0  0  0999 V2000
   39.1640   30.0830   44.2400 C   0  0  0  0  0  3  0  0  0  0  0  0
   38.7070   30.8320   43.1760 C   0  0  0  0  0  3  0  0  0  0  0  0
   37.8910   31.9070   43.5190 C   0  0  0  0  0  0  0  0  0  0  0  0
   37.6390   32.1030   44.7950 N   0  0  0  0  0  0  0  0  0  0  0  0
   38.0660   31.4030   45.8290 C   0  0  0  0  0  0  0  0  0  0  0  0
   38.8320   30.3940   45.4870 N   0  0  0  0  0  0  0  0  0  0  0  0
   37.3420   32.7680   42.5420 N   0  0  0  0  0  0  0  0  0  0  0  0
   38.0170   33.4470   41.5990 C   0  0  0  0  0  3  0  0  0  0  0  0
   37.1930   34.1580   40.8470 N   0  0  0  0  0  0  0  0  0  0  0  0
   35.9530   33.9390   41.3110 C   0  0  0  0  0  0  0  0  0  0  0  0
   36.0790   33.0820   42.3480 N   0  0  0  0  0  0  0  0  0  0  0  0
   37.8590   31.5210   47.2490 C   0  0  0  0  0  0  0  0  0  0  0  0
   38.7230   32.2520   48.0600 C   0  0  0  0  0  3  0  0  0  0  0  0
   38.5670   32.3930   49.4150 C   0  0  0  0  0  3  0  0  0  0  0  0
   37.5080   31.7920   50.0580 C   0  0  0  0  0  3  0  0  0  0  0  0
   36.6400   31.0700   49.3180 C   0  0  0  0  0  0  0  0  0  0  0  0
   35.5740   30.4640   49.9570 C   0  0  0  0  0  3  0  0  0  0  0  0
   34.6490   29.7170   49.2950 C   0  0  0  0  0  3  0  0  0  0  0  0
   34.8170   29.5800   47.9130 C   0  0  0  0  0  3  0  0  0  0  0  0
   35.8830   30.1940   47.3120 C   0  0  0  0  0  3  0  0  0  0  0  0
   36.8080   30.9360   47.9560 C   0  0  0  0  0  0  0  0  0  0  0  0
   34.6310   34.4080   40.9370 C   0  0  0  0  0  0  0  0  0  0  0  0
   34.1060   35.0100   39.8500 N   0  0  0  0  0  0  0  0  0  0  0  0
   32.8340   35.2220   40.0290 O   0  0  0  0  0  0  0  0  0  0  0  0
   32.5050   34.7710   41.2210 C   0  0  0  0  0  0  0  0  0  0  0  0
   33.6090   34.2550   41.8150 N   0  0  0  0  0  0  0  0  0  0  0  0
   31.1470   34.7940   41.8730 C   0  0  0  0  0  0  0  0  0  0  0  0
   30.3660   35.7740   41.3420 F   0  0  0  0  0  0  0  0  0  0  0  0
   30.5630   33.5620   41.7070 F   0  0  0  0  0  0  0  0  0  0  0  0
   31.2670   35.0170   43.2410 F   0  0  0  0  0  0  0  0  0  0  0  0
  1  6  1  0  0  0  0
  2  3  1  0  0  0  0
  2  1  2  0  0  0  0
  3  4  2  0  0  0  0
  4  5  1  0  0  0  0
  5 12  1  0  0  0  0
  6  5  2  0  0  0  0
  7  3  1  0  0  0  0
  8  7  1  0  0  0  0
  9 10  1  0  0  0  0
  9  8  2  0  0  0  0
 10 11  2  0  0  0  0
 11  7  1  0  0  0  0
 12 21  2  0  0  0  0
 12 13  1  0  0  0  0
 13 14  2  0  0  0  0
 14 15  1  0  0  0  0
 16 17  1  0  0  0  0
 16 15  2  0  0  0  0
 18 17  2  0  0  0  0
 19 18  1  0  0  0  0
 20 19  2  0  0  0  0
 20 21  1  0  0  0  0
 21 16  1  0  0  0  0
 22 10  1  0  0  0  0
 22 26  1  0  0  0  0
 23 24  1  0  0  0  0
 23 22  2  0  0  0  0
 24 25  1  0  0  0  0
 25 26  2  0  0  0  0
 25 27  1  0  0  0  0
 27 30  1  0  0  0  0
 28 27  1  0  0  0  0
 29 27  1  0  0  0  0
M  END
>  <minimizedAffinity>
-7.63135672

$$$$

 OpenBabel03272514333D

 30 34  0  0  0  0  0  0  0  0999 V2000
   33.4150   27.1430   48.1470 C   0  0  0  0  0  3  0  0  0  0  0  0
   33.0820   27.4360   46.8410 C   0  0  0  0  0  3  0  0  0  0  0  0
   33.7660   28.5140   46.2860 C   0  0  0  0  0  0  0  0  0  0  0  0
   34.6450   29.1370   47.0410 N   0  0  0  0  0  0  0  0  0  0  0  0
   34.9820   28.8740   48.2900 C   0  0  0  0  0  0  0  0  0  0  0  0
   34.3260   27.8560   48.7960 N   0  0  0  0  0  0  0  0  0  0  0  0
   33.5360   28.9400   44.9580 N   0  0  0  0  0  0  0  0  0  0  0  0
   33.6120   28.1860   43.8480 C   0  0  0  0  0  3  0  0  0  0  0  0
   33.3340   28.9020   42.7710 N   0  0  0  0  0  0  0  0  0  0  0  0
   33.0720   30.1500   43.1870 C   0  0  0  0  0  0  0  0  0  0  0  0
   33.2030   30.1400   44.5320 N   0  0  0  0  0  0  0  0  0  0  0  0
   35.9170   29.4770   49.2040 C   0  0  0  0  0  0  0  0  0  0  0  0
   35.9560   29.1300   50.5520 C   0  0  0  0  0  3  0  0  0  0  0  0
   36.8270   29.6760   51.4590 C   0  0  0  0  0  3  0  0  0  0  0  0
   37.7360   30.6310   51.0600 C   0  0  0  0  0  3  0  0  0  0  0  0
   37.7400   31.0040   49.7630 C   0  0  0  0  0  0  0  0  0  0  0  0
   38.6500   31.9610   49.3560 C   0  0  0  0  0  3  0  0  0  0  0  0
   38.7280   32.4000   48.0700 C   0  0  0  0  0  3  0  0  0  0  0  0
   37.8360   31.8360   47.1520 C   0  0  0  0  0  3  0  0  0  0  0  0
   36.9480   30.8900   47.5890 C   0  0  0  0  0  3  0  0  0  0  0  0
   36.8580   30.4470   48.8610 C   0  0  0  0  0  0  0  0  0  0  0  0
   32.7080   31.3880   42.5220 C   0  0  0  0  0  0  0  0  0  0  0  0
   32.9140   31.9060   41.2940 N   0  0  0  0  0  0  0  0  0  0  0  0
   32.3630   33.0810   41.2070 O   0  0  0  0  0  0  0  0  0  0  0  0
   31.7930   33.3550   42.3620 C   0  0  0  0  0  0  0  0  0  0  0  0
   31.9910   32.3140   43.2060 N   0  0  0  0  0  0  0  0  0  0  0  0
   31.0330   34.5990   42.7420 C   0  0  0  0  0  0  0  0  0  0  0  0
   31.3090   35.6220   41.8890 F   0  0  0  0  0  0  0  0  0  0  0  0
   29.6890   34.3080   42.7340 F   0  0  0  0  0  0  0  0  0  0  0  0
   31.3640   34.9970   44.0340 F   0  0  0  0  0  0  0  0  0  0  0  0
  1  6  1  0  0  0  0
  2  1  2  0  0  0  0
  3  2  1  0  0  0  0
  3  4  2  0  0  0  0
  4  5  1  0  0  0  0
  5  6  2  0  0  0  0
  5 12  1  0  0  0  0
  7  3  1  0  0  0  0
  8  7  1  0  0  0  0
  9 10  1  0  0  0  0
  9  8  2  0  0  0  0
 10 11  2  0  0  0  0
 11  7  1  0  0  0  0
 12 13  1  0  0  0  0
 13 14  2  0  0  0  0
 15 14  1  0  0  0  0
 16 15  2  0  0  0  0
 17 16  1  0  0  0  0
 18 17  2  0  0  0  0
 19 20  2  0  0  0  0
 19 18  1  0  0  0  0
 20 21  1  0  0  0  0
 21 12  2  0  0  0  0
 21 16  1  0  0  0  0
 22 10  1  0  0  0  0
 22 26  1  0  0  0  0
 23 22  2  0  0  0  0
 24 23  1  0  0  0  0
 24 25  1  0  0  0  0
 25 27  1  0  0  0  0
 25 26  2  0  0  0  0
 27 30  1  0  0  0  0
 28 27  1  0  0  0  0
 29 27  1  0  0  0  0
M  END
>  <minimizedAffinity>
-7.46491671

$$$$
