
 OpenBabel03272514473D

 39 44  0  0  0  0  0  0  0  0999 V2000
   31.1240   31.0410   42.8440 C   0  0  0  0  0  0  0  0  0  0  0  0
   29.7950   31.4000   43.1930 C   0  0  0  0  0  3  0  0  0  0  0  0
   29.4100   31.1860   44.4910 C   0  0  0  0  0  3  0  0  0  0  0  0
   30.3400   30.6540   45.3000 N   0  0  0  0  0  0  0  0  0  0  0  0
   31.5600   30.3140   45.0060 C   0  0  0  0  0  0  0  0  0  0  0  0
   31.9540   30.5180   43.7400 N   0  0  0  0  0  0  0  0  0  0  0  0
   32.3230   29.7820   46.0540 N   0  0  0  0  0  0  0  0  0  0  0  0
   33.3850   30.4960   46.5110 C   0  0  0  0  0  3  0  0  0  0  0  0
   33.9860   29.7960   47.5330 C   0  0  0  0  0  0  0  0  0  0  0  0
   33.2930   28.6800   47.6840 N   0  0  0  0  0  0  0  0  0  0  0  0
   32.2530   28.6560   46.7680 C   0  0  0  0  0  0  0  0  0  0  0  0
   31.3280   27.5810   46.6330 C   0  0  0  0  0  0  0  0  0  0  0  0
   31.4760   26.5810   45.6500 C   0  0  0  0  0  3  0  0  0  0  0  0
   30.4280   25.6990   45.7450 N   0  0  0  0  0  0  0  0  0  0  0  0
   29.6300   26.1640   46.7950 C   0  0  0  0  0  3  0  0  0  0  0  0
   30.2210   27.2530   47.2600 N   0  0  0  0  0  0  0  0  0  0  0  0
   29.4140   27.6090   48.3460 C   0  0  0  0  0  0  0  0  0  0  0  0
   29.7650   26.9640   49.4630 N   0  0  0  0  0  0  0  0  0  0  0  0
   29.0430   27.1500   50.5990 C   0  0  0  0  0  3  0  0  0  0  0  0
   27.9820   27.9520   50.6780 N   0  0  0  0  0  0  0  0  0  0  0  0
   27.5960   28.6210   49.5790 C   0  0  0  0  0  0  0  0  0  0  0  0
   26.5250   29.4710   49.5210 C   0  0  0  0  0  3  0  0  0  0  0  0
   26.1740   30.1200   48.3720 C   0  0  0  0  0  3  0  0  0  0  0  0
   26.9280   29.9200   47.2090 C   0  0  0  0  0  3  0  0  0  0  0  0
   28.0120   29.0770   47.2140 C   0  0  0  0  0  3  0  0  0  0  0  0
   28.3210   28.4510   48.3910 C   0  0  0  0  0  0  0  0  0  0  0  0
   35.1300   30.1490   48.3110 N   0  0  0  0  0  0  0  0  0  0  0  0
   36.2470   30.5240   47.6370 C   0  0  0  0  0  3  0  0  0  0  0  0
   37.4300   30.8940   48.2230 C   0  0  0  0  0  0  0  0  0  0  0  0
   38.6080   31.2910   47.4030 C   0  0  0  0  0  1  0  0  0  0  0  0
   37.4430   30.8700   49.6110 C   0  0  0  0  0  0  0  0  0  0  0  0
   38.5200   31.2060   50.1770 O   0  0  0  0  0  0  0  0  0  0  0  0
   36.3360   30.4980   50.2910 N   0  0  0  0  0  0  0  0  0  0  0  0
   35.1940   30.1430   49.6550 C   0  0  0  0  0  0  0  0  0  0  0  0
   34.1550   29.7940   50.2760 O   0  0  0  0  0  0  0  0  0  0  0  0
   36.3600   30.4840   51.3200 H   0  0  0  0  0  0  0  0  0  0  0  0
   31.5710   31.2660   41.4910 N   0  0  0  0  0  0  0  0  0  0  0  0
   32.5310   31.0130   41.2170 H   0  0  0  0  0  0  0  0  0  0  0  0
   30.9300   31.6790   40.7990 H   0  0  0  0  0  0  0  0  0  0  0  0
  1  2  2  0  0  0  0
  1  6  1  0  0  0  0
  2  3  1  0  0  0  0
  3  4  2  0  0  0  0
  5  4  1  0  0  0  0
  5  7  1  0  0  0  0
  6  5  2  0  0  0  0
  7  8  1  0  0  0  0
  7 11  1  0  0  0  0
  8  9  2  0  0  0  0
  9 10  1  0  0  0  0
  9 27  1  0  0  0  0
 11 10  2  0  0  0  0
 12 11  1  0  0  0  0
 12 16  1  0  0  0  0
 13 14  1  0  0  0  0
 13 12  2  0  0  0  0
 14 15  2  0  0  0  0
 15 16  1  0  0  0  0
 16 17  1  0  0  0  0
 17 26  2  0  0  0  0
 17 18  1  0  0  0  0
 18 19  2  0  0  0  0
 19 20  1  0  0  0  0
 21 20  2  0  0  0  0
 22 21  1  0  0  0  0
 23 22  2  0  0  0  0
 24 25  2  0  0  0  0
 24 23  1  0  0  0  0
 25 26  1  0  0  0  0
 26 21  1  0  0  0  0
 27 34  1  0  0  0  0
 28 29  2  0  0  0  0
 28 27  1  0  0  0  0
 29 31  1  0  0  0  0
 30 29  1  0  0  0  0
 31 32  2  0  0  0  0
 31 33  1  0  0  0  0
 33 36  1  0  0  0  0
 34 35  2  0  0  0  0
 34 33  1  0  0  0  0
 37  1  1  0  0  0  0
 38 37  1  0  0  0  0
 39 37  1  0  0  0  0
M  END
>  <minimizedAffinity>
-8.27619934

$$$$

 OpenBabel03272514473D

 39 44  0  0  0  0  0  0  0  0999 V2000
   31.4010   32.1930   42.2540 C   0  0  0  0  0  0  0  0  0  0  0  0
   30.2380   32.9610   42.5270 C   0  0  0  0  0  3  0  0  0  0  0  0
   29.6350   32.7720   43.7430 C   0  0  0  0  0  3  0  0  0  0  0  0
   30.2140   31.8700   44.5520 N   0  0  0  0  0  0  0  0  0  0  0  0
   31.2740   31.1530   44.3260 C   0  0  0  0  0  0  0  0  0  0  0  0
   31.8780   31.3270   43.1400 N   0  0  0  0  0  0  0  0  0  0  0  0
   31.6650   30.2860   45.3550 N   0  0  0  0  0  0  0  0  0  0  0  0
   32.8360   30.5310   46.0010 C   0  0  0  0  0  3  0  0  0  0  0  0
   33.0230   29.5690   46.9670 C   0  0  0  0  0  0  0  0  0  0  0  0
   31.9790   28.7600   46.8990 N   0  0  0  0  0  0  0  0  0  0  0  0
   31.1240   29.1930   45.8980 C   0  0  0  0  0  0  0  0  0  0  0  0
   29.9160   28.5310   45.5340 C   0  0  0  0  0  0  0  0  0  0  0  0
   29.8170   27.7300   44.3780 C   0  0  0  0  0  3  0  0  0  0  0  0
   28.5360   27.2480   44.2740 N   0  0  0  0  0  0  0  0  0  0  0  0
   27.8430   27.7600   45.3750 C   0  0  0  0  0  3  0  0  0  0  0  0
   28.7120   28.4870   46.0580 N   0  0  0  0  0  0  0  0  0  0  0  0
   27.9720   28.8950   47.1740 C   0  0  0  0  0  0  0  0  0  0  0  0
   27.9970   27.9830   48.1510 N   0  0  0  0  0  0  0  0  0  0  0  0
   27.2780   28.1950   49.2840 C   0  0  0  0  0  3  0  0  0  0  0  0
   26.5310   29.2800   49.4930 N   0  0  0  0  0  0  0  0  0  0  0  0
   26.4800   30.2220   48.5380 C   0  0  0  0  0  0  0  0  0  0  0  0
   25.7520   31.3780   48.6230 C   0  0  0  0  0  3  0  0  0  0  0  0
   25.7320   32.2990   47.6160 C   0  0  0  0  0  3  0  0  0  0  0  0
   26.4790   32.0670   46.4530 C   0  0  0  0  0  3  0  0  0  0  0  0
   27.2260   30.9240   46.3190 C   0  0  0  0  0  3  0  0  0  0  0  0
   27.2110   30.0320   47.3570 C   0  0  0  0  0  0  0  0  0  0  0  0
   34.1050   29.4190   47.8860 N   0  0  0  0  0  0  0  0  0  0  0  0
   35.2920   29.9810   47.5440 C   0  0  0  0  0  3  0  0  0  0  0  0
   36.4320   29.9340   48.3050 C   0  0  0  0  0  0  0  0  0  0  0  0
   37.6930   30.5800   47.8490 C   0  0  0  0  0  1  0  0  0  0  0  0
   36.3180   29.2500   49.5080 C   0  0  0  0  0  0  0  0  0  0  0  0
   37.3520   29.1910   50.2300 O   0  0  0  0  0  0  0  0  0  0  0  0
   35.1400   28.6880   49.8580 N   0  0  0  0  0  0  0  0  0  0  0  0
   34.0470   28.7690   49.0620 C   0  0  0  0  0  0  0  0  0  0  0  0
   32.9440   28.2490   49.3750 O   0  0  0  0  0  0  0  0  0  0  0  0
   35.0710   28.1840   50.7530 H   0  0  0  0  0  0  0  0  0  0  0  0
   32.0730   32.3760   40.9900 N   0  0  0  0  0  0  0  0  0  0  0  0
   32.9170   31.8300   40.7720 H   0  0  0  0  0  0  0  0  0  0  0  0
   31.7070   33.0550   40.3060 H   0  0  0  0  0  0  0  0  0  0  0  0
  1  2  2  0  0  0  0
  1  6  1  0  0  0  0
  2  3  1  0  0  0  0
  3  4  2  0  0  0  0
  5  4  1  0  0  0  0
  5  7  1  0  0  0  0
  6  5  2  0  0  0  0
  7 11  1  0  0  0  0
  7  8  1  0  0  0  0
  8  9  2  0  0  0  0
  9 27  1  0  0  0  0
 10  9  1  0  0  0  0
 11 10  2  0  0  0  0
 12 11  1  0  0  0  0
 12 16  1  0  0  0  0
 13 12  2  0  0  0  0
 14 13  1  0  0  0  0
 14 15  2  0  0  0  0
 15 16  1  0  0  0  0
 16 17  1  0  0  0  0
 17 26  2  0  0  0  0
 17 18  1  0  0  0  0
 18 19  2  0  0  0  0
 19 20  1  0  0  0  0
 21 22  1  0  0  0  0
 21 20  2  0  0  0  0
 23 22  2  0  0  0  0
 24 23  1  0  0  0  0
 25 24  2  0  0  0  0
 25 26  1  0  0  0  0
 26 21  1  0  0  0  0
 27 34  1  0  0  0  0
 28 27  1  0  0  0  0
 28 29  2  0  0  0  0
 29 31  1  0  0  0  0
 30 29  1  0  0  0  0
 31 33  1  0  0  0  0
 31 32  2  0  0  0  0
 33 36  1  0  0  0  0
 34 35  2  0  0  0  0
 34 33  1  0  0  0  0
 37  1  1  0  0  0  0
 38 37  1  0  0  0  0
 39 37  1  0  0  0  0
M  END
>  <minimizedAffinity>
-7.99533892

$$$$

 OpenBabel03272514473D

 39 44  0  0  0  0  0  0  0  0999 V2000
   32.2770   31.9890   43.8600 C   0  0  0  0  0  0  0  0  0  0  0  0
   32.3790   31.4210   42.5620 C   0  0  0  0  0  3  0  0  0  0  0  0
   31.8550   30.1670   42.3860 C   0  0  0  0  0  3  0  0  0  0  0  0
   31.3000   29.6040   43.4710 N   0  0  0  0  0  0  0  0  0  0  0  0
   31.1970   30.1000   44.6680 C   0  0  0  0  0  0  0  0  0  0  0  0
   31.7030   31.3280   44.8580 N   0  0  0  0  0  0  0  0  0  0  0  0
   30.5600   29.2910   45.6190 N   0  0  0  0  0  0  0  0  0  0  0  0
   29.3620   29.6950   46.1170 C   0  0  0  0  0  3  0  0  0  0  0  0
   28.9180   28.7610   47.0250 C   0  0  0  0  0  0  0  0  0  0  0  0
   29.8380   27.8130   47.0700 N   0  0  0  0  0  0  0  0  0  0  0  0
   30.8700   28.1300   46.2000 C   0  0  0  0  0  0  0  0  0  0  0  0
   32.0410   27.3380   46.0240 C   0  0  0  0  0  0  0  0  0  0  0  0
   31.9820   25.9810   45.6450 C   0  0  0  0  0  3  0  0  0  0  0  0
   33.2570   25.4770   45.5800 N   0  0  0  0  0  0  0  0  0  0  0  0
   34.1050   26.5340   45.9230 C   0  0  0  0  0  3  0  0  0  0  0  0
   33.3260   27.5760   46.1610 N   0  0  0  0  0  0  0  0  0  0  0  0
   34.2430   28.6020   46.4180 C   0  0  0  0  0  0  0  0  0  0  0  0
   34.6590   29.1940   45.2930 N   0  0  0  0  0  0  0  0  0  0  0  0
   35.6000   30.1730   45.3600 C   0  0  0  0  0  3  0  0  0  0  0  0
   36.1480   30.5940   46.5000 N   0  0  0  0  0  0  0  0  0  0  0  0
   35.7570   30.0280   47.6520 C   0  0  0  0  0  0  0  0  0  0  0  0
   36.2400   30.3630   48.8890 C   0  0  0  0  0  3  0  0  0  0  0  0
   35.8090   29.7480   50.0280 C   0  0  0  0  0  3  0  0  0  0  0  0
   34.8390   28.7410   49.9440 C   0  0  0  0  0  3  0  0  0  0  0  0
   34.3220   28.3680   48.7290 C   0  0  0  0  0  3  0  0  0  0  0  0
   34.7880   29.0150   47.6170 C   0  0  0  0  0  0  0  0  0  0  0  0
   27.7170   28.7600   47.7970 N   0  0  0  0  0  0  0  0  0  0  0  0
   27.8100   28.3590   49.0900 C   0  0  0  0  0  3  0  0  0  0  0  0
   26.7600   28.2960   49.9700 C   0  0  0  0  0  0  0  0  0  0  0  0
   26.9560   27.8420   51.3750 C   0  0  0  0  0  1  0  0  0  0  0  0
   25.5290   28.6810   49.4590 C   0  0  0  0  0  0  0  0  0  0  0  0
   24.5440   28.6340   50.2480 O   0  0  0  0  0  0  0  0  0  0  0  0
   25.4260   29.0830   48.1730 N   0  0  0  0  0  0  0  0  0  0  0  0
   26.5010   29.1230   47.3500 C   0  0  0  0  0  0  0  0  0  0  0  0
   26.4200   29.4950   46.1500 O   0  0  0  0  0  0  0  0  0  0  0  0
   24.5050   29.3650   47.8080 H   0  0  0  0  0  0  0  0  0  0  0  0
   32.8020   33.3160   44.0800 N   0  0  0  0  0  0  0  0  0  0  0  0
   32.7390   33.7460   45.0130 H   0  0  0  0  0  0  0  0  0  0  0  0
   33.2400   33.8310   43.3030 H   0  0  0  0  0  0  0  0  0  0  0  0
  1 37  1  0  0  0  0
  1  6  1  0  0  0  0
  2  1  2  0  0  0  0
  3  2  1  0  0  0  0
  3  4  2  0  0  0  0
  4  5  1  0  0  0  0
  5  6  2  0  0  0  0
  5  7  1  0  0  0  0
  7  8  1  0  0  0  0
  7 11  1  0  0  0  0
  8  9  2  0  0  0  0
  9 10  1  0  0  0  0
  9 27  1  0  0  0  0
 11 10  2  0  0  0  0
 12 16  1  0  0  0  0
 12 11  1  0  0  0  0
 13 12  2  0  0  0  0
 14 13  1  0  0  0  0
 14 15  2  0  0  0  0
 15 16  1  0  0  0  0
 16 17  1  0  0  0  0
 17 26  1  0  0  0  0
 18 19  1  0  0  0  0
 18 17  2  0  0  0  0
 19 20  2  0  0  0  0
 20 21  1  0  0  0  0
 21 22  1  0  0  0  0
 22 23  2  0  0  0  0
 24 23  1  0  0  0  0
 25 24  2  0  0  0  0
 26 21  2  0  0  0  0
 26 25  1  0  0  0  0
 27 28  1  0  0  0  0
 28 29  2  0  0  0  0
 29 30  1  0  0  0  0
 31 29  1  0  0  0  0
 31 32  2  0  0  0  0
 33 31  1  0  0  0  0
 34 27  1  0  0  0  0
 34 33  1  0  0  0  0
 35 34  2  0  0  0  0
 36 33  1  0  0  0  0
 37 38  1  0  0  0  0
 39 37  1  0  0  0  0
M  END
>  <minimizedAffinity>
-7.62740421

$$$$

 OpenBabel03272514473D

 39 44  0  0  0  0  0  0  0  0999 V2000
   29.1810   23.6480   45.3040 C   0  0  0  0  0  0  0  0  0  0  0  0
   28.3090   23.9150   44.2140 C   0  0  0  0  0  3  0  0  0  0  0  0
   28.0890   25.2300   43.8980 C   0  0  0  0  0  3  0  0  0  0  0  0
   28.7260   26.1330   44.6600 N   0  0  0  0  0  0  0  0  0  0  0  0
   29.5250   25.9160   45.6630 C   0  0  0  0  0  0  0  0  0  0  0  0
   29.7530   24.6340   45.9860 N   0  0  0  0  0  0  0  0  0  0  0  0
   30.0610   27.0530   46.2830 N   0  0  0  0  0  0  0  0  0  0  0  0
   31.3980   27.2770   46.1840 C   0  0  0  0  0  3  0  0  0  0  0  0
   31.7060   28.4370   46.8570 C   0  0  0  0  0  0  0  0  0  0  0  0
   30.5710   28.8990   47.3520 N   0  0  0  0  0  0  0  0  0  0  0  0
   29.5360   28.0460   47.0040 C   0  0  0  0  0  0  0  0  0  0  0  0
   28.1800   28.2270   47.4010 C   0  0  0  0  0  0  0  0  0  0  0  0
   27.6220   27.5490   48.5050 C   0  0  0  0  0  3  0  0  0  0  0  0
   26.3010   27.9010   48.6290 N   0  0  0  0  0  0  0  0  0  0  0  0
   26.0460   28.8030   47.5910 C   0  0  0  0  0  3  0  0  0  0  0  0
   27.1840   28.9420   46.9300 N   0  0  0  0  0  0  0  0  0  0  0  0
   26.8700   29.9080   45.9670 C   0  0  0  0  0  0  0  0  0  0  0  0
   27.0140   31.1510   46.4400 N   0  0  0  0  0  0  0  0  0  0  0  0
   26.6920   32.2090   45.6510 C   0  0  0  0  0  3  0  0  0  0  0  0
   26.2310   32.0900   44.4060 N   0  0  0  0  0  0  0  0  0  0  0  0
   26.0740   30.8600   43.8910 C   0  0  0  0  0  0  0  0  0  0  0  0
   25.6070   30.5970   42.6310 C   0  0  0  0  0  3  0  0  0  0  0  0
   25.4610   29.3230   42.1630 C   0  0  0  0  0  3  0  0  0  0  0  0
   25.7980   28.2410   42.9870 C   0  0  0  0  0  3  0  0  0  0  0  0
   26.2700   28.4520   44.2580 C   0  0  0  0  0  3  0  0  0  0  0  0
   26.3980   29.7470   44.6800 C   0  0  0  0  0  0  0  0  0  0  0  0
   32.9780   29.0660   47.0250 N   0  0  0  0  0  0  0  0  0  0  0  0
   33.7160   28.6950   48.1020 C   0  0  0  0  0  3  0  0  0  0  0  0
   34.9540   29.1950   48.4150 C   0  0  0  0  0  0  0  0  0  0  0  0
   35.6930   28.7290   49.6200 C   0  0  0  0  0  1  0  0  0  0  0  0
   35.4520   30.1490   47.5380 C   0  0  0  0  0  0  0  0  0  0  0  0
   36.5900   30.6270   47.8020 O   0  0  0  0  0  0  0  0  0  0  0  0
   34.7240   30.5240   46.4630 N   0  0  0  0  0  0  0  0  0  0  0  0
   33.5050   29.9930   46.2060 C   0  0  0  0  0  0  0  0  0  0  0  0
   32.8160   30.3340   45.2080 O   0  0  0  0  0  0  0  0  0  0  0  0
   35.1060   31.2340   45.8220 H   0  0  0  0  0  0  0  0  0  0  0  0
   29.4500   22.2750   45.6570 N   0  0  0  0  0  0  0  0  0  0  0  0
   30.0780   22.0590   46.4440 H   0  0  0  0  0  0  0  0  0  0  0  0
   29.0120   21.5110   45.1230 H   0  0  0  0  0  0  0  0  0  0  0  0
  1 37  1  0  0  0  0
  1  6  1  0  0  0  0
  2  1  2  0  0  0  0
  3  2  1  0  0  0  0
  3  4  2  0  0  0  0
  4  5  1  0  0  0  0
  5  6  2  0  0  0  0
  5  7  1  0  0  0  0
  7 11  1  0  0  0  0
  8  7  1  0  0  0  0
  8  9  2  0  0  0  0
  9 27  1  0  0  0  0
  9 10  1  0  0  0  0
 11 10  2  0  0  0  0
 11 12  1  0  0  0  0
 12 13  2  0  0  0  0
 13 14  1  0  0  0  0
 15 14  2  0  0  0  0
 16 12  1  0  0  0  0
 16 15  1  0  0  0  0
 17 18  1  0  0  0  0
 17 16  1  0  0  0  0
 19 18  2  0  0  0  0
 20 19  1  0  0  0  0
 21 20  2  0  0  0  0
 21 26  1  0  0  0  0
 22 21  1  0  0  0  0
 23 22  2  0  0  0  0
 23 24  1  0  0  0  0
 24 25  2  0  0  0  0
 25 26  1  0  0  0  0
 26 17  2  0  0  0  0
 27 28  1  0  0  0  0
 28 29  2  0  0  0  0
 29 30  1  0  0  0  0
 31 32  2  0  0  0  0
 31 29  1  0  0  0  0
 33 31  1  0  0  0  0
 34 33  1  0  0  0  0
 34 27  1  0  0  0  0
 35 34  2  0  0  0  0
 36 33  1  0  0  0  0
 37 38  1  0  0  0  0
 39 37  1  0  0  0  0
M  END
>  <minimizedAffinity>
-7.27140808

$$$$

 OpenBabel03272514473D

 39 44  0  0  0  0  0  0  0  0999 V2000
   32.0490   24.7020   46.0240 C   0  0  0  0  0  0  0  0  0  0  0  0
   32.0660   24.5760   44.6090 C   0  0  0  0  0  3  0  0  0  0  0  0
   32.4370   25.6820   43.8890 C   0  0  0  0  0  3  0  0  0  0  0  0
   32.7460   26.7740   44.6050 N   0  0  0  0  0  0  0  0  0  0  0  0
   32.7350   26.9160   45.8970 C   0  0  0  0  0  0  0  0  0  0  0  0
   32.3760   25.8430   46.6190 N   0  0  0  0  0  0  0  0  0  0  0  0
   33.1100   28.1760   46.3830 N   0  0  0  0  0  0  0  0  0  0  0  0
   34.2650   28.2800   47.0930 C   0  0  0  0  0  3  0  0  0  0  0  0
   34.4400   29.5930   47.4690 C   0  0  0  0  0  0  0  0  0  0  0  0
   33.4050   30.2630   46.9920 N   0  0  0  0  0  0  0  0  0  0  0  0
   32.5660   29.3920   46.3140 C   0  0  0  0  0  0  0  0  0  0  0  0
   31.3380   29.7770   45.7010 C   0  0  0  0  0  0  0  0  0  0  0  0
   31.2270   30.9320   44.9000 C   0  0  0  0  0  3  0  0  0  0  0  0
   29.9290   31.0590   44.4720 N   0  0  0  0  0  0  0  0  0  0  0  0
   29.2380   29.9720   45.0160 C   0  0  0  0  0  3  0  0  0  0  0  0
   30.1240   29.2760   45.7100 N   0  0  0  0  0  0  0  0  0  0  0  0
   29.3810   28.1760   46.1530 C   0  0  0  0  0  0  0  0  0  0  0  0
   29.3500   27.1950   45.2440 N   0  0  0  0  0  0  0  0  0  0  0  0
   28.6190   26.0760   45.4920 C   0  0  0  0  0  3  0  0  0  0  0  0
   27.9140   25.8850   46.6070 N   0  0  0  0  0  0  0  0  0  0  0  0
   27.9210   26.8440   47.5460 C   0  0  0  0  0  0  0  0  0  0  0  0
   27.2400   26.7770   48.7320 C   0  0  0  0  0  3  0  0  0  0  0  0
   27.2780   27.7870   49.6490 C   0  0  0  0  0  3  0  0  0  0  0  0
   28.0360   28.9350   49.3820 C   0  0  0  0  0  3  0  0  0  0  0  0
   28.7370   29.0510   48.2070 C   0  0  0  0  0  3  0  0  0  0  0  0
   28.6650   28.0110   47.3210 C   0  0  0  0  0  0  0  0  0  0  0  0
   35.5030   30.1750   48.2240 N   0  0  0  0  0  0  0  0  0  0  0  0
   36.5400   30.7050   47.5280 C   0  0  0  0  0  3  0  0  0  0  0  0
   37.6400   31.3020   48.0900 C   0  0  0  0  0  0  0  0  0  0  0  0
   38.7340   31.8570   47.2460 C   0  0  0  0  0  1  0  0  0  0  0  0
   37.6530   31.3440   49.4770 C   0  0  0  0  0  0  0  0  0  0  0  0
   38.6530   31.8880   50.0220 O   0  0  0  0  0  0  0  0  0  0  0  0
   36.6240   30.8190   50.1790 N   0  0  0  0  0  0  0  0  0  0  0  0
   35.5630   30.2420   49.5660 C   0  0  0  0  0  0  0  0  0  0  0  0
   34.5980   29.7480   50.2070 O   0  0  0  0  0  0  0  0  0  0  0  0
   36.6470   30.8580   51.2080 H   0  0  0  0  0  0  0  0  0  0  0  0
   31.6790   23.5540   46.8180 N   0  0  0  0  0  0  0  0  0  0  0  0
   31.6600   23.6230   47.8450 H   0  0  0  0  0  0  0  0  0  0  0  0
   31.4340   22.6670   46.3570 H   0  0  0  0  0  0  0  0  0  0  0  0
  1  6  1  0  0  0  0
  1 37  1  0  0  0  0
  2  1  2  0  0  0  0
  3  4  2  0  0  0  0
  3  2  1  0  0  0  0
  4  5  1  0  0  0  0
  5  7  1  0  0  0  0
  5  6  2  0  0  0  0
  7  8  1  0  0  0  0
  8  9  2  0  0  0  0
  9 27  1  0  0  0  0
 10  9  1  0  0  0  0
 11  7  1  0  0  0  0
 11 10  2  0  0  0  0
 12 16  1  0  0  0  0
 12 11  1  0  0  0  0
 13 12  2  0  0  0  0
 14 13  1  0  0  0  0
 14 15  2  0  0  0  0
 15 16  1  0  0  0  0
 16 17  1  0  0  0  0
 17 26  1  0  0  0  0
 18 19  1  0  0  0  0
 18 17  2  0  0  0  0
 19 20  2  0  0  0  0
 20 21  1  0  0  0  0
 21 22  1  0  0  0  0
 22 23  2  0  0  0  0
 24 23  1  0  0  0  0
 25 24  2  0  0  0  0
 26 21  2  0  0  0  0
 26 25  1  0  0  0  0
 27 34  1  0  0  0  0
 28 29  2  0  0  0  0
 28 27  1  0  0  0  0
 29 31  1  0  0  0  0
 30 29  1  0  0  0  0
 31 32  2  0  0  0  0
 31 33  1  0  0  0  0
 33 36  1  0  0  0  0
 34 33  1  0  0  0  0
 34 35  2  0  0  0  0
 37 38  1  0  0  0  0
 39 37  1  0  0  0  0
M  END
>  <minimizedAffinity>
-7.19471264

$$$$

 OpenBabel03272514473D

 39 44  0  0  0  0  0  0  0  0999 V2000
   28.1290   28.8640   49.6870 C   0  0  0  0  0  0  0  0  0  0  0  0
   27.7100   27.7860   50.5110 C   0  0  0  0  0  3  0  0  0  0  0  0
   28.6220   26.7920   50.7530 C   0  0  0  0  0  3  0  0  0  0  0  0
   29.8250   26.9460   50.1770 N   0  0  0  0  0  0  0  0  0  0  0  0
   30.2330   27.9190   49.4170 C   0  0  0  0  0  0  0  0  0  0  0  0
   29.3530   28.9020   49.1720 N   0  0  0  0  0  0  0  0  0  0  0  0
   31.5510   27.8280   48.9510 N   0  0  0  0  0  0  0  0  0  0  0  0
   32.4600   28.7370   49.3930 C   0  0  0  0  0  3  0  0  0  0  0  0
   33.6800   28.4650   48.8160 C   0  0  0  0  0  0  0  0  0  0  0  0
   33.5030   27.4090   48.0410 N   0  0  0  0  0  0  0  0  0  0  0  0
   32.1800   27.0010   48.1130 C   0  0  0  0  0  0  0  0  0  0  0  0
   31.6370   25.9100   47.3760 C   0  0  0  0  0  0  0  0  0  0  0  0
   32.2190   24.6260   47.3940 C   0  0  0  0  0  3  0  0  0  0  0  0
   31.4970   23.7930   46.5760 N   0  0  0  0  0  0  0  0  0  0  0  0
   30.4640   24.5740   46.0490 C   0  0  0  0  0  3  0  0  0  0  0  0
   30.6110   25.7840   46.5640 N   0  0  0  0  0  0  0  0  0  0  0  0
   29.5060   26.4770   46.0570 C   0  0  0  0  0  0  0  0  0  0  0  0
   28.4180   26.3070   46.8150 N   0  0  0  0  0  0  0  0  0  0  0  0
   27.2400   26.8650   46.4310 C   0  0  0  0  0  3  0  0  0  0  0  0
   27.0920   27.5890   45.3210 N   0  0  0  0  0  0  0  0  0  0  0  0
   28.1600   27.7860   44.5320 C   0  0  0  0  0  0  0  0  0  0  0  0
   28.1460   28.5040   43.3670 C   0  0  0  0  0  3  0  0  0  0  0  0
   29.2630   28.6660   42.6000 C   0  0  0  0  0  3  0  0  0  0  0  0
   30.4710   28.0860   43.0090 C   0  0  0  0  0  3  0  0  0  0  0  0
   30.5390   27.3570   44.1700 C   0  0  0  0  0  3  0  0  0  0  0  0
   29.3910   27.2240   44.9020 C   0  0  0  0  0  0  0  0  0  0  0  0
   34.9230   29.1480   48.9810 N   0  0  0  0  0  0  0  0  0  0  0  0
   35.5210   29.0650   50.1970 C   0  0  0  0  0  3  0  0  0  0  0  0
   36.7120   29.6580   50.5280 C   0  0  0  0  0  0  0  0  0  0  0  0
   37.2950   29.5120   51.8910 C   0  0  0  0  0  1  0  0  0  0  0  0
   37.3180   30.3880   49.5160 C   0  0  0  0  0  0  0  0  0  0  0  0
   38.4160   30.9450   49.7930 O   0  0  0  0  0  0  0  0  0  0  0  0
   36.7300   30.4770   48.3020 N   0  0  0  0  0  0  0  0  0  0  0  0
   35.5500   29.8680   48.0340 C   0  0  0  0  0  0  0  0  0  0  0  0
   34.9910   29.9430   46.9080 O   0  0  0  0  0  0  0  0  0  0  0  0
   37.1910   31.0230   47.5600 H   0  0  0  0  0  0  0  0  0  0  0  0
   27.2020   29.9380   49.4230 N   0  0  0  0  0  0  0  0  0  0  0  0
   27.4860   30.7290   48.8280 H   0  0  0  0  0  0  0  0  0  0  0  0
   26.2560   29.9130   49.8300 H   0  0  0  0  0  0  0  0  0  0  0  0
  1  2  1  0  0  0  0
  2  3  2  0  0  0  0
  4  3  1  0  0  0  0
  5  4  2  0  0  0  0
  6  5  1  0  0  0  0
  6  1  2  0  0  0  0
  7  8  1  0  0  0  0
  7  5  1  0  0  0  0
  9 27  1  0  0  0  0
  9  8  2  0  0  0  0
 10 11  2  0  0  0  0
 10  9  1  0  0  0  0
 11  7  1  0  0  0  0
 12 13  2  0  0  0  0
 12 11  1  0  0  0  0
 14 13  1  0  0  0  0
 15 16  1  0  0  0  0
 15 14  2  0  0  0  0
 16 12  1  0  0  0  0
 17 16  1  0  0  0  0
 17 18  1  0  0  0  0
 19 18  2  0  0  0  0
 20 19  1  0  0  0  0
 21 26  1  0  0  0  0
 21 20  2  0  0  0  0
 22 21  1  0  0  0  0
 23 24  1  0  0  0  0
 23 22  2  0  0  0  0
 24 25  2  0  0  0  0
 25 26  1  0  0  0  0
 26 17  2  0  0  0  0
 27 28  1  0  0  0  0
 28 29  2  0  0  0  0
 29 30  1  0  0  0  0
 31 32  2  0  0  0  0
 31 29  1  0  0  0  0
 33 31  1  0  0  0  0
 34 33  1  0  0  0  0
 34 27  1  0  0  0  0
 35 34  2  0  0  0  0
 36 33  1  0  0  0  0
 37  1  1  0  0  0  0
 37 39  1  0  0  0  0
 38 37  1  0  0  0  0
M  END
>  <minimizedAffinity>
-7.02378702

$$$$

 OpenBabel03272514473D

 39 44  0  0  0  0  0  0  0  0999 V2000
   34.6180   31.3270   42.0770 C   0  0  0  0  0  0  0  0  0  0  0  0
   33.4470   32.0760   41.7820 C   0  0  0  0  0  3  0  0  0  0  0  0
   32.4450   32.0630   42.7180 C   0  0  0  0  0  3  0  0  0  0  0  0
   32.6800   31.3340   43.8200 N   0  0  0  0  0  0  0  0  0  0  0  0
   33.7380   30.6380   44.1120 C   0  0  0  0  0  0  0  0  0  0  0  0
   34.7310   30.6410   43.2090 N   0  0  0  0  0  0  0  0  0  0  0  0
   33.7190   29.9720   45.3450 N   0  0  0  0  0  0  0  0  0  0  0  0
   34.5850   30.3730   46.3130 C   0  0  0  0  0  3  0  0  0  0  0  0
   34.3960   29.5920   47.4310 C   0  0  0  0  0  0  0  0  0  0  0  0
   33.4330   28.7360   47.1350 N   0  0  0  0  0  0  0  0  0  0  0  0
   33.0010   28.9590   45.8370 C   0  0  0  0  0  0  0  0  0  0  0  0
   31.9930   28.1920   45.1840 C   0  0  0  0  0  0  0  0  0  0  0  0
   32.2880   27.3110   44.1230 C   0  0  0  0  0  3  0  0  0  0  0  0
   31.1230   26.7350   43.6810 N   0  0  0  0  0  0  0  0  0  0  0  0
   30.1050   27.2700   44.4770 C   0  0  0  0  0  3  0  0  0  0  0  0
   30.6900   28.1000   45.3250 N   0  0  0  0  0  0  0  0  0  0  0  0
   29.6280   28.5280   46.1290 C   0  0  0  0  0  0  0  0  0  0  0  0
   29.3970   27.6860   47.1420 N   0  0  0  0  0  0  0  0  0  0  0  0
   28.3580   27.9230   47.9860 C   0  0  0  0  0  3  0  0  0  0  0  0
   27.5340   28.9640   47.8690 N   0  0  0  0  0  0  0  0  0  0  0  0
   27.7320   29.8350   46.8670 C   0  0  0  0  0  0  0  0  0  0  0  0
   26.9600   30.9410   46.6310 C   0  0  0  0  0  3  0  0  0  0  0  0
   27.2050   31.7890   45.5910 C   0  0  0  0  0  3  0  0  0  0  0  0
   28.2800   31.5340   44.7300 C   0  0  0  0  0  3  0  0  0  0  0  0
   29.0840   30.4390   44.9220 C   0  0  0  0  0  3  0  0  0  0  0  0
   28.7960   29.6190   45.9790 C   0  0  0  0  0  0  0  0  0  0  0  0
   35.0740   29.6450   48.6870 N   0  0  0  0  0  0  0  0  0  0  0  0
   36.2610   30.3020   48.7240 C   0  0  0  0  0  3  0  0  0  0  0  0
   37.0420   30.4490   49.8410 C   0  0  0  0  0  0  0  0  0  0  0  0
   38.3340   31.1880   49.7890 C   0  0  0  0  0  1  0  0  0  0  0  0
   36.5450   29.8670   50.9990 C   0  0  0  0  0  0  0  0  0  0  0  0
   37.2430   29.9870   52.0430 O   0  0  0  0  0  0  0  0  0  0  0  0
   35.3630   29.2110   50.9720 N   0  0  0  0  0  0  0  0  0  0  0  0
   34.6350   29.1000   49.8350 C   0  0  0  0  0  0  0  0  0  0  0  0
   33.5330   28.4910   49.7960 O   0  0  0  0  0  0  0  0  0  0  0  0
   35.0070   28.7850   51.8390 H   0  0  0  0  0  0  0  0  0  0  0  0
   35.7020   31.3300   41.1240 N   0  0  0  0  0  0  0  0  0  0  0  0
   36.5590   30.7940   41.3170 H   0  0  0  0  0  0  0  0  0  0  0  0
   35.6170   31.8690   40.2500 H   0  0  0  0  0  0  0  0  0  0  0  0
  1  6  1  0  0  0  0
  2  1  2  0  0  0  0
  2  3  1  0  0  0  0
  3  4  2  0  0  0  0
  4  5  1  0  0  0  0
  5  7  1  0  0  0  0
  6  5  2  0  0  0  0
  7 11  1  0  0  0  0
  7  8  1  0  0  0  0
  8  9  2  0  0  0  0
  9 27  1  0  0  0  0
 10  9  1  0  0  0  0
 11 10  2  0  0  0  0
 12 16  1  0  0  0  0
 12 11  1  0  0  0  0
 13 12  2  0  0  0  0
 14 13  1  0  0  0  0
 14 15  2  0  0  0  0
 15 16  1  0  0  0  0
 16 17  1  0  0  0  0
 17 18  1  0  0  0  0
 18 19  2  0  0  0  0
 20 19  1  0  0  0  0
 21 20  2  0  0  0  0
 22 21  1  0  0  0  0
 23 22  2  0  0  0  0
 24 25  2  0  0  0  0
 24 23  1  0  0  0  0
 25 26  1  0  0  0  0
 26 17  2  0  0  0  0
 26 21  1  0  0  0  0
 27 28  1  0  0  0  0
 27 34  1  0  0  0  0
 28 29  2  0  0  0  0
 29 31  1  0  0  0  0
 30 29  1  0  0  0  0
 31 32  2  0  0  0  0
 33 31  1  0  0  0  0
 33 36  1  0  0  0  0
 34 33  1  0  0  0  0
 35 34  2  0  0  0  0
 37 38  1  0  0  0  0
 37  1  1  0  0  0  0
 39 37  1  0  0  0  0
M  END
>  <minimizedAffinity>
-6.95828629

$$$$

 OpenBabel03272514473D

 39 44  0  0  0  0  0  0  0  0999 V2000
   32.8440   25.3090   42.1310 C   0  0  0  0  0  0  0  0  0  0  0  0
   31.8310   25.8740   41.3110 C   0  0  0  0  0  3  0  0  0  0  0  0
   31.0680   26.8720   41.8610 C   0  0  0  0  0  3  0  0  0  0  0  0
   31.3630   27.2080   43.1260 N   0  0  0  0  0  0  0  0  0  0  0  0
   32.2810   26.7060   43.8970 C   0  0  0  0  0  0  0  0  0  0  0  0
   33.0390   25.7290   43.3750 N   0  0  0  0  0  0  0  0  0  0  0  0
   32.3750   27.2530   45.1840 N   0  0  0  0  0  0  0  0  0  0  0  0
   33.4890   27.9590   45.5090 C   0  0  0  0  0  3  0  0  0  0  0  0
   33.3730   28.4040   46.8070 C   0  0  0  0  0  0  0  0  0  0  0  0
   32.2060   27.9690   47.2510 N   0  0  0  0  0  0  0  0  0  0  0  0
   31.5720   27.2480   46.2510 C   0  0  0  0  0  0  0  0  0  0  0  0
   30.3080   26.6090   46.4020 C   0  0  0  0  0  0  0  0  0  0  0  0
   29.9750   25.4270   45.7090 C   0  0  0  0  0  3  0  0  0  0  0  0
   28.6920   25.0630   46.0320 N   0  0  0  0  0  0  0  0  0  0  0  0
   28.2330   26.0310   46.9310 C   0  0  0  0  0  3  0  0  0  0  0  0
   29.2280   26.8870   47.0970 N   0  0  0  0  0  0  0  0  0  0  0  0
   28.7240   27.7710   48.0580 C   0  0  0  0  0  0  0  0  0  0  0  0
   28.9260   27.3240   49.3020 N   0  0  0  0  0  0  0  0  0  0  0  0
   28.4440   28.0340   50.3550 C   0  0  0  0  0  3  0  0  0  0  0  0
   27.7670   29.1760   50.2290 N   0  0  0  0  0  0  0  0  0  0  0  0
   27.5430   29.6610   48.9980 C   0  0  0  0  0  0  0  0  0  0  0  0
   26.8610   30.8160   48.7270 C   0  0  0  0  0  3  0  0  0  0  0  0
   26.6590   31.2590   47.4520 C   0  0  0  0  0  3  0  0  0  0  0  0
   27.1620   30.5170   46.3760 C   0  0  0  0  0  3  0  0  0  0  0  0
   27.8540   29.3510   46.5930 C   0  0  0  0  0  3  0  0  0  0  0  0
   28.0290   28.9510   47.8900 C   0  0  0  0  0  0  0  0  0  0  0  0
   34.2930   29.1800   47.5750 N   0  0  0  0  0  0  0  0  0  0  0  0
   34.3410   28.9420   48.9110 C   0  0  0  0  0  3  0  0  0  0  0  0
   35.1630   29.5940   49.7950 C   0  0  0  0  0  0  0  0  0  0  0  0
   35.1480   29.2670   51.2470 C   0  0  0  0  0  1  0  0  0  0  0  0
   35.9900   30.5600   49.2400 C   0  0  0  0  0  0  0  0  0  0  0  0
   36.7580   31.1760   50.0310 O   0  0  0  0  0  0  0  0  0  0  0  0
   35.9490   30.8040   47.9110 N   0  0  0  0  0  0  0  0  0  0  0  0
   35.1150   30.1260   47.0870 C   0  0  0  0  0  0  0  0  0  0  0  0
   35.0660   30.3430   45.8480 O   0  0  0  0  0  0  0  0  0  0  0  0
   36.5690   31.5240   47.5140 H   0  0  0  0  0  0  0  0  0  0  0  0
   33.6790   24.2670   41.5820 N   0  0  0  0  0  0  0  0  0  0  0  0
   34.4200   23.8440   42.1580 H   0  0  0  0  0  0  0  0  0  0  0  0
   33.5340   23.9480   40.6130 H   0  0  0  0  0  0  0  0  0  0  0  0
  1  6  1  0  0  0  0
  2  3  1  0  0  0  0
  2  1  2  0  0  0  0
  3  4  2  0  0  0  0
  4  5  1  0  0  0  0
  5  7  1  0  0  0  0
  6  5  2  0  0  0  0
  7  8  1  0  0  0  0
  7 11  1  0  0  0  0
  8  9  2  0  0  0  0
  9 10  1  0  0  0  0
  9 27  1  0  0  0  0
 11 12  1  0  0  0  0
 11 10  2  0  0  0  0
 12 16  1  0  0  0  0
 13 14  1  0  0  0  0
 13 12  2  0  0  0  0
 14 15  2  0  0  0  0
 15 16  1  0  0  0  0
 16 17  1  0  0  0  0
 17 18  1  0  0  0  0
 18 19  2  0  0  0  0
 20 19  1  0  0  0  0
 21 20  2  0  0  0  0
 22 21  1  0  0  0  0
 23 22  2  0  0  0  0
 24 25  2  0  0  0  0
 24 23  1  0  0  0  0
 25 26  1  0  0  0  0
 26 17  2  0  0  0  0
 26 21  1  0  0  0  0
 27 28  1  0  0  0  0
 28 29  2  0  0  0  0
 29 30  1  0  0  0  0
 31 29  1  0  0  0  0
 31 32  2  0  0  0  0
 33 31  1  0  0  0  0
 34 27  1  0  0  0  0
 34 33  1  0  0  0  0
 35 34  2  0  0  0  0
 36 33  1  0  0  0  0
 37  1  1  0  0  0  0
 37 38  1  0  0  0  0
 39 37  1  0  0  0  0
M  END
>  <minimizedAffinity>
-6.8754878

$$$$

 OpenBabel03272514473D

 39 44  0  0  0  0  0  0  0  0999 V2000
   29.5300   31.6970   42.6890 C   0  0  0  0  0  0  0  0  0  0  0  0
   28.3520   31.9820   43.4310 C   0  0  0  0  0  3  0  0  0  0  0  0
   28.3360   31.6010   44.7480 C   0  0  0  0  0  3  0  0  0  0  0  0
   29.4440   30.9930   45.1980 N   0  0  0  0  0  0  0  0  0  0  0  0
   30.5320   30.7180   44.5410 C   0  0  0  0  0  0  0  0  0  0  0  0
   30.5660   31.0850   43.2510 N   0  0  0  0  0  0  0  0  0  0  0  0
   31.5460   30.0760   45.2650 N   0  0  0  0  0  0  0  0  0  0  0  0
   32.7030   30.7490   45.4990 C   0  0  0  0  0  3  0  0  0  0  0  0
   33.5510   29.9410   46.2210 C   0  0  0  0  0  0  0  0  0  0  0  0
   32.9110   28.8010   46.4160 N   0  0  0  0  0  0  0  0  0  0  0  0
   31.6590   28.8690   45.8240 C   0  0  0  0  0  0  0  0  0  0  0  0
   30.7180   27.7990   45.8150 C   0  0  0  0  0  0  0  0  0  0  0  0
   30.6130   26.9000   44.7340 C   0  0  0  0  0  3  0  0  0  0  0  0
   29.6100   25.9990   44.9950 N   0  0  0  0  0  0  0  0  0  0  0  0
   29.0950   26.3510   46.2460 C   0  0  0  0  0  3  0  0  0  0  0  0
   29.7920   27.3980   46.6560 N   0  0  0  0  0  0  0  0  0  0  0  0
   29.2760   27.6380   47.9340 C   0  0  0  0  0  0  0  0  0  0  0  0
   29.8810   26.8940   48.8660 N   0  0  0  0  0  0  0  0  0  0  0  0
   29.4580   26.9610   50.1560 C   0  0  0  0  0  3  0  0  0  0  0  0
   28.4550   27.7390   50.5650 N   0  0  0  0  0  0  0  0  0  0  0  0
   27.8210   28.5030   49.6620 C   0  0  0  0  0  0  0  0  0  0  0  0
   26.7770   29.3420   49.9470 C   0  0  0  0  0  3  0  0  0  0  0  0
   26.1660   30.0930   48.9850 C   0  0  0  0  0  3  0  0  0  0  0  0
   26.6130   30.0140   47.6600 C   0  0  0  0  0  3  0  0  0  0  0  0
   27.6570   29.1900   47.3220 C   0  0  0  0  0  3  0  0  0  0  0  0
   28.2350   28.4570   48.3230 C   0  0  0  0  0  0  0  0  0  0  0  0
   34.8690   30.2200   46.6940 N   0  0  0  0  0  0  0  0  0  0  0  0
   35.8520   30.3280   45.7640 C   0  0  0  0  0  3  0  0  0  0  0  0
   37.1690   30.5900   46.0400 C   0  0  0  0  0  0  0  0  0  0  0  0
   38.1820   30.6900   44.9530 C   0  0  0  0  0  1  0  0  0  0  0  0
   37.4770   30.7520   47.3840 C   0  0  0  0  0  0  0  0  0  0  0  0
   38.6830   30.9950   47.6680 O   0  0  0  0  0  0  0  0  0  0  0  0
   36.5050   30.6470   48.3170 N   0  0  0  0  0  0  0  0  0  0  0  0
   35.2190   30.3850   47.9820 C   0  0  0  0  0  0  0  0  0  0  0  0
   34.3040   30.2840   48.8410 O   0  0  0  0  0  0  0  0  0  0  0  0
   36.7490   30.7680   49.3110 H   0  0  0  0  0  0  0  0  0  0  0  0
   29.5910   32.0970   41.3040 N   0  0  0  0  0  0  0  0  0  0  0  0
   30.4350   31.9000   40.7480 H   0  0  0  0  0  0  0  0  0  0  0  0
   28.7910   32.5790   40.8720 H   0  0  0  0  0  0  0  0  0  0  0  0
  1  6  2  0  0  0  0
  1  2  1  0  0  0  0
  2  3  2  0  0  0  0
  3  4  1  0  0  0  0
  5  4  2  0  0  0  0
  5  7  1  0  0  0  0
  6  5  1  0  0  0  0
  7  8  1  0  0  0  0
  7 11  1  0  0  0  0
  8  9  2  0  0  0  0
  9 10  1  0  0  0  0
  9 27  1  0  0  0  0
 11 10  2  0  0  0  0
 12 11  1  0  0  0  0
 12 16  1  0  0  0  0
 13 14  1  0  0  0  0
 13 12  2  0  0  0  0
 14 15  2  0  0  0  0
 15 16  1  0  0  0  0
 16 17  1  0  0  0  0
 17 26  2  0  0  0  0
 17 18  1  0  0  0  0
 18 19  2  0  0  0  0
 19 20  1  0  0  0  0
 21 22  1  0  0  0  0
 21 20  2  0  0  0  0
 23 22  2  0  0  0  0
 24 23  1  0  0  0  0
 25 24  2  0  0  0  0
 25 26  1  0  0  0  0
 26 21  1  0  0  0  0
 27 34  1  0  0  0  0
 28 29  2  0  0  0  0
 28 27  1  0  0  0  0
 29 31  1  0  0  0  0
 30 29  1  0  0  0  0
 31 32  2  0  0  0  0
 31 33  1  0  0  0  0
 33 36  1  0  0  0  0
 34 33  1  0  0  0  0
 34 35  2  0  0  0  0
 37  1  1  0  0  0  0
 38 37  1  0  0  0  0
 39 37  1  0  0  0  0
M  END
>  <minimizedAffinity>
-6.86960888

$$$$
