
     RDKit          3D

 49 53  0  0  0  0  0  0  0  0999 V2000
   41.6400   83.2320   61.7730 C   0  0  0  0  0  0  0  0  0  0  0  0
   41.0930   83.4090   60.5250 C   0  0  0  0  0  0  0  0  0  0  0  0
   39.7690   83.6150   60.6570 N   0  0  0  0  0  0  0  0  0  0  0  0
   39.4500   83.5760   61.9410 C   0  0  0  0  0  0  0  0  0  0  0  0
   40.5940   83.3420   62.6310 N   0  0  0  0  0  0  0  0  0  0  0  0
   38.1610   83.7430   62.5130 N   0  0  0  0  0  0  0  0  0  0  0  0
   45.1650   83.8030   62.5130 C   0  0  0  0  0  0  0  0  0  0  0  0
   45.6540   82.4940   62.6670 C   0  0  0  0  0  0  0  0  0  0  0  0
   44.7630   81.4470   62.5130 C   0  0  0  0  0  0  0  0  0  0  0  0
   43.4720   81.7550   62.2240 N   0  0  0  0  0  0  0  0  0  0  0  0
   43.0310   82.9870   62.0830 C   0  0  0  0  0  0  0  0  0  0  0  0
   43.8730   84.0310   62.2270 N   0  0  0  0  0  0  0  0  0  0  0  0
   45.1600   80.0710   62.6480 C   0  0  0  0  0  0  0  0  0  0  0  0
   46.3970   79.6850   63.1670 C   0  0  0  0  0  0  0  0  0  0  0  0
   46.8020   78.3810   63.3110 C   0  0  0  0  0  0  0  0  0  0  0  0
   45.9120   77.4060   62.9090 C   0  0  0  0  0  0  0  0  0  0  0  0
   44.6550   77.7120   62.3790 C   0  0  0  0  0  0  0  0  0  0  0  0
   44.3450   79.0470   62.2770 C   0  0  0  0  0  0  0  0  0  0  0  0
   40.7220   83.2250   64.0520 C   0  0  0  0  0  0  0  0  0  0  0  0
   40.6020   81.9260   64.4210 F   0  0  0  0  0  0  0  0  0  0  0  0
   39.7440   83.9700   64.7140 F   0  0  0  0  0  0  0  0  0  0  0  0
   41.9180   83.8210   64.5220 F   0  0  0  0  0  0  0  0  0  0  0  0
   41.9010   83.3610   59.2650 C   0  0  0  0  0  0  0  0  0  0  0  0
   41.8810   84.6030   58.5430 N   0  0  0  0  0  0  0  0  0  0  0  0
   41.2990   85.0890   57.4390 C   0  0  0  0  0  0  0  0  0  0  0  0
   41.6360   86.3700   57.2140 N   0  0  0  0  0  0  0  0  0  0  0  0
   42.4670   86.7580   58.1930 C   0  0  0  0  0  0  0  0  0  0  0  0
   43.0910   87.9750   58.4110 C   0  0  0  0  0  0  0  0  0  0  0  0
   42.9170   88.9250   57.6370 O   0  0  0  0  0  0  0  0  0  0  0  0
   43.8910   88.0920   59.4930 N   0  0  0  0  0  0  0  0  0  0  0  0
   44.0350   87.0240   60.2910 C   0  0  0  0  0  0  0  0  0  0  0  0
   44.8880   87.1870   61.4190 N   0  0  0  0  0  0  0  0  0  0  0  0
   43.4270   85.8490   60.0720 N   0  0  0  0  0  0  0  0  0  0  0  0
   42.6080   85.6720   58.9960 C   0  0  0  0  0  0  0  0  0  0  0  0
   38.0402   83.6906   63.5345 H   0  0  0  0  0  0  0  0  0  0  0  0
   37.3469   83.9165   61.9063 H   0  0  0  0  0  0  0  0  0  0  0  0
   45.8519   84.6543   62.6287 H   0  0  0  0  0  0  0  0  0  0  0  0
   46.7123   82.3080   62.9026 H   0  0  0  0  0  0  0  0  0  0  0  0
   47.0926   80.4771   63.4811 H   0  0  0  0  0  0  0  0  0  0  0  0
   47.7880   78.1259   63.7266 H   0  0  0  0  0  0  0  0  0  0  0  0
   46.2021   76.3497   63.0092 H   0  0  0  0  0  0  0  0  0  0  0  0
   43.9527   76.9273   62.0611 H   0  0  0  0  0  0  0  0  0  0  0  0
   43.3601   79.3081   61.8626 H   0  0  0  0  0  0  0  0  0  0  0  0
   42.9429   83.1221   59.5245 H   0  0  0  0  0  0  0  0  0  0  0  0
   41.4559   82.5931   58.6153 H   0  0  0  0  0  0  0  0  0  0  0  0
   40.6247   84.5080   56.7927 H   0  0  0  0  0  0  0  0  0  0  0  0
   44.3767   88.9765   59.6993 H   0  0  0  0  0  0  0  0  0  0  0  0
   45.0382   86.4021   62.0688 H   0  0  0  0  0  0  0  0  0  0  0  0
   45.3550   88.0899   61.5853 H   0  0  0  0  0  0  0  0  0  0  0  0
  1 11  1  0
  1  5  1  0
  2  3  1  0
  2  1  2  0
  3  4  2  0
  4  6  1  0
  4  5  1  0
  5 19  1  0
  7  8  2  0
  9 13  1  0
  9  8  1  0
 10  9  2  0
 11 10  1  0
 11 12  2  0
 12  7  1  0
 13 14  2  0
 14 15  1  0
 16 15  2  0
 17 16  1  0
 18 17  2  0
 18 13  1  0
 19 20  1  0
 19 22  1  0
 19 21  1  0
 23  2  1  0
 24 34  1  0
 24 23  1  0
 25 24  1  0
 26 25  2  0
 26 27  1  0
 27 28  1  0
 27 34  2  0
 28 30  1  0
 29 28  2  0
 30 31  1  0
 31 32  1  0
 33 31  2  0
 34 33  1  0
  6 35  1  0
  6 36  1  0
  7 37  1  0
  8 38  1  0
 14 39  1  0
 15 40  1  0
 16 41  1  0
 17 42  1  0
 18 43  1  0
 23 44  1  0
 23 45  1  0
 25 46  1  0
 30 47  1  0
 32 48  1  0
 32 49  1  0
M  END
>  <Score>  (1) 
-7.41432

$$$$
