
     RDKit          3D

 46 51  0  0  0  0  0  0  0  0999 V2000
   40.4710   77.7450   62.2240 N   0  0  0  0  0  0  0  0  0  0  0  0
   40.2210   78.8640   62.9000 N   0  0  0  0  0  0  0  0  0  0  0  0
   40.8460   79.8920   62.2720 C   0  0  0  0  0  0  0  0  0  0  0  0
   41.4890   79.3340   61.1790 C   0  0  0  0  0  0  0  0  0  0  0  0
   41.2540   77.9900   61.1460 C   0  0  0  0  0  0  0  0  0  0  0  0
   41.7580   77.1050   60.1600 N   0  0  0  0  0  0  0  0  0  0  0  0
   43.0670   76.8040   60.1510 N   0  0  0  0  0  0  0  0  0  0  0  0
   43.2650   75.9680   59.1230 C   0  0  0  0  0  0  0  0  0  0  0  0
   42.0510   75.7650   58.5060 C   0  0  0  0  0  0  0  0  0  0  0  0
   41.0840   76.5080   59.1890 C   0  0  0  0  0  0  0  0  0  0  0  0
   39.6950   76.5300   58.8210 C   0  0  0  0  0  0  0  0  0  0  0  0
   38.7350   75.7110   59.3600 C   0  0  0  0  0  0  0  0  0  0  0  0
   37.5120   75.9510   58.8560 N   0  0  0  0  0  0  0  0  0  0  0  0
   37.6160   76.9540   57.9480 C   0  0  0  0  0  0  0  0  0  0  0  0
   36.6910   77.6000   57.1370 C   0  0  0  0  0  0  0  0  0  0  0  0
   37.1080   78.6050   56.3020 C   0  0  0  0  0  0  0  0  0  0  0  0
   38.4380   78.9670   56.2720 C   0  0  0  0  0  0  0  0  0  0  0  0
   39.3010   78.2950   57.0930 C   0  0  0  0  0  0  0  0  0  0  0  0
   38.9560   77.2830   57.9520 C   0  0  0  0  0  0  0  0  0  0  0  0
   40.7050   81.1380   62.8210 O   0  0  0  0  0  0  0  0  0  0  0  0
   40.6600   82.3000   62.0950 C   0  0  0  0  0  0  0  0  0  0  0  0
   39.4600   82.7100   61.5330 C   0  0  0  0  0  0  0  0  0  0  0  0
   39.4440   83.8990   60.8010 C   0  0  0  0  0  0  0  0  0  0  0  0
   40.5920   84.5840   60.6770 N   0  0  0  0  0  0  0  0  0  0  0  0
   41.7430   84.1730   61.2280 C   0  0  0  0  0  0  0  0  0  0  0  0
   41.7550   83.0420   61.9240 N   0  0  0  0  0  0  0  0  0  0  0  0
   42.9720   84.8580   61.1260 N   0  0  0  0  0  0  0  0  0  0  0  0
   43.6970   85.6410   61.9140 N   0  0  0  0  0  0  0  0  0  0  0  0
   44.8170   86.0270   61.2860 C   0  0  0  0  0  0  0  0  0  0  0  0
   44.8060   85.4510   60.0120 C   0  0  0  0  0  0  0  0  0  0  0  0
   43.6180   84.7120   59.9420 C   0  0  0  0  0  0  0  0  0  0  0  0
   40.1156   76.8145   62.4862 H   0  0  0  0  0  0  0  0  0  0  0  0
   42.0963   79.8895   60.4491 H   0  0  0  0  0  0  0  0  0  0  0  0
   44.2259   75.5232   58.8251 H   0  0  0  0  0  0  0  0  0  0  0  0
   41.8728   75.1280   57.6271 H   0  0  0  0  0  0  0  0  0  0  0  0
   38.9430   74.9434   60.1200 H   0  0  0  0  0  0  0  0  0  0  0  0
   36.6452   75.4583   59.1146 H   0  0  0  0  0  0  0  0  0  0  0  0
   35.6310   77.3073   57.1645 H   0  0  0  0  0  0  0  0  0  0  0  0
   36.3821   79.1217   55.6569 H   0  0  0  0  0  0  0  0  0  0  0  0
   38.7934   79.7700   55.6095 H   0  0  0  0  0  0  0  0  0  0  0  0
   40.3600   78.5908   57.0618 H   0  0  0  0  0  0  0  0  0  0  0  0
   38.5444   82.1138   61.6607 H   0  0  0  0  0  0  0  0  0  0  0  0
   38.5155   84.2647   60.3382 H   0  0  0  0  0  0  0  0  0  0  0  0
   45.6018   86.6784   61.6981 H   0  0  0  0  0  0  0  0  0  0  0  0
   45.5706   85.5562   59.2282 H   0  0  0  0  0  0  0  0  0  0  0  0
   43.2714   84.1201   59.0821 H   0  0  0  0  0  0  0  0  0  0  0  0
  1  2  1  0
  3 20  1  0
  3  2  2  0
  4  3  1  0
  5  4  2  0
  5  1  1  0
  6  5  1  0
  7  6  1  0
  8  7  2  0
  9  8  1  0
  9 10  2  0
 10  6  1  0
 11 10  1  0
 11 12  2  0
 13 12  1  0
 14 19  2  0
 14 13  1  0
 15 14  1  0
 16 15  2  0
 17 16  1  0
 17 18  2  0
 18 19  1  0
 19 11  1  0
 21 20  1  0
 22 21  2  0
 23 22  1  0
 24 23  2  0
 24 25  1  0
 25 26  2  0
 26 21  1  0
 27 25  1  0
 27 28  1  0
 29 28  2  0
 30 29  1  0
 31 30  2  0
 31 27  1  0
  1 32  1  0
  4 33  1  0
  8 34  1  0
  9 35  1  0
 12 36  1  0
 13 37  1  0
 15 38  1  0
 16 39  1  0
 17 40  1  0
 18 41  1  0
 22 42  1  0
 23 43  1  0
 29 44  1  0
 30 45  1  0
 31 46  1  0
M  END
>  <Score>  (1) 
-8.00941

$$$$
