
     RDKit          3D

 46 49  0  0  1  0  0  0  0  0999 V2000
   39.6720   77.2700   59.7800 C   0  0  0  0  0  0  0  0  0  0  0  0
   38.9630   76.4810   60.4550 O   0  0  0  0  0  0  0  0  0  0  0  0
   40.4990   80.6120   61.0190 N   0  0  0  0  0  0  0  0  0  0  0  0
   39.8300   79.6560   60.3520 C   0  0  0  0  0  0  0  0  0  0  0  0
   40.2750   78.3900   60.4580 C   0  0  0  0  0  0  0  0  0  0  0  0
   41.3770   78.1390   61.2380 C   0  0  0  0  0  0  0  0  0  0  0  0
   41.9180   76.8420   61.4270 N   0  0  0  0  0  0  0  0  0  0  0  0
   42.0340   79.1360   61.9040 N   0  0  0  0  0  0  0  0  0  0  0  0
   41.5840   80.4260   61.7970 C   0  0  0  0  0  0  0  0  0  0  0  0
   42.1370   81.3910   62.3800 O   0  0  0  0  0  0  0  0  0  0  0  0
   40.0230   81.9490   60.8790 C   0  0  0  0  0  0  0  0  0  0  0  0
   40.2390   82.6940   59.7120 C   0  0  0  0  0  0  0  0  0  0  0  0
   39.7180   84.0100   59.6940 C   0  0  0  0  0  0  0  0  0  0  0  0
   39.0530   84.4460   60.8050 N   0  0  0  0  0  0  0  0  0  0  0  0
   38.8800   83.6830   61.8950 C   0  0  0  0  0  0  0  0  0  0  0  0
   39.3660   82.4200   61.9410 N   0  0  0  0  0  0  0  0  0  0  0  0
   39.7990   76.9710   58.4440 O   0  0  0  0  0  0  0  0  0  0  0  0
   37.5210   76.6590   58.0370 N   0  0  0  0  0  0  0  0  0  0  0  0
   36.4490   77.2630   57.2970 C   0  0  0  0  0  0  0  0  0  0  0  0
   37.0450   78.4570   56.5880 C   0  0  0  0  0  0  0  0  0  0  0  0
   38.3580   78.6370   57.3410 C   0  0  0  0  0  0  0  0  0  0  0  0
   38.7520   77.1760   57.5520 C   0  0  1  0  0  0  0  0  0  0  0  0
   39.2050   76.7470   56.2590 N   0  0  0  0  0  0  0  0  0  0  0  0
   39.6240   77.4630   55.2280 C   0  0  0  0  0  0  0  0  0  0  0  0
   40.0360   76.9490   54.0310 C   0  0  0  0  0  0  0  0  0  0  0  0
   40.0070   75.5780   53.9010 C   0  0  0  0  0  0  0  0  0  0  0  0
   40.3830   75.0930   52.8050 O   0  0  0  0  0  0  0  0  0  0  0  0
   39.5810   74.8480   54.9470 N   0  0  0  0  0  0  0  0  0  0  0  0
   39.1790   75.3880   56.1210 C   0  0  0  0  0  0  0  0  0  0  0  0
   38.8260   74.4760   56.9410 O   0  0  0  0  0  0  0  0  0  0  0  0
   38.9489   79.8998   59.7403 H   0  0  0  0  0  0  0  0  0  0  0  0
   42.7474   76.7119   62.0237 H   0  0  0  0  0  0  0  0  0  0  0  0
   41.4816   76.0300   60.9675 H   0  0  0  0  0  0  0  0  0  0  0  0
   40.7858   82.2772   58.8533 H   0  0  0  0  0  0  0  0  0  0  0  0
   39.8442   84.6596   58.8153 H   0  0  0  0  0  0  0  0  0  0  0  0
   38.3369   84.0883   62.7615 H   0  0  0  0  0  0  0  0  0  0  0  0
   37.4209   76.8818   59.0376 H   0  0  0  0  0  0  0  0  0  0  0  0
   36.0416   76.5496   56.5655 H   0  0  0  0  0  0  0  0  0  0  0  0
   35.6236   77.5619   57.9598 H   0  0  0  0  0  0  0  0  0  0  0  0
   37.2190   78.2455   55.5227 H   0  0  0  0  0  0  0  0  0  0  0  0
   36.4003   79.3483   56.5935 H   0  0  0  0  0  0  0  0  0  0  0  0
   39.1028   79.1767   56.7377 H   0  0  0  0  0  0  0  0  0  0  0  0
   38.2830   79.2322   58.2630 H   0  0  0  0  0  0  0  0  0  0  0  0
   39.6420   78.5568   55.3437 H   0  0  0  0  0  0  0  0  0  0  0  0
   40.3746   77.5988   53.2106 H   0  0  0  0  0  0  0  0  0  0  0  0
   39.5595   73.8229   54.8494 H   0  0  0  0  0  0  0  0  0  0  0  0
  1  2  2  0
  1  5  1  0
  3  9  1  0
  4  5  2  0
  4  3  1  0
  5  6  1  0
  6  7  1  0
  6  8  2  0
  9  8  1  0
  9 10  2  0
 11  3  1  0
 11 16  1  0
 12 11  2  0
 13 12  1  0
 13 14  2  0
 14 15  1  0
 15 16  2  0
 17  1  1  0
 19 18  1  0
 20 19  1  0
 20 21  1  0
 21 22  1  0
 22 18  1  0
 22 17  1  1
 23 22  1  0
 24 23  1  0
 25 24  2  0
 26 25  1  0
 26 28  1  0
 27 26  2  0
 28 29  1  0
 29 23  1  0
 29 30  2  0
  4 31  1  0
  7 32  1  0
  7 33  1  0
 12 34  1  0
 13 35  1  0
 15 36  1  0
 18 37  1  0
 19 38  1  0
 19 39  1  0
 20 40  1  0
 20 41  1  0
 21 42  1  0
 21 43  1  0
 24 44  1  0
 25 45  1  0
 28 46  1  0
M  END
>  <Score>  (1) 
-7.44766

$$$$
