
     RDKit          3D

 40 44  0  0  0  0  0  0  0  0999 V2000
   39.9220   82.0370   60.3300 C   0  0  0  0  0  0  0  0  0  0  0  0
   40.3370   82.9280   59.2920 C   0  0  0  0  0  0  0  0  0  0  0  0
   40.0720   84.2910   59.4570 C   0  0  0  0  0  0  0  0  0  0  0  0
   39.4240   84.6940   60.6150 N   0  0  0  0  0  0  0  0  0  0  0  0
   39.0490   83.7980   61.5780 C   0  0  0  0  0  0  0  0  0  0  0  0
   39.2810   82.4620   61.4680 N   0  0  0  0  0  0  0  0  0  0  0  0
   40.2060   80.6600   60.1300 N   0  0  0  0  0  0  0  0  0  0  0  0
   40.4670   80.0700   58.9610 C   0  0  0  0  0  0  0  0  0  0  0  0
   40.7630   78.7730   59.1420 N   0  0  0  0  0  0  0  0  0  0  0  0
   40.6830   78.5270   60.4790 C   0  0  0  0  0  0  0  0  0  0  0  0
   40.8650   77.3650   61.1890 C   0  0  0  0  0  0  0  0  0  0  0  0
   41.1890   76.3240   60.5310 O   0  0  0  0  0  0  0  0  0  0  0  0
   40.6920   77.4000   62.5240 N   0  0  0  0  0  0  0  0  0  0  0  0
   40.3520   78.5540   63.1110 C   0  0  0  0  0  0  0  0  0  0  0  0
   40.1970   78.4350   64.5090 N   0  0  0  0  0  0  0  0  0  0  0  0
   40.1650   79.7180   62.4400 N   0  0  0  0  0  0  0  0  0  0  0  0
   40.3270   79.7350   61.0930 C   0  0  0  0  0  0  0  0  0  0  0  0
   40.5260   80.4240   57.5550 C   0  0  0  0  0  0  0  0  0  0  0  0
   41.6790   81.0020   57.0020 C   0  0  0  0  0  0  0  0  0  0  0  0
   41.9300   81.3390   55.6890 C   0  0  0  0  0  0  0  0  0  0  0  0
   40.8930   81.0600   54.8260 C   0  0  0  0  0  0  0  0  0  0  0  0
   39.7130   80.4970   55.2250 C   0  0  0  0  0  0  0  0  0  0  0  0
   38.7070   80.2040   54.3410 C   0  0  0  0  0  0  0  0  0  0  0  0
   37.5210   79.6050   54.7430 C   0  0  0  0  0  0  0  0  0  0  0  0
   37.3560   79.2920   56.0980 C   0  0  0  0  0  0  0  0  0  0  0  0
   38.3940   79.6060   56.9430 C   0  0  0  0  0  0  0  0  0  0  0  0
   39.5710   80.2020   56.5530 C   0  0  0  0  0  0  0  0  0  0  0  0
   40.8481   82.5536   58.3928 H   0  0  0  0  0  0  0  0  0  0  0  0
   40.3688   85.0222   58.6907 H   0  0  0  0  0  0  0  0  0  0  0  0
   38.5392   84.1728   62.4778 H   0  0  0  0  0  0  0  0  0  0  0  0
   40.8200   76.5475   63.0877 H   0  0  0  0  0  0  0  0  0  0  0  0
   39.9359   79.2583   65.0701 H   0  0  0  0  0  0  0  0  0  0  0  0
   40.3450   77.5249   64.9679 H   0  0  0  0  0  0  0  0  0  0  0  0
   42.4920   81.2148   57.7118 H   0  0  0  0  0  0  0  0  0  0  0  0
   42.8766   81.7916   55.3589 H   0  0  0  0  0  0  0  0  0  0  0  0
   41.0212   81.3028   53.7608 H   0  0  0  0  0  0  0  0  0  0  0  0
   38.8441   80.4517   53.2781 H   0  0  0  0  0  0  0  0  0  0  0  0
   36.7286   79.3812   54.0136 H   0  0  0  0  0  0  0  0  0  0  0  0
   36.4366   78.8160   56.4697 H   0  0  0  0  0  0  0  0  0  0  0  0
   38.2747   79.3629   58.0091 H   0  0  0  0  0  0  0  0  0  0  0  0
  1  6  2  0
  2  3  2  0
  2  1  1  0
  3  4  1  0
  4  5  2  0
  6  5  1  0
  7  1  1  0
  7 17  1  0
  8  9  2  0
  8  7  1  0
  9 10  1  0
 10 17  2  0
 10 11  1  0
 11 13  1  0
 12 11  2  0
 13 14  1  0
 14 15  1  0
 16 14  2  0
 17 16  1  0
 18  8  1  0
 19 18  2  0
 20 19  1  0
 21 22  1  0
 21 20  2  0
 22 27  2  0
 23 24  2  0
 23 22  1  0
 24 25  1  0
 25 26  2  0
 27 26  1  0
 27 18  1  0
  2 28  1  0
  3 29  1  0
  5 30  1  0
 13 31  1  0
 15 32  1  0
 15 33  1  0
 19 34  1  0
 20 35  1  0
 21 36  1  0
 23 37  1  0
 24 38  1  0
 25 39  1  0
 26 40  1  0
M  END
>  <Score>  (1) 
-7.11029

$$$$
