
     RDKit          3D

 39 43  0  0  0  0  0  0  0  0999 V2000
   40.8470   81.9610   61.1710 C   0  0  0  0  0  0  0  0  0  0  0  0
   40.6670   82.6280   59.9780 C   0  0  0  0  0  0  0  0  0  0  0  0
   40.3450   82.0090   58.7920 C   0  0  0  0  0  0  0  0  0  0  0  0
   40.1900   80.6470   58.7710 C   0  0  0  0  0  0  0  0  0  0  0  0
   40.3530   79.9090   59.9210 C   0  0  0  0  0  0  0  0  0  0  0  0
   40.2030   78.5480   59.9190 C   0  0  0  0  0  0  0  0  0  0  0  0
   40.3620   77.7720   61.0640 C   0  0  0  0  0  0  0  0  0  0  0  0
   40.6840   78.4710   62.2150 C   0  0  0  0  0  0  0  0  0  0  0  0
   40.8270   79.8380   62.1770 C   0  0  0  0  0  0  0  0  0  0  0  0
   40.6710   80.5980   61.0570 C   0  0  0  0  0  0  0  0  0  0  0  0
   42.5140   83.9440   63.9690 C   0  0  0  0  0  0  0  0  0  0  0  0
   42.4040   83.1940   62.8010 C   0  0  0  0  0  0  0  0  0  0  0  0
   41.1750   82.7300   62.3320 C   0  0  0  0  0  0  0  0  0  0  0  0
   40.1200   83.0900   63.1310 N   0  0  0  0  0  0  0  0  0  0  0  0
   40.2250   83.8080   64.2480 C   0  0  0  0  0  0  0  0  0  0  0  0
   41.4240   84.2290   64.6570 N   0  0  0  0  0  0  0  0  0  0  0  0
   39.8530   77.7980   58.6850 C   0  0  0  0  0  0  0  0  0  0  0  0
   40.1770   76.6060   58.1570 N   0  0  0  0  0  0  0  0  0  0  0  0
   39.6150   76.3790   57.0230 O   0  0  0  0  0  0  0  0  0  0  0  0
   38.8900   77.3990   56.7340 C   0  0  0  0  0  0  0  0  0  0  0  0
   39.0170   78.2840   57.7340 N   0  0  0  0  0  0  0  0  0  0  0  0
   38.0200   77.7300   55.5860 C   0  0  0  0  0  0  0  0  0  0  0  0
   37.1930   76.8490   54.9210 C   0  0  0  0  0  0  0  0  0  0  0  0
   36.4340   77.3010   53.8610 C   0  0  0  0  0  0  0  0  0  0  0  0
   36.5190   78.5870   53.5030 N   0  0  0  0  0  0  0  0  0  0  0  0
   37.3180   79.4570   54.1390 C   0  0  0  0  0  0  0  0  0  0  0  0
   38.0710   79.0140   55.1890 N   0  0  0  0  0  0  0  0  0  0  0  0
   40.7881   83.7213   59.9739 H   0  0  0  0  0  0  0  0  0  0  0  0
   40.2137   82.5991   57.8730 H   0  0  0  0  0  0  0  0  0  0  0  0
   39.9336   80.1408   57.8287 H   0  0  0  0  0  0  0  0  0  0  0  0
   40.2402   76.6788   61.0548 H   0  0  0  0  0  0  0  0  0  0  0  0
   40.8259   77.9310   63.1628 H   0  0  0  0  0  0  0  0  0  0  0  0
   41.0848   80.3529   63.1143 H   0  0  0  0  0  0  0  0  0  0  0  0
   43.4977   84.2949   64.3144 H   0  0  0  0  0  0  0  0  0  0  0  0
   43.3148   82.9601   62.2303 H   0  0  0  0  0  0  0  0  0  0  0  0
   39.3258   84.0535   64.8321 H   0  0  0  0  0  0  0  0  0  0  0  0
   37.1390   75.7955   55.2329 H   0  0  0  0  0  0  0  0  0  0  0  0
   35.7686   76.6136   53.3182 H   0  0  0  0  0  0  0  0  0  0  0  0
   37.3659   80.5088   53.8205 H   0  0  0  0  0  0  0  0  0  0  0  0
  1 13  1  0
  2  1  2  0
  3  2  1  0
  4  3  2  0
  4  5  1  0
  5 10  2  0
  6  5  1  0
  6  7  2  0
  7  8  1  0
  9  8  2  0
 10  1  1  0
 10  9  1  0
 11 16  2  0
 12 11  1  0
 13 12  2  0
 13 14  1  0
 14 15  2  0
 15 16  1  0
 17  6  1  0
 18 17  2  0
 19 18  1  0
 20 19  1  0
 20 21  2  0
 21 17  1  0
 22 20  1  0
 23 22  2  0
 24 23  1  0
 25 24  2  0
 25 26  1  0
 26 27  2  0
 27 22  1  0
  2 28  1  0
  3 29  1  0
  4 30  1  0
  7 31  1  0
  8 32  1  0
  9 33  1  0
 11 34  1  0
 12 35  1  0
 15 36  1  0
 23 37  1  0
 24 38  1  0
 26 39  1  0
M  END
>  <Score>  (1) 
-7.30984

$$$$
