
     RDKit          3D

 38 42  0  0  1  0  0  0  0  0999 V2000
   40.4060   80.6120   61.2890 N   0  0  0  0  0  0  0  0  0  0  0  0
   40.8800   80.1760   62.4730 C   0  0  0  0  0  0  0  0  0  0  0  0
   41.2020   78.8560   62.3870 N   0  0  0  0  0  0  0  0  0  0  0  0
   40.9360   78.4330   61.1460 C   0  0  0  0  0  0  0  0  0  0  0  0
   41.0280   77.2600   60.4310 C   0  0  1  0  0  0  0  0  0  0  0  0
   40.6510   77.1920   59.1300 N   0  0  0  0  0  0  0  0  0  0  0  0
   40.1700   78.2810   58.4940 C   0  0  0  0  0  0  0  0  0  0  0  0
   40.0840   79.4160   59.1910 N   0  0  0  0  0  0  0  0  0  0  0  0
   40.4420   79.5430   60.4780 C   0  0  0  0  0  0  0  0  0  0  0  0
   39.7590   78.2710   57.1310 N   0  0  0  0  0  0  0  0  0  0  0  0
   40.4850   78.6820   56.0560 C   0  0  0  0  0  0  0  0  0  0  0  0
   39.7560   78.5220   54.9160 N   0  0  0  0  0  0  0  0  0  0  0  0
   38.5450   78.0000   55.2640 C   0  0  0  0  0  0  0  0  0  0  0  0
   37.4750   77.6660   54.4600 C   0  0  0  0  0  0  0  0  0  0  0  0
   36.3910   77.1650   55.0720 N   0  0  0  0  0  0  0  0  0  0  0  0
   36.4040   77.0180   56.4190 C   0  0  0  0  0  0  0  0  0  0  0  0
   37.4540   77.3450   57.2200 N   0  0  0  0  0  0  0  0  0  0  0  0
   38.5660   77.8530   56.6340 C   0  0  0  0  0  0  0  0  0  0  0  0
   39.9770   81.9460   61.0430 C   0  0  0  0  0  0  0  0  0  0  0  0
   40.2100   82.6710   59.8750 C   0  0  0  0  0  0  0  0  0  0  0  0
   39.7140   83.9720   59.8110 C   0  0  0  0  0  0  0  0  0  0  0  0
   39.0290   84.4770   60.8840 N   0  0  0  0  0  0  0  0  0  0  0  0
   38.8300   83.7410   61.9880 C   0  0  0  0  0  0  0  0  0  0  0  0
   39.2980   82.4850   62.0730 N   0  0  0  0  0  0  0  0  0  0  0  0
   41.5310   76.1210   61.0990 N   0  0  0  0  0  0  0  0  0  0  0  0
   37.5490   77.8530   53.0650 N   0  0  0  0  0  0  0  0  0  0  0  0
   40.9904   80.7952   63.3754 H   0  0  0  0  0  0  0  0  0  0  0  0
   40.0074   76.9910   60.7409 H   0  0  0  0  0  0  0  0  0  0  0  0
   39.7186   80.2497   58.7090 H   0  0  0  0  0  0  0  0  0  0  0  0
   41.5081   79.0836   56.1007 H   0  0  0  0  0  0  0  0  0  0  0  0
   35.5035   76.6059   56.8979 H   0  0  0  0  0  0  0  0  0  0  0  0
   40.7658   82.2316   59.0335 H   0  0  0  0  0  0  0  0  0  0  0  0
   39.8706   84.5847   58.9110 H   0  0  0  0  0  0  0  0  0  0  0  0
   38.2761   84.1721   62.8349 H   0  0  0  0  0  0  0  0  0  0  0  0
   41.4678   76.2642   62.1170 H   0  0  0  0  0  0  0  0  0  0  0  0
   40.9766   75.2945   60.8335 H   0  0  0  0  0  0  0  0  0  0  0  0
   38.4041   78.2414   52.6421 H   0  0  0  0  0  0  0  0  0  0  0  0
   36.7480   77.6012   52.4684 H   0  0  0  0  0  0  0  0  0  0  0  0
  1  2  1  0
  3  2  2  0
  4  3  1  0
  5 25  1  0
  5  4  1  0
  6  5  1  0
  7  6  2  0
  7  8  1  0
  8  9  1  0
  9  4  2  0
  9  1  1  0
 10  7  1  0
 11 10  1  0
 12 13  1  0
 12 11  2  0
 13 18  2  0
 14 15  2  0
 14 13  1  0
 15 16  1  0
 16 17  2  0
 18 10  1  0
 18 17  1  0
 19  1  1  0
 19 24  1  0
 20 19  2  0
 21 20  1  0
 21 22  2  0
 22 23  1  0
 23 24  2  0
 26 14  1  0
  2 27  1  0
  5 28  1  1
  8 29  1  0
 11 30  1  0
 16 31  1  0
 20 32  1  0
 21 33  1  0
 23 34  1  0
 25 35  1  0
 25 36  1  0
 26 37  1  0
 26 38  1  0
M  END
>  <Score>  (1) 
-7.35104

$$$$
