
     RDKit          3D

 45 50  0  0  1  0  0  0  0  0999 V2000
   42.5260   86.5880   58.4100 C   0  0  0  0  0  0  0  0  0  0  0  0
   42.9970   85.9480   59.5820 C   0  0  0  0  0  0  0  0  0  0  0  0
   44.0960   86.4780   60.1990 C   0  0  0  0  0  0  0  0  0  0  0  0
   44.6750   87.5970   59.6450 N   0  0  0  0  0  0  0  0  0  0  0  0
   44.2030   88.1720   58.5410 C   0  0  0  0  0  0  0  0  0  0  0  0
   43.1200   87.6710   57.9120 N   0  0  0  0  0  0  0  0  0  0  0  0
   44.8520   89.3270   58.0180 N   0  0  0  0  0  0  0  0  0  0  0  0
   45.8370   89.1930   57.0950 C   0  0  0  0  0  0  0  0  0  0  0  0
   46.2720   90.4750   56.7800 C   0  0  0  0  0  0  0  0  0  0  0  0
   45.5360   91.3560   57.5240 N   0  0  0  0  0  0  0  0  0  0  0  0
   44.6840   90.6260   58.2640 C   0  0  0  0  0  0  0  0  0  0  0  0
   43.7290   91.1440   59.1860 N   0  0  0  0  0  0  0  0  0  0  0  0
   43.7260   90.9080   60.5270 C   0  0  0  0  0  0  0  0  0  0  0  0
   42.6690   91.5630   61.0850 N   0  0  0  0  0  0  0  0  0  0  0  0
   42.0340   92.1960   60.0790 C   0  0  0  0  0  0  0  0  0  0  0  0
   40.9190   93.0070   59.9970 C   0  0  0  0  0  0  0  0  0  0  0  0
   40.5100   93.5110   58.8040 N   0  0  0  0  0  0  0  0  0  0  0  0
   41.1620   93.2490   57.6610 C   0  0  0  0  0  0  0  0  0  0  0  0
   42.2420   92.4650   57.7360 N   0  0  0  0  0  0  0  0  0  0  0  0
   42.6730   91.9530   58.8790 C   0  0  0  0  0  0  0  0  0  0  0  0
   42.2520   84.7890   60.0210 N   0  0  0  0  0  0  0  0  0  0  0  0
   41.6300   83.8980   59.2300 C   0  0  0  0  0  0  0  0  0  0  0  0
   41.0080   82.9810   60.0110 N   0  0  0  0  0  0  0  0  0  0  0  0
   41.2270   83.2770   61.2850 C   0  0  0  0  0  0  0  0  0  0  0  0
   40.8360   82.7910   62.5010 C   0  0  2  0  0  0  0  0  0  0  0  0
   41.3730   83.2480   63.6470 N   0  0  0  0  0  0  0  0  0  0  0  0
   42.1550   84.3580   63.6620 C   0  0  0  0  0  0  0  0  0  0  0  0
   42.4610   84.9280   62.4920 N   0  0  0  0  0  0  0  0  0  0  0  0
   42.0140   84.4130   61.3090 C   0  0  0  0  0  0  0  0  0  0  0  0
   40.4980   81.3840   62.5660 N   0  0  0  0  0  0  0  0  0  0  0  0
   40.1850   93.3210   61.1730 N   0  0  0  0  0  0  0  0  0  0  0  0
   41.6438   86.1788   57.8959 H   0  0  0  0  0  0  0  0  0  0  0  0
   44.5060   86.0228   61.1126 H   0  0  0  0  0  0  0  0  0  0  0  0
   46.2185   88.2502   56.6760 H   0  0  0  0  0  0  0  0  0  0  0  0
   47.0645   90.7342   56.0625 H   0  0  0  0  0  0  0  0  0  0  0  0
   44.4563   90.2905   61.0704 H   0  0  0  0  0  0  0  0  0  0  0  0
   40.8213   93.6629   56.7005 H   0  0  0  0  0  0  0  0  0  0  0  0
   41.6263   83.9108   58.1301 H   0  0  0  0  0  0  0  0  0  0  0  0
   39.8974   83.3645   62.4869 H   0  0  0  0  0  0  0  0  0  0  0  0
   42.5260   84.7761   64.6094 H   0  0  0  0  0  0  0  0  0  0  0  0
   43.0472   85.7748   62.4828 H   0  0  0  0  0  0  0  0  0  0  0  0
   40.4281   81.0929   63.5515 H   0  0  0  0  0  0  0  0  0  0  0  0
   39.5951   81.2258   62.0963 H   0  0  0  0  0  0  0  0  0  0  0  0
   39.3531   93.9255   61.1148 H   0  0  0  0  0  0  0  0  0  0  0  0
   40.4850   92.9440   62.0834 H   0  0  0  0  0  0  0  0  0  0  0  0
  1  2  2  0
  2 21  1  0
  2  3  1  0
  4  3  2  0
  5  4  1  0
  6  1  1  0
  6  5  2  0
  7 11  1  0
  7  5  1  0
  8  7  1  0
  9  8  2  0
  9 10  1  0
 10 11  2  0
 11 12  1  0
 12 13  1  0
 13 14  2  0
 15 14  1  0
 16 15  2  0
 16 31  1  0
 17 16  1  0
 18 19  1  0
 18 17  2  0
 19 20  2  0
 20 12  1  0
 20 15  1  0
 21 29  1  0
 22 23  2  0
 22 21  1  0
 23 24  1  0
 24 29  2  0
 24 25  1  0
 25 30  1  0
 25 26  1  0
 26 27  2  0
 28 27  1  0
 29 28  1  0
  1 32  1  0
  3 33  1  0
  8 34  1  0
  9 35  1  0
 13 36  1  0
 18 37  1  0
 22 38  1  0
 25 39  1  1
 27 40  1  0
 28 41  1  0
 30 42  1  0
 30 43  1  0
 31 44  1  0
 31 45  1  0
M  END
>  <Score>  (1) 
-8.00674

$$$$
