
     RDKit          3D

 40 43  0  0  0  0  0  0  0  0999 V2000
   39.9180   82.1700   60.3360 C   0  0  0  0  0  0  0  0  0  0  0  0
   40.2980   83.1560   59.4280 C   0  0  0  0  0  0  0  0  0  0  0  0
   40.0270   84.4950   59.6740 C   0  0  0  0  0  0  0  0  0  0  0  0
   39.3630   84.7930   60.8680 N   0  0  0  0  0  0  0  0  0  0  0  0
   38.9990   83.8100   61.7490 C   0  0  0  0  0  0  0  0  0  0  0  0
   39.2630   82.5060   61.5070 N   0  0  0  0  0  0  0  0  0  0  0  0
   40.2170   80.8440   59.9970 N   0  0  0  0  0  0  0  0  0  0  0  0
   40.4850   80.3640   58.7750 C   0  0  0  0  0  0  0  0  0  0  0  0
   40.6930   79.0570   58.8490 N   0  0  0  0  0  0  0  0  0  0  0  0
   40.5600   78.6740   60.1260 C   0  0  0  0  0  0  0  0  0  0  0  0
   40.6730   77.4260   60.7020 C   0  0  0  0  0  0  0  0  0  0  0  0
   40.9580   76.4420   59.9440 O   0  0  0  0  0  0  0  0  0  0  0  0
   40.4770   77.3200   62.0180 N   0  0  0  0  0  0  0  0  0  0  0  0
   40.1830   78.4040   62.7350 C   0  0  0  0  0  0  0  0  0  0  0  0
   39.9930   78.1370   64.0900 N   0  0  0  0  0  0  0  0  0  0  0  0
   40.0660   79.6470   62.2040 N   0  0  0  0  0  0  0  0  0  0  0  0
   40.2560   79.8160   60.8570 C   0  0  0  0  0  0  0  0  0  0  0  0
   40.6190   80.9520   57.4410 C   0  0  0  0  0  0  0  0  0  0  0  0
   39.4660   80.7290   56.4970 C   0  0  0  0  0  0  0  0  0  0  0  0
   39.7810   80.1370   55.1770 C   0  0  0  0  0  0  0  0  0  0  0  0
   38.3670   79.8920   54.6200 C   0  0  0  0  0  0  0  0  0  0  0  0
   37.4220   79.9870   55.8080 C   0  0  0  0  0  0  0  0  0  0  0  0
   38.4000   79.8040   56.9810 C   0  0  0  0  0  0  0  0  0  0  0  0
   40.8201   82.8694   58.5032 H   0  0  0  0  0  0  0  0  0  0  0  0
   40.3202   85.2829   58.9646 H   0  0  0  0  0  0  0  0  0  0  0  0
   38.4785   84.0881   62.6773 H   0  0  0  0  0  0  0  0  0  0  0  0
   40.5529   76.4018   62.4785 H   0  0  0  0  0  0  0  0  0  0  0  0
   39.7610   78.9030   64.7383 H   0  0  0  0  0  0  0  0  0  0  0  0
   40.0846   77.1737   64.4429 H   0  0  0  0  0  0  0  0  0  0  0  0
   40.7469   82.0376   57.5640 H   0  0  0  0  0  0  0  0  0  0  0  0
   41.4791   80.4441   56.9804 H   0  0  0  0  0  0  0  0  0  0  0  0
   39.1484   81.7797   56.4255 H   0  0  0  0  0  0  0  0  0  0  0  0
   40.3483   80.8366   54.5455 H   0  0  0  0  0  0  0  0  0  0  0  0
   40.4126   79.2375   55.2225 H   0  0  0  0  0  0  0  0  0  0  0  0
   38.1148   80.6559   53.8698 H   0  0  0  0  0  0  0  0  0  0  0  0
   38.2943   78.9115   54.1267 H   0  0  0  0  0  0  0  0  0  0  0  0
   36.9222   80.9660   55.8485 H   0  0  0  0  0  0  0  0  0  0  0  0
   36.5975   79.2591   55.7891 H   0  0  0  0  0  0  0  0  0  0  0  0
   38.7555   78.7669   57.0710 H   0  0  0  0  0  0  0  0  0  0  0  0
   37.9987   80.0076   57.9848 H   0  0  0  0  0  0  0  0  0  0  0  0
  1  6  2  0
  2  3  2  0
  2  1  1  0
  3  4  1  0
  4  5  2  0
  6  5  1  0
  7  1  1  0
  7 17  1  0
  8  9  2  0
  8  7  1  0
  9 10  1  0
 10 11  1  0
 10 17  2  0
 11 13  1  0
 12 11  2  0
 13 14  1  0
 14 15  1  0
 16 14  2  0
 17 16  1  0
 18  8  1  0
 19 23  1  0
 19 18  1  0
 20 19  1  0
 21 20  1  0
 21 22  1  0
 22 23  1  0
  2 24  1  0
  3 25  1  0
  5 26  1  0
 13 27  1  0
 15 28  1  0
 15 29  1  0
 18 30  1  0
 18 31  1  0
 19 32  1  0
 20 33  1  0
 20 34  1  0
 21 35  1  0
 21 36  1  0
 22 37  1  0
 22 38  1  0
 23 39  1  0
 23 40  1  0
M  END
>  <Score>  (1) 
-7.08314

$$$$
