
     RDKit          3D

 43 46  0  0  0  0  0  0  0  0999 V2000
   41.2100   81.6070   60.3550 C   0  0  0  0  0  0  0  0  0  0  0  0
   42.3470   81.3780   61.1630 C   0  0  0  0  0  0  0  0  0  0  0  0
   42.7150   80.0740   61.5290 C   0  0  0  0  0  0  0  0  0  0  0  0
   41.9390   79.0660   61.0780 N   0  0  0  0  0  0  0  0  0  0  0  0
   40.8660   79.2830   60.3140 C   0  0  0  0  0  0  0  0  0  0  0  0
   40.5470   80.5350   59.9870 N   0  0  0  0  0  0  0  0  0  0  0  0
   40.0420   78.2160   59.8340 N   0  0  0  0  0  0  0  0  0  0  0  0
   39.5400   78.3710   58.5730 C   0  0  0  0  0  0  0  0  0  0  0  0
   38.7860   77.2140   58.3500 C   0  0  0  0  0  0  0  0  0  0  0  0
   38.8400   76.4240   59.4170 N   0  0  0  0  0  0  0  0  0  0  0  0
   39.6160   77.0480   60.3280 C   0  0  0  0  0  0  0  0  0  0  0  0
   39.9960   76.6470   61.6270 N   0  0  0  0  0  0  0  0  0  0  0  0
   40.7920   82.9300   59.9510 C   0  0  0  0  0  0  0  0  0  0  0  0
   41.3070   83.3870   58.7460 C   0  0  0  0  0  0  0  0  0  0  0  0
   40.9720   84.6460   58.2590 C   0  0  0  0  0  0  0  0  0  0  0  0
   40.1300   85.4010   59.0050 C   0  0  0  0  0  0  0  0  0  0  0  0
   39.6040   84.9870   60.1930 C   0  0  0  0  0  0  0  0  0  0  0  0
   39.9490   83.7170   60.6720 C   0  0  0  0  0  0  0  0  0  0  0  0
   39.3610   83.3170   61.9490 C   0  0  0  0  0  0  0  0  0  0  0  0
   38.1760   83.2180   62.2900 O   0  0  0  0  0  0  0  0  0  0  0  0
   40.0830   82.9620   63.0570 O   0  0  0  0  0  0  0  0  0  0  0  0
   40.8500   83.6790   63.9020 C   0  0  0  0  0  0  0  0  0  0  0  0
   42.1170   84.2390   63.4870 N   0  0  0  0  0  0  0  0  0  0  0  0
   40.3670   83.8070   65.0540 O   0  0  0  0  0  0  0  0  0  0  0  0
   38.0520   76.9380   57.1100 C   0  0  0  0  0  0  0  0  0  0  0  0
   36.9590   77.6270   56.6250 C   0  0  0  0  0  0  0  0  0  0  0  0
   36.5700   77.0590   55.4470 N   0  0  0  0  0  0  0  0  0  0  0  0
   37.4480   76.0350   55.2520 C   0  0  0  0  0  0  0  0  0  0  0  0
   38.3520   75.9470   56.2510 N   0  0  0  0  0  0  0  0  0  0  0  0
   42.9497   82.2308   61.5086 H   0  0  0  0  0  0  0  0  0  0  0  0
   43.5978   79.8818   62.1564 H   0  0  0  0  0  0  0  0  0  0  0  0
   39.6942   79.2165   57.8865 H   0  0  0  0  0  0  0  0  0  0  0  0
   39.6668   75.7473   62.0052 H   0  0  0  0  0  0  0  0  0  0  0  0
   40.6025   77.2541   62.1966 H   0  0  0  0  0  0  0  0  0  0  0  0
   41.9889   82.7453   58.1687 H   0  0  0  0  0  0  0  0  0  0  0  0
   41.3754   85.0147   57.3044 H   0  0  0  0  0  0  0  0  0  0  0  0
   39.8566   86.3995   58.6332 H   0  0  0  0  0  0  0  0  0  0  0  0
   38.9233   85.6366   60.7629 H   0  0  0  0  0  0  0  0  0  0  0  0
   42.6828   84.7830   64.1540 H   0  0  0  0  0  0  0  0  0  0  0  0
   42.4536   84.0939   62.5244 H   0  0  0  0  0  0  0  0  0  0  0  0
   36.4804   78.4915   57.1084 H   0  0  0  0  0  0  0  0  0  0  0  0
   37.4231   75.3602   54.3836 H   0  0  0  0  0  0  0  0  0  0  0  0
   39.1155   75.2611   56.3377 H   0  0  0  0  0  0  0  0  0  0  0  0
  1  2  2  0
  2  3  1  0
  4  3  2  0
  5  4  1  0
  6  5  2  0
  6  1  1  0
  7  5  1  0
  7 11  1  0
  8  7  1  0
  9  8  2  0
  9 10  1  0
 10 11  2  0
 11 12  1  0
 13  1  1  0
 13 18  1  0
 14 13  2  0
 15 14  1  0
 15 16  2  0
 16 17  1  0
 17 18  2  0
 18 19  1  0
 19 20  2  0
 19 21  1  0
 21 22  1  0
 22 24  2  0
 23 22  1  0
 25  9  1  0
 26 25  2  0
 27 26  1  0
 28 27  2  0
 28 29  1  0
 29 25  1  0
  2 30  1  0
  3 31  1  0
  8 32  1  0
 12 33  1  0
 12 34  1  0
 14 35  1  0
 15 36  1  0
 16 37  1  0
 17 38  1  0
 23 39  1  0
 23 40  1  0
 26 41  1  0
 28 42  1  0
 29 43  1  0
M  END
>  <Score>  (1) 
-7.64477

$$$$
