
     RDKit          3D

 47 51  0  0  1  0  0  0  0  0999 V2000
   40.4070   80.3760   61.2780 N   0  0  0  0  0  0  0  0  0  0  0  0
   41.0560   79.9580   62.3910 C   0  0  0  0  0  0  0  0  0  0  0  0
   41.3330   78.6200   62.2940 N   0  0  0  0  0  0  0  0  0  0  0  0
   40.8650   78.1810   61.1230 C   0  0  0  0  0  0  0  0  0  0  0  0
   40.9080   77.0090   60.3990 C   0  0  2  0  0  0  0  0  0  0  0  0
   40.0620   76.8510   59.3430 N   0  0  0  0  0  0  0  0  0  0  0  0
   39.5310   77.9080   58.7340 C   0  0  0  0  0  0  0  0  0  0  0  0
   39.6520   79.1000   59.3340 N   0  0  0  0  0  0  0  0  0  0  0  0
   40.2930   79.2770   60.5130 C   0  0  0  0  0  0  0  0  0  0  0  0
   38.8890   77.7330   57.4770 N   0  0  0  0  0  0  0  0  0  0  0  0
   37.9910   76.6170   57.3260 C   0  0  0  0  0  0  0  0  0  0  0  0
   36.6420   77.2350   57.0360 C   0  0  0  0  0  0  0  0  0  0  0  0
   36.7470   77.8820   55.6800 C   0  0  0  0  0  0  0  0  0  0  0  0
   37.8250   78.9100   55.5840 C   0  0  0  0  0  0  0  0  0  0  0  0
   39.0730   78.5880   56.3430 C   0  0  0  0  0  0  0  0  0  0  0  0
   39.9950   81.7080   61.0430 C   0  0  0  0  0  0  0  0  0  0  0  0
   40.2400   82.4340   59.8550 C   0  0  0  0  0  0  0  0  0  0  0  0
   39.7750   83.7410   59.7870 C   0  0  0  0  0  0  0  0  0  0  0  0
   39.1090   84.2590   60.8540 N   0  0  0  0  0  0  0  0  0  0  0  0
   38.9000   83.5280   61.9630 C   0  0  0  0  0  0  0  0  0  0  0  0
   39.3400   82.2630   62.0550 N   0  0  0  0  0  0  0  0  0  0  0  0
   41.2010   75.8350   61.1800 N   0  0  0  0  0  0  0  0  0  0  0  0
   40.9370   74.5220   60.7000 C   0  0  0  0  0  0  0  0  0  0  0  0
   39.9420   73.5660   60.7100 C   0  0  0  0  0  0  0  0  0  0  0  0
   40.4480   72.4940   59.9940 C   0  0  0  0  0  0  0  0  0  0  0  0
   41.7350   72.8440   59.5760 C   0  0  0  0  0  0  0  0  0  0  0  0
   41.9730   74.0550   60.0220 O   0  0  0  0  0  0  0  0  0  0  0  0
   41.3212   80.5978   63.2456 H   0  0  0  0  0  0  0  0  0  0  0  0
   41.8193   77.1731   59.8052 H   0  0  0  0  0  0  0  0  0  0  0  0
   39.2363   79.9230   58.8749 H   0  0  0  0  0  0  0  0  0  0  0  0
   38.3094   75.9750   56.4914 H   0  0  0  0  0  0  0  0  0  0  0  0
   37.9691   75.9806   58.2230 H   0  0  0  0  0  0  0  0  0  0  0  0
   35.8630   76.4584   57.0266 H   0  0  0  0  0  0  0  0  0  0  0  0
   36.3693   77.9712   57.8065 H   0  0  0  0  0  0  0  0  0  0  0  0
   36.9491   77.0972   54.9362 H   0  0  0  0  0  0  0  0  0  0  0  0
   35.7938   78.3999   55.4978 H   0  0  0  0  0  0  0  0  0  0  0  0
   38.0912   79.0277   54.5232 H   0  0  0  0  0  0  0  0  0  0  0  0
   37.4177   79.8266   56.0355 H   0  0  0  0  0  0  0  0  0  0  0  0
   39.7736   78.0942   55.6536 H   0  0  0  0  0  0  0  0  0  0  0  0
   39.4481   79.5441   56.7370 H   0  0  0  0  0  0  0  0  0  0  0  0
   40.7810   81.9788   59.0123 H   0  0  0  0  0  0  0  0  0  0  0  0
   39.9426   84.3475   58.8848 H   0  0  0  0  0  0  0  0  0  0  0  0
   38.3587   83.9745   62.8101 H   0  0  0  0  0  0  0  0  0  0  0  0
   41.6150   75.9496   62.1162 H   0  0  0  0  0  0  0  0  0  0  0  0
   38.9535   73.6399   61.1870 H   0  0  0  0  0  0  0  0  0  0  0  0
   39.9327   71.5435   59.7918 H   0  0  0  0  0  0  0  0  0  0  0  0
   42.4207   72.2205   58.9835 H   0  0  0  0  0  0  0  0  0  0  0  0
  1  2  1  0
  3  2  2  0
  4  3  1  0
  5  4  1  0
  5 22  1  0
  6  5  1  0
  7  8  1  0
  7  6  2  0
  8  9  1  0
  9  4  2  0
  9  1  1  0
 10  7  1  0
 11 10  1  0
 12 11  1  0
 13 12  1  0
 14 13  1  0
 14 15  1  0
 15 10  1  0
 16  1  1  0
 16 21  1  0
 17 16  2  0
 18 17  1  0
 18 19  2  0
 19 20  1  0
 20 21  2  0
 23 24  2  0
 23 22  1  0
 25 24  1  0
 26 25  2  0
 26 27  1  0
 27 23  1  0
  2 28  1  0
  5 29  1  6
  8 30  1  0
 11 31  1  0
 11 32  1  0
 12 33  1  0
 12 34  1  0
 13 35  1  0
 13 36  1  0
 14 37  1  0
 14 38  1  0
 15 39  1  0
 15 40  1  0
 17 41  1  0
 18 42  1  0
 20 43  1  0
 22 44  1  0
 24 45  1  0
 25 46  1  0
 26 47  1  0
M  END
>  <Score>  (1) 
-7.19996

$$$$
