
     RDKit          3D

 39 42  0  0  0  0  0  0  0  0999 V2000
   44.6120   85.6800   61.3290 C   0  0  0  0  0  0  0  0  0  0  0  0
   45.4070   84.5320   61.5190 C   0  0  0  0  0  0  0  0  0  0  0  0
   44.7810   83.3160   61.6280 C   0  0  0  0  0  0  0  0  0  0  0  0
   43.4220   83.2940   61.5440 N   0  0  0  0  0  0  0  0  0  0  0  0
   42.6810   84.3730   61.3660 C   0  0  0  0  0  0  0  0  0  0  0  0
   43.2690   85.5910   61.2540 N   0  0  0  0  0  0  0  0  0  0  0  0
   45.5010   82.0750   61.8250 C   0  0  0  0  0  0  0  0  0  0  0  0
   44.9880   81.0070   62.5300 C   0  0  0  0  0  0  0  0  0  0  0  0
   45.6560   79.8160   62.7290 C   0  0  0  0  0  0  0  0  0  0  0  0
   46.9140   79.7170   62.1780 C   0  0  0  0  0  0  0  0  0  0  0  0
   47.4910   80.7460   61.4600 C   0  0  0  0  0  0  0  0  0  0  0  0
   46.7630   81.9030   61.3030 C   0  0  0  0  0  0  0  0  0  0  0  0
   41.2380   84.2680   61.2860 C   0  0  0  0  0  0  0  0  0  0  0  0
   40.4480   84.4600   60.1890 C   0  0  0  0  0  0  0  0  0  0  0  0
   39.1670   84.2700   60.5260 N   0  0  0  0  0  0  0  0  0  0  0  0
   39.1020   83.9580   61.8230 C   0  0  0  0  0  0  0  0  0  0  0  0
   40.3660   83.9550   62.2920 N   0  0  0  0  0  0  0  0  0  0  0  0
   37.9310   83.6760   62.5870 N   0  0  0  0  0  0  0  0  0  0  0  0
   40.9410   84.8160   58.8610 C   0  0  0  0  0  0  0  0  0  0  0  0
   41.4800   83.8250   58.0560 C   0  0  0  0  0  0  0  0  0  0  0  0
   41.8670   84.4210   56.8650 C   0  0  0  0  0  0  0  0  0  0  0  0
   41.5630   85.7290   56.9710 N   0  0  0  0  0  0  0  0  0  0  0  0
   41.0130   85.9680   58.1550 N   0  0  0  0  0  0  0  0  0  0  0  0
   40.7800   83.6710   63.6430 C   0  0  0  0  0  0  0  0  0  0  0  0
   40.9500   82.3170   63.7880 F   0  0  0  0  0  0  0  0  0  0  0  0
   39.8170   84.0920   64.5550 F   0  0  0  0  0  0  0  0  0  0  0  0
   41.9140   84.4150   64.0120 F   0  0  0  0  0  0  0  0  0  0  0  0
   45.0950   86.6643   61.2405 H   0  0  0  0  0  0  0  0  0  0  0  0
   46.5027   84.6090   61.5785 H   0  0  0  0  0  0  0  0  0  0  0  0
   43.9816   81.1109   62.9616 H   0  0  0  0  0  0  0  0  0  0  0  0
   45.2069   78.9888   63.2982 H   0  0  0  0  0  0  0  0  0  0  0  0
   47.4803   78.7839   62.3147 H   0  0  0  0  0  0  0  0  0  0  0  0
   48.4977   80.6442   61.0286 H   0  0  0  0  0  0  0  0  0  0  0  0
   47.2110   82.7302   60.7330 H   0  0  0  0  0  0  0  0  0  0  0  0
   38.0119   83.4466   63.5879 H   0  0  0  0  0  0  0  0  0  0  0  0
   37.0045   83.7018   62.1378 H   0  0  0  0  0  0  0  0  0  0  0  0
   41.5822   82.7607   58.3144 H   0  0  0  0  0  0  0  0  0  0  0  0
   42.3318   83.9225   56.0016 H   0  0  0  0  0  0  0  0  0  0  0  0
   41.7320   86.4373   56.2426 H   0  0  0  0  0  0  0  0  0  0  0  0
  1  2  2  0
  2  3  1  0
  3  7  1  0
  4  3  2  0
  5  4  1  0
  6  1  1  0
  6  5  2  0
  7  8  2  0
  8  9  1  0
 10  9  2  0
 11 10  1  0
 12 11  2  0
 12  7  1  0
 13  5  1  0
 13 17  1  0
 14 15  1  0
 14 13  2  0
 15 16  2  0
 16 17  1  0
 16 18  1  0
 17 24  1  0
 19 14  1  0
 20 19  1  0
 21 22  1  0
 21 20  2  0
 22 23  1  0
 23 19  2  0
 24 25  1  0
 24 27  1  0
 24 26  1  0
  1 28  1  0
  2 29  1  0
  8 30  1  0
  9 31  1  0
 10 32  1  0
 11 33  1  0
 12 34  1  0
 18 35  1  0
 18 36  1  0
 20 37  1  0
 21 38  1  0
 22 39  1  0
M  END
>  <Score>  (1) 
-7.04611

$$$$
