
     RDKit          3D

 52 55  0  0  0  0  0  0  0  0999 V2000
   41.1900   81.6030   60.3960 C   0  0  0  0  0  0  0  0  0  0  0  0
   42.3040   81.3860   61.2430 C   0  0  0  0  0  0  0  0  0  0  0  0
   42.6630   80.0930   61.6210 C   0  0  0  0  0  0  0  0  0  0  0  0
   41.9110   79.0780   61.1500 N   0  0  0  0  0  0  0  0  0  0  0  0
   40.8620   79.2850   60.3510 C   0  0  0  0  0  0  0  0  0  0  0  0
   40.5430   80.5370   60.0070 N   0  0  0  0  0  0  0  0  0  0  0  0
   40.0620   78.2210   59.8490 N   0  0  0  0  0  0  0  0  0  0  0  0
   39.5950   78.3510   58.5640 C   0  0  0  0  0  0  0  0  0  0  0  0
   38.8590   77.1910   58.3360 C   0  0  0  0  0  0  0  0  0  0  0  0
   38.8790   76.4040   59.4230 N   0  0  0  0  0  0  0  0  0  0  0  0
   39.6170   77.0430   60.3400 C   0  0  0  0  0  0  0  0  0  0  0  0
   39.9570   76.6570   61.6570 N   0  0  0  0  0  0  0  0  0  0  0  0
   40.7740   82.9320   59.9720 C   0  0  0  0  0  0  0  0  0  0  0  0
   41.2920   83.3770   58.7650 C   0  0  0  0  0  0  0  0  0  0  0  0
   40.9580   84.6290   58.2710 C   0  0  0  0  0  0  0  0  0  0  0  0
   40.1180   85.3910   59.0020 C   0  0  0  0  0  0  0  0  0  0  0  0
   39.5930   84.9870   60.1860 C   0  0  0  0  0  0  0  0  0  0  0  0
   39.9230   83.7290   60.6920 C   0  0  0  0  0  0  0  0  0  0  0  0
   39.3330   83.3440   61.9660 C   0  0  0  0  0  0  0  0  0  0  0  0
   38.1510   83.2580   62.3090 O   0  0  0  0  0  0  0  0  0  0  0  0
   40.0520   82.9900   63.0760 O   0  0  0  0  0  0  0  0  0  0  0  0
   40.8070   83.7110   63.9150 C   0  0  0  0  0  0  0  0  0  0  0  0
   42.0680   84.3050   63.4810 N   0  0  0  0  0  0  0  0  0  0  0  0
   40.3510   83.8290   65.0680 O   0  0  0  0  0  0  0  0  0  0  0  0
   38.1540   76.8800   57.0660 C   0  0  0  0  0  0  0  0  0  0  0  0
   37.1250   77.8970   56.6960 C   0  0  0  0  0  0  0  0  0  0  0  0
   36.9560   77.8130   55.1740 C   0  0  0  0  0  0  0  0  0  0  0  0
   37.2120   76.3840   54.7220 C   0  0  0  0  0  0  0  0  0  0  0  0
   38.6720   76.0170   54.8610 C   0  0  0  0  0  0  0  0  0  0  0  0
   39.2290   76.8820   55.9710 C   0  0  0  0  0  0  0  0  0  0  0  0
   42.8901   82.2435   61.6051 H   0  0  0  0  0  0  0  0  0  0  0  0
   43.5259   79.9082   62.2777 H   0  0  0  0  0  0  0  0  0  0  0  0
   39.7647   79.1864   57.8688 H   0  0  0  0  0  0  0  0  0  0  0  0
   39.6195   75.7599   62.0341 H   0  0  0  0  0  0  0  0  0  0  0  0
   40.5422   77.2729   62.2393 H   0  0  0  0  0  0  0  0  0  0  0  0
   41.9745   82.7305   58.1938 H   0  0  0  0  0  0  0  0  0  0  0  0
   41.3646   84.9891   57.3144 H   0  0  0  0  0  0  0  0  0  0  0  0
   39.8462   86.3862   58.6202 H   0  0  0  0  0  0  0  0  0  0  0  0
   38.9117   85.6467   60.7434 H   0  0  0  0  0  0  0  0  0  0  0  0
   42.6327   84.8558   64.1433 H   0  0  0  0  0  0  0  0  0  0  0  0
   42.3930   84.1733   62.5125 H   0  0  0  0  0  0  0  0  0  0  0  0
   37.6304   75.9194   57.1806 H   0  0  0  0  0  0  0  0  0  0  0  0
   36.1718   77.6726   57.1970 H   0  0  0  0  0  0  0  0  0  0  0  0
   37.4339   78.9061   57.0065 H   0  0  0  0  0  0  0  0  0  0  0  0
   35.9322   78.1078   54.9004 H   0  0  0  0  0  0  0  0  0  0  0  0
   37.6715   78.4899   54.6842 H   0  0  0  0  0  0  0  0  0  0  0  0
   36.9161   76.2833   53.6673 H   0  0  0  0  0  0  0  0  0  0  0  0
   36.6220   75.7077   55.3580 H   0  0  0  0  0  0  0  0  0  0  0  0
   38.7732   74.9530   55.1213 H   0  0  0  0  0  0  0  0  0  0  0  0
   39.2148   76.1812   53.9184 H   0  0  0  0  0  0  0  0  0  0  0  0
   40.1694   76.4589   56.3539 H   0  0  0  0  0  0  0  0  0  0  0  0
   39.4562   77.9001   55.6220 H   0  0  0  0  0  0  0  0  0  0  0  0
  1  2  2  0
  2  3  1  0
  4  3  2  0
  5  4  1  0
  6  5  2  0
  6  1  1  0
  7 11  1  0
  7  5  1  0
  8  7  1  0
  9  8  2  0
  9 10  1  0
 10 11  2  0
 11 12  1  0
 13  1  1  0
 13 18  1  0
 14 13  2  0
 15 14  1  0
 15 16  2  0
 16 17  1  0
 17 18  2  0
 18 19  1  0
 19 20  2  0
 19 21  1  0
 21 22  1  0
 22 24  2  0
 23 22  1  0
 25  9  1  0
 26 25  1  0
 27 26  1  0
 28 29  1  0
 28 27  1  0
 29 30  1  0
 30 25  1  0
  2 31  1  0
  3 32  1  0
  8 33  1  0
 12 34  1  0
 12 35  1  0
 14 36  1  0
 15 37  1  0
 16 38  1  0
 17 39  1  0
 23 40  1  0
 23 41  1  0
 25 42  1  0
 26 43  1  0
 26 44  1  0
 27 45  1  0
 27 46  1  0
 28 47  1  0
 28 48  1  0
 29 49  1  0
 29 50  1  0
 30 51  1  0
 30 52  1  0
M  END
>  <Score>  (1) 
-7.88382

$$$$
