
     RDKit          3D

 40 43  0  0  0  0  0  0  0  0999 V2000
   38.9380   80.1740   57.3180 O   0  0  0  0  0  0  0  0  0  0  0  0
   38.4630   79.0490   56.7450 C   0  0  0  0  0  0  0  0  0  0  0  0
   38.3860   77.7970   57.1840 C   0  0  0  0  0  0  0  0  0  0  0  0
   37.7780   77.0440   56.1720 C   0  0  0  0  0  0  0  0  0  0  0  0
   37.5350   77.9200   55.1420 C   0  0  0  0  0  0  0  0  0  0  0  0
   37.9510   79.0860   55.5290 O   0  0  0  0  0  0  0  0  0  0  0  0
   38.7190   76.9090   58.2660 C   0  0  0  0  0  0  0  0  0  0  0  0
   39.9220   76.3230   58.4910 C   0  0  0  0  0  0  0  0  0  0  0  0
   40.4430   75.3010   59.2490 C   0  0  0  0  0  0  0  0  0  0  0  0
   39.4420   74.7150   59.9800 N   0  0  0  0  0  0  0  0  0  0  0  0
   38.2080   75.1760   59.8640 C   0  0  0  0  0  0  0  0  0  0  0  0
   38.0400   76.1520   59.0680 N   0  0  0  0  0  0  0  0  0  0  0  0
   36.9200   77.5540   53.8340 C   0  0  0  0  0  0  0  0  0  0  0  0
   37.1140   78.4940   52.9050 F   0  0  0  0  0  0  0  0  0  0  0  0
   35.6200   77.1340   53.9650 F   0  0  0  0  0  0  0  0  0  0  0  0
   37.5920   76.3920   53.3590 F   0  0  0  0  0  0  0  0  0  0  0  0
   37.4910   75.6580   56.2630 N   0  0  0  0  0  0  0  0  0  0  0  0
   40.1230   80.4500   57.9160 C   0  0  0  0  0  0  0  0  0  0  0  0
   40.9940   80.5850   57.0070 O   0  0  0  0  0  0  0  0  0  0  0  0
   40.6830   81.5340   61.1990 C   0  0  0  0  0  0  0  0  0  0  0  0
   40.5220   80.1720   61.5260 C   0  0  0  0  0  0  0  0  0  0  0  0
   40.2820   79.5630   60.2930 C   0  0  0  0  0  0  0  0  0  0  0  0
   40.3080   80.5580   59.3130 C   0  0  0  0  0  0  0  0  0  0  0  0
   40.5430   81.6620   59.9160 O   0  0  0  0  0  0  0  0  0  0  0  0
   40.4510   83.8340   64.0800 C   0  0  0  0  0  0  0  0  0  0  0  0
   41.7780   84.2170   64.2140 C   0  0  0  0  0  0  0  0  0  0  0  0
   42.7220   83.6990   63.3300 C   0  0  0  0  0  0  0  0  0  0  0  0
   42.2380   82.8380   62.3880 N   0  0  0  0  0  0  0  0  0  0  0  0
   40.9580   82.4830   62.2770 C   0  0  0  0  0  0  0  0  0  0  0  0
   40.0750   82.9870   63.1270 N   0  0  0  0  0  0  0  0  0  0  0  0
   40.7091   76.8059   57.8933 H   0  0  0  0  0  0  0  0  0  0  0  0
   41.5008   74.9997   59.2663 H   0  0  0  0  0  0  0  0  0  0  0  0
   37.3709   74.7375   60.4271 H   0  0  0  0  0  0  0  0  0  0  0  0
   37.0408   75.1724   55.4740 H   0  0  0  0  0  0  0  0  0  0  0  0
   37.7327   75.1371   57.1180 H   0  0  0  0  0  0  0  0  0  0  0  0
   40.5734   79.7005   62.5185 H   0  0  0  0  0  0  0  0  0  0  0  0
   40.1041   78.4908   60.1234 H   0  0  0  0  0  0  0  0  0  0  0  0
   39.6984   84.2376   64.7733 H   0  0  0  0  0  0  0  0  0  0  0  0
   42.0798   84.9185   65.0057 H   0  0  0  0  0  0  0  0  0  0  0  0
   43.7875   83.9664   63.3874 H   0  0  0  0  0  0  0  0  0  0  0  0
  1 18  1  0
  2  3  2  0
  2  1  1  0
  3  7  1  0
  4 17  1  0
  4  3  1  0
  5  6  1  0
  5  4  2  0
  6  2  1  0
  7  8  2  0
  7 12  1  0
  8  9  1  0
  9 10  2  0
 11 10  1  0
 12 11  2  0
 13 15  1  0
 13  5  1  0
 14 13  1  0
 16 13  1  0
 18 23  1  0
 19 18  2  0
 20 21  2  0
 20 29  1  0
 22 21  1  0
 23 24  1  0
 23 22  2  0
 24 20  1  0
 25 26  2  0
 27 26  1  0
 28 27  2  0
 29 28  1  0
 29 30  2  0
 30 25  1  0
  8 31  1  0
  9 32  1  0
 11 33  1  0
 17 34  1  0
 17 35  1  0
 21 36  1  0
 22 37  1  0
 25 38  1  0
 26 39  1  0
 27 40  1  0
M  END
>  <Score>  (1) 
-7.02339

$$$$
