
     RDKit          3D

 41 44  0  0  0  0  0  0  0  0999 V2000
   44.6330   85.4230   61.4410 C   0  0  0  0  0  0  0  0  0  0  0  0
   45.4050   84.3160   61.8590 C   0  0  0  0  0  0  0  0  0  0  0  0
   44.7460   83.1440   62.1410 C   0  0  0  0  0  0  0  0  0  0  0  0
   43.4010   83.1230   62.0020 N   0  0  0  0  0  0  0  0  0  0  0  0
   42.6820   84.1660   61.6100 C   0  0  0  0  0  0  0  0  0  0  0  0
   43.2970   85.3340   61.3230 N   0  0  0  0  0  0  0  0  0  0  0  0
   45.4470   81.9490   62.5800 C   0  0  0  0  0  0  0  0  0  0  0  0
   44.9930   80.6600   62.2940 C   0  0  0  0  0  0  0  0  0  0  0  0
   45.6420   79.5230   62.7040 C   0  0  0  0  0  0  0  0  0  0  0  0
   46.7950   79.6810   63.4300 C   0  0  0  0  0  0  0  0  0  0  0  0
   47.3050   80.9260   63.7510 C   0  0  0  0  0  0  0  0  0  0  0  0
   46.5970   82.0340   63.3040 C   0  0  0  0  0  0  0  0  0  0  0  0
   41.2510   84.0560   61.4880 C   0  0  0  0  0  0  0  0  0  0  0  0
   40.5120   84.0990   60.3240 C   0  0  0  0  0  0  0  0  0  0  0  0
   39.2160   83.9610   60.6260 N   0  0  0  0  0  0  0  0  0  0  0  0
   39.0820   83.8300   61.9390 C   0  0  0  0  0  0  0  0  0  0  0  0
   40.3310   83.8880   62.4660 N   0  0  0  0  0  0  0  0  0  0  0  0
   37.8740   83.6600   62.6840 N   0  0  0  0  0  0  0  0  0  0  0  0
   41.0160   84.2650   58.9630 C   0  0  0  0  0  0  0  0  0  0  0  0
   41.0340   85.4880   58.3230 C   0  0  0  0  0  0  0  0  0  0  0  0
   41.5320   85.5280   57.0400 C   0  0  0  0  0  0  0  0  0  0  0  0
   42.0170   84.4170   56.3470 C   0  0  0  0  0  0  0  0  0  0  0  0
   41.9690   83.2120   57.0530 C   0  0  0  0  0  0  0  0  0  0  0  0
   41.4750   83.1760   58.3230 N   0  0  0  0  0  0  0  0  0  0  0  0
   40.6770   83.7890   63.8660 C   0  0  0  0  0  0  0  0  0  0  0  0
   40.7780   82.4660   64.2090 F   0  0  0  0  0  0  0  0  0  0  0  0
   39.6890   84.3580   64.6680 F   0  0  0  0  0  0  0  0  0  0  0  0
   41.8240   84.5190   64.1770 F   0  0  0  0  0  0  0  0  0  0  0  0
   45.1340   86.3742   61.2081 H   0  0  0  0  0  0  0  0  0  0  0  0
   46.4982   84.3901   61.9555 H   0  0  0  0  0  0  0  0  0  0  0  0
   44.0673   80.5505   61.7099 H   0  0  0  0  0  0  0  0  0  0  0  0
   45.2529   78.5235   62.4600 H   0  0  0  0  0  0  0  0  0  0  0  0
   47.3341   78.7843   63.7695 H   0  0  0  0  0  0  0  0  0  0  0  0
   48.2310   81.0338   64.3349 H   0  0  0  0  0  0  0  0  0  0  0  0
   46.9860   83.0336   63.5479 H   0  0  0  0  0  0  0  0  0  0  0  0
   37.9097   83.5696   63.7094 H   0  0  0  0  0  0  0  0  0  0  0  0
   36.9678   83.6279   62.1954 H   0  0  0  0  0  0  0  0  0  0  0  0
   40.6641   86.3971   58.8197 H   0  0  0  0  0  0  0  0  0  0  0  0
   41.5489   86.5006   56.5264 H   0  0  0  0  0  0  0  0  0  0  0  0
   42.4080   84.4853   55.3211 H   0  0  0  0  0  0  0  0  0  0  0  0
   42.3320   82.2870   56.5811 H   0  0  0  0  0  0  0  0  0  0  0  0
  1  2  2  0
  2  3  1  0
  3  7  1  0
  4  3  2  0
  5  4  1  0
  6  1  1  0
  6  5  2  0
  7 12  1  0
  8  7  2  0
  8  9  1  0
  9 10  2  0
 10 11  1  0
 12 11  2  0
 13  5  1  0
 13 17  1  0
 14 15  1  0
 14 13  2  0
 15 16  2  0
 16 17  1  0
 16 18  1  0
 17 25  1  0
 19 14  1  0
 20 19  2  0
 21 20  1  0
 22 21  2  0
 22 23  1  0
 23 24  2  0
 24 19  1  0
 25 28  1  0
 25 26  1  0
 25 27  1  0
  1 29  1  0
  2 30  1  0
  8 31  1  0
  9 32  1  0
 10 33  1  0
 11 34  1  0
 12 35  1  0
 18 36  1  0
 18 37  1  0
 20 38  1  0
 21 39  1  0
 22 40  1  0
 23 41  1  0
M  END
>  <Score>  (1) 
-7.15345

$$$$
