
     RDKit          3D

 36 38  0  0  0  0  0  0  0  0999 V2000
   43.2700   79.4390   61.8080 C   0  0  0  0  0  0  0  0  0  0  0  0
   42.0080   79.7820   61.3180 C   0  0  0  0  0  0  0  0  0  0  0  0
   41.6120   81.1120   61.3840 C   0  0  0  0  0  0  0  0  0  0  0  0
   42.4910   82.0360   61.9350 N   0  0  0  0  0  0  0  0  0  0  0  0
   43.6910   81.6360   62.3880 C   0  0  0  0  0  0  0  0  0  0  0  0
   44.0790   80.3490   62.3250 N   0  0  0  0  0  0  0  0  0  0  0  0
   41.0890   78.8150   60.7420 C   0  0  0  0  0  0  0  0  0  0  0  0
   40.8120   77.5990   61.3590 C   0  0  0  0  0  0  0  0  0  0  0  0
   39.9130   76.8830   60.5970 C   0  0  0  0  0  0  0  0  0  0  0  0
   39.6770   77.7220   59.5200 C   0  0  0  0  0  0  0  0  0  0  0  0
   40.3700   78.8170   59.6410 O   0  0  0  0  0  0  0  0  0  0  0  0
   38.8450   77.5760   58.3740 N   0  0  0  0  0  0  0  0  0  0  0  0
   38.9120   78.4380   57.3340 C   0  0  0  0  0  0  0  0  0  0  0  0
   38.1550   78.3690   56.2080 C   0  0  0  0  0  0  0  0  0  0  0  0
   37.2500   77.3210   56.1420 C   0  0  0  0  0  0  0  0  0  0  0  0
   36.5090   77.1890   55.1230 O   0  0  0  0  0  0  0  0  0  0  0  0
   37.1740   76.4560   57.1710 N   0  0  0  0  0  0  0  0  0  0  0  0
   37.9450   76.5560   58.2800 C   0  0  0  0  0  0  0  0  0  0  0  0
   37.8830   75.7540   59.2470 O   0  0  0  0  0  0  0  0  0  0  0  0
   44.5360   82.7340   62.9550 C   0  0  0  0  0  0  0  0  0  0  0  0
   45.5590   82.1850   63.7440 F   0  0  0  0  0  0  0  0  0  0  0  0
   43.7980   83.5630   63.7880 F   0  0  0  0  0  0  0  0  0  0  0  0
   45.0470   83.4770   61.9280 F   0  0  0  0  0  0  0  0  0  0  0  0
   40.3330   81.6120   60.9150 C   0  0  0  0  0  0  0  0  0  0  0  0
   40.1060   81.7370   59.6820 O   0  0  0  0  0  0  0  0  0  0  0  0
   39.3450   81.9590   61.8370 O   0  0  0  0  0  0  0  0  0  0  0  0
   39.1910   83.3090   62.2520 C   0  0  0  0  0  0  0  0  0  0  0  0
   39.8670   83.4750   63.4540 F   0  0  0  0  0  0  0  0  0  0  0  0
   39.9060   84.0700   61.3370 F   0  0  0  0  0  0  0  0  0  0  0  0
   37.9000   83.7420   62.2680 F   0  0  0  0  0  0  0  0  0  0  0  0
   43.5982   78.3901   61.7631 H   0  0  0  0  0  0  0  0  0  0  0  0
   41.2451   77.2598   62.3116 H   0  0  0  0  0  0  0  0  0  0  0  0
   39.4872   75.8884   60.7957 H   0  0  0  0  0  0  0  0  0  0  0  0
   39.6379   79.2613   57.4056 H   0  0  0  0  0  0  0  0  0  0  0  0
   38.2545   79.1031   55.3948 H   0  0  0  0  0  0  0  0  0  0  0  0
   36.4975   75.6816   57.1120 H   0  0  0  0  0  0  0  0  0  0  0  0
  1  6  2  0
  2  3  2  0
  2  1  1  0
  3  4  1  0
  4  5  2  0
  5 20  1  0
  6  5  1  0
  7  2  1  0
  7  8  2  0
  9  8  1  0
 10 11  1  0
 10  9  2  0
 11  7  1  0
 12 10  1  0
 13 12  1  0
 14 13  2  0
 15 14  1  0
 15 17  1  0
 16 15  2  0
 17 18  1  0
 18 12  1  0
 18 19  2  0
 20 21  1  0
 20 22  1  0
 23 20  1  0
 24  3  1  0
 24 26  1  0
 25 24  2  0
 26 27  1  0
 27 30  1  0
 27 28  1  0
 29 27  1  0
  1 31  1  0
  8 32  1  0
  9 33  1  0
 13 34  1  0
 14 35  1  0
 17 36  1  0
M  END
>  <Score>  (1) 
-7.15849

$$$$
