
     RDKit          3D

 50 54  0  0  0  0  0  0  0  0999 V2000
   41.3210   79.5380   62.0450 C   0  0  0  0  0  0  0  0  0  0  0  0
   41.4620   78.1250   61.5400 C   0  0  0  0  0  0  0  0  0  0  0  0
   42.6490   77.4600   61.6560 C   0  0  0  0  0  0  0  0  0  0  0  0
   42.7160   76.1730   61.1790 C   0  0  0  0  0  0  0  0  0  0  0  0
   41.6510   75.6100   60.6260 N   0  0  0  0  0  0  0  0  0  0  0  0
   40.5070   76.2940   60.5320 C   0  0  0  0  0  0  0  0  0  0  0  0
   40.4130   77.5360   60.9830 N   0  0  0  0  0  0  0  0  0  0  0  0
   39.2950   75.7250   59.9260 C   0  0  0  0  0  0  0  0  0  0  0  0
   38.2490   75.4860   60.6180 O   0  0  0  0  0  0  0  0  0  0  0  0
   39.3210   75.4380   58.4940 C   0  0  0  0  0  0  0  0  0  0  0  0
   40.2130   74.5280   57.9240 C   0  0  0  0  0  0  0  0  0  0  0  0
   40.2660   74.2150   56.5980 C   0  0  0  0  0  0  0  0  0  0  0  0
   39.3830   74.8300   55.7250 C   0  0  0  0  0  0  0  0  0  0  0  0
   38.4850   75.7320   56.2200 C   0  0  0  0  0  0  0  0  0  0  0  0
   37.6100   76.3420   55.3380 C   0  0  0  0  0  0  0  0  0  0  0  0
   36.6750   77.2750   55.7970 C   0  0  0  0  0  0  0  0  0  0  0  0
   36.6480   77.5720   57.1590 C   0  0  0  0  0  0  0  0  0  0  0  0
   37.5480   76.9260   57.9820 C   0  0  0  0  0  0  0  0  0  0  0  0
   38.4770   76.0070   57.5650 C   0  0  0  0  0  0  0  0  0  0  0  0
   40.0600   80.1900   61.4870 C   0  0  0  0  0  0  0  0  0  0  0  0
   40.2530   81.6530   61.6530 C   0  0  0  0  0  0  0  0  0  0  0  0
   40.2030   82.5380   60.5550 C   0  0  0  0  0  0  0  0  0  0  0  0
   40.3910   83.8640   60.8080 C   0  0  0  0  0  0  0  0  0  0  0  0
   40.6160   84.2540   62.1040 N   0  0  0  0  0  0  0  0  0  0  0  0
   40.6580   83.3940   63.1290 C   0  0  0  0  0  0  0  0  0  0  0  0
   40.4760   82.0830   62.9080 N   0  0  0  0  0  0  0  0  0  0  0  0
   40.3480   84.7950   59.7160 C   0  0  0  0  0  0  0  0  0  0  0  0
   41.4470   85.0430   58.9270 C   0  0  0  0  0  0  0  0  0  0  0  0
   41.2890   85.9580   57.9050 C   0  0  0  0  0  0  0  0  0  0  0  0
   40.1000   86.5910   57.6820 N   0  0  0  0  0  0  0  0  0  0  0  0
   39.0370   86.3150   58.4850 C   0  0  0  0  0  0  0  0  0  0  0  0
   39.1670   85.4230   59.4940 N   0  0  0  0  0  0  0  0  0  0  0  0
   41.2639   79.5243   63.1434 H   0  0  0  0  0  0  0  0  0  0  0  0
   42.1942   80.1193   61.7139 H   0  0  0  0  0  0  0  0  0  0  0  0
   43.5248   77.9399   62.1172 H   0  0  0  0  0  0  0  0  0  0  0  0
   43.6567   75.6081   61.2564 H   0  0  0  0  0  0  0  0  0  0  0  0
   40.9262   74.0261   58.5945 H   0  0  0  0  0  0  0  0  0  0  0  0
   40.9996   73.4844   56.2264 H   0  0  0  0  0  0  0  0  0  0  0  0
   39.4050   74.5954   54.6505 H   0  0  0  0  0  0  0  0  0  0  0  0
   37.6504   76.0910   54.2678 H   0  0  0  0  0  0  0  0  0  0  0  0
   35.9775   77.7629   55.1002 H   0  0  0  0  0  0  0  0  0  0  0  0
   35.9304   78.2998   57.5656 H   0  0  0  0  0  0  0  0  0  0  0  0
   37.5180   77.1666   59.0549 H   0  0  0  0  0  0  0  0  0  0  0  0
   39.1751   79.8544   62.0477 H   0  0  0  0  0  0  0  0  0  0  0  0
   39.8975   79.9203   60.4330 H   0  0  0  0  0  0  0  0  0  0  0  0
   40.0194   82.1718   59.5341 H   0  0  0  0  0  0  0  0  0  0  0  0
   40.8412   83.7610   64.1497 H   0  0  0  0  0  0  0  0  0  0  0  0
   42.4073   84.5359   59.1020 H   0  0  0  0  0  0  0  0  0  0  0  0
   42.1452   86.1833   57.2521 H   0  0  0  0  0  0  0  0  0  0  0  0
   38.0730   86.8165   58.3141 H   0  0  0  0  0  0  0  0  0  0  0  0
  2  3  2  0
  2  1  1  0
  4  3  1  0
  5  4  2  0
  6  5  1  0
  6  7  2  0
  7  2  1  0
  8  6  1  0
  8  9  2  0
 10  8  1  0
 11 10  2  0
 12 11  1  0
 13 14  1  0
 13 12  2  0
 14 19  2  0
 15 16  2  0
 15 14  1  0
 16 17  1  0
 17 18  2  0
 19 18  1  0
 19 10  1  0
 20 21  1  0
 20  1  1  0
 21 26  2  0
 22 23  2  0
 22 21  1  0
 23 24  1  0
 24 25  2  0
 26 25  1  0
 27 23  1  0
 28 27  2  0
 29 28  1  0
 30 29  2  0
 30 31  1  0
 31 32  2  0
 32 27  1  0
  1 33  1  0
  1 34  1  0
  3 35  1  0
  4 36  1  0
 11 37  1  0
 12 38  1  0
 13 39  1  0
 15 40  1  0
 16 41  1  0
 17 42  1  0
 18 43  1  0
 20 44  1  0
 20 45  1  0
 22 46  1  0
 25 47  1  0
 28 48  1  0
 29 49  1  0
 31 50  1  0
M  END
>  <Score>  (1) 
-7.7809

$$$$
