
     RDKit          3D

 37 40  0  0  0  0  0  0  0  0999 V2000
   41.4740   81.3940   60.4820 N   0  0  0  0  0  0  0  0  0  0  0  0
   41.5930   80.0730   60.3910 N   0  0  0  0  0  0  0  0  0  0  0  0
   40.6570   79.6160   59.5010 C   0  0  0  0  0  0  0  0  0  0  0  0
   39.9880   80.7320   59.0780 C   0  0  0  0  0  0  0  0  0  0  0  0
   40.4960   81.8500   59.6900 C   0  0  0  0  0  0  0  0  0  0  0  0
   44.3920   83.2340   61.8490 C   0  0  0  0  0  0  0  0  0  0  0  0
   43.6340   82.4230   60.9880 C   0  0  0  0  0  0  0  0  0  0  0  0
   42.2900   82.2080   61.3210 C   0  0  0  0  0  0  0  0  0  0  0  0
   41.7830   82.7810   62.4410 N   0  0  0  0  0  0  0  0  0  0  0  0
   42.5580   83.5600   63.2450 C   0  0  0  0  0  0  0  0  0  0  0  0
   43.8630   83.7850   62.9490 N   0  0  0  0  0  0  0  0  0  0  0  0
   42.0030   84.1460   64.4110 N   0  0  0  0  0  0  0  0  0  0  0  0
   40.6060   84.4950   64.4550 C   0  0  0  0  0  0  0  0  0  0  0  0
   39.7850   84.0500   63.5490 N   0  0  0  0  0  0  0  0  0  0  0  0
   40.2220   85.3430   65.5470 N   0  0  0  0  0  0  0  0  0  0  0  0
   38.7940   84.3060   63.5910 H   0  0  0  0  0  0  0  0  0  0  0  0
   40.1320   83.2470   59.5780 N   0  0  0  0  0  0  0  0  0  0  0  0
   39.2920   83.9990   60.3090 C   0  0  0  0  0  0  0  0  0  0  0  0
   39.2830   85.2520   59.8210 N   0  0  0  0  0  0  0  0  0  0  0  0
   40.1340   85.2930   58.7590 C   0  0  0  0  0  0  0  0  0  0  0  0
   40.5420   86.2530   57.8750 C   0  0  0  0  0  0  0  0  0  0  0  0
   41.4280   85.9830   56.8950 N   0  0  0  0  0  0  0  0  0  0  0  0
   41.9510   84.7370   56.7500 C   0  0  0  0  0  0  0  0  0  0  0  0
   41.5480   83.7920   57.6210 N   0  0  0  0  0  0  0  0  0  0  0  0
   40.6740   84.0190   58.6040 C   0  0  0  0  0  0  0  0  0  0  0  0
   40.4811   78.5749   59.1926 H   0  0  0  0  0  0  0  0  0  0  0  0
   39.1618   80.7328   58.3518 H   0  0  0  0  0  0  0  0  0  0  0  0
   45.4499   83.4217   61.6130 H   0  0  0  0  0  0  0  0  0  0  0  0
   44.0783   81.9742   60.0874 H   0  0  0  0  0  0  0  0  0  0  0  0
   42.6016   84.3229   65.2303 H   0  0  0  0  0  0  0  0  0  0  0  0
   39.2405   85.6380   65.6495 H   0  0  0  0  0  0  0  0  0  0  0  0
   40.9279   85.6567   66.2284 H   0  0  0  0  0  0  0  0  0  0  0  0
   38.7051   83.6458   61.1697 H   0  0  0  0  0  0  0  0  0  0  0  0
   39.6330   86.6217   57.3773 H   0  0  0  0  0  0  0  0  0  0  0  0
   41.1087   86.9402   58.5204 H   0  0  0  0  0  0  0  0  0  0  0  0
   42.6744   84.5094   55.9532 H   0  0  0  0  0  0  0  0  0  0  0  0
   41.9353   82.8426   57.5232 H   0  0  0  0  0  0  0  0  0  0  0  0
  1  8  1  0
  2  1  1  0
  3  2  2  0
  4  3  1  0
  4  5  2  0
  5  1  1  0
  6 11  2  0
  7  8  2  0
  7  6  1  0
  8  9  1  0
  9 10  2  0
 10 12  1  0
 11 10  1  0
 12 13  1  0
 13 15  1  0
 14 16  1  0
 14 13  2  0
 17  5  1  0
 17 18  1  0
 19 18  2  0
 20 19  1  0
 21 20  1  0
 22 21  1  0
 23 22  2  0
 23 24  1  0
 24 25  1  0
 25 20  2  0
 25 17  1  0
  3 26  1  0
  4 27  1  0
  6 28  1  0
  7 29  1  0
 12 30  1  0
 15 31  1  0
 15 32  1  0
 18 33  1  0
 21 34  1  0
 21 35  1  0
 23 36  1  0
 24 37  1  0
M  END
>  <Score>  (1) 
-7.23807

$$$$
