
     RDKit          3D

 50 54  0  0  0  0  0  0  0  0999 V2000
   40.8580   81.6820   56.3980 C   0  0  0  0  0  0  0  0  0  0  0  0
   40.6930   81.4490   57.7560 C   0  0  0  0  0  0  0  0  0  0  0  0
   39.7070   80.5380   58.1350 C   0  0  0  0  0  0  0  0  0  0  0  0
   38.9750   79.9400   57.1440 N   0  0  0  0  0  0  0  0  0  0  0  0
   39.1730   80.1970   55.8600 C   0  0  0  0  0  0  0  0  0  0  0  0
   40.1330   81.0870   55.4600 N   0  0  0  0  0  0  0  0  0  0  0  0
   41.4860   82.0980   58.8050 C   0  0  0  0  0  0  0  0  0  0  0  0
   42.7990   82.3210   58.9990 N   0  0  0  0  0  0  0  0  0  0  0  0
   42.9420   82.9620   60.1370 O   0  0  0  0  0  0  0  0  0  0  0  0
   41.8070   83.1780   60.7110 C   0  0  0  0  0  0  0  0  0  0  0  0
   40.8810   82.6410   59.8880 N   0  0  0  0  0  0  0  0  0  0  0  0
   41.5370   83.8300   61.9370 N   0  0  0  0  0  0  0  0  0  0  0  0
   42.5480   84.6670   62.5510 C   0  0  0  0  0  0  0  0  0  0  0  0
   42.6120   84.3550   64.0360 C   0  0  0  0  0  0  0  0  0  0  0  0
   41.2960   84.2700   64.6380 N   0  0  0  0  0  0  0  0  0  0  0  0
   40.5350   83.1910   64.0090 C   0  0  0  0  0  0  0  0  0  0  0  0
   40.2510   83.6750   62.5980 C   0  0  0  0  0  0  0  0  0  0  0  0
   38.3680   79.5340   54.8410 C   0  0  0  0  0  0  0  0  0  0  0  0
   37.6020   78.4220   55.1260 C   0  0  0  0  0  0  0  0  0  0  0  0
   36.8480   77.8160   54.1350 C   0  0  0  0  0  0  0  0  0  0  0  0
   36.9030   78.3660   52.8970 N   0  0  0  0  0  0  0  0  0  0  0  0
   37.6420   79.4470   52.6060 C   0  0  0  0  0  0  0  0  0  0  0  0
   38.3650   80.0190   53.5770 N   0  0  0  0  0  0  0  0  0  0  0  0
   37.6480   79.9630   51.2900 N   0  0  0  0  0  0  0  0  0  0  0  0
   38.3810   79.2870   50.2380 C   0  0  0  0  0  0  0  0  0  0  0  0
   37.7020   79.6970   48.9350 C   0  0  0  0  0  0  0  0  0  0  0  0
   36.3300   79.7110   49.1480 O   0  0  0  0  0  0  0  0  0  0  0  0
   35.8910   80.7660   49.9170 C   0  0  0  0  0  0  0  0  0  0  0  0
   36.9270   81.1770   50.9540 C   0  0  0  0  0  0  0  0  0  0  0  0
   41.6311   82.3982   56.0826 H   0  0  0  0  0  0  0  0  0  0  0  0
   39.5235   80.3075   59.1948 H   0  0  0  0  0  0  0  0  0  0  0  0
   43.5254   84.4641   62.0889 H   0  0  0  0  0  0  0  0  0  0  0  0
   42.2928   85.7269   62.4043 H   0  0  0  0  0  0  0  0  0  0  0  0
   43.1265   83.3925   64.1733 H   0  0  0  0  0  0  0  0  0  0  0  0
   43.1549   85.1750   64.5288 H   0  0  0  0  0  0  0  0  0  0  0  0
   41.3921   84.0790   65.6456 H   0  0  0  0  0  0  0  0  0  0  0  0
   41.1263   82.2637   63.9871 H   0  0  0  0  0  0  0  0  0  0  0  0
   39.6104   82.9643   64.5601 H   0  0  0  0  0  0  0  0  0  0  0  0
   39.7227   84.6393   62.6282 H   0  0  0  0  0  0  0  0  0  0  0  0
   39.6144   82.9593   62.0572 H   0  0  0  0  0  0  0  0  0  0  0  0
   37.5903   78.0141   56.1475 H   0  0  0  0  0  0  0  0  0  0  0  0
   36.2323   76.9285   54.3429 H   0  0  0  0  0  0  0  0  0  0  0  0
   39.4341   79.6049   50.2386 H   0  0  0  0  0  0  0  0  0  0  0  0
   38.3741   78.1955   50.3742 H   0  0  0  0  0  0  0  0  0  0  0  0
   37.9488   78.9747   48.1429 H   0  0  0  0  0  0  0  0  0  0  0  0
   38.0487   80.6929   48.6222 H   0  0  0  0  0  0  0  0  0  0  0  0
   35.6843   81.6239   49.2603 H   0  0  0  0  0  0  0  0  0  0  0  0
   34.9819   80.4478   50.4483 H   0  0  0  0  0  0  0  0  0  0  0  0
   37.6133   81.9272   50.5343 H   0  0  0  0  0  0  0  0  0  0  0  0
   36.4578   81.6294   51.8401 H   0  0  0  0  0  0  0  0  0  0  0  0
  1  2  2  0
  2  3  1  0
  2  7  1  0
  4  3  2  0
  5  4  1  0
  6  5  2  0
  6  1  1  0
  7  8  2  0
  7 11  1  0
  8  9  1  0
  9 10  1  0
 10 12  1  0
 11 10  2  0
 12 13  1  0
 12 17  1  0
 13 14  1  0
 14 15  1  0
 16 15  1  0
 17 16  1  0
 18 19  2  0
 18  5  1  0
 20 19  1  0
 21 20  2  0
 22 21  1  0
 22 23  2  0
 23 18  1  0
 24 22  1  0
 25 24  1  0
 26 27  1  0
 26 25  1  0
 27 28  1  0
 28 29  1  0
 29 24  1  0
  1 30  1  0
  3 31  1  0
 13 32  1  0
 13 33  1  0
 14 34  1  0
 14 35  1  0
 15 36  1  0
 16 37  1  0
 16 38  1  0
 17 39  1  0
 17 40  1  0
 19 41  1  0
 20 42  1  0
 25 43  1  0
 25 44  1  0
 26 45  1  0
 26 46  1  0
 28 47  1  0
 28 48  1  0
 29 49  1  0
 29 50  1  0
M  END
>  <Score>  (1) 
-7.31577

$$$$
