
     RDKit          3D

 49 51  0  0  1  0  0  0  0  0999 V2000
   39.6850   83.5970   60.0610 C   0  0  0  0  0  0  0  0  0  0  0  0
   40.0420   82.2360   60.0810 C   0  0  0  0  0  0  0  0  0  0  0  0
   40.7410   81.7750   61.2030 C   0  0  0  0  0  0  0  0  0  0  0  0
   41.0000   82.6880   62.1700 N   0  0  0  0  0  0  0  0  0  0  0  0
   40.6560   83.9610   62.1410 C   0  0  0  0  0  0  0  0  0  0  0  0
   39.9930   84.4050   61.0670 N   0  0  0  0  0  0  0  0  0  0  0  0
   40.9870   84.7870   63.2560 N   0  0  0  0  0  0  0  0  0  0  0  0
   40.4560   84.4220   64.5400 C   0  0  0  0  0  0  0  0  0  0  0  0
   40.3490   83.2050   64.9230 N   0  0  0  0  0  0  0  0  0  0  0  0
   40.0300   85.4600   65.4390 N   0  0  0  0  0  0  0  0  0  0  0  0
   40.6350   82.3730   64.4280 H   0  0  0  0  0  0  0  0  0  0  0  0
   41.1770   80.4340   61.3450 N   0  0  0  0  0  0  0  0  0  0  0  0
   40.4990   79.3540   62.0210 C   0  0  0  0  0  0  0  0  0  0  0  0
   41.4130   78.1710   61.8380 C   0  0  0  0  0  0  0  0  0  0  0  0
   42.7650   78.8320   61.8240 C   0  0  0  0  0  0  0  0  0  0  0  0
   42.4130   79.9390   60.8120 C   0  0  2  0  0  0  0  0  0  0  0  0
   43.5330   80.9150   60.8410 C   0  0  1  0  0  0  0  0  0  0  0  0
   43.2600   81.9750   59.8130 C   0  0  0  0  0  0  0  0  0  0  0  0
   43.9020   83.2550   60.2340 C   0  0  0  0  0  0  0  0  0  0  0  0
   44.0690   83.1110   61.7180 C   0  0  0  0  0  0  0  0  0  0  0  0
   43.6740   81.7140   62.0750 C   0  0  2  0  0  0  0  0  0  0  0  0
   44.9720   81.2110   62.6530 N   0  0  0  0  0  0  0  0  0  0  0  0
   45.8730   82.0980   63.3530 C   0  0  0  0  0  0  0  0  0  0  0  0
   45.3700   83.2160   63.8180 N   0  0  0  0  0  0  0  0  0  0  0  0
   47.2370   81.7110   63.4940 N   0  0  0  0  0  0  0  0  0  0  0  0
   46.0790   83.8250   64.3210 H   0  0  0  0  0  0  0  0  0  0  0  0
   39.1398   83.9988   59.1942 H   0  0  0  0  0  0  0  0  0  0  0  0
   39.7829   81.5630   59.2504 H   0  0  0  0  0  0  0  0  0  0  0  0
   41.5865   85.6171   63.1442 H   0  0  0  0  0  0  0  0  0  0  0  0
   39.6470   85.2156   66.3634 H   0  0  0  0  0  0  0  0  0  0  0  0
   40.1079   86.4481   65.1587 H   0  0  0  0  0  0  0  0  0  0  0  0
   40.3674   79.5837   63.0887 H   0  0  0  0  0  0  0  0  0  0  0  0
   39.4908   79.1732   61.6199 H   0  0  0  0  0  0  0  0  0  0  0  0
   41.3222   77.4607   62.6730 H   0  0  0  0  0  0  0  0  0  0  0  0
   41.1976   77.5740   60.9396 H   0  0  0  0  0  0  0  0  0  0  0  0
   43.0485   79.2341   62.8078 H   0  0  0  0  0  0  0  0  0  0  0  0
   43.6263   78.1929   61.5794 H   0  0  0  0  0  0  0  0  0  0  0  0
   42.2917   79.6536   59.7566 H   0  0  0  0  0  0  0  0  0  0  0  0
   44.4259   80.2879   60.7013 H   0  0  0  0  0  0  0  0  0  0  0  0
   42.1741   82.1233   59.7189 H   0  0  0  0  0  0  0  0  0  0  0  0
   43.6729   81.6598   58.8434 H   0  0  0  0  0  0  0  0  0  0  0  0
   44.8775   83.3827   59.7420 H   0  0  0  0  0  0  0  0  0  0  0  0
   43.3039   84.1368   59.9605 H   0  0  0  0  0  0  0  0  0  0  0  0
   45.1177   83.2891   61.9981 H   0  0  0  0  0  0  0  0  0  0  0  0
   43.4449   83.8416   62.2534 H   0  0  0  0  0  0  0  0  0  0  0  0
   42.7616   81.6611   62.6871 H   0  0  0  0  0  0  0  0  0  0  0  0
   45.2213   80.2172   62.5472 H   0  0  0  0  0  0  0  0  0  0  0  0
   47.8984   82.3263   63.9888 H   0  0  0  0  0  0  0  0  0  0  0  0
   47.5616   80.8159   63.1011 H   0  0  0  0  0  0  0  0  0  0  0  0
  1  2  2  0
  1  6  1  0
  2  3  1  0
  3 12  1  0
  3  4  2  0
  5  4  1  0
  5  7  1  0
  6  5  2  0
  7  8  1  0
  8  9  2  0
  8 10  1  0
 11  9  1  0
 12 13  1  0
 14 13  1  0
 15 14  1  0
 16 17  1  0
 16 12  1  0
 16 15  1  0
 17 21  1  0
 18 19  1  0
 18 17  1  0
 19 20  1  0
 20 21  1  0
 21 22  1  0
 22 23  1  0
 23 25  1  0
 23 24  2  0
 24 26  1  0
  1 27  1  0
  2 28  1  0
  7 29  1  0
 10 30  1  0
 10 31  1  0
 13 32  1  0
 13 33  1  0
 14 34  1  0
 14 35  1  0
 15 36  1  0
 15 37  1  0
 16 38  1  6
 17 39  1  6
 18 40  1  0
 18 41  1  0
 19 42  1  0
 19 43  1  0
 20 44  1  0
 20 45  1  0
 21 46  1  1
 22 47  1  0
 25 48  1  0
 25 49  1  0
M  END
>  <Score>  (1) 
-7.18614

$$$$
