
     RDKit          3D

 37 41  0  0  0  0  0  0  0  0999 V2000
   39.9900   82.2750   60.3970 C   0  0  0  0  0  0  0  0  0  0  0  0
   40.3600   83.2980   59.5190 C   0  0  0  0  0  0  0  0  0  0  0  0
   39.9960   84.6090   59.8050 C   0  0  0  0  0  0  0  0  0  0  0  0
   39.2750   84.8350   60.9640 N   0  0  0  0  0  0  0  0  0  0  0  0
   38.9290   83.8130   61.8010 C   0  0  0  0  0  0  0  0  0  0  0  0
   39.2730   82.5390   61.5390 N   0  0  0  0  0  0  0  0  0  0  0  0
   40.3760   80.9550   60.0700 N   0  0  0  0  0  0  0  0  0  0  0  0
   40.7840   80.5360   58.8750 C   0  0  0  0  0  0  0  0  0  0  0  0
   41.0800   79.2220   58.8930 N   0  0  0  0  0  0  0  0  0  0  0  0
   40.8460   78.7990   60.1570 C   0  0  0  0  0  0  0  0  0  0  0  0
   40.9770   77.5420   60.7160 C   0  0  0  0  0  0  0  0  0  0  0  0
   41.3910   76.5970   59.9630 O   0  0  0  0  0  0  0  0  0  0  0  0
   40.6610   77.3890   62.0090 N   0  0  0  0  0  0  0  0  0  0  0  0
   40.2340   78.4440   62.7110 C   0  0  0  0  0  0  0  0  0  0  0  0
   39.9360   78.1270   64.0540 N   0  0  0  0  0  0  0  0  0  0  0  0
   40.0960   79.6840   62.1970 N   0  0  0  0  0  0  0  0  0  0  0  0
   40.4030   79.8960   60.8860 C   0  0  0  0  0  0  0  0  0  0  0  0
   40.9750   81.0880   57.5780 N   0  0  0  0  0  0  0  0  0  0  0  0
   40.5790   80.6190   56.3530 C   0  0  0  0  0  0  0  0  0  0  0  0
   40.9500   81.4790   55.3870 N   0  0  0  0  0  0  0  0  0  0  0  0
   41.5840   82.5140   55.9160 C   0  0  0  0  0  0  0  0  0  0  0  0
   42.1670   83.6610   55.4180 C   0  0  0  0  0  0  0  0  0  0  0  0
   42.7470   84.5420   56.2380 N   0  0  0  0  0  0  0  0  0  0  0  0
   42.7590   84.2990   57.5690 C   0  0  0  0  0  0  0  0  0  0  0  0
   42.1950   83.1850   58.0670 N   0  0  0  0  0  0  0  0  0  0  0  0
   41.5950   82.2680   57.2530 C   0  0  0  0  0  0  0  0  0  0  0  0
   42.1270   83.8680   54.0100 N   0  0  0  0  0  0  0  0  0  0  0  0
   40.9343   83.0677   58.6095 H   0  0  0  0  0  0  0  0  0  0  0  0
   40.2712   85.4363   59.1343 H   0  0  0  0  0  0  0  0  0  0  0  0
   38.3548   84.0370   62.7121 H   0  0  0  0  0  0  0  0  0  0  0  0
   40.7463   76.4663   62.4586 H   0  0  0  0  0  0  0  0  0  0  0  0
   39.5977   78.8603   64.6934 H   0  0  0  0  0  0  0  0  0  0  0  0
   40.0569   77.1625   64.3945 H   0  0  0  0  0  0  0  0  0  0  0  0
   40.0369   79.6769   56.1840 H   0  0  0  0  0  0  0  0  0  0  0  0
   43.2348   85.0199   58.2501 H   0  0  0  0  0  0  0  0  0  0  0  0
   42.5517   84.7127   53.6014 H   0  0  0  0  0  0  0  0  0  0  0  0
   41.6733   83.1731   53.4000 H   0  0  0  0  0  0  0  0  0  0  0  0
  1  6  2  0
  2  3  2  0
  2  1  1  0
  3  4  1  0
  4  5  2  0
  6  5  1  0
  7  1  1  0
  7 17  1  0
  8  9  2  0
  8  7  1  0
  9 10  1  0
 10 11  1  0
 10 17  2  0
 11 13  1  0
 12 11  2  0
 13 14  1  0
 14 15  1  0
 16 14  2  0
 17 16  1  0
 18  8  1  0
 19 18  1  0
 20 21  1  0
 20 19  2  0
 21 26  2  0
 22 21  1  0
 22 23  2  0
 23 24  1  0
 24 25  2  0
 26 18  1  0
 26 25  1  0
 27 22  1  0
  2 28  1  0
  3 29  1  0
  5 30  1  0
 13 31  1  0
 15 32  1  0
 15 33  1  0
 19 34  1  0
 24 35  1  0
 27 36  1  0
 27 37  1  0
M  END
>  <Score>  (1) 
-8.0348

$$$$
