
     RDKit          3D

 41 45  0  0  0  0  0  0  0  0999 V2000
   41.4430   81.4350   60.5920 C   0  0  0  0  0  0  0  0  0  0  0  0
   41.0110   82.1020   59.4650 C   0  0  0  0  0  0  0  0  0  0  0  0
   40.2520   81.5140   58.4690 C   0  0  0  0  0  0  0  0  0  0  0  0
   39.9080   80.1890   58.6060 C   0  0  0  0  0  0  0  0  0  0  0  0
   40.2990   79.4710   59.6910 C   0  0  0  0  0  0  0  0  0  0  0  0
   39.9510   78.1640   59.8150 C   0  0  0  0  0  0  0  0  0  0  0  0
   40.3310   77.3870   60.9140 C   0  0  0  0  0  0  0  0  0  0  0  0
   41.0890   78.0320   61.8750 C   0  0  0  0  0  0  0  0  0  0  0  0
   41.4180   79.3540   61.7100 C   0  0  0  0  0  0  0  0  0  0  0  0
   41.0430   80.1080   60.6340 C   0  0  0  0  0  0  0  0  0  0  0  0
   39.1370   77.4570   58.8140 C   0  0  0  0  0  0  0  0  0  0  0  0
   38.3870   76.3270   58.7870 N   0  0  0  0  0  0  0  0  0  0  0  0
   37.8450   76.1170   57.6340 O   0  0  0  0  0  0  0  0  0  0  0  0
   38.1830   77.0630   56.8320 C   0  0  0  0  0  0  0  0  0  0  0  0
   38.9510   77.8450   57.5630 N   0  0  0  0  0  0  0  0  0  0  0  0
   37.9000   77.3490   55.4810 N   0  0  0  0  0  0  0  0  0  0  0  0
   36.6500   77.1290   55.0800 C   0  0  0  0  0  0  0  0  0  0  0  0
   36.5640   77.4650   53.7200 C   0  0  0  0  0  0  0  0  0  0  0  0
   37.7900   77.8840   53.3480 N   0  0  0  0  0  0  0  0  0  0  0  0
   38.6080   77.8150   54.4220 C   0  0  0  0  0  0  0  0  0  0  0  0
   44.1960   83.0430   62.6810 C   0  0  0  0  0  0  0  0  0  0  0  0
   43.6200   82.2790   61.6690 C   0  0  0  0  0  0  0  0  0  0  0  0
   42.2210   82.1570   61.5470 C   0  0  0  0  0  0  0  0  0  0  0  0
   41.5260   82.8440   62.4950 N   0  0  0  0  0  0  0  0  0  0  0  0
   42.0980   83.5750   63.4630 C   0  0  0  0  0  0  0  0  0  0  0  0
   43.4220   83.6670   63.5450 N   0  0  0  0  0  0  0  0  0  0  0  0
   41.2450   84.2920   64.4560 C   0  0  0  0  0  0  0  0  0  0  0  0
   40.8400   85.5170   64.0150 F   0  0  0  0  0  0  0  0  0  0  0  0
   42.0050   84.5100   65.6140 F   0  0  0  0  0  0  0  0  0  0  0  0
   40.2010   83.4760   64.8370 F   0  0  0  0  0  0  0  0  0  0  0  0
   41.2853   83.1612   59.3516 H   0  0  0  0  0  0  0  0  0  0  0  0
   39.9315   82.0915   57.5894 H   0  0  0  0  0  0  0  0  0  0  0  0
   39.3063   79.7028   57.8240 H   0  0  0  0  0  0  0  0  0  0  0  0
   40.0450   76.3290   61.0084 H   0  0  0  0  0  0  0  0  0  0  0  0
   41.4269   77.4868   62.7686 H   0  0  0  0  0  0  0  0  0  0  0  0
   42.0213   79.8368   62.4929 H   0  0  0  0  0  0  0  0  0  0  0  0
   35.8281   76.7501   55.7052 H   0  0  0  0  0  0  0  0  0  0  0  0
   35.6703   77.3992   53.0820 H   0  0  0  0  0  0  0  0  0  0  0  0
   39.6727   78.0913   54.4350 H   0  0  0  0  0  0  0  0  0  0  0  0
   45.2902   83.1248   62.7583 H   0  0  0  0  0  0  0  0  0  0  0  0
   44.2705   81.7598   60.9497 H   0  0  0  0  0  0  0  0  0  0  0  0
  1 10  1  0
  1 23  1  0
  2  1  2  0
  3  4  2  0
  3  2  1  0
  4  5  1  0
  5  6  1  0
  5 10  2  0
  6  7  2  0
  7  8  1  0
  9  8  2  0
 10  9  1  0
 11  6  1  0
 12 11  2  0
 13 12  1  0
 14 15  2  0
 14 13  1  0
 15 11  1  0
 16 14  1  0
 17 16  1  0
 18 17  2  0
 19 18  1  0
 19 20  2  0
 20 16  1  0
 21 26  2  0
 22 21  1  0
 23 22  2  0
 23 24  1  0
 24 25  2  0
 25 26  1  0
 25 27  1  0
 27 30  1  0
 27 29  1  0
 28 27  1  0
  2 31  1  0
  3 32  1  0
  4 33  1  0
  7 34  1  0
  8 35  1  0
  9 36  1  0
 17 37  1  0
 18 38  1  0
 20 39  1  0
 21 40  1  0
 22 41  1  0
M  END
>  <Score>  (1) 
-7.40221

$$$$
