
     RDKit          3D

 51 55  0  0  1  0  0  0  0  0999 V2000
   41.5050   78.2270   60.7210 C   0  0  0  0  0  0  0  0  0  0  0  0
   42.7440   78.4490   60.1460 C   0  0  0  0  0  0  0  0  0  0  0  0
   43.4140   77.3170   59.6790 C   0  0  0  0  0  0  0  0  0  0  0  0
   42.8380   76.0810   59.8070 C   0  0  0  0  0  0  0  0  0  0  0  0
   41.5990   75.9080   60.3890 C   0  0  0  0  0  0  0  0  0  0  0  0
   40.9630   77.0030   60.8330 N   0  0  0  0  0  0  0  0  0  0  0  0
   40.8720   81.5740   61.9150 N   0  0  0  0  0  0  0  0  0  0  0  0
   41.4410   80.2450   62.1770 C   0  0  0  0  0  0  0  0  0  0  0  0
   40.7280   79.3520   61.2430 C   0  0  1  0  0  0  0  0  0  0  0  0
   40.3930   80.2680   60.0770 C   0  0  0  0  0  0  0  0  0  0  0  0
   39.8820   81.4760   60.8870 C   0  0  0  0  0  0  0  0  0  0  0  0
   40.9430   84.5330   64.1890 C   0  0  0  0  0  0  0  0  0  0  0  0
   40.4850   83.3570   63.6010 C   0  0  0  0  0  0  0  0  0  0  0  0
   41.2490   82.7680   62.5780 C   0  0  0  0  0  0  0  0  0  0  0  0
   42.3830   83.4010   62.2430 N   0  0  0  0  0  0  0  0  0  0  0  0
   42.8200   84.5410   62.8180 C   0  0  0  0  0  0  0  0  0  0  0  0
   42.0910   85.1110   63.8010 N   0  0  0  0  0  0  0  0  0  0  0  0
   41.0260   74.5640   60.5020 C   0  0  0  0  0  0  0  0  0  0  0  0
   39.7510   74.1930   60.7260 C   0  0  0  0  0  0  0  0  0  0  0  0
   39.7200   72.8020   60.7470 C   0  0  0  0  0  0  0  0  0  0  0  0
   41.0050   72.4130   60.5300 C   0  0  0  0  0  0  0  0  0  0  0  0
   41.7600   73.4740   60.3870 O   0  0  0  0  0  0  0  0  0  0  0  0
   41.5710   71.1040   60.4450 N   0  0  0  0  0  0  0  0  0  0  0  0
   42.3380   70.4910   61.3670 C   0  0  0  0  0  0  0  0  0  0  0  0
   42.7880   69.2030   61.0790 C   0  0  0  0  0  0  0  0  0  0  0  0
   43.6320   68.5550   62.1160 C   0  0  0  0  0  0  0  0  0  0  0  0
   42.4500   68.5890   59.8860 C   0  0  0  0  0  0  0  0  0  0  0  0
   42.8820   67.4190   59.6710 O   0  0  0  0  0  0  0  0  0  0  0  0
   41.6830   69.2450   59.0040 N   0  0  0  0  0  0  0  0  0  0  0  0
   41.2520   70.4780   59.2790 C   0  0  0  0  0  0  0  0  0  0  0  0
   40.5380   70.9820   58.3630 O   0  0  0  0  0  0  0  0  0  0  0  0
   43.1752   79.4575   60.0620 H   0  0  0  0  0  0  0  0  0  0  0  0
   44.4033   77.4175   59.2088 H   0  0  0  0  0  0  0  0  0  0  0  0
   43.3798   75.1992   59.4344 H   0  0  0  0  0  0  0  0  0  0  0  0
   42.5222   80.2373   61.9746 H   0  0  0  0  0  0  0  0  0  0  0  0
   41.3224   79.9366   63.2262 H   0  0  0  0  0  0  0  0  0  0  0  0
   39.8814   78.8838   61.7666 H   0  0  0  0  0  0  0  0  0  0  0  0
   39.6142   79.8445   59.4258 H   0  0  0  0  0  0  0  0  0  0  0  0
   41.2144   80.4726   59.3746 H   0  0  0  0  0  0  0  0  0  0  0  0
   39.8509   82.3873   60.2718 H   0  0  0  0  0  0  0  0  0  0  0  0
   38.8555   81.3590   61.2646 H   0  0  0  0  0  0  0  0  0  0  0  0
   40.3506   84.9993   64.9900 H   0  0  0  0  0  0  0  0  0  0  0  0
   39.5420   82.8967   63.9310 H   0  0  0  0  0  0  0  0  0  0  0  0
   43.7627   85.0021   62.4884 H   0  0  0  0  0  0  0  0  0  0  0  0
   38.8921   74.8657   60.8665 H   0  0  0  0  0  0  0  0  0  0  0  0
   38.8441   72.1557   60.9052 H   0  0  0  0  0  0  0  0  0  0  0  0
   42.5998   70.9882   62.3126 H   0  0  0  0  0  0  0  0  0  0  0  0
   43.2662   68.8359   63.1146 H   0  0  0  0  0  0  0  0  0  0  0  0
   43.5804   67.4623   62.0006 H   0  0  0  0  0  0  0  0  0  0  0  0
   44.6743   68.8871   62.0006 H   0  0  0  0  0  0  0  0  0  0  0  0
   41.4258   68.7971   58.1129 H   0  0  0  0  0  0  0  0  0  0  0  0
  1  6  1  0
  1  9  1  0
  2  1  2  0
  3  4  2  0
  3  2  1  0
  4  5  1  0
  5 18  1  0
  5  6  2  0
  7  8  1  0
  7 14  1  0
  9  8  1  0
 10 11  1  0
 10  9  1  0
 11  7  1  0
 13 12  2  0
 14 13  1  0
 15 14  2  0
 15 16  1  0
 16 17  2  0
 17 12  1  0
 18 19  2  0
 19 20  1  0
 21 20  2  0
 22 18  1  0
 22 21  1  0
 23 21  1  0
 23 24  1  0
 25 24  2  0
 25 26  1  0
 27 25  1  0
 28 27  2  0
 29 30  1  0
 29 27  1  0
 30 23  1  0
 31 30  2  0
  2 32  1  0
  3 33  1  0
  4 34  1  0
  8 35  1  0
  8 36  1  0
  9 37  1  1
 10 38  1  0
 10 39  1  0
 11 40  1  0
 11 41  1  0
 12 42  1  0
 13 43  1  0
 16 44  1  0
 19 45  1  0
 20 46  1  0
 24 47  1  0
 26 48  1  0
 26 49  1  0
 26 50  1  0
 29 51  1  0
M  END
>  <Score>  (1) 
-7.2788

$$$$
