
     RDKit          3D

 39 42  0  0  0  0  0  0  0  0999 V2000
   40.4950   81.4000   56.5530 C   0  0  0  0  0  0  0  0  0  0  0  0
   41.2300   81.7590   55.4890 N   0  0  0  0  0  0  0  0  0  0  0  0
   40.7810   81.1360   54.4270 O   0  0  0  0  0  0  0  0  0  0  0  0
   39.7830   80.3780   54.7220 C   0  0  0  0  0  0  0  0  0  0  0  0
   39.5970   80.5350   56.0460 N   0  0  0  0  0  0  0  0  0  0  0  0
   39.0170   79.5420   53.8710 N   0  0  0  0  0  0  0  0  0  0  0  0
   39.4990   79.2120   52.5470 C   0  0  0  0  0  0  0  0  0  0  0  0
   38.3780   79.3710   51.5340 C   0  0  0  0  0  0  0  0  0  0  0  0
   37.1530   78.7340   52.0190 N   0  0  0  0  0  0  0  0  0  0  0  0
   36.7250   79.3810   53.2430 C   0  0  0  0  0  0  0  0  0  0  0  0
   37.7330   79.0040   54.3160 C   0  0  0  0  0  0  0  0  0  0  0  0
   40.0840   80.8740   58.9970 C   0  0  0  0  0  0  0  0  0  0  0  0
   40.4980   81.7390   57.9880 C   0  0  0  0  0  0  0  0  0  0  0  0
   40.9530   83.0300   58.3340 C   0  0  0  0  0  0  0  0  0  0  0  0
   40.9540   83.3420   59.6670 N   0  0  0  0  0  0  0  0  0  0  0  0
   40.5440   82.4680   60.6030 C   0  0  0  0  0  0  0  0  0  0  0  0
   40.1080   81.2370   60.2920 N   0  0  0  0  0  0  0  0  0  0  0  0
   40.6480   83.0450   61.9000 N   0  0  0  0  0  0  0  0  0  0  0  0
   41.9410   83.1230   62.3300 C   0  0  0  0  0  0  0  0  0  0  0  0
   42.2090   83.6650   63.5830 C   0  0  0  0  0  0  0  0  0  0  0  0
   41.1440   84.1100   64.3490 C   0  0  0  0  0  0  0  0  0  0  0  0
   41.3670   84.6030   65.4840 O   0  0  0  0  0  0  0  0  0  0  0  0
   39.8860   84.0100   63.8750 N   0  0  0  0  0  0  0  0  0  0  0  0
   39.6230   83.4810   62.6530 C   0  0  0  0  0  0  0  0  0  0  0  0
   38.4740   83.3600   62.1560 O   0  0  0  0  0  0  0  0  0  0  0  0
   40.3279   79.8850   52.2824 H   0  0  0  0  0  0  0  0  0  0  0  0
   39.8494   78.1693   52.5387 H   0  0  0  0  0  0  0  0  0  0  0  0
   38.6784   78.9021   50.5854 H   0  0  0  0  0  0  0  0  0  0  0  0
   38.1850   80.4434   51.3832 H   0  0  0  0  0  0  0  0  0  0  0  0
   36.4143   78.8233   51.3068 H   0  0  0  0  0  0  0  0  0  0  0  0
   36.7066   80.4725   53.1077 H   0  0  0  0  0  0  0  0  0  0  0  0
   35.7111   79.0605   53.5246 H   0  0  0  0  0  0  0  0  0  0  0  0
   37.7917   77.9103   54.4176 H   0  0  0  0  0  0  0  0  0  0  0  0
   37.4458   79.4084   55.2978 H   0  0  0  0  0  0  0  0  0  0  0  0
   39.7283   79.8683   58.7286 H   0  0  0  0  0  0  0  0  0  0  0  0
   41.2894   83.7482   57.5717 H   0  0  0  0  0  0  0  0  0  0  0  0
   42.7618   82.7615   61.6932 H   0  0  0  0  0  0  0  0  0  0  0  0
   43.2411   83.7384   63.9562 H   0  0  0  0  0  0  0  0  0  0  0  0
   39.1035   84.3439   64.4556 H   0  0  0  0  0  0  0  0  0  0  0  0
  1 13  1  0
  2  1  2  0
  3  4  1  0
  3  2  1  0
  4  5  2  0
  5  1  1  0
  6 11  1  0
  6  4  1  0
  7  6  1  0
  8  9  1  0
  8  7  1  0
  9 10  1  0
 10 11  1  0
 12 17  2  0
 13 14  2  0
 13 12  1  0
 14 15  1  0
 15 16  2  0
 16 18  1  0
 17 16  1  0
 18 19  1  0
 18 24  1  0
 19 20  2  0
 20 21  1  0
 21 22  2  0
 23 21  1  0
 24 23  1  0
 25 24  2  0
  7 26  1  0
  7 27  1  0
  8 28  1  0
  8 29  1  0
  9 30  1  0
 10 31  1  0
 10 32  1  0
 11 33  1  0
 11 34  1  0
 12 35  1  0
 14 36  1  0
 19 37  1  0
 20 38  1  0
 23 39  1  0
M  END
>  <Score>  (1) 
-7.34541

$$$$
