
     RDKit          3D

 46 50  0  0  0  0  0  0  0  0999 V2000
   41.2750   84.2240   61.3320 C   0  0  0  0  0  0  0  0  0  0  0  0
   40.5080   84.4140   60.2220 C   0  0  0  0  0  0  0  0  0  0  0  0
   39.2080   84.2490   60.5250 N   0  0  0  0  0  0  0  0  0  0  0  0
   39.1110   83.9530   61.8180 C   0  0  0  0  0  0  0  0  0  0  0  0
   40.3700   83.9350   62.3230 N   0  0  0  0  0  0  0  0  0  0  0  0
   37.9200   83.6980   62.5610 N   0  0  0  0  0  0  0  0  0  0  0  0
   40.9170   84.7400   58.8990 N   0  0  0  0  0  0  0  0  0  0  0  0
   40.6990   85.9410   58.2980 C   0  0  0  0  0  0  0  0  0  0  0  0
   41.2110   85.9240   57.0470 N   0  0  0  0  0  0  0  0  0  0  0  0
   41.7640   84.7040   56.8360 C   0  0  0  0  0  0  0  0  0  0  0  0
   42.4290   84.0520   55.8040 C   0  0  0  0  0  0  0  0  0  0  0  0
   42.6020   84.7070   54.7560 O   0  0  0  0  0  0  0  0  0  0  0  0
   42.8580   82.7710   55.9600 N   0  0  0  0  0  0  0  0  0  0  0  0
   42.6590   82.0890   57.1000 C   0  0  0  0  0  0  0  0  0  0  0  0
   43.1350   80.7530   57.1870 N   0  0  0  0  0  0  0  0  0  0  0  0
   42.0160   82.7110   58.1020 N   0  0  0  0  0  0  0  0  0  0  0  0
   41.5720   83.9710   58.0070 C   0  0  0  0  0  0  0  0  0  0  0  0
   44.6700   85.5650   61.4490 C   0  0  0  0  0  0  0  0  0  0  0  0
   45.4420   84.3940   61.6340 C   0  0  0  0  0  0  0  0  0  0  0  0
   44.7850   83.1920   61.7140 C   0  0  0  0  0  0  0  0  0  0  0  0
   43.4280   83.2030   61.6090 N   0  0  0  0  0  0  0  0  0  0  0  0
   42.7050   84.3080   61.4330 C   0  0  0  0  0  0  0  0  0  0  0  0
   43.3150   85.5060   61.3510 N   0  0  0  0  0  0  0  0  0  0  0  0
   45.4840   81.9420   61.9030 C   0  0  0  0  0  0  0  0  0  0  0  0
   44.8910   80.8250   62.4780 C   0  0  0  0  0  0  0  0  0  0  0  0
   45.5270   79.6160   62.6740 C   0  0  0  0  0  0  0  0  0  0  0  0
   46.8400   79.5460   62.2600 C   0  0  0  0  0  0  0  0  0  0  0  0
   47.4960   80.6150   61.6810 C   0  0  0  0  0  0  0  0  0  0  0  0
   46.7810   81.7850   61.5240 C   0  0  0  0  0  0  0  0  0  0  0  0
   40.7490   83.6590   63.6870 C   0  0  0  0  0  0  0  0  0  0  0  0
   40.9110   82.3070   63.8410 F   0  0  0  0  0  0  0  0  0  0  0  0
   39.7660   84.0920   64.5750 F   0  0  0  0  0  0  0  0  0  0  0  0
   41.8840   84.4030   64.0690 F   0  0  0  0  0  0  0  0  0  0  0  0
   37.9769   83.4779   63.5656 H   0  0  0  0  0  0  0  0  0  0  0  0
   37.0033   83.7340   62.0928 H   0  0  0  0  0  0  0  0  0  0  0  0
   40.1841   86.7962   58.7600 H   0  0  0  0  0  0  0  0  0  0  0  0
   43.3499   82.3102   55.1812 H   0  0  0  0  0  0  0  0  0  0  0  0
   42.9935   80.2112   58.0515 H   0  0  0  0  0  0  0  0  0  0  0  0
   43.6215   80.3264   56.3856 H   0  0  0  0  0  0  0  0  0  0  0  0
   45.1746   86.5402   61.3833 H   0  0  0  0  0  0  0  0  0  0  0  0
   46.5380   84.4456   61.7115 H   0  0  0  0  0  0  0  0  0  0  0  0
   43.8424   80.9101   62.7992 H   0  0  0  0  0  0  0  0  0  0  0  0
   45.0156   78.7576   63.1341 H   0  0  0  0  0  0  0  0  0  0  0  0
   47.3871   78.6014   62.3961 H   0  0  0  0  0  0  0  0  0  0  0  0
   48.5447   80.5369   61.3585 H   0  0  0  0  0  0  0  0  0  0  0  0
   47.2916   82.6438   61.0639 H   0  0  0  0  0  0  0  0  0  0  0  0
  1 22  1  0
  1  5  1  0
  2  3  1  0
  2  1  2  0
  3  4  2  0
  4  5  1  0
  4  6  1  0
  5 30  1  0
  7  2  1  0
  8  7  1  0
  9  8  2  0
 10  9  1  0
 10 17  2  0
 11 13  1  0
 11 10  1  0
 12 11  2  0
 13 14  1  0
 14 15  1  0
 14 16  2  0
 17 16  1  0
 17  7  1  0
 18 19  2  0
 19 20  1  0
 20 24  1  0
 21 20  2  0
 22 21  1  0
 23 22  2  0
 23 18  1  0
 24 25  2  0
 25 26  1  0
 27 26  2  0
 28 27  1  0
 29 28  2  0
 29 24  1  0
 30 31  1  0
 30 33  1  0
 30 32  1  0
  6 34  1  0
  6 35  1  0
  8 36  1  0
 13 37  1  0
 15 38  1  0
 15 39  1  0
 18 40  1  0
 19 41  1  0
 25 42  1  0
 26 43  1  0
 27 44  1  0
 28 45  1  0
 29 46  1  0
M  END
>  <Score>  (1) 
-7.83104

$$$$
