
     RDKit          3D

 42 45  0  0  0  0  0  0  0  0999 V2000
   40.8810   78.9380   60.1600 C   0  0  0  0  0  0  0  0  0  0  0  0
   40.4450   77.7240   60.6980 C   0  0  0  0  0  0  0  0  0  0  0  0
   39.5400   77.1480   59.8230 C   0  0  0  0  0  0  0  0  0  0  0  0
   39.4610   78.0490   58.7730 C   0  0  0  0  0  0  0  0  0  0  0  0
   40.2540   79.0510   59.0300 O   0  0  0  0  0  0  0  0  0  0  0  0
   38.6260   77.8910   57.5840 C   0  0  0  0  0  0  0  0  0  0  0  0
   37.5030   77.0920   57.6460 C   0  0  0  0  0  0  0  0  0  0  0  0
   36.6650   76.8990   56.5490 C   0  0  0  0  0  0  0  0  0  0  0  0
   37.0730   77.5860   55.4030 C   0  0  0  0  0  0  0  0  0  0  0  0
   38.1780   78.3770   55.3300 C   0  0  0  0  0  0  0  0  0  0  0  0
   38.9470   78.5180   56.4380 N   0  0  0  0  0  0  0  0  0  0  0  0
   38.5080   79.0460   54.0810 C   0  0  0  0  0  0  0  0  0  0  0  0
   38.1020   78.7510   52.7960 C   0  0  0  0  0  0  0  0  0  0  0  0
   38.7270   79.7230   52.0230 C   0  0  0  0  0  0  0  0  0  0  0  0
   39.4600   80.5470   52.7930 N   0  0  0  0  0  0  0  0  0  0  0  0
   39.3140   80.1220   54.0340 N   0  0  0  0  0  0  0  0  0  0  0  0
   43.0780   79.3270   61.3080 C   0  0  0  0  0  0  0  0  0  0  0  0
   41.8470   79.7840   60.8550 C   0  0  0  0  0  0  0  0  0  0  0  0
   41.5290   81.1100   61.0770 C   0  0  0  0  0  0  0  0  0  0  0  0
   42.4360   81.9070   61.7310 N   0  0  0  0  0  0  0  0  0  0  0  0
   43.6250   81.3950   62.1490 C   0  0  0  0  0  0  0  0  0  0  0  0
   43.9330   80.1110   61.9330 N   0  0  0  0  0  0  0  0  0  0  0  0
   44.5020   82.3890   62.8420 C   0  0  0  0  0  0  0  0  0  0  0  0
   45.4180   81.6830   63.6540 F   0  0  0  0  0  0  0  0  0  0  0  0
   43.7890   83.1910   63.7070 F   0  0  0  0  0  0  0  0  0  0  0  0
   45.1440   83.1360   61.9140 F   0  0  0  0  0  0  0  0  0  0  0  0
   40.2810   81.7350   60.6640 C   0  0  0  0  0  0  0  0  0  0  0  0
   40.0970   82.0500   59.4500 O   0  0  0  0  0  0  0  0  0  0  0  0
   39.2760   81.9960   61.5910 O   0  0  0  0  0  0  0  0  0  0  0  0
   39.1700   83.3040   62.1710 C   0  0  0  0  0  0  0  0  0  0  0  0
   39.9070   83.3110   63.3370 F   0  0  0  0  0  0  0  0  0  0  0  0
   39.8370   84.1610   61.3140 F   0  0  0  0  0  0  0  0  0  0  0  0
   37.8800   83.7210   62.3230 F   0  0  0  0  0  0  0  0  0  0  0  0
   40.7679   77.2965   61.6587 H   0  0  0  0  0  0  0  0  0  0  0  0
   39.0056   76.1931   59.9355 H   0  0  0  0  0  0  0  0  0  0  0  0
   37.2605   76.5898   58.5941 H   0  0  0  0  0  0  0  0  0  0  0  0
   35.7666   76.2652   56.5825 H   0  0  0  0  0  0  0  0  0  0  0  0
   36.4585   77.4802   54.4968 H   0  0  0  0  0  0  0  0  0  0  0  0
   37.4400   77.9385   52.4618 H   0  0  0  0  0  0  0  0  0  0  0  0
   38.6346   79.8068   50.9301 H   0  0  0  0  0  0  0  0  0  0  0  0
   40.0230   81.3496   52.4772 H   0  0  0  0  0  0  0  0  0  0  0  0
   43.3484   78.2742   61.1392 H   0  0  0  0  0  0  0  0  0  0  0  0
  1  2  2  0
  1 18  1  0
  3  2  1  0
  4  5  1  0
  4  3  2  0
  5  1  1  0
  6  7  2  0
  6  4  1  0
  8  7  1  0
  9  8  2  0
 10  9  1  0
 10 11  2  0
 11  6  1  0
 12 10  1  0
 13 12  1  0
 14 15  1  0
 14 13  2  0
 15 16  1  0
 16 12  2  0
 17 22  2  0
 18 19  2  0
 18 17  1  0
 19 20  1  0
 20 21  2  0
 21 23  1  0
 22 21  1  0
 23 24  1  0
 23 25  1  0
 26 23  1  0
 27 19  1  0
 27 29  1  0
 28 27  2  0
 29 30  1  0
 30 33  1  0
 30 31  1  0
 32 30  1  0
  2 34  1  0
  3 35  1  0
  7 36  1  0
  8 37  1  0
  9 38  1  0
 13 39  1  0
 14 40  1  0
 15 41  1  0
 17 42  1  0
M  END
>  <Score>  (1) 
-7.05087

$$$$
