
     RDKit          3D

 40 44  0  0  0  0  0  0  0  0999 V2000
   40.8010   80.6590   60.2130 C   0  0  0  0  0  0  0  0  0  0  0  0
   42.1020   80.2400   60.4750 C   0  0  0  0  0  0  0  0  0  0  0  0
   42.4450   78.9340   60.1880 C   0  0  0  0  0  0  0  0  0  0  0  0
   41.4950   78.1010   59.6590 N   0  0  0  0  0  0  0  0  0  0  0  0
   40.2350   78.5350   59.4130 C   0  0  0  0  0  0  0  0  0  0  0  0
   39.8920   79.8180   59.6920 N   0  0  0  0  0  0  0  0  0  0  0  0
   40.4710   82.0280   60.5210 C   0  0  0  0  0  0  0  0  0  0  0  0
   39.5590   82.3350   61.5310 C   0  0  0  0  0  0  0  0  0  0  0  0
   39.3240   83.6610   61.7350 C   0  0  0  0  0  0  0  0  0  0  0  0
   39.8970   84.6560   61.0460 N   0  0  0  0  0  0  0  0  0  0  0  0
   40.7920   84.3380   60.0540 C   0  0  0  0  0  0  0  0  0  0  0  0
   41.0430   83.0320   59.8320 N   0  0  0  0  0  0  0  0  0  0  0  0
   41.4730   85.2850   59.2460 N   0  0  0  0  0  0  0  0  0  0  0  0
   40.9590   85.7320   58.0550 C   0  0  0  0  0  0  0  0  0  0  0  0
   41.7880   86.6110   57.4940 N   0  0  0  0  0  0  0  0  0  0  0  0
   42.8400   86.7310   58.3280 C   0  0  0  0  0  0  0  0  0  0  0  0
   42.6260   85.9130   59.3900 N   0  0  0  0  0  0  0  0  0  0  0  0
   39.2570   77.6100   58.8480 C   0  0  0  0  0  0  0  0  0  0  0  0
   38.8560   76.4070   59.3790 C   0  0  0  0  0  0  0  0  0  0  0  0
   37.9450   75.8590   58.5600 N   0  0  0  0  0  0  0  0  0  0  0  0
   37.7510   76.6880   57.5130 C   0  0  0  0  0  0  0  0  0  0  0  0
   36.9230   76.5720   56.4180 C   0  0  0  0  0  0  0  0  0  0  0  0
   36.8820   77.5680   55.4370 C   0  0  0  0  0  0  0  0  0  0  0  0
   37.7010   78.6840   55.5940 C   0  0  0  0  0  0  0  0  0  0  0  0
   38.5180   78.7620   56.7100 C   0  0  0  0  0  0  0  0  0  0  0  0
   38.5670   77.7980   57.6710 C   0  0  0  0  0  0  0  0  0  0  0  0
   42.8409   80.9344   60.9015 H   0  0  0  0  0  0  0  0  0  0  0  0
   43.4643   78.5683   60.3809 H   0  0  0  0  0  0  0  0  0  0  0  0
   39.0608   81.5550   62.1255 H   0  0  0  0  0  0  0  0  0  0  0  0
   38.6097   83.9352   62.5253 H   0  0  0  0  0  0  0  0  0  0  0  0
   40.8220   84.8778   57.3756 H   0  0  0  0  0  0  0  0  0  0  0  0
   39.9926   86.2222   58.2441 H   0  0  0  0  0  0  0  0  0  0  0  0
   43.7168   87.3774   58.1751 H   0  0  0  0  0  0  0  0  0  0  0  0
   43.2667   85.7991   60.1884 H   0  0  0  0  0  0  0  0  0  0  0  0
   39.2211   75.9669   60.3187 H   0  0  0  0  0  0  0  0  0  0  0  0
   37.4723   74.9556   58.7063 H   0  0  0  0  0  0  0  0  0  0  0  0
   36.2844   75.6824   56.3137 H   0  0  0  0  0  0  0  0  0  0  0  0
   36.2200   77.4726   54.5637 H   0  0  0  0  0  0  0  0  0  0  0  0
   37.6990   79.4893   54.8447 H   0  0  0  0  0  0  0  0  0  0  0  0
   39.1600   79.6477   56.8260 H   0  0  0  0  0  0  0  0  0  0  0  0
  1  2  2  0
  1  7  1  0
  3  2  1  0
  4  3  2  0
  5  4  1  0
  5  6  2  0
  6  1  1  0
  7  8  2  0
  8  9  1  0
 10  9  2  0
 11 10  1  0
 12 11  2  0
 12  7  1  0
 13 17  1  0
 13 11  1  0
 14 13  1  0
 15 14  1  0
 15 16  2  0
 16 17  1  0
 18 19  2  0
 18  5  1  0
 20 19  1  0
 21 26  2  0
 21 20  1  0
 22 21  1  0
 23 24  1  0
 23 22  2  0
 24 25  2  0
 25 26  1  0
 26 18  1  0
  2 27  1  0
  3 28  1  0
  8 29  1  0
  9 30  1  0
 14 31  1  0
 14 32  1  0
 16 33  1  0
 17 34  1  0
 19 35  1  0
 20 36  1  0
 22 37  1  0
 23 38  1  0
 24 39  1  0
 25 40  1  0
M  END
>  <Score>  (1) 
-7.18505

$$$$
