
     RDKit          3D

 46 50  0  0  1  0  0  0  0  0999 V2000
   41.8170   82.2660   61.5920 C   0  0  0  0  0  0  0  0  0  0  0  0
   42.3970   83.2420   60.7970 C   0  0  0  0  0  0  0  0  0  0  0  0
   42.6790   84.4990   61.2910 C   0  0  0  0  0  0  0  0  0  0  0  0
   42.3500   84.7170   62.6080 N   0  0  0  0  0  0  0  0  0  0  0  0
   41.7840   83.7670   63.3910 C   0  0  0  0  0  0  0  0  0  0  0  0
   41.5230   82.5550   62.8790 N   0  0  0  0  0  0  0  0  0  0  0  0
   41.5660   81.0020   60.9920 N   0  0  0  0  0  0  0  0  0  0  0  0
   41.7860   80.6700   59.7150 C   0  0  0  0  0  0  0  0  0  0  0  0
   41.4330   79.3880   59.4890 N   0  0  0  0  0  0  0  0  0  0  0  0
   40.9780   78.9110   60.6710 C   0  0  0  0  0  0  0  0  0  0  0  0
   40.4980   77.6570   60.9800 C   0  0  0  0  0  0  0  0  0  0  0  0
   40.4530   76.7880   60.0670 O   0  0  0  0  0  0  0  0  0  0  0  0
   40.1000   77.4250   62.2440 N   0  0  0  0  0  0  0  0  0  0  0  0
   40.1790   78.4080   63.1650 C   0  0  0  0  0  0  0  0  0  0  0  0
   39.7270   78.0170   64.4450 N   0  0  0  0  0  0  0  0  0  0  0  0
   40.6500   79.6430   62.8720 N   0  0  0  0  0  0  0  0  0  0  0  0
   41.0590   79.9300   61.6320 C   0  0  0  0  0  0  0  0  0  0  0  0
   43.2760   85.5410   60.5120 N   0  0  0  0  0  0  0  0  0  0  0  0
   43.9500   86.6160   61.1920 C   0  0  0  0  0  0  0  0  0  0  0  0
   45.0090   87.2970   60.4090 C   0  0  0  0  0  0  0  0  0  0  0  0
   45.1890   86.7190   59.0190 C   0  0  0  0  0  0  0  0  0  0  0  0
   43.8300   86.5660   58.3750 C   0  0  0  0  0  0  0  0  0  0  0  0
   43.1470   85.4230   59.0820 C   0  0  2  0  0  0  0  0  0  0  0  0
   41.7090   85.6130   58.8310 N   0  0  0  0  0  0  0  0  0  0  0  0
   40.5980   85.1900   59.4250 C   0  0  0  0  0  0  0  0  0  0  0  0
   39.5050   85.6890   58.7450 C   0  0  0  0  0  0  0  0  0  0  0  0
   39.9920   86.4260   57.7250 N   0  0  0  0  0  0  0  0  0  0  0  0
   41.3220   86.3830   57.7720 C   0  0  0  0  0  0  0  0  0  0  0  0
   42.6378   83.0093   59.7492 H   0  0  0  0  0  0  0  0  0  0  0  0
   41.5400   83.9884   64.4405 H   0  0  0  0  0  0  0  0  0  0  0  0
   42.1981   81.3490   58.9540 H   0  0  0  0  0  0  0  0  0  0  0  0
   39.7356   76.4986   62.5083 H   0  0  0  0  0  0  0  0  0  0  0  0
   39.7430   78.6900   65.2246 H   0  0  0  0  0  0  0  0  0  0  0  0
   39.3814   77.0589   64.5987 H   0  0  0  0  0  0  0  0  0  0  0  0
   43.1964   87.3677   61.4697 H   0  0  0  0  0  0  0  0  0  0  0  0
   44.4565   86.1593   62.0550 H   0  0  0  0  0  0  0  0  0  0  0  0
   44.7443   88.3604   60.3139 H   0  0  0  0  0  0  0  0  0  0  0  0
   45.9572   87.1539   60.9479 H   0  0  0  0  0  0  0  0  0  0  0  0
   45.8103   87.3963   58.4146 H   0  0  0  0  0  0  0  0  0  0  0  0
   45.6845   85.7390   59.0831 H   0  0  0  0  0  0  0  0  0  0  0  0
   43.2462   87.4905   58.4955 H   0  0  0  0  0  0  0  0  0  0  0  0
   43.9210   86.3690   57.2966 H   0  0  0  0  0  0  0  0  0  0  0  0
   43.5738   84.4705   58.7349 H   0  0  0  0  0  0  0  0  0  0  0  0
   40.5560   84.5457   60.3156 H   0  0  0  0  0  0  0  0  0  0  0  0
   38.4455   85.5192   58.9871 H   0  0  0  0  0  0  0  0  0  0  0  0
   42.0012   86.8877   57.0692 H   0  0  0  0  0  0  0  0  0  0  0  0
  1  6  2  0
  2  3  2  0
  2  1  1  0
  3  4  1  0
  4  5  2  0
  6  5  1  0
  7  1  1  0
  7 17  1  0
  8  7  1  0
  9  8  2  0
  9 10  1  0
 10 11  1  0
 10 17  2  0
 11 13  1  0
 12 11  2  0
 13 14  1  0
 14 15  1  0
 16 14  2  0
 17 16  1  0
 18 19  1  0
 18  3  1  0
 20 19  1  0
 21 20  1  0
 22 21  1  0
 22 23  1  0
 23 18  1  0
 24 23  1  0
 24 25  1  0
 26 25  2  0
 27 28  2  0
 27 26  1  0
 28 24  1  0
  2 29  1  0
  5 30  1  0
  8 31  1  0
 13 32  1  0
 15 33  1  0
 15 34  1  0
 19 35  1  0
 19 36  1  0
 20 37  1  0
 20 38  1  0
 21 39  1  0
 21 40  1  0
 22 41  1  0
 22 42  1  0
 23 43  1  6
 25 44  1  0
 26 45  1  0
 28 46  1  0
M  END
>  <Score>  (1) 
-7.24618

$$$$
