
     RDKit          3D

 51 55  0  0  0  0  0  0  0  0999 V2000
   40.5610   80.0570   60.7660 C   0  0  0  0  0  0  0  0  0  0  0  0
   41.7570   80.2650   61.4590 C   0  0  0  0  0  0  0  0  0  0  0  0
   42.4590   79.1130   61.8540 C   0  0  0  0  0  0  0  0  0  0  0  0
   41.9410   77.9080   61.5430 N   0  0  0  0  0  0  0  0  0  0  0  0
   40.7930   77.7430   60.8780 C   0  0  0  0  0  0  0  0  0  0  0  0
   40.1150   78.8100   60.4970 N   0  0  0  0  0  0  0  0  0  0  0  0
   42.2350   81.5430   61.7450 N   0  0  0  0  0  0  0  0  0  0  0  0
   43.3210   82.0880   61.1420 C   0  0  0  0  0  0  0  0  0  0  0  0
   43.5280   83.3340   61.6330 N   0  0  0  0  0  0  0  0  0  0  0  0
   42.5820   83.5820   62.5410 C   0  0  0  0  0  0  0  0  0  0  0  0
   42.3170   84.6660   63.3460 C   0  0  0  0  0  0  0  0  0  0  0  0
   41.2200   84.5710   64.1600 N   0  0  0  0  0  0  0  0  0  0  0  0
   40.4570   83.5050   64.2190 C   0  0  0  0  0  0  0  0  0  0  0  0
   40.7560   82.4770   63.4410 N   0  0  0  0  0  0  0  0  0  0  0  0
   41.7920   82.4490   62.5890 C   0  0  0  0  0  0  0  0  0  0  0  0
   40.3680   76.3660   60.6190 C   0  0  0  0  0  0  0  0  0  0  0  0
   38.9370   76.1910   60.2510 C   0  0  0  0  0  0  0  0  0  0  0  0
   38.7870   75.9830   58.7830 C   0  0  0  0  0  0  0  0  0  0  0  0
   38.9960   74.7420   58.2210 C   0  0  0  0  0  0  0  0  0  0  0  0
   38.8420   74.6020   56.8320 C   0  0  0  0  0  0  0  0  0  0  0  0
   38.4910   75.7620   56.1820 C   0  0  0  0  0  0  0  0  0  0  0  0
   38.2880   76.9860   56.7500 C   0  0  0  0  0  0  0  0  0  0  0  0
   38.4440   77.0790   58.0880 N   0  0  0  0  0  0  0  0  0  0  0  0
   37.9250   78.1400   56.0050 N   0  0  0  0  0  0  0  0  0  0  0  0
   38.3360   79.4510   56.4680 C   0  0  0  0  0  0  0  0  0  0  0  0
   37.3310   80.4200   55.8310 C   0  0  0  0  0  0  0  0  0  0  0  0
   37.4120   80.4070   54.4630 O   0  0  0  0  0  0  0  0  0  0  0  0
   37.4760   79.1730   53.8820 C   0  0  0  0  0  0  0  0  0  0  0  0
   37.1510   78.0140   54.7880 C   0  0  0  0  0  0  0  0  0  0  0  0
   39.9719   80.9244   60.4334 H   0  0  0  0  0  0  0  0  0  0  0  0
   43.4084   79.1929   62.4038 H   0  0  0  0  0  0  0  0  0  0  0  0
   43.9369   81.5958   60.3749 H   0  0  0  0  0  0  0  0  0  0  0  0
   43.1957   84.8281   63.9876 H   0  0  0  0  0  0  0  0  0  0  0  0
   42.0953   85.4930   62.6555 H   0  0  0  0  0  0  0  0  0  0  0  0
   39.5918   83.4669   64.8972 H   0  0  0  0  0  0  0  0  0  0  0  0
   40.1535   81.6432   63.4930 H   0  0  0  0  0  0  0  0  0  0  0  0
   40.9798   75.9731   59.7936 H   0  0  0  0  0  0  0  0  0  0  0  0
   40.5015   75.8273   61.5687 H   0  0  0  0  0  0  0  0  0  0  0  0
   38.5330   75.3163   60.7818 H   0  0  0  0  0  0  0  0  0  0  0  0
   38.3873   77.1005   60.5351 H   0  0  0  0  0  0  0  0  0  0  0  0
   39.2769   73.8813   58.8457 H   0  0  0  0  0  0  0  0  0  0  0  0
   38.9896   73.6458   56.3086 H   0  0  0  0  0  0  0  0  0  0  0  0
   38.3604   75.6964   55.0918 H   0  0  0  0  0  0  0  0  0  0  0  0
   38.2879   79.5078   57.5655 H   0  0  0  0  0  0  0  0  0  0  0  0
   39.3742   79.6848   56.1897 H   0  0  0  0  0  0  0  0  0  0  0  0
   36.3140   80.1269   56.1307 H   0  0  0  0  0  0  0  0  0  0  0  0
   37.5668   81.4365   56.1789 H   0  0  0  0  0  0  0  0  0  0  0  0
   36.7661   79.1563   53.0419 H   0  0  0  0  0  0  0  0  0  0  0  0
   38.5242   79.0353   53.5782 H   0  0  0  0  0  0  0  0  0  0  0  0
   36.0780   78.0238   55.0299 H   0  0  0  0  0  0  0  0  0  0  0  0
   37.3974   77.0670   54.2855 H   0  0  0  0  0  0  0  0  0  0  0  0
  1  2  2  0
  2  7  1  0
  2  3  1  0
  4  3  2  0
  5  4  1  0
  6  1  1  0
  6  5  2  0
  7 15  1  0
  8  9  2  0
  8  7  1  0
  9 10  1  0
 10 15  2  0
 10 11  1  0
 11 12  1  0
 12 13  2  0
 14 13  1  0
 15 14  1  0
 16  5  1  0
 17 16  1  0
 18 17  1  0
 19 18  2  0
 20 19  1  0
 21 22  1  0
 21 20  2  0
 22 23  2  0
 23 18  1  0
 24 25  1  0
 24 22  1  0
 26 25  1  0
 27 26  1  0
 28 27  1  0
 28 29  1  0
 29 24  1  0
  1 30  1  0
  3 31  1  0
  8 32  1  0
 11 33  1  0
 11 34  1  0
 13 35  1  0
 14 36  1  0
 16 37  1  0
 16 38  1  0
 17 39  1  0
 17 40  1  0
 19 41  1  0
 20 42  1  0
 21 43  1  0
 25 44  1  0
 25 45  1  0
 26 46  1  0
 26 47  1  0
 28 48  1  0
 28 49  1  0
 29 50  1  0
 29 51  1  0
M  END
>  <Score>  (1) 
-7.29003

$$$$
