
     RDKit          3D

 41 45  0  0  0  0  0  0  0  0999 V2000
   41.6720   76.5780   60.3680 C   0  0  0  0  0  0  0  0  0  0  0  0
   40.3940   76.1920   60.7150 C   0  0  0  0  0  0  0  0  0  0  0  0
   40.0620   74.8740   60.5620 C   0  0  0  0  0  0  0  0  0  0  0  0
   41.0410   74.0410   60.0690 C   0  0  0  0  0  0  0  0  0  0  0  0
   42.4420   75.1130   59.8170 S   0  0  0  0  0  0  0  0  0  0  0  0
   44.0570   79.3600   60.0990 C   0  0  0  0  0  0  0  0  0  0  0  0
   43.2990   80.4520   60.5840 C   0  0  0  0  0  0  0  0  0  0  0  0
   41.9720   80.2030   60.9990 C   0  0  0  0  0  0  0  0  0  0  0  0
   41.5080   78.9390   60.9080 N   0  0  0  0  0  0  0  0  0  0  0  0
   42.2550   77.9270   60.4420 C   0  0  0  0  0  0  0  0  0  0  0  0
   43.5260   78.1260   60.0370 N   0  0  0  0  0  0  0  0  0  0  0  0
   41.1280   81.2360   61.5020 N   0  0  0  0  0  0  0  0  0  0  0  0
   39.7880   81.3870   61.3010 C   0  0  0  0  0  0  0  0  0  0  0  0
   39.3990   82.5000   61.9620 N   0  0  0  0  0  0  0  0  0  0  0  0
   40.4820   83.0440   62.5710 C   0  0  0  0  0  0  0  0  0  0  0  0
   40.7090   84.1540   63.3660 C   0  0  0  0  0  0  0  0  0  0  0  0
   41.9250   84.4570   63.8460 N   0  0  0  0  0  0  0  0  0  0  0  0
   42.9680   83.6730   63.5540 C   0  0  0  0  0  0  0  0  0  0  0  0
   42.7960   82.5720   62.7760 N   0  0  0  0  0  0  0  0  0  0  0  0
   41.5760   82.2490   62.2830 C   0  0  0  0  0  0  0  0  0  0  0  0
   40.9590   72.6350   59.8150 N   0  0  0  0  0  0  0  0  0  0  0  0
   41.2710   71.8200   60.8380 C   0  0  0  0  0  0  0  0  0  0  0  0
   41.2070   70.4710   60.6420 C   0  0  0  0  0  0  0  0  0  0  0  0
   40.8210   70.0030   59.3980 C   0  0  0  0  0  0  0  0  0  0  0  0
   40.7600   68.7690   59.2140 O   0  0  0  0  0  0  0  0  0  0  0  0
   40.5290   70.8930   58.4380 N   0  0  0  0  0  0  0  0  0  0  0  0
   40.5790   72.2380   58.5840 C   0  0  0  0  0  0  0  0  0  0  0  0
   40.2960   73.0160   57.6580 O   0  0  0  0  0  0  0  0  0  0  0  0
   41.5420   69.5560   61.7450 C   0  0  0  0  0  0  0  0  0  0  0  0
   39.6659   76.9201   61.1020 H   0  0  0  0  0  0  0  0  0  0  0  0
   39.0612   74.4978   60.8204 H   0  0  0  0  0  0  0  0  0  0  0  0
   45.0935   79.5225   59.7686 H   0  0  0  0  0  0  0  0  0  0  0  0
   43.7296   81.4629   60.6362 H   0  0  0  0  0  0  0  0  0  0  0  0
   39.1409   80.7235   60.7085 H   0  0  0  0  0  0  0  0  0  0  0  0
   39.8624   84.8113   63.6132 H   0  0  0  0  0  0  0  0  0  0  0  0
   43.9666   83.9195   63.9440 H   0  0  0  0  0  0  0  0  0  0  0  0
   41.5716   72.2321   61.8126 H   0  0  0  0  0  0  0  0  0  0  0  0
   40.2449   70.5248   57.5190 H   0  0  0  0  0  0  0  0  0  0  0  0
   41.3582   70.0579   62.7064 H   0  0  0  0  0  0  0  0  0  0  0  0
   40.9157   68.6543   61.6765 H   0  0  0  0  0  0  0  0  0  0  0  0
   42.6025   69.2719   61.6765 H   0  0  0  0  0  0  0  0  0  0  0  0
  1 10  1  0
  1  2  2  0
  3  2  1  0
  4  3  2  0
  5  4  1  0
  5  1  1  0
  6  7  2  0
  7  8  1  0
  8 12  1  0
  9  8  2  0
 10  9  1  0
 11  6  1  0
 11 10  2  0
 12 20  1  0
 13 12  1  0
 13 14  2  0
 14 15  1  0
 15 16  2  0
 16 17  1  0
 18 17  2  0
 19 18  1  0
 20 15  1  0
 20 19  2  0
 21  4  1  0
 21 22  1  0
 23 22  2  0
 23 29  1  0
 24 23  1  0
 25 24  2  0
 26 27  1  0
 26 24  1  0
 27 21  1  0
 28 27  2  0
  2 30  1  0
  3 31  1  0
  6 32  1  0
  7 33  1  0
 13 34  1  0
 16 35  1  0
 18 36  1  0
 22 37  1  0
 26 38  1  0
 29 39  1  0
 29 40  1  0
 29 41  1  0
M  END
>  <Score>  (1) 
-7.36514

$$$$
