
     RDKit          3D

 34 37  0  0  0  0  0  0  0  0999 V2000
   39.8860   82.2260   60.3070 C   0  0  0  0  0  0  0  0  0  0  0  0
   40.2670   83.2110   59.3420 C   0  0  0  0  0  0  0  0  0  0  0  0
   39.9890   84.5480   59.6060 C   0  0  0  0  0  0  0  0  0  0  0  0
   39.3570   84.8280   60.8030 N   0  0  0  0  0  0  0  0  0  0  0  0
   39.0030   83.8510   61.7190 C   0  0  0  0  0  0  0  0  0  0  0  0
   39.2520   82.5200   61.5070 N   0  0  0  0  0  0  0  0  0  0  0  0
   40.1810   80.8860   59.9580 N   0  0  0  0  0  0  0  0  0  0  0  0
   40.4010   80.3960   58.7480 C   0  0  0  0  0  0  0  0  0  0  0  0
   40.6920   79.0920   58.8010 N   0  0  0  0  0  0  0  0  0  0  0  0
   40.6510   78.7290   60.1110 C   0  0  0  0  0  0  0  0  0  0  0  0
   40.8400   77.4990   60.6940 C   0  0  0  0  0  0  0  0  0  0  0  0
   41.1380   76.5110   59.9480 O   0  0  0  0  0  0  0  0  0  0  0  0
   40.7000   77.4080   62.0210 N   0  0  0  0  0  0  0  0  0  0  0  0
   40.3870   78.4960   62.7250 C   0  0  0  0  0  0  0  0  0  0  0  0
   40.2520   78.2410   64.1010 N   0  0  0  0  0  0  0  0  0  0  0  0
   40.1940   79.7270   62.1880 N   0  0  0  0  0  0  0  0  0  0  0  0
   40.3240   79.8740   60.8440 C   0  0  0  0  0  0  0  0  0  0  0  0
   40.2940   80.9280   57.3940 C   0  0  0  0  0  0  0  0  0  0  0  0
   39.0560   80.3560   56.6780 C   0  0  0  0  0  0  0  0  0  0  0  0
   38.2220   79.2870   57.0320 C   0  0  0  0  0  0  0  0  0  0  0  0
   37.2680   79.2070   56.0420 C   0  0  0  0  0  0  0  0  0  0  0  0
   37.5480   80.2090   55.1380 C   0  0  0  0  0  0  0  0  0  0  0  0
   38.5910   80.8440   55.5540 O   0  0  0  0  0  0  0  0  0  0  0  0
   40.7701   82.9166   58.4092 H   0  0  0  0  0  0  0  0  0  0  0  0
   40.2590   85.3441   58.8965 H   0  0  0  0  0  0  0  0  0  0  0  0
   38.5036   84.1546   62.6509 H   0  0  0  0  0  0  0  0  0  0  0  0
   40.8331   76.5037   62.4957 H   0  0  0  0  0  0  0  0  0  0  0  0
   40.0114   79.0075   64.7456 H   0  0  0  0  0  0  0  0  0  0  0  0
   40.3937   77.2877   64.4644 H   0  0  0  0  0  0  0  0  0  0  0  0
   40.2084   82.0236   57.4427 H   0  0  0  0  0  0  0  0  0  0  0  0
   41.1928   80.6390   56.8295 H   0  0  0  0  0  0  0  0  0  0  0  0
   38.3111   78.6432   57.9194 H   0  0  0  0  0  0  0  0  0  0  0  0
   36.4419   78.4830   55.9839 H   0  0  0  0  0  0  0  0  0  0  0  0
   36.9809   80.4289   54.2215 H   0  0  0  0  0  0  0  0  0  0  0  0
  1  6  2  0
  2  3  2  0
  2  1  1  0
  3  4  1  0
  4  5  2  0
  6  5  1  0
  7  1  1  0
  7 17  1  0
  8  9  2  0
  8  7  1  0
  9 10  1  0
 10 11  1  0
 10 17  2  0
 11 13  1  0
 12 11  2  0
 13 14  1  0
 14 15  1  0
 16 14  2  0
 17 16  1  0
 18  8  1  0
 19 20  2  0
 19 18  1  0
 21 20  1  0
 22 23  1  0
 22 21  2  0
 23 19  1  0
  2 24  1  0
  3 25  1  0
  5 26  1  0
 13 27  1  0
 15 28  1  0
 15 29  1  0
 18 30  1  0
 18 31  1  0
 20 32  1  0
 21 33  1  0
 22 34  1  0
M  END
>  <Score>  (1) 
-7.20293

$$$$
