
     RDKit          3D

 52 55  0  0  1  0  0  0  0  0999 V2000
   40.4220   83.8470   58.6050 C   0  0  0  0  0  0  0  0  0  0  0  0
   39.5360   84.5760   59.3730 C   0  0  0  0  0  0  0  0  0  0  0  0
   39.1700   84.0540   60.6210 C   0  0  0  0  0  0  0  0  0  0  0  0
   39.7070   82.8680   60.9940 N   0  0  0  0  0  0  0  0  0  0  0  0
   40.5600   82.1820   60.2370 C   0  0  0  0  0  0  0  0  0  0  0  0
   40.9330   82.6740   59.0110 N   0  0  0  0  0  0  0  0  0  0  0  0
   41.0790   80.9330   60.7140 N   0  0  0  0  0  0  0  0  0  0  0  0
   40.2130   79.8490   61.0130 C   0  0  0  0  0  0  0  0  0  0  0  0
   40.9450   78.5230   60.8850 C   0  0  0  0  0  0  0  0  0  0  0  0
   42.1930   78.4480   61.7070 C   0  0  0  0  0  0  0  0  0  0  0  0
   42.8960   79.7550   61.8600 C   0  0  0  0  0  0  0  0  0  0  0  0
   42.5130   80.8130   60.8830 C   0  0  2  0  0  0  0  0  0  0  0  0
   43.0490   82.1130   61.4060 C   0  0  0  0  0  0  0  0  0  0  0  0
   44.0220   82.8160   60.7540 C   0  0  0  0  0  0  0  0  0  0  0  0
   44.4550   84.0110   61.3170 C   0  0  0  0  0  0  0  0  0  0  0  0
   43.9290   84.4700   62.4780 N   0  0  0  0  0  0  0  0  0  0  0  0
   42.9580   83.7530   63.1110 C   0  0  0  0  0  0  0  0  0  0  0  0
   42.5330   82.5930   62.5740 N   0  0  0  0  0  0  0  0  0  0  0  0
   42.4020   84.2270   64.3300 N   0  0  0  0  0  0  0  0  0  0  0  0
   41.0140   84.2070   64.5480 C   0  0  0  0  0  0  0  0  0  0  0  0
   40.2880   83.3200   63.9310 N   0  0  0  0  0  0  0  0  0  0  0  0
   40.4600   85.1800   65.4530 N   0  0  0  0  0  0  0  0  0  0  0  0
   39.2430   83.3230   64.1220 H   0  0  0  0  0  0  0  0  0  0  0  0
   45.4650   84.7540   60.6540 N   0  0  0  0  0  0  0  0  0  0  0  0
   46.8010   84.2740   60.3620 C   0  0  0  0  0  0  0  0  0  0  0  0
   47.1970   84.9540   59.0810 C   0  0  0  0  0  0  0  0  0  0  0  0
   46.1350   85.9760   58.8100 C   0  0  0  0  0  0  0  0  0  0  0  0
   45.4210   86.0880   60.1350 C   0  0  0  0  0  0  0  0  0  0  0  0
   40.7205   84.2425   57.6229 H   0  0  0  0  0  0  0  0  0  0  0  0
   39.1308   85.5347   59.0171 H   0  0  0  0  0  0  0  0  0  0  0  0
   38.4687   84.5906   61.2769 H   0  0  0  0  0  0  0  0  0  0  0  0
   39.8410   79.9578   62.0425 H   0  0  0  0  0  0  0  0  0  0  0  0
   39.3752   79.8598   60.3003 H   0  0  0  0  0  0  0  0  0  0  0  0
   40.2672   77.7187   61.2070 H   0  0  0  0  0  0  0  0  0  0  0  0
   41.2448   78.4195   59.8317 H   0  0  0  0  0  0  0  0  0  0  0  0
   41.9264   78.0789   62.7084 H   0  0  0  0  0  0  0  0  0  0  0  0
   42.8834   77.7743   61.1783 H   0  0  0  0  0  0  0  0  0  0  0  0
   42.6855   80.1357   62.8703 H   0  0  0  0  0  0  0  0  0  0  0  0
   43.9600   79.5466   61.6746 H   0  0  0  0  0  0  0  0  0  0  0  0
   42.9289   80.5479   59.8998 H   0  0  0  0  0  0  0  0  0  0  0  0
   44.4506   82.4471   59.8105 H   0  0  0  0  0  0  0  0  0  0  0  0
   43.0257   84.5906   65.0646 H   0  0  0  0  0  0  0  0  0  0  0  0
   39.4466   85.1944   65.6364 H   0  0  0  0  0  0  0  0  0  0  0  0
   41.0771   85.8617   65.9171 H   0  0  0  0  0  0  0  0  0  0  0  0
   47.4935   84.5458   61.1723 H   0  0  0  0  0  0  0  0  0  0  0  0
   46.8317   83.1782   60.2705 H   0  0  0  0  0  0  0  0  0  0  0  0
   48.1765   85.4415   59.1941 H   0  0  0  0  0  0  0  0  0  0  0  0
   47.2842   84.2346   58.2534 H   0  0  0  0  0  0  0  0  0  0  0  0
   46.5792   86.9391   58.5182 H   0  0  0  0  0  0  0  0  0  0  0  0
   45.4675   85.6964   57.9816 H   0  0  0  0  0  0  0  0  0  0  0  0
   45.9428   86.7875   60.8046 H   0  0  0  0  0  0  0  0  0  0  0  0
   44.3961   86.4754   60.0373 H   0  0  0  0  0  0  0  0  0  0  0  0
  1  6  2  0
  1  2  1  0
  2  3  2  0
  3  4  1  0
  5  7  1  0
  5  4  2  0
  6  5  1  0
  7 12  1  0
  7  8  1  0
  9  8  1  0
  9 10  1  0
 10 11  1  0
 12 13  1  0
 12 11  1  0
 13 18  2  0
 14 15  2  0
 14 13  1  0
 15 16  1  0
 16 17  2  0
 17 19  1  0
 18 17  1  0
 19 20  1  0
 20 22  1  0
 21 23  1  0
 21 20  2  0
 24 15  1  0
 25 24  1  0
 26 25  1  0
 27 26  1  0
 27 28  1  0
 28 24  1  0
  1 29  1  0
  2 30  1  0
  3 31  1  0
  8 32  1  0
  8 33  1  0
  9 34  1  0
  9 35  1  0
 10 36  1  0
 10 37  1  0
 11 38  1  0
 11 39  1  0
 12 40  1  6
 14 41  1  0
 19 42  1  0
 22 43  1  0
 22 44  1  0
 25 45  1  0
 25 46  1  0
 26 47  1  0
 26 48  1  0
 27 49  1  0
 27 50  1  0
 28 51  1  0
 28 52  1  0
M  END
>  <Score>  (1) 
-7.41111

$$$$
