
     RDKit          3D

 50 54  0  0  0  0  0  0  0  0999 V2000
   39.8880   82.2490   60.3860 C   0  0  0  0  0  0  0  0  0  0  0  0
   40.2580   83.2370   59.4290 C   0  0  0  0  0  0  0  0  0  0  0  0
   39.9750   84.5660   59.7010 C   0  0  0  0  0  0  0  0  0  0  0  0
   39.3350   84.8560   60.9220 N   0  0  0  0  0  0  0  0  0  0  0  0
   38.9960   83.8660   61.8260 C   0  0  0  0  0  0  0  0  0  0  0  0
   39.2580   82.5490   61.5870 N   0  0  0  0  0  0  0  0  0  0  0  0
   40.1870   80.9270   60.0180 N   0  0  0  0  0  0  0  0  0  0  0  0
   40.4050   80.4410   58.8050 C   0  0  0  0  0  0  0  0  0  0  0  0
   40.6750   79.1410   58.8570 N   0  0  0  0  0  0  0  0  0  0  0  0
   40.6320   78.7560   60.1380 C   0  0  0  0  0  0  0  0  0  0  0  0
   40.8060   77.5190   60.7070 C   0  0  0  0  0  0  0  0  0  0  0  0
   41.0960   76.5360   59.9640 O   0  0  0  0  0  0  0  0  0  0  0  0
   40.6680   77.4010   62.0210 N   0  0  0  0  0  0  0  0  0  0  0  0
   40.3660   78.4870   62.7460 C   0  0  0  0  0  0  0  0  0  0  0  0
   40.2470   78.2270   64.1220 N   0  0  0  0  0  0  0  0  0  0  0  0
   40.1890   79.7250   62.2280 N   0  0  0  0  0  0  0  0  0  0  0  0
   40.3170   79.9010   60.8860 C   0  0  0  0  0  0  0  0  0  0  0  0
   40.3480   80.9880   57.4640 C   0  0  0  0  0  0  0  0  0  0  0  0
   40.8840   80.0520   56.3890 C   0  0  0  0  0  0  0  0  0  0  0  0
   42.2130   80.0120   55.9580 C   0  0  0  0  0  0  0  0  0  0  0  0
   42.4230   79.0940   55.0200 N   0  0  0  0  0  0  0  0  0  0  0  0
   41.2300   78.5270   54.8330 C   0  0  0  0  0  0  0  0  0  0  0  0
   40.8590   77.4990   53.9830 C   0  0  0  0  0  0  0  0  0  0  0  0
   39.5360   77.0560   53.9690 C   0  0  0  0  0  0  0  0  0  0  0  0
   38.6100   77.6460   54.7970 C   0  0  0  0  0  0  0  0  0  0  0  0
   38.9540   78.6880   55.6670 C   0  0  0  0  0  0  0  0  0  0  0  0
   40.2710   79.0840   55.6460 C   0  0  0  0  0  0  0  0  0  0  0  0
   37.8590   79.2410   56.4820 C   0  0  0  0  0  0  0  0  0  0  0  0
   36.7390   78.2490   56.7030 C   0  0  0  0  0  0  0  0  0  0  0  0
   37.1750   80.3270   55.5950 C   0  0  0  0  0  0  0  0  0  0  0  0
   40.7586   82.9506   58.4923 H   0  0  0  0  0  0  0  0  0  0  0  0
   40.2398   85.3635   58.9911 H   0  0  0  0  0  0  0  0  0  0  0  0
   38.5001   84.1492   62.7662 H   0  0  0  0  0  0  0  0  0  0  0  0
   40.7914   76.4864   62.4783 H   0  0  0  0  0  0  0  0  0  0  0  0
   40.0171   78.9917   64.7726 H   0  0  0  0  0  0  0  0  0  0  0  0
   40.3897   77.2718   64.4799 H   0  0  0  0  0  0  0  0  0  0  0  0
   39.2985   81.2191   57.2292 H   0  0  0  0  0  0  0  0  0  0  0  0
   40.9906   81.8808   57.4573 H   0  0  0  0  0  0  0  0  0  0  0  0
   43.0010   80.6700   56.3529 H   0  0  0  0  0  0  0  0  0  0  0  0
   43.3086   78.8704   54.5440 H   0  0  0  0  0  0  0  0  0  0  0  0
   41.6043   77.0334   53.3214 H   0  0  0  0  0  0  0  0  0  0  0  0
   39.2348   76.2379   53.2982 H   0  0  0  0  0  0  0  0  0  0  0  0
   37.5697   77.2893   54.7753 H   0  0  0  0  0  0  0  0  0  0  0  0
   38.2867   79.5703   57.4404 H   0  0  0  0  0  0  0  0  0  0  0  0
   36.5809   78.1090   57.7825 H   0  0  0  0  0  0  0  0  0  0  0  0
   35.8152   78.6306   56.2436 H   0  0  0  0  0  0  0  0  0  0  0  0
   37.0062   77.2859   56.2436 H   0  0  0  0  0  0  0  0  0  0  0  0
   36.7000   81.0811   56.2397 H   0  0  0  0  0  0  0  0  0  0  0  0
   37.9313   80.8114   54.9599 H   0  0  0  0  0  0  0  0  0  0  0  0
   36.4114   79.8541   54.9599 H   0  0  0  0  0  0  0  0  0  0  0  0
  1  6  2  0
  2  3  2  0
  2  1  1  0
  3  4  1  0
  4  5  2  0
  6  5  1  0
  7  1  1  0
  7 17  1  0
  8  9  2  0
  8  7  1  0
  9 10  1  0
 10 11  1  0
 10 17  2  0
 11 13  1  0
 12 11  2  0
 13 14  1  0
 14 15  1  0
 16 14  2  0
 17 16  1  0
 18  8  1  0
 19 18  1  0
 20 19  2  0
 21 20  1  0
 22 21  1  0
 22 27  2  0
 23 22  1  0
 24 23  2  0
 24 25  1  0
 25 26  2  0
 26 28  1  0
 27 26  1  0
 27 19  1  0
 28 29  1  0
 30 28  1  0
  2 31  1  0
  3 32  1  0
  5 33  1  0
 13 34  1  0
 15 35  1  0
 15 36  1  0
 18 37  1  0
 18 38  1  0
 20 39  1  0
 21 40  1  0
 23 41  1  0
 24 42  1  0
 25 43  1  0
 28 44  1  0
 29 45  1  0
 29 46  1  0
 29 47  1  0
 30 48  1  0
 30 49  1  0
 30 50  1  0
M  END
>  <Score>  (1) 
-7.55115

$$$$
