
     RDKit          3D

 48 53  0  0  0  0  0  0  0  0999 V2000
   40.8920   80.1720   61.2030 C   0  0  0  0  0  0  0  0  0  0  0  0
   40.5410   79.2240   62.1460 C   0  0  0  0  0  0  0  0  0  0  0  0
   41.0750   77.7280   61.4360 S   0  0  0  0  0  0  0  0  0  0  0  0
   41.7380   78.5260   59.8950 C   0  0  0  0  0  0  0  0  0  0  0  0
   41.4700   79.8020   60.1220 N   0  0  0  0  0  0  0  0  0  0  0  0
   42.3770   77.8580   58.7650 C   0  0  0  0  0  0  0  0  0  0  0  0
   43.7240   77.6070   58.7870 C   0  0  0  0  0  0  0  0  0  0  0  0
   44.2170   76.9790   57.6800 C   0  0  0  0  0  0  0  0  0  0  0  0
   43.4470   76.6270   56.6450 N   0  0  0  0  0  0  0  0  0  0  0  0
   42.1290   76.8760   56.6330 C   0  0  0  0  0  0  0  0  0  0  0  0
   41.6200   77.4960   57.7130 N   0  0  0  0  0  0  0  0  0  0  0  0
   41.1970   76.5590   55.6020 N   0  0  0  0  0  0  0  0  0  0  0  0
   41.3820   76.3580   54.2930 C   0  0  0  0  0  0  0  0  0  0  0  0
   40.1790   76.0800   53.7210 N   0  0  0  0  0  0  0  0  0  0  0  0
   39.2570   76.1160   54.7120 C   0  0  0  0  0  0  0  0  0  0  0  0
   37.8860   75.9210   54.7490 C   0  0  0  0  0  0  0  0  0  0  0  0
   37.2940   75.6420   53.6540 O   0  0  0  0  0  0  0  0  0  0  0  0
   37.1750   76.0150   55.8890 N   0  0  0  0  0  0  0  0  0  0  0  0
   37.8050   76.3090   57.0410 C   0  0  0  0  0  0  0  0  0  0  0  0
   37.0330   76.4030   58.2330 N   0  0  0  0  0  0  0  0  0  0  0  0
   39.1480   76.5100   57.0590 N   0  0  0  0  0  0  0  0  0  0  0  0
   39.8780   76.4210   55.9270 C   0  0  0  0  0  0  0  0  0  0  0  0
   40.6260   81.6380   61.3790 C   0  0  0  0  0  0  0  0  0  0  0  0
   41.6640   82.5420   61.0560 C   0  0  0  0  0  0  0  0  0  0  0  0
   41.4540   83.9270   61.2070 C   0  0  0  0  0  0  0  0  0  0  0  0
   40.2330   84.2730   61.6640 N   0  0  0  0  0  0  0  0  0  0  0  0
   39.2740   83.4180   61.9620 C   0  0  0  0  0  0  0  0  0  0  0  0
   39.4810   82.1200   61.8160 N   0  0  0  0  0  0  0  0  0  0  0  0
   42.4780   84.9000   60.8930 C   0  0  0  0  0  0  0  0  0  0  0  0
   43.4670   85.2910   61.7880 C   0  0  0  0  0  0  0  0  0  0  0  0
   44.4410   86.2290   61.4630 C   0  0  0  0  0  0  0  0  0  0  0  0
   44.3940   86.7720   60.1870 C   0  0  0  0  0  0  0  0  0  0  0  0
   43.4230   86.4060   59.2710 C   0  0  0  0  0  0  0  0  0  0  0  0
   42.4820   85.4680   59.6560 C   0  0  0  0  0  0  0  0  0  0  0  0
   40.0428   79.3786   63.1145 H   0  0  0  0  0  0  0  0  0  0  0  0
   44.3625   77.8914   59.6364 H   0  0  0  0  0  0  0  0  0  0  0  0
   45.2927   76.7530   57.6375 H   0  0  0  0  0  0  0  0  0  0  0  0
   42.3463   76.4089   53.7662 H   0  0  0  0  0  0  0  0  0  0  0  0
   36.1563   75.8629   55.8790 H   0  0  0  0  0  0  0  0  0  0  0  0
   37.4920   76.6268   59.1275 H   0  0  0  0  0  0  0  0  0  0  0  0
   36.0154   76.2472   58.2011 H   0  0  0  0  0  0  0  0  0  0  0  0
   42.6303   82.1660   60.6888 H   0  0  0  0  0  0  0  0  0  0  0  0
   38.3044   83.7836   62.3311 H   0  0  0  0  0  0  0  0  0  0  0  0
   43.4798   84.8413   62.7918 H   0  0  0  0  0  0  0  0  0  0  0  0
   45.2147   86.5273   62.1858 H   0  0  0  0  0  0  0  0  0  0  0  0
   45.1506   87.5151   59.8948 H   0  0  0  0  0  0  0  0  0  0  0  0
   43.4002   86.8489   58.2644 H   0  0  0  0  0  0  0  0  0  0  0  0
   41.7070   85.1696   58.9346 H   0  0  0  0  0  0  0  0  0  0  0  0
  1 23  1  0
  1  2  2  0
  3  2  1  0
  4  5  2  0
  4  3  1  0
  5  1  1  0
  6  7  2  0
  6  4  1  0
  8  7  1  0
  9  8  2  0
 10  9  1  0
 10 11  2  0
 11  6  1  0
 12 22  1  0
 12 10  1  0
 13 12  1  0
 14 13  2  0
 14 15  1  0
 15 16  1  0
 15 22  2  0
 16 18  1  0
 17 16  2  0
 18 19  1  0
 19 21  2  0
 19 20  1  0
 22 21  1  0
 23 28  2  0
 24 25  2  0
 24 23  1  0
 25 26  1  0
 26 27  2  0
 28 27  1  0
 29 25  1  0
 29 30  2  0
 31 30  1  0
 32 31  2  0
 33 34  2  0
 33 32  1  0
 34 29  1  0
  2 35  1  0
  7 36  1  0
  8 37  1  0
 13 38  1  0
 18 39  1  0
 20 40  1  0
 20 41  1  0
 24 42  1  0
 27 43  1  0
 30 44  1  0
 31 45  1  0
 32 46  1  0
 33 47  1  0
 34 48  1  0
M  END
>  <Score>  (1) 
-7.18746

$$$$
