
     RDKit          3D

 46 49  0  0  0  0  0  0  0  0999 V2000
   44.9820   85.0380   61.7960 C   0  0  0  0  0  0  0  0  0  0  0  0
   45.6330   83.8440   62.1460 C   0  0  0  0  0  0  0  0  0  0  0  0
   44.8800   82.7090   62.2880 C   0  0  0  0  0  0  0  0  0  0  0  0
   43.5350   82.8020   62.0780 N   0  0  0  0  0  0  0  0  0  0  0  0
   42.9320   83.9280   61.7490 C   0  0  0  0  0  0  0  0  0  0  0  0
   43.6500   85.0670   61.6020 N   0  0  0  0  0  0  0  0  0  0  0  0
   45.4510   81.4220   62.6460 C   0  0  0  0  0  0  0  0  0  0  0  0
   44.8770   80.2140   62.3100 C   0  0  0  0  0  0  0  0  0  0  0  0
   45.4040   78.9810   62.6420 C   0  0  0  0  0  0  0  0  0  0  0  0
   46.5870   78.9980   63.3620 C   0  0  0  0  0  0  0  0  0  0  0  0
   47.2140   80.1590   63.7320 C   0  0  0  0  0  0  0  0  0  0  0  0
   46.6220   81.3420   63.3590 C   0  0  0  0  0  0  0  0  0  0  0  0
   41.5050   83.9500   61.5440 C   0  0  0  0  0  0  0  0  0  0  0  0
   40.8330   84.1820   60.3800 C   0  0  0  0  0  0  0  0  0  0  0  0
   39.5080   84.1170   60.6000 N   0  0  0  0  0  0  0  0  0  0  0  0
   39.3030   83.8460   61.8930 C   0  0  0  0  0  0  0  0  0  0  0  0
   40.5220   83.7440   62.4710 N   0  0  0  0  0  0  0  0  0  0  0  0
   38.0450   83.6900   62.5590 N   0  0  0  0  0  0  0  0  0  0  0  0
   41.3640   84.4560   59.0880 N   0  0  0  0  0  0  0  0  0  0  0  0
   41.9490   85.6850   58.5430 C   0  0  0  0  0  0  0  0  0  0  0  0
   41.2650   85.9200   57.2140 C   0  0  0  0  0  0  0  0  0  0  0  0
   41.7280   84.9280   56.2670 N   0  0  0  0  0  0  0  0  0  0  0  0
   42.1580   83.7090   56.9140 C   0  0  0  0  0  0  0  0  0  0  0  0
   41.3430   83.3620   58.1180 C   0  0  0  0  0  0  0  0  0  0  0  0
   40.7870   83.4600   63.8620 C   0  0  0  0  0  0  0  0  0  0  0  0
   40.7850   82.0850   64.0410 F   0  0  0  0  0  0  0  0  0  0  0  0
   39.8130   83.9970   64.6840 F   0  0  0  0  0  0  0  0  0  0  0  0
   41.9750   84.0480   64.3010 F   0  0  0  0  0  0  0  0  0  0  0  0
   45.5679   85.9616   61.6788 H   0  0  0  0  0  0  0  0  0  0  0  0
   46.7216   83.8209   62.3023 H   0  0  0  0  0  0  0  0  0  0  0  0
   43.9367   80.2335   61.7395 H   0  0  0  0  0  0  0  0  0  0  0  0
   44.9128   78.0406   62.3515 H   0  0  0  0  0  0  0  0  0  0  0  0
   47.0426   78.0388   63.6490 H   0  0  0  0  0  0  0  0  0  0  0  0
   48.1532   80.1447   64.3044 H   0  0  0  0  0  0  0  0  0  0  0  0
   47.1158   82.2812   63.6490 H   0  0  0  0  0  0  0  0  0  0  0  0
   38.0185   83.4806   63.5671 H   0  0  0  0  0  0  0  0  0  0  0  0
   37.1666   83.7872   62.0299 H   0  0  0  0  0  0  0  0  0  0  0  0
   41.7642   86.5301   59.2225 H   0  0  0  0  0  0  0  0  0  0  0  0
   43.0388   85.5938   58.4242 H   0  0  0  0  0  0  0  0  0  0  0  0
   40.1757   85.8316   57.3385 H   0  0  0  0  0  0  0  0  0  0  0  0
   41.5041   86.9282   56.8447 H   0  0  0  0  0  0  0  0  0  0  0  0
   42.5206   85.3195   55.7384 H   0  0  0  0  0  0  0  0  0  0  0  0
   42.0819   82.8838   56.1907 H   0  0  0  0  0  0  0  0  0  0  0  0
   43.1922   83.8667   57.2539 H   0  0  0  0  0  0  0  0  0  0  0  0
   40.3043   83.1731   57.8090 H   0  0  0  0  0  0  0  0  0  0  0  0
   41.7702   82.4639   58.5879 H   0  0  0  0  0  0  0  0  0  0  0  0
  1  2  2  0
  2  3  1  0
  3  7  1  0
  4  3  2  0
  5  4  1  0
  6  5  2  0
  6  1  1  0
  7 12  2  0
  8  9  2  0
  8  7  1  0
  9 10  1  0
 10 11  2  0
 12 11  1  0
 13  5  1  0
 13 17  1  0
 14 15  1  0
 14 13  2  0
 15 16  2  0
 16 17  1  0
 16 18  1  0
 17 25  1  0
 19 14  1  0
 20 19  1  0
 21 20  1  0
 22 23  1  0
 22 21  1  0
 23 24  1  0
 24 19  1  0
 25 26  1  0
 25 28  1  0
 25 27  1  0
  1 29  1  0
  2 30  1  0
  8 31  1  0
  9 32  1  0
 10 33  1  0
 11 34  1  0
 12 35  1  0
 18 36  1  0
 18 37  1  0
 20 38  1  0
 20 39  1  0
 21 40  1  0
 21 41  1  0
 22 42  1  0
 23 43  1  0
 23 44  1  0
 24 45  1  0
 24 46  1  0
M  END
>  <Score>  (1) 
-7.11954

$$$$
