
     RDKit          3D

 55 59  0  0  0  0  0  0  0  0999 V2000
   45.7220   82.1440   63.2920 C   0  0  0  0  0  0  0  0  0  0  0  0
   45.7430   83.3150   62.5260 C   0  0  0  0  0  0  0  0  0  0  0  0
   45.1230   83.2790   61.2530 C   0  0  0  0  0  0  0  0  0  0  0  0
   44.5470   82.1220   60.8500 N   0  0  0  0  0  0  0  0  0  0  0  0
   44.5580   81.0150   61.6350 C   0  0  0  0  0  0  0  0  0  0  0  0
   45.1310   81.0160   62.8350 N   0  0  0  0  0  0  0  0  0  0  0  0
   43.9130   79.7830   61.1310 C   0  0  0  0  0  0  0  0  0  0  0  0
   43.8510   79.3030   59.8540 C   0  0  0  0  0  0  0  0  0  0  0  0
   43.1880   78.1280   59.6420 C   0  0  0  0  0  0  0  0  0  0  0  0
   42.6390   77.5280   60.7430 C   0  0  0  0  0  0  0  0  0  0  0  0
   43.0430   78.6070   62.1010 S   0  0  0  0  0  0  0  0  0  0  0  0
   41.8970   76.2910   60.7860 N   0  0  0  0  0  0  0  0  0  0  0  0
   40.5880   76.3710   60.4830 C   0  0  0  0  0  0  0  0  0  0  0  0
   39.8630   75.2140   60.5120 C   0  0  0  0  0  0  0  0  0  0  0  0
   40.4840   74.0320   60.8410 C   0  0  0  0  0  0  0  0  0  0  0  0
   39.8170   72.9730   60.8650 O   0  0  0  0  0  0  0  0  0  0  0  0
   41.7960   74.0670   61.1240 N   0  0  0  0  0  0  0  0  0  0  0  0
   42.5720   75.1760   61.1150 C   0  0  0  0  0  0  0  0  0  0  0  0
   43.7730   75.1390   61.3870 O   0  0  0  0  0  0  0  0  0  0  0  0
   38.4170   75.2710   60.1840 C   0  0  0  0  0  0  0  0  0  0  0  0
   45.1150   84.4930   60.3990 C   0  0  0  0  0  0  0  0  0  0  0  0
   44.7830   84.1420   58.9540 C   0  0  0  0  0  0  0  0  0  0  0  0
   46.4990   85.1160   60.3740 C   0  0  0  0  0  0  0  0  0  0  0  0
   44.1380   85.5240   60.8610 C   0  0  0  0  0  0  0  0  0  0  0  0
   42.7790   85.0450   60.8970 N   0  0  0  0  0  0  0  0  0  0  0  0
   41.8950   84.8950   59.8880 C   0  0  0  0  0  0  0  0  0  0  0  0
   40.7190   84.4090   60.3790 N   0  0  0  0  0  0  0  0  0  0  0  0
   40.8670   84.2530   61.7060 C   0  0  0  0  0  0  0  0  0  0  0  0
   39.9440   83.7880   62.6250 C   0  0  0  0  0  0  0  0  0  0  0  0
   40.3670   83.7330   63.9100 N   0  0  0  0  0  0  0  0  0  0  0  0
   41.6360   84.1270   64.2200 C   0  0  0  0  0  0  0  0  0  0  0  0
   42.5320   84.5790   63.3230 N   0  0  0  0  0  0  0  0  0  0  0  0
   42.1460   84.6460   62.0380 C   0  0  0  0  0  0  0  0  0  0  0  0
   38.6290   83.3770   62.3220 N   0  0  0  0  0  0  0  0  0  0  0  0
   46.1952   82.1406   64.2850 H   0  0  0  0  0  0  0  0  0  0  0  0
   46.2240   84.2311   62.8994 H   0  0  0  0  0  0  0  0  0  0  0  0
   44.3210   79.8465   59.0211 H   0  0  0  0  0  0  0  0  0  0  0  0
   43.0997   77.6866   58.6383 H   0  0  0  0  0  0  0  0  0  0  0  0
   40.1200   77.3317   60.2220 H   0  0  0  0  0  0  0  0  0  0  0  0
   42.2500   73.1753   61.3684 H   0  0  0  0  0  0  0  0  0  0  0  0
   37.8306   75.2941   61.1144 H   0  0  0  0  0  0  0  0  0  0  0  0
   38.2096   76.1780   59.5972 H   0  0  0  0  0  0  0  0  0  0  0  0
   38.1388   74.3831   59.5972 H   0  0  0  0  0  0  0  0  0  0  0  0
   44.0272   83.3430   58.9351 H   0  0  0  0  0  0  0  0  0  0  0  0
   44.3885   85.0320   58.4418 H   0  0  0  0  0  0  0  0  0  0  0  0
   45.6935   83.7976   58.4418 H   0  0  0  0  0  0  0  0  0  0  0  0
   46.8489   85.2735   61.4049 H   0  0  0  0  0  0  0  0  0  0  0  0
   47.1942   84.4440   59.8495 H   0  0  0  0  0  0  0  0  0  0  0  0
   46.4569   86.0820   59.8495 H   0  0  0  0  0  0  0  0  0  0  0  0
   44.4221   85.8453   61.8740 H   0  0  0  0  0  0  0  0  0  0  0  0
   44.1726   86.3529   60.1387 H   0  0  0  0  0  0  0  0  0  0  0  0
   42.0928   85.1289   58.8315 H   0  0  0  0  0  0  0  0  0  0  0  0
   41.9477   84.0715   65.2735 H   0  0  0  0  0  0  0  0  0  0  0  0
   38.0078   83.0434   63.0728 H   0  0  0  0  0  0  0  0  0  0  0  0
   38.2900   83.4105   61.3499 H   0  0  0  0  0  0  0  0  0  0  0  0
  2  1  2  0
  3  2  1  0
  4  3  2  0
  4  5  1  0
  5  6  2  0
  6  1  1  0
  7  5  1  0
  7 11  1  0
  8  7  2  0
  9  8  1  0
  9 10  2  0
 10 12  1  0
 10 11  1  0
 12 18  1  0
 13 14  2  0
 13 12  1  0
 14 15  1  0
 15 16  2  0
 15 17  1  0
 18 17  1  0
 18 19  2  0
 20 14  1  0
 21 24  1  0
 21  3  1  0
 22 21  1  0
 23 21  1  0
 24 25  1  0
 25 33  1  0
 26 27  2  0
 26 25  1  0
 27 28  1  0
 28 33  2  0
 28 29  1  0
 29 30  2  0
 30 31  1  0
 32 31  2  0
 33 32  1  0
 34 29  1  0
  1 35  1  0
  2 36  1  0
  8 37  1  0
  9 38  1  0
 13 39  1  0
 17 40  1  0
 20 41  1  0
 20 42  1  0
 20 43  1  0
 22 44  1  0
 22 45  1  0
 22 46  1  0
 23 47  1  0
 23 48  1  0
 23 49  1  0
 24 50  1  0
 24 51  1  0
 26 52  1  0
 31 53  1  0
 34 54  1  0
 34 55  1  0
M  END
>  <Score>  (1) 
-7.0049

$$$$
