
     RDKit          3D

 35 38  0  0  0  0  0  0  0  0999 V2000
   40.3050   80.5530   60.9260 N   0  0  0  0  0  0  0  0  0  0  0  0
   40.1850   79.8170   59.8040 C   0  0  0  0  0  0  0  0  0  0  0  0
   40.5600   78.4930   59.9020 C   0  0  0  0  0  0  0  0  0  0  0  0
   41.0180   78.0430   61.1160 C   0  0  0  0  0  0  0  0  0  0  0  0
   41.4200   76.6910   61.2800 N   0  0  0  0  0  0  0  0  0  0  0  0
   41.1150   78.8350   62.2080 N   0  0  0  0  0  0  0  0  0  0  0  0
   40.7460   80.1390   62.1180 C   0  0  0  0  0  0  0  0  0  0  0  0
   40.8090   80.9310   63.0920 O   0  0  0  0  0  0  0  0  0  0  0  0
   40.4640   77.6510   58.7590 N   0  0  0  0  0  0  0  0  0  0  0  0
   41.5940   77.2210   58.1710 C   0  0  0  0  0  0  0  0  0  0  0  0
   41.2740   76.4420   57.1150 N   0  0  0  0  0  0  0  0  0  0  0  0
   39.9130   76.3850   57.0440 C   0  0  0  0  0  0  0  0  0  0  0  0
   39.0300   75.7440   56.1770 C   0  0  0  0  0  0  0  0  0  0  0  0
   39.5700   75.0770   55.2700 O   0  0  0  0  0  0  0  0  0  0  0  0
   37.7150   75.9280   56.4330 N   0  0  0  0  0  0  0  0  0  0  0  0
   37.2810   76.6710   57.4410 C   0  0  0  0  0  0  0  0  0  0  0  0
   35.8780   76.7540   57.5620 N   0  0  0  0  0  0  0  0  0  0  0  0
   38.1290   77.3050   58.3010 N   0  0  0  0  0  0  0  0  0  0  0  0
   39.4340   77.1530   58.0880 C   0  0  0  0  0  0  0  0  0  0  0  0
   39.9110   81.9230   60.8080 C   0  0  0  0  0  0  0  0  0  0  0  0
   40.1860   82.6920   59.6780 C   0  0  0  0  0  0  0  0  0  0  0  0
   39.7460   84.0330   59.6790 C   0  0  0  0  0  0  0  0  0  0  0  0
   39.0820   84.4850   60.7830 N   0  0  0  0  0  0  0  0  0  0  0  0
   38.8430   83.7020   61.8460 C   0  0  0  0  0  0  0  0  0  0  0  0
   39.2510   82.4110   61.8780 N   0  0  0  0  0  0  0  0  0  0  0  0
   39.8096   80.2471   58.8637 H   0  0  0  0  0  0  0  0  0  0  0  0
   41.7621   76.3627   62.1944 H   0  0  0  0  0  0  0  0  0  0  0  0
   41.3694   76.0386   60.4846 H   0  0  0  0  0  0  0  0  0  0  0  0
   42.6157   77.4646   58.4977 H   0  0  0  0  0  0  0  0  0  0  0  0
   37.0234   75.4727   55.8204 H   0  0  0  0  0  0  0  0  0  0  0  0
   35.4585   77.3119   58.3194 H   0  0  0  0  0  0  0  0  0  0  0  0
   35.2731   76.2567   56.8929 H   0  0  0  0  0  0  0  0  0  0  0  0
   40.7258   82.2693   58.8178 H   0  0  0  0  0  0  0  0  0  0  0  0
   39.9320   84.6924   58.8184 H   0  0  0  0  0  0  0  0  0  0  0  0
   38.3040   84.1176   62.7102 H   0  0  0  0  0  0  0  0  0  0  0  0
  1  7  1  0
  2  3  2  0
  2  1  1  0
  3  4  1  0
  4  5  1  0
  4  6  2  0
  7  6  1  0
  7  8  2  0
  9  3  1  0
 10  9  1  0
 11 10  2  0
 12 11  1  0
 12 19  2  0
 13 15  1  0
 13 12  1  0
 14 13  2  0
 15 16  1  0
 16 17  1  0
 16 18  2  0
 19 18  1  0
 19  9  1  0
 20  1  1  0
 20 25  2  0
 21 22  2  0
 21 20  1  0
 22 23  1  0
 23 24  2  0
 24 25  1  0
  2 26  1  0
  5 27  1  0
  5 28  1  0
 10 29  1  0
 15 30  1  0
 17 31  1  0
 17 32  1  0
 21 33  1  0
 22 34  1  0
 24 35  1  0
M  END
>  <Score>  (1) 
-7.40443

$$$$
