
     RDKit          3D

 55 60  0  0  0  0  0  0  0  0999 V2000
   41.4310   80.9690   57.5100 N   0  0  0  0  0  0  0  0  0  0  0  0
   40.4110   80.3080   58.0460 N   0  0  0  0  0  0  0  0  0  0  0  0
   40.5890   78.9850   57.9220 C   0  0  0  0  0  0  0  0  0  0  0  0
   41.8000   78.8720   57.2660 C   0  0  0  0  0  0  0  0  0  0  0  0
   42.3330   80.1210   57.0070 C   0  0  0  0  0  0  0  0  0  0  0  0
   39.7160   77.8990   58.3690 C   0  0  0  0  0  0  0  0  0  0  0  0
   39.9710   77.2280   59.5580 C   0  0  0  0  0  0  0  0  0  0  0  0
   39.1010   76.2280   59.8930 C   0  0  0  0  0  0  0  0  0  0  0  0
   38.0090   75.8560   59.1360 C   0  0  0  0  0  0  0  0  0  0  0  0
   37.8010   76.5530   57.9680 C   0  0  0  0  0  0  0  0  0  0  0  0
   38.6320   77.5610   57.5780 C   0  0  0  0  0  0  0  0  0  0  0  0
   38.3290   78.2300   56.3380 N   0  0  0  0  0  0  0  0  0  0  0  0
   37.5440   79.3330   56.5530 C   0  0  0  0  0  0  0  0  0  0  0  0
   37.1220   80.1390   55.5150 C   0  0  0  0  0  0  0  0  0  0  0  0
   37.5260   79.7910   54.2260 C   0  0  0  0  0  0  0  0  0  0  0  0
   37.1640   80.5310   53.0760 N   0  0  0  0  0  0  0  0  0  0  0  0
   38.2930   78.7050   54.0730 N   0  0  0  0  0  0  0  0  0  0  0  0
   38.6890   77.9370   55.1010 C   0  0  0  0  0  0  0  0  0  0  0  0
   39.3960   76.9210   55.0390 O   0  0  0  0  0  0  0  0  0  0  0  0
   42.3910   84.4070   56.5750 C   0  0  0  0  0  0  0  0  0  0  0  0
   42.3320   83.0130   56.5560 C   0  0  0  0  0  0  0  0  0  0  0  0
   41.5240   82.3960   57.4890 C   0  0  0  0  0  0  0  0  0  0  0  0
   40.8370   83.1630   58.3660 N   0  0  0  0  0  0  0  0  0  0  0  0
   40.9280   84.5120   58.3440 C   0  0  0  0  0  0  0  0  0  0  0  0
   41.7080   85.1310   57.4440 N   0  0  0  0  0  0  0  0  0  0  0  0
   40.1280   85.2530   59.3540 C   0  0  0  0  0  0  0  0  0  0  0  0
   40.0780   84.5890   60.6580 C   0  0  0  0  0  0  0  0  0  0  0  0
   38.8860   84.0630   61.1540 C   0  0  0  0  0  0  0  0  0  0  0  0
   39.1210   83.5020   62.3720 N   0  0  0  0  0  0  0  0  0  0  0  0
   40.4440   83.6680   62.6510 C   0  0  0  0  0  0  0  0  0  0  0  0
   41.2020   83.2850   63.7600 C   0  0  0  0  0  0  0  0  0  0  0  0
   42.5430   83.6070   63.7410 C   0  0  0  0  0  0  0  0  0  0  0  0
   43.1240   84.2740   62.6850 C   0  0  0  0  0  0  0  0  0  0  0  0
   42.3930   84.6590   61.5830 C   0  0  0  0  0  0  0  0  0  0  0  0
   41.0570   84.3430   61.5940 C   0  0  0  0  0  0  0  0  0  0  0  0
   42.2746   77.9193   56.9881 H   0  0  0  0  0  0  0  0  0  0  0  0
   43.2808   80.3613   56.5032 H   0  0  0  0  0  0  0  0  0  0  0  0
   40.8281   77.4876   60.1967 H   0  0  0  0  0  0  0  0  0  0  0  0
   39.2841   75.6825   60.8305 H   0  0  0  0  0  0  0  0  0  0  0  0
   37.3383   75.0429   59.4505 H   0  0  0  0  0  0  0  0  0  0  0  0
   36.9423   76.2902   57.3327 H   0  0  0  0  0  0  0  0  0  0  0  0
   37.2421   79.5826   57.5809 H   0  0  0  0  0  0  0  0  0  0  0  0
   36.4914   81.0217   55.6972 H   0  0  0  0  0  0  0  0  0  0  0  0
   37.4897   80.2301   52.1463 H   0  0  0  0  0  0  0  0  0  0  0  0
   36.5747   81.3707   53.1683 H   0  0  0  0  0  0  0  0  0  0  0  0
   43.0285   84.9212   55.8407 H   0  0  0  0  0  0  0  0  0  0  0  0
   42.9083   82.4276   55.8244 H   0  0  0  0  0  0  0  0  0  0  0  0
   40.5726   86.2503   59.4875 H   0  0  0  0  0  0  0  0  0  0  0  0
   39.0961   85.3046   58.9764 H   0  0  0  0  0  0  0  0  0  0  0  0
   37.9123   84.0959   60.6434 H   0  0  0  0  0  0  0  0  0  0  0  0
   38.4255   83.0370   62.9728 H   0  0  0  0  0  0  0  0  0  0  0  0
   40.7503   82.7513   64.6092 H   0  0  0  0  0  0  0  0  0  0  0  0
   43.1700   83.3214   64.5985 H   0  0  0  0  0  0  0  0  0  0  0  0
   44.1988   84.5050   62.7228 H   0  0  0  0  0  0  0  0  0  0  0  0
   42.8552   85.1915   60.7387 H   0  0  0  0  0  0  0  0  0  0  0  0
  1  2  1  0
  3  2  2  0
  3  6  1  0
  4  3  1  0
  5  4  2  0
  5  1  1  0
  6  7  2  0
  7  8  1  0
  9  8  2  0
 10  9  1  0
 11 10  2  0
 11  6  1  0
 12 13  1  0
 12 11  1  0
 14 13  2  0
 15 14  1  0
 16 15  1  0
 17 15  2  0
 17 18  1  0
 18 12  1  0
 19 18  2  0
 20 25  2  0
 21 20  1  0
 21 22  2  0
 22  1  1  0
 22 23  1  0
 24 23  2  0
 24 26  1  0
 25 24  1  0
 26 27  1  0
 27 28  2  0
 27 35  1  0
 28 29  1  0
 29 30  1  0
 30 31  2  0
 32 31  1  0
 33 32  2  0
 34 35  2  0
 34 33  1  0
 35 30  1  0
  4 36  1  0
  5 37  1  0
  7 38  1  0
  8 39  1  0
  9 40  1  0
 10 41  1  0
 13 42  1  0
 14 43  1  0
 16 44  1  0
 16 45  1  0
 20 46  1  0
 21 47  1  0
 26 48  1  0
 26 49  1  0
 28 50  1  0
 29 51  1  0
 31 52  1  0
 32 53  1  0
 33 54  1  0
 34 55  1  0
M  END
>  <Score>  (1) 
-7.71575

$$$$
