
     RDKit          3D

 45 47  0  0  0  0  0  0  0  0999 V2000
   41.1280   81.5030   60.2370 C   0  0  0  0  0  0  0  0  0  0  0  0
   42.2660   81.2350   61.0270 C   0  0  0  0  0  0  0  0  0  0  0  0
   42.6210   79.9230   61.3640 C   0  0  0  0  0  0  0  0  0  0  0  0
   41.8270   78.9360   60.9010 N   0  0  0  0  0  0  0  0  0  0  0  0
   40.7430   79.1970   60.1480 C   0  0  0  0  0  0  0  0  0  0  0  0
   40.4520   80.4490   59.8580 N   0  0  0  0  0  0  0  0  0  0  0  0
   39.9010   78.1480   59.6570 N   0  0  0  0  0  0  0  0  0  0  0  0
   39.3940   78.3390   58.3920 C   0  0  0  0  0  0  0  0  0  0  0  0
   38.6220   77.1870   58.1610 C   0  0  0  0  0  0  0  0  0  0  0  0
   38.6720   76.3730   59.2190 N   0  0  0  0  0  0  0  0  0  0  0  0
   39.4600   76.9800   60.1220 C   0  0  0  0  0  0  0  0  0  0  0  0
   39.8400   76.5390   61.4180 N   0  0  0  0  0  0  0  0  0  0  0  0
   40.7330   82.8460   59.8700 C   0  0  0  0  0  0  0  0  0  0  0  0
   41.2180   83.3110   58.6600 C   0  0  0  0  0  0  0  0  0  0  0  0
   40.9050   84.5800   58.2090 C   0  0  0  0  0  0  0  0  0  0  0  0
   40.1060   85.3450   58.9990 C   0  0  0  0  0  0  0  0  0  0  0  0
   39.6100   84.9220   60.1950 C   0  0  0  0  0  0  0  0  0  0  0  0
   39.9330   83.6350   60.6440 C   0  0  0  0  0  0  0  0  0  0  0  0
   39.3750   83.2280   61.9330 C   0  0  0  0  0  0  0  0  0  0  0  0
   38.2070   83.1150   62.2860 O   0  0  0  0  0  0  0  0  0  0  0  0
   40.1170   82.8860   63.0270 O   0  0  0  0  0  0  0  0  0  0  0  0
   40.8960   83.6050   63.8610 C   0  0  0  0  0  0  0  0  0  0  0  0
   42.1810   84.1390   63.4550 N   0  0  0  0  0  0  0  0  0  0  0  0
   40.4010   83.7620   65.0050 O   0  0  0  0  0  0  0  0  0  0  0  0
   37.8670   76.9520   56.8910 C   0  0  0  0  0  0  0  0  0  0  0  0
   38.5230   77.7070   55.7300 C   0  0  0  0  0  0  0  0  0  0  0  0
   36.4160   77.3230   57.0090 C   0  0  0  0  0  0  0  0  0  0  0  0
   42.8850   82.0711   61.3843 H   0  0  0  0  0  0  0  0  0  0  0  0
   43.5074   79.7071   61.9786 H   0  0  0  0  0  0  0  0  0  0  0  0
   39.5552   79.1937   57.7186 H   0  0  0  0  0  0  0  0  0  0  0  0
   39.4979   75.6356   61.7755 H   0  0  0  0  0  0  0  0  0  0  0  0
   40.4576   77.1226   62.0001 H   0  0  0  0  0  0  0  0  0  0  0  0
   41.8617   82.6617   58.0484 H   0  0  0  0  0  0  0  0  0  0  0  0
   41.2876   84.9558   57.2486 H   0  0  0  0  0  0  0  0  0  0  0  0
   39.8468   86.3571   58.6549 H   0  0  0  0  0  0  0  0  0  0  0  0
   38.9668   85.5798   60.7980 H   0  0  0  0  0  0  0  0  0  0  0  0
   42.7464   84.6834   64.1219 H   0  0  0  0  0  0  0  0  0  0  0  0
   42.5286   83.9740   62.4996 H   0  0  0  0  0  0  0  0  0  0  0  0
   37.9069   75.8719   56.6865 H   0  0  0  0  0  0  0  0  0  0  0  0
   39.1953   78.4808   56.1291 H   0  0  0  0  0  0  0  0  0  0  0  0
   39.1003   77.0020   55.1138 H   0  0  0  0  0  0  0  0  0  0  0  0
   37.7443   78.1802   55.1138 H   0  0  0  0  0  0  0  0  0  0  0  0
   36.1408   77.3934   58.0717 H   0  0  0  0  0  0  0  0  0  0  0  0
   36.2449   78.2938   56.5209 H   0  0  0  0  0  0  0  0  0  0  0  0
   35.7999   76.5535   56.5209 H   0  0  0  0  0  0  0  0  0  0  0  0
  1  2  2  0
  2  3  1  0
  4  3  2  0
  5  4  1  0
  6  5  2  0
  6  1  1  0
  7 11  1  0
  7  5  1  0
  8  7  1  0
  9  8  2  0
  9 10  1  0
 10 11  2  0
 11 12  1  0
 13  1  1  0
 13 18  1  0
 14 13  2  0
 15 14  1  0
 15 16  2  0
 16 17  1  0
 17 18  2  0
 18 19  1  0
 19 20  2  0
 19 21  1  0
 21 22  1  0
 22 24  2  0
 23 22  1  0
 25 27  1  0
 25  9  1  0
 26 25  1  0
  2 28  1  0
  3 29  1  0
  8 30  1  0
 12 31  1  0
 12 32  1  0
 14 33  1  0
 15 34  1  0
 16 35  1  0
 17 36  1  0
 23 37  1  0
 23 38  1  0
 25 39  1  0
 26 40  1  0
 26 41  1  0
 26 42  1  0
 27 43  1  0
 27 44  1  0
 27 45  1  0
M  END
>  <Score>  (1) 
-7.31892

$$$$
