
     RDKit          3D

 46 50  0  0  0  0  0  0  0  0999 V2000
   41.0552   80.8568   61.5102 N   0  0  0  0  0  0  0  0  0  0  0  0
   42.4676   80.8626   61.7621 C   0  0  0  0  0  0  0  0  0  0  0  0
   43.0563   79.5193   61.3411 C   0  0  0  0  0  0  0  0  0  0  0  0
   42.4097   78.3794   62.0645 C   0  0  0  0  0  0  0  0  0  0  0  0
   41.0385   78.6937   62.5354 C   0  0  0  0  0  0  0  0  0  0  0  0
   40.3956   79.5914   61.4770 C   0  0  2  0  0  0  0  0  0  0  0  0
   40.3201   82.0567   61.3026 C   0  0  0  0  0  0  0  0  0  0  0  0
   40.4946   82.7621   60.1340 C   0  0  0  0  0  0  0  0  0  0  0  0
   39.7774   83.9325   59.9187 C   0  0  0  0  0  0  0  0  0  0  0  0
   38.9172   84.3155   60.9213 N   0  0  0  0  0  0  0  0  0  0  0  0
   38.7626   83.6173   62.0487 C   0  0  0  0  0  0  0  0  0  0  0  0
   39.4603   82.4842   62.2501 N   0  0  0  0  0  0  0  0  0  0  0  0
   40.2088   78.9365   60.2101 C   0  0  0  0  0  0  0  0  0  0  0  0
   40.4588   79.3944   58.9523 C   0  0  0  0  0  0  0  0  0  0  0  0
   40.2545   78.6758   57.7928 C   0  0  0  0  0  0  0  0  0  0  0  0
   39.7692   77.4177   57.9094 N   0  0  0  0  0  0  0  0  0  0  0  0
   39.5145   76.9422   59.1516 C   0  0  0  0  0  0  0  0  0  0  0  0
   39.7261   77.6708   60.2361 N   0  0  0  0  0  0  0  0  0  0  0  0
   42.9883   81.6259   61.1310 H   0  0  0  0  0  0  0  0  0  0  0  0
   42.7551   81.0262   62.8133 H   0  0  0  0  0  0  0  0  0  0  0  0
   44.1259   79.5229   61.6486 H   0  0  0  0  0  0  0  0  0  0  0  0
   43.0528   79.3990   60.2494 H   0  0  0  0  0  0  0  0  0  0  0  0
   43.0413   77.9919   62.8989 H   0  0  0  0  0  0  0  0  0  0  0  0
   42.3139   77.5428   61.3171 H   0  0  0  0  0  0  0  0  0  0  0  0
   40.4430   77.7616   62.7045 H   0  0  0  0  0  0  0  0  0  0  0  0
   41.0128   79.2482   63.5033 H   0  0  0  0  0  0  0  0  0  0  0  0
   39.3577   79.7499   61.9071 H   0  0  0  0  0  0  0  0  0  0  0  0
   41.1460   82.5601   59.3034 H   0  0  0  0  0  0  0  0  0  0  0  0
   39.8339   84.5545   59.0537 H   0  0  0  0  0  0  0  0  0  0  0  0
   38.0578   84.0018   62.7836 H   0  0  0  0  0  0  0  0  0  0  0  0
   40.8556   80.3628   58.7559 H   0  0  0  0  0  0  0  0  0  0  0  0
   40.4491   79.0330   56.8049 H   0  0  0  0  0  0  0  0  0  0  0  0
   39.0048   75.6118   59.2312 N   0  0  0  0  0  0  0  0  0  0  0  0
   38.0124   75.1791   58.4036 C   0  0  0  0  0  0  0  0  0  0  0  0
   37.7130   73.9067   58.6741 N   0  0  0  0  0  0  0  0  0  0  0  0
   38.5026   73.4896   59.6793 C   0  0  0  0  0  0  0  0  0  0  0  0
   38.6693   72.3113   60.3881 C   0  0  0  0  0  0  0  0  0  0  0  0
   37.8070   71.2638   59.9749 N   0  0  0  0  0  0  0  0  0  0  0  0
   39.6044   72.2527   61.3804 N   0  0  0  0  0  0  0  0  0  0  0  0
   40.3554   73.3323   61.6641 C   0  0  0  0  0  0  0  0  0  0  0  0
   40.2163   74.4912   60.9926 N   0  0  0  0  0  0  0  0  0  0  0  0
   39.3071   74.5720   60.0170 C   0  0  0  0  0  0  0  0  0  0  0  0
   37.4499   75.6752   57.5969 H   0  0  0  0  0  0  0  0  0  0  0  0
   36.9470   70.7883   60.3236 H   0  0  0  0  0  0  0  0  0  0  0  0
   37.1034   71.2563   60.7702 H   0  0  0  0  0  0  0  0  0  0  0  0
   41.0738   73.1723   62.4787 H   0  0  0  0  0  0  0  0  0  0  0  0
  1  2  1  0
  3  2  1  0
  3  4  1  0
  4  5  1  0
  6  1  1  0
  6  5  1  0
  7  1  1  0
  7 12  1  0
  8  7  2  0
  9  8  1  0
  9 10  2  0
 10 11  1  0
 11 12  2  0
 13 18  1  0
 13  6  1  0
 14 13  2  0
 15 16  2  0
 15 14  1  0
 16 17  1  0
 17 18  2  0
  2 19  1  0
  2 20  1  0
  3 21  1  0
  3 22  1  0
  4 23  1  0
  4 24  1  0
  5 25  1  0
  5 26  1  0
  6 27  1  1
  8 28  1  0
  9 29  1  0
 11 30  1  0
 14 31  1  0
 15 32  1  0
 33 34  1  0
 34 35  2  0
 35 36  1  0
 36 37  2  0
 37 38  1  0
 37 39  1  0
 39 40  2  0
 40 41  1  0
 41 42  2  0
 42 33  1  0
 42 36  1  0
 34 43  1  0
 38 44  1  0
 38 45  1  0
 40 46  1  0
 17 33  1  0
M  END
>  <Score>  (1) 
-7.18752

$$$$
