
     RDKit          3D

 39 42  0  0  0  0  0  0  0  0999 V2000
   45.4720   87.5130   57.4840 C   0  0  0  0  0  0  0  0  0  0  0  0
   45.0680   88.8380   57.7580 C   0  0  0  0  0  0  0  0  0  0  0  0
   44.4290   89.0880   58.9860 C   0  0  0  0  0  0  0  0  0  0  0  0
   44.2370   88.0450   59.8360 N   0  0  0  0  0  0  0  0  0  0  0  0
   44.6380   86.7800   59.5420 C   0  0  0  0  0  0  0  0  0  0  0  0
   45.2450   86.5400   58.3790 N   0  0  0  0  0  0  0  0  0  0  0  0
   44.4190   85.7290   60.4520 N   0  0  0  0  0  0  0  0  0  0  0  0
   45.4230   85.2850   61.2390 C   0  0  0  0  0  0  0  0  0  0  0  0
   45.3290   84.2710   62.1610 C   0  0  0  0  0  0  0  0  0  0  0  0
   44.0700   83.6990   62.2380 C   0  0  0  0  0  0  0  0  0  0  0  0
   43.8740   82.7580   63.0540 O   0  0  0  0  0  0  0  0  0  0  0  0
   43.0320   84.0930   61.4850 N   0  0  0  0  0  0  0  0  0  0  0  0
   43.2160   85.0960   60.6080 C   0  0  0  0  0  0  0  0  0  0  0  0
   42.2370   85.4890   59.8790 O   0  0  0  0  0  0  0  0  0  0  0  0
   41.7620   83.4700   61.6080 C   0  0  0  0  0  0  0  0  0  0  0  0
   40.6350   84.0690   62.1680 C   0  0  0  0  0  0  0  0  0  0  0  0
   39.4220   83.4260   62.2670 C   0  0  0  0  0  0  0  0  0  0  0  0
   39.3350   82.1440   61.7890 N   0  0  0  0  0  0  0  0  0  0  0  0
   40.4210   81.5540   61.2450 C   0  0  0  0  0  0  0  0  0  0  0  0
   41.5780   82.2080   61.1670 N   0  0  0  0  0  0  0  0  0  0  0  0
   40.3140   80.2220   60.7540 N   0  0  0  0  0  0  0  0  0  0  0  0
   40.2280   80.2170   59.3930 C   0  0  0  0  0  0  0  0  0  0  0  0
   40.1160   79.0240   58.6950 C   0  0  0  0  0  0  0  0  0  0  0  0
   40.0920   77.8360   59.3990 C   0  0  0  0  0  0  0  0  0  0  0  0
   39.9780   76.5860   58.7260 N   0  0  0  0  0  0  0  0  0  0  0  0
   40.1800   77.9070   60.7320 N   0  0  0  0  0  0  0  0  0  0  0  0
   40.2880   79.0510   61.4110 C   0  0  0  0  0  0  0  0  0  0  0  0
   40.3740   79.1940   62.6520 O   0  0  0  0  0  0  0  0  0  0  0  0
   45.9743   87.2781   56.5340 H   0  0  0  0  0  0  0  0  0  0  0  0
   45.2470   89.6477   57.0353 H   0  0  0  0  0  0  0  0  0  0  0  0
   44.0934   90.1014   59.2514 H   0  0  0  0  0  0  0  0  0  0  0  0
   46.4005   85.7781   61.1324 H   0  0  0  0  0  0  0  0  0  0  0  0
   46.1762   83.9433   62.7814 H   0  0  0  0  0  0  0  0  0  0  0  0
   40.7184   85.0984   62.5466 H   0  0  0  0  0  0  0  0  0  0  0  0
   38.5502   83.9249   62.7154 H   0  0  0  0  0  0  0  0  0  0  0  0
   40.2477   81.1694   58.8430 H   0  0  0  0  0  0  0  0  0  0  0  0
   40.0473   79.0238   57.5971 H   0  0  0  0  0  0  0  0  0  0  0  0
   39.9616   75.7095   59.2668 H   0  0  0  0  0  0  0  0  0  0  0  0
   39.9119   76.5585   57.6985 H   0  0  0  0  0  0  0  0  0  0  0  0
  1  2  2  0
  1  6  1  0
  2  3  1  0
  3  4  2  0
  5  4  1  0
  5  7  1  0
  6  5  2  0
  7 13  1  0
  7  8  1  0
  8  9  2  0
  9 10  1  0
 10 11  2  0
 12 15  1  0
 12 10  1  0
 13 12  1  0
 14 13  2  0
 15 16  2  0
 16 17  1  0
 18 17  2  0
 19 18  1  0
 20 19  2  0
 20 15  1  0
 21 19  1  0
 21 27  1  0
 22 21  1  0
 23 22  2  0
 23 24  1  0
 24 26  2  0
 25 24  1  0
 26 27  1  0
 27 28  2  0
  1 29  1  0
  2 30  1  0
  3 31  1  0
  8 32  1  0
  9 33  1  0
 16 34  1  0
 17 35  1  0
 22 36  1  0
 23 37  1  0
 25 38  1  0
 25 39  1  0
M  END
>  <Score>  (1) 
-7.29047

$$$$
