
     RDKit          3D

 39 41  0  0  0  0  0  0  0  0999 V2000
   43.3070   79.4140   61.7870 C   0  0  0  0  0  0  0  0  0  0  0  0
   42.0470   79.7940   61.2950 C   0  0  0  0  0  0  0  0  0  0  0  0
   41.6800   81.1180   61.3790 C   0  0  0  0  0  0  0  0  0  0  0  0
   42.5720   82.0130   61.9450 N   0  0  0  0  0  0  0  0  0  0  0  0
   43.7690   81.5880   62.4000 C   0  0  0  0  0  0  0  0  0  0  0  0
   44.1310   80.3040   62.3210 N   0  0  0  0  0  0  0  0  0  0  0  0
   41.1210   78.8400   60.7030 C   0  0  0  0  0  0  0  0  0  0  0  0
   40.8470   77.6090   61.2760 C   0  0  0  0  0  0  0  0  0  0  0  0
   39.9420   76.9160   60.5070 C   0  0  0  0  0  0  0  0  0  0  0  0
   39.6890   77.7840   59.4540 C   0  0  0  0  0  0  0  0  0  0  0  0
   40.3880   78.8690   59.6130 O   0  0  0  0  0  0  0  0  0  0  0  0
   38.8330   77.6370   58.3240 N   0  0  0  0  0  0  0  0  0  0  0  0
   38.9020   78.5450   57.3440 C   0  0  0  0  0  0  0  0  0  0  0  0
   38.0800   78.4160   56.2470 C   0  0  0  0  0  0  0  0  0  0  0  0
   38.0870   79.3790   55.1040 C   0  0  0  0  0  0  0  0  0  0  0  0
   37.2020   77.3550   56.1770 C   0  0  0  0  0  0  0  0  0  0  0  0
   36.4270   77.2020   55.1810 O   0  0  0  0  0  0  0  0  0  0  0  0
   37.1720   76.4580   57.2050 N   0  0  0  0  0  0  0  0  0  0  0  0
   37.9850   76.5930   58.2840 C   0  0  0  0  0  0  0  0  0  0  0  0
   37.8970   75.7230   59.1910 O   0  0  0  0  0  0  0  0  0  0  0  0
   44.6140   82.6790   62.9820 C   0  0  0  0  0  0  0  0  0  0  0  0
   45.6380   82.0980   63.7650 F   0  0  0  0  0  0  0  0  0  0  0  0
   43.8930   83.4870   63.8440 F   0  0  0  0  0  0  0  0  0  0  0  0
   45.1530   83.4180   61.9690 F   0  0  0  0  0  0  0  0  0  0  0  0
   40.4100   81.6450   60.9100 C   0  0  0  0  0  0  0  0  0  0  0  0
   40.2120   81.8160   59.6680 O   0  0  0  0  0  0  0  0  0  0  0  0
   39.4050   81.9630   61.8240 O   0  0  0  0  0  0  0  0  0  0  0  0
   39.2510   83.2950   62.2830 C   0  0  0  0  0  0  0  0  0  0  0  0
   39.8920   83.4220   63.4870 F   0  0  0  0  0  0  0  0  0  0  0  0
   40.0100   84.0850   61.4040 F   0  0  0  0  0  0  0  0  0  0  0  0
   37.9760   83.7510   62.2540 F   0  0  0  0  0  0  0  0  0  0  0  0
   43.6148   78.3596   61.7279 H   0  0  0  0  0  0  0  0  0  0  0  0
   41.2900   77.2388   62.2123 H   0  0  0  0  0  0  0  0  0  0  0  0
   39.5204   75.9155   60.6837 H   0  0  0  0  0  0  0  0  0  0  0  0
   39.6079   79.3857   57.4139 H   0  0  0  0  0  0  0  0  0  0  0  0
   38.0945   80.4083   55.4918 H   0  0  0  0  0  0  0  0  0  0  0  0
   38.9840   79.2122   54.4895 H   0  0  0  0  0  0  0  0  0  0  0  0
   37.1877   79.2252   54.4895 H   0  0  0  0  0  0  0  0  0  0  0  0
   36.5193   75.6624   57.1615 H   0  0  0  0  0  0  0  0  0  0  0  0
  1  6  2  0
  2  3  2  0
  2  1  1  0
  3  4  1  0
  4  5  2  0
  5 21  1  0
  6  5  1  0
  7  8  2  0
  7  2  1  0
  9  8  1  0
 10 11  1  0
 10  9  2  0
 11  7  1  0
 12 10  1  0
 13 12  1  0
 14 13  2  0
 15 14  1  0
 16 14  1  0
 16 18  1  0
 17 16  2  0
 18 19  1  0
 19 12  1  0
 19 20  2  0
 21 22  1  0
 21 23  1  0
 24 21  1  0
 25  3  1  0
 25 27  1  0
 26 25  2  0
 27 28  1  0
 28 29  1  0
 30 28  1  0
 31 28  1  0
  1 32  1  0
  8 33  1  0
  9 34  1  0
 13 35  1  0
 15 36  1  0
 15 37  1  0
 15 38  1  0
 18 39  1  0
M  END
>  <Score>  (1) 
-7.36272

$$$$
