
     RDKit          3D

 43 47  0  0  1  0  0  0  0  0999 V2000
   42.7130   86.7570   58.4030 C   0  0  0  0  0  0  0  0  0  0  0  0
   43.0820   86.2180   59.6630 C   0  0  0  0  0  0  0  0  0  0  0  0
   44.0920   86.8330   60.3460 C   0  0  0  0  0  0  0  0  0  0  0  0
   44.6830   87.9360   59.7620 N   0  0  0  0  0  0  0  0  0  0  0  0
   44.3140   88.4140   58.5820 C   0  0  0  0  0  0  0  0  0  0  0  0
   43.3200   87.8240   57.8880 N   0  0  0  0  0  0  0  0  0  0  0  0
   44.9680   89.5540   58.0400 N   0  0  0  0  0  0  0  0  0  0  0  0
   46.0440   89.4100   57.2260 C   0  0  0  0  0  0  0  0  0  0  0  0
   46.4550   90.6800   56.8620 C   0  0  0  0  0  0  0  0  0  0  0  0
   45.6160   91.5730   57.4640 N   0  0  0  0  0  0  0  0  0  0  0  0
   44.7150   90.8610   58.1790 C   0  0  0  0  0  0  0  0  0  0  0  0
   43.6540   91.3940   58.9640 N   0  0  0  0  0  0  0  0  0  0  0  0
   43.6140   91.3160   60.3190 C   0  0  0  0  0  0  0  0  0  0  0  0
   42.5360   91.8690   60.9860 C   0  0  0  0  0  0  0  0  0  0  0  0
   41.5300   92.4830   60.2700 C   0  0  0  0  0  0  0  0  0  0  0  0
   40.4580   93.0260   61.0310 N   0  0  0  0  0  0  0  0  0  0  0  0
   41.6110   92.5390   58.9080 N   0  0  0  0  0  0  0  0  0  0  0  0
   42.6740   91.9930   58.2660 C   0  0  0  0  0  0  0  0  0  0  0  0
   42.6710   92.0880   57.0070 O   0  0  0  0  0  0  0  0  0  0  0  0
   42.3300   85.0670   60.1100 N   0  0  0  0  0  0  0  0  0  0  0  0
   41.5910   84.2540   59.3380 C   0  0  0  0  0  0  0  0  0  0  0  0
   40.9970   83.3240   60.1270 N   0  0  0  0  0  0  0  0  0  0  0  0
   41.3460   83.5370   61.3870 C   0  0  0  0  0  0  0  0  0  0  0  0
   41.0460   83.0090   62.6100 C   0  0  2  0  0  0  0  0  0  0  0  0
   41.7090   83.3720   63.7250 N   0  0  0  0  0  0  0  0  0  0  0  0
   42.5500   84.4410   63.7210 C   0  0  0  0  0  0  0  0  0  0  0  0
   42.7780   85.0620   62.5570 N   0  0  0  0  0  0  0  0  0  0  0  0
   42.1980   84.6370   61.4040 C   0  0  0  0  0  0  0  0  0  0  0  0
   40.6450   81.6180   62.6380 N   0  0  0  0  0  0  0  0  0  0  0  0
   41.9013   86.2789   57.8351 H   0  0  0  0  0  0  0  0  0  0  0  0
   44.4233   86.4626   61.3273 H   0  0  0  0  0  0  0  0  0  0  0  0
   46.5037   88.4607   56.9138 H   0  0  0  0  0  0  0  0  0  0  0  0
   47.3036   90.9256   56.2066 H   0  0  0  0  0  0  0  0  0  0  0  0
   44.4239   90.8222   60.8759 H   0  0  0  0  0  0  0  0  0  0  0  0
   42.4813   91.8192   62.0835 H   0  0  0  0  0  0  0  0  0  0  0  0
   39.6757   93.4976   60.5551 H   0  0  0  0  0  0  0  0  0  0  0  0
   40.4640   92.9476   62.0580 H   0  0  0  0  0  0  0  0  0  0  0  0
   41.4848   84.3296   58.2458 H   0  0  0  0  0  0  0  0  0  0  0  0
   40.1487   83.6373   62.7103 H   0  0  0  0  0  0  0  0  0  0  0  0
   43.0297   84.7859   64.6488 H   0  0  0  0  0  0  0  0  0  0  0  0
   43.4057   85.8783   62.5350 H   0  0  0  0  0  0  0  0  0  0  0  0
   40.5551   81.3062   63.6156 H   0  0  0  0  0  0  0  0  0  0  0  0
   39.7392   81.5121   62.1592 H   0  0  0  0  0  0  0  0  0  0  0  0
  1  2  2  0
  2 20  1  0
  2  3  1  0
  4  3  2  0
  5  4  1  0
  6  1  1  0
  6  5  2  0
  7 11  1  0
  7  5  1  0
  8  7  1  0
  9  8  2  0
  9 10  1  0
 10 11  2  0
 11 12  1  0
 12 13  1  0
 13 14  2  0
 15 14  1  0
 15 16  1  0
 17 15  2  0
 18 17  1  0
 18 12  1  0
 19 18  2  0
 20 28  1  0
 21 20  1  0
 21 22  2  0
 22 23  1  0
 23 28  2  0
 23 24  1  0
 24 29  1  0
 24 25  1  0
 26 25  2  0
 27 26  1  0
 28 27  1  0
  1 30  1  0
  3 31  1  0
  8 32  1  0
  9 33  1  0
 13 34  1  0
 14 35  1  0
 16 36  1  0
 16 37  1  0
 21 38  1  0
 24 39  1  1
 26 40  1  0
 27 41  1  0
 29 42  1  0
 29 43  1  0
M  END
>  <Score>  (1) 
-7.35937

$$$$
