
     RDKit          3D

 48 53  0  0  0  0  0  0  0  0999 V2000
   40.9830   81.6070   56.2260 C   0  0  0  0  0  0  0  0  0  0  0  0
   40.7080   81.3760   57.5680 C   0  0  0  0  0  0  0  0  0  0  0  0
   39.5940   80.5790   57.8780 C   0  0  0  0  0  0  0  0  0  0  0  0
   38.8580   80.0870   56.8360 N   0  0  0  0  0  0  0  0  0  0  0  0
   39.1550   80.3310   55.5660 C   0  0  0  0  0  0  0  0  0  0  0  0
   40.2380   81.1050   55.2470 N   0  0  0  0  0  0  0  0  0  0  0  0
   41.5000   81.9060   58.6810 C   0  0  0  0  0  0  0  0  0  0  0  0
   42.8110   81.8040   59.0400 N   0  0  0  0  0  0  0  0  0  0  0  0
   42.9750   82.4910   60.1450 O   0  0  0  0  0  0  0  0  0  0  0  0
   41.8780   83.0320   60.5340 C   0  0  0  0  0  0  0  0  0  0  0  0
   40.9430   82.6750   59.6280 N   0  0  0  0  0  0  0  0  0  0  0  0
   41.6460   83.8440   61.6720 N   0  0  0  0  0  0  0  0  0  0  0  0
   42.7460   84.4530   62.3760 C   0  0  0  0  0  0  0  0  0  0  0  0
   42.5630   84.2570   63.8700 C   0  0  0  0  0  0  0  0  0  0  0  0
   41.2040   84.5510   64.2970 N   0  0  0  0  0  0  0  0  0  0  0  0
   40.2700   83.6580   63.6240 C   0  0  0  0  0  0  0  0  0  0  0  0
   40.2810   84.0770   62.1520 C   0  0  0  0  0  0  0  0  0  0  0  0
   38.3340   79.7790   54.4990 C   0  0  0  0  0  0  0  0  0  0  0  0
   37.6180   78.6210   54.6410 C   0  0  0  0  0  0  0  0  0  0  0  0
   36.8570   78.1370   53.6090 C   0  0  0  0  0  0  0  0  0  0  0  0
   36.8500   78.8530   52.4560 N   0  0  0  0  0  0  0  0  0  0  0  0
   37.5390   79.9930   52.2780 C   0  0  0  0  0  0  0  0  0  0  0  0
   38.2710   80.4210   53.3320 N   0  0  0  0  0  0  0  0  0  0  0  0
   37.4670   80.6730   51.0290 N   0  0  0  0  0  0  0  0  0  0  0  0
   38.5700   81.2900   50.5280 C   0  0  0  0  0  0  0  0  0  0  0  0
   38.2800   81.8630   49.3510 N   0  0  0  0  0  0  0  0  0  0  0  0
   37.0060   81.6340   49.0670 C   0  0  0  0  0  0  0  0  0  0  0  0
   36.0810   81.9070   48.0820 C   0  0  0  0  0  0  0  0  0  0  0  0
   34.8030   81.4890   48.1310 N   0  0  0  0  0  0  0  0  0  0  0  0
   34.3740   80.7640   49.1890 C   0  0  0  0  0  0  0  0  0  0  0  0
   35.2240   80.4550   50.2000 N   0  0  0  0  0  0  0  0  0  0  0  0
   36.4960   80.8850   50.1250 C   0  0  0  0  0  0  0  0  0  0  0  0
   41.8511   82.2296   55.9637 H   0  0  0  0  0  0  0  0  0  0  0  0
   39.3234   80.3586   58.9212 H   0  0  0  0  0  0  0  0  0  0  0  0
   43.6890   83.9845   62.0578 H   0  0  0  0  0  0  0  0  0  0  0  0
   42.7753   85.5289   62.1488 H   0  0  0  0  0  0  0  0  0  0  0  0
   42.7959   83.2119   64.1220 H   0  0  0  0  0  0  0  0  0  0  0  0
   43.2394   84.9523   64.3887 H   0  0  0  0  0  0  0  0  0  0  0  0
   41.1297   84.4186   65.3157 H   0  0  0  0  0  0  0  0  0  0  0  0
   40.5970   82.6128   63.7274 H   0  0  0  0  0  0  0  0  0  0  0  0
   39.2611   83.7257   64.0571 H   0  0  0  0  0  0  0  0  0  0  0  0
   40.0193   85.1411   62.0562 H   0  0  0  0  0  0  0  0  0  0  0  0
   39.5465   83.5048   61.5663 H   0  0  0  0  0  0  0  0  0  0  0  0
   37.6538   78.0728   55.5940 H   0  0  0  0  0  0  0  0  0  0  0  0
   36.2768   77.2080   53.7108 H   0  0  0  0  0  0  0  0  0  0  0  0
   39.5553   81.3154   51.0164 H   0  0  0  0  0  0  0  0  0  0  0  0
   36.4042   82.4967   47.2115 H   0  0  0  0  0  0  0  0  0  0  0  0
   33.3291   80.4227   49.2300 H   0  0  0  0  0  0  0  0  0  0  0  0
  1  2  2  0
  2  3  1  0
  2  7  1  0
  4  3  2  0
  5  4  1  0
  6  5  2  0
  6  1  1  0
  7  8  2  0
  7 11  1  0
  8  9  1  0
  9 10  1  0
 10 12  1  0
 11 10  2  0
 12 17  1  0
 12 13  1  0
 13 14  1  0
 14 15  1  0
 16 15  1  0
 17 16  1  0
 18 19  2  0
 18  5  1  0
 20 19  1  0
 21 20  2  0
 22 21  1  0
 22 23  2  0
 23 18  1  0
 24 22  1  0
 25 24  1  0
 26 25  2  0
 27 26  1  0
 27 32  2  0
 28 29  2  0
 28 27  1  0
 29 30  1  0
 30 31  2  0
 32 31  1  0
 32 24  1  0
  1 33  1  0
  3 34  1  0
 13 35  1  0
 13 36  1  0
 14 37  1  0
 14 38  1  0
 15 39  1  0
 16 40  1  0
 16 41  1  0
 17 42  1  0
 17 43  1  0
 19 44  1  0
 20 45  1  0
 25 46  1  0
 28 47  1  0
 30 48  1  0
M  END
>  <Score>  (1) 
-7.82311

$$$$
