
     RDKit          3D

 52 57  0  0  0  0  0  0  0  0999 V2000
   40.5120   76.3870   60.6720 C   0  0  0  0  0  0  0  0  0  0  0  0
   40.5840   80.0860   60.9230 C   0  0  0  0  0  0  0  0  0  0  0  0
   41.8300   80.3060   61.5190 C   0  0  0  0  0  0  0  0  0  0  0  0
   42.6040   79.1710   61.8150 C   0  0  0  0  0  0  0  0  0  0  0  0
   42.1000   77.9590   61.5090 N   0  0  0  0  0  0  0  0  0  0  0  0
   40.9030   77.7730   60.9380 C   0  0  0  0  0  0  0  0  0  0  0  0
   40.1500   78.8380   60.6460 N   0  0  0  0  0  0  0  0  0  0  0  0
   42.2850   81.5940   61.8060 N   0  0  0  0  0  0  0  0  0  0  0  0
   43.3770   82.1540   61.2240 C   0  0  0  0  0  0  0  0  0  0  0  0
   43.5580   83.4030   61.7080 N   0  0  0  0  0  0  0  0  0  0  0  0
   42.6010   83.6540   62.5920 C   0  0  0  0  0  0  0  0  0  0  0  0
   42.2780   84.7240   63.3680 C   0  0  0  0  0  0  0  0  0  0  0  0
   41.2280   84.6220   64.2090 N   0  0  0  0  0  0  0  0  0  0  0  0
   40.4670   83.5350   64.2680 C   0  0  0  0  0  0  0  0  0  0  0  0
   40.7610   82.4960   63.4890 N   0  0  0  0  0  0  0  0  0  0  0  0
   41.8120   82.5050   62.6390 C   0  0  0  0  0  0  0  0  0  0  0  0
   39.0490   76.2190   60.3520 C   0  0  0  0  0  0  0  0  0  0  0  0
   38.8700   76.0100   58.9040 C   0  0  0  0  0  0  0  0  0  0  0  0
   38.9450   74.7930   58.3010 C   0  0  0  0  0  0  0  0  0  0  0  0
   38.7380   74.7190   56.9080 C   0  0  0  0  0  0  0  0  0  0  0  0
   38.4780   75.9160   56.2960 C   0  0  0  0  0  0  0  0  0  0  0  0
   38.4020   77.1390   56.8980 C   0  0  0  0  0  0  0  0  0  0  0  0
   38.6140   77.1290   58.2410 N   0  0  0  0  0  0  0  0  0  0  0  0
   38.1110   78.2550   56.0140 C   0  0  0  0  0  0  0  0  0  0  0  0
   37.5310   79.3850   56.4870 N   0  0  0  0  0  0  0  0  0  0  0  0
   37.2320   80.4500   55.7450 C   0  0  0  0  0  0  0  0  0  0  0  0
   37.4840   80.5000   54.4260 N   0  0  0  0  0  0  0  0  0  0  0  0
   38.0610   79.4150   53.8690 C   0  0  0  0  0  0  0  0  0  0  0  0
   38.3280   79.4410   52.5350 C   0  0  0  0  0  0  0  0  0  0  0  0
   38.9200   78.3570   51.9060 C   0  0  0  0  0  0  0  0  0  0  0  0
   39.2260   77.2480   52.7030 C   0  0  0  0  0  0  0  0  0  0  0  0
   38.9320   77.2830   54.0480 C   0  0  0  0  0  0  0  0  0  0  0  0
   38.3500   78.3420   54.6830 C   0  0  0  0  0  0  0  0  0  0  0  0
   41.0985   76.0190   59.8173 H   0  0  0  0  0  0  0  0  0  0  0  0
   40.7064   75.8168   61.5924 H   0  0  0  0  0  0  0  0  0  0  0  0
   39.9452   80.9466   60.6751 H   0  0  0  0  0  0  0  0  0  0  0  0
   43.5943   79.2691   62.2837 H   0  0  0  0  0  0  0  0  0  0  0  0
   44.0162   81.6658   60.4736 H   0  0  0  0  0  0  0  0  0  0  0  0
   43.1614   84.9581   63.9802 H   0  0  0  0  0  0  0  0  0  0  0  0
   41.9673   85.4932   62.6456 H   0  0  0  0  0  0  0  0  0  0  0  0
   39.6057   83.4937   64.9510 H   0  0  0  0  0  0  0  0  0  0  0  0
   40.1668   81.6560   63.5357 H   0  0  0  0  0  0  0  0  0  0  0  0
   38.6546   75.3488   60.8971 H   0  0  0  0  0  0  0  0  0  0  0  0
   38.5067   77.1267   60.6554 H   0  0  0  0  0  0  0  0  0  0  0  0
   39.1621   73.8874   58.8865 H   0  0  0  0  0  0  0  0  0  0  0  0
   38.7821   73.7697   56.3540 H   0  0  0  0  0  0  0  0  0  0  0  0
   38.3136   75.8895   55.2087 H   0  0  0  0  0  0  0  0  0  0  0  0
   36.7623   81.3190   56.2289 H   0  0  0  0  0  0  0  0  0  0  0  0
   38.0705   80.3347   51.9476 H   0  0  0  0  0  0  0  0  0  0  0  0
   39.1396   78.3679   50.8282 H   0  0  0  0  0  0  0  0  0  0  0  0
   39.6963   76.3578   52.2598 H   0  0  0  0  0  0  0  0  0  0  0  0
   39.1831   76.3980   54.6512 H   0  0  0  0  0  0  0  0  0  0  0  0
  1  6  1  0
  2  3  2  0
  3  8  1  0
  3  4  1  0
  5  4  2  0
  6  5  1  0
  7  2  1  0
  7  6  2  0
  8 16  1  0
  9 10  2  0
  9  8  1  0
 10 11  1  0
 11 16  2  0
 11 12  1  0
 12 13  1  0
 13 14  2  0
 15 14  1  0
 16 15  1  0
 17  1  1  0
 18 17  1  0
 19 18  2  0
 20 19  1  0
 21 22  1  0
 21 20  2  0
 22 23  2  0
 23 18  1  0
 24 25  2  0
 24 22  1  0
 26 25  1  0
 27 26  2  0
 28 27  1  0
 28 33  2  0
 29 28  1  0
 30 29  2  0
 30 31  1  0
 31 32  2  0
 32 33  1  0
 33 24  1  0
  1 34  1  0
  1 35  1  0
  2 36  1  0
  4 37  1  0
  9 38  1  0
 12 39  1  0
 12 40  1  0
 14 41  1  0
 15 42  1  0
 17 43  1  0
 17 44  1  0
 19 45  1  0
 20 46  1  0
 21 47  1  0
 26 48  1  0
 29 49  1  0
 30 50  1  0
 31 51  1  0
 32 52  1  0
M  END
>  <Score>  (1) 
-7.51918

$$$$
