
     RDKit          3D

 40 44  0  0  0  0  0  0  0  0999 V2000
   41.2970   81.6750   55.7980 C   0  0  0  0  0  0  0  0  0  0  0  0
   40.5630   80.4950   55.7480 C   0  0  0  0  0  0  0  0  0  0  0  0
   39.7620   80.1480   56.8140 C   0  0  0  0  0  0  0  0  0  0  0  0
   39.7510   81.0240   57.8690 N   0  0  0  0  0  0  0  0  0  0  0  0
   40.4620   82.1560   57.9010 C   0  0  0  0  0  0  0  0  0  0  0  0
   41.2280   82.4740   56.8740 N   0  0  0  0  0  0  0  0  0  0  0  0
   40.3700   83.0110   59.0810 C   0  0  0  0  0  0  0  0  0  0  0  0
   39.8080   84.2730   59.1290 C   0  0  0  0  0  0  0  0  0  0  0  0
   39.8980   84.7570   60.3670 N   0  0  0  0  0  0  0  0  0  0  0  0
   40.5080   83.8380   61.1310 C   0  0  0  0  0  0  0  0  0  0  0  0
   40.7870   82.7880   60.3380 N   0  0  0  0  0  0  0  0  0  0  0  0
   40.7950   83.9790   62.5280 N   0  0  0  0  0  0  0  0  0  0  0  0
   39.9830   83.5990   63.5060 N   0  0  0  0  0  0  0  0  0  0  0  0
   40.5460   83.8700   64.7020 C   0  0  0  0  0  0  0  0  0  0  0  0
   41.7650   84.4440   64.4630 C   0  0  0  0  0  0  0  0  0  0  0  0
   41.9060   84.5050   63.0850 C   0  0  0  0  0  0  0  0  0  0  0  0
   38.8800   79.0330   56.9440 C   0  0  0  0  0  0  0  0  0  0  0  0
   37.8330   78.9420   56.0110 C   0  0  0  0  0  0  0  0  0  0  0  0
   36.8810   77.9520   55.9830 C   0  0  0  0  0  0  0  0  0  0  0  0
   36.9160   76.9490   56.9260 C   0  0  0  0  0  0  0  0  0  0  0  0
   37.9140   76.9770   57.8730 C   0  0  0  0  0  0  0  0  0  0  0  0
   37.9630   76.0100   58.8560 C   0  0  0  0  0  0  0  0  0  0  0  0
   38.9320   76.0140   59.8660 C   0  0  0  0  0  0  0  0  0  0  0  0
   39.8410   77.0630   59.8040 C   0  0  0  0  0  0  0  0  0  0  0  0
   39.7640   78.0020   58.8170 C   0  0  0  0  0  0  0  0  0  0  0  0
   38.8270   78.0000   57.8340 C   0  0  0  0  0  0  0  0  0  0  0  0
   41.9386   81.9555   54.9497 H   0  0  0  0  0  0  0  0  0  0  0  0
   40.6214   79.8433   54.8638 H   0  0  0  0  0  0  0  0  0  0  0  0
   39.3553   84.7979   58.2749 H   0  0  0  0  0  0  0  0  0  0  0  0
   41.2577   81.9276   60.6528 H   0  0  0  0  0  0  0  0  0  0  0  0
   40.1054   83.6666   65.6892 H   0  0  0  0  0  0  0  0  0  0  0  0
   42.4897   84.7888   65.2153 H   0  0  0  0  0  0  0  0  0  0  0  0
   42.7717   84.9110   62.5411 H   0  0  0  0  0  0  0  0  0  0  0  0
   37.7708   79.7259   55.2419 H   0  0  0  0  0  0  0  0  0  0  0  0
   36.0960   77.9604   55.2125 H   0  0  0  0  0  0  0  0  0  0  0  0
   36.1648   76.1454   56.9223 H   0  0  0  0  0  0  0  0  0  0  0  0
   37.2125   75.2059   58.8455 H   0  0  0  0  0  0  0  0  0  0  0  0
   38.9710   75.2439   60.6505 H   0  0  0  0  0  0  0  0  0  0  0  0
   40.6346   77.1376   60.5620 H   0  0  0  0  0  0  0  0  0  0  0  0
   40.5082   78.8121   58.8176 H   0  0  0  0  0  0  0  0  0  0  0  0
  1  6  2  0
  2  1  1  0
  2  3  2  0
  3 17  1  0
  3  4  1  0
  4  5  2  0
  5  7  1  0
  6  5  1  0
  7  8  2  0
  7 11  1  0
  8  9  1  0
  9 10  2  0
 10 12  1  0
 11 10  1  0
 12 16  1  0
 12 13  1  0
 13 14  2  0
 15 14  1  0
 16 15  2  0
 17 26  1  0
 18 17  2  0
 19 18  1  0
 19 20  2  0
 20 21  1  0
 21 22  1  0
 22 23  2  0
 24 23  1  0
 25 24  2  0
 26 21  2  0
 26 25  1  0
  1 27  1  0
  2 28  1  0
  8 29  1  0
 11 30  1  0
 14 31  1  0
 15 32  1  0
 16 33  1  0
 18 34  1  0
 19 35  1  0
 20 36  1  0
 22 37  1  0
 23 38  1  0
 24 39  1  0
 25 40  1  0
M  END
>  <Score>  (1) 
-7.64791

$$$$
