
     RDKit          3D

 49 52  0  0  1  0  0  0  0  0999 V2000
   39.5720   83.5830   60.1190 C   0  0  0  0  0  0  0  0  0  0  0  0
   40.0370   82.2570   60.1300 C   0  0  0  0  0  0  0  0  0  0  0  0
   40.8010   81.8610   61.2370 C   0  0  0  0  0  0  0  0  0  0  0  0
   41.0070   82.8010   62.1920 N   0  0  0  0  0  0  0  0  0  0  0  0
   40.5610   84.0400   62.1690 C   0  0  0  0  0  0  0  0  0  0  0  0
   39.8360   84.4210   61.1100 N   0  0  0  0  0  0  0  0  0  0  0  0
   40.8600   84.8950   63.2730 N   0  0  0  0  0  0  0  0  0  0  0  0
   40.3960   84.4960   64.5730 C   0  0  0  0  0  0  0  0  0  0  0  0
   40.3990   83.2810   64.9630 N   0  0  0  0  0  0  0  0  0  0  0  0
   39.9110   85.5160   65.4630 N   0  0  0  0  0  0  0  0  0  0  0  0
   40.7350   82.4700   64.4620 H   0  0  0  0  0  0  0  0  0  0  0  0
   41.3470   80.5600   61.3740 N   0  0  0  0  0  0  0  0  0  0  0  0
   40.7790   79.4340   62.0770 C   0  0  0  0  0  0  0  0  0  0  0  0
   41.7790   78.3270   61.8820 C   0  0  0  0  0  0  0  0  0  0  0  0
   43.0720   79.0980   61.8170 C   0  0  0  0  0  0  0  0  0  0  0  0
   42.5990   80.1630   60.8080 C   0  0  2  0  0  0  0  0  0  0  0  0
   43.6450   81.2230   60.7970 C   0  0  1  0  0  0  0  0  0  0  0  0
   43.4010   82.1080   59.6100 C   0  0  0  0  0  0  0  0  0  0  0  0
   43.9030   83.4880   59.9070 C   0  0  0  0  0  0  0  0  0  0  0  0
   43.9340   83.5570   61.4030 C   0  0  0  0  0  0  0  0  0  0  0  0
   43.5970   82.1840   61.9160 C   0  0  2  0  0  0  0  0  0  0  0  0
   44.8620   81.8440   62.6460 N   0  0  0  0  0  0  0  0  0  0  0  0
   45.4450   80.6240   62.4380 C   0  0  0  0  0  0  0  0  0  0  0  0
   46.6030   80.4940   63.1980 C   0  0  0  0  0  0  0  0  0  0  0  0
   46.6740   81.6580   63.8430 N   0  0  0  0  0  0  0  0  0  0  0  0
   45.6460   82.4500   63.5150 C   0  0  0  0  0  0  0  0  0  0  0  0
   38.9734   83.9340   59.2655 H   0  0  0  0  0  0  0  0  0  0  0  0
   39.8120   81.5616   59.3079 H   0  0  0  0  0  0  0  0  0  0  0  0
   41.3903   85.7682   63.1418 H   0  0  0  0  0  0  0  0  0  0  0  0
   39.5716   85.2617   66.4016 H   0  0  0  0  0  0  0  0  0  0  0  0
   39.9030   86.5010   65.1619 H   0  0  0  0  0  0  0  0  0  0  0  0
   40.6566   79.6640   63.1457 H   0  0  0  0  0  0  0  0  0  0  0  0
   39.7799   79.1668   61.7023 H   0  0  0  0  0  0  0  0  0  0  0  0
   41.7718   77.6252   62.7290 H   0  0  0  0  0  0  0  0  0  0  0  0
   41.5865   77.6991   60.9996 H   0  0  0  0  0  0  0  0  0  0  0  0
   43.3532   79.5323   62.7877 H   0  0  0  0  0  0  0  0  0  0  0  0
   43.9739   78.5286   61.5482 H   0  0  0  0  0  0  0  0  0  0  0  0
   42.4643   79.8627   59.7584 H   0  0  0  0  0  0  0  0  0  0  0  0
   44.5923   80.6645   60.8238 H   0  0  0  0  0  0  0  0  0  0  0  0
   42.3225   82.1476   59.3972 H   0  0  0  0  0  0  0  0  0  0  0  0
   43.9317   81.7042   58.7352 H   0  0  0  0  0  0  0  0  0  0  0  0
   44.9100   83.6346   59.4893 H   0  0  0  0  0  0  0  0  0  0  0  0
   43.2693   84.2701   59.4634 H   0  0  0  0  0  0  0  0  0  0  0  0
   44.9363   83.8526   61.7464 H   0  0  0  0  0  0  0  0  0  0  0  0
   43.2151   84.3016   61.7756 H   0  0  0  0  0  0  0  0  0  0  0  0
   42.6363   82.1534   62.4509 H   0  0  0  0  0  0  0  0  0  0  0  0
   45.0516   79.8508   61.7617 H   0  0  0  0  0  0  0  0  0  0  0  0
   47.2923   79.6385   63.2531 H   0  0  0  0  0  0  0  0  0  0  0  0
   45.4794   83.4616   63.9136 H   0  0  0  0  0  0  0  0  0  0  0  0
  1  2  2  0
  1  6  1  0
  2  3  1  0
  3 12  1  0
  3  4  2  0
  5  4  1  0
  5  7  1  0
  6  5  2  0
  7  8  1  0
  8  9  2  0
  8 10  1  0
 11  9  1  0
 12 13  1  0
 14 13  1  0
 15 14  1  0
 16 12  1  0
 16 15  1  0
 17 16  1  0
 17 21  1  0
 18 19  1  0
 18 17  1  0
 19 20  1  0
 20 21  1  0
 21 22  1  0
 22 26  1  0
 23 22  1  0
 23 24  2  0
 24 25  1  0
 26 25  2  0
  1 27  1  0
  2 28  1  0
  7 29  1  0
 10 30  1  0
 10 31  1  0
 13 32  1  0
 13 33  1  0
 14 34  1  0
 14 35  1  0
 15 36  1  0
 15 37  1  0
 16 38  1  6
 17 39  1  6
 18 40  1  0
 18 41  1  0
 19 42  1  0
 19 43  1  0
 20 44  1  0
 20 45  1  0
 21 46  1  1
 23 47  1  0
 24 48  1  0
 26 49  1  0
M  END
>  <Score>  (1) 
-7.00971

$$$$
