
     RDKit          3D

 45 49  0  0  1  0  0  0  0  0999 V2000
   42.7530   86.5120   58.4860 C   0  0  0  0  0  0  0  0  0  0  0  0
   43.1170   86.0160   59.7630 C   0  0  0  0  0  0  0  0  0  0  0  0
   44.1270   86.6540   60.4270 C   0  0  0  0  0  0  0  0  0  0  0  0
   44.7220   87.7340   59.8120 N   0  0  0  0  0  0  0  0  0  0  0  0
   44.3560   88.1720   58.6140 C   0  0  0  0  0  0  0  0  0  0  0  0
   43.3520   87.5580   57.9250 N   0  0  0  0  0  0  0  0  0  0  0  0
   45.0100   89.2910   58.0310 N   0  0  0  0  0  0  0  0  0  0  0  0
   46.0900   89.1120   57.2280 C   0  0  0  0  0  0  0  0  0  0  0  0
   46.5040   90.3690   56.8130 C   0  0  0  0  0  0  0  0  0  0  0  0
   45.6600   91.2910   57.3780 N   0  0  0  0  0  0  0  0  0  0  0  0
   44.7650   90.5990   58.1110 C   0  0  0  0  0  0  0  0  0  0  0  0
   43.7000   91.1680   58.8710 N   0  0  0  0  0  0  0  0  0  0  0  0
   42.9660   92.0230   58.1080 C   0  0  0  0  0  0  0  0  0  0  0  0
   41.8770   92.6910   58.6430 C   0  0  0  0  0  0  0  0  0  0  0  0
   41.0390   93.6390   57.8440 C   0  0  0  0  0  0  0  0  0  0  0  0
   41.5770   92.4480   59.9770 C   0  0  0  0  0  0  0  0  0  0  0  0
   40.5940   93.0420   60.4890 O   0  0  0  0  0  0  0  0  0  0  0  0
   42.3280   91.5970   60.6990 N   0  0  0  0  0  0  0  0  0  0  0  0
   43.3820   90.9570   60.1610 C   0  0  0  0  0  0  0  0  0  0  0  0
   44.1420   90.1450   60.7500 O   0  0  0  0  0  0  0  0  0  0  0  0
   42.3650   84.8800   60.2440 N   0  0  0  0  0  0  0  0  0  0  0  0
   41.6870   83.9990   59.4900 C   0  0  0  0  0  0  0  0  0  0  0  0
   41.0730   83.1060   60.3080 N   0  0  0  0  0  0  0  0  0  0  0  0
   41.3510   83.4090   61.5670 C   0  0  0  0  0  0  0  0  0  0  0  0
   40.9970   82.9490   62.8030 C   0  0  2  0  0  0  0  0  0  0  0  0
   41.5940   83.4010   63.9230 N   0  0  0  0  0  0  0  0  0  0  0  0
   42.4090   84.4890   63.8950 C   0  0  0  0  0  0  0  0  0  0  0  0
   42.6840   85.0440   62.7030 N   0  0  0  0  0  0  0  0  0  0  0  0
   42.1700   84.5240   61.5470 C   0  0  0  0  0  0  0  0  0  0  0  0
   40.6430   81.5490   62.9030 N   0  0  0  0  0  0  0  0  0  0  0  0
   41.9420   86.0112   57.9369 H   0  0  0  0  0  0  0  0  0  0  0  0
   44.4546   86.3159   61.4212 H   0  0  0  0  0  0  0  0  0  0  0  0
   46.5504   88.1503   56.9573 H   0  0  0  0  0  0  0  0  0  0  0  0
   47.3549   90.5870   56.1508 H   0  0  0  0  0  0  0  0  0  0  0  0
   43.2405   92.1853   57.0552 H   0  0  0  0  0  0  0  0  0  0  0  0
   40.4669   94.2862   58.5251 H   0  0  0  0  0  0  0  0  0  0  0  0
   41.6900   94.2587   57.2098 H   0  0  0  0  0  0  0  0  0  0  0  0
   40.3441   93.0690   57.2098 H   0  0  0  0  0  0  0  0  0  0  0  0
   42.0904   91.4314   61.6874 H   0  0  0  0  0  0  0  0  0  0  0  0
   41.6374   84.0007   58.3911 H   0  0  0  0  0  0  0  0  0  0  0  0
   40.0722   83.5445   62.8126 H   0  0  0  0  0  0  0  0  0  0  0  0
   42.8313   84.9031   64.8224 H   0  0  0  0  0  0  0  0  0  0  0  0
   43.2917   85.8745   62.6588 H   0  0  0  0  0  0  0  0  0  0  0  0
   40.5755   81.2820   63.8955 H   0  0  0  0  0  0  0  0  0  0  0  0
   39.7355   81.3906   62.4423 H   0  0  0  0  0  0  0  0  0  0  0  0
  1  2  2  0
  2 21  1  0
  2  3  1  0
  4  3  2  0
  5  4  1  0
  6  1  1  0
  6  5  2  0
  7 11  1  0
  7  5  1  0
  8  7  1  0
  9  8  2  0
  9 10  1  0
 10 11  2  0
 11 12  1  0
 12 19  1  0
 13 14  2  0
 13 12  1  0
 14 16  1  0
 15 14  1  0
 16 17  2  0
 16 18  1  0
 19 18  1  0
 19 20  2  0
 21 29  1  0
 22 21  1  0
 22 23  2  0
 23 24  1  0
 24 25  1  0
 25 30  1  0
 25 26  1  0
 27 26  2  0
 28 27  1  0
 29 24  2  0
 29 28  1  0
  1 31  1  0
  3 32  1  0
  8 33  1  0
  9 34  1  0
 13 35  1  0
 15 36  1  0
 15 37  1  0
 15 38  1  0
 18 39  1  0
 22 40  1  0
 25 41  1  1
 27 42  1  0
 28 43  1  0
 30 44  1  0
 30 45  1  0
M  END
>  <Score>  (1) 
-7.66675

$$$$
