
     RDKit          3D

 47 49  0  0  1  0  0  0  0  0999 V2000
   40.4810   83.8280   58.6370 C   0  0  0  0  0  0  0  0  0  0  0  0
   39.5830   84.5720   59.3810 C   0  0  0  0  0  0  0  0  0  0  0  0
   39.1940   84.0510   60.6190 C   0  0  0  0  0  0  0  0  0  0  0  0
   39.7150   82.8620   61.0090 N   0  0  0  0  0  0  0  0  0  0  0  0
   40.5870   82.1610   60.2620 C   0  0  0  0  0  0  0  0  0  0  0  0
   40.9720   82.6550   59.0590 N   0  0  0  0  0  0  0  0  0  0  0  0
   41.0840   80.9070   60.7610 N   0  0  0  0  0  0  0  0  0  0  0  0
   40.1910   79.8410   61.0520 C   0  0  0  0  0  0  0  0  0  0  0  0
   40.9180   78.5130   60.9320 C   0  0  0  0  0  0  0  0  0  0  0  0
   42.1440   78.4250   61.7820 C   0  0  0  0  0  0  0  0  0  0  0  0
   42.8760   79.7230   61.9210 C   0  0  0  0  0  0  0  0  0  0  0  0
   42.5140   80.7900   60.9490 C   0  0  2  0  0  0  0  0  0  0  0  0
   43.0490   82.0880   61.4820 C   0  0  0  0  0  0  0  0  0  0  0  0
   44.0390   82.7910   60.8560 C   0  0  0  0  0  0  0  0  0  0  0  0
   44.4770   83.9780   61.4050 C   0  0  0  0  0  0  0  0  0  0  0  0
   43.9090   84.4310   62.5730 N   0  0  0  0  0  0  0  0  0  0  0  0
   42.9360   83.7300   63.1790 C   0  0  0  0  0  0  0  0  0  0  0  0
   42.5090   82.5700   62.6390 N   0  0  0  0  0  0  0  0  0  0  0  0
   42.3670   84.2220   64.3850 N   0  0  0  0  0  0  0  0  0  0  0  0
   40.9630   84.2110   64.5790 C   0  0  0  0  0  0  0  0  0  0  0  0
   40.2420   83.3180   63.9450 N   0  0  0  0  0  0  0  0  0  0  0  0
   40.3950   85.1880   65.4660 N   0  0  0  0  0  0  0  0  0  0  0  0
   39.2010   83.3260   64.1230 H   0  0  0  0  0  0  0  0  0  0  0  0
   45.4970   84.7710   60.8140 N   0  0  0  0  0  0  0  0  0  0  0  0
   45.3300   86.1050   60.4100 C   0  0  0  0  0  0  0  0  0  0  0  0
   44.7030   86.8720   61.2720 N   0  0  0  0  0  0  0  0  0  0  0  0
   45.8410   86.5280   59.1280 N   0  0  0  0  0  0  0  0  0  0  0  0
   44.5900   87.8570   60.9530 H   0  0  0  0  0  0  0  0  0  0  0  0
   40.8050   84.2150   57.6596 H   0  0  0  0  0  0  0  0  0  0  0  0
   39.1916   85.5324   59.0144 H   0  0  0  0  0  0  0  0  0  0  0  0
   38.4830   84.5925   61.2603 H   0  0  0  0  0  0  0  0  0  0  0  0
   39.8070   79.9557   62.0764 H   0  0  0  0  0  0  0  0  0  0  0  0
   39.3547   79.8628   60.3378 H   0  0  0  0  0  0  0  0  0  0  0  0
   40.2283   77.7103   61.2318 H   0  0  0  0  0  0  0  0  0  0  0  0
   41.2425   78.4155   59.8855 H   0  0  0  0  0  0  0  0  0  0  0  0
   41.8471   78.0849   62.7851 H   0  0  0  0  0  0  0  0  0  0  0  0
   42.8289   77.7221   61.2853 H   0  0  0  0  0  0  0  0  0  0  0  0
   42.6824   80.1106   62.9321 H   0  0  0  0  0  0  0  0  0  0  0  0
   43.9316   79.4881   61.7199 H   0  0  0  0  0  0  0  0  0  0  0  0
   42.9471   80.5357   59.9704 H   0  0  0  0  0  0  0  0  0  0  0  0
   44.4827   82.4139   59.9228 H   0  0  0  0  0  0  0  0  0  0  0  0
   42.9811   84.5902   65.1254 H   0  0  0  0  0  0  0  0  0  0  0  0
   39.3781   85.2066   65.6284 H   0  0  0  0  0  0  0  0  0  0  0  0
   41.0047   85.8699   65.9395 H   0  0  0  0  0  0  0  0  0  0  0  0
   46.4209   84.3381   60.6725 H   0  0  0  0  0  0  0  0  0  0  0  0
   45.7230   87.5048   58.8234 H   0  0  0  0  0  0  0  0  0  0  0  0
   46.3236   85.8530   58.5178 H   0  0  0  0  0  0  0  0  0  0  0  0
  1  6  2  0
  1  2  1  0
  2  3  2  0
  3  4  1  0
  5  7  1  0
  5  4  2  0
  6  5  1  0
  7 12  1  0
  7  8  1  0
  9  8  1  0
  9 10  1  0
 10 11  1  0
 12 13  1  0
 12 11  1  0
 13 18  2  0
 14 15  2  0
 14 13  1  0
 15 16  1  0
 16 17  2  0
 17 19  1  0
 18 17  1  0
 19 20  1  0
 20 22  1  0
 21 23  1  0
 21 20  2  0
 24 15  1  0
 25 24  1  0
 25 26  2  0
 27 25  1  0
 28 26  1  0
  1 29  1  0
  2 30  1  0
  3 31  1  0
  8 32  1  0
  8 33  1  0
  9 34  1  0
  9 35  1  0
 10 36  1  0
 10 37  1  0
 11 38  1  0
 11 39  1  0
 12 40  1  6
 14 41  1  0
 19 42  1  0
 22 43  1  0
 22 44  1  0
 24 45  1  0
 27 46  1  0
 27 47  1  0
M  END
>  <Score>  (1) 
-7.59827

$$$$
