
     RDKit          3D

 41 44  0  0  0  0  0  0  0  0999 V2000
   40.1760   83.9210   59.9480 C   0  0  0  0  0  0  0  0  0  0  0  0
   39.3100   84.4420   60.9150 C   0  0  0  0  0  0  0  0  0  0  0  0
   38.9510   83.6170   61.9620 C   0  0  0  0  0  0  0  0  0  0  0  0
   39.4500   82.3440   62.0100 N   0  0  0  0  0  0  0  0  0  0  0  0
   40.2890   81.8860   61.0450 C   0  0  0  0  0  0  0  0  0  0  0  0
   40.6460   82.6630   60.0310 N   0  0  0  0  0  0  0  0  0  0  0  0
   40.8110   80.5590   61.0930 N   0  0  0  0  0  0  0  0  0  0  0  0
   40.0530   79.5940   60.5650 C   0  0  0  0  0  0  0  0  0  0  0  0
   40.4950   78.3100   60.6050 C   0  0  0  0  0  0  0  0  0  0  0  0
   41.7060   78.0910   61.1960 C   0  0  0  0  0  0  0  0  0  0  0  0
   42.2750   76.8280   61.4100 N   0  0  0  0  0  0  0  0  0  0  0  0
   42.4580   79.0890   61.7220 N   0  0  0  0  0  0  0  0  0  0  0  0
   42.0010   80.3950   61.6740 C   0  0  0  0  0  0  0  0  0  0  0  0
   42.6330   81.3870   62.1370 O   0  0  0  0  0  0  0  0  0  0  0  0
   39.7600   77.1920   60.0570 C   0  0  0  0  0  0  0  0  0  0  0  0
   39.5570   76.1020   60.8760 C   0  0  0  0  0  0  0  0  0  0  0  0
   38.8430   75.0030   60.5430 C   0  0  0  0  0  0  0  0  0  0  0  0
   38.2920   74.9960   59.2990 C   0  0  0  0  0  0  0  0  0  0  0  0
   38.4670   76.0690   58.4310 C   0  0  0  0  0  0  0  0  0  0  0  0
   39.2040   77.1660   58.8100 C   0  0  0  0  0  0  0  0  0  0  0  0
   39.3010   78.0930   57.7140 C   0  0  0  0  0  0  0  0  0  0  0  0
   38.0070   78.4110   57.2450 C   0  0  0  0  0  0  0  0  0  0  0  0
   37.7770   79.3070   56.2210 C   0  0  0  0  0  0  0  0  0  0  0  0
   38.8780   79.9160   55.6380 C   0  0  0  0  0  0  0  0  0  0  0  0
   40.1540   79.6290   56.0720 C   0  0  0  0  0  0  0  0  0  0  0  0
   40.3880   78.7350   57.0930 C   0  0  0  0  0  0  0  0  0  0  0  0
   40.4795   84.5537   59.1009 H   0  0  0  0  0  0  0  0  0  0  0  0
   38.9290   85.4714   60.8438 H   0  0  0  0  0  0  0  0  0  0  0  0
   38.2720   83.9787   62.7482 H   0  0  0  0  0  0  0  0  0  0  0  0
   39.0840   79.8358   60.1040 H   0  0  0  0  0  0  0  0  0  0  0  0
   43.1960   76.7483   61.8642 H   0  0  0  0  0  0  0  0  0  0  0  0
   41.7721   75.9796   61.1130 H   0  0  0  0  0  0  0  0  0  0  0  0
   40.0108   76.1282   61.8777 H   0  0  0  0  0  0  0  0  0  0  0  0
   38.7147   74.1612   61.2394 H   0  0  0  0  0  0  0  0  0  0  0  0
   37.6989   74.1283   58.9745 H   0  0  0  0  0  0  0  0  0  0  0  0
   38.0107   76.0394   57.4305 H   0  0  0  0  0  0  0  0  0  0  0  0
   37.1427   77.9218   57.7179 H   0  0  0  0  0  0  0  0  0  0  0  0
   36.7557   79.5304   55.8790 H   0  0  0  0  0  0  0  0  0  0  0  0
   38.7311   80.6364   54.8198 H   0  0  0  0  0  0  0  0  0  0  0  0
   41.0082   80.1272   55.5902 H   0  0  0  0  0  0  0  0  0  0  0  0
   41.4168   78.5245   57.4205 H   0  0  0  0  0  0  0  0  0  0  0  0
  1  6  2  0
  1  2  1  0
  2  3  2  0
  3  4  1  0
  5  7  1  0
  5  4  2  0
  6  5  1  0
  7 13  1  0
  8  9  2  0
  8  7  1  0
  9 10  1  0
 10 11  1  0
 10 12  2  0
 13 12  1  0
 13 14  2  0
 15  9  1  0
 15 16  2  0
 17 16  1  0
 18 17  2  0
 19 20  2  0
 19 18  1  0
 20 15  1  0
 21 20  1  0
 22 21  2  0
 23 22  1  0
 24 25  1  0
 24 23  2  0
 25 26  2  0
 26 21  1  0
  1 27  1  0
  2 28  1  0
  3 29  1  0
  8 30  1  0
 11 31  1  0
 11 32  1  0
 16 33  1  0
 17 34  1  0
 18 35  1  0
 19 36  1  0
 22 37  1  0
 23 38  1  0
 24 39  1  0
 25 40  1  0
 26 41  1  0
M  END
>  <Score>  (1) 
-7.04977

$$$$
