
     RDKit          3D

 46 49  0  0  0  0  0  0  0  0999 V2000
   41.6580   77.0140   61.1510 C   0  0  0  0  0  0  0  0  0  0  0  0
   41.2880   78.3520   61.1100 C   0  0  0  0  0  0  0  0  0  0  0  0
   42.1410   79.3480   61.5210 C   0  0  0  0  0  0  0  0  0  0  0  0
   43.3870   78.9440   61.9770 N   0  0  0  0  0  0  0  0  0  0  0  0
   43.7370   77.6530   62.0130 C   0  0  0  0  0  0  0  0  0  0  0  0
   42.8820   76.7040   61.6050 N   0  0  0  0  0  0  0  0  0  0  0  0
   40.7510   76.0270   60.7190 N   0  0  0  0  0  0  0  0  0  0  0  0
   39.3920   76.3910   60.5700 C   0  0  0  0  0  0  0  0  0  0  0  0
   38.4840   75.3920   60.0200 C   0  0  0  0  0  0  0  0  0  0  0  0
   39.0520   74.0560   59.6590 C   0  0  0  0  0  0  0  0  0  0  0  0
   40.1690   73.6760   60.6380 C   0  0  0  0  0  0  0  0  0  0  0  0
   41.2500   74.6890   60.4500 C   0  0  0  0  0  0  0  0  0  0  0  0
   41.8520   80.7710   61.5210 C   0  0  0  0  0  0  0  0  0  0  0  0
   42.0900   81.5810   60.4410 C   0  0  0  0  0  0  0  0  0  0  0  0
   41.6970   82.8730   60.7910 C   0  0  0  0  0  0  0  0  0  0  0  0
   41.2470   82.7960   62.0420 N   0  0  0  0  0  0  0  0  0  0  0  0
   41.3360   81.5590   62.4740 N   0  0  0  0  0  0  0  0  0  0  0  0
   41.7810   84.0160   59.9460 N   0  0  0  0  0  0  0  0  0  0  0  0
   42.9570   84.6840   59.9880 C   0  0  0  0  0  0  0  0  0  0  0  0
   43.0770   85.7940   59.1870 C   0  0  0  0  0  0  0  0  0  0  0  0
   44.2910   86.6650   59.0880 C   0  0  0  0  0  0  0  0  0  0  0  0
   41.9960   86.1690   58.3840 C   0  0  0  0  0  0  0  0  0  0  0  0
   42.0660   87.1680   57.6450 O   0  0  0  0  0  0  0  0  0  0  0  0
   40.8190   85.4800   58.3580 N   0  0  0  0  0  0  0  0  0  0  0  0
   40.7560   84.4010   59.1630 C   0  0  0  0  0  0  0  0  0  0  0  0
   39.6760   83.7560   59.1500 O   0  0  0  0  0  0  0  0  0  0  0  0
   40.7250   83.8750   62.8500 C   0  0  0  0  0  0  0  0  0  0  0  0
   40.2390   83.4040   64.0670 F   0  0  0  0  0  0  0  0  0  0  0  0
   39.6540   84.5110   62.2350 F   0  0  0  0  0  0  0  0  0  0  0  0
   41.7270   84.7820   63.0750 F   0  0  0  0  0  0  0  0  0  0  0  0
   40.2878   78.6211   60.7395 H   0  0  0  0  0  0  0  0  0  0  0  0
   44.7340   77.3680   62.3802 H   0  0  0  0  0  0  0  0  0  0  0  0
   39.0340   77.3903   60.8584 H   0  0  0  0  0  0  0  0  0  0  0  0
   37.4163   75.6133   59.8752 H   0  0  0  0  0  0  0  0  0  0  0  0
   38.2559   73.2982   59.7035 H   0  0  0  0  0  0  0  0  0  0  0  0
   39.4665   74.1043   58.6412 H   0  0  0  0  0  0  0  0  0  0  0  0
   39.7955   73.7043   61.6723 H   0  0  0  0  0  0  0  0  0  0  0  0
   40.5375   72.6568   60.4498 H   0  0  0  0  0  0  0  0  0  0  0  0
   42.0775   74.4666   61.1397 H   0  0  0  0  0  0  0  0  0  0  0  0
   41.5999   74.6443   59.4081 H   0  0  0  0  0  0  0  0  0  0  0  0
   42.5135   81.2692   59.4749 H   0  0  0  0  0  0  0  0  0  0  0  0
   43.7819   84.3525   60.6358 H   0  0  0  0  0  0  0  0  0  0  0  0
   44.6440   86.9182   60.0986 H   0  0  0  0  0  0  0  0  0  0  0  0
   45.0840   86.1285   58.5463 H   0  0  0  0  0  0  0  0  0  0  0  0
   44.0368   87.5880   58.5463 H   0  0  0  0  0  0  0  0  0  0  0  0
   40.0294   85.7659   57.7616 H   0  0  0  0  0  0  0  0  0  0  0  0
  1  6  1  0
  2  1  2  0
  2  3  1  0
  3  4  2  0
  4  5  1  0
  6  5  2  0
  7  1  1  0
  8  7  1  0
  9  8  2  0
 10  9  1  0
 10 11  1  0
 12 11  1  0
 12  7  1  0
 13  3  1  0
 13 17  2  0
 14 15  2  0
 14 13  1  0
 15 16  1  0
 16 17  1  0
 16 27  1  0
 18 19  1  0
 18 15  1  0
 20 19  2  0
 21 20  1  0
 22 20  1  0
 23 22  2  0
 24 22  1  0
 24 25  1  0
 25 18  1  0
 26 25  2  0
 27 30  1  0
 27 28  1  0
 29 27  1  0
  2 31  1  0
  5 32  1  0
  8 33  1  0
  9 34  1  0
 10 35  1  0
 10 36  1  0
 11 37  1  0
 11 38  1  0
 12 39  1  0
 12 40  1  0
 14 41  1  0
 19 42  1  0
 21 43  1  0
 21 44  1  0
 21 45  1  0
 24 46  1  0
M  END
>  <Score>  (1) 
-7.47879

$$$$
