
     RDKit          3D

 52 55  0  0  1  0  0  0  0  0999 V2000
   39.6900   83.6040   60.0820 C   0  0  0  0  0  0  0  0  0  0  0  0
   40.0630   82.2490   60.1000 C   0  0  0  0  0  0  0  0  0  0  0  0
   40.7560   81.7980   61.2310 C   0  0  0  0  0  0  0  0  0  0  0  0
   40.9910   82.7160   62.1990 N   0  0  0  0  0  0  0  0  0  0  0  0
   40.6310   83.9820   62.1680 C   0  0  0  0  0  0  0  0  0  0  0  0
   39.9730   84.4170   61.0870 N   0  0  0  0  0  0  0  0  0  0  0  0
   40.9450   84.8120   63.2860 N   0  0  0  0  0  0  0  0  0  0  0  0
   40.4070   84.4420   64.5680 C   0  0  0  0  0  0  0  0  0  0  0  0
   40.3130   83.2260   64.9480 N   0  0  0  0  0  0  0  0  0  0  0  0
   39.9630   85.4830   65.4530 N   0  0  0  0  0  0  0  0  0  0  0  0
   40.6140   82.3980   64.4560 H   0  0  0  0  0  0  0  0  0  0  0  0
   41.2100   80.4630   61.3790 N   0  0  0  0  0  0  0  0  0  0  0  0
   40.5420   79.3740   62.0520 C   0  0  0  0  0  0  0  0  0  0  0  0
   41.4640   78.2020   61.8860 C   0  0  0  0  0  0  0  0  0  0  0  0
   42.8180   78.8840   61.8770 C   0  0  0  0  0  0  0  0  0  0  0  0
   42.4510   79.9820   60.8570 C   0  0  2  0  0  0  0  0  0  0  0  0
   43.5690   80.9710   60.8910 C   0  0  1  0  0  0  0  0  0  0  0  0
   43.3050   82.0050   59.8350 C   0  0  0  0  0  0  0  0  0  0  0  0
   43.9170   83.3070   60.2490 C   0  0  0  0  0  0  0  0  0  0  0  0
   44.0570   83.1940   61.7380 C   0  0  0  0  0  0  0  0  0  0  0  0
   43.6630   81.7910   62.1140 C   0  0  2  0  0  0  0  0  0  0  0  0
   44.9900   81.2860   62.7080 C   0  0  0  0  0  0  0  0  0  0  0  0
   45.1910   79.9150   62.4880 C   0  0  0  0  0  0  0  0  0  0  0  0
   46.3100   79.2250   62.9200 C   0  0  0  0  0  0  0  0  0  0  0  0
   47.2690   79.9420   63.6050 C   0  0  0  0  0  0  0  0  0  0  0  0
   47.0540   81.2770   63.8100 C   0  0  0  0  0  0  0  0  0  0  0  0
   45.9520   81.9590   63.3850 C   0  0  0  0  0  0  0  0  0  0  0  0
   39.1487   83.9990   59.2097 H   0  0  0  0  0  0  0  0  0  0  0  0
   39.8221   81.5743   59.2653 H   0  0  0  0  0  0  0  0  0  0  0  0
   41.5370   85.6480   63.1785 H   0  0  0  0  0  0  0  0  0  0  0  0
   39.5741   85.2431   66.3761 H   0  0  0  0  0  0  0  0  0  0  0  0
   40.0336   86.4692   65.1644 H   0  0  0  0  0  0  0  0  0  0  0  0
   40.3977   79.6064   63.1174 H   0  0  0  0  0  0  0  0  0  0  0  0
   39.5418   79.1791   61.6377 H   0  0  0  0  0  0  0  0  0  0  0  0
   41.3741   77.4975   62.7260 H   0  0  0  0  0  0  0  0  0  0  0  0
   41.2613   77.5940   60.9920 H   0  0  0  0  0  0  0  0  0  0  0  0
   43.0919   79.2941   62.8602 H   0  0  0  0  0  0  0  0  0  0  0  0
   43.6901   78.2565   61.6410 H   0  0  0  0  0  0  0  0  0  0  0  0
   42.3317   79.6932   59.8023 H   0  0  0  0  0  0  0  0  0  0  0  0
   44.4758   80.3579   60.7828 H   0  0  0  0  0  0  0  0  0  0  0  0
   42.2196   82.1330   59.7101 H   0  0  0  0  0  0  0  0  0  0  0  0
   43.7471   81.6780   58.8823 H   0  0  0  0  0  0  0  0  0  0  0  0
   44.8999   83.4439   59.7745 H   0  0  0  0  0  0  0  0  0  0  0  0
   43.3076   84.1721   59.9487 H   0  0  0  0  0  0  0  0  0  0  0  0
   45.0987   83.3858   62.0347 H   0  0  0  0  0  0  0  0  0  0  0  0
   43.4186   83.9302   62.2484 H   0  0  0  0  0  0  0  0  0  0  0  0
   42.7428   81.7490   62.7152 H   0  0  0  0  0  0  0  0  0  0  0  0
   44.4159   79.3575   61.9417 H   0  0  0  0  0  0  0  0  0  0  0  0
   46.4299   78.1490   62.7252 H   0  0  0  0  0  0  0  0  0  0  0  0
   48.1819   79.4533   63.9763 H   0  0  0  0  0  0  0  0  0  0  0  0
   47.8245   81.8407   64.3564 H   0  0  0  0  0  0  0  0  0  0  0  0
   45.8460   83.0349   63.5879 H   0  0  0  0  0  0  0  0  0  0  0  0
  1  2  2  0
  1  6  1  0
  2  3  1  0
  3 12  1  0
  3  4  2  0
  5  4  1  0
  5  7  1  0
  6  5  2  0
  7  8  1  0
  8  9  2  0
  8 10  1  0
 11  9  1  0
 12 13  1  0
 14 13  1  0
 15 14  1  0
 16 17  1  0
 16 12  1  0
 16 15  1  0
 17 21  1  0
 18 19  1  0
 18 17  1  0
 19 20  1  0
 20 21  1  0
 21 22  1  0
 22 27  1  0
 23 22  2  0
 23 24  1  0
 24 25  2  0
 25 26  1  0
 27 26  2  0
  1 28  1  0
  2 29  1  0
  7 30  1  0
 10 31  1  0
 10 32  1  0
 13 33  1  0
 13 34  1  0
 14 35  1  0
 14 36  1  0
 15 37  1  0
 15 38  1  0
 16 39  1  6
 17 40  1  6
 18 41  1  0
 18 42  1  0
 19 43  1  0
 19 44  1  0
 20 45  1  0
 20 46  1  0
 21 47  1  1
 23 48  1  0
 24 49  1  0
 25 50  1  0
 26 51  1  0
 27 52  1  0
M  END
>  <Score>  (1) 
-7.54049

$$$$
