
     RDKit          3D

 45 49  0  0  0  0  0  0  0  0999 V2000
   41.9360   86.0600   57.6650 C   0  0  0  0  0  0  0  0  0  0  0  0
   41.6740   84.9470   56.8180 C   0  0  0  0  0  0  0  0  0  0  0  0
   41.7670   83.6740   57.3510 C   0  0  0  0  0  0  0  0  0  0  0  0
   42.1060   83.6070   58.6550 N   0  0  0  0  0  0  0  0  0  0  0  0
   42.3570   84.6170   59.4690 C   0  0  0  0  0  0  0  0  0  0  0  0
   42.2690   85.8600   58.9590 N   0  0  0  0  0  0  0  0  0  0  0  0
   42.7140   84.4840   60.8600 C   0  0  0  0  0  0  0  0  0  0  0  0
   43.9700   84.5940   61.4370 C   0  0  0  0  0  0  0  0  0  0  0  0
   43.9010   84.3940   62.7780 N   0  0  0  0  0  0  0  0  0  0  0  0
   42.6110   84.1600   63.0380 C   0  0  0  0  0  0  0  0  0  0  0  0
   41.9590   83.8840   64.2550 C   0  0  0  0  0  0  0  0  0  0  0  0
   40.5720   83.6740   64.2220 C   0  0  0  0  0  0  0  0  0  0  0  0
   39.8380   83.7240   63.0860 C   0  0  0  0  0  0  0  0  0  0  0  0
   40.5040   83.9970   61.9050 C   0  0  0  0  0  0  0  0  0  0  0  0
   41.8670   84.2080   61.9010 C   0  0  0  0  0  0  0  0  0  0  0  0
   41.5040   82.4640   56.5490 C   0  0  0  0  0  0  0  0  0  0  0  0
   42.5420   81.9230   55.7830 C   0  0  0  0  0  0  0  0  0  0  0  0
   41.7090   80.4680   54.9770 S   0  0  0  0  0  0  0  0  0  0  0  0
   40.0810   80.8960   55.8680 C   0  0  0  0  0  0  0  0  0  0  0  0
   40.4030   81.7950   56.4320 N   0  0  0  0  0  0  0  0  0  0  0  0
   38.9440   79.9710   55.5600 C   0  0  0  0  0  0  0  0  0  0  0  0
   38.2830   80.1180   54.5230 O   0  0  0  0  0  0  0  0  0  0  0  0
   38.4420   76.8340   58.4040 C   0  0  0  0  0  0  0  0  0  0  0  0
   39.6400   77.5600   58.3810 C   0  0  0  0  0  0  0  0  0  0  0  0
   39.7580   78.5990   57.4510 C   0  0  0  0  0  0  0  0  0  0  0  0
   38.7040   78.9050   56.5700 C   0  0  0  0  0  0  0  0  0  0  0  0
   37.5420   78.1670   56.6300 C   0  0  0  0  0  0  0  0  0  0  0  0
   37.4190   77.1430   57.5400 C   0  0  0  0  0  0  0  0  0  0  0  0
   38.2110   75.4980   59.4800 S   0  0  0  0  0  0  0  0  0  0  0  0
   38.8280   74.2130   58.9430 O   0  0  0  0  0  0  0  0  0  0  0  0
   38.6610   75.7370   60.8820 O   0  0  0  0  0  0  0  0  0  0  0  0
   41.8674   87.0829   57.2663 H   0  0  0  0  0  0  0  0  0  0  0  0
   41.4034   85.0957   55.7622 H   0  0  0  0  0  0  0  0  0  0  0  0
   44.8953   84.8132   60.8841 H   0  0  0  0  0  0  0  0  0  0  0  0
   44.6788   84.4176   63.4528 H   0  0  0  0  0  0  0  0  0  0  0  0
   42.5186   83.8346   65.2007 H   0  0  0  0  0  0  0  0  0  0  0  0
   40.0546   83.4576   65.1683 H   0  0  0  0  0  0  0  0  0  0  0  0
   38.7514   83.5537   63.1014 H   0  0  0  0  0  0  0  0  0  0  0  0
   39.9418   84.0463   60.9608 H   0  0  0  0  0  0  0  0  0  0  0  0
   43.5816   82.2685   55.6831 H   0  0  0  0  0  0  0  0  0  0  0  0
   40.4618   77.3209   59.0720 H   0  0  0  0  0  0  0  0  0  0  0  0
   40.6879   79.1850   57.4079 H   0  0  0  0  0  0  0  0  0  0  0  0
   36.7102   78.3975   55.9481 H   0  0  0  0  0  0  0  0  0  0  0  0
   36.4860   76.5615   57.5768 H   0  0  0  0  0  0  0  0  0  0  0  0
   36.8497   75.3546   59.5356 H   0  0  0  0  0  0  0  0  0  0  0  0
  1  6  2  0
  2  3  2  0
  2  1  1  0
  3  4  1  0
  4  5  2  0
  5  7  1  0
  6  5  1  0
  7  8  2  0
  7 15  1  0
  8  9  1  0
  9 10  1  0
 10 11  2  0
 12 11  1  0
 13 12  2  0
 14 13  1  0
 15 14  2  0
 15 10  1  0
 16  3  1  0
 17 16  2  0
 18 17  1  0
 18 19  1  0
 19 20  2  0
 20 16  1  0
 21 19  1  0
 21 26  1  0
 22 21  2  0
 23 29  1  0
 24 23  2  0
 25 24  1  0
 26 27  1  0
 26 25  2  0
 27 28  2  0
 28 23  1  0
 29 31  2  0
 30 29  2  0
  1 32  1  0
  2 33  1  0
  8 34  1  0
  9 35  1  0
 11 36  1  0
 12 37  1  0
 13 38  1  0
 14 39  1  0
 17 40  1  0
 24 41  1  0
 25 42  1  0
 27 43  1  0
 28 44  1  0
 29 45  1  0
M  END
>  <Score>  (1) 
-7.06742

$$$$
