
     RDKit          3D

 49 54  0  0  0  0  0  0  0  0999 V2000
   40.1650   76.2390   60.7350 C   0  0  0  0  0  0  0  0  0  0  0  0
   40.5380   79.9220   60.6050 C   0  0  0  0  0  0  0  0  0  0  0  0
   41.6530   80.1330   61.4210 C   0  0  0  0  0  0  0  0  0  0  0  0
   42.2350   78.9860   61.9860 C   0  0  0  0  0  0  0  0  0  0  0  0
   41.7060   77.7820   61.7220 N   0  0  0  0  0  0  0  0  0  0  0  0
   40.6300   77.6110   60.9330 C   0  0  0  0  0  0  0  0  0  0  0  0
   40.0560   78.6790   60.3820 N   0  0  0  0  0  0  0  0  0  0  0  0
   42.1650   81.4060   61.6610 N   0  0  0  0  0  0  0  0  0  0  0  0
   43.2410   81.9170   61.0070 C   0  0  0  0  0  0  0  0  0  0  0  0
   43.4920   83.1630   61.4600 N   0  0  0  0  0  0  0  0  0  0  0  0
   42.5900   83.4570   62.3970 C   0  0  0  0  0  0  0  0  0  0  0  0
   42.3670   84.5620   63.1900 C   0  0  0  0  0  0  0  0  0  0  0  0
   41.3080   84.5170   64.0410 N   0  0  0  0  0  0  0  0  0  0  0  0
   40.5090   83.4530   64.1520 C   0  0  0  0  0  0  0  0  0  0  0  0
   40.7710   82.4100   63.3820 N   0  0  0  0  0  0  0  0  0  0  0  0
   41.7860   82.3380   62.4890 C   0  0  0  0  0  0  0  0  0  0  0  0
   38.8050   76.0990   60.1480 C   0  0  0  0  0  0  0  0  0  0  0  0
   38.8770   75.5290   58.7770 C   0  0  0  0  0  0  0  0  0  0  0  0
   39.4450   74.3080   58.5180 C   0  0  0  0  0  0  0  0  0  0  0  0
   39.4910   73.8160   57.2130 C   0  0  0  0  0  0  0  0  0  0  0  0
   38.9370   74.6420   56.2810 C   0  0  0  0  0  0  0  0  0  0  0  0
   38.3670   75.8630   56.5300 C   0  0  0  0  0  0  0  0  0  0  0  0
   38.3500   76.2880   57.8060 N   0  0  0  0  0  0  0  0  0  0  0  0
   37.7950   76.7050   55.5260 N   0  0  0  0  0  0  0  0  0  0  0  0
   37.0670   76.3120   54.4650 C   0  0  0  0  0  0  0  0  0  0  0  0
   36.7280   77.4280   53.7790 N   0  0  0  0  0  0  0  0  0  0  0  0
   37.2490   78.4930   54.4230 C   0  0  0  0  0  0  0  0  0  0  0  0
   37.2410   79.8590   54.2080 C   0  0  0  0  0  0  0  0  0  0  0  0
   37.8700   80.7010   55.0510 N   0  0  0  0  0  0  0  0  0  0  0  0
   38.5340   80.2490   56.1390 C   0  0  0  0  0  0  0  0  0  0  0  0
   38.5540   78.9170   56.3670 N   0  0  0  0  0  0  0  0  0  0  0  0
   37.9320   78.0450   55.5390 C   0  0  0  0  0  0  0  0  0  0  0  0
   40.8763   75.7341   60.0649 H   0  0  0  0  0  0  0  0  0  0  0  0
   40.1064   75.7935   61.7391 H   0  0  0  0  0  0  0  0  0  0  0  0
   40.0429   80.7846   60.1350 H   0  0  0  0  0  0  0  0  0  0  0  0
   43.1161   79.0744   62.6386 H   0  0  0  0  0  0  0  0  0  0  0  0
   43.8179   81.3957   60.2289 H   0  0  0  0  0  0  0  0  0  0  0  0
   43.2710   84.7212   63.7961 H   0  0  0  0  0  0  0  0  0  0  0  0
   42.1272   85.3712   62.4845 H   0  0  0  0  0  0  0  0  0  0  0  0
   39.6648   83.4442   64.8572 H   0  0  0  0  0  0  0  0  0  0  0  0
   40.1551   81.5890   63.4685 H   0  0  0  0  0  0  0  0  0  0  0  0
   38.2045   75.4324   60.7845 H   0  0  0  0  0  0  0  0  0  0  0  0
   38.3415   77.0950   60.0915 H   0  0  0  0  0  0  0  0  0  0  0  0
   39.8661   73.7139   59.3424 H   0  0  0  0  0  0  0  0  0  0  0  0
   39.9369   72.8433   56.9579 H   0  0  0  0  0  0  0  0  0  0  0  0
   38.9485   74.2979   55.2363 H   0  0  0  0  0  0  0  0  0  0  0  0
   36.7979   75.2778   54.2042 H   0  0  0  0  0  0  0  0  0  0  0  0
   36.7118   80.2653   53.3334 H   0  0  0  0  0  0  0  0  0  0  0  0
   39.0439   80.9465   56.8198 H   0  0  0  0  0  0  0  0  0  0  0  0
  1  6  1  0
  2  3  2  0
  3  8  1  0
  3  4  1  0
  5  4  2  0
  6  5  1  0
  7  2  1  0
  7  6  2  0
  8 16  1  0
  9 10  2  0
  9  8  1  0
 10 11  1  0
 11 16  2  0
 11 12  1  0
 12 13  1  0
 13 14  2  0
 15 14  1  0
 16 15  1  0
 17  1  1  0
 18 17  1  0
 19 18  2  0
 20 19  1  0
 21 22  1  0
 21 20  2  0
 22 23  2  0
 23 18  1  0
 24 32  1  0
 24 22  1  0
 25 24  1  0
 26 27  1  0
 26 25  2  0
 27 32  2  0
 28 27  1  0
 28 29  2  0
 29 30  1  0
 30 31  2  0
 32 31  1  0
  1 33  1  0
  1 34  1  0
  2 35  1  0
  4 36  1  0
  9 37  1  0
 12 38  1  0
 12 39  1  0
 14 40  1  0
 15 41  1  0
 17 42  1  0
 17 43  1  0
 19 44  1  0
 20 45  1  0
 21 46  1  0
 25 47  1  0
 28 48  1  0
 30 49  1  0
M  END
>  <Score>  (1) 
-7.96894

$$$$
