
     RDKit          3D

 41 44  0  0  0  0  0  0  0  0999 V2000
   40.7520   82.3480   59.2360 C   0  0  0  0  0  0  0  0  0  0  0  0
   39.9160   81.3150   58.8470 C   0  0  0  0  0  0  0  0  0  0  0  0
   40.1590   81.0780   57.5130 C   0  0  0  0  0  0  0  0  0  0  0  0
   41.1260   81.9750   57.1610 C   0  0  0  0  0  0  0  0  0  0  0  0
   41.4920   82.7420   58.1830 O   0  0  0  0  0  0  0  0  0  0  0  0
   39.5170   80.0960   56.7000 C   0  0  0  0  0  0  0  0  0  0  0  0
   39.9160   78.8140   56.3640 C   0  0  0  0  0  0  0  0  0  0  0  0
   39.1250   78.0320   55.5530 C   0  0  0  0  0  0  0  0  0  0  0  0
   37.9340   78.4470   55.0390 C   0  0  0  0  0  0  0  0  0  0  0  0
   37.5190   79.7290   55.3640 C   0  0  0  0  0  0  0  0  0  0  0  0
   38.3040   80.5340   56.1830 C   0  0  0  0  0  0  0  0  0  0  0  0
   39.7860   82.5020   61.5450 C   0  0  0  0  0  0  0  0  0  0  0  0
   40.7540   82.8500   60.5860 C   0  0  0  0  0  0  0  0  0  0  0  0
   41.7760   83.7360   60.9640 C   0  0  0  0  0  0  0  0  0  0  0  0
   41.7670   84.2020   62.2360 N   0  0  0  0  0  0  0  0  0  0  0  0
   40.8120   83.8350   63.1190 C   0  0  0  0  0  0  0  0  0  0  0  0
   39.8480   83.0120   62.7930 N   0  0  0  0  0  0  0  0  0  0  0  0
   40.8480   84.3730   64.4950 C   0  0  0  0  0  0  0  0  0  0  0  0
   40.0020   83.6340   65.3070 F   0  0  0  0  0  0  0  0  0  0  0  0
   40.4900   85.6790   64.5780 F   0  0  0  0  0  0  0  0  0  0  0  0
   42.1340   84.2250   64.9660 F   0  0  0  0  0  0  0  0  0  0  0  0
   42.7760   84.1510   60.1210 O   0  0  0  0  0  0  0  0  0  0  0  0
   45.5210   85.6920   61.4930 N   0  0  0  0  0  0  0  0  0  0  0  0
   44.7090   84.7020   61.1930 N   0  0  0  0  0  0  0  0  0  0  0  0
   43.6520   85.1320   60.4620 C   0  0  0  0  0  0  0  0  0  0  0  0
   43.8160   86.4710   60.2940 C   0  0  0  0  0  0  0  0  0  0  0  0
   44.9930   86.8030   60.9480 C   0  0  0  0  0  0  0  0  0  0  0  0
   41.8030   82.2180   55.8820 C   0  0  0  0  0  0  0  0  0  0  0  0
   43.0840   81.7070   55.9240 F   0  0  0  0  0  0  0  0  0  0  0  0
   41.9140   83.5980   55.6170 F   0  0  0  0  0  0  0  0  0  0  0  0
   41.0620   81.6950   54.8470 F   0  0  0  0  0  0  0  0  0  0  0  0
   39.1936   80.7837   59.4841 H   0  0  0  0  0  0  0  0  0  0  0  0
   40.8686   78.4186   56.7464 H   0  0  0  0  0  0  0  0  0  0  0  0
   39.4734   77.0180   55.3070 H   0  0  0  0  0  0  0  0  0  0  0  0
   37.3280   77.7935   54.3942 H   0  0  0  0  0  0  0  0  0  0  0  0
   36.5648   80.1114   54.9726 H   0  0  0  0  0  0  0  0  0  0  0  0
   37.9540   81.5475   56.4286 H   0  0  0  0  0  0  0  0  0  0  0  0
   38.9739   81.8104   61.2765 H   0  0  0  0  0  0  0  0  0  0  0  0
   46.3920   85.6291   62.0391 H   0  0  0  0  0  0  0  0  0  0  0  0
   43.1486   87.1544   59.7485 H   0  0  0  0  0  0  0  0  0  0  0  0
   45.4254   87.8125   61.0110 H   0  0  0  0  0  0  0  0  0  0  0  0
  1 13  1  0
  2  1  2  0
  3  2  1  0
  4  3  2  0
  4  5  1  0
  5  1  1  0
  6  3  1  0
  7  6  2  0
  8  7  1  0
  9 10  1  0
  9  8  2  0
 10 11  2  0
 11  6  1  0
 12 17  2  0
 13 14  2  0
 13 12  1  0
 14 15  1  0
 15 16  2  0
 16 18  1  0
 17 16  1  0
 18 20  1  0
 18 21  1  0
 18 19  1  0
 22 25  1  0
 22 14  1  0
 24 23  1  0
 25 24  2  0
 26 25  1  0
 26 27  2  0
 27 23  1  0
 28 29  1  0
 28  4  1  0
 30 28  1  0
 31 28  1  0
  2 32  1  0
  7 33  1  0
  8 34  1  0
  9 35  1  0
 10 36  1  0
 11 37  1  0
 12 38  1  0
 23 39  1  0
 26 40  1  0
 27 41  1  0
M  END
>  <Score>  (1) 
-7.01882

$$$$
