
     RDKit          3D

 51 54  0  0  1  0  0  0  0  0999 V2000
   43.0200   81.7250   61.4700 C   0  0  0  0  0  0  0  0  0  0  0  0
   44.0360   82.3030   60.7640 C   0  0  0  0  0  0  0  0  0  0  0  0
   44.5630   83.5010   61.2450 C   0  0  0  0  0  0  0  0  0  0  0  0
   44.0730   84.0690   62.3780 N   0  0  0  0  0  0  0  0  0  0  0  0
   43.0730   83.4880   63.0610 C   0  0  0  0  0  0  0  0  0  0  0  0
   42.5500   82.3220   62.6070 N   0  0  0  0  0  0  0  0  0  0  0  0
   42.5630   84.0770   64.2410 N   0  0  0  0  0  0  0  0  0  0  0  0
   41.1630   84.1820   64.4600 C   0  0  0  0  0  0  0  0  0  0  0  0
   40.3750   83.3100   63.9080 N   0  0  0  0  0  0  0  0  0  0  0  0
   40.6860   85.2570   65.2870 N   0  0  0  0  0  0  0  0  0  0  0  0
   39.3300   83.4110   64.0900 H   0  0  0  0  0  0  0  0  0  0  0  0
   45.6300   84.1420   60.5370 N   0  0  0  0  0  0  0  0  0  0  0  0
   46.8630   83.5960   60.5620 C   0  0  0  0  0  0  0  0  0  0  0  0
   47.8790   84.2400   59.8660 C   0  0  0  0  0  0  0  0  0  0  0  0
   47.5580   85.4000   59.1930 C   0  0  0  0  0  0  0  0  0  0  0  0
   48.6050   86.0580   58.4800 N   0  0  0  0  0  0  0  0  0  0  0  0
   46.3060   85.8950   59.2060 N   0  0  0  0  0  0  0  0  0  0  0  0
   45.2990   85.2750   59.8850 C   0  0  0  0  0  0  0  0  0  0  0  0
   44.1620   85.7690   59.8680 O   0  0  0  0  0  0  0  0  0  0  0  0
   40.4480   83.4660   58.6220 C   0  0  0  0  0  0  0  0  0  0  0  0
   39.6240   84.3040   59.3710 C   0  0  0  0  0  0  0  0  0  0  0  0
   39.2580   83.8800   60.6490 C   0  0  0  0  0  0  0  0  0  0  0  0
   39.7250   82.6820   61.0800 N   0  0  0  0  0  0  0  0  0  0  0  0
   40.5140   81.8930   60.3470 C   0  0  0  0  0  0  0  0  0  0  0  0
   40.8830   82.2880   59.0970 N   0  0  0  0  0  0  0  0  0  0  0  0
   40.9590   80.6410   60.8910 N   0  0  0  0  0  0  0  0  0  0  0  0
   40.0250   79.6450   61.2700 C   0  0  0  0  0  0  0  0  0  0  0  0
   40.6530   78.2730   61.2180 C   0  0  0  0  0  0  0  0  0  0  0  0
   41.9060   78.1550   62.0200 C   0  0  0  0  0  0  0  0  0  0  0  0
   42.7200   79.4110   62.0640 C   0  0  0  0  0  0  0  0  0  0  0  0
   42.3850   80.4350   61.0360 C   0  0  2  0  0  0  0  0  0  0  0  0
   44.4258   81.8388   59.8461 H   0  0  0  0  0  0  0  0  0  0  0  0
   43.2161   84.4353   64.9524 H   0  0  0  0  0  0  0  0  0  0  0  0
   39.6769   85.3609   65.4653 H   0  0  0  0  0  0  0  0  0  0  0  0
   41.3534   85.9233   65.7012 H   0  0  0  0  0  0  0  0  0  0  0  0
   47.0589   82.6671   61.1176 H   0  0  0  0  0  0  0  0  0  0  0  0
   48.9031   83.8386   59.8524 H   0  0  0  0  0  0  0  0  0  0  0  0
   49.5565   85.6635   58.4821 H   0  0  0  0  0  0  0  0  0  0  0  0
   48.4090   86.9273   57.9634 H   0  0  0  0  0  0  0  0  0  0  0  0
   40.7509   83.7789   57.6119 H   0  0  0  0  0  0  0  0  0  0  0  0
   39.2743   85.2662   58.9687 H   0  0  0  0  0  0  0  0  0  0  0  0
   38.6103   84.4987   61.2875 H   0  0  0  0  0  0  0  0  0  0  0  0
   39.6805   79.8452   62.2953 H   0  0  0  0  0  0  0  0  0  0  0  0
   39.1776   79.6715   60.5691 H   0  0  0  0  0  0  0  0  0  0  0  0
   39.9250   77.5433   61.6021 H   0  0  0  0  0  0  0  0  0  0  0  0
   40.9242   78.0836   60.1689 H   0  0  0  0  0  0  0  0  0  0  0  0
   41.6332   77.8831   63.0503 H   0  0  0  0  0  0  0  0  0  0  0  0
   42.5267   77.3898   61.5309 H   0  0  0  0  0  0  0  0  0  0  0  0
   42.5814   79.8688   63.0545 H   0  0  0  0  0  0  0  0  0  0  0  0
   43.7554   79.1042   61.8548 H   0  0  0  0  0  0  0  0  0  0  0  0
   42.7585   80.0875   60.0615 H   0  0  0  0  0  0  0  0  0  0  0  0
  1  6  2  0
  2  3  2  0
  2  1  1  0
  3  4  1  0
  4  5  2  0
  5  7  1  0
  6  5  1  0
  7  8  1  0
  8 10  1  0
  9 11  1  0
  9  8  2  0
 12 13  1  0
 12  3  1  0
 14 13  2  0
 15 17  2  0
 15 14  1  0
 16 15  1  0
 17 18  1  0
 18 12  1  0
 19 18  2  0
 20 25  2  0
 20 21  1  0
 21 22  2  0
 22 23  1  0
 24 26  1  0
 24 23  2  0
 25 24  1  0
 26 31  1  0
 26 27  1  0
 28 27  1  0
 28 29  1  0
 29 30  1  0
 31  1  1  0
 31 30  1  0
  2 32  1  0
  7 33  1  0
 10 34  1  0
 10 35  1  0
 13 36  1  0
 14 37  1  0
 16 38  1  0
 16 39  1  0
 20 40  1  0
 21 41  1  0
 22 42  1  0
 27 43  1  0
 27 44  1  0
 28 45  1  0
 28 46  1  0
 29 47  1  0
 29 48  1  0
 30 49  1  0
 30 50  1  0
 31 51  1  6
M  END
>  <Score>  (1) 
-7.53043

$$$$
