
     RDKit          3D

 51 56  0  0  1  0  0  0  0  0999 V2000
   40.9980   75.0340   58.9430 N   0  0  0  0  0  0  0  0  0  0  0  0
   39.9600   75.2180   57.9370 C   0  0  0  0  0  0  0  0  0  0  0  0
   40.1550   74.3630   56.7200 C   0  0  0  0  0  0  0  0  0  0  0  0
   40.4770   72.9860   57.0440 N   0  0  0  0  0  0  0  0  0  0  0  0
   40.4310   72.7340   58.4590 C   0  0  0  0  0  0  0  0  0  0  0  0
   41.4330   73.7270   59.0880 C   0  0  2  0  0  0  0  0  0  0  0  0
   41.6960   73.1500   60.4060 C   0  0  0  0  0  0  0  0  0  0  0  0
   40.9160   72.2650   61.1180 C   0  0  0  0  0  0  0  0  0  0  0  0
   41.5200   71.9110   62.2900 N   0  0  0  0  0  0  0  0  0  0  0  0
   42.7180   72.5620   62.3660 C   0  0  0  0  0  0  0  0  0  0  0  0
   43.7080   72.5590   63.3270 C   0  0  0  0  0  0  0  0  0  0  0  0
   44.8440   73.3230   63.1580 C   0  0  0  0  0  0  0  0  0  0  0  0
   44.9820   74.0900   62.0190 C   0  0  0  0  0  0  0  0  0  0  0  0
   43.9600   74.0540   61.0920 C   0  0  0  0  0  0  0  0  0  0  0  0
   42.8050   73.3100   61.2110 C   0  0  0  0  0  0  0  0  0  0  0  0
   39.8830   77.0280   59.8360 C   0  0  2  0  0  0  0  0  0  0  0  0
   39.3840   75.9000   60.7580 C   0  0  0  0  0  0  0  0  0  0  0  0
   40.6760   75.8320   60.0460 C   0  0  1  0  0  0  0  0  0  0  0  0
   40.5370   80.4390   61.1610 C   0  0  0  0  0  0  0  0  0  0  0  0
   41.6010   80.1110   61.9750 C   0  0  0  0  0  0  0  0  0  0  0  0
   41.7760   78.3980   61.7190 S   0  0  0  0  0  0  0  0  0  0  0  0
   40.3400   78.2900   60.4940 C   0  0  0  0  0  0  0  0  0  0  0  0
   39.9450   79.5470   60.4590 N   0  0  0  0  0  0  0  0  0  0  0  0
   40.0090   81.8350   61.0590 C   0  0  0  0  0  0  0  0  0  0  0  0
   40.1920   82.5700   59.8920 C   0  0  0  0  0  0  0  0  0  0  0  0
   39.6730   83.8930   59.8410 C   0  0  0  0  0  0  0  0  0  0  0  0
   39.0270   84.3510   60.9470 N   0  0  0  0  0  0  0  0  0  0  0  0
   38.8680   83.6350   62.0370 C   0  0  0  0  0  0  0  0  0  0  0  0
   39.3460   82.3920   62.1080 N   0  0  0  0  0  0  0  0  0  0  0  0
   38.9885   74.9672   58.3878 H   0  0  0  0  0  0  0  0  0  0  0  0
   40.0064   76.2670   57.6091 H   0  0  0  0  0  0  0  0  0  0  0  0
   40.9769   74.7846   56.1227 H   0  0  0  0  0  0  0  0  0  0  0  0
   39.2059   74.3583   56.1639 H   0  0  0  0  0  0  0  0  0  0  0  0
   39.7993   72.3681   56.5752 H   0  0  0  0  0  0  0  0  0  0  0  0
   39.4177   72.9119   58.8484 H   0  0  0  0  0  0  0  0  0  0  0  0
   40.6870   71.6908   58.6962 H   0  0  0  0  0  0  0  0  0  0  0  0
   42.4124   73.8443   58.6011 H   0  0  0  0  0  0  0  0  0  0  0  0
   39.9357   71.8927   60.7858 H   0  0  0  0  0  0  0  0  0  0  0  0
   41.1381   71.2646   62.9951 H   0  0  0  0  0  0  0  0  0  0  0  0
   43.5909   71.9447   64.2319 H   0  0  0  0  0  0  0  0  0  0  0  0
   45.6331   73.3209   63.9244 H   0  0  0  0  0  0  0  0  0  0  0  0
   45.8764   74.7092   61.8554 H   0  0  0  0  0  0  0  0  0  0  0  0
   44.0760   74.6675   60.1864 H   0  0  0  0  0  0  0  0  0  0  0  0
   39.4901   77.5581   58.9559 H   0  0  0  0  0  0  0  0  0  0  0  0
   39.3557   76.0432   61.8483 H   0  0  0  0  0  0  0  0  0  0  0  0
   38.4830   75.2728   60.8269 H   0  0  0  0  0  0  0  0  0  0  0  0
   41.6773   75.5797   60.4251 H   0  0  0  0  0  0  0  0  0  0  0  0
   42.1937   80.7702   62.6263 H   0  0  0  0  0  0  0  0  0  0  0  0
   40.7243   82.1390   59.0312 H   0  0  0  0  0  0  0  0  0  0  0  0
   39.7891   84.5198   58.9446 H   0  0  0  0  0  0  0  0  0  0  0  0
   38.3359   84.0645   62.8986 H   0  0  0  0  0  0  0  0  0  0  0  0
  1  2  1  0
  1  6  1  0
  1 18  1  0
  3  4  1  0
  3  2  1  0
  4  5  1  0
  5  6  1  0
  6  7  1  0
  7  8  2  0
  7 15  1  0
  8  9  1  0
  9 10  1  0
 10 11  2  0
 12 11  1  0
 13 12  2  0
 14 15  2  0
 14 13  1  0
 15 10  1  0
 16 18  1  0
 16 22  1  0
 16 17  1  0
 18 17  1  0
 19 20  2  0
 21 20  1  0
 22 21  1  0
 23 22  2  0
 23 19  1  0
 24 19  1  0
 24 29  1  0
 25 24  2  0
 26 25  1  0
 26 27  2  0
 27 28  1  0
 28 29  2  0
  2 30  1  0
  2 31  1  0
  3 32  1  0
  3 33  1  0
  4 34  1  0
  5 35  1  0
  5 36  1  0
  6 37  1  6
  8 38  1  0
  9 39  1  0
 11 40  1  0
 12 41  1  0
 13 42  1  0
 14 43  1  0
 16 44  1  6
 17 45  1  0
 17 46  1  0
 18 47  1  1
 20 48  1  0
 25 49  1  0
 26 50  1  0
 28 51  1  0
M  END
>  <Score>  (1) 
-7.43548

$$$$
