
     RDKit          3D

 41 45  0  0  0  0  0  0  0  0999 V2000
   41.2860   81.5910   60.4840 C   0  0  0  0  0  0  0  0  0  0  0  0
   40.9330   82.1870   59.2910 C   0  0  0  0  0  0  0  0  0  0  0  0
   40.2860   81.5250   58.2620 C   0  0  0  0  0  0  0  0  0  0  0  0
   39.9750   80.1970   58.4350 C   0  0  0  0  0  0  0  0  0  0  0  0
   40.2920   79.5460   59.5860 C   0  0  0  0  0  0  0  0  0  0  0  0
   39.9790   78.2340   59.7430 C   0  0  0  0  0  0  0  0  0  0  0  0
   40.2870   77.5230   60.9090 C   0  0  0  0  0  0  0  0  0  0  0  0
   40.9350   78.2410   61.9010 C   0  0  0  0  0  0  0  0  0  0  0  0
   41.2320   79.5680   61.6960 C   0  0  0  0  0  0  0  0  0  0  0  0
   40.9280   80.2540   60.5600 C   0  0  0  0  0  0  0  0  0  0  0  0
   39.2800   77.4510   58.7130 C   0  0  0  0  0  0  0  0  0  0  0  0
   38.8180   76.1820   58.6000 N   0  0  0  0  0  0  0  0  0  0  0  0
   38.2530   75.9550   57.4630 O   0  0  0  0  0  0  0  0  0  0  0  0
   38.2970   77.0340   56.7500 C   0  0  0  0  0  0  0  0  0  0  0  0
   38.9130   77.9020   57.5240 N   0  0  0  0  0  0  0  0  0  0  0  0
   37.8490   77.3720   55.4560 N   0  0  0  0  0  0  0  0  0  0  0  0
   36.6540   76.8990   55.1090 C   0  0  0  0  0  0  0  0  0  0  0  0
   36.3900   77.3350   53.7970 C   0  0  0  0  0  0  0  0  0  0  0  0
   37.4540   78.0610   53.4070 N   0  0  0  0  0  0  0  0  0  0  0  0
   38.3520   78.0870   54.4190 C   0  0  0  0  0  0  0  0  0  0  0  0
   43.7750   83.5390   62.6110 C   0  0  0  0  0  0  0  0  0  0  0  0
   43.3090   82.7400   61.5700 C   0  0  0  0  0  0  0  0  0  0  0  0
   41.9480   82.3850   61.4620 C   0  0  0  0  0  0  0  0  0  0  0  0
   41.1770   82.8960   62.4570 N   0  0  0  0  0  0  0  0  0  0  0  0
   41.6400   83.6650   63.4530 C   0  0  0  0  0  0  0  0  0  0  0  0
   42.9300   83.9780   63.5200 N   0  0  0  0  0  0  0  0  0  0  0  0
   40.7320   84.1680   64.4770 C   0  0  0  0  0  0  0  0  0  0  0  0
   40.0950   83.3900   65.2260 O   0  0  0  0  0  0  0  0  0  0  0  0
   40.5130   85.5190   64.6920 O   0  0  0  0  0  0  0  0  0  0  0  0
   41.1799   83.2495   59.1494 H   0  0  0  0  0  0  0  0  0  0  0  0
   40.0272   82.0481   57.3296 H   0  0  0  0  0  0  0  0  0  0  0  0
   39.4614   79.6522   57.6292 H   0  0  0  0  0  0  0  0  0  0  0  0
   40.0304   76.4602   61.0300 H   0  0  0  0  0  0  0  0  0  0  0  0
   41.2104   77.7524   62.8473 H   0  0  0  0  0  0  0  0  0  0  0  0
   41.7485   80.1101   62.5018 H   0  0  0  0  0  0  0  0  0  0  0  0
   35.9932   76.2801   55.7338 H   0  0  0  0  0  0  0  0  0  0  0  0
   35.4877   77.1231   53.2045 H   0  0  0  0  0  0  0  0  0  0  0  0
   39.3246   78.6007   54.4033 H   0  0  0  0  0  0  0  0  0  0  0  0
   44.8414   83.8014   62.6733 H   0  0  0  0  0  0  0  0  0  0  0  0
   44.0198   82.3767   60.8132 H   0  0  0  0  0  0  0  0  0  0  0  0
   39.8864   85.8123   65.4001 H   0  0  0  0  0  0  0  0  0  0  0  0
  1 10  1  0
  1 23  1  0
  2  1  2  0
  3  4  2  0
  3  2  1  0
  4  5  1  0
  5  6  1  0
  5 10  2  0
  6  7  2  0
  7  8  1  0
  9  8  2  0
 10  9  1  0
 11  6  1  0
 12 11  2  0
 13 12  1  0
 14 13  1  0
 14 15  2  0
 15 11  1  0
 16 14  1  0
 17 16  1  0
 18 17  2  0
 19 18  1  0
 19 20  2  0
 20 16  1  0
 21 26  2  0
 22 21  1  0
 23 22  2  0
 23 24  1  0
 24 25  2  0
 25 26  1  0
 25 27  1  0
 27 29  1  0
 27 28  2  0
  2 30  1  0
  3 31  1  0
  4 32  1  0
  7 33  1  0
  8 34  1  0
  9 35  1  0
 17 36  1  0
 18 37  1  0
 20 38  1  0
 21 39  1  0
 22 40  1  0
 29 41  1  0
M  END
>  <Score>  (1) 
-7.4511

$$$$
