
     RDKit          3D

 47 51  0  0  1  0  0  0  0  0999 V2000
   41.2680   76.6120   60.2090 C   0  0  0  0  0  0  0  0  0  0  0  0
   40.7240   76.2030   59.0020 C   0  0  0  0  0  0  0  0  0  0  0  0
   40.9740   74.9350   58.6070 C   0  0  0  0  0  0  0  0  0  0  0  0
   41.7350   74.1200   59.3890 N   0  0  0  0  0  0  0  0  0  0  0  0
   42.2280   74.5910   60.5470 C   0  0  0  0  0  0  0  0  0  0  0  0
   42.0200   75.8470   61.0090 N   0  0  0  0  0  0  0  0  0  0  0  0
   40.3420   80.5080   60.9510 C   0  0  0  0  0  0  0  0  0  0  0  0
   40.8210   79.8420   62.0410 C   0  0  0  0  0  0  0  0  0  0  0  0
   41.1560   78.5400   61.8920 C   0  0  0  0  0  0  0  0  0  0  0  0
   40.9950   77.9740   60.6590 C   0  0  0  0  0  0  0  0  0  0  0  0
   40.3340   79.3420   59.6420 S   0  0  0  0  0  0  0  0  0  0  0  0
   39.9100   81.9250   60.8510 C   0  0  0  0  0  0  0  0  0  0  0  0
   40.1330   82.6730   59.7040 C   0  0  0  0  0  0  0  0  0  0  0  0
   39.6830   83.9960   59.7380 C   0  0  0  0  0  0  0  0  0  0  0  0
   39.0710   84.4550   60.8680 N   0  0  0  0  0  0  0  0  0  0  0  0
   38.8790   83.6740   61.9650 C   0  0  0  0  0  0  0  0  0  0  0  0
   39.3120   82.4140   61.9190 N   0  0  0  0  0  0  0  0  0  0  0  0
   43.0490   73.6500   61.3860 C   0  0  1  0  0  0  0  0  0  0  0  0
   43.7910   74.3820   62.4780 C   0  0  0  0  0  0  0  0  0  0  0  0
   42.1280   72.5720   61.8850 C   0  0  0  0  0  0  0  0  0  0  0  0
   42.7600   71.2870   61.6140 N   0  0  0  0  0  0  0  0  0  0  0  0
   43.9500   70.8640   62.1360 C   0  0  0  0  0  0  0  0  0  0  0  0
   44.1840   69.6140   61.6360 N   0  0  0  0  0  0  0  0  0  0  0  0
   43.1640   69.2960   60.8360 C   0  0  0  0  0  0  0  0  0  0  0  0
   42.7860   68.2320   60.0500 C   0  0  0  0  0  0  0  0  0  0  0  0
   41.6510   68.2040   59.3280 N   0  0  0  0  0  0  0  0  0  0  0  0
   40.8000   69.2470   59.3370 C   0  0  0  0  0  0  0  0  0  0  0  0
   41.1310   70.2960   60.0860 N   0  0  0  0  0  0  0  0  0  0  0  0
   42.2490   70.3260   60.7970 C   0  0  0  0  0  0  0  0  0  0  0  0
   43.6060   67.0870   59.9710 N   0  0  0  0  0  0  0  0  0  0  0  0
   40.1133   76.8830   58.3900 H   0  0  0  0  0  0  0  0  0  0  0  0
   40.5641   74.5623   57.6567 H   0  0  0  0  0  0  0  0  0  0  0  0
   40.9314   80.3483   63.0113 H   0  0  0  0  0  0  0  0  0  0  0  0
   41.5461   77.9548   62.7377 H   0  0  0  0  0  0  0  0  0  0  0  0
   40.6340   82.2502   58.8207 H   0  0  0  0  0  0  0  0  0  0  0  0
   39.8199   84.6559   58.8686 H   0  0  0  0  0  0  0  0  0  0  0  0
   38.3816   84.0700   62.8627 H   0  0  0  0  0  0  0  0  0  0  0  0
   43.8461   73.1801   60.7912 H   0  0  0  0  0  0  0  0  0  0  0  0
   43.4372   74.0329   63.4593 H   0  0  0  0  0  0  0  0  0  0  0  0
   44.8690   74.1839   62.3852 H   0  0  0  0  0  0  0  0  0  0  0  0
   43.6075   75.4626   62.3852 H   0  0  0  0  0  0  0  0  0  0  0  0
   41.9662   72.6889   62.9667 H   0  0  0  0  0  0  0  0  0  0  0  0
   41.1527   72.6351   61.3802 H   0  0  0  0  0  0  0  0  0  0  0  0
   44.5969   71.4237   62.8276 H   0  0  0  0  0  0  0  0  0  0  0  0
   39.8699   69.2328   58.7498 H   0  0  0  0  0  0  0  0  0  0  0  0
   43.3230   66.2905   59.3825 H   0  0  0  0  0  0  0  0  0  0  0  0
   44.4878   67.0475   60.5018 H   0  0  0  0  0  0  0  0  0  0  0  0
  1 10  1  0
  1  6  1  0
  2  1  2  0
  3  2  1  0
  3  4  2  0
  4  5  1  0
  5  6  2  0
  5 18  1  0
  7  8  2  0
  9  8  1  0
 10  9  2  0
 11 10  1  0
 11  7  1  0
 12  7  1  0
 12 17  2  0
 13 14  2  0
 13 12  1  0
 14 15  1  0
 15 16  2  0
 17 16  1  0
 18 20  1  0
 18 19  1  0
 21 20  1  0
 21 22  1  0
 23 22  2  0
 24 23  1  0
 25 24  2  0
 26 27  2  0
 26 25  1  0
 27 28  1  0
 28 29  2  0
 29 24  1  0
 29 21  1  0
 30 25  1  0
  2 31  1  0
  3 32  1  0
  8 33  1  0
  9 34  1  0
 13 35  1  0
 14 36  1  0
 16 37  1  0
 18 38  1  6
 19 39  1  0
 19 40  1  0
 19 41  1  0
 20 42  1  0
 20 43  1  0
 22 44  1  0
 27 45  1  0
 30 46  1  0
 30 47  1  0
M  END
>  <Score>  (1) 
-7.27056

$$$$
