
     RDKit          3D

 54 59  0  0  0  0  0  0  0  0999 V2000
   42.9150   84.4490   58.2590 C   0  0  0  0  0  0  0  0  0  0  0  0
   43.8230   84.3550   57.2230 C   0  0  0  0  0  0  0  0  0  0  0  0
   43.5190   83.5780   56.1590 C   0  0  0  0  0  0  0  0  0  0  0  0
   42.3420   82.8830   56.0810 C   0  0  0  0  0  0  0  0  0  0  0  0
   41.5660   83.3980   57.7240 S   0  0  0  0  0  0  0  0  0  0  0  0
   41.7330   82.0420   55.1930 C   0  0  0  0  0  0  0  0  0  0  0  0
   42.0880   81.9880   53.8600 C   0  0  0  0  0  0  0  0  0  0  0  0
   41.4570   81.1250   52.9770 C   0  0  0  0  0  0  0  0  0  0  0  0
   40.4660   80.3240   53.4580 N   0  0  0  0  0  0  0  0  0  0  0  0
   40.1100   80.3690   54.7640 C   0  0  0  0  0  0  0  0  0  0  0  0
   40.7510   81.2130   55.5560 N   0  0  0  0  0  0  0  0  0  0  0  0
   39.0350   79.4430   55.0630 C   0  0  0  0  0  0  0  0  0  0  0  0
   38.0020   79.2480   54.1720 C   0  0  0  0  0  0  0  0  0  0  0  0
   36.9450   78.3870   54.3760 C   0  0  0  0  0  0  0  0  0  0  0  0
   36.8700   77.6520   55.5290 C   0  0  0  0  0  0  0  0  0  0  0  0
   37.8700   77.7960   56.4640 C   0  0  0  0  0  0  0  0  0  0  0  0
   37.8040   77.0580   57.6210 C   0  0  0  0  0  0  0  0  0  0  0  0
   38.7810   77.1610   58.5860 C   0  0  0  0  0  0  0  0  0  0  0  0
   39.8330   78.0430   58.3400 C   0  0  0  0  0  0  0  0  0  0  0  0
   39.8510   78.7590   57.1650 C   0  0  0  0  0  0  0  0  0  0  0  0
   38.8890   78.6710   56.1900 C   0  0  0  0  0  0  0  0  0  0  0  0
   42.9350   85.1820   59.5200 C   0  0  0  0  0  0  0  0  0  0  0  0
   43.1530   86.4180   59.5080 O   0  0  0  0  0  0  0  0  0  0  0  0
   42.6000   84.3920   63.1480 C   0  0  0  0  0  0  0  0  0  0  0  0
   42.8370   85.1260   61.9750 C   0  0  0  0  0  0  0  0  0  0  0  0
   42.7060   84.4890   60.7660 C   0  0  0  0  0  0  0  0  0  0  0  0
   42.3550   83.1850   60.7690 N   0  0  0  0  0  0  0  0  0  0  0  0
   42.1290   82.4860   61.9000 C   0  0  0  0  0  0  0  0  0  0  0  0
   42.2530   83.0940   63.0800 N   0  0  0  0  0  0  0  0  0  0  0  0
   41.7590   81.1110   61.8830 N   0  0  0  0  0  0  0  0  0  0  0  0
   42.7460   80.2240   61.8070 C   0  0  0  0  0  0  0  0  0  0  0  0
   42.3850   78.8810   61.7930 C   0  0  0  0  0  0  0  0  0  0  0  0
   41.0410   78.5860   61.8590 C   0  0  0  0  0  0  0  0  0  0  0  0
   40.5580   77.2440   61.8500 N   0  0  0  0  0  0  0  0  0  0  0  0
   40.0680   79.5250   61.9340 N   0  0  0  0  0  0  0  0  0  0  0  0
   40.4310   80.8390   61.9490 C   0  0  0  0  0  0  0  0  0  0  0  0
   39.5780   81.7920   62.0190 O   0  0  0  0  0  0  0  0  0  0  0  0
   44.7764   84.9023   57.2626 H   0  0  0  0  0  0  0  0  0  0  0  0
   44.2392   83.5020   55.3310 H   0  0  0  0  0  0  0  0  0  0  0  0
   42.8895   82.6444   53.4900 H   0  0  0  0  0  0  0  0  0  0  0  0
   41.7488   81.0883   51.9170 H   0  0  0  0  0  0  0  0  0  0  0  0
   38.0223   79.8194   53.2323 H   0  0  0  0  0  0  0  0  0  0  0  0
   36.1603   78.2902   53.6112 H   0  0  0  0  0  0  0  0  0  0  0  0
   36.0306   76.9629   55.7039 H   0  0  0  0  0  0  0  0  0  0  0  0
   36.9572   76.3739   57.7790 H   0  0  0  0  0  0  0  0  0  0  0  0
   38.7336   76.5714   59.5134 H   0  0  0  0  0  0  0  0  0  0  0  0
   40.6399   78.1650   59.0776 H   0  0  0  0  0  0  0  0  0  0  0  0
   40.6921   79.4475   56.9960 H   0  0  0  0  0  0  0  0  0  0  0  0
   42.6986   84.8810   64.1284 H   0  0  0  0  0  0  0  0  0  0  0  0
   43.1212   86.1875   62.0235 H   0  0  0  0  0  0  0  0  0  0  0  0
   43.7992   80.5375   61.7575 H   0  0  0  0  0  0  0  0  0  0  0  0
   43.1426   78.0859   61.7317 H   0  0  0  0  0  0  0  0  0  0  0  0
   39.5457   77.0606   61.9007 H   0  0  0  0  0  0  0  0  0  0  0  0
   41.2215   76.4582   61.7928 H   0  0  0  0  0  0  0  0  0  0  0  0
  1 22  1  0
  2  1  2  0
  3  2  1  0
  4  3  2  0
  4  5  1  0
  5  1  1  0
  6 11  1  0
  6  4  1  0
  7  6  2  0
  8  9  2  0
  8  7  1  0
  9 10  1  0
 10 12  1  0
 10 11  2  0
 12 21  2  0
 13 14  2  0
 13 12  1  0
 14 15  1  0
 15 16  2  0
 16 17  1  0
 17 18  2  0
 19 18  1  0
 20 19  2  0
 21 16  1  0
 21 20  1  0
 22 26  1  0
 23 22  2  0
 25 24  2  0
 26 27  2  0
 26 25  1  0
 27 28  1  0
 28 29  2  0
 29 24  1  0
 30 28  1  0
 30 36  1  0
 31 30  1  0
 32 31  2  0
 32 33  1  0
 33 35  2  0
 34 33  1  0
 35 36  1  0
 36 37  2  0
  2 38  1  0
  3 39  1  0
  7 40  1  0
  8 41  1  0
 13 42  1  0
 14 43  1  0
 15 44  1  0
 17 45  1  0
 18 46  1  0
 19 47  1  0
 20 48  1  0
 24 49  1  0
 25 50  1  0
 31 51  1  0
 32 52  1  0
 34 53  1  0
 34 54  1  0
M  END
>  <Score>  (1) 
-7.88227

$$$$
