
     RDKit          3D

 46 50  0  0  1  0  0  0  0  0999 V2000
   40.4240   80.5790   60.8390 C   0  0  2  0  0  0  0  0  0  0  0  0
   39.8940   81.9520   60.8820 C   0  0  0  0  0  0  0  0  0  0  0  0
   40.0300   82.7600   59.7020 C   0  0  0  0  0  0  0  0  0  0  0  0
   39.5630   84.0670   59.6670 C   0  0  0  0  0  0  0  0  0  0  0  0
   38.9800   84.4980   60.8360 N   0  0  0  0  0  0  0  0  0  0  0  0
   38.8670   83.7230   61.9230 C   0  0  0  0  0  0  0  0  0  0  0  0
   39.3190   82.4430   61.9660 N   0  0  0  0  0  0  0  0  0  0  0  0
   41.4660   80.4030   62.0090 C   0  0  0  0  0  0  0  0  0  0  0  0
   42.5910   81.2840   61.8690 N   0  0  0  0  0  0  0  0  0  0  0  0
   43.8560   80.8800   61.9720 C   0  0  0  0  0  0  0  0  0  0  0  0
   44.6750   81.9350   61.8530 N   0  0  0  0  0  0  0  0  0  0  0  0
   43.8580   83.0350   61.7300 C   0  0  0  0  0  0  0  0  0  0  0  0
   42.5620   82.6120   61.8290 N   0  0  0  0  0  0  0  0  0  0  0  0
   44.2150   84.3960   61.5420 N   0  0  0  0  0  0  0  0  0  0  0  0
   43.3520   85.4060   61.4770 N   0  0  0  0  0  0  0  0  0  0  0  0
   43.9910   86.5670   61.3020 C   0  0  0  0  0  0  0  0  0  0  0  0
   45.3150   86.2600   61.2570 C   0  0  0  0  0  0  0  0  0  0  0  0
   45.4600   84.9110   61.4050 C   0  0  0  0  0  0  0  0  0  0  0  0
   41.0600   80.1840   59.6060 C   0  0  0  0  0  0  0  0  0  0  0  0
   40.8350   78.8170   59.4090 O   0  0  0  0  0  0  0  0  0  0  0  0
   37.6830   75.4760   59.2810 N   0  0  0  0  0  0  0  0  0  0  0  0
   38.4760   75.3300   60.3550 C   0  0  0  0  0  0  0  0  0  0  0  0
   39.3920   76.3340   60.3580 N   0  0  0  0  0  0  0  0  0  0  0  0
   39.1920   77.1240   59.2920 C   0  0  0  0  0  0  0  0  0  0  0  0
   39.7530   78.2620   58.7400 C   0  0  0  0  0  0  0  0  0  0  0  0
   39.2260   78.7680   57.5930 N   0  0  0  0  0  0  0  0  0  0  0  0
   38.1690   78.1810   56.9870 C   0  0  0  0  0  0  0  0  0  0  0  0
   37.5820   77.0570   57.4920 N   0  0  0  0  0  0  0  0  0  0  0  0
   38.1190   76.5710   58.6290 C   0  0  0  0  0  0  0  0  0  0  0  0
   39.5423   79.9288   60.9382 H   0  0  0  0  0  0  0  0  0  0  0  0
   40.5131   82.3353   58.8097 H   0  0  0  0  0  0  0  0  0  0  0  0
   39.6520   84.7063   58.7763 H   0  0  0  0  0  0  0  0  0  0  0  0
   38.3871   84.1417   62.8199 H   0  0  0  0  0  0  0  0  0  0  0  0
   40.9652   80.6167   62.9648 H   0  0  0  0  0  0  0  0  0  0  0  0
   41.8400   79.3691   61.9761 H   0  0  0  0  0  0  0  0  0  0  0  0
   44.0103   80.4052   62.9522 H   0  0  0  0  0  0  0  0  0  0  0  0
   44.0747   80.1552   61.1740 H   0  0  0  0  0  0  0  0  0  0  0  0
   41.7232   83.2086   61.8656 H   0  0  0  0  0  0  0  0  0  0  0  0
   43.5387   87.5657   61.2127 H   0  0  0  0  0  0  0  0  0  0  0  0
   46.1350   86.9810   61.1232 H   0  0  0  0  0  0  0  0  0  0  0  0
   46.4061   84.3500   61.4117 H   0  0  0  0  0  0  0  0  0  0  0  0
   40.6327   80.7549   58.7685 H   0  0  0  0  0  0  0  0  0  0  0  0
   42.1403   80.3848   59.6577 H   0  0  0  0  0  0  0  0  0  0  0  0
   36.8960   74.8697   59.0093 H   0  0  0  0  0  0  0  0  0  0  0  0
   38.3973   74.5310   61.1069 H   0  0  0  0  0  0  0  0  0  0  0  0
   37.7712   78.6218   56.0610 H   0  0  0  0  0  0  0  0  0  0  0  0
  1  2  1  0
  1  8  1  0
  2  7  1  0
  3  2  2  0
  4  3  1  0
  4  5  2  0
  5  6  1  0
  6  7  2  0
  9 10  1  0
  9  8  1  0
 11 10  1  0
 12 13  1  0
 12 11  2  0
 13  9  1  0
 14 12  1  0
 15 14  1  0
 16 15  2  0
 17 16  1  0
 17 18  2  0
 18 14  1  0
 19  1  1  0
 20 19  1  0
 21 22  1  0
 22 23  2  0
 24 23  1  0
 25 24  2  0
 25 20  1  0
 26 25  1  0
 27 28  1  0
 27 26  2  0
 28 29  2  0
 29 21  1  0
 29 24  1  0
  1 30  1  1
  3 31  1  0
  4 32  1  0
  6 33  1  0
  8 34  1  0
  8 35  1  0
 10 36  1  0
 10 37  1  0
 13 38  1  0
 16 39  1  0
 17 40  1  0
 18 41  1  0
 19 42  1  0
 19 43  1  0
 21 44  1  0
 22 45  1  0
 27 46  1  0
M  END
>  <Score>  (1) 
-7.13749

$$$$
