
     RDKit          3D

 36 39  0  0  0  0  0  0  0  0999 V2000
   41.0270   79.9280   58.5700 S   0  0  0  0  0  0  0  0  0  0  0  0
   39.7590   78.8280   57.9620 C   0  0  0  0  0  0  0  0  0  0  0  0
   39.2040   77.7230   58.5980 C   0  0  0  0  0  0  0  0  0  0  0  0
   38.2400   77.0260   57.9320 C   0  0  0  0  0  0  0  0  0  0  0  0
   37.8320   77.3760   56.7150 N   0  0  0  0  0  0  0  0  0  0  0  0
   38.3580   78.4480   56.0730 C   0  0  0  0  0  0  0  0  0  0  0  0
   39.3250   79.1590   56.7250 N   0  0  0  0  0  0  0  0  0  0  0  0
   37.9220   78.8260   54.7670 N   0  0  0  0  0  0  0  0  0  0  0  0
   37.9140   77.8860   53.7840 C   0  0  0  0  0  0  0  0  0  0  0  0
   37.4820   78.2830   52.5150 C   0  0  0  0  0  0  0  0  0  0  0  0
   37.0850   79.6050   52.3130 C   0  0  0  0  0  0  0  0  0  0  0  0
   36.6930   79.9600   51.1570 O   0  0  0  0  0  0  0  0  0  0  0  0
   37.1080   80.5060   53.3140 N   0  0  0  0  0  0  0  0  0  0  0  0
   37.5260   80.1120   54.5370 C   0  0  0  0  0  0  0  0  0  0  0  0
   37.5770   80.9000   55.5330 O   0  0  0  0  0  0  0  0  0  0  0  0
   40.2200   81.9530   61.0440 C   0  0  0  0  0  0  0  0  0  0  0  0
   40.5750   82.8670   60.0420 C   0  0  0  0  0  0  0  0  0  0  0  0
   39.9370   84.1220   60.0510 C   0  0  0  0  0  0  0  0  0  0  0  0
   39.0160   84.3780   61.0260 N   0  0  0  0  0  0  0  0  0  0  0  0
   38.7130   83.4800   61.9510 C   0  0  0  0  0  0  0  0  0  0  0  0
   39.3180   82.2980   61.9400 N   0  0  0  0  0  0  0  0  0  0  0  0
   40.7770   80.6590   61.1590 N   0  0  0  0  0  0  0  0  0  0  0  0
   40.9970   80.2150   62.4250 C   0  0  0  0  0  0  0  0  0  0  0  0
   41.5360   78.9500   62.3180 C   0  0  0  0  0  0  0  0  0  0  0  0
   41.6400   78.6330   60.9700 N   0  0  0  0  0  0  0  0  0  0  0  0
   41.1620   79.7130   60.3240 C   0  0  0  0  0  0  0  0  0  0  0  0
   39.5315   77.4216   59.6039 H   0  0  0  0  0  0  0  0  0  0  0  0
   37.7861   76.1482   58.4152 H   0  0  0  0  0  0  0  0  0  0  0  0
   38.2353   76.8524   53.9801 H   0  0  0  0  0  0  0  0  0  0  0  0
   37.4554   77.5612   51.6853 H   0  0  0  0  0  0  0  0  0  0  0  0
   36.8120   81.4788   53.1499 H   0  0  0  0  0  0  0  0  0  0  0  0
   41.3240   82.6131   59.2774 H   0  0  0  0  0  0  0  0  0  0  0  0
   40.1752   84.8794   59.2896 H   0  0  0  0  0  0  0  0  0  0  0  0
   37.9650   83.7118   62.7235 H   0  0  0  0  0  0  0  0  0  0  0  0
   40.7855   80.7604   63.3566 H   0  0  0  0  0  0  0  0  0  0  0  0
   41.8327   78.3031   63.1567 H   0  0  0  0  0  0  0  0  0  0  0  0
  1 26  1  0
  2  1  1  0
  2  3  2  0
  4  3  1  0
  5  4  2  0
  6  5  1  0
  6  7  2  0
  7  2  1  0
  8  6  1  0
  9  8  1  0
 10  9  2  0
 11 10  1  0
 11 13  1  0
 12 11  2  0
 13 14  1  0
 14  8  1  0
 14 15  2  0
 16 22  1  0
 16 21  2  0
 17 18  2  0
 17 16  1  0
 18 19  1  0
 19 20  2  0
 21 20  1  0
 22 23  1  0
 24 23  2  0
 25 24  1  0
 26 25  2  0
 26 22  1  0
  3 27  1  0
  4 28  1  0
  9 29  1  0
 10 30  1  0
 13 31  1  0
 17 32  1  0
 18 33  1  0
 20 34  1  0
 23 35  1  0
 24 36  1  0
M  END
>  <Score>  (1) 
-7.09175

$$$$
