
     RDKit          3D

 45 49  0  0  0  0  0  0  0  0999 V2000
   40.5590   80.0240   60.7460 C   0  0  0  0  0  0  0  0  0  0  0  0
   41.7330   80.2640   61.4640 C   0  0  0  0  0  0  0  0  0  0  0  0
   42.4220   79.1300   61.9280 C   0  0  0  0  0  0  0  0  0  0  0  0
   41.9300   77.9080   61.6650 N   0  0  0  0  0  0  0  0  0  0  0  0
   40.8010   77.7130   60.9740 C   0  0  0  0  0  0  0  0  0  0  0  0
   40.1190   78.7660   60.5170 N   0  0  0  0  0  0  0  0  0  0  0  0
   42.2050   81.5490   61.7100 N   0  0  0  0  0  0  0  0  0  0  0  0
   43.2610   82.1030   61.0620 C   0  0  0  0  0  0  0  0  0  0  0  0
   43.4710   83.3550   61.5300 N   0  0  0  0  0  0  0  0  0  0  0  0
   42.5520   83.6040   62.4760 C   0  0  0  0  0  0  0  0  0  0  0  0
   42.3210   84.6930   63.2740 C   0  0  0  0  0  0  0  0  0  0  0  0
   41.2490   84.6000   64.1270 N   0  0  0  0  0  0  0  0  0  0  0  0
   40.4980   83.5270   64.2280 C   0  0  0  0  0  0  0  0  0  0  0  0
   40.7760   82.4920   63.4540 N   0  0  0  0  0  0  0  0  0  0  0  0
   41.7790   82.4630   62.5640 C   0  0  0  0  0  0  0  0  0  0  0  0
   40.3870   76.3230   60.7650 C   0  0  0  0  0  0  0  0  0  0  0  0
   38.9960   76.1360   60.2690 C   0  0  0  0  0  0  0  0  0  0  0  0
   38.9950   75.4520   58.9420 C   0  0  0  0  0  0  0  0  0  0  0  0
   39.6250   74.2460   58.7470 C   0  0  0  0  0  0  0  0  0  0  0  0
   39.6040   73.6360   57.5000 C   0  0  0  0  0  0  0  0  0  0  0  0
   38.9230   74.3460   56.5580 C   0  0  0  0  0  0  0  0  0  0  0  0
   38.2890   75.5490   56.7320 C   0  0  0  0  0  0  0  0  0  0  0  0
   38.3430   76.0930   57.9720 N   0  0  0  0  0  0  0  0  0  0  0  0
   37.6000   76.2110   55.6760 N   0  0  0  0  0  0  0  0  0  0  0  0
   36.7590   77.2650   55.5450 C   0  0  0  0  0  0  0  0  0  0  0  0
   36.4640   77.3650   54.2180 C   0  0  0  0  0  0  0  0  0  0  0  0
   37.1020   76.4050   53.5480 N   0  0  0  0  0  0  0  0  0  0  0  0
   37.8100   75.6840   54.4420 C   0  0  0  0  0  0  0  0  0  0  0  0
   39.9806   80.8758   60.3589 H   0  0  0  0  0  0  0  0  0  0  0  0
   43.3545   79.2421   62.5006 H   0  0  0  0  0  0  0  0  0  0  0  0
   43.8544   81.6103   60.2776 H   0  0  0  0  0  0  0  0  0  0  0  0
   43.2216   84.8606   63.8830 H   0  0  0  0  0  0  0  0  0  0  0  0
   42.0811   85.5176   62.5866 H   0  0  0  0  0  0  0  0  0  0  0  0
   39.6591   83.4906   64.9386 H   0  0  0  0  0  0  0  0  0  0  0  0
   40.1840   81.6535   63.5400 H   0  0  0  0  0  0  0  0  0  0  0  0
   41.0717   75.8721   60.0316 H   0  0  0  0  0  0  0  0  0  0  0  0
   40.4210   75.8457   61.7555 H   0  0  0  0  0  0  0  0  0  0  0  0
   38.4347   75.5243   60.9907 H   0  0  0  0  0  0  0  0  0  0  0  0
   38.5252   77.1239   60.1574 H   0  0  0  0  0  0  0  0  0  0  0  0
   40.1490   73.7613   59.5840 H   0  0  0  0  0  0  0  0  0  0  0  0
   40.0907   72.6716   57.2926 H   0  0  0  0  0  0  0  0  0  0  0  0
   38.8768   73.9074   55.5503 H   0  0  0  0  0  0  0  0  0  0  0  0
   36.3869   77.9134   56.3519 H   0  0  0  0  0  0  0  0  0  0  0  0
   35.8022   78.1205   53.7695 H   0  0  0  0  0  0  0  0  0  0  0  0
   38.4478   74.8180   54.2111 H   0  0  0  0  0  0  0  0  0  0  0  0
  1  2  2  0
  2  7  1  0
  2  3  1  0
  4  3  2  0
  5  4  1  0
  6  1  1  0
  6  5  2  0
  7 15  1  0
  8  9  2  0
  8  7  1  0
  9 10  1  0
 10 15  2  0
 10 11  1  0
 11 12  1  0
 12 13  2  0
 14 13  1  0
 15 14  1  0
 16  5  1  0
 17 16  1  0
 18 17  1  0
 19 18  2  0
 20 19  1  0
 21 22  1  0
 21 20  2  0
 22 23  2  0
 23 18  1  0
 24 22  1  0
 25 24  1  0
 26 25  2  0
 27 26  1  0
 27 28  2  0
 28 24  1  0
  1 29  1  0
  3 30  1  0
  8 31  1  0
 11 32  1  0
 11 33  1  0
 13 34  1  0
 14 35  1  0
 16 36  1  0
 16 37  1  0
 17 38  1  0
 17 39  1  0
 19 40  1  0
 20 41  1  0
 21 42  1  0
 25 43  1  0
 26 44  1  0
 28 45  1  0
M  END
>  <Score>  (1) 
-7.18647

$$$$
