
     RDKit          3D

 46 49  0  0  0  0  0  0  0  0999 V2000
   40.9880   81.3840   61.1800 C   0  0  0  0  0  0  0  0  0  0  0  0
   41.4210   82.2450   60.1540 C   0  0  0  0  0  0  0  0  0  0  0  0
   41.2810   83.6420   60.4100 C   0  0  0  0  0  0  0  0  0  0  0  0
   40.7540   84.0580   61.5930 N   0  0  0  0  0  0  0  0  0  0  0  0
   40.3510   83.1820   62.5430 C   0  0  0  0  0  0  0  0  0  0  0  0
   40.4720   81.8510   62.3250 N   0  0  0  0  0  0  0  0  0  0  0  0
   39.7900   83.6590   63.7710 N   0  0  0  0  0  0  0  0  0  0  0  0
   40.5650   84.4730   64.6370 C   0  0  0  0  0  0  0  0  0  0  0  0
   41.8350   84.3240   64.6500 N   0  0  0  0  0  0  0  0  0  0  0  0
   39.9160   85.4240   65.4600 N   0  0  0  0  0  0  0  0  0  0  0  0
   42.3910   84.8960   65.3150 H   0  0  0  0  0  0  0  0  0  0  0  0
   41.9980   81.8700   58.9090 C   0  0  0  0  0  0  0  0  0  0  0  0
   43.3760   81.9660   58.9330 C   0  0  0  0  0  0  0  0  0  0  0  0
   44.1640   81.6160   57.8330 C   0  0  0  0  0  0  0  0  0  0  0  0
   43.5540   81.1550   56.6850 C   0  0  0  0  0  0  0  0  0  0  0  0
   42.1660   81.0540   56.6580 C   0  0  0  0  0  0  0  0  0  0  0  0
   41.4700   80.5650   55.5620 C   0  0  0  0  0  0  0  0  0  0  0  0
   40.0800   80.4660   55.6300 C   0  0  0  0  0  0  0  0  0  0  0  0
   39.3640   80.8340   56.7330 C   0  0  0  0  0  0  0  0  0  0  0  0
   40.0780   81.3190   57.8140 C   0  0  0  0  0  0  0  0  0  0  0  0
   41.4290   81.4110   57.7550 C   0  0  0  0  0  0  0  0  0  0  0  0
   41.5320   84.8100   59.6540 N   0  0  0  0  0  0  0  0  0  0  0  0
   40.4670   85.2450   58.7870 C   0  0  0  0  0  0  0  0  0  0  0  0
   41.0430   85.9120   57.5910 C   0  0  0  0  0  0  0  0  0  0  0  0
   42.4060   86.0040   57.5300 O   0  0  0  0  0  0  0  0  0  0  0  0
   43.0110   86.4200   58.6870 C   0  0  0  0  0  0  0  0  0  0  0  0
   42.8180   85.5020   59.8470 C   0  0  0  0  0  0  0  0  0  0  0  0
   41.0757   80.2968   61.0377 H   0  0  0  0  0  0  0  0  0  0  0  0
   38.8233   83.4111   64.0258 H   0  0  0  0  0  0  0  0  0  0  0  0
   40.4686   86.0202   66.0925 H   0  0  0  0  0  0  0  0  0  0  0  0
   38.8910   85.5199   65.4265 H   0  0  0  0  0  0  0  0  0  0  0  0
   43.8687   82.3294   59.8469 H   0  0  0  0  0  0  0  0  0  0  0  0
   45.2591   81.7072   57.8823 H   0  0  0  0  0  0  0  0  0  0  0  0
   44.1534   80.8724   55.8070 H   0  0  0  0  0  0  0  0  0  0  0  0
   42.0068   80.2595   54.6518 H   0  0  0  0  0  0  0  0  0  0  0  0
   39.5372   80.0744   54.7570 H   0  0  0  0  0  0  0  0  0  0  0  0
   38.2677   80.7485   56.7607 H   0  0  0  0  0  0  0  0  0  0  0  0
   39.5471   81.6313   58.7254 H   0  0  0  0  0  0  0  0  0  0  0  0
   39.8729   84.3748   58.4710 H   0  0  0  0  0  0  0  0  0  0  0  0
   39.8213   85.9535   59.3265 H   0  0  0  0  0  0  0  0  0  0  0  0
   40.7077   85.3529   56.7050 H   0  0  0  0  0  0  0  0  0  0  0  0
   40.6876   86.9517   57.6436 H   0  0  0  0  0  0  0  0  0  0  0  0
   44.0905   86.5122   58.4970 H   0  0  0  0  0  0  0  0  0  0  0  0
   42.5410   87.3760   58.9612 H   0  0  0  0  0  0  0  0  0  0  0  0
   42.7973   86.0790   60.7833 H   0  0  0  0  0  0  0  0  0  0  0  0
   43.6429   84.7770   59.9091 H   0  0  0  0  0  0  0  0  0  0  0  0
  1  6  2  0
  2  3  2  0
  2  1  1  0
  3  4  1  0
  4  5  2  0
  5  7  1  0
  6  5  1  0
  7  8  1  0
  8  9  2  0
  8 10  1  0
  9 11  1  0
 12 13  2  0
 12  2  1  0
 14 13  1  0
 15 14  2  0
 16 15  1  0
 16 21  2  0
 17 18  2  0
 17 16  1  0
 18 19  1  0
 19 20  2  0
 21 20  1  0
 21 12  1  0
 22 27  1  0
 22  3  1  0
 23 22  1  0
 24 23  1  0
 25 24  1  0
 25 26  1  0
 26 27  1  0
  1 28  1  0
  7 29  1  0
 10 30  1  0
 10 31  1  0
 13 32  1  0
 14 33  1  0
 15 34  1  0
 17 35  1  0
 18 36  1  0
 19 37  1  0
 20 38  1  0
 23 39  1  0
 23 40  1  0
 24 41  1  0
 24 42  1  0
 26 43  1  0
 26 44  1  0
 27 45  1  0
 27 46  1  0
M  END
>  <Score>  (1) 
-7.10941

$$$$
