
     RDKit          3D

 46 50  0  0  0  0  0  0  0  0999 V2000
   42.3210   84.9670   57.1080 C   0  0  0  0  0  0  0  0  0  0  0  0
   41.7680   83.7610   56.6020 C   0  0  0  0  0  0  0  0  0  0  0  0
   41.5180   82.7300   57.4660 C   0  0  0  0  0  0  0  0  0  0  0  0
   41.8250   82.9430   58.7630 N   0  0  0  0  0  0  0  0  0  0  0  0
   42.3460   84.0690   59.2590 C   0  0  0  0  0  0  0  0  0  0  0  0
   42.5920   85.0790   58.4260 N   0  0  0  0  0  0  0  0  0  0  0  0
   42.6580   84.2460   60.6700 C   0  0  0  0  0  0  0  0  0  0  0  0
   43.8560   84.6350   61.2320 C   0  0  0  0  0  0  0  0  0  0  0  0
   43.7750   84.6930   62.5820 N   0  0  0  0  0  0  0  0  0  0  0  0
   42.4950   84.3290   62.8670 C   0  0  0  0  0  0  0  0  0  0  0  0
   41.8570   84.2130   64.1020 C   0  0  0  0  0  0  0  0  0  0  0  0
   40.5090   83.8110   64.0850 C   0  0  0  0  0  0  0  0  0  0  0  0
   39.8170   83.5370   62.9380 C   0  0  0  0  0  0  0  0  0  0  0  0
   40.4930   83.6660   61.7480 C   0  0  0  0  0  0  0  0  0  0  0  0
   41.8070   84.0560   61.7280 C   0  0  0  0  0  0  0  0  0  0  0  0
   40.9430   81.4460   57.0070 C   0  0  0  0  0  0  0  0  0  0  0  0
   41.5990   80.2410   57.3210 C   0  0  0  0  0  0  0  0  0  0  0  0
   40.5010   78.9800   56.5380 S   0  0  0  0  0  0  0  0  0  0  0  0
   39.3500   80.3380   55.9240 C   0  0  0  0  0  0  0  0  0  0  0  0
   39.8500   81.2640   56.3090 N   0  0  0  0  0  0  0  0  0  0  0  0
   38.1420   79.8850   55.1360 C   0  0  0  0  0  0  0  0  0  0  0  0
   37.6360   80.5570   54.2450 O   0  0  0  0  0  0  0  0  0  0  0  0
   37.5040   78.6400   55.3730 N   0  0  0  0  0  0  0  0  0  0  0  0
   37.0510   78.6560   56.7520 C   0  0  0  0  0  0  0  0  0  0  0  0
   36.2390   77.3820   57.0110 C   0  0  0  0  0  0  0  0  0  0  0  0
   37.0690   76.2520   56.7240 N   0  0  0  0  0  0  0  0  0  0  0  0
   37.7000   76.2630   55.4400 C   0  0  0  0  0  0  0  0  0  0  0  0
   37.2330   77.4510   54.5920 C   0  0  0  0  0  0  0  0  0  0  0  0
   42.5279   85.8070   56.4286 H   0  0  0  0  0  0  0  0  0  0  0  0
   41.5437   83.6571   55.5301 H   0  0  0  0  0  0  0  0  0  0  0  0
   44.7633   84.8687   60.6556 H   0  0  0  0  0  0  0  0  0  0  0  0
   44.5175   84.9546   63.2462 H   0  0  0  0  0  0  0  0  0  0  0  0
   42.3829   84.4257   65.0444 H   0  0  0  0  0  0  0  0  0  0  0  0
   39.9834   83.7118   65.0462 H   0  0  0  0  0  0  0  0  0  0  0  0
   38.7623   83.2260   62.9663 H   0  0  0  0  0  0  0  0  0  0  0  0
   39.9739   83.4540   60.8016 H   0  0  0  0  0  0  0  0  0  0  0  0
   42.5290   80.0892   57.8884 H   0  0  0  0  0  0  0  0  0  0  0  0
   37.9187   78.6869   57.4274 H   0  0  0  0  0  0  0  0  0  0  0  0
   36.4280   79.5441   56.9342 H   0  0  0  0  0  0  0  0  0  0  0  0
   35.9208   77.3516   58.0635 H   0  0  0  0  0  0  0  0  0  0  0  0
   35.3447   77.3668   56.3708 H   0  0  0  0  0  0  0  0  0  0  0  0
   37.8078   76.2105   57.4405 H   0  0  0  0  0  0  0  0  0  0  0  0
   38.7893   76.3293   55.5781 H   0  0  0  0  0  0  0  0  0  0  0  0
   37.4263   75.3364   54.9142 H   0  0  0  0  0  0  0  0  0  0  0  0
   36.1560   77.3698   54.3832 H   0  0  0  0  0  0  0  0  0  0  0  0
   37.7552   77.4810   53.6243 H   0  0  0  0  0  0  0  0  0  0  0  0
  1  6  2  0
  2  1  1  0
  2  3  2  0
  3  4  1  0
  4  5  2  0
  5  7  1  0
  6  5  1  0
  7  8  2  0
  7 15  1  0
  8  9  1  0
  9 10  1  0
 10 11  2  0
 12 11  1  0
 13 12  2  0
 14 13  1  0
 15 14  2  0
 15 10  1  0
 16 17  2  0
 16  3  1  0
 18 17  1  0
 19 20  2  0
 19 18  1  0
 20 16  1  0
 21 23  1  0
 21 19  1  0
 22 21  2  0
 23 24  1  0
 24 25  1  0
 26 25  1  0
 27 26  1  0
 28 23  1  0
 28 27  1  0
  1 29  1  0
  2 30  1  0
  8 31  1  0
  9 32  1  0
 11 33  1  0
 12 34  1  0
 13 35  1  0
 14 36  1  0
 17 37  1  0
 24 38  1  0
 24 39  1  0
 25 40  1  0
 25 41  1  0
 26 42  1  0
 27 43  1  0
 27 44  1  0
 28 45  1  0
 28 46  1  0
M  END
>  <Score>  (1) 
-7.37379

$$$$
