
     RDKit          3D

 56 59  0  0  0  0  0  0  0  0999 V2000
   40.9640   80.7600   61.8040 N   0  0  0  0  0  0  0  0  0  0  0  0
   40.8630   79.6250   62.5260 C   0  0  0  0  0  0  0  0  0  0  0  0
   40.5820   78.4380   61.8860 C   0  0  0  0  0  0  0  0  0  0  0  0
   40.4030   78.3950   60.5150 C   0  0  0  0  0  0  0  0  0  0  0  0
   40.1550   77.2940   59.9970 O   0  0  0  0  0  0  0  0  0  0  0  0
   40.5070   79.5210   59.8470 N   0  0  0  0  0  0  0  0  0  0  0  0
   40.7850   80.7110   60.4630 C   0  0  0  0  0  0  0  0  0  0  0  0
   40.8530   81.7010   59.6610 O   0  0  0  0  0  0  0  0  0  0  0  0
   41.2470   82.0540   62.3020 C   0  0  0  0  0  0  0  0  0  0  0  0
   42.2690   82.8030   61.7180 C   0  0  0  0  0  0  0  0  0  0  0  0
   42.5550   84.1030   62.2190 C   0  0  0  0  0  0  0  0  0  0  0  0
   41.7730   84.5370   63.2780 N   0  0  0  0  0  0  0  0  0  0  0  0
   40.8160   83.7660   63.7820 C   0  0  0  0  0  0  0  0  0  0  0  0
   40.5490   82.5470   63.3120 N   0  0  0  0  0  0  0  0  0  0  0  0
   40.0790   84.3170   64.8640 N   0  0  0  0  0  0  0  0  0  0  0  0
   43.5560   84.9290   61.7080 N   0  0  0  0  0  0  0  0  0  0  0  0
   43.5220   86.1760   62.1600 N   0  0  0  0  0  0  0  0  0  0  0  0
   44.5000   86.9070   61.6360 C   0  0  0  0  0  0  0  0  0  0  0  0
   45.1900   86.0610   60.8020 C   0  0  0  0  0  0  0  0  0  0  0  0
   44.5840   84.8330   60.8610 C   0  0  0  0  0  0  0  0  0  0  0  0
   40.2530   79.4090   58.4030 C   0  0  0  0  0  0  0  0  0  0  0  0
   39.6550   80.5830   57.7510 C   0  0  0  0  0  0  0  0  0  0  0  0
   41.6180   79.1620   57.7110 C   0  0  0  0  0  0  0  0  0  0  0  0
   39.3850   78.2160   58.0650 C   0  0  0  0  0  0  0  0  0  0  0  0
   38.6170   78.3180   56.8440 N   0  0  0  0  0  0  0  0  0  0  0  0
   39.1890   77.9710   55.6330 C   0  0  0  0  0  0  0  0  0  0  0  0
   38.1250   77.6490   54.5710 C   0  0  0  0  0  0  0  0  0  0  0  0
   37.3510   76.5060   55.1940 C   0  0  0  0  0  0  0  0  0  0  0  0
   36.5000   77.1680   56.2550 C   0  0  0  0  0  0  0  0  0  0  0  0
   37.2300   78.1700   57.0660 C   0  0  0  0  0  0  0  0  0  0  0  0
   41.0039   79.6472   63.6167 H   0  0  0  0  0  0  0  0  0  0  0  0
   40.4988   77.5116   62.4732 H   0  0  0  0  0  0  0  0  0  0  0  0
   42.8481   82.3919   60.8780 H   0  0  0  0  0  0  0  0  0  0  0  0
   39.3223   83.7725   65.3020 H   0  0  0  0  0  0  0  0  0  0  0  0
   40.3012   85.2611   65.2107 H   0  0  0  0  0  0  0  0  0  0  0  0
   44.7129   87.9687   61.8297 H   0  0  0  0  0  0  0  0  0  0  0  0
   46.0702   86.3221   60.1961 H   0  0  0  0  0  0  0  0  0  0  0  0
   44.8893   83.9312   60.3101 H   0  0  0  0  0  0  0  0  0  0  0  0
   39.2971   81.2857   58.5179 H   0  0  0  0  0  0  0  0  0  0  0  0
   40.4105   81.0785   57.1236 H   0  0  0  0  0  0  0  0  0  0  0  0
   38.8099   80.2632   57.1236 H   0  0  0  0  0  0  0  0  0  0  0  0
   42.3964   79.0211   58.4753 H   0  0  0  0  0  0  0  0  0  0  0  0
   41.5532   78.2610   57.0833 H   0  0  0  0  0  0  0  0  0  0  0  0
   41.8730   80.0286   57.0833 H   0  0  0  0  0  0  0  0  0  0  0  0
   40.0401   77.3366   57.9784 H   0  0  0  0  0  0  0  0  0  0  0  0
   38.6454   78.1473   58.8763 H   0  0  0  0  0  0  0  0  0  0  0  0
   39.8053   78.8097   55.2769 H   0  0  0  0  0  0  0  0  0  0  0  0
   39.8003   77.0699   55.7891 H   0  0  0  0  0  0  0  0  0  0  0  0
   38.5928   77.3394   53.6248 H   0  0  0  0  0  0  0  0  0  0  0  0
   37.4919   78.5123   54.3183 H   0  0  0  0  0  0  0  0  0  0  0  0
   36.7203   76.0072   54.4434 H   0  0  0  0  0  0  0  0  0  0  0  0
   38.0093   75.7276   55.6073 H   0  0  0  0  0  0  0  0  0  0  0  0
   35.6563   77.6706   55.7595 H   0  0  0  0  0  0  0  0  0  0  0  0
   36.1715   76.3755   56.9435 H   0  0  0  0  0  0  0  0  0  0  0  0
   37.0950   77.8968   58.1230 H   0  0  0  0  0  0  0  0  0  0  0  0
   36.7983   79.1357   56.7642 H   0  0  0  0  0  0  0  0  0  0  0  0
  1  9  1  0
  1  2  1  0
  3  2  2  0
  4  3  1  0
  5  4  2  0
  6  7  1  0
  6  4  1  0
  7  1  1  0
  8  7  2  0
  9 14  2  0
 10 11  2  0
 10  9  1  0
 11 12  1  0
 12 13  2  0
 13 15  1  0
 14 13  1  0
 16 17  1  0
 16 11  1  0
 18 17  2  0
 19 20  2  0
 19 18  1  0
 20 16  1  0
 21  6  1  0
 22 21  1  0
 23 21  1  0
 24 21  1  0
 25 30  1  0
 25 24  1  0
 26 25  1  0
 27 28  1  0
 27 26  1  0
 28 29  1  0
 29 30  1  0
  2 31  1  0
  3 32  1  0
 10 33  1  0
 15 34  1  0
 15 35  1  0
 18 36  1  0
 19 37  1  0
 20 38  1  0
 22 39  1  0
 22 40  1  0
 22 41  1  0
 23 42  1  0
 23 43  1  0
 23 44  1  0
 24 45  1  0
 24 46  1  0
 26 47  1  0
 26 48  1  0
 27 49  1  0
 27 50  1  0
 28 51  1  0
 28 52  1  0
 29 53  1  0
 29 54  1  0
 30 55  1  0
 30 56  1  0
M  END
>  <Score>  (1) 
-7.25502

$$$$
