
     RDKit          3D

 38 40  0  0  1  0  0  0  0  0999 V2000
   40.1980   80.2450   61.2090 C   0  0  1  0  0  0  0  0  0  0  0  0
   40.5890   79.8110   59.8960 C   0  0  0  0  0  0  0  0  0  0  0  0
   40.2590   78.3850   59.6940 C   0  0  0  0  0  0  0  0  0  0  0  0
   40.2630   77.5060   60.8300 C   0  0  0  0  0  0  0  0  0  0  0  0
   40.5980   78.0330   62.1610 C   0  0  0  0  0  0  0  0  0  0  0  0
   41.1380   79.4420   62.1900 C   0  0  0  0  0  0  0  0  0  0  0  0
   39.9330   76.1300   60.6290 C   0  0  0  0  0  0  0  0  0  0  0  0
   38.6740   75.5960   60.4690 C   0  0  0  0  0  0  0  0  0  0  0  0
   38.4370   74.2540   60.2770 C   0  0  0  0  0  0  0  0  0  0  0  0
   39.4950   73.3530   60.2390 C   0  0  0  0  0  0  0  0  0  0  0  0
   40.7640   73.8720   60.3990 C   0  0  0  0  0  0  0  0  0  0  0  0
   40.9740   75.2180   60.5880 C   0  0  0  0  0  0  0  0  0  0  0  0
   42.6650   75.7620   60.7820 S   0  0  0  0  0  0  0  0  0  0  0  0
   40.2220   81.6640   61.5300 C   0  0  0  0  0  0  0  0  0  0  0  0
   39.8580   82.4980   60.4470 C   0  0  0  0  0  0  0  0  0  0  0  0
   39.8630   83.8850   60.6560 C   0  0  0  0  0  0  0  0  0  0  0  0
   40.2170   84.3540   61.8890 N   0  0  0  0  0  0  0  0  0  0  0  0
   40.5550   83.5160   62.8870 C   0  0  0  0  0  0  0  0  0  0  0  0
   40.5530   82.2000   62.6960 N   0  0  0  0  0  0  0  0  0  0  0  0
   40.9280   84.1180   64.2000 C   0  0  0  0  0  0  0  0  0  0  0  0
   42.2660   83.8590   64.4910 F   0  0  0  0  0  0  0  0  0  0  0  0
   40.1750   83.6310   65.2420 F   0  0  0  0  0  0  0  0  0  0  0  0
   40.8290   85.5030   64.1730 F   0  0  0  0  0  0  0  0  0  0  0  0
   39.1199   80.0445   61.2961 H   0  0  0  0  0  0  0  0  0  0  0  0
   40.0585   80.4138   59.1442 H   0  0  0  0  0  0  0  0  0  0  0  0
   41.6766   79.9390   59.7920 H   0  0  0  0  0  0  0  0  0  0  0  0
   40.0147   78.0034   58.6917 H   0  0  0  0  0  0  0  0  0  0  0  0
   39.6849   78.0083   62.7739 H   0  0  0  0  0  0  0  0  0  0  0  0
   41.4081   77.3935   62.5415 H   0  0  0  0  0  0  0  0  0  0  0  0
   42.1797   79.4666   61.8376 H   0  0  0  0  0  0  0  0  0  0  0  0
   41.1447   79.8668   63.2046 H   0  0  0  0  0  0  0  0  0  0  0  0
   37.8117   76.2784   60.4961 H   0  0  0  0  0  0  0  0  0  0  0  0
   37.4055   73.8926   60.1530 H   0  0  0  0  0  0  0  0  0  0  0  0
   39.3286   72.2761   60.0884 H   0  0  0  0  0  0  0  0  0  0  0  0
   41.6286   73.1923   60.3747 H   0  0  0  0  0  0  0  0  0  0  0  0
   42.9637   75.8581   62.1156 H   0  0  0  0  0  0  0  0  0  0  0  0
   39.5798   82.0722   59.4716 H   0  0  0  0  0  0  0  0  0  0  0  0
   39.5886   84.5779   59.8469 H   0  0  0  0  0  0  0  0  0  0  0  0
  1 14  1  0
  1  6  1  0
  2  1  1  0
  3  2  1  0
  3  4  2  0
  4  5  1  0
  5  6  1  0
  7  4  1  0
  8  7  2  0
  9  8  1  0
 10  9  2  0
 10 11  1  0
 11 12  2  0
 12  7  1  0
 12 13  1  0
 14 19  2  0
 15 16  2  0
 15 14  1  0
 16 17  1  0
 17 18  2  0
 18 20  1  0
 19 18  1  0
 20 21  1  0
 20 22  1  0
 23 20  1  0
  1 24  1  1
  2 25  1  0
  2 26  1  0
  3 27  1  0
  5 28  1  0
  5 29  1  0
  6 30  1  0
  6 31  1  0
  8 32  1  0
  9 33  1  0
 10 34  1  0
 11 35  1  0
 13 36  1  0
 15 37  1  0
 16 38  1  0
M  END
>  <Score>  (1) 
-7.25664

$$$$
