
     RDKit          3D

 41 45  0  0  0  0  0  0  0  0999 V2000
   41.7990   83.5070   61.4270 C   0  0  0  0  0  0  0  0  0  0  0  0
   40.7210   83.9510   62.1710 C   0  0  0  0  0  0  0  0  0  0  0  0
   39.5280   83.2580   62.2210 C   0  0  0  0  0  0  0  0  0  0  0  0
   39.4240   82.1050   61.5150 N   0  0  0  0  0  0  0  0  0  0  0  0
   40.4710   81.6590   60.7820 C   0  0  0  0  0  0  0  0  0  0  0  0
   41.6080   82.3460   60.7510 N   0  0  0  0  0  0  0  0  0  0  0  0
   40.2570   80.4390   60.0780 N   0  0  0  0  0  0  0  0  0  0  0  0
   40.3220   79.2470   60.7060 C   0  0  0  0  0  0  0  0  0  0  0  0
   40.0840   78.2450   59.8290 N   0  0  0  0  0  0  0  0  0  0  0  0
   39.8620   78.7960   58.6190 C   0  0  0  0  0  0  0  0  0  0  0  0
   39.5700   78.3830   57.3350 C   0  0  0  0  0  0  0  0  0  0  0  0
   39.4070   79.2530   56.3170 N   0  0  0  0  0  0  0  0  0  0  0  0
   39.5270   80.5830   56.5430 C   0  0  0  0  0  0  0  0  0  0  0  0
   39.8100   81.0350   57.7780 N   0  0  0  0  0  0  0  0  0  0  0  0
   39.9730   80.1690   58.7910 C   0  0  0  0  0  0  0  0  0  0  0  0
   45.4380   87.8150   57.5010 C   0  0  0  0  0  0  0  0  0  0  0  0
   45.0000   89.1110   57.8170 C   0  0  0  0  0  0  0  0  0  0  0  0
   44.3540   89.2810   59.0390 C   0  0  0  0  0  0  0  0  0  0  0  0
   44.1710   88.2150   59.8660 N   0  0  0  0  0  0  0  0  0  0  0  0
   44.6160   86.9720   59.5150 C   0  0  0  0  0  0  0  0  0  0  0  0
   45.2440   86.7730   58.3410 N   0  0  0  0  0  0  0  0  0  0  0  0
   44.4160   85.8770   60.3890 N   0  0  0  0  0  0  0  0  0  0  0  0
   45.4230   85.4310   61.1710 C   0  0  0  0  0  0  0  0  0  0  0  0
   45.3450   84.3810   62.0550 C   0  0  0  0  0  0  0  0  0  0  0  0
   44.0940   83.7770   62.0910 C   0  0  0  0  0  0  0  0  0  0  0  0
   43.9200   82.7990   62.8740 O   0  0  0  0  0  0  0  0  0  0  0  0
   43.0460   84.1740   61.3350 N   0  0  0  0  0  0  0  0  0  0  0  0
   43.2280   85.2060   60.5080 C   0  0  0  0  0  0  0  0  0  0  0  0
   42.2450   85.6000   59.7810 O   0  0  0  0  0  0  0  0  0  0  0  0
   39.4510   76.9800   57.1350 N   0  0  0  0  0  0  0  0  0  0  0  0
   40.8173   84.8866   62.7414 H   0  0  0  0  0  0  0  0  0  0  0  0
   38.6833   83.6317   62.8184 H   0  0  0  0  0  0  0  0  0  0  0  0
   40.5373   79.1097   61.7760 H   0  0  0  0  0  0  0  0  0  0  0  0
   39.3928   81.2949   55.7152 H   0  0  0  0  0  0  0  0  0  0  0  0
   45.9529   87.6425   56.5444 H   0  0  0  0  0  0  0  0  0  0  0  0
   45.1600   89.9548   57.1297 H   0  0  0  0  0  0  0  0  0  0  0  0
   43.9917   90.2763   59.3360 H   0  0  0  0  0  0  0  0  0  0  0  0
   46.3883   85.9527   61.0939 H   0  0  0  0  0  0  0  0  0  0  0  0
   46.1918   84.0506   62.6745 H   0  0  0  0  0  0  0  0  0  0  0  0
   39.2343   76.6098   56.1986 H   0  0  0  0  0  0  0  0  0  0  0  0
   39.5816   76.3340   57.9266 H   0  0  0  0  0  0  0  0  0  0  0  0
  1  2  2  0
  2  3  1  0
  4  3  2  0
  5  4  1  0
  6  5  2  0
  6  1  1  0
  7  8  1  0
  7  5  1  0
  9  8  2  0
 10 15  2  0
 10  9  1  0
 11 10  1  0
 12 13  1  0
 12 11  2  0
 13 14  2  0
 14 15  1  0
 15  7  1  0
 16 17  2  0
 16 21  1  0
 17 18  1  0
 18 19  2  0
 20 19  1  0
 20 22  1  0
 21 20  2  0
 22 28  1  0
 22 23  1  0
 23 24  2  0
 24 25  1  0
 25 26  2  0
 27  1  1  0
 27 25  1  0
 28 27  1  0
 29 28  2  0
 30 11  1  0
  2 31  1  0
  3 32  1  0
  8 33  1  0
 13 34  1  0
 16 35  1  0
 17 36  1  0
 18 37  1  0
 23 38  1  0
 24 39  1  0
 30 40  1  0
 30 41  1  0
M  END
>  <Score>  (1) 
-7.11377

$$$$
