
     RDKit          3D

 38 40  0  0  1  0  0  0  0  0999 V2000
   40.1780   80.2370   61.2780 C   0  0  1  0  0  0  0  0  0  0  0  0
   40.5550   79.8290   59.9530 C   0  0  0  0  0  0  0  0  0  0  0  0
   40.2350   78.4030   59.7300 C   0  0  0  0  0  0  0  0  0  0  0  0
   40.2600   77.5040   60.8500 C   0  0  0  0  0  0  0  0  0  0  0  0
   40.6080   78.0140   62.1840 C   0  0  0  0  0  0  0  0  0  0  0  0
   41.1410   79.4250   62.2300 C   0  0  0  0  0  0  0  0  0  0  0  0
   39.9380   76.1300   60.6350 C   0  0  0  0  0  0  0  0  0  0  0  0
   38.6820   75.5900   60.4710 C   0  0  0  0  0  0  0  0  0  0  0  0
   38.4310   74.2540   60.2670 C   0  0  0  0  0  0  0  0  0  0  0  0
   39.4960   73.3590   60.2170 C   0  0  0  0  0  0  0  0  0  0  0  0
   40.7610   73.8760   60.3770 C   0  0  0  0  0  0  0  0  0  0  0  0
   40.9690   75.2220   60.5790 C   0  0  0  0  0  0  0  0  0  0  0  0
   42.6650   75.7770   60.7730 S   0  0  0  0  0  0  0  0  0  0  0  0
   40.1960   81.6510   61.6200 C   0  0  0  0  0  0  0  0  0  0  0  0
   39.8140   82.4940   60.5510 C   0  0  0  0  0  0  0  0  0  0  0  0
   39.8130   83.8800   60.7860 C   0  0  0  0  0  0  0  0  0  0  0  0
   40.1770   84.3330   62.0180 N   0  0  0  0  0  0  0  0  0  0  0  0
   40.5330   83.4860   63.0030 C   0  0  0  0  0  0  0  0  0  0  0  0
   40.5350   82.1750   62.7870 N   0  0  0  0  0  0  0  0  0  0  0  0
   40.9040   84.0800   64.2820 C   0  0  0  0  0  0  0  0  0  0  0  0
   42.1250   84.2570   64.5340 O   0  0  0  0  0  0  0  0  0  0  0  0
   40.0100   84.4710   65.2550 O   0  0  0  0  0  0  0  0  0  0  0  0
   39.1033   80.0260   61.3803 H   0  0  0  0  0  0  0  0  0  0  0  0
   40.0091   80.4398   59.2189 H   0  0  0  0  0  0  0  0  0  0  0  0
   41.6400   79.9684   59.8373 H   0  0  0  0  0  0  0  0  0  0  0  0
   39.9822   78.0369   58.7240 H   0  0  0  0  0  0  0  0  0  0  0  0
   39.7022   77.9751   62.8069 H   0  0  0  0  0  0  0  0  0  0  0  0
   41.4269   77.3738   62.5439 H   0  0  0  0  0  0  0  0  0  0  0  0
   42.1765   79.4626   61.8609 H   0  0  0  0  0  0  0  0  0  0  0  0
   41.1639   79.8325   63.2515 H   0  0  0  0  0  0  0  0  0  0  0  0
   37.8212   76.2740   60.5056 H   0  0  0  0  0  0  0  0  0  0  0  0
   37.3983   73.8955   60.1444 H   0  0  0  0  0  0  0  0  0  0  0  0
   39.3330   72.2831   60.0562 H   0  0  0  0  0  0  0  0  0  0  0  0
   41.6265   73.1980   60.3427 H   0  0  0  0  0  0  0  0  0  0  0  0
   42.9638   75.8748   62.1064 H   0  0  0  0  0  0  0  0  0  0  0  0
   39.5284   82.0809   59.5724 H   0  0  0  0  0  0  0  0  0  0  0  0
   39.5243   84.5840   59.9916 H   0  0  0  0  0  0  0  0  0  0  0  0
   40.3400   84.8678   66.0998 H   0  0  0  0  0  0  0  0  0  0  0  0
  1 14  1  0
  1  6  1  0
  2  1  1  0
  3  2  1  0
  3  4  2  0
  4  5  1  0
  5  6  1  0
  7  4  1  0
  8  7  2  0
  9  8  1  0
 10  9  2  0
 10 11  1  0
 11 12  2  0
 12  7  1  0
 12 13  1  0
 14 19  2  0
 15 16  2  0
 15 14  1  0
 16 17  1  0
 17 18  2  0
 18 20  1  0
 19 18  1  0
 20 21  2  0
 20 22  1  0
  1 23  1  1
  2 24  1  0
  2 25  1  0
  3 26  1  0
  5 27  1  0
  5 28  1  0
  6 29  1  0
  6 30  1  0
  8 31  1  0
  9 32  1  0
 10 33  1  0
 11 34  1  0
 13 35  1  0
 15 36  1  0
 16 37  1  0
 22 38  1  0
M  END
>  <Score>  (1) 
-7.31772

$$$$
