
     RDKit          3D

 36 40  0  0  0  0  0  0  0  0999 V2000
   41.0520   76.5210   60.1260 C   0  0  0  0  0  0  0  0  0  0  0  0
   40.7010   76.2240   58.8250 C   0  0  0  0  0  0  0  0  0  0  0  0
   40.9250   74.9560   58.3950 C   0  0  0  0  0  0  0  0  0  0  0  0
   41.4700   74.0470   59.2260 N   0  0  0  0  0  0  0  0  0  0  0  0
   41.7950   74.3990   60.4930 C   0  0  0  0  0  0  0  0  0  0  0  0
   41.5930   75.6490   60.9780 N   0  0  0  0  0  0  0  0  0  0  0  0
   42.3740   73.4580   61.4020 N   0  0  0  0  0  0  0  0  0  0  0  0
   42.0050   72.1660   61.4760 C   0  0  0  0  0  0  0  0  0  0  0  0
   42.7720   71.5930   62.4460 N   0  0  0  0  0  0  0  0  0  0  0  0
   43.5950   72.5340   62.9490 C   0  0  0  0  0  0  0  0  0  0  0  0
   44.5820   72.5540   63.9340 C   0  0  0  0  0  0  0  0  0  0  0  0
   45.2300   73.7280   64.1820 N   0  0  0  0  0  0  0  0  0  0  0  0
   44.9300   74.8460   63.4930 C   0  0  0  0  0  0  0  0  0  0  0  0
   43.9820   74.9010   62.5210 N   0  0  0  0  0  0  0  0  0  0  0  0
   43.3460   73.7250   62.2880 C   0  0  0  0  0  0  0  0  0  0  0  0
   40.2460   80.4340   60.9470 C   0  0  0  0  0  0  0  0  0  0  0  0
   40.6770   79.7180   62.0290 C   0  0  0  0  0  0  0  0  0  0  0  0
   40.9720   78.4010   61.8540 C   0  0  0  0  0  0  0  0  0  0  0  0
   40.8220   77.8750   60.6240 C   0  0  0  0  0  0  0  0  0  0  0  0
   40.2240   79.3060   59.6030 S   0  0  0  0  0  0  0  0  0  0  0  0
   39.8670   81.8610   60.8670 C   0  0  0  0  0  0  0  0  0  0  0  0
   40.1140   82.6290   59.7260 C   0  0  0  0  0  0  0  0  0  0  0  0
   39.6980   83.9650   59.8040 C   0  0  0  0  0  0  0  0  0  0  0  0
   39.1020   84.4190   60.9360 N   0  0  0  0  0  0  0  0  0  0  0  0
   38.8860   83.6220   62.0200 C   0  0  0  0  0  0  0  0  0  0  0  0
   39.2770   82.3410   61.9640 N   0  0  0  0  0  0  0  0  0  0  0  0
   40.2580   76.9832   58.1637 H   0  0  0  0  0  0  0  0  0  0  0  0
   40.6609   74.6705   57.3661 H   0  0  0  0  0  0  0  0  0  0  0  0
   41.2332   71.6684   60.8704 H   0  0  0  0  0  0  0  0  0  0  0  0
   44.8322   71.6434   64.4981 H   0  0  0  0  0  0  0  0  0  0  0  0
   45.4837   75.7663   63.7306 H   0  0  0  0  0  0  0  0  0  0  0  0
   40.7826   80.1939   63.0151 H   0  0  0  0  0  0  0  0  0  0  0  0
   41.3231   77.7837   62.6940 H   0  0  0  0  0  0  0  0  0  0  0  0
   40.6002   82.2145   58.8306 H   0  0  0  0  0  0  0  0  0  0  0  0
   39.8537   84.6427   58.9517 H   0  0  0  0  0  0  0  0  0  0  0  0
   38.4007   84.0217   62.9226 H   0  0  0  0  0  0  0  0  0  0  0  0
  1 19  1  0
  1  6  1  0
  2  1  2  0
  3  2  1  0
  3  4  2  0
  4  5  1  0
  5  6  2  0
  5  7  1  0
  7  8  1  0
  7 15  1  0
  8  9  2  0
  9 10  1  0
 10 11  2  0
 11 12  1  0
 13 12  2  0
 14 13  1  0
 15 14  2  0
 15 10  1  0
 16 17  2  0
 18 17  1  0
 19 18  2  0
 20 19  1  0
 20 16  1  0
 21 16  1  0
 21 26  2  0
 22 23  2  0
 22 21  1  0
 23 24  1  0
 24 25  2  0
 26 25  1  0
  2 27  1  0
  3 28  1  0
  8 29  1  0
 11 30  1  0
 13 31  1  0
 17 32  1  0
 18 33  1  0
 22 34  1  0
 23 35  1  0
 25 36  1  0
M  END
>  <Score>  (1) 
-7.07719

$$$$
