
     RDKit          3D

 43 47  0  0  0  0  0  0  0  0999 V2000
   40.8930   79.4380   62.3810 C   0  0  0  0  0  0  0  0  0  0  0  0
   41.6810   78.2500   61.9450 C   0  0  0  0  0  0  0  0  0  0  0  0
   43.0210   78.1300   62.2710 C   0  0  0  0  0  0  0  0  0  0  0  0
   43.7070   77.0040   61.8390 C   0  0  0  0  0  0  0  0  0  0  0  0
   43.0660   76.0700   61.1260 N   0  0  0  0  0  0  0  0  0  0  0  0
   41.7760   76.2330   60.8400 C   0  0  0  0  0  0  0  0  0  0  0  0
   41.0840   77.2980   61.2360 N   0  0  0  0  0  0  0  0  0  0  0  0
   41.1750   75.1750   60.0700 N   0  0  0  0  0  0  0  0  0  0  0  0
   40.4880   75.3030   58.9150 C   0  0  0  0  0  0  0  0  0  0  0  0
   40.0830   74.0640   58.5040 N   0  0  0  0  0  0  0  0  0  0  0  0
   40.5380   73.1980   59.4290 C   0  0  0  0  0  0  0  0  0  0  0  0
   40.4780   71.8300   59.6120 C   0  0  0  0  0  0  0  0  0  0  0  0
   41.0320   71.1890   60.6540 N   0  0  0  0  0  0  0  0  0  0  0  0
   41.6960   71.8980   61.6000 C   0  0  0  0  0  0  0  0  0  0  0  0
   41.7840   73.2320   61.4700 N   0  0  0  0  0  0  0  0  0  0  0  0
   41.2290   73.8600   60.4300 C   0  0  0  0  0  0  0  0  0  0  0  0
   40.1590   80.0650   61.1970 C   0  0  0  0  0  0  0  0  0  0  0  0
   40.2330   81.5210   61.3810 C   0  0  0  0  0  0  0  0  0  0  0  0
   40.2000   82.4340   60.3140 C   0  0  0  0  0  0  0  0  0  0  0  0
   40.2770   83.7690   60.5920 C   0  0  0  0  0  0  0  0  0  0  0  0
   40.3790   84.1520   61.8920 N   0  0  0  0  0  0  0  0  0  0  0  0
   40.4100   83.2740   62.9120 C   0  0  0  0  0  0  0  0  0  0  0  0
   40.3360   81.9550   62.6540 N   0  0  0  0  0  0  0  0  0  0  0  0
   40.2440   84.7190   59.4980 C   0  0  0  0  0  0  0  0  0  0  0  0
   41.2640   84.8470   58.6080 C   0  0  0  0  0  0  0  0  0  0  0  0
   41.1300   85.7820   57.6040 C   0  0  0  0  0  0  0  0  0  0  0  0
   40.0010   86.5570   57.5110 N   0  0  0  0  0  0  0  0  0  0  0  0
   39.0160   86.4100   58.3990 C   0  0  0  0  0  0  0  0  0  0  0  0
   39.1430   85.4910   59.3890 N   0  0  0  0  0  0  0  0  0  0  0  0
   40.1576   79.1255   63.1370 H   0  0  0  0  0  0  0  0  0  0  0  0
   41.5827   80.1834   62.8037 H   0  0  0  0  0  0  0  0  0  0  0  0
   43.5297   78.9086   62.8584 H   0  0  0  0  0  0  0  0  0  0  0  0
   44.7727   76.8794   62.0813 H   0  0  0  0  0  0  0  0  0  0  0  0
   40.2872   76.2490   58.3908 H   0  0  0  0  0  0  0  0  0  0  0  0
   39.9449   71.2302   58.8596 H   0  0  0  0  0  0  0  0  0  0  0  0
   42.1553   71.3889   62.4602 H   0  0  0  0  0  0  0  0  0  0  0  0
   39.1092   79.7368   61.1843 H   0  0  0  0  0  0  0  0  0  0  0  0
   40.6140   79.7620   60.2424 H   0  0  0  0  0  0  0  0  0  0  0  0
   40.1139   82.0810   59.2757 H   0  0  0  0  0  0  0  0  0  0  0  0
   40.4952   83.6318   63.9487 H   0  0  0  0  0  0  0  0  0  0  0  0
   42.1673   84.2243   58.6867 H   0  0  0  0  0  0  0  0  0  0  0  0
   41.9379   85.9086   56.8683 H   0  0  0  0  0  0  0  0  0  0  0  0
   38.1090   87.0284   58.3290 H   0  0  0  0  0  0  0  0  0  0  0  0
  2  3  2  0
  2  1  1  0
  4  3  1  0
  5  4  2  0
  6  5  1  0
  6  7  2  0
  7  2  1  0
  8 16  1  0
  8  6  1  0
  9  8  1  0
 10  9  2  0
 10 11  1  0
 11 12  2  0
 11 16  1  0
 12 13  1  0
 13 14  2  0
 15 14  1  0
 16 15  2  0
 17 18  1  0
 17  1  1  0
 18 23  2  0
 19 20  2  0
 19 18  1  0
 20 21  1  0
 21 22  2  0
 23 22  1  0
 24 20  1  0
 25 24  2  0
 26 25  1  0
 27 26  2  0
 27 28  1  0
 28 29  2  0
 29 24  1  0
  1 30  1  0
  1 31  1  0
  3 32  1  0
  4 33  1  0
  9 34  1  0
 12 35  1  0
 14 36  1  0
 17 37  1  0
 17 38  1  0
 19 39  1  0
 22 40  1  0
 25 41  1  0
 26 42  1  0
 28 43  1  0
M  END
>  <Score>  (1) 
-7.24971

$$$$
