
     RDKit          3D

 38 41  0  0  0  0  0  0  0  0999 V2000
   40.0380   82.2450   60.4310 C   0  0  0  0  0  0  0  0  0  0  0  0
   40.0480   83.1910   59.4220 C   0  0  0  0  0  0  0  0  0  0  0  0
   39.5030   84.4490   59.6070 C   0  0  0  0  0  0  0  0  0  0  0  0
   38.9530   84.7170   60.8380 N   0  0  0  0  0  0  0  0  0  0  0  0
   38.9470   83.7930   61.8130 C   0  0  0  0  0  0  0  0  0  0  0  0
   39.4810   82.5780   61.6130 N   0  0  0  0  0  0  0  0  0  0  0  0
   40.6140   80.9850   60.1680 N   0  0  0  0  0  0  0  0  0  0  0  0
   41.2440   80.6150   59.0550 C   0  0  0  0  0  0  0  0  0  0  0  0
   41.6710   79.3450   59.1410 N   0  0  0  0  0  0  0  0  0  0  0  0
   41.2910   78.8930   60.3700 C   0  0  0  0  0  0  0  0  0  0  0  0
   41.4720   77.6680   60.9740 C   0  0  0  0  0  0  0  0  0  0  0  0
   42.1000   76.7710   60.3010 O   0  0  0  0  0  0  0  0  0  0  0  0
   40.9900   77.4890   62.2080 N   0  0  0  0  0  0  0  0  0  0  0  0
   40.3510   78.4840   62.8260 C   0  0  0  0  0  0  0  0  0  0  0  0
   39.9000   78.1340   64.1310 N   0  0  0  0  0  0  0  0  0  0  0  0
   40.1630   79.6900   62.2550 N   0  0  0  0  0  0  0  0  0  0  0  0
   40.6270   79.9380   61.0040 C   0  0  0  0  0  0  0  0  0  0  0  0
   41.5890   81.1790   57.8020 N   0  0  0  0  0  0  0  0  0  0  0  0
   41.2600   82.5200   57.2780 C   0  0  0  0  0  0  0  0  0  0  0  0
   41.7370   82.5380   55.8410 C   0  0  0  0  0  0  0  0  0  0  0  0
   41.1250   81.5000   55.0550 N   0  0  0  0  0  0  0  0  0  0  0  0
   41.4260   80.2290   55.6440 C   0  0  0  0  0  0  0  0  0  0  0  0
   42.3540   80.3460   56.8500 C   0  0  0  0  0  0  0  0  0  0  0  0
   40.4991   82.9375   58.4513 H   0  0  0  0  0  0  0  0  0  0  0  0
   39.5095   85.2015   58.8046 H   0  0  0  0  0  0  0  0  0  0  0  0
   38.4987   84.0352   62.7878 H   0  0  0  0  0  0  0  0  0  0  0  0
   41.1120   76.5827   62.6819 H   0  0  0  0  0  0  0  0  0  0  0  0
   39.3930   78.8244   64.7031 H   0  0  0  0  0  0  0  0  0  0  0  0
   40.0808   77.1905   64.5026 H   0  0  0  0  0  0  0  0  0  0  0  0
   40.1743   82.6913   57.3220 H   0  0  0  0  0  0  0  0  0  0  0  0
   41.7406   83.3122   57.8709 H   0  0  0  0  0  0  0  0  0  0  0  0
   41.4879   83.5130   55.3967 H   0  0  0  0  0  0  0  0  0  0  0  0
   42.8235   82.3661   55.8424 H   0  0  0  0  0  0  0  0  0  0  0  0
   41.4945   81.5313   54.0941 H   0  0  0  0  0  0  0  0  0  0  0  0
   40.4855   79.7590   55.9674 H   0  0  0  0  0  0  0  0  0  0  0  0
   41.9418   79.6235   54.8842 H   0  0  0  0  0  0  0  0  0  0  0  0
   42.5668   79.3556   57.2786 H   0  0  0  0  0  0  0  0  0  0  0  0
   43.3320   80.7799   56.5946 H   0  0  0  0  0  0  0  0  0  0  0  0
  1  6  2  0
  2  3  2  0
  2  1  1  0
  3  4  1  0
  4  5  2  0
  6  5  1  0
  7  1  1  0
  7 17  1  0
  8  9  2  0
  8  7  1  0
  9 10  1  0
 10 11  1  0
 10 17  2  0
 11 13  1  0
 12 11  2  0
 13 14  1  0
 14 15  1  0
 16 14  2  0
 17 16  1  0
 18  8  1  0
 19 18  1  0
 20 19  1  0
 21 22  1  0
 21 20  1  0
 22 23  1  0
 23 18  1  0
  2 24  1  0
  3 25  1  0
  5 26  1  0
 13 27  1  0
 15 28  1  0
 15 29  1  0
 19 30  1  0
 19 31  1  0
 20 32  1  0
 20 33  1  0
 21 34  1  0
 22 35  1  0
 22 36  1  0
 23 37  1  0
 23 38  1  0
M  END
>  <Score>  (1) 
-7.3308

$$$$
