
     RDKit          3D

 48 52  0  0  1  0  0  0  0  0999 V2000
   38.5990   74.4930   59.0740 N   0  0  0  0  0  0  0  0  0  0  0  0
   38.6630   75.5260   58.1090 C   0  0  0  0  0  0  0  0  0  0  0  0
   38.7410   76.8330   58.9080 C   0  0  0  0  0  0  0  0  0  0  0  0
   40.1210   76.8320   59.5200 C   0  0  2  0  0  0  0  0  0  0  0  0
   40.3950   75.6080   60.3180 C   0  0  0  0  0  0  0  0  0  0  0  0
   39.7930   74.3220   59.8120 C   0  0  2  0  0  0  0  0  0  0  0  0
   40.7870   73.4020   59.2450 C   0  0  0  0  0  0  0  0  0  0  0  0
   41.1150   73.1850   57.9300 C   0  0  0  0  0  0  0  0  0  0  0  0
   42.0420   72.2870   57.4710 C   0  0  0  0  0  0  0  0  0  0  0  0
   42.7320   71.5080   58.3750 C   0  0  0  0  0  0  0  0  0  0  0  0
   42.4510   71.6740   59.7140 C   0  0  0  0  0  0  0  0  0  0  0  0
   43.1820   70.8650   60.5560 C   0  0  0  0  0  0  0  0  0  0  0  0
   42.9740   70.9610   61.9140 C   0  0  0  0  0  0  0  0  0  0  0  0
   42.0530   71.8530   62.3770 C   0  0  0  0  0  0  0  0  0  0  0  0
   41.3490   72.6410   61.4920 C   0  0  0  0  0  0  0  0  0  0  0  0
   41.5040   72.5970   60.1230 C   0  0  0  0  0  0  0  0  0  0  0  0
   40.1880   80.0800   60.9680 C   0  0  0  0  0  0  0  0  0  0  0  0
   40.6940   79.3510   62.0000 C   0  0  0  0  0  0  0  0  0  0  0  0
   40.7470   78.0140   61.6160 C   0  0  0  0  0  0  0  0  0  0  0  0
   40.2620   78.0190   60.3530 N   0  0  0  0  0  0  0  0  0  0  0  0
   39.9240   79.2130   59.9410 N   0  0  0  0  0  0  0  0  0  0  0  0
   39.9590   81.5200   60.9360 C   0  0  0  0  0  0  0  0  0  0  0  0
   40.2330   82.2470   59.7390 C   0  0  0  0  0  0  0  0  0  0  0  0
   39.9910   83.6270   59.7750 C   0  0  0  0  0  0  0  0  0  0  0  0
   39.5210   84.1970   60.9160 N   0  0  0  0  0  0  0  0  0  0  0  0
   39.2810   83.4660   62.0190 C   0  0  0  0  0  0  0  0  0  0  0  0
   39.4910   82.1300   62.0530 N   0  0  0  0  0  0  0  0  0  0  0  0
   38.3883   73.6091   58.5890 H   0  0  0  0  0  0  0  0  0  0  0  0
   37.7635   75.5162   57.4758 H   0  0  0  0  0  0  0  0  0  0  0  0
   39.5283   75.4054   57.4406 H   0  0  0  0  0  0  0  0  0  0  0  0
   38.6126   77.7007   58.2442 H   0  0  0  0  0  0  0  0  0  0  0  0
   37.9502   76.9007   59.6696 H   0  0  0  0  0  0  0  0  0  0  0  0
   40.8570   76.8413   58.7025 H   0  0  0  0  0  0  0  0  0  0  0  0
   41.4860   75.4728   60.3572 H   0  0  0  0  0  0  0  0  0  0  0  0
   39.9192   75.7861   61.2937 H   0  0  0  0  0  0  0  0  0  0  0  0
   39.4330   73.7826   60.7005 H   0  0  0  0  0  0  0  0  0  0  0  0
   40.5856   73.7866   57.1765 H   0  0  0  0  0  0  0  0  0  0  0  0
   42.2338   72.1886   56.3923 H   0  0  0  0  0  0  0  0  0  0  0  0
   43.4825   70.7776   58.0386 H   0  0  0  0  0  0  0  0  0  0  0  0
   43.9184   70.1553   60.1510 H   0  0  0  0  0  0  0  0  0  0  0  0
   43.5412   70.3288   62.6130 H   0  0  0  0  0  0  0  0  0  0  0  0
   41.8715   71.9440   63.4581 H   0  0  0  0  0  0  0  0  0  0  0  0
   40.6166   73.3504   61.9046 H   0  0  0  0  0  0  0  0  0  0  0  0
   41.0086   79.7516   62.9750 H   0  0  0  0  0  0  0  0  0  0  0  0
   41.1009   77.1536   62.2029 H   0  0  0  0  0  0  0  0  0  0  0  0
   40.6144   81.7500   58.8348 H   0  0  0  0  0  0  0  0  0  0  0  0
   40.1803   84.2452   58.8851 H   0  0  0  0  0  0  0  0  0  0  0  0
   38.9025   83.9696   62.9208 H   0  0  0  0  0  0  0  0  0  0  0  0
  1  6  1  0
  2  3  1  0
  2  1  1  0
  3  4  1  0
  4  5  1  0
  4 20  1  0
  6  5  1  0
  7  6  1  0
  7 16  1  0
  8  7  2  0
  9  8  1  0
  9 10  2  0
 10 11  1  0
 11 16  2  0
 11 12  1  0
 12 13  2  0
 13 14  1  0
 15 14  2  0
 16 15  1  0
 17 18  1  0
 19 18  2  0
 20 19  1  0
 21 20  1  0
 21 17  2  0
 22 17  1  0
 22 27  2  0
 23 24  2  0
 23 22  1  0
 24 25  1  0
 25 26  2  0
 26 27  1  0
  1 28  1  0
  2 29  1  0
  2 30  1  0
  3 31  1  0
  3 32  1  0
  4 33  1  6
  5 34  1  0
  5 35  1  0
  6 36  1  1
  8 37  1  0
  9 38  1  0
 10 39  1  0
 12 40  1  0
 13 41  1  0
 14 42  1  0
 15 43  1  0
 18 44  1  0
 19 45  1  0
 23 46  1  0
 24 47  1  0
 26 48  1  0
M  END
>  <Score>  (1) 
-7.00951

$$$$
