
     RDKit          3D

 56 59  0  0  1  0  0  0  0  0999 V2000
   40.3710   83.6680   58.6460 C   0  0  0  0  0  0  0  0  0  0  0  0
   39.5180   84.4490   59.4200 C   0  0  0  0  0  0  0  0  0  0  0  0
   39.1810   83.9640   60.6780 C   0  0  0  0  0  0  0  0  0  0  0  0
   39.6970   82.7720   61.0730 N   0  0  0  0  0  0  0  0  0  0  0  0
   40.5130   82.0440   60.3090 C   0  0  0  0  0  0  0  0  0  0  0  0
   40.8630   82.4920   59.0700 N   0  0  0  0  0  0  0  0  0  0  0  0
   41.0080   80.7970   60.8140 N   0  0  0  0  0  0  0  0  0  0  0  0
   40.1140   79.7510   61.1660 C   0  0  0  0  0  0  0  0  0  0  0  0
   40.8090   78.3950   61.0670 C   0  0  0  0  0  0  0  0  0  0  0  0
   42.0620   78.3080   61.8630 C   0  0  0  0  0  0  0  0  0  0  0  0
   42.8230   79.5960   61.9440 C   0  0  0  0  0  0  0  0  0  0  0  0
   42.4380   80.6380   60.9540 C   0  0  2  0  0  0  0  0  0  0  0  0
   43.0240   81.9440   61.4260 C   0  0  0  0  0  0  0  0  0  0  0  0
   44.0110   82.5890   60.7250 C   0  0  0  0  0  0  0  0  0  0  0  0
   44.4880   83.7980   61.2520 C   0  0  0  0  0  0  0  0  0  0  0  0
   43.9930   84.3050   62.4040 N   0  0  0  0  0  0  0  0  0  0  0  0
   43.0160   83.6420   63.0760 C   0  0  0  0  0  0  0  0  0  0  0  0
   42.5390   82.4770   62.5910 N   0  0  0  0  0  0  0  0  0  0  0  0
   42.4920   84.1680   64.2840 N   0  0  0  0  0  0  0  0  0  0  0  0
   41.1050   84.2050   64.5200 C   0  0  0  0  0  0  0  0  0  0  0  0
   40.3320   83.3220   63.9420 N   0  0  0  0  0  0  0  0  0  0  0  0
   40.5800   85.2210   65.3950 N   0  0  0  0  0  0  0  0  0  0  0  0
   39.2950   83.3680   64.1440 H   0  0  0  0  0  0  0  0  0  0  0  0
   45.5350   84.5040   60.5290 C   0  0  0  0  0  0  0  0  0  0  0  0
   45.0450   85.2200   59.2710 C   0  0  0  0  0  0  0  0  0  0  0  0
   46.1300   86.2010   58.9070 C   0  0  0  0  0  0  0  0  0  0  0  0
   47.4990   85.6380   58.8160 C   0  0  0  0  0  0  0  0  0  0  0  0
   47.8260   84.5300   59.7670 C   0  0  0  0  0  0  0  0  0  0  0  0
   46.6640   83.6210   60.0610 C   0  0  0  0  0  0  0  0  0  0  0  0
   40.6540   84.0284   57.6460 H   0  0  0  0  0  0  0  0  0  0  0  0
   39.1272   85.4091   59.0518 H   0  0  0  0  0  0  0  0  0  0  0  0
   38.5110   84.5333   61.3391 H   0  0  0  0  0  0  0  0  0  0  0  0
   39.7661   79.9046   62.1982 H   0  0  0  0  0  0  0  0  0  0  0  0
   39.2611   79.7643   60.4715 H   0  0  0  0  0  0  0  0  0  0  0  0
   40.1145   77.6213   61.4263 H   0  0  0  0  0  0  0  0  0  0  0  0
   41.0866   78.2514   60.0123 H   0  0  0  0  0  0  0  0  0  0  0  0
   41.8016   77.9952   62.8849 H   0  0  0  0  0  0  0  0  0  0  0  0
   42.7142   77.5845   61.3519 H   0  0  0  0  0  0  0  0  0  0  0  0
   42.6727   80.0143   62.9502 H   0  0  0  0  0  0  0  0  0  0  0  0
   43.8687   79.3403   61.7179 H   0  0  0  0  0  0  0  0  0  0  0  0
   42.8196   80.3296   59.9695 H   0  0  0  0  0  0  0  0  0  0  0  0
   44.4119   82.1750   59.7880 H   0  0  0  0  0  0  0  0  0  0  0  0
   43.1373   84.5291   65.0009 H   0  0  0  0  0  0  0  0  0  0  0  0
   39.5682   85.2670   65.5820 H   0  0  0  0  0  0  0  0  0  0  0  0
   41.2163   85.9018   65.8338 H   0  0  0  0  0  0  0  0  0  0  0  0
   45.8820   85.2213   61.2873 H   0  0  0  0  0  0  0  0  0  0  0  0
   44.8916   84.4985   58.4550 H   0  0  0  0  0  0  0  0  0  0  0  0
   44.0832   85.7256   59.4420 H   0  0  0  0  0  0  0  0  0  0  0  0
   45.8778   86.6371   57.9291 H   0  0  0  0  0  0  0  0  0  0  0  0
   46.1601   86.9341   59.7266 H   0  0  0  0  0  0  0  0  0  0  0  0
   47.6359   85.2538   57.7944 H   0  0  0  0  0  0  0  0  0  0  0  0
   48.1737   86.4639   59.0856 H   0  0  0  0  0  0  0  0  0  0  0  0
   48.6367   83.9272   59.3319 H   0  0  0  0  0  0  0  0  0  0  0  0
   48.1153   84.9991   60.7190 H   0  0  0  0  0  0  0  0  0  0  0  0
   46.3684   83.0765   59.1521 H   0  0  0  0  0  0  0  0  0  0  0  0
   46.9272   82.8747   60.8250 H   0  0  0  0  0  0  0  0  0  0  0  0
  1  6  2  0
  1  2  1  0
  2  3  2  0
  3  4  1  0
  5  7  1  0
  5  4  2  0
  6  5  1  0
  7 12  1  0
  7  8  1  0
  9  8  1  0
  9 10  1  0
 10 11  1  0
 12 13  1  0
 12 11  1  0
 13 18  2  0
 14 15  2  0
 14 13  1  0
 15 16  1  0
 16 17  2  0
 17 19  1  0
 18 17  1  0
 19 20  1  0
 20 22  1  0
 21 23  1  0
 21 20  2  0
 24 15  1  0
 25 24  1  0
 26 25  1  0
 27 26  1  0
 27 28  1  0
 28 29  1  0
 29 24  1  0
  1 30  1  0
  2 31  1  0
  3 32  1  0
  8 33  1  0
  8 34  1  0
  9 35  1  0
  9 36  1  0
 10 37  1  0
 10 38  1  0
 11 39  1  0
 11 40  1  0
 12 41  1  6
 14 42  1  0
 19 43  1  0
 22 44  1  0
 22 45  1  0
 24 46  1  0
 25 47  1  0
 25 48  1  0
 26 49  1  0
 26 50  1  0
 27 51  1  0
 27 52  1  0
 28 53  1  0
 28 54  1  0
 29 55  1  0
 29 56  1  0
M  END
>  <Score>  (1) 
-7.02257

$$$$
