
     RDKit          3D

 44 48  0  0  0  0  0  0  0  0999 V2000
   40.9340   81.6620   56.3660 C   0  0  0  0  0  0  0  0  0  0  0  0
   40.7110   81.4190   57.7200 C   0  0  0  0  0  0  0  0  0  0  0  0
   39.6640   80.5710   58.0530 C   0  0  0  0  0  0  0  0  0  0  0  0
   38.9250   80.0340   57.0320 N   0  0  0  0  0  0  0  0  0  0  0  0
   39.1650   80.2870   55.7590 C   0  0  0  0  0  0  0  0  0  0  0  0
   40.1930   81.1220   55.4070 N   0  0  0  0  0  0  0  0  0  0  0  0
   41.5050   81.9960   58.8060 C   0  0  0  0  0  0  0  0  0  0  0  0
   42.8290   82.0150   59.1000 N   0  0  0  0  0  0  0  0  0  0  0  0
   42.9890   82.6890   60.2160 O   0  0  0  0  0  0  0  0  0  0  0  0
   41.8610   83.1140   60.6760 C   0  0  0  0  0  0  0  0  0  0  0  0
   40.9340   82.6870   59.8040 N   0  0  0  0  0  0  0  0  0  0  0  0
   41.6230   83.8690   61.8440 N   0  0  0  0  0  0  0  0  0  0  0  0
   42.7110   84.5490   62.5100 C   0  0  0  0  0  0  0  0  0  0  0  0
   42.6030   84.3300   64.0060 C   0  0  0  0  0  0  0  0  0  0  0  0
   41.2370   84.5290   64.4830 N   0  0  0  0  0  0  0  0  0  0  0  0
   40.3620   83.5550   63.8430 C   0  0  0  0  0  0  0  0  0  0  0  0
   40.2620   83.9700   62.3930 C   0  0  0  0  0  0  0  0  0  0  0  0
   38.3460   79.6880   54.7140 C   0  0  0  0  0  0  0  0  0  0  0  0
   37.7500   78.4670   54.8670 C   0  0  0  0  0  0  0  0  0  0  0  0
   36.9830   77.9490   53.8400 C   0  0  0  0  0  0  0  0  0  0  0  0
   36.8580   78.6890   52.7110 N   0  0  0  0  0  0  0  0  0  0  0  0
   37.4330   79.8920   52.5360 C   0  0  0  0  0  0  0  0  0  0  0  0
   38.1670   80.3520   53.5620 N   0  0  0  0  0  0  0  0  0  0  0  0
   37.2860   80.6480   51.3410 N   0  0  0  0  0  0  0  0  0  0  0  0
   38.0070   81.7340   51.0680 N   0  0  0  0  0  0  0  0  0  0  0  0
   37.6720   82.2540   49.8880 C   0  0  0  0  0  0  0  0  0  0  0  0
   36.6750   81.4280   49.4000 C   0  0  0  0  0  0  0  0  0  0  0  0
   36.4490   80.4350   50.3180 C   0  0  0  0  0  0  0  0  0  0  0  0
   41.7597   82.3301   56.0801 H   0  0  0  0  0  0  0  0  0  0  0  0
   39.4348   80.3375   59.1032 H   0  0  0  0  0  0  0  0  0  0  0  0
   43.6697   84.1483   62.1490 H   0  0  0  0  0  0  0  0  0  0  0  0
   42.6586   85.6259   62.2922 H   0  0  0  0  0  0  0  0  0  0  0  0
   42.9160   83.3016   64.2394 H   0  0  0  0  0  0  0  0  0  0  0  0
   43.2520   85.0627   64.5079 H   0  0  0  0  0  0  0  0  0  0  0  0
   41.2063   84.4014   65.5046 H   0  0  0  0  0  0  0  0  0  0  0  0
   40.7918   82.5456   63.9224 H   0  0  0  0  0  0  0  0  0  0  0  0
   39.3723   83.5280   64.3223 H   0  0  0  0  0  0  0  0  0  0  0  0
   39.8955   85.0043   62.3165 H   0  0  0  0  0  0  0  0  0  0  0  0
   39.5577   83.3310   61.8402 H   0  0  0  0  0  0  0  0  0  0  0  0
   37.8799   77.9006   55.8010 H   0  0  0  0  0  0  0  0  0  0  0  0
   36.4910   76.9698   53.9357 H   0  0  0  0  0  0  0  0  0  0  0  0
   38.0963   83.1470   49.4059 H   0  0  0  0  0  0  0  0  0  0  0  0
   36.1527   81.5476   48.4393 H   0  0  0  0  0  0  0  0  0  0  0  0
   35.7180   79.6177   50.2305 H   0  0  0  0  0  0  0  0  0  0  0  0
  1  2  2  0
  2  3  1  0
  2  7  1  0
  4  3  2  0
  5  4  1  0
  6  5  2  0
  6  1  1  0
  7  8  2  0
  7 11  1  0
  8  9  1  0
  9 10  1  0
 10 12  1  0
 11 10  2  0
 12 17  1  0
 12 13  1  0
 13 14  1  0
 14 15  1  0
 16 15  1  0
 17 16  1  0
 18 19  2  0
 18  5  1  0
 20 19  1  0
 21 20  2  0
 22 21  1  0
 22 23  2  0
 23 18  1  0
 24 22  1  0
 25 24  1  0
 26 25  2  0
 27 26  1  0
 27 28  2  0
 28 24  1  0
  1 29  1  0
  3 30  1  0
 13 31  1  0
 13 32  1  0
 14 33  1  0
 14 34  1  0
 15 35  1  0
 16 36  1  0
 16 37  1  0
 17 38  1  0
 17 39  1  0
 19 40  1  0
 20 41  1  0
 26 42  1  0
 27 43  1  0
 28 44  1  0
M  END
>  <Score>  (1) 
-7.22557

$$$$
