
     RDKit          3D

 45 49  0  0  0  0  0  0  0  0999 V2000
   40.5560   80.0090   60.6470 C   0  0  0  0  0  0  0  0  0  0  0  0
   41.7140   80.2140   61.4100 C   0  0  0  0  0  0  0  0  0  0  0  0
   42.3500   79.0760   61.8820 C   0  0  0  0  0  0  0  0  0  0  0  0
   41.8340   77.8690   61.5890 N   0  0  0  0  0  0  0  0  0  0  0  0
   40.7320   77.7010   60.8600 C   0  0  0  0  0  0  0  0  0  0  0  0
   40.1020   78.7620   60.3950 N   0  0  0  0  0  0  0  0  0  0  0  0
   42.1970   81.4970   61.6770 N   0  0  0  0  0  0  0  0  0  0  0  0
   43.2660   82.0390   61.0410 C   0  0  0  0  0  0  0  0  0  0  0  0
   43.4870   83.2920   61.5190 N   0  0  0  0  0  0  0  0  0  0  0  0
   42.5700   83.5440   62.4500 C   0  0  0  0  0  0  0  0  0  0  0  0
   42.3290   84.6330   63.2530 C   0  0  0  0  0  0  0  0  0  0  0  0
   41.2700   84.5470   64.0930 N   0  0  0  0  0  0  0  0  0  0  0  0
   40.4990   83.4880   64.1940 C   0  0  0  0  0  0  0  0  0  0  0  0
   40.7610   82.4370   63.4160 N   0  0  0  0  0  0  0  0  0  0  0  0
   41.7760   82.4120   62.5320 C   0  0  0  0  0  0  0  0  0  0  0  0
   40.2920   76.3200   60.6250 C   0  0  0  0  0  0  0  0  0  0  0  0
   38.8810   76.1570   60.1880 C   0  0  0  0  0  0  0  0  0  0  0  0
   38.8160   75.6580   58.7810 C   0  0  0  0  0  0  0  0  0  0  0  0
   39.2160   74.3850   58.4450 C   0  0  0  0  0  0  0  0  0  0  0  0
   39.1390   73.9620   57.1220 C   0  0  0  0  0  0  0  0  0  0  0  0
   38.6530   74.9070   56.2690 C   0  0  0  0  0  0  0  0  0  0  0  0
   38.2530   76.1730   56.5900 C   0  0  0  0  0  0  0  0  0  0  0  0
   38.3450   76.5420   57.8920 N   0  0  0  0  0  0  0  0  0  0  0  0
   37.7550   77.0870   55.6150 N   0  0  0  0  0  0  0  0  0  0  0  0
   37.0030   76.6190   54.6230 N   0  0  0  0  0  0  0  0  0  0  0  0
   36.6210   77.6100   53.7970 C   0  0  0  0  0  0  0  0  0  0  0  0
   37.1630   78.7700   54.2960 C   0  0  0  0  0  0  0  0  0  0  0  0
   37.8670   78.4160   55.4310 C   0  0  0  0  0  0  0  0  0  0  0  0
   40.0092   80.8760   60.2478 H   0  0  0  0  0  0  0  0  0  0  0  0
   43.2643   79.1592   62.4879 H   0  0  0  0  0  0  0  0  0  0  0  0
   43.8608   81.5420   60.2605 H   0  0  0  0  0  0  0  0  0  0  0  0
   43.2273   84.8010   63.8653 H   0  0  0  0  0  0  0  0  0  0  0  0
   42.0840   85.4531   62.5620 H   0  0  0  0  0  0  0  0  0  0  0  0
   39.6581   83.4687   64.9028 H   0  0  0  0  0  0  0  0  0  0  0  0
   40.1585   81.6054   63.4952 H   0  0  0  0  0  0  0  0  0  0  0  0
   40.9385   75.8874   59.8472 H   0  0  0  0  0  0  0  0  0  0  0  0
   40.3639   75.8134   61.5988 H   0  0  0  0  0  0  0  0  0  0  0  0
   38.3794   75.4358   60.8500 H   0  0  0  0  0  0  0  0  0  0  0  0
   38.3807   77.1353   60.2388 H   0  0  0  0  0  0  0  0  0  0  0  0
   39.5957   73.7036   59.2206 H   0  0  0  0  0  0  0  0  0  0  0  0
   39.4426   72.9568   56.7944 H   0  0  0  0  0  0  0  0  0  0  0  0
   38.5745   74.6200   55.2100 H   0  0  0  0  0  0  0  0  0  0  0  0
   35.9962   77.5109   52.8971 H   0  0  0  0  0  0  0  0  0  0  0  0
   37.0573   79.7807   53.8750 H   0  0  0  0  0  0  0  0  0  0  0  0
   38.4272   79.1068   56.0782 H   0  0  0  0  0  0  0  0  0  0  0  0
  1  2  2  0
  2  7  1  0
  2  3  1  0
  4  3  2  0
  5  4  1  0
  6  1  1  0
  6  5  2  0
  7 15  1  0
  8  9  2  0
  8  7  1  0
  9 10  1  0
 10 15  2  0
 10 11  1  0
 11 12  1  0
 12 13  2  0
 14 13  1  0
 15 14  1  0
 16  5  1  0
 17 16  1  0
 18 17  1  0
 19 18  2  0
 20 19  1  0
 21 22  1  0
 21 20  2  0
 22 23  2  0
 23 18  1  0
 24 22  1  0
 25 24  1  0
 26 27  1  0
 26 25  2  0
 27 28  2  0
 28 24  1  0
  1 29  1  0
  3 30  1  0
  8 31  1  0
 11 32  1  0
 11 33  1  0
 13 34  1  0
 14 35  1  0
 16 36  1  0
 16 37  1  0
 17 38  1  0
 17 39  1  0
 19 40  1  0
 20 41  1  0
 21 42  1  0
 26 43  1  0
 27 44  1  0
 28 45  1  0
M  END
>  <Score>  (1) 
-7.13512

$$$$
