
     RDKit          3D

 46 50  0  0  1  0  0  0  0  0999 V2000
   41.3820   81.7580   59.4290 C   0  0  1  0  0  0  0  0  0  0  0  0
   42.1030   80.6330   60.0470 C   0  0  0  0  0  0  0  0  0  0  0  0
   41.4630   79.2850   59.9080 C   0  0  0  0  0  0  0  0  0  0  0  0
   40.7430   79.0250   58.6380 C   0  0  2  0  0  0  0  0  0  0  0  0
   40.0200   80.1650   58.0150 C   0  0  0  0  0  0  0  0  0  0  0  0
   40.7150   81.4550   58.1220 C   0  0  0  0  0  0  0  0  0  0  0  0
   39.8150   77.9350   58.8460 N   0  0  0  0  0  0  0  0  0  0  0  0
   39.8230   76.9910   59.7870 C   0  0  0  0  0  0  0  0  0  0  0  0
   38.7490   76.1300   59.6480 C   0  0  0  0  0  0  0  0  0  0  0  0
   38.0670   76.5820   58.5720 N   0  0  0  0  0  0  0  0  0  0  0  0
   38.7140   77.6540   58.1080 C   0  0  0  0  0  0  0  0  0  0  0  0
   38.1240   78.2550   56.9630 N   0  0  0  0  0  0  0  0  0  0  0  0
   37.7280   79.5380   56.6870 C   0  0  0  0  0  0  0  0  0  0  0  0
   37.2360   79.5920   55.4360 N   0  0  0  0  0  0  0  0  0  0  0  0
   37.2890   78.3770   54.8590 C   0  0  0  0  0  0  0  0  0  0  0  0
   36.9280   77.8760   53.6250 C   0  0  0  0  0  0  0  0  0  0  0  0
   37.1190   76.5640   53.3540 N   0  0  0  0  0  0  0  0  0  0  0  0
   37.6560   75.7640   54.2810 C   0  0  0  0  0  0  0  0  0  0  0  0
   38.0010   76.2630   55.4730 N   0  0  0  0  0  0  0  0  0  0  0  0
   37.8430   77.5540   55.8200 C   0  0  0  0  0  0  0  0  0  0  0  0
   36.3560   78.7280   52.6370 N   0  0  0  0  0  0  0  0  0  0  0  0
   40.3020   82.1070   61.6580 C   0  0  0  0  0  0  0  0  0  0  0  0
   40.4920   82.5010   60.3530 C   0  0  0  0  0  0  0  0  0  0  0  0
   39.7960   83.6340   59.9620 C   0  0  0  0  0  0  0  0  0  0  0  0
   39.0050   84.2610   60.8440 N   0  0  0  0  0  0  0  0  0  0  0  0
   38.8410   83.8540   62.1050 C   0  0  0  0  0  0  0  0  0  0  0  0
   39.5000   82.7530   62.5310 N   0  0  0  0  0  0  0  0  0  0  0  0
   42.2030   82.4453   59.1768 H   0  0  0  0  0  0  0  0  0  0  0  0
   43.1011   80.5803   59.5877 H   0  0  0  0  0  0  0  0  0  0  0  0
   42.1139   80.8456   61.1262 H   0  0  0  0  0  0  0  0  0  0  0  0
   42.2543   78.5271   60.0053 H   0  0  0  0  0  0  0  0  0  0  0  0
   40.6941   79.2441   60.6936 H   0  0  0  0  0  0  0  0  0  0  0  0
   41.5400   78.7910   57.9168 H   0  0  0  0  0  0  0  0  0  0  0  0
   39.0400   80.2603   58.5054 H   0  0  0  0  0  0  0  0  0  0  0  0
   39.9417   79.9384   56.9414 H   0  0  0  0  0  0  0  0  0  0  0  0
   41.4881   81.4821   57.3400 H   0  0  0  0  0  0  0  0  0  0  0  0
   39.9269   82.2154   58.0186 H   0  0  0  0  0  0  0  0  0  0  0  0
   40.5867   76.9072   60.5743 H   0  0  0  0  0  0  0  0  0  0  0  0
   38.5027   75.2629   60.2784 H   0  0  0  0  0  0  0  0  0  0  0  0
   37.8010   80.3895   57.3795 H   0  0  0  0  0  0  0  0  0  0  0  0
   37.8138   74.6973   54.0637 H   0  0  0  0  0  0  0  0  0  0  0  0
   36.0896   78.3452   51.7186 H   0  0  0  0  0  0  0  0  0  0  0  0
   36.2088   79.7268   52.8410 H   0  0  0  0  0  0  0  0  0  0  0  0
   40.8356   81.2121   62.0108 H   0  0  0  0  0  0  0  0  0  0  0  0
   39.8921   84.0160   58.9350 H   0  0  0  0  0  0  0  0  0  0  0  0
   38.1790   84.4067   62.7878 H   0  0  0  0  0  0  0  0  0  0  0  0
  1  2  1  0
  1 23  1  0
  3  2  1  0
  4  7  1  0
  4  3  1  0
  5  6  1  0
  5  4  1  0
  6  1  1  0
  7  8  1  0
  9  8  2  0
 10  9  1  0
 11 10  2  0
 11  7  1  0
 12 11  1  0
 13 12  1  0
 14 13  2  0
 15 14  1  0
 15 20  2  0
 16 15  1  0
 17 16  2  0
 17 18  1  0
 18 19  2  0
 19 20  1  0
 20 12  1  0
 21 16  1  0
 22 27  2  0
 23 22  1  0
 24 23  2  0
 24 25  1  0
 25 26  2  0
 26 27  1  0
  1 28  1  6
  2 29  1  0
  2 30  1  0
  3 31  1  0
  3 32  1  0
  4 33  1  6
  5 34  1  0
  5 35  1  0
  6 36  1  0
  6 37  1  0
  8 38  1  0
  9 39  1  0
 13 40  1  0
 18 41  1  0
 21 42  1  0
 21 43  1  0
 22 44  1  0
 24 45  1  0
 26 46  1  0
M  END
>  <Score>  (1) 
-7.29276

$$$$
