
     RDKit          3D

 43 46  0  0  1  0  0  0  0  0999 V2000
   40.4570   77.4070   59.0860 C   0  0  1  0  0  0  0  0  0  0  0  0
   40.1580   80.4720   61.1300 C   0  0  0  0  0  0  0  0  0  0  0  0
   40.0860   79.6750   60.0170 C   0  0  0  0  0  0  0  0  0  0  0  0
   40.4750   78.3780   60.2180 C   0  0  0  0  0  0  0  0  0  0  0  0
   40.8970   77.8490   61.3530 N   0  0  0  0  0  0  0  0  0  0  0  0
   40.9630   78.6650   62.4600 C   0  0  0  0  0  0  0  0  0  0  0  0
   40.5870   79.9590   62.3100 N   0  0  0  0  0  0  0  0  0  0  0  0
   39.7750   81.8770   61.0790 C   0  0  0  0  0  0  0  0  0  0  0  0
   40.0550   82.5510   59.9040 C   0  0  0  0  0  0  0  0  0  0  0  0
   39.7070   83.8890   59.8160 C   0  0  0  0  0  0  0  0  0  0  0  0
   39.1110   84.4860   60.8740 N   0  0  0  0  0  0  0  0  0  0  0  0
   38.8440   83.8020   62.0260 C   0  0  0  0  0  0  0  0  0  0  0  0
   39.1870   82.4870   62.1080 N   0  0  0  0  0  0  0  0  0  0  0  0
   41.5570   76.3770   59.2660 C   0  0  0  0  0  0  0  0  0  0  0  0
   39.0980   76.7330   59.1280 C   0  0  0  0  0  0  0  0  0  0  0  0
   38.2550   77.0940   57.9830 C   0  0  0  0  0  0  0  0  0  0  0  0
   36.9740   76.7340   57.8560 N   0  0  0  0  0  0  0  0  0  0  0  0
   36.5360   77.2060   56.7410 O   0  0  0  0  0  0  0  0  0  0  0  0
   37.5040   77.8680   56.1380 C   0  0  0  0  0  0  0  0  0  0  0  0
   38.6030   77.8040   56.9190 N   0  0  0  0  0  0  0  0  0  0  0  0
   37.5240   78.5750   54.8780 N   0  0  0  0  0  0  0  0  0  0  0  0
   37.4620   77.8370   53.7530 C   0  0  0  0  0  0  0  0  0  0  0  0
   37.4850   78.5790   52.5940 C   0  0  0  0  0  0  0  0  0  0  0  0
   37.5660   79.9570   52.5840 C   0  0  0  0  0  0  0  0  0  0  0  0
   37.5890   80.7040   51.3800 N   0  0  0  0  0  0  0  0  0  0  0  0
   37.6230   80.5790   53.7740 N   0  0  0  0  0  0  0  0  0  0  0  0
   37.6040   79.9180   54.9590 C   0  0  0  0  0  0  0  0  0  0  0  0
   37.6580   80.4970   56.0740 O   0  0  0  0  0  0  0  0  0  0  0  0
   40.6259   77.9094   58.1221 H   0  0  0  0  0  0  0  0  0  0  0  0
   39.7431   80.0478   59.0406 H   0  0  0  0  0  0  0  0  0  0  0  0
   41.3084   78.2809   63.4312 H   0  0  0  0  0  0  0  0  0  0  0  0
   40.5414   82.0379   59.0613 H   0  0  0  0  0  0  0  0  0  0  0  0
   39.9125   84.4588   58.8978 H   0  0  0  0  0  0  0  0  0  0  0  0
   38.3590   84.3063   62.8748 H   0  0  0  0  0  0  0  0  0  0  0  0
   41.7330   76.2122   60.3393 H   0  0  0  0  0  0  0  0  0  0  0  0
   41.2538   75.4305   58.7946 H   0  0  0  0  0  0  0  0  0  0  0  0
   42.4815   76.7417   58.7946 H   0  0  0  0  0  0  0  0  0  0  0  0
   39.2450   75.6429   59.1278 H   0  0  0  0  0  0  0  0  0  0  0  0
   38.5852   77.0724   60.0401 H   0  0  0  0  0  0  0  0  0  0  0  0
   37.3986   76.7388   53.7599 H   0  0  0  0  0  0  0  0  0  0  0  0
   37.4366   78.0494   51.6311 H   0  0  0  0  0  0  0  0  0  0  0  0
   37.6501   81.7317   51.4126 H   0  0  0  0  0  0  0  0  0  0  0  0
   37.5446   80.2193   50.4723 H   0  0  0  0  0  0  0  0  0  0  0  0
  1 15  1  0
  1 14  1  0
  1  4  1  0
  2  7  2  0
  3  4  2  0
  3  2  1  0
  4  5  1  0
  5  6  2  0
  7  6  1  0
  8  2  1  0
  8 13  1  0
  9  8  2  0
 10  9  1  0
 10 11  2  0
 11 12  1  0
 12 13  2  0
 16 15  1  0
 17 16  2  0
 18 17  1  0
 19 18  1  0
 19 20  2  0
 20 16  1  0
 21 27  1  0
 21 19  1  0
 22 21  1  0
 23 22  2  0
 24 23  1  0
 24 26  2  0
 25 24  1  0
 26 27  1  0
 27 28  2  0
  1 29  1  6
  3 30  1  0
  6 31  1  0
  9 32  1  0
 10 33  1  0
 12 34  1  0
 14 35  1  0
 14 36  1  0
 14 37  1  0
 15 38  1  0
 15 39  1  0
 22 40  1  0
 23 41  1  0
 25 42  1  0
 25 43  1  0
M  END
>  <Score>  (1) 
-7.48662

$$$$
