
     RDKit          3D

 42 45  0  0  0  0  0  0  0  0999 V2000
   40.8630   78.7990   60.1380 C   0  0  0  0  0  0  0  0  0  0  0  0
   40.4040   77.6060   60.7020 C   0  0  0  0  0  0  0  0  0  0  0  0
   39.4800   77.0290   59.8400 C   0  0  0  0  0  0  0  0  0  0  0  0
   39.4260   77.9160   58.7790 C   0  0  0  0  0  0  0  0  0  0  0  0
   40.2340   78.9000   59.0080 O   0  0  0  0  0  0  0  0  0  0  0  0
   38.5820   77.7570   57.5890 C   0  0  0  0  0  0  0  0  0  0  0  0
   37.3960   77.0800   57.6760 C   0  0  0  0  0  0  0  0  0  0  0  0
   36.5560   76.9010   56.5750 C   0  0  0  0  0  0  0  0  0  0  0  0
   37.0270   77.4630   55.4070 C   0  0  0  0  0  0  0  0  0  0  0  0
   38.2020   78.1400   55.2990 C   0  0  0  0  0  0  0  0  0  0  0  0
   38.9750   78.2800   56.4070 N   0  0  0  0  0  0  0  0  0  0  0  0
   38.7030   78.7260   54.1020 N   0  0  0  0  0  0  0  0  0  0  0  0
   38.1790   78.3220   52.9390 N   0  0  0  0  0  0  0  0  0  0  0  0
   38.7710   78.9810   51.9210 C   0  0  0  0  0  0  0  0  0  0  0  0
   39.6920   79.8130   52.5250 C   0  0  0  0  0  0  0  0  0  0  0  0
   39.6630   79.6650   53.8970 C   0  0  0  0  0  0  0  0  0  0  0  0
   43.1000   79.1780   61.2180 C   0  0  0  0  0  0  0  0  0  0  0  0
   41.8520   79.6370   60.8160 C   0  0  0  0  0  0  0  0  0  0  0  0
   41.5280   80.9560   61.0720 C   0  0  0  0  0  0  0  0  0  0  0  0
   42.4570   81.7510   61.7110 N   0  0  0  0  0  0  0  0  0  0  0  0
   43.6600   81.2420   62.0780 C   0  0  0  0  0  0  0  0  0  0  0  0
   43.9680   79.9650   61.8290 N   0  0  0  0  0  0  0  0  0  0  0  0
   44.5530   82.2320   62.7620 C   0  0  0  0  0  0  0  0  0  0  0  0
   45.4440   81.5110   63.6000 F   0  0  0  0  0  0  0  0  0  0  0  0
   43.8460   83.0480   63.6230 F   0  0  0  0  0  0  0  0  0  0  0  0
   45.2260   82.9390   61.8350 F   0  0  0  0  0  0  0  0  0  0  0  0
   40.2600   81.5840   60.7110 C   0  0  0  0  0  0  0  0  0  0  0  0
   40.0060   81.8410   59.4980 O   0  0  0  0  0  0  0  0  0  0  0  0
   39.3330   81.9020   61.6840 O   0  0  0  0  0  0  0  0  0  0  0  0
   39.2640   83.2400   62.1960 C   0  0  0  0  0  0  0  0  0  0  0  0
   39.9550   83.2640   63.3940 F   0  0  0  0  0  0  0  0  0  0  0  0
   40.0180   84.0130   61.3290 F   0  0  0  0  0  0  0  0  0  0  0  0
   38.0000   83.7440   62.2560 F   0  0  0  0  0  0  0  0  0  0  0  0
   40.7222   77.1915   61.6700 H   0  0  0  0  0  0  0  0  0  0  0  0
   38.9230   76.0894   59.9700 H   0  0  0  0  0  0  0  0  0  0  0  0
   37.0937   76.6620   58.6475 H   0  0  0  0  0  0  0  0  0  0  0  0
   35.6009   76.3585   56.6342 H   0  0  0  0  0  0  0  0  0  0  0  0
   36.4111   77.3567   54.5018 H   0  0  0  0  0  0  0  0  0  0  0  0
   38.5648   78.8778   50.8454 H   0  0  0  0  0  0  0  0  0  0  0  0
   40.3592   80.5013   51.9855 H   0  0  0  0  0  0  0  0  0  0  0  0
   40.2744   80.1857   54.6487 H   0  0  0  0  0  0  0  0  0  0  0  0
   43.3732   78.1306   61.0223 H   0  0  0  0  0  0  0  0  0  0  0  0
  1  2  2  0
  1 18  1  0
  3  2  1  0
  4  5  1  0
  4  3  2  0
  5  1  1  0
  6  7  2  0
  6  4  1  0
  8  7  1  0
  9  8  2  0
 10  9  1  0
 10 11  2  0
 11  6  1  0
 12 10  1  0
 13 12  1  0
 14 15  1  0
 14 13  2  0
 15 16  2  0
 16 12  1  0
 17 22  2  0
 18 19  2  0
 18 17  1  0
 19 20  1  0
 20 21  2  0
 21 23  1  0
 22 21  1  0
 23 24  1  0
 23 25  1  0
 26 23  1  0
 27 19  1  0
 27 29  1  0
 28 27  2  0
 29 30  1  0
 30 33  1  0
 30 31  1  0
 32 30  1  0
  2 34  1  0
  3 35  1  0
  7 36  1  0
  8 37  1  0
  9 38  1  0
 14 39  1  0
 15 40  1  0
 16 41  1  0
 17 42  1  0
M  END
>  <Score>  (1) 
-7.07488

$$$$
