
     RDKit          3D

 43 47  0  0  0  0  0  0  0  0999 V2000
   41.3150   81.8270   61.7700 C   0  0  0  0  0  0  0  0  0  0  0  0
   41.1620   82.6450   60.6500 C   0  0  0  0  0  0  0  0  0  0  0  0
   40.6480   83.9560   60.8180 C   0  0  0  0  0  0  0  0  0  0  0  0
   40.3310   84.3400   62.0920 N   0  0  0  0  0  0  0  0  0  0  0  0
   40.5010   83.5060   63.1340 C   0  0  0  0  0  0  0  0  0  0  0  0
   40.9830   82.2720   62.9890 N   0  0  0  0  0  0  0  0  0  0  0  0
   40.1340   84.0170   64.4160 N   0  0  0  0  0  0  0  0  0  0  0  0
   41.8290   80.5090   61.6270 N   0  0  0  0  0  0  0  0  0  0  0  0
   43.0800   80.1020   61.9410 C   0  0  0  0  0  0  0  0  0  0  0  0
   43.4470   78.7940   61.7510 C   0  0  0  0  0  0  0  0  0  0  0  0
   42.5290   77.8740   61.2320 C   0  0  0  0  0  0  0  0  0  0  0  0
   42.8780   76.6740   61.0620 O   0  0  0  0  0  0  0  0  0  0  0  0
   41.3120   78.3330   60.9410 N   0  0  0  0  0  0  0  0  0  0  0  0
   40.9530   79.6250   61.1290 C   0  0  0  0  0  0  0  0  0  0  0  0
   39.7520   79.8650   60.7910 O   0  0  0  0  0  0  0  0  0  0  0  0
   40.4110   77.3480   60.4110 C   0  0  0  0  0  0  0  0  0  0  0  0
   39.7330   76.5230   61.2840 C   0  0  0  0  0  0  0  0  0  0  0  0
   38.9710   75.7120   60.5030 N   0  0  0  0  0  0  0  0  0  0  0  0
   39.1620   76.0140   59.2010 C   0  0  0  0  0  0  0  0  0  0  0  0
   38.6440   75.5060   58.0160 C   0  0  0  0  0  0  0  0  0  0  0  0
   39.0530   76.0510   56.8060 C   0  0  0  0  0  0  0  0  0  0  0  0
   39.9640   77.0850   56.7680 C   0  0  0  0  0  0  0  0  0  0  0  0
   40.5150   77.6320   57.9270 C   0  0  0  0  0  0  0  0  0  0  0  0
   40.0780   77.0590   59.1040 C   0  0  0  0  0  0  0  0  0  0  0  0
   40.4580   84.8500   59.7500 N   0  0  0  0  0  0  0  0  0  0  0  0
   39.2190   85.3400   59.6770 N   0  0  0  0  0  0  0  0  0  0  0  0
   39.1060   86.1770   58.6500 C   0  0  0  0  0  0  0  0  0  0  0  0
   40.3600   86.2020   58.0520 C   0  0  0  0  0  0  0  0  0  0  0  0
   41.1730   85.3730   58.7540 C   0  0  0  0  0  0  0  0  0  0  0  0
   41.4364   82.2779   59.6500 H   0  0  0  0  0  0  0  0  0  0  0  0
   40.2399   83.4284   65.2546 H   0  0  0  0  0  0  0  0  0  0  0  0
   39.7634   84.9742   64.5021 H   0  0  0  0  0  0  0  0  0  0  0  0
   43.8048   80.8215   62.3497 H   0  0  0  0  0  0  0  0  0  0  0  0
   44.4656   78.4674   62.0073 H   0  0  0  0  0  0  0  0  0  0  0  0
   39.7957   76.5215   62.3822 H   0  0  0  0  0  0  0  0  0  0  0  0
   38.3411   74.9760   60.8529 H   0  0  0  0  0  0  0  0  0  0  0  0
   37.9173   74.6805   58.0361 H   0  0  0  0  0  0  0  0  0  0  0  0
   38.6447   75.6524   55.8655 H   0  0  0  0  0  0  0  0  0  0  0  0
   40.2663   77.4921   55.7918 H   0  0  0  0  0  0  0  0  0  0  0  0
   41.2422   78.4570   57.9045 H   0  0  0  0  0  0  0  0  0  0  0  0
   38.2089   86.7325   58.3393 H   0  0  0  0  0  0  0  0  0  0  0  0
   40.6434   86.7897   57.1664 H   0  0  0  0  0  0  0  0  0  0  0  0
   42.2324   85.1690   58.5396 H   0  0  0  0  0  0  0  0  0  0  0  0
  1  6  2  0
  2  3  2  0
  2  1  1  0
  3  4  1  0
  4  5  2  0
  5  7  1  0
  6  5  1  0
  8  1  1  0
  8  9  1  0
 10  9  2  0
 11 10  1  0
 12 11  2  0
 13 14  1  0
 13 11  1  0
 14  8  1  0
 15 14  2  0
 16 13  1  0
 16 17  2  0
 18 17  1  0
 19 18  1  0
 20 19  2  0
 21 20  1  0
 22 21  2  0
 22 23  1  0
 23 24  2  0
 24 19  1  0
 24 16  1  0
 25  3  1  0
 26 25  1  0
 27 26  2  0
 28 27  1  0
 28 29  2  0
 29 25  1  0
  2 30  1  0
  7 31  1  0
  7 32  1  0
  9 33  1  0
 10 34  1  0
 17 35  1  0
 18 36  1  0
 20 37  1  0
 21 38  1  0
 22 39  1  0
 23 40  1  0
 27 41  1  0
 28 42  1  0
 29 43  1  0
M  END
>  <Score>  (1) 
-7.07303

$$$$
