
     RDKit          3D

 52 57  0  0  1  0  0  0  0  0999 V2000
   41.2520   78.6700   60.3980 C   0  0  0  0  0  0  0  0  0  0  0  0
   42.2120   79.0010   59.4500 C   0  0  0  0  0  0  0  0  0  0  0  0
   42.8690   77.9260   58.8500 C   0  0  0  0  0  0  0  0  0  0  0  0
   42.5480   76.6460   59.2100 C   0  0  0  0  0  0  0  0  0  0  0  0
   41.5770   76.3660   60.1660 C   0  0  0  0  0  0  0  0  0  0  0  0
   40.9580   77.4030   60.7310 N   0  0  0  0  0  0  0  0  0  0  0  0
   40.7090   81.8610   61.9870 N   0  0  0  0  0  0  0  0  0  0  0  0
   41.2830   80.5120   62.0710 C   0  0  0  0  0  0  0  0  0  0  0  0
   40.5140   79.7300   61.0850 C   0  0  1  0  0  0  0  0  0  0  0  0
   40.1100   80.7690   60.0530 C   0  0  0  0  0  0  0  0  0  0  0  0
   39.6520   81.8780   61.0230 C   0  0  0  0  0  0  0  0  0  0  0  0
   40.9430   84.5590   64.5680 C   0  0  0  0  0  0  0  0  0  0  0  0
   40.4310   83.4460   63.8930 C   0  0  0  0  0  0  0  0  0  0  0  0
   41.1370   82.9820   62.7480 C   0  0  0  0  0  0  0  0  0  0  0  0
   42.2320   83.6520   62.4160 N   0  0  0  0  0  0  0  0  0  0  0  0
   42.7130   84.7270   63.0820 C   0  0  0  0  0  0  0  0  0  0  0  0
   42.0550   85.1770   64.1680 N   0  0  0  0  0  0  0  0  0  0  0  0
   41.2860   74.9760   60.5040 C   0  0  0  0  0  0  0  0  0  0  0  0
   40.0960   74.3790   60.7110 C   0  0  0  0  0  0  0  0  0  0  0  0
   40.3390   73.0480   61.0030 C   0  0  0  0  0  0  0  0  0  0  0  0
   41.7030   72.9140   60.9540 C   0  0  0  0  0  0  0  0  0  0  0  0
   42.2350   74.0710   60.6560 O   0  0  0  0  0  0  0  0  0  0  0  0
   42.4130   71.6580   61.2000 C   0  0  0  0  0  0  0  0  0  0  0  0
   43.4480   71.4300   62.0940 C   0  0  0  0  0  0  0  0  0  0  0  0
   43.8510   70.1380   62.0410 N   0  0  0  0  0  0  0  0  0  0  0  0
   43.0840   69.5140   61.1140 C   0  0  0  0  0  0  0  0  0  0  0  0
   43.1370   68.1920   60.7230 C   0  0  0  0  0  0  0  0  0  0  0  0
   42.2430   67.7760   59.7450 C   0  0  0  0  0  0  0  0  0  0  0  0
   41.3460   68.6960   59.2120 C   0  0  0  0  0  0  0  0  0  0  0  0
   41.3070   70.0150   59.6140 C   0  0  0  0  0  0  0  0  0  0  0  0
   42.1990   70.4360   60.5930 C   0  0  0  0  0  0  0  0  0  0  0  0
   42.4399   80.0449   59.1887 H   0  0  0  0  0  0  0  0  0  0  0  0
   43.6429   78.1074   58.0896 H   0  0  0  0  0  0  0  0  0  0  0  0
   43.0754   75.8100   58.7273 H   0  0  0  0  0  0  0  0  0  0  0  0
   42.3516   80.5257   61.8103 H   0  0  0  0  0  0  0  0  0  0  0  0
   41.2207   80.0898   63.0848 H   0  0  0  0  0  0  0  0  0  0  0  0
   39.6974   79.2039   61.6012 H   0  0  0  0  0  0  0  0  0  0  0  0
   39.2916   80.4174   59.4075 H   0  0  0  0  0  0  0  0  0  0  0  0
   40.8875   81.0548   59.3293 H   0  0  0  0  0  0  0  0  0  0  0  0
   39.5838   82.8525   60.5173 H   0  0  0  0  0  0  0  0  0  0  0  0
   38.6507   81.7184   61.4494 H   0  0  0  0  0  0  0  0  0  0  0  0
   40.4127   84.9357   65.4551 H   0  0  0  0  0  0  0  0  0  0  0  0
   39.5131   82.9461   64.2359 H   0  0  0  0  0  0  0  0  0  0  0  0
   43.6309   85.2279   62.7406 H   0  0  0  0  0  0  0  0  0  0  0  0
   39.1093   74.8622   60.6576 H   0  0  0  0  0  0  0  0  0  0  0  0
   39.5979   72.2663   61.2262 H   0  0  0  0  0  0  0  0  0  0  0  0
   43.8824   72.1938   62.7557 H   0  0  0  0  0  0  0  0  0  0  0  0
   44.6013   69.7091   62.6013 H   0  0  0  0  0  0  0  0  0  0  0  0
   43.8603   67.4936   61.1692 H   0  0  0  0  0  0  0  0  0  0  0  0
   42.2442   66.7327   59.3964 H   0  0  0  0  0  0  0  0  0  0  0  0
   40.6397   68.3583   58.4393 H   0  0  0  0  0  0  0  0  0  0  0  0
   40.5864   70.7175   59.1698 H   0  0  0  0  0  0  0  0  0  0  0  0
  1  6  1  0
  1  9  1  0
  2  1  2  0
  3  4  2  0
  3  2  1  0
  4  5  1  0
  5 18  1  0
  5  6  2  0
  7  8  1  0
  7 14  1  0
  9  8  1  0
 10 11  1  0
 10  9  1  0
 11  7  1  0
 13 12  2  0
 14 13  1  0
 15 14  2  0
 15 16  1  0
 16 17  2  0
 17 12  1  0
 18 22  1  0
 18 19  2  0
 19 20  1  0
 21 20  2  0
 21 23  1  0
 22 21  1  0
 23 24  2  0
 25 24  1  0
 26 25  1  0
 27 26  2  0
 28 27  1  0
 29 30  1  0
 29 28  2  0
 30 31  2  0
 31 26  1  0
 31 23  1  0
  2 32  1  0
  3 33  1  0
  4 34  1  0
  8 35  1  0
  8 36  1  0
  9 37  1  1
 10 38  1  0
 10 39  1  0
 11 40  1  0
 11 41  1  0
 12 42  1  0
 13 43  1  0
 16 44  1  0
 19 45  1  0
 20 46  1  0
 24 47  1  0
 25 48  1  0
 27 49  1  0
 28 50  1  0
 29 51  1  0
 30 52  1  0
M  END
>  <Score>  (1) 
-7.36477

$$$$
