
     RDKit          3D

 39 43  0  0  1  0  0  0  0  0999 V2000
   41.1310   80.8230   61.3040 N   0  0  0  0  0  0  0  0  0  0  0  0
   42.1990   80.7310   62.1220 C   0  0  0  0  0  0  0  0  0  0  0  0
   42.6580   79.4500   62.1460 N   0  0  0  0  0  0  0  0  0  0  0  0
   41.8890   78.7120   61.3470 C   0  0  0  0  0  0  0  0  0  0  0  0
   41.8130   77.3910   60.9390 C   0  0  2  0  0  0  0  0  0  0  0  0
   40.8470   76.9700   60.0690 N   0  0  0  0  0  0  0  0  0  0  0  0
   39.9430   77.8300   59.5820 C   0  0  0  0  0  0  0  0  0  0  0  0
   40.0200   79.1030   59.9770 N   0  0  0  0  0  0  0  0  0  0  0  0
   40.9450   79.5800   60.8310 C   0  0  0  0  0  0  0  0  0  0  0  0
   38.9200   77.3760   58.6560 C   0  0  0  0  0  0  0  0  0  0  0  0
   38.1840   76.2160   58.7770 C   0  0  0  0  0  0  0  0  0  0  0  0
   37.3370   76.1540   57.7140 N   0  0  0  0  0  0  0  0  0  0  0  0
   37.5180   77.2440   56.9230 C   0  0  0  0  0  0  0  0  0  0  0  0
   36.9320   77.6720   55.7430 C   0  0  0  0  0  0  0  0  0  0  0  0
   37.3420   78.8690   55.1570 C   0  0  0  0  0  0  0  0  0  0  0  0
   38.3240   79.6520   55.7180 C   0  0  0  0  0  0  0  0  0  0  0  0
   38.8860   79.1950   56.8940 C   0  0  0  0  0  0  0  0  0  0  0  0
   38.5050   78.0120   57.5050 C   0  0  0  0  0  0  0  0  0  0  0  0
   40.4200   82.0240   61.0590 C   0  0  0  0  0  0  0  0  0  0  0  0
   40.4590   82.7640   59.8670 C   0  0  0  0  0  0  0  0  0  0  0  0
   39.7020   83.9250   59.7840 C   0  0  0  0  0  0  0  0  0  0  0  0
   38.9500   84.2950   60.8670 N   0  0  0  0  0  0  0  0  0  0  0  0
   38.9390   83.5590   61.9920 C   0  0  0  0  0  0  0  0  0  0  0  0
   39.6720   82.4330   62.0790 N   0  0  0  0  0  0  0  0  0  0  0  0
   42.7700   76.4870   61.4560 N   0  0  0  0  0  0  0  0  0  0  0  0
   42.6351   81.5681   62.6868 H   0  0  0  0  0  0  0  0  0  0  0  0
   42.4803   77.6138   60.0934 H   0  0  0  0  0  0  0  0  0  0  0  0
   39.3249   79.7648   59.6032 H   0  0  0  0  0  0  0  0  0  0  0  0
   38.2667   75.4753   59.5861 H   0  0  0  0  0  0  0  0  0  0  0  0
   36.6619   75.3967   57.5361 H   0  0  0  0  0  0  0  0  0  0  0  0
   36.1442   77.0683   55.2688 H   0  0  0  0  0  0  0  0  0  0  0  0
   36.8671   79.1961   54.2203 H   0  0  0  0  0  0  0  0  0  0  0  0
   38.6458   80.5955   55.2530 H   0  0  0  0  0  0  0  0  0  0  0  0
   39.6736   79.7994   57.3678 H   0  0  0  0  0  0  0  0  0  0  0  0
   41.0750   82.4319   59.0183 H   0  0  0  0  0  0  0  0  0  0  0  0
   39.7062   84.5343   58.8682 H   0  0  0  0  0  0  0  0  0  0  0  0
   38.3265   83.8792   62.8478 H   0  0  0  0  0  0  0  0  0  0  0  0
   42.7443   76.5113   62.4854 H   0  0  0  0  0  0  0  0  0  0  0  0
   42.5538   75.5343   61.1296 H   0  0  0  0  0  0  0  0  0  0  0  0
  1  2  1  0
  2  3  2  0
  4  3  1  0
  5  4  1  0
  5 25  1  0
  6  5  1  0
  7  8  1  0
  7  6  2  0
  8  9  1  0
  9  1  1  0
  9  4  2  0
 10 11  2  0
 10  7  1  0
 12 11  1  0
 13 18  2  0
 13 12  1  0
 14 13  1  0
 15 16  1  0
 15 14  2  0
 16 17  2  0
 17 18  1  0
 18 10  1  0
 19  1  1  0
 19 24  1  0
 20 19  2  0
 21 20  1  0
 21 22  2  0
 22 23  1  0
 23 24  2  0
  2 26  1  0
  5 27  1  6
  8 28  1  0
 11 29  1  0
 12 30  1  0
 14 31  1  0
 15 32  1  0
 16 33  1  0
 17 34  1  0
 20 35  1  0
 21 36  1  0
 23 37  1  0
 25 38  1  0
 25 39  1  0
M  END
>  <Score>  (1) 
-7.26415

$$$$
