
     RDKit          3D

 56 61  0  0  1  0  0  0  0  0999 V2000
   41.1650   80.5570   61.1800 C   0  0  0  0  0  0  0  0  0  0  0  0
   40.8560   83.1920   63.7030 C   0  0  0  0  0  0  0  0  0  0  0  0
   41.6340   84.2380   63.1810 C   0  0  0  0  0  0  0  0  0  0  0  0
   42.2690   84.0370   61.9520 C   0  0  0  0  0  0  0  0  0  0  0  0
   42.0990   82.8400   61.3310 N   0  0  0  0  0  0  0  0  0  0  0  0
   41.3420   81.8480   61.8590 C   0  0  0  0  0  0  0  0  0  0  0  0
   40.7350   82.0270   63.0240 N   0  0  0  0  0  0  0  0  0  0  0  0
   43.0560   85.0950   61.4230 N   0  0  0  0  0  0  0  0  0  0  0  0
   44.0900   85.7750   61.9950 C   0  0  0  0  0  0  0  0  0  0  0  0
   44.5620   86.7140   61.1360 N   0  0  0  0  0  0  0  0  0  0  0  0
   43.8320   86.6400   60.0100 C   0  0  0  0  0  0  0  0  0  0  0  0
   43.9340   87.3860   58.8600 C   0  0  0  0  0  0  0  0  0  0  0  0
   44.7580   88.2730   58.6990 O   0  0  0  0  0  0  0  0  0  0  0  0
   43.0630   87.0910   57.8840 N   0  0  0  0  0  0  0  0  0  0  0  0
   42.1280   86.1030   58.0320 C   0  0  0  0  0  0  0  0  0  0  0  0
   41.2120   85.8160   56.9660 N   0  0  0  0  0  0  0  0  0  0  0  0
   42.0180   85.3600   59.1660 N   0  0  0  0  0  0  0  0  0  0  0  0
   42.8800   85.6180   60.1880 C   0  0  0  0  0  0  0  0  0  0  0  0
   40.3950   79.5760   62.0870 C   0  0  0  0  0  0  0  0  0  0  0  0
   40.2700   80.6840   59.9460 C   0  0  0  0  0  0  0  0  0  0  0  0
   42.4550   79.9270   60.7640 C   0  0  0  0  0  0  0  0  0  0  0  0
   43.3150   79.4530   61.8920 C   0  0  1  0  0  0  0  0  0  0  0  0
   43.5520   77.9870   62.0110 C   0  0  0  0  0  0  0  0  0  0  0  0
   44.6720   78.8780   61.5910 C   0  0  2  0  0  0  0  0  0  0  0  0
   45.7590   79.0170   62.5030 N   0  0  0  0  0  0  0  0  0  0  0  0
   46.1720   78.1060   63.4040 C   0  0  0  0  0  0  0  0  0  0  0  0
   47.2090   78.5590   64.0900 N   0  0  0  0  0  0  0  0  0  0  0  0
   47.4850   79.7790   63.6410 C   0  0  0  0  0  0  0  0  0  0  0  0
   48.4720   80.6550   64.0380 C   0  0  0  0  0  0  0  0  0  0  0  0
   48.5260   81.8510   63.3990 N   0  0  0  0  0  0  0  0  0  0  0  0
   47.6310   82.1440   62.4140 C   0  0  0  0  0  0  0  0  0  0  0  0
   46.6620   81.2670   62.0340 N   0  0  0  0  0  0  0  0  0  0  0  0
   46.5760   80.0740   62.6410 C   0  0  0  0  0  0  0  0  0  0  0  0
   49.4080   80.3220   65.0830 N   0  0  0  0  0  0  0  0  0  0  0  0
   40.3428   83.3197   64.6675 H   0  0  0  0  0  0  0  0  0  0  0  0
   41.7407   85.1887   63.7239 H   0  0  0  0  0  0  0  0  0  0  0  0
   44.4842   85.5897   63.0051 H   0  0  0  0  0  0  0  0  0  0  0  0
   43.0987   87.6210   57.0015 H   0  0  0  0  0  0  0  0  0  0  0  0
   40.5083   85.0722   57.0779 H   0  0  0  0  0  0  0  0  0  0  0  0
   41.2579   86.3537   56.0887 H   0  0  0  0  0  0  0  0  0  0  0  0
   40.5885   79.8226   63.1414 H   0  0  0  0  0  0  0  0  0  0  0  0
   39.3171   79.6574   61.8833 H   0  0  0  0  0  0  0  0  0  0  0  0
   40.7301   78.5483   61.8833 H   0  0  0  0  0  0  0  0  0  0  0  0
   39.2271   80.8320   60.2631 H   0  0  0  0  0  0  0  0  0  0  0  0
   40.5958   81.5449   59.3438 H   0  0  0  0  0  0  0  0  0  0  0  0
   40.3434   79.7664   59.3438 H   0  0  0  0  0  0  0  0  0  0  0  0
   42.2229   79.0627   60.1243 H   0  0  0  0  0  0  0  0  0  0  0  0
   43.0284   80.7097   60.2457 H   0  0  0  0  0  0  0  0  0  0  0  0
   42.9462   80.2491   62.5554 H   0  0  0  0  0  0  0  0  0  0  0  0
   43.5708   77.5134   63.0036 H   0  0  0  0  0  0  0  0  0  0  0  0
   43.0769   77.0891   61.5890 H   0  0  0  0  0  0  0  0  0  0  0  0
   45.3538   78.9680   60.7325 H   0  0  0  0  0  0  0  0  0  0  0  0
   45.7099   77.1185   63.5502 H   0  0  0  0  0  0  0  0  0  0  0  0
   47.6937   83.1199   61.9103 H   0  0  0  0  0  0  0  0  0  0  0  0
   50.1350   80.9979   65.3578 H   0  0  0  0  0  0  0  0  0  0  0  0
   49.3496   79.4082   65.5547 H   0  0  0  0  0  0  0  0  0  0  0  0
  1  6  1  0
  1 19  1  0
  3  2  2  0
  4  3  1  0
  5  6  1  0
  5  4  2  0
  6  7  2  0
  7  2  1  0
  8  4  1  0
  8  9  1  0
 10  9  2  0
 11 18  2  0
 11 10  1  0
 12 11  1  0
 13 12  2  0
 14 15  1  0
 14 12  1  0
 15 17  2  0
 16 15  1  0
 17 18  1  0
 18  8  1  0
 20  1  1  0
 21  1  1  0
 21 22  1  0
 22 23  1  0
 24 22  1  0
 24 23  1  0
 24 25  1  0
 25 33  1  0
 25 26  1  0
 26 27  2  0
 28 29  2  0
 28 27  1  0
 29 34  1  0
 30 29  1  0
 31 30  2  0
 32 31  1  0
 32 33  2  0
 33 28  1  0
  2 35  1  0
  3 36  1  0
  9 37  1  0
 14 38  1  0
 16 39  1  0
 16 40  1  0
 19 41  1  0
 19 42  1  0
 19 43  1  0
 20 44  1  0
 20 45  1  0
 20 46  1  0
 21 47  1  0
 21 48  1  0
 22 49  1  1
 23 50  1  0
 23 51  1  0
 24 52  1  6
 26 53  1  0
 31 54  1  0
 34 55  1  0
 34 56  1  0
M  END
>  <Score>  (1) 
-7.30229

$$$$
