
     RDKit          3D

 37 40  0  0  0  0  0  0  0  0999 V2000
   39.8540   78.8480   58.1220 C   0  0  0  0  0  0  0  0  0  0  0  0
   39.4460   77.7420   58.8260 C   0  0  0  0  0  0  0  0  0  0  0  0
   38.4690   76.9620   58.2800 C   0  0  0  0  0  0  0  0  0  0  0  0
   37.9210   77.2510   57.1060 N   0  0  0  0  0  0  0  0  0  0  0  0
   38.3160   78.3470   56.3970 C   0  0  0  0  0  0  0  0  0  0  0  0
   39.2790   79.1250   56.9250 N   0  0  0  0  0  0  0  0  0  0  0  0
   37.7190   78.6580   55.1230 N   0  0  0  0  0  0  0  0  0  0  0  0
   36.8160   77.8650   54.5180 C   0  0  0  0  0  0  0  0  0  0  0  0
   36.3270   78.3010   53.2860 C   0  0  0  0  0  0  0  0  0  0  0  0
   36.7600   79.4900   52.7310 C   0  0  0  0  0  0  0  0  0  0  0  0
   36.2540   79.9240   51.4760 N   0  0  0  0  0  0  0  0  0  0  0  0
   37.6710   80.2560   53.3770 N   0  0  0  0  0  0  0  0  0  0  0  0
   38.1410   79.8320   54.5680 C   0  0  0  0  0  0  0  0  0  0  0  0
   39.0000   80.5660   55.1650 O   0  0  0  0  0  0  0  0  0  0  0  0
   41.1030   80.0490   58.5790 S   0  0  0  0  0  0  0  0  0  0  0  0
   40.3090   82.1380   60.9970 C   0  0  0  0  0  0  0  0  0  0  0  0
   40.5200   83.0220   59.9330 C   0  0  0  0  0  0  0  0  0  0  0  0
   39.7770   84.2150   59.9350 C   0  0  0  0  0  0  0  0  0  0  0  0
   38.9050   84.4460   60.9540 N   0  0  0  0  0  0  0  0  0  0  0  0
   38.7400   83.5760   61.9410 C   0  0  0  0  0  0  0  0  0  0  0  0
   39.4380   82.4450   61.9480 N   0  0  0  0  0  0  0  0  0  0  0  0
   40.9840   80.8870   61.1400 N   0  0  0  0  0  0  0  0  0  0  0  0
   41.3250   80.5380   62.4050 C   0  0  0  0  0  0  0  0  0  0  0  0
   41.9580   79.3130   62.3130 C   0  0  0  0  0  0  0  0  0  0  0  0
   41.9850   78.9460   60.9890 N   0  0  0  0  0  0  0  0  0  0  0  0
   41.3820   79.9340   60.3210 C   0  0  0  0  0  0  0  0  0  0  0  0
   39.8929   77.4927   59.7997 H   0  0  0  0  0  0  0  0  0  0  0  0
   38.1266   76.0709   58.8265 H   0  0  0  0  0  0  0  0  0  0  0  0
   36.4802   76.9208   54.9716 H   0  0  0  0  0  0  0  0  0  0  0  0
   35.5866   77.6897   52.7492 H   0  0  0  0  0  0  0  0  0  0  0  0
   36.5810   80.8114   51.0679 H   0  0  0  0  0  0  0  0  0  0  0  0
   35.5603   79.3512   50.9745 H   0  0  0  0  0  0  0  0  0  0  0  0
   41.2362   82.7932   59.1300 H   0  0  0  0  0  0  0  0  0  0  0  0
   39.8984   84.9502   59.1259 H   0  0  0  0  0  0  0  0  0  0  0  0
   38.0276   83.7897   62.7515 H   0  0  0  0  0  0  0  0  0  0  0  0
   41.1355   81.1151   63.3221 H   0  0  0  0  0  0  0  0  0  0  0  0
   42.3685   78.7331   63.1528 H   0  0  0  0  0  0  0  0  0  0  0  0
  1 15  1  0
  1  2  2  0
  3  2  1  0
  4  3  2  0
  5  6  2  0
  5  4  1  0
  6  1  1  0
  7  5  1  0
  8  7  1  0
  9  8  2  0
 10  9  1  0
 10 12  2  0
 11 10  1  0
 12 13  1  0
 13  7  1  0
 13 14  2  0
 15 26  1  0
 16 22  1  0
 16 21  2  0
 17 18  2  0
 17 16  1  0
 18 19  1  0
 19 20  2  0
 20 21  1  0
 22 23  1  0
 24 23  2  0
 25 24  1  0
 26 25  2  0
 26 22  1  0
  2 27  1  0
  3 28  1  0
  8 29  1  0
  9 30  1  0
 11 31  1  0
 11 32  1  0
 17 33  1  0
 18 34  1  0
 20 35  1  0
 23 36  1  0
 24 37  1  0
M  END
>  <Score>  (1) 
-7.328

$$$$
