
     RDKit          3D

 49 53  0  0  1  0  0  0  0  0999 V2000
   41.2450   81.2380   61.4270 N   0  0  0  0  0  0  0  0  0  0  0  0
   42.6700   81.3180   61.5240 C   0  0  0  0  0  0  0  0  0  0  0  0
   43.2780   79.9810   61.0960 C   0  0  0  0  0  0  0  0  0  0  0  0
   42.7650   78.8500   61.9450 C   0  0  0  0  0  0  0  0  0  0  0  0
   41.4350   79.1190   62.5460 C   0  0  0  0  0  0  0  0  0  0  0  0
   40.6510   79.9490   61.5330 C   0  0  2  0  0  0  0  0  0  0  0  0
   40.4320   82.3900   61.2360 C   0  0  0  0  0  0  0  0  0  0  0  0
   40.5920   83.1540   60.1010 C   0  0  0  0  0  0  0  0  0  0  0  0
   39.7890   84.2790   59.9210 C   0  0  0  0  0  0  0  0  0  0  0  0
   38.8720   84.5570   60.9090 N   0  0  0  0  0  0  0  0  0  0  0  0
   38.7380   83.7980   62.0000 C   0  0  0  0  0  0  0  0  0  0  0  0
   39.5130   82.7090   62.1780 N   0  0  0  0  0  0  0  0  0  0  0  0
   40.3630   79.2240   60.3220 C   0  0  0  0  0  0  0  0  0  0  0  0
   40.3470   79.6450   59.0280 C   0  0  0  0  0  0  0  0  0  0  0  0
   40.0510   78.8440   57.9500 C   0  0  0  0  0  0  0  0  0  0  0  0
   39.7580   77.5560   58.1720 N   0  0  0  0  0  0  0  0  0  0  0  0
   39.7620   77.0930   59.4350 C   0  0  0  0  0  0  0  0  0  0  0  0
   40.0540   77.9190   60.4130 N   0  0  0  0  0  0  0  0  0  0  0  0
   39.4780   75.7170   59.9130 C   0  0  0  0  0  0  0  0  0  0  0  0
   38.1780   75.1970   59.9430 C   0  0  0  0  0  0  0  0  0  0  0  0
   37.8810   73.9330   60.3800 C   0  0  0  0  0  0  0  0  0  0  0  0
   38.8740   73.0940   60.8200 C   0  0  0  0  0  0  0  0  0  0  0  0
   40.1570   73.5580   60.8090 C   0  0  0  0  0  0  0  0  0  0  0  0
   41.1330   72.7060   61.2550 C   0  0  0  0  0  0  0  0  0  0  0  0
   42.4670   73.0940   61.2820 C   0  0  0  0  0  0  0  0  0  0  0  0
   42.7280   74.3830   60.8340 C   0  0  0  0  0  0  0  0  0  0  0  0
   41.7220   75.1940   60.3990 C   0  0  0  0  0  0  0  0  0  0  0  0
   40.4090   74.8290   60.3650 C   0  0  0  0  0  0  0  0  0  0  0  0
   43.0395   82.1180   60.8656 H   0  0  0  0  0  0  0  0  0  0  0  0
   42.9584   81.5403   62.5620 H   0  0  0  0  0  0  0  0  0  0  0  0
   43.0154   79.7880   60.0454 H   0  0  0  0  0  0  0  0  0  0  0  0
   44.3694   80.0406   61.2199 H   0  0  0  0  0  0  0  0  0  0  0  0
   42.6881   77.9501   61.3171 H   0  0  0  0  0  0  0  0  0  0  0  0
   43.4753   78.7194   62.7747 H   0  0  0  0  0  0  0  0  0  0  0  0
   40.9115   78.1724   62.7456 H   0  0  0  0  0  0  0  0  0  0  0  0
   41.5355   79.6552   63.5012 H   0  0  0  0  0  0  0  0  0  0  0  0
   39.6278   80.1469   61.8850 H   0  0  0  0  0  0  0  0  0  0  0  0
   41.3439   82.8798   59.3464 H   0  0  0  0  0  0  0  0  0  0  0  0
   39.8839   84.9161   59.0293 H   0  0  0  0  0  0  0  0  0  0  0  0
   37.9886   84.0638   62.7601 H   0  0  0  0  0  0  0  0  0  0  0  0
   40.5877   80.7000   58.8304 H   0  0  0  0  0  0  0  0  0  0  0  0
   40.0548   79.2519   56.9284 H   0  0  0  0  0  0  0  0  0  0  0  0
   37.3524   75.8367   59.5977 H   0  0  0  0  0  0  0  0  0  0  0  0
   36.8367   73.5873   60.3782 H   0  0  0  0  0  0  0  0  0  0  0  0
   38.6424   72.0776   61.1711 H   0  0  0  0  0  0  0  0  0  0  0  0
   40.8559   71.6980   61.5974 H   0  0  0  0  0  0  0  0  0  0  0  0
   43.2647   72.4240   61.6352 H   0  0  0  0  0  0  0  0  0  0  0  0
   43.7631   74.7553   60.8302 H   0  0  0  0  0  0  0  0  0  0  0  0
   41.9860   76.2047   60.0544 H   0  0  0  0  0  0  0  0  0  0  0  0
  1  2  1  0
  1  6  1  0
  3  2  1  0
  3  4  1  0
  4  5  1  0
  6  5  1  0
  7  1  1  0
  7 12  1  0
  8  7  2  0
  9  8  1  0
  9 10  2  0
 10 11  1  0
 11 12  2  0
 13 18  1  0
 13  6  1  0
 14 13  2  0
 15 16  2  0
 15 14  1  0
 16 17  1  0
 17 19  1  0
 17 18  2  0
 19 20  2  0
 19 28  1  0
 20 21  1  0
 21 22  2  0
 23 22  1  0
 23 24  2  0
 24 25  1  0
 26 25  2  0
 27 26  1  0
 28 27  2  0
 28 23  1  0
  2 29  1  0
  2 30  1  0
  3 31  1  0
  3 32  1  0
  4 33  1  0
  4 34  1  0
  5 35  1  0
  5 36  1  0
  6 37  1  1
  8 38  1  0
  9 39  1  0
 11 40  1  0
 14 41  1  0
 15 42  1  0
 20 43  1  0
 21 44  1  0
 22 45  1  0
 24 46  1  0
 25 47  1  0
 26 48  1  0
 27 49  1  0
M  END
>  <Score>  (1) 
-7.03658

$$$$
