
     RDKit          3D

 53 56  0  0  1  0  0  0  0  0999 V2000
   39.4980   84.1260   59.8000 C   0  0  0  0  0  0  0  0  0  0  0  0
   39.9830   82.8330   59.5460 C   0  0  0  0  0  0  0  0  0  0  0  0
   40.8100   82.2550   60.5170 C   0  0  0  0  0  0  0  0  0  0  0  0
   41.0540   83.0060   61.6150 N   0  0  0  0  0  0  0  0  0  0  0  0
   40.5910   84.2180   61.8450 C   0  0  0  0  0  0  0  0  0  0  0  0
   39.8050   84.7710   60.9130 N   0  0  0  0  0  0  0  0  0  0  0  0
   40.9380   84.8630   63.0710 N   0  0  0  0  0  0  0  0  0  0  0  0
   40.5480   84.2200   64.2970 C   0  0  0  0  0  0  0  0  0  0  0  0
   40.5910   82.9540   64.4550 N   0  0  0  0  0  0  0  0  0  0  0  0
   40.0960   85.0400   65.3910 N   0  0  0  0  0  0  0  0  0  0  0  0
   40.9100   82.2580   63.7970 H   0  0  0  0  0  0  0  0  0  0  0  0
   41.3760   80.9660   60.3820 N   0  0  0  0  0  0  0  0  0  0  0  0
   40.8580   79.7170   60.8880 C   0  0  0  0  0  0  0  0  0  0  0  0
   41.8490   78.6880   60.4200 C   0  0  0  0  0  0  0  0  0  0  0  0
   43.1260   79.4790   60.4500 C   0  0  0  0  0  0  0  0  0  0  0  0
   42.6020   80.7050   59.6900 C   0  0  2  0  0  0  0  0  0  0  0  0
   43.6330   81.7750   59.8270 C   0  0  1  0  0  0  0  0  0  0  0  0
   43.5580   82.6500   58.6110 C   0  0  0  0  0  0  0  0  0  0  0  0
   43.9890   84.0380   58.9590 C   0  0  0  0  0  0  0  0  0  0  0  0
   43.8220   84.1150   60.4480 C   0  0  0  0  0  0  0  0  0  0  0  0
   43.4260   82.7380   60.9220 C   0  0  2  0  0  0  0  0  0  0  0  0
   44.6070   82.4400   61.8000 N   0  0  0  0  0  0  0  0  0  0  0  0
   45.6650   81.8880   61.1310 C   0  0  0  0  0  0  0  0  0  0  0  0
   46.8430   81.5490   61.7620 C   0  0  0  0  0  0  0  0  0  0  0  0
   46.9360   81.7830   63.1160 C   0  0  0  0  0  0  0  0  0  0  0  0
   48.0920   81.4790   63.8780 N   0  0  0  0  0  0  0  0  0  0  0  0
   45.8840   82.3200   63.7220 N   0  0  0  0  0  0  0  0  0  0  0  0
   44.7510   82.6410   63.0830 C   0  0  0  0  0  0  0  0  0  0  0  0
   43.7380   83.1550   63.6470 O   0  0  0  0  0  0  0  0  0  0  0  0
   38.8488   84.6129   59.0574 H   0  0  0  0  0  0  0  0  0  0  0  0
   39.7238   82.2959   58.6217 H   0  0  0  0  0  0  0  0  0  0  0  0
   41.4495   85.7570   63.0770 H   0  0  0  0  0  0  0  0  0  0  0  0
   39.8114   84.6027   66.2791 H   0  0  0  0  0  0  0  0  0  0  0  0
   40.0573   86.0638   65.2855 H   0  0  0  0  0  0  0  0  0  0  0  0
   40.8033   79.7342   61.9865 H   0  0  0  0  0  0  0  0  0  0  0  0
   39.8376   79.5102   60.5330 H   0  0  0  0  0  0  0  0  0  0  0  0
   41.6161   78.3367   59.4040 H   0  0  0  0  0  0  0  0  0  0  0  0
   41.8706   77.7720   61.0286 H   0  0  0  0  0  0  0  0  0  0  0  0
   43.4462   79.7232   61.4736 H   0  0  0  0  0  0  0  0  0  0  0  0
   44.0199   78.9882   60.0376 H   0  0  0  0  0  0  0  0  0  0  0  0
   42.4242   80.6035   58.6092 H   0  0  0  0  0  0  0  0  0  0  0  0
   44.5691   81.2226   59.9959 H   0  0  0  0  0  0  0  0  0  0  0  0
   42.5228   82.6713   58.2397 H   0  0  0  0  0  0  0  0  0  0  0  0
   44.2227   82.2477   57.8324 H   0  0  0  0  0  0  0  0  0  0  0  0
   45.0390   84.2027   58.6755 H   0  0  0  0  0  0  0  0  0  0  0  0
   43.4042   84.8050   58.4300 H   0  0  0  0  0  0  0  0  0  0  0  0
   44.7688   84.4183   60.9187 H   0  0  0  0  0  0  0  0  0  0  0  0
   43.0564   84.8572   60.7182 H   0  0  0  0  0  0  0  0  0  0  0  0
   42.4049   82.6864   61.3279 H   0  0  0  0  0  0  0  0  0  0  0  0
   45.5724   81.7080   60.0498 H   0  0  0  0  0  0  0  0  0  0  0  0
   47.6805   81.1065   61.2028 H   0  0  0  0  0  0  0  0  0  0  0  0
   48.1085   81.6747   64.8891 H   0  0  0  0  0  0  0  0  0  0  0  0
   48.9155   81.0625   63.4206 H   0  0  0  0  0  0  0  0  0  0  0  0
  1  6  2  0
  2  1  1  0
  2  3  2  0
  3  4  1  0
  4  5  2  0
  5  7  1  0
  6  5  1  0
  7  8  1  0
  8  9  2  0
  8 10  1  0
 11  9  1  0
 12  3  1  0
 12 13  1  0
 14 15  1  0
 14 13  1  0
 16 17  1  0
 16 12  1  0
 16 15  1  0
 17 21  1  0
 18 19  1  0
 18 17  1  0
 19 20  1  0
 20 21  1  0
 21 22  1  0
 22 28  1  0
 23 24  2  0
 23 22  1  0
 24 25  1  0
 25 27  2  0
 25 26  1  0
 28 29  2  0
 28 27  1  0
  1 30  1  0
  2 31  1  0
  7 32  1  0
 10 33  1  0
 10 34  1  0
 13 35  1  0
 13 36  1  0
 14 37  1  0
 14 38  1  0
 15 39  1  0
 15 40  1  0
 16 41  1  6
 17 42  1  1
 18 43  1  0
 18 44  1  0
 19 45  1  0
 19 46  1  0
 20 47  1  0
 20 48  1  0
 21 49  1  1
 23 50  1  0
 24 51  1  0
 26 52  1  0
 26 53  1  0
M  END
>  <Score>  (1) 
-7.11393

$$$$
