
     RDKit          3D

 43 46  0  0  0  0  0  0  0  0999 V2000
   41.0280   81.3000   61.4430 C   0  0  0  0  0  0  0  0  0  0  0  0
   41.6850   82.0800   60.4650 C   0  0  0  0  0  0  0  0  0  0  0  0
   41.6930   83.4850   60.7190 C   0  0  0  0  0  0  0  0  0  0  0  0
   41.1020   83.9650   61.8110 N   0  0  0  0  0  0  0  0  0  0  0  0
   40.4770   83.1740   62.7180 C   0  0  0  0  0  0  0  0  0  0  0  0
   40.4490   81.8520   62.5220 N   0  0  0  0  0  0  0  0  0  0  0  0
   39.8410   83.7360   63.8700 N   0  0  0  0  0  0  0  0  0  0  0  0
   40.6000   84.5210   64.7740 C   0  0  0  0  0  0  0  0  0  0  0  0
   41.8490   84.2700   64.9090 N   0  0  0  0  0  0  0  0  0  0  0  0
   39.9430   85.5560   65.5010 N   0  0  0  0  0  0  0  0  0  0  0  0
   42.3970   84.8440   65.5820 H   0  0  0  0  0  0  0  0  0  0  0  0
   42.2980   81.6420   59.2590 C   0  0  0  0  0  0  0  0  0  0  0  0
   43.6560   81.5370   59.3520 C   0  0  0  0  0  0  0  0  0  0  0  0
   44.4500   81.0400   58.3550 C   0  0  0  0  0  0  0  0  0  0  0  0
   43.8800   80.6190   57.2020 C   0  0  0  0  0  0  0  0  0  0  0  0
   42.4890   80.7120   57.0680 C   0  0  0  0  0  0  0  0  0  0  0  0
   41.8080   80.3250   55.9100 C   0  0  0  0  0  0  0  0  0  0  0  0
   40.4440   80.4720   55.8390 C   0  0  0  0  0  0  0  0  0  0  0  0
   39.7200   80.9870   56.8620 C   0  0  0  0  0  0  0  0  0  0  0  0
   40.4030   81.3660   58.0060 C   0  0  0  0  0  0  0  0  0  0  0  0
   41.7470   81.2190   58.0880 C   0  0  0  0  0  0  0  0  0  0  0  0
   42.1190   84.6170   59.9870 N   0  0  0  0  0  0  0  0  0  0  0  0
   43.3600   85.1770   60.2020 C   0  0  0  0  0  0  0  0  0  0  0  0
   43.8190   86.2560   59.4730 C   0  0  0  0  0  0  0  0  0  0  0  0
   42.9770   86.7650   58.5070 C   0  0  0  0  0  0  0  0  0  0  0  0
   43.2950   87.7380   57.7950 O   0  0  0  0  0  0  0  0  0  0  0  0
   41.7680   86.2160   58.3020 N   0  0  0  0  0  0  0  0  0  0  0  0
   41.3080   85.1490   59.0170 C   0  0  0  0  0  0  0  0  0  0  0  0
   40.1650   84.6780   58.7790 O   0  0  0  0  0  0  0  0  0  0  0  0
   40.9895   80.2079   61.3169 H   0  0  0  0  0  0  0  0  0  0  0  0
   38.8388   83.5713   64.0412 H   0  0  0  0  0  0  0  0  0  0  0  0
   40.4756   86.1383   66.1630 H   0  0  0  0  0  0  0  0  0  0  0  0
   38.9356   85.7217   65.3644 H   0  0  0  0  0  0  0  0  0  0  0  0
   44.1394   81.8712   60.2819 H   0  0  0  0  0  0  0  0  0  0  0  0
   45.5403   80.9832   58.4891 H   0  0  0  0  0  0  0  0  0  0  0  0
   44.4965   80.2122   56.3869 H   0  0  0  0  0  0  0  0  0  0  0  0
   42.3626   79.9041   55.0584 H   0  0  0  0  0  0  0  0  0  0  0  0
   39.9225   80.1615   54.9216 H   0  0  0  0  0  0  0  0  0  0  0  0
   38.6284   81.1001   56.7867 H   0  0  0  0  0  0  0  0  0  0  0  0
   39.8486   81.7904   58.8560 H   0  0  0  0  0  0  0  0  0  0  0  0
   44.0074   84.7493   60.9817 H   0  0  0  0  0  0  0  0  0  0  0  0
   44.8130   86.6906   59.6549 H   0  0  0  0  0  0  0  0  0  0  0  0
   41.1618   86.6184   57.5730 H   0  0  0  0  0  0  0  0  0  0  0  0
  1  6  2  0
  2  3  2  0
  2  1  1  0
  3  4  1  0
  4  5  2  0
  5  7  1  0
  6  5  1  0
  7  8  1  0
  8  9  2  0
  8 10  1  0
  9 11  1  0
 12 13  2  0
 12  2  1  0
 14 13  1  0
 15 14  2  0
 16 15  1  0
 16 21  2  0
 17 16  1  0
 18 17  2  0
 18 19  1  0
 19 20  2  0
 20 21  1  0
 21 12  1  0
 22 23  1  0
 22  3  1  0
 24 23  2  0
 25 24  1  0
 26 25  2  0
 27 25  1  0
 27 28  1  0
 28 22  1  0
 29 28  2  0
  1 30  1  0
  7 31  1  0
 10 32  1  0
 10 33  1  0
 13 34  1  0
 14 35  1  0
 15 36  1  0
 17 37  1  0
 18 38  1  0
 19 39  1  0
 20 40  1  0
 23 41  1  0
 24 42  1  0
 27 43  1  0
M  END
>  <Score>  (1) 
-7.38162

$$$$
