
     RDKit          3D

 50 54  0  0  1  0  0  0  0  0999 V2000
   41.3060   78.0790   61.4420 C   0  0  0  0  0  0  0  0  0  0  0  0
   39.9180   77.7570   61.4760 C   0  0  0  0  0  0  0  0  0  0  0  0
   39.4940   76.5180   61.0240 C   0  0  0  0  0  0  0  0  0  0  0  0
   40.4280   75.6540   60.5630 N   0  0  0  0  0  0  0  0  0  0  0  0
   41.7430   75.9830   60.5420 C   0  0  0  0  0  0  0  0  0  0  0  0
   42.1590   77.1600   60.9700 N   0  0  0  0  0  0  0  0  0  0  0  0
   41.7770   79.3840   61.9220 C   0  0  0  0  0  0  0  0  0  0  0  0
   41.0550   80.4090   61.1750 N   0  0  0  0  0  0  0  0  0  0  0  0
   40.6210   80.4620   59.8880 C   0  0  0  0  0  0  0  0  0  0  0  0
   39.9970   81.6310   59.6650 N   0  0  0  0  0  0  0  0  0  0  0  0
   40.0010   82.3660   60.7730 C   0  0  0  0  0  0  0  0  0  0  0  0
   39.5430   83.6180   61.2060 C   0  0  0  0  0  0  0  0  0  0  0  0
   38.9390   84.2960   60.3080 O   0  0  0  0  0  0  0  0  0  0  0  0
   39.7240   84.0670   62.4550 N   0  0  0  0  0  0  0  0  0  0  0  0
   40.3780   83.2860   63.3550 C   0  0  0  0  0  0  0  0  0  0  0  0
   40.5990   83.7050   64.6900 N   0  0  0  0  0  0  0  0  0  0  0  0
   40.8360   82.0760   62.9830 N   0  0  0  0  0  0  0  0  0  0  0  0
   40.6780   81.5810   61.7380 C   0  0  0  0  0  0  0  0  0  0  0  0
   42.7520   75.0260   60.0550 C   0  0  1  0  0  0  0  0  0  0  0  0
   43.7340   74.6240   61.1600 C   0  0  0  0  0  0  0  0  0  0  0  0
   42.1160   73.7470   59.5700 C   0  0  0  0  0  0  0  0  0  0  0  0
   41.9540   72.7090   60.5810 C   0  0  0  0  0  0  0  0  0  0  0  0
   42.0620   72.7710   61.9370 C   0  0  0  0  0  0  0  0  0  0  0  0
   41.8370   71.5600   62.5250 N   0  0  0  0  0  0  0  0  0  0  0  0
   41.5800   70.7110   61.5110 C   0  0  0  0  0  0  0  0  0  0  0  0
   41.2840   69.3590   61.5130 C   0  0  0  0  0  0  0  0  0  0  0  0
   41.0530   68.6630   60.3690 C   0  0  0  0  0  0  0  0  0  0  0  0
   41.1210   69.3550   59.1540 C   0  0  0  0  0  0  0  0  0  0  0  0
   41.4170   70.7160   59.1340 C   0  0  0  0  0  0  0  0  0  0  0  0
   41.6490   71.3990   60.3150 C   0  0  0  0  0  0  0  0  0  0  0  0
   39.1890   78.4867   61.8582 H   0  0  0  0  0  0  0  0  0  0  0  0
   38.4287   76.2443   61.0394 H   0  0  0  0  0  0  0  0  0  0  0  0
   41.5700   79.4863   62.9975 H   0  0  0  0  0  0  0  0  0  0  0  0
   42.8620   79.4851   61.7718 H   0  0  0  0  0  0  0  0  0  0  0  0
   40.7598   79.6668   59.1407 H   0  0  0  0  0  0  0  0  0  0  0  0
   39.3712   84.9946   62.7306 H   0  0  0  0  0  0  0  0  0  0  0  0
   41.0983   83.0888   65.3472 H   0  0  0  0  0  0  0  0  0  0  0  0
   40.2604   84.6258   65.0035 H   0  0  0  0  0  0  0  0  0  0  0  0
   43.2739   75.5427   59.2361 H   0  0  0  0  0  0  0  0  0  0  0  0
   43.2767   74.8112   62.1428 H   0  0  0  0  0  0  0  0  0  0  0  0
   43.9749   73.5549   61.0653 H   0  0  0  0  0  0  0  0  0  0  0  0
   44.6554   75.2173   61.0653 H   0  0  0  0  0  0  0  0  0  0  0  0
   41.1202   73.9923   59.1722 H   0  0  0  0  0  0  0  0  0  0  0  0
   42.8021   73.3330   58.8164 H   0  0  0  0  0  0  0  0  0  0  0  0
   42.3023   73.6891   62.4931 H   0  0  0  0  0  0  0  0  0  0  0  0
   41.8590   71.3414   63.5313 H   0  0  0  0  0  0  0  0  0  0  0  0
   41.2339   68.8287   62.4754 H   0  0  0  0  0  0  0  0  0  0  0  0
   40.8196   67.5884   60.3968 H   0  0  0  0  0  0  0  0  0  0  0  0
   40.9396   68.8209   58.2096 H   0  0  0  0  0  0  0  0  0  0  0  0
   41.4666   71.2509   58.1741 H   0  0  0  0  0  0  0  0  0  0  0  0
  1  2  2  0
  1  7  1  0
  3  2  1  0
  4  3  2  0
  5  4  1  0
  5  6  2  0
  6  1  1  0
  8 18  1  0
  8  7  1  0
  9  8  1  0
 10  9  2  0
 10 11  1  0
 11 12  1  0
 11 18  2  0
 12 14  1  0
 13 12  2  0
 14 15  1  0
 15 16  1  0
 17 15  2  0
 18 17  1  0
 19  5  1  0
 19 20  1  0
 21 19  1  0
 21 22  1  0
 22 23  2  0
 23 24  1  0
 25 26  2  0
 25 24  1  0
 27 26  1  0
 28 27  2  0
 29 28  1  0
 29 30  2  0
 30 22  1  0
 30 25  1  0
  2 31  1  0
  3 32  1  0
  7 33  1  0
  7 34  1  0
  9 35  1  0
 14 36  1  0
 16 37  1  0
 16 38  1  0
 19 39  1  6
 20 40  1  0
 20 41  1  0
 20 42  1  0
 21 43  1  0
 21 44  1  0
 23 45  1  0
 24 46  1  0
 26 47  1  0
 27 48  1  0
 28 49  1  0
 29 50  1  0
M  END
>  <Score>  (1) 
-7.58362

$$$$
