
     RDKit          3D

 41 46  0  0  0  0  0  0  0  0999 V2000
   41.7350   85.8580   57.3980 C   0  0  0  0  0  0  0  0  0  0  0  0
   41.6060   84.6270   56.6820 C   0  0  0  0  0  0  0  0  0  0  0  0
   41.7990   83.4460   57.3700 C   0  0  0  0  0  0  0  0  0  0  0  0
   42.0980   83.5380   58.6770 N   0  0  0  0  0  0  0  0  0  0  0  0
   42.2210   84.6820   59.3570 C   0  0  0  0  0  0  0  0  0  0  0  0
   42.0370   85.8450   58.7080 N   0  0  0  0  0  0  0  0  0  0  0  0
   41.6800   82.1400   56.6890 C   0  0  0  0  0  0  0  0  0  0  0  0
   42.8450   81.4140   56.3690 C   0  0  0  0  0  0  0  0  0  0  0  0
   42.1840   79.8880   55.5480 S   0  0  0  0  0  0  0  0  0  0  0  0
   40.4250   80.5340   55.7980 C   0  0  0  0  0  0  0  0  0  0  0  0
   40.5910   81.5150   56.3140 N   0  0  0  0  0  0  0  0  0  0  0  0
   39.1400   79.9030   55.4110 N   0  0  0  0  0  0  0  0  0  0  0  0
   38.3430   79.3840   56.3330 C   0  0  0  0  0  0  0  0  0  0  0  0
   37.2990   78.9160   55.6270 N   0  0  0  0  0  0  0  0  0  0  0  0
   37.4930   79.1620   54.3200 C   0  0  0  0  0  0  0  0  0  0  0  0
   36.7070   78.8750   53.1980 C   0  0  0  0  0  0  0  0  0  0  0  0
   37.1730   79.2540   51.9730 N   0  0  0  0  0  0  0  0  0  0  0  0
   38.3720   79.8930   51.8690 C   0  0  0  0  0  0  0  0  0  0  0  0
   39.1380   80.1750   52.9510 N   0  0  0  0  0  0  0  0  0  0  0  0
   38.7020   79.8120   54.1700 C   0  0  0  0  0  0  0  0  0  0  0  0
   42.5450   84.7290   60.7690 C   0  0  0  0  0  0  0  0  0  0  0  0
   43.7120   85.1690   61.3750 C   0  0  0  0  0  0  0  0  0  0  0  0
   43.6440   85.0610   62.7130 N   0  0  0  0  0  0  0  0  0  0  0  0
   42.4290   84.5500   62.9690 C   0  0  0  0  0  0  0  0  0  0  0  0
   41.8040   84.2220   64.1800 C   0  0  0  0  0  0  0  0  0  0  0  0
   40.5110   83.6980   64.1350 C   0  0  0  0  0  0  0  0  0  0  0  0
   39.8300   83.4900   62.9650 C   0  0  0  0  0  0  0  0  0  0  0  0
   40.4610   83.8190   61.7840 C   0  0  0  0  0  0  0  0  0  0  0  0
   41.7290   84.3340   61.8080 C   0  0  0  0  0  0  0  0  0  0  0  0
   41.5872   86.8155   56.8770 H   0  0  0  0  0  0  0  0  0  0  0  0
   41.3592   84.6213   55.6101 H   0  0  0  0  0  0  0  0  0  0  0  0
   43.8934   81.6867   56.5601 H   0  0  0  0  0  0  0  0  0  0  0  0
   38.4988   79.3451   57.4212 H   0  0  0  0  0  0  0  0  0  0  0  0
   35.7412   78.3586   53.3009 H   0  0  0  0  0  0  0  0  0  0  0  0
   38.7306   80.1902   50.8725 H   0  0  0  0  0  0  0  0  0  0  0  0
   44.5842   85.5578   60.8290 H   0  0  0  0  0  0  0  0  0  0  0  0
   44.3703   85.3162   63.3973 H   0  0  0  0  0  0  0  0  0  0  0  0
   42.3188   84.3735   65.1403 H   0  0  0  0  0  0  0  0  0  0  0  0
   40.0161   83.4402   65.0830 H   0  0  0  0  0  0  0  0  0  0  0  0
   38.8118   83.0736   62.9674 H   0  0  0  0  0  0  0  0  0  0  0  0
   39.9461   83.6678   60.8238 H   0  0  0  0  0  0  0  0  0  0  0  0
  1  6  2  0
  2  3  2  0
  2  1  1  0
  3  4  1  0
  4  5  2  0
  5 21  1  0
  6  5  1  0
  7  3  1  0
  8  7  2  0
  9 10  1  0
  9  8  1  0
 10 11  2  0
 11  7  1  0
 12 10  1  0
 12 13  1  0
 14 13  2  0
 15 14  1  0
 16 15  2  0
 17 16  1  0
 18 17  2  0
 18 19  1  0
 19 20  2  0
 20 15  1  0
 20 12  1  0
 21 22  2  0
 21 29  1  0
 22 23  1  0
 23 24  1  0
 24 25  2  0
 26 25  1  0
 27 26  2  0
 28 29  2  0
 28 27  1  0
 29 24  1  0
  1 30  1  0
  2 31  1  0
  8 32  1  0
 13 33  1  0
 16 34  1  0
 18 35  1  0
 22 36  1  0
 23 37  1  0
 25 38  1  0
 26 39  1  0
 27 40  1  0
 28 41  1  0
M  END
>  <Score>  (1) 
-7.22465

$$$$
