
     RDKit          3D

 43 48  0  0  0  0  0  0  0  0999 V2000
   41.5970   85.5770   57.3070 C   0  0  0  0  0  0  0  0  0  0  0  0
   41.5860   84.3140   56.6490 C   0  0  0  0  0  0  0  0  0  0  0  0
   41.8930   83.1990   57.4010 C   0  0  0  0  0  0  0  0  0  0  0  0
   42.1790   83.3960   58.6930 N   0  0  0  0  0  0  0  0  0  0  0  0
   42.1950   84.5590   59.3270 C   0  0  0  0  0  0  0  0  0  0  0  0
   41.8970   85.6690   58.6140 N   0  0  0  0  0  0  0  0  0  0  0  0
   42.5110   84.7200   60.7310 C   0  0  0  0  0  0  0  0  0  0  0  0
   43.6280   85.2860   61.3070 C   0  0  0  0  0  0  0  0  0  0  0  0
   43.5620   85.2540   62.6460 N   0  0  0  0  0  0  0  0  0  0  0  0
   42.3880   84.6610   62.9410 C   0  0  0  0  0  0  0  0  0  0  0  0
   41.7930   84.3630   64.1710 C   0  0  0  0  0  0  0  0  0  0  0  0
   40.5500   83.7340   64.1490 C   0  0  0  0  0  0  0  0  0  0  0  0
   39.8840   83.3970   62.9980 C   0  0  0  0  0  0  0  0  0  0  0  0
   40.4890   83.7010   61.7980 C   0  0  0  0  0  0  0  0  0  0  0  0
   41.7240   84.3250   61.7910 C   0  0  0  0  0  0  0  0  0  0  0  0
   41.9040   81.8530   56.7900 C   0  0  0  0  0  0  0  0  0  0  0  0
   43.0400   81.0260   56.9450 C   0  0  0  0  0  0  0  0  0  0  0  0
   42.5730   79.4890   56.0230 S   0  0  0  0  0  0  0  0  0  0  0  0
   40.9040   80.2660   55.5960 C   0  0  0  0  0  0  0  0  0  0  0  0
   40.9690   81.2660   56.0840 N   0  0  0  0  0  0  0  0  0  0  0  0
   39.8020   79.6760   54.8090 N   0  0  0  0  0  0  0  0  0  0  0  0
   39.5720   79.7600   53.5030 C   0  0  0  0  0  0  0  0  0  0  0  0
   38.4680   79.0740   53.2440 N   0  0  0  0  0  0  0  0  0  0  0  0
   37.9910   78.5530   54.3690 C   0  0  0  0  0  0  0  0  0  0  0  0
   36.9010   77.7690   54.6970 C   0  0  0  0  0  0  0  0  0  0  0  0
   36.6870   77.3920   55.9890 N   0  0  0  0  0  0  0  0  0  0  0  0
   37.5600   77.7980   56.9540 C   0  0  0  0  0  0  0  0  0  0  0  0
   38.6240   78.5610   56.6430 N   0  0  0  0  0  0  0  0  0  0  0  0
   38.8440   78.9360   55.3820 C   0  0  0  0  0  0  0  0  0  0  0  0
   35.9940   77.3500   53.6870 N   0  0  0  0  0  0  0  0  0  0  0  0
   41.3572   86.4879   56.7389 H   0  0  0  0  0  0  0  0  0  0  0  0
   41.3415   84.2306   55.5798 H   0  0  0  0  0  0  0  0  0  0  0  0
   44.4688   85.7110   60.7391 H   0  0  0  0  0  0  0  0  0  0  0  0
   44.2634   85.6091   63.3115 H   0  0  0  0  0  0  0  0  0  0  0  0
   42.2878   84.6158   65.1203 H   0  0  0  0  0  0  0  0  0  0  0  0
   40.0746   83.4934   65.1114 H   0  0  0  0  0  0  0  0  0  0  0  0
   38.9023   82.9019   63.0319 H   0  0  0  0  0  0  0  0  0  0  0  0
   39.9923   83.4487   60.8495 H   0  0  0  0  0  0  0  0  0  0  0  0
   43.9747   81.2428   57.4828 H   0  0  0  0  0  0  0  0  0  0  0  0
   40.1871   80.3013   52.7691 H   0  0  0  0  0  0  0  0  0  0  0  0
   37.3928   77.4984   57.9991 H   0  0  0  0  0  0  0  0  0  0  0  0
   35.1824   76.7658   53.9338 H   0  0  0  0  0  0  0  0  0  0  0  0
   36.1480   77.6304   52.7080 H   0  0  0  0  0  0  0  0  0  0  0  0
  1  6  2  0
  2  1  1  0
  2  3  2  0
  3  4  1  0
  4  5  2  0
  5  7  1  0
  6  5  1  0
  7  8  2  0
  7 15  1  0
  8  9  1  0
  9 10  1  0
 10 11  2  0
 12 11  1  0
 13 12  2  0
 14 13  1  0
 15 14  2  0
 15 10  1  0
 16 17  2  0
 16  3  1  0
 18 17  1  0
 19 18  1  0
 19 20  2  0
 20 16  1  0
 21 29  1  0
 21 19  1  0
 22 21  1  0
 23 22  2  0
 23 24  1  0
 24 25  2  0
 24 29  1  0
 25 26  1  0
 26 27  2  0
 28 27  1  0
 29 28  2  0
 30 25  1  0
  1 31  1  0
  2 32  1  0
  8 33  1  0
  9 34  1  0
 11 35  1  0
 12 36  1  0
 13 37  1  0
 14 38  1  0
 17 39  1  0
 22 40  1  0
 27 41  1  0
 30 42  1  0
 30 43  1  0
M  END
>  <Score>  (1) 
-7.4133

$$$$
