
     RDKit          3D

 46 49  0  0  0  0  0  0  0  0999 V2000
   40.9240   81.3020   61.4730 C   0  0  0  0  0  0  0  0  0  0  0  0
   41.5790   82.0770   60.4850 C   0  0  0  0  0  0  0  0  0  0  0  0
   41.5990   83.4780   60.7310 C   0  0  0  0  0  0  0  0  0  0  0  0
   41.0200   83.9670   61.8310 N   0  0  0  0  0  0  0  0  0  0  0  0
   40.3980   83.1860   62.7470 C   0  0  0  0  0  0  0  0  0  0  0  0
   40.3580   81.8610   62.5570 N   0  0  0  0  0  0  0  0  0  0  0  0
   39.7830   83.7450   63.9110 N   0  0  0  0  0  0  0  0  0  0  0  0
   40.5550   84.5370   64.8000 C   0  0  0  0  0  0  0  0  0  0  0  0
   41.8160   84.2770   64.9230 N   0  0  0  0  0  0  0  0  0  0  0  0
   39.9350   85.5820   65.5310 N   0  0  0  0  0  0  0  0  0  0  0  0
   42.3690   84.8270   65.6060 H   0  0  0  0  0  0  0  0  0  0  0  0
   42.1980   81.6090   59.2930 C   0  0  0  0  0  0  0  0  0  0  0  0
   43.5590   81.4990   59.4020 C   0  0  0  0  0  0  0  0  0  0  0  0
   44.3640   80.9680   58.4360 C   0  0  0  0  0  0  0  0  0  0  0  0
   43.7950   80.5150   57.2920 C   0  0  0  0  0  0  0  0  0  0  0  0
   42.4050   80.6110   57.1380 C   0  0  0  0  0  0  0  0  0  0  0  0
   41.7460   80.2000   55.9800 C   0  0  0  0  0  0  0  0  0  0  0  0
   40.3890   80.3540   55.8790 C   0  0  0  0  0  0  0  0  0  0  0  0
   39.6500   80.9080   56.8840 C   0  0  0  0  0  0  0  0  0  0  0  0
   40.3110   81.3140   58.0320 C   0  0  0  0  0  0  0  0  0  0  0  0
   41.6510   81.1540   58.1330 C   0  0  0  0  0  0  0  0  0  0  0  0
   42.0400   84.5930   59.9820 N   0  0  0  0  0  0  0  0  0  0  0  0
   43.2840   85.1590   60.1680 C   0  0  0  0  0  0  0  0  0  0  0  0
   43.7660   86.2200   59.4350 C   0  0  0  0  0  0  0  0  0  0  0  0
   45.1110   86.7740   59.6900 C   0  0  0  0  0  0  0  0  0  0  0  0
   42.9140   86.7100   58.4670 C   0  0  0  0  0  0  0  0  0  0  0  0
   43.2780   87.6690   57.7640 O   0  0  0  0  0  0  0  0  0  0  0  0
   41.6980   86.1720   58.2720 N   0  0  0  0  0  0  0  0  0  0  0  0
   41.2400   85.1260   59.0050 C   0  0  0  0  0  0  0  0  0  0  0  0
   40.1140   84.5850   58.8650 O   0  0  0  0  0  0  0  0  0  0  0  0
   40.8769   80.2099   61.3499 H   0  0  0  0  0  0  0  0  0  0  0  0
   38.7856   83.5737   64.1028 H   0  0  0  0  0  0  0  0  0  0  0  0
   40.4919   86.1591   66.1773 H   0  0  0  0  0  0  0  0  0  0  0  0
   38.9278   85.7639   65.4157 H   0  0  0  0  0  0  0  0  0  0  0  0
   44.0330   81.8614   60.3261 H   0  0  0  0  0  0  0  0  0  0  0  0
   45.4525   80.9088   58.5829 H   0  0  0  0  0  0  0  0  0  0  0  0
   44.4154   80.0781   56.4956 H   0  0  0  0  0  0  0  0  0  0  0  0
   42.3141   79.7536   55.1505 H   0  0  0  0  0  0  0  0  0  0  0  0
   39.8802   80.0219   54.9621 H   0  0  0  0  0  0  0  0  0  0  0  0
   38.5611   81.0286   56.7853 H   0  0  0  0  0  0  0  0  0  0  0  0
   39.7468   81.7662   58.8610 H   0  0  0  0  0  0  0  0  0  0  0  0
   43.9312   84.7364   60.9506 H   0  0  0  0  0  0  0  0  0  0  0  0
   45.2794   86.8433   60.7748 H   0  0  0  0  0  0  0  0  0  0  0  0
   45.8698   86.1152   59.2426 H   0  0  0  0  0  0  0  0  0  0  0  0
   45.1857   87.7761   59.2426 H   0  0  0  0  0  0  0  0  0  0  0  0
   41.0917   86.5680   57.5396 H   0  0  0  0  0  0  0  0  0  0  0  0
  1  6  2  0
  2  3  2  0
  2  1  1  0
  3  4  1  0
  4  5  2  0
  5  7  1  0
  6  5  1  0
  7  8  1  0
  8  9  2  0
  8 10  1  0
  9 11  1  0
 12 13  2  0
 12  2  1  0
 14 13  1  0
 15 14  2  0
 16 15  1  0
 16 21  2  0
 17 16  1  0
 18 17  2  0
 18 19  1  0
 19 20  2  0
 20 21  1  0
 21 12  1  0
 22 23  1  0
 22  3  1  0
 24 25  1  0
 24 23  2  0
 26 24  1  0
 27 26  2  0
 28 26  1  0
 28 29  1  0
 29 22  1  0
 30 29  2  0
  1 31  1  0
  7 32  1  0
 10 33  1  0
 10 34  1  0
 13 35  1  0
 14 36  1  0
 15 37  1  0
 17 38  1  0
 18 39  1  0
 19 40  1  0
 20 41  1  0
 23 42  1  0
 25 43  1  0
 25 44  1  0
 25 45  1  0
 28 46  1  0
M  END
>  <Score>  (1) 
-7.5029

$$$$
