
     RDKit          3D

 32 35  0  0  0  0  0  0  0  0999 V2000
   39.8820   82.2310   60.3170 C   0  0  0  0  0  0  0  0  0  0  0  0
   40.2400   83.2220   59.3440 C   0  0  0  0  0  0  0  0  0  0  0  0
   39.9560   84.5550   59.6180 C   0  0  0  0  0  0  0  0  0  0  0  0
   39.3440   84.8310   60.8260 N   0  0  0  0  0  0  0  0  0  0  0  0
   39.0130   83.8580   61.7450 C   0  0  0  0  0  0  0  0  0  0  0  0
   39.2680   82.5340   61.5260 N   0  0  0  0  0  0  0  0  0  0  0  0
   40.1830   80.8920   59.9750 N   0  0  0  0  0  0  0  0  0  0  0  0
   40.4170   80.4050   58.7680 C   0  0  0  0  0  0  0  0  0  0  0  0
   40.7120   79.1030   58.8190 N   0  0  0  0  0  0  0  0  0  0  0  0
   40.6580   78.7410   60.1160 C   0  0  0  0  0  0  0  0  0  0  0  0
   40.8480   77.5070   60.6950 C   0  0  0  0  0  0  0  0  0  0  0  0
   41.1580   76.5270   59.9450 O   0  0  0  0  0  0  0  0  0  0  0  0
   40.6970   77.4100   62.0080 N   0  0  0  0  0  0  0  0  0  0  0  0
   40.3720   78.4920   62.7150 C   0  0  0  0  0  0  0  0  0  0  0  0
   40.2270   78.2320   64.0900 N   0  0  0  0  0  0  0  0  0  0  0  0
   40.1800   79.7190   62.1750 N   0  0  0  0  0  0  0  0  0  0  0  0
   40.3180   79.8870   60.8470 C   0  0  0  0  0  0  0  0  0  0  0  0
   40.3240   80.9450   57.4140 C   0  0  0  0  0  0  0  0  0  0  0  0
   39.1350   80.3520   56.6420 C   0  0  0  0  0  0  0  0  0  0  0  0
   38.9030   80.6540   55.3340 N   0  0  0  0  0  0  0  0  0  0  0  0
   37.8430   80.0170   54.9430 O   0  0  0  0  0  0  0  0  0  0  0  0
   37.3560   79.3000   55.9390 C   0  0  0  0  0  0  0  0  0  0  0  0
   38.1440   79.4890   57.0130 N   0  0  0  0  0  0  0  0  0  0  0  0
   40.7286   82.9336   58.4016 H   0  0  0  0  0  0  0  0  0  0  0  0
   40.2072   85.3543   58.9052 H   0  0  0  0  0  0  0  0  0  0  0  0
   38.5276   84.1577   62.6855 H   0  0  0  0  0  0  0  0  0  0  0  0
   40.8300   76.5038   62.4793 H   0  0  0  0  0  0  0  0  0  0  0  0
   39.9767   78.9952   64.7348 H   0  0  0  0  0  0  0  0  0  0  0  0
   40.3712   77.2785   64.4518 H   0  0  0  0  0  0  0  0  0  0  0  0
   40.2006   82.0364   57.4739 H   0  0  0  0  0  0  0  0  0  0  0  0
   41.2464   80.6796   56.8766 H   0  0  0  0  0  0  0  0  0  0  0  0
   36.4623   78.6600   55.8979 H   0  0  0  0  0  0  0  0  0  0  0  0
  1  6  2  0
  2  3  2  0
  2  1  1  0
  3  4  1  0
  4  5  2  0
  6  5  1  0
  7  1  1  0
  7 17  1  0
  8  9  2  0
  8  7  1  0
  9 10  1  0
 10 11  1  0
 10 17  2  0
 11 13  1  0
 12 11  2  0
 13 14  1  0
 14 15  1  0
 16 14  2  0
 17 16  1  0
 18  8  1  0
 19 23  1  0
 19 18  1  0
 20 19  2  0
 21 20  1  0
 21 22  1  0
 22 23  2  0
  2 24  1  0
  3 25  1  0
  5 26  1  0
 13 27  1  0
 15 28  1  0
 15 29  1  0
 18 30  1  0
 18 31  1  0
 22 32  1  0
M  END
>  <Score>  (1) 
-7.00346

$$$$
