
     RDKit          3D

 51 55  0  0  0  0  0  0  0  0999 V2000
   41.4880   81.2260   57.9500 N   0  0  0  0  0  0  0  0  0  0  0  0
   40.5650   80.4920   58.5620 N   0  0  0  0  0  0  0  0  0  0  0  0
   40.6150   79.2250   58.1150 C   0  0  0  0  0  0  0  0  0  0  0  0
   41.6330   79.2280   57.1830 C   0  0  0  0  0  0  0  0  0  0  0  0
   42.1840   80.4950   57.0800 C   0  0  0  0  0  0  0  0  0  0  0  0
   39.7790   78.0890   58.5220 C   0  0  0  0  0  0  0  0  0  0  0  0
   40.0250   77.4110   59.7070 C   0  0  0  0  0  0  0  0  0  0  0  0
   39.2050   76.3740   60.0050 C   0  0  0  0  0  0  0  0  0  0  0  0
   38.1480   75.9560   59.2090 C   0  0  0  0  0  0  0  0  0  0  0  0
   37.9450   76.6610   58.0450 C   0  0  0  0  0  0  0  0  0  0  0  0
   38.7440   77.7110   57.7020 C   0  0  0  0  0  0  0  0  0  0  0  0
   38.4460   78.3830   56.4590 N   0  0  0  0  0  0  0  0  0  0  0  0
   37.6250   79.4780   56.6540 C   0  0  0  0  0  0  0  0  0  0  0  0
   37.2070   80.2720   55.6230 C   0  0  0  0  0  0  0  0  0  0  0  0
   37.6440   79.9350   54.3410 C   0  0  0  0  0  0  0  0  0  0  0  0
   37.2800   80.6780   53.1890 N   0  0  0  0  0  0  0  0  0  0  0  0
   38.4330   78.8710   54.2040 N   0  0  0  0  0  0  0  0  0  0  0  0
   38.8280   78.1120   55.2230 C   0  0  0  0  0  0  0  0  0  0  0  0
   39.5590   77.1120   55.1680 O   0  0  0  0  0  0  0  0  0  0  0  0
   41.5720   84.9040   57.5430 C   0  0  0  0  0  0  0  0  0  0  0  0
   41.3530   83.5550   57.2490 C   0  0  0  0  0  0  0  0  0  0  0  0
   41.6920   82.6180   58.2030 C   0  0  0  0  0  0  0  0  0  0  0  0
   42.2190   83.0530   59.3750 N   0  0  0  0  0  0  0  0  0  0  0  0
   42.4090   84.3690   59.6050 C   0  0  0  0  0  0  0  0  0  0  0  0
   42.0910   85.2980   58.7040 N   0  0  0  0  0  0  0  0  0  0  0  0
   42.9970   84.7180   60.9360 C   0  0  0  0  0  0  0  0  0  0  0  0
   42.0310   84.3600   62.0120 C   0  0  0  0  0  0  0  0  0  0  0  0
   40.7300   83.9380   61.8270 C   0  0  0  0  0  0  0  0  0  0  0  0
   39.9470   83.6380   62.9430 C   0  0  0  0  0  0  0  0  0  0  0  0
   40.4590   83.7580   64.2310 C   0  0  0  0  0  0  0  0  0  0  0  0
   41.7560   84.1780   64.4410 C   0  0  0  0  0  0  0  0  0  0  0  0
   42.5200   84.4720   63.3130 C   0  0  0  0  0  0  0  0  0  0  0  0
   41.9598   78.3508   56.6052 H   0  0  0  0  0  0  0  0  0  0  0  0
   43.0078   80.8227   56.4288 H   0  0  0  0  0  0  0  0  0  0  0  0
   40.8490   77.7022   60.3750 H   0  0  0  0  0  0  0  0  0  0  0  0
   39.3898   75.8267   60.9411 H   0  0  0  0  0  0  0  0  0  0  0  0
   37.5077   75.1078   59.4929 H   0  0  0  0  0  0  0  0  0  0  0  0
   37.1205   76.3713   57.3770 H   0  0  0  0  0  0  0  0  0  0  0  0
   37.2963   79.7190   57.6757 H   0  0  0  0  0  0  0  0  0  0  0  0
   36.5538   81.1399   55.7963 H   0  0  0  0  0  0  0  0  0  0  0  0
   37.6260   80.3929   52.2617 H   0  0  0  0  0  0  0  0  0  0  0  0
   36.6696   81.5027   53.2797 H   0  0  0  0  0  0  0  0  0  0  0  0
   41.3074   85.6631   56.7922 H   0  0  0  0  0  0  0  0  0  0  0  0
   40.9224   83.2492   56.2840 H   0  0  0  0  0  0  0  0  0  0  0  0
   43.9329   84.1588   61.0819 H   0  0  0  0  0  0  0  0  0  0  0  0
   43.2064   85.7972   60.9740 H   0  0  0  0  0  0  0  0  0  0  0  0
   40.3154   83.8393   60.8129 H   0  0  0  0  0  0  0  0  0  0  0  0
   38.9093   83.3016   62.8019 H   0  0  0  0  0  0  0  0  0  0  0  0
   39.8210   83.5147   65.0934 H   0  0  0  0  0  0  0  0  0  0  0  0
   42.1697   84.2767   65.4555 H   0  0  0  0  0  0  0  0  0  0  0  0
   43.5576   84.8082   63.4558 H   0  0  0  0  0  0  0  0  0  0  0  0
  1 22  1  0
  1  2  1  0
  3  6  1  0
  3  2  2  0
  4  3  1  0
  5  4  2  0
  5  1  1  0
  6  7  2  0
  7  8  1  0
  9  8  2  0
 10  9  1  0
 11 10  2  0
 11  6  1  0
 12 13  1  0
 12 11  1  0
 14 13  2  0
 15 14  1  0
 16 15  1  0
 17 15  2  0
 17 18  1  0
 18 12  1  0
 19 18  2  0
 20 25  2  0
 21 20  1  0
 21 22  2  0
 22 23  1  0
 23 24  2  0
 24 26  1  0
 25 24  1  0
 26 27  1  0
 27 32  1  0
 28 27  2  0
 28 29  1  0
 29 30  2  0
 30 31  1  0
 32 31  2  0
  4 33  1  0
  5 34  1  0
  7 35  1  0
  8 36  1  0
  9 37  1  0
 10 38  1  0
 13 39  1  0
 14 40  1  0
 16 41  1  0
 16 42  1  0
 20 43  1  0
 21 44  1  0
 26 45  1  0
 26 46  1  0
 28 47  1  0
 29 48  1  0
 30 49  1  0
 31 50  1  0
 32 51  1  0
M  END
>  <Score>  (1) 
-7.35097

$$$$
