
     RDKit          3D

 45 48  0  0  0  0  0  0  0  0999 V2000
   44.5890   85.4940   61.3180 C   0  0  0  0  0  0  0  0  0  0  0  0
   45.3510   84.3940   61.7520 C   0  0  0  0  0  0  0  0  0  0  0  0
   44.6930   83.2210   62.0670 C   0  0  0  0  0  0  0  0  0  0  0  0
   43.3450   83.2090   61.9360 N   0  0  0  0  0  0  0  0  0  0  0  0
   42.6240   84.2520   61.5260 C   0  0  0  0  0  0  0  0  0  0  0  0
   43.2500   85.4000   61.2150 N   0  0  0  0  0  0  0  0  0  0  0  0
   45.3930   82.0400   62.5210 C   0  0  0  0  0  0  0  0  0  0  0  0
   44.9530   80.7510   62.2340 C   0  0  0  0  0  0  0  0  0  0  0  0
   45.5960   79.6020   62.6510 C   0  0  0  0  0  0  0  0  0  0  0  0
   46.7470   79.7820   63.4000 C   0  0  0  0  0  0  0  0  0  0  0  0
   47.2350   81.0220   63.7180 C   0  0  0  0  0  0  0  0  0  0  0  0
   46.5320   82.1210   63.2630 C   0  0  0  0  0  0  0  0  0  0  0  0
   41.1910   84.1440   61.4170 C   0  0  0  0  0  0  0  0  0  0  0  0
   40.4370   84.2390   60.2880 C   0  0  0  0  0  0  0  0  0  0  0  0
   39.1360   84.0820   60.6000 N   0  0  0  0  0  0  0  0  0  0  0  0
   39.0320   83.8880   61.9170 C   0  0  0  0  0  0  0  0  0  0  0  0
   40.2810   83.9250   62.4130 N   0  0  0  0  0  0  0  0  0  0  0  0
   37.8390   83.6770   62.6780 N   0  0  0  0  0  0  0  0  0  0  0  0
   40.8610   84.4650   58.9460 N   0  0  0  0  0  0  0  0  0  0  0  0
   41.5720   83.5810   58.0140 C   0  0  0  0  0  0  0  0  0  0  0  0
   42.8920   84.2970   57.7220 C   0  0  0  0  0  0  0  0  0  0  0  0
   42.6070   85.5020   57.1240 O   0  0  0  0  0  0  0  0  0  0  0  0
   41.9110   86.3740   57.9450 C   0  0  0  0  0  0  0  0  0  0  0  0
   40.5800   85.7620   58.3250 C   0  0  0  0  0  0  0  0  0  0  0  0
   40.6530   83.7600   63.8050 C   0  0  0  0  0  0  0  0  0  0  0  0
   40.8750   82.4340   64.0630 F   0  0  0  0  0  0  0  0  0  0  0  0
   39.6400   84.2150   64.6470 F   0  0  0  0  0  0  0  0  0  0  0  0
   41.7440   84.5710   64.1540 F   0  0  0  0  0  0  0  0  0  0  0  0
   45.0912   86.4383   61.0608 H   0  0  0  0  0  0  0  0  0  0  0  0
   46.4452   84.4663   61.8385 H   0  0  0  0  0  0  0  0  0  0  0  0
   44.0354   80.6405   61.6375 H   0  0  0  0  0  0  0  0  0  0  0  0
   45.2154   78.6004   62.4023 H   0  0  0  0  0  0  0  0  0  0  0  0
   47.2911   78.8938   63.7537 H   0  0  0  0  0  0  0  0  0  0  0  0
   48.1525   81.1384   64.3135 H   0  0  0  0  0  0  0  0  0  0  0  0
   46.9151   83.1208   63.5151 H   0  0  0  0  0  0  0  0  0  0  0  0
   37.8959   83.5389   63.6971 H   0  0  0  0  0  0  0  0  0  0  0  0
   36.9232   83.6632   62.2068 H   0  0  0  0  0  0  0  0  0  0  0  0
   41.7577   82.6002   58.4762 H   0  0  0  0  0  0  0  0  0  0  0  0
   40.9921   83.3919   57.0986 H   0  0  0  0  0  0  0  0  0  0  0  0
   43.4380   84.4680   58.6615 H   0  0  0  0  0  0  0  0  0  0  0  0
   43.5171   83.6827   57.0573 H   0  0  0  0  0  0  0  0  0  0  0  0
   42.4981   86.5671   58.8550 H   0  0  0  0  0  0  0  0  0  0  0  0
   41.7384   87.3195   57.4100 H   0  0  0  0  0  0  0  0  0  0  0  0
   40.0546   86.4150   59.0374 H   0  0  0  0  0  0  0  0  0  0  0  0
   39.9391   85.6402   57.4393 H   0  0  0  0  0  0  0  0  0  0  0  0
  1  2  2  0
  2  3  1  0
  3  7  1  0
  4  3  2  0
  5  4  1  0
  6  1  1  0
  6  5  2  0
  7 12  1  0
  8  7  2  0
  8  9  1  0
  9 10  2  0
 10 11  1  0
 12 11  2  0
 13  5  1  0
 13 17  1  0
 14 15  1  0
 14 13  2  0
 15 16  2  0
 16 17  1  0
 16 18  1  0
 17 25  1  0
 19 14  1  0
 20 19  1  0
 21 20  1  0
 22 21  1  0
 22 23  1  0
 23 24  1  0
 24 19  1  0
 25 26  1  0
 25 28  1  0
 25 27  1  0
  1 29  1  0
  2 30  1  0
  8 31  1  0
  9 32  1  0
 10 33  1  0
 11 34  1  0
 12 35  1  0
 18 36  1  0
 18 37  1  0
 20 38  1  0
 20 39  1  0
 21 40  1  0
 21 41  1  0
 23 42  1  0
 23 43  1  0
 24 44  1  0
 24 45  1  0
M  END
>  <Score>  (1) 
-7.1542

$$$$
