
     RDKit          3D

 51 55  0  0  0  0  0  0  0  0999 V2000
   42.9840   84.4420   58.2700 C   0  0  0  0  0  0  0  0  0  0  0  0
   43.9360   84.2710   57.2850 C   0  0  0  0  0  0  0  0  0  0  0  0
   43.6390   83.5170   56.2130 C   0  0  0  0  0  0  0  0  0  0  0  0
   42.4200   82.9210   56.0820 C   0  0  0  0  0  0  0  0  0  0  0  0
   41.5830   83.4930   57.6700 S   0  0  0  0  0  0  0  0  0  0  0  0
   41.7940   82.1150   55.1610 C   0  0  0  0  0  0  0  0  0  0  0  0
   42.1550   82.0950   53.8150 C   0  0  0  0  0  0  0  0  0  0  0  0
   41.4950   81.2620   52.9160 C   0  0  0  0  0  0  0  0  0  0  0  0
   40.4960   80.4680   53.3590 N   0  0  0  0  0  0  0  0  0  0  0  0
   40.1460   80.4840   54.6560 C   0  0  0  0  0  0  0  0  0  0  0  0
   40.7870   81.2880   55.5040 N   0  0  0  0  0  0  0  0  0  0  0  0
   39.0830   79.6240   55.0640 N   0  0  0  0  0  0  0  0  0  0  0  0
   38.4100   78.8270   54.2420 C   0  0  0  0  0  0  0  0  0  0  0  0
   37.4090   78.0470   54.7590 C   0  0  0  0  0  0  0  0  0  0  0  0
   36.6350   77.1480   53.8790 C   0  0  0  0  0  0  0  0  0  0  0  0
   37.0930   78.0770   56.1140 C   0  0  0  0  0  0  0  0  0  0  0  0
   36.1770   77.3760   56.6460 O   0  0  0  0  0  0  0  0  0  0  0  0
   37.7960   78.8980   56.9300 N   0  0  0  0  0  0  0  0  0  0  0  0
   38.7650   79.6420   56.3800 C   0  0  0  0  0  0  0  0  0  0  0  0
   39.3830   80.3880   57.2020 O   0  0  0  0  0  0  0  0  0  0  0  0
   42.9840   85.1840   59.5350 C   0  0  0  0  0  0  0  0  0  0  0  0
   43.1990   86.4140   59.5230 O   0  0  0  0  0  0  0  0  0  0  0  0
   42.5990   84.4050   63.1630 C   0  0  0  0  0  0  0  0  0  0  0  0
   42.8530   85.1340   61.9890 C   0  0  0  0  0  0  0  0  0  0  0  0
   42.7380   84.4960   60.7780 C   0  0  0  0  0  0  0  0  0  0  0  0
   42.3850   83.1910   60.7870 N   0  0  0  0  0  0  0  0  0  0  0  0
   42.1410   82.4910   61.9170 C   0  0  0  0  0  0  0  0  0  0  0  0
   42.2510   83.1050   63.0920 N   0  0  0  0  0  0  0  0  0  0  0  0
   41.7700   81.1180   61.8990 N   0  0  0  0  0  0  0  0  0  0  0  0
   42.7550   80.2240   61.8330 C   0  0  0  0  0  0  0  0  0  0  0  0
   42.3820   78.8860   61.8160 C   0  0  0  0  0  0  0  0  0  0  0  0
   41.0500   78.5800   61.8670 C   0  0  0  0  0  0  0  0  0  0  0  0
   40.5590   77.2430   61.8550 N   0  0  0  0  0  0  0  0  0  0  0  0
   40.0760   79.5260   61.9340 N   0  0  0  0  0  0  0  0  0  0  0  0
   40.4430   80.8430   61.9510 C   0  0  0  0  0  0  0  0  0  0  0  0
   39.5960   81.8000   62.0120 O   0  0  0  0  0  0  0  0  0  0  0  0
   44.9242   84.7455   57.3764 H   0  0  0  0  0  0  0  0  0  0  0  0
   44.3945   83.3780   55.4256 H   0  0  0  0  0  0  0  0  0  0  0  0
   42.9692   82.7437   53.4597 H   0  0  0  0  0  0  0  0  0  0  0  0
   41.7843   81.2504   51.8548 H   0  0  0  0  0  0  0  0  0  0  0  0
   38.6510   78.7937   53.1692 H   0  0  0  0  0  0  0  0  0  0  0  0
   36.0397   76.4566   54.4935 H   0  0  0  0  0  0  0  0  0  0  0  0
   35.9638   77.7450   53.2441 H   0  0  0  0  0  0  0  0  0  0  0  0
   37.3251   76.5730   53.2441 H   0  0  0  0  0  0  0  0  0  0  0  0
   37.5928   78.9487   57.9385 H   0  0  0  0  0  0  0  0  0  0  0  0
   42.6845   84.8969   64.1431 H   0  0  0  0  0  0  0  0  0  0  0  0
   43.1384   86.1952   62.0387 H   0  0  0  0  0  0  0  0  0  0  0  0
   43.8109   80.5298   61.7939 H   0  0  0  0  0  0  0  0  0  0  0  0
   43.1404   78.0910   61.7628 H   0  0  0  0  0  0  0  0  0  0  0  0
   39.5451   77.0663   61.8952 H   0  0  0  0  0  0  0  0  0  0  0  0
   41.2179   76.4528   61.8061 H   0  0  0  0  0  0  0  0  0  0  0  0
  1 21  1  0
  2  1  2  0
  3  2  1  0
  4  3  2  0
  4  5  1  0
  5  1  1  0
  6 11  1  0
  6  4  1  0
  7  6  2  0
  8  9  2  0
  8  7  1  0
  9 10  1  0
 10 12  1  0
 10 11  2  0
 12 19  1  0
 13 14  2  0
 13 12  1  0
 14 16  1  0
 15 14  1  0
 16 17  2  0
 16 18  1  0
 19 18  1  0
 19 20  2  0
 21 25  1  0
 22 21  2  0
 24 23  2  0
 25 26  2  0
 25 24  1  0
 26 27  1  0
 27 28  2  0
 28 23  1  0
 29 27  1  0
 29 35  1  0
 30 29  1  0
 31 30  2  0
 31 32  1  0
 32 34  2  0
 33 32  1  0
 34 35  1  0
 35 36  2  0
  2 37  1  0
  3 38  1  0
  7 39  1  0
  8 40  1  0
 13 41  1  0
 15 42  1  0
 15 43  1  0
 15 44  1  0
 18 45  1  0
 23 46  1  0
 24 47  1  0
 30 48  1  0
 31 49  1  0
 33 50  1  0
 33 51  1  0
M  END
>  <Score>  (1) 
-8.07903

$$$$
