
     RDKit          3D

 47 49  0  0  0  0  0  0  0  0999 V2000
   41.8250   80.3570   60.8660 C   0  0  0  0  0  0  0  0  0  0  0  0
   42.2690   79.4970   61.8700 C   0  0  0  0  0  0  0  0  0  0  0  0
   41.5990   78.2820   61.7610 C   0  0  0  0  0  0  0  0  0  0  0  0
   40.7660   78.4630   60.6780 C   0  0  0  0  0  0  0  0  0  0  0  0
   40.9430   79.6650   60.2120 O   0  0  0  0  0  0  0  0  0  0  0  0
   39.8300   77.4710   60.1310 C   0  0  0  0  0  0  0  0  0  0  0  0
   39.5320   76.3340   60.8430 C   0  0  0  0  0  0  0  0  0  0  0  0
   38.6530   75.3760   60.3590 C   0  0  0  0  0  0  0  0  0  0  0  0
   38.1160   75.6660   59.1170 C   0  0  0  0  0  0  0  0  0  0  0  0
   38.3930   76.7820   58.3940 C   0  0  0  0  0  0  0  0  0  0  0  0
   39.2610   77.6840   58.9200 N   0  0  0  0  0  0  0  0  0  0  0  0
   37.8280   77.1100   57.0670 C   0  0  0  0  0  0  0  0  0  0  0  0
   37.9960   75.9570   56.0820 C   0  0  0  0  0  0  0  0  0  0  0  0
   36.3520   77.3840   57.1610 C   0  0  0  0  0  0  0  0  0  0  0  0
   38.4850   78.3270   56.4680 C   0  0  0  0  0  0  0  0  0  0  0  0
   43.4600   82.0220   59.9380 C   0  0  0  0  0  0  0  0  0  0  0  0
   42.3500   81.7080   60.7260 C   0  0  0  0  0  0  0  0  0  0  0  0
   41.7250   82.7410   61.4020 C   0  0  0  0  0  0  0  0  0  0  0  0
   42.2180   84.0160   61.2720 N   0  0  0  0  0  0  0  0  0  0  0  0
   43.3010   84.2530   60.4890 C   0  0  0  0  0  0  0  0  0  0  0  0
   43.9060   83.2560   59.8350 N   0  0  0  0  0  0  0  0  0  0  0  0
   43.7050   85.6980   60.4600 C   0  0  0  0  0  0  0  0  0  0  0  0
   45.0670   85.7620   60.0800 F   0  0  0  0  0  0  0  0  0  0  0  0
   43.6570   86.2710   61.7150 F   0  0  0  0  0  0  0  0  0  0  0  0
   42.9260   86.3580   59.5700 F   0  0  0  0  0  0  0  0  0  0  0  0
   40.5610   82.5630   62.2570 C   0  0  0  0  0  0  0  0  0  0  0  0
   39.4160   82.3800   61.7450 O   0  0  0  0  0  0  0  0  0  0  0  0
   40.6920   82.5920   63.6440 O   0  0  0  0  0  0  0  0  0  0  0  0
   40.7830   83.8420   64.3240 C   0  0  0  0  0  0  0  0  0  0  0  0
   42.1060   84.0980   64.5830 F   0  0  0  0  0  0  0  0  0  0  0  0
   40.3950   84.8110   63.3920 F   0  0  0  0  0  0  0  0  0  0  0  0
   39.9510   83.9400   65.4010 F   0  0  0  0  0  0  0  0  0  0  0  0
   43.0283   79.7403   62.6278 H   0  0  0  0  0  0  0  0  0  0  0  0
   41.7086   77.3872   62.3913 H   0  0  0  0  0  0  0  0  0  0  0  0
   40.0038   76.1791   61.8245 H   0  0  0  0  0  0  0  0  0  0  0  0
   38.4034   74.4612   60.9166 H   0  0  0  0  0  0  0  0  0  0  0  0
   37.4132   74.9393   58.6834 H   0  0  0  0  0  0  0  0  0  0  0  0
   38.1329   75.0174   56.6373 H   0  0  0  0  0  0  0  0  0  0  0  0
   37.0993   75.8817   55.4493 H   0  0  0  0  0  0  0  0  0  0  0  0
   38.8769   76.1407   55.4493 H   0  0  0  0  0  0  0  0  0  0  0  0
   36.0559   77.4390   58.2190 H   0  0  0  0  0  0  0  0  0  0  0  0
   36.1243   78.3398   56.6664 H   0  0  0  0  0  0  0  0  0  0  0  0
   35.7964   76.5736   56.6664 H   0  0  0  0  0  0  0  0  0  0  0  0
   38.8406   78.9858   57.2739 H   0  0  0  0  0  0  0  0  0  0  0  0
   39.3373   78.0151   55.8464 H   0  0  0  0  0  0  0  0  0  0  0  0
   37.7566   78.8684   55.8464 H   0  0  0  0  0  0  0  0  0  0  0  0
   43.9738   81.2183   59.3902 H   0  0  0  0  0  0  0  0  0  0  0  0
  1  2  2  0
  3  2  1  0
  4  3  2  0
  5  4  1  0
  5  1  1  0
  6  4  1  0
  6  7  2  0
  8  7  1  0
  9  8  2  0
 10 11  2  0
 10  9  1  0
 11  6  1  0
 12 14  1  0
 12 10  1  0
 13 12  1  0
 15 12  1  0
 16 17  2  0
 17  1  1  0
 17 18  1  0
 18 26  1  0
 19 18  2  0
 20 19  1  0
 21 16  1  0
 21 20  2  0
 22 20  1  0
 22 24  1  0
 23 22  1  0
 25 22  1  0
 26 28  1  0
 27 26  2  0
 28 29  1  0
 29 30  1  0
 29 32  1  0
 31 29  1  0
  2 33  1  0
  3 34  1  0
  7 35  1  0
  8 36  1  0
  9 37  1  0
 13 38  1  0
 13 39  1  0
 13 40  1  0
 14 41  1  0
 14 42  1  0
 14 43  1  0
 15 44  1  0
 15 45  1  0
 15 46  1  0
 16 47  1  0
M  END
>  <Score>  (1) 
-7.45333

$$$$
