
     RDKit          3D

 49 52  0  0  1  0  0  0  0  0999 V2000
   39.6220   77.2080   59.7310 C   0  0  0  0  0  0  0  0  0  0  0  0
   38.8980   76.4400   60.4150 O   0  0  0  0  0  0  0  0  0  0  0  0
   40.5010   80.5370   60.9660 N   0  0  0  0  0  0  0  0  0  0  0  0
   39.8100   79.5890   60.3120 C   0  0  0  0  0  0  0  0  0  0  0  0
   40.2460   78.3200   60.4010 C   0  0  0  0  0  0  0  0  0  0  0  0
   41.3660   78.0600   61.1520 C   0  0  0  0  0  0  0  0  0  0  0  0
   41.8990   76.7540   61.3240 N   0  0  0  0  0  0  0  0  0  0  0  0
   42.0460   79.0470   61.8070 N   0  0  0  0  0  0  0  0  0  0  0  0
   41.6050   80.3390   61.7170 C   0  0  0  0  0  0  0  0  0  0  0  0
   42.1790   81.2960   62.2900 O   0  0  0  0  0  0  0  0  0  0  0  0
   40.0330   81.8770   60.8460 C   0  0  0  0  0  0  0  0  0  0  0  0
   40.2460   82.6360   59.6890 C   0  0  0  0  0  0  0  0  0  0  0  0
   39.7330   83.9540   59.6890 C   0  0  0  0  0  0  0  0  0  0  0  0
   39.0740   84.3810   60.8100 N   0  0  0  0  0  0  0  0  0  0  0  0
   38.9010   83.6050   61.8910 C   0  0  0  0  0  0  0  0  0  0  0  0
   39.3810   82.3390   61.9200 N   0  0  0  0  0  0  0  0  0  0  0  0
   39.7400   76.8920   58.3980 O   0  0  0  0  0  0  0  0  0  0  0  0
   37.4400   76.6980   58.0280 N   0  0  0  0  0  0  0  0  0  0  0  0
   36.4060   77.3090   57.2450 C   0  0  0  0  0  0  0  0  0  0  0  0
   37.0640   78.4480   56.4890 C   0  0  0  0  0  0  0  0  0  0  0  0
   38.3820   78.5850   57.2360 C   0  0  0  0  0  0  0  0  0  0  0  0
   38.6980   77.1090   57.5050 C   0  0  1  0  0  0  0  0  0  0  0  0
   39.0370   76.6060   56.1820 N   0  0  0  0  0  0  0  0  0  0  0  0
   38.8830   77.6220   55.1610 C   0  0  0  0  0  0  0  0  0  0  0  0
   39.4260   77.0210   53.8780 C   0  0  0  0  0  0  0  0  0  0  0  0
   38.8030   75.8310   53.5470 O   0  0  0  0  0  0  0  0  0  0  0  0
   37.7020   75.5870   54.3880 C   0  0  0  0  0  0  0  0  0  0  0  0
   38.1460   75.5350   55.8560 C   0  0  0  0  0  0  0  0  0  0  0  0
   38.9164   79.8424   59.7227 H   0  0  0  0  0  0  0  0  0  0  0  0
   42.7425   76.6135   61.8982 H   0  0  0  0  0  0  0  0  0  0  0  0
   41.4419   75.9479   60.8744 H   0  0  0  0  0  0  0  0  0  0  0  0
   40.7860   82.2272   58.8222 H   0  0  0  0  0  0  0  0  0  0  0  0
   39.8593   84.6135   58.8177 H   0  0  0  0  0  0  0  0  0  0  0  0
   38.3627   84.0021   62.7643 H   0  0  0  0  0  0  0  0  0  0  0  0
   37.3564   76.9975   59.0100 H   0  0  0  0  0  0  0  0  0  0  0  0
   35.9800   76.5796   56.5404 H   0  0  0  0  0  0  0  0  0  0  0  0
   35.5840   77.6715   57.8797 H   0  0  0  0  0  0  0  0  0  0  0  0
   36.4679   79.3703   56.5530 H   0  0  0  0  0  0  0  0  0  0  0  0
   37.1764   78.2649   55.4102 H   0  0  0  0  0  0  0  0  0  0  0  0
   39.1550   79.0601   56.6141 H   0  0  0  0  0  0  0  0  0  0  0  0
   38.3388   79.2182   58.1345 H   0  0  0  0  0  0  0  0  0  0  0  0
   37.8212   77.8828   55.0401 H   0  0  0  0  0  0  0  0  0  0  0  0
   39.4198   78.5438   55.4296 H   0  0  0  0  0  0  0  0  0  0  0  0
   39.2729   77.7394   53.0592 H   0  0  0  0  0  0  0  0  0  0  0  0
   40.4939   76.8080   54.0336 H   0  0  0  0  0  0  0  0  0  0  0  0
   36.9646   76.3933   54.2615 H   0  0  0  0  0  0  0  0  0  0  0  0
   37.2563   74.6185   54.1174 H   0  0  0  0  0  0  0  0  0  0  0  0
   37.2564   75.6041   56.4993 H   0  0  0  0  0  0  0  0  0  0  0  0
   38.6793   74.5866   56.0175 H   0  0  0  0  0  0  0  0  0  0  0  0
  1  5  1  0
  1  2  2  0
  3  9  1  0
  4  5  2  0
  4  3  1  0
  5  6  1  0
  6  7  1  0
  6  8  2  0
  9  8  1  0
  9 10  2  0
 11  3  1  0
 11 16  1  0
 12 11  2  0
 13 12  1  0
 13 14  2  0
 14 15  1  0
 15 16  2  0
 17  1  1  0
 19 18  1  0
 20 21  1  0
 20 19  1  0
 21 22  1  0
 22 18  1  0
 22 17  1  1
 23 22  1  0
 24 23  1  0
 25 24  1  0
 26 25  1  0
 26 27  1  0
 27 28  1  0
 28 23  1  0
  4 29  1  0
  7 30  1  0
  7 31  1  0
 12 32  1  0
 13 33  1  0
 15 34  1  0
 18 35  1  0
 19 36  1  0
 19 37  1  0
 20 38  1  0
 20 39  1  0
 21 40  1  0
 21 41  1  0
 24 42  1  0
 24 43  1  0
 25 44  1  0
 25 45  1  0
 27 46  1  0
 27 47  1  0
 28 48  1  0
 28 49  1  0
M  END
>  <Score>  (1) 
-7.01926

$$$$
