
     RDKit          3D

 43 45  0  0  1  0  0  0  0  0999 V2000
   40.5940   84.1170   58.6560 C   0  0  0  0  0  0  0  0  0  0  0  0
   39.6720   84.8330   59.4080 C   0  0  0  0  0  0  0  0  0  0  0  0
   39.2430   84.2640   60.6110 C   0  0  0  0  0  0  0  0  0  0  0  0
   39.7530   83.0500   60.9660 N   0  0  0  0  0  0  0  0  0  0  0  0
   40.6450   82.3840   60.2150 C   0  0  0  0  0  0  0  0  0  0  0  0
   41.0740   82.9210   59.0410 N   0  0  0  0  0  0  0  0  0  0  0  0
   41.1230   81.1150   60.6740 N   0  0  0  0  0  0  0  0  0  0  0  0
   40.2310   80.0360   60.8850 C   0  0  0  0  0  0  0  0  0  0  0  0
   40.9500   78.7100   60.7520 C   0  0  0  0  0  0  0  0  0  0  0  0
   42.1480   78.5820   61.6360 C   0  0  0  0  0  0  0  0  0  0  0  0
   42.8660   79.8740   61.8680 C   0  0  0  0  0  0  0  0  0  0  0  0
   42.5410   80.9700   60.9140 C   0  0  2  0  0  0  0  0  0  0  0  0
   43.0650   82.2470   61.5130 C   0  0  0  0  0  0  0  0  0  0  0  0
   44.0810   82.9610   60.9370 C   0  0  0  0  0  0  0  0  0  0  0  0
   44.4940   84.1350   61.5650 C   0  0  0  0  0  0  0  0  0  0  0  0
   43.9080   84.5570   62.7100 N   0  0  0  0  0  0  0  0  0  0  0  0
   42.8990   83.8340   63.2670 C   0  0  0  0  0  0  0  0  0  0  0  0
   42.4900   82.6960   62.6690 N   0  0  0  0  0  0  0  0  0  0  0  0
   42.2790   84.2750   64.4670 N   0  0  0  0  0  0  0  0  0  0  0  0
   40.8680   84.2740   64.5960 C   0  0  0  0  0  0  0  0  0  0  0  0
   40.1690   83.4170   63.9040 N   0  0  0  0  0  0  0  0  0  0  0  0
   40.2690   85.2260   65.4900 N   0  0  0  0  0  0  0  0  0  0  0  0
   39.1140   83.4350   64.0270 H   0  0  0  0  0  0  0  0  0  0  0  0
   45.5740   84.9320   60.9910 C   0  0  0  0  0  0  0  0  0  0  0  0
   45.4020   86.1460   60.7070 O   0  0  0  0  0  0  0  0  0  0  0  0
   46.8130   84.3510   60.7550 O   0  0  0  0  0  0  0  0  0  0  0  0
   40.9464   84.5457   57.7062 H   0  0  0  0  0  0  0  0  0  0  0  0
   39.2940   85.8094   59.0706 H   0  0  0  0  0  0  0  0  0  0  0  0
   38.5146   84.7810   61.2530 H   0  0  0  0  0  0  0  0  0  0  0  0
   39.8028   80.1143   61.8952 H   0  0  0  0  0  0  0  0  0  0  0  0
   39.4352   80.0831   60.1271 H   0  0  0  0  0  0  0  0  0  0  0  0
   40.2440   77.9057   61.0062 H   0  0  0  0  0  0  0  0  0  0  0  0
   41.3090   78.6430   59.7144 H   0  0  0  0  0  0  0  0  0  0  0  0
   41.8207   78.1871   62.6091 H   0  0  0  0  0  0  0  0  0  0  0  0
   42.8534   77.9098   61.1256 H   0  0  0  0  0  0  0  0  0  0  0  0
   42.6173   80.2223   62.8813 H   0  0  0  0  0  0  0  0  0  0  0  0
   43.9342   79.6553   61.7230 H   0  0  0  0  0  0  0  0  0  0  0  0
   43.0018   80.7333   59.9436 H   0  0  0  0  0  0  0  0  0  0  0  0
   44.5573   82.6186   60.0064 H   0  0  0  0  0  0  0  0  0  0  0  0
   42.8619   84.5991   65.2520 H   0  0  0  0  0  0  0  0  0  0  0  0
   39.2458   85.2506   65.6059 H   0  0  0  0  0  0  0  0  0  0  0  0
   40.8628   85.8838   66.0150 H   0  0  0  0  0  0  0  0  0  0  0  0
   47.5465   84.8901   60.3658 H   0  0  0  0  0  0  0  0  0  0  0  0
  1  6  2  0
  1  2  1  0
  2  3  2  0
  3  4  1  0
  5  7  1  0
  5  4  2  0
  6  5  1  0
  7  8  1  0
  7 12  1  0
  9  8  1  0
  9 10  1  0
 10 11  1  0
 12 13  1  0
 12 11  1  0
 13 18  1  0
 14 13  2  0
 14 15  1  0
 15 16  2  0
 16 17  1  0
 17 19  1  0
 18 17  2  0
 19 20  1  0
 20 22  1  0
 21 23  1  0
 21 20  2  0
 24 15  1  0
 25 24  2  0
 26 24  1  0
  1 27  1  0
  2 28  1  0
  3 29  1  0
  8 30  1  0
  8 31  1  0
  9 32  1  0
  9 33  1  0
 10 34  1  0
 10 35  1  0
 11 36  1  0
 11 37  1  0
 12 38  1  6
 14 39  1  0
 19 40  1  0
 22 41  1  0
 22 42  1  0
 26 43  1  0
M  END
>  <Score>  (1) 
-7.15572

$$$$
