
     RDKit          3D

 47 51  0  0  1  0  0  0  0  0999 V2000
   41.2720   81.7190   59.2860 C   0  0  1  0  0  0  0  0  0  0  0  0
   41.9860   80.5730   59.8730 C   0  0  0  0  0  0  0  0  0  0  0  0
   41.3140   79.2460   59.7570 C   0  0  0  0  0  0  0  0  0  0  0  0
   40.5790   79.0040   58.4840 C   0  0  2  0  0  0  0  0  0  0  0  0
   39.8690   80.1530   57.8790 C   0  0  0  0  0  0  0  0  0  0  0  0
   40.5720   81.4380   57.9910 C   0  0  0  0  0  0  0  0  0  0  0  0
   39.6370   77.9310   58.6950 N   0  0  0  0  0  0  0  0  0  0  0  0
   39.5550   77.0620   59.7040 C   0  0  0  0  0  0  0  0  0  0  0  0
   38.5000   76.1820   59.5440 C   0  0  0  0  0  0  0  0  0  0  0  0
   37.9180   76.5400   58.3750 N   0  0  0  0  0  0  0  0  0  0  0  0
   38.6070   77.5760   57.8910 C   0  0  0  0  0  0  0  0  0  0  0  0
   38.1290   78.0830   56.6510 N   0  0  0  0  0  0  0  0  0  0  0  0
   37.3100   79.1420   56.3740 C   0  0  0  0  0  0  0  0  0  0  0  0
   37.1170   79.2380   55.0460 N   0  0  0  0  0  0  0  0  0  0  0  0
   37.7920   78.2640   54.4280 C   0  0  0  0  0  0  0  0  0  0  0  0
   37.9160   77.9350   53.0980 C   0  0  0  0  0  0  0  0  0  0  0  0
   37.3190   78.6320   52.2630 O   0  0  0  0  0  0  0  0  0  0  0  0
   38.6730   76.8800   52.7260 N   0  0  0  0  0  0  0  0  0  0  0  0
   39.2830   76.1850   53.7030 C   0  0  0  0  0  0  0  0  0  0  0  0
   40.0670   75.0840   53.2600 N   0  0  0  0  0  0  0  0  0  0  0  0
   39.1610   76.5060   55.0050 N   0  0  0  0  0  0  0  0  0  0  0  0
   38.4150   77.5520   55.4220 C   0  0  0  0  0  0  0  0  0  0  0  0
   40.1740   82.0090   61.5150 C   0  0  0  0  0  0  0  0  0  0  0  0
   40.4130   82.4660   60.2370 C   0  0  0  0  0  0  0  0  0  0  0  0
   39.7970   83.6600   59.8970 C   0  0  0  0  0  0  0  0  0  0  0  0
   39.0260   84.2880   60.7980 N   0  0  0  0  0  0  0  0  0  0  0  0
   38.8120   83.8180   62.0310 C   0  0  0  0  0  0  0  0  0  0  0  0
   39.3960   82.6490   62.4140 N   0  0  0  0  0  0  0  0  0  0  0  0
   42.0973   82.3988   59.0276 H   0  0  0  0  0  0  0  0  0  0  0  0
   42.9646   80.4977   59.3764 H   0  0  0  0  0  0  0  0  0  0  0  0
   42.0391   80.7817   60.9517 H   0  0  0  0  0  0  0  0  0  0  0  0
   42.0844   78.4671   59.8559 H   0  0  0  0  0  0  0  0  0  0  0  0
   40.5535   79.2242   60.5515 H   0  0  0  0  0  0  0  0  0  0  0  0
   41.3664   78.7632   57.7546 H   0  0  0  0  0  0  0  0  0  0  0  0
   38.8926   80.2524   58.3757 H   0  0  0  0  0  0  0  0  0  0  0  0
   39.7879   79.9363   56.8036 H   0  0  0  0  0  0  0  0  0  0  0  0
   41.3262   81.4746   57.1911 H   0  0  0  0  0  0  0  0  0  0  0  0
   39.7841   82.2023   57.9200 H   0  0  0  0  0  0  0  0  0  0  0  0
   40.2443   77.0472   60.5611 H   0  0  0  0  0  0  0  0  0  0  0  0
   38.1991   75.3679   60.2198 H   0  0  0  0  0  0  0  0  0  0  0  0
   36.8734   79.8160   57.1258 H   0  0  0  0  0  0  0  0  0  0  0  0
   38.7788   76.6185   51.7354 H   0  0  0  0  0  0  0  0  0  0  0  0
   40.5674   74.4995   53.9447 H   0  0  0  0  0  0  0  0  0  0  0  0
   40.1343   74.8712   52.2545 H   0  0  0  0  0  0  0  0  0  0  0  0
   40.6464   81.0641   61.8217 H   0  0  0  0  0  0  0  0  0  0  0  0
   39.9392   84.0903   58.8947 H   0  0  0  0  0  0  0  0  0  0  0  0
   38.1689   84.3715   62.7311 H   0  0  0  0  0  0  0  0  0  0  0  0
  1  2  1  0
  1 24  1  0
  3  2  1  0
  4  7  1  0
  4  3  1  0
  5  6  1  0
  5  4  1  0
  6  1  1  0
  7  8  1  0
  9  8  2  0
 10  9  1  0
 11 10  2  0
 11  7  1  0
 12 11  1  0
 13 12  1  0
 14 13  2  0
 15 14  1  0
 15 22  2  0
 16 15  1  0
 17 16  2  0
 18 16  1  0
 18 19  1  0
 19 21  2  0
 20 19  1  0
 21 22  1  0
 22 12  1  0
 23 28  2  0
 24 23  1  0
 25 24  2  0
 25 26  1  0
 26 27  2  0
 27 28  1  0
  1 29  1  6
  2 30  1  0
  2 31  1  0
  3 32  1  0
  3 33  1  0
  4 34  1  6
  5 35  1  0
  5 36  1  0
  6 37  1  0
  6 38  1  0
  8 39  1  0
  9 40  1  0
 13 41  1  0
 18 42  1  0
 20 43  1  0
 20 44  1  0
 23 45  1  0
 25 46  1  0
 27 47  1  0
M  END
>  <Score>  (1) 
-7.54463

$$$$
