
     RDKit          3D

 47 52  0  0  0  0  0  0  0  0999 V2000
   41.4150   80.3250   62.0990 C   0  0  0  0  0  0  0  0  0  0  0  0
   40.5380   79.2160   62.0350 C   0  0  0  0  0  0  0  0  0  0  0  0
   41.3100   78.1650   61.6980 N   0  0  0  0  0  0  0  0  0  0  0  0
   42.6070   78.5550   61.5550 C   0  0  0  0  0  0  0  0  0  0  0  0
   43.6650   77.7430   61.2360 C   0  0  0  0  0  0  0  0  0  0  0  0
   44.9350   78.3600   61.1850 C   0  0  0  0  0  0  0  0  0  0  0  0
   45.0400   79.7410   61.4660 C   0  0  0  0  0  0  0  0  0  0  0  0
   43.9070   80.5010   61.7850 C   0  0  0  0  0  0  0  0  0  0  0  0
   42.6850   79.9250   61.8170 C   0  0  0  0  0  0  0  0  0  0  0  0
   44.5040   81.6920   62.2340 C   0  0  0  0  0  0  0  0  0  0  0  0
   44.8030   82.3650   63.3790 C   0  0  0  0  0  0  0  0  0  0  0  0
   45.1770   83.6430   63.0390 N   0  0  0  0  0  0  0  0  0  0  0  0
   45.1550   83.8830   61.7210 C   0  0  0  0  0  0  0  0  0  0  0  0
   45.4580   85.0050   61.0220 C   0  0  0  0  0  0  0  0  0  0  0  0
   45.3360   84.9300   59.6540 C   0  0  0  0  0  0  0  0  0  0  0  0
   44.9300   83.7850   59.0370 C   0  0  0  0  0  0  0  0  0  0  0  0
   44.6440   82.6940   59.8200 C   0  0  0  0  0  0  0  0  0  0  0  0
   44.7290   82.6430   61.2200 C   0  0  0  0  0  0  0  0  0  0  0  0
   41.0490   81.7300   62.2610 C   0  0  0  0  0  0  0  0  0  0  0  0
   40.9130   82.5250   61.1460 C   0  0  0  0  0  0  0  0  0  0  0  0
   40.5540   83.8440   61.2150 C   0  0  0  0  0  0  0  0  0  0  0  0
   40.3170   84.3500   62.4660 N   0  0  0  0  0  0  0  0  0  0  0  0
   40.4360   83.5840   63.5820 C   0  0  0  0  0  0  0  0  0  0  0  0
   40.7970   82.3010   63.4880 N   0  0  0  0  0  0  0  0  0  0  0  0
   40.5240   84.6740   60.0270 C   0  0  0  0  0  0  0  0  0  0  0  0
   39.3570   85.1230   59.5510 C   0  0  0  0  0  0  0  0  0  0  0  0
   39.4710   85.9180   58.3940 C   0  0  0  0  0  0  0  0  0  0  0  0
   40.6750   86.1870   57.8350 C   0  0  0  0  0  0  0  0  0  0  0  0
   41.8400   85.7100   58.3520 C   0  0  0  0  0  0  0  0  0  0  0  0
   41.6620   84.9720   59.4370 N   0  0  0  0  0  0  0  0  0  0  0  0
   39.4539   79.2130   62.2213 H   0  0  0  0  0  0  0  0  0  0  0  0
   40.9678   77.2024   61.5670 H   0  0  0  0  0  0  0  0  0  0  0  0
   43.5322   76.6704   61.0311 H   0  0  0  0  0  0  0  0  0  0  0  0
   45.8299   77.7734   60.9300 H   0  0  0  0  0  0  0  0  0  0  0  0
   46.0264   80.2267   61.4338 H   0  0  0  0  0  0  0  0  0  0  0  0
   44.7538   81.9567   64.3992 H   0  0  0  0  0  0  0  0  0  0  0  0
   45.4496   84.3522   63.7345 H   0  0  0  0  0  0  0  0  0  0  0  0
   45.7847   85.9279   61.5235 H   0  0  0  0  0  0  0  0  0  0  0  0
   45.5716   85.8146   59.0441 H   0  0  0  0  0  0  0  0  0  0  0  0
   44.8341   83.7361   57.9423 H   0  0  0  0  0  0  0  0  0  0  0  0
   44.3193   81.7783   59.3041 H   0  0  0  0  0  0  0  0  0  0  0  0
   41.1008   82.0815   60.1570 H   0  0  0  0  0  0  0  0  0  0  0  0
   40.2337   84.0233   64.5700 H   0  0  0  0  0  0  0  0  0  0  0  0
   38.3909   84.8910   60.0230 H   0  0  0  0  0  0  0  0  0  0  0  0
   38.5609   86.3301   57.9336 H   0  0  0  0  0  0  0  0  0  0  0  0
   40.7125   86.8131   56.9313 H   0  0  0  0  0  0  0  0  0  0  0  0
   42.8276   85.9162   57.9138 H   0  0  0  0  0  0  0  0  0  0  0  0
  1 19  1  0
  2  1  2  0
  3  2  1  0
  4  3  1  0
  4  9  2  0
  5  4  1  0
  6  5  2  0
  6  7  1  0
  7  8  2  0
  8  9  1  0
  8 10  1  0
  9  1  1  0
 10 11  2  0
 12 11  1  0
 13 12  1  0
 14 13  2  0
 15 14  1  0
 16 15  2  0
 16 17  1  0
 17 18  2  0
 18 13  1  0
 18 10  1  0
 19 24  2  0
 20 21  2  0
 20 19  1  0
 21 22  1  0
 22 23  2  0
 24 23  1  0
 25 21  1  0
 26 25  2  0
 27 26  1  0
 28 29  1  0
 28 27  2  0
 29 30  2  0
 30 25  1  0
  2 31  1  0
  3 32  1  0
  5 33  1  0
  6 34  1  0
  7 35  1  0
 11 36  1  0
 12 37  1  0
 14 38  1  0
 15 39  1  0
 16 40  1  0
 17 41  1  0
 20 42  1  0
 23 43  1  0
 26 44  1  0
 27 45  1  0
 28 46  1  0
 29 47  1  0
M  END
>  <Score>  (1) 
-7.14233

$$$$
