
     RDKit          3D

 45 49  0  0  0  0  0  0  0  0999 V2000
   40.0530   77.9440   60.3020 C   0  0  0  0  0  0  0  0  0  0  0  0
   39.7260   76.8840   61.1190 C   0  0  0  0  0  0  0  0  0  0  0  0
   39.3500   75.6570   60.6960 C   0  0  0  0  0  0  0  0  0  0  0  0
   39.2990   75.4840   59.3480 C   0  0  0  0  0  0  0  0  0  0  0  0
   39.6200   76.5110   58.4640 C   0  0  0  0  0  0  0  0  0  0  0  0
   40.0020   77.7480   58.9500 C   0  0  0  0  0  0  0  0  0  0  0  0
   41.8330   84.3150   59.0070 C   0  0  0  0  0  0  0  0  0  0  0  0
   40.6690   85.0810   58.8300 C   0  0  0  0  0  0  0  0  0  0  0  0
   39.4960   84.6100   59.3900 C   0  0  0  0  0  0  0  0  0  0  0  0
   39.5030   83.4320   60.0880 N   0  0  0  0  0  0  0  0  0  0  0  0
   40.6470   82.7300   60.2300 C   0  0  0  0  0  0  0  0  0  0  0  0
   41.7780   83.1720   59.6970 N   0  0  0  0  0  0  0  0  0  0  0  0
   40.6790   81.5110   60.9440 N   0  0  0  0  0  0  0  0  0  0  0  0
   40.3640   80.3950   60.2820 C   0  0  0  0  0  0  0  0  0  0  0  0
   40.3700   79.2020   60.9360 C   0  0  0  0  0  0  0  0  0  0  0  0
   40.6990   79.2190   62.2600 C   0  0  0  0  0  0  0  0  0  0  0  0
   40.6710   78.1040   63.1110 N   0  0  0  0  0  0  0  0  0  0  0  0
   41.0190   80.3630   62.9240 N   0  0  0  0  0  0  0  0  0  0  0  0
   41.0150   81.5720   62.2550 C   0  0  0  0  0  0  0  0  0  0  0  0
   41.3000   82.6810   62.7830 O   0  0  0  0  0  0  0  0  0  0  0  0
   40.3560   78.6290   57.8700 C   0  0  0  0  0  0  0  0  0  0  0  0
   41.7170   78.8590   57.7410 N   0  0  0  0  0  0  0  0  0  0  0  0
   42.1270   79.6430   56.7030 C   0  0  0  0  0  0  0  0  0  0  0  0
   41.2380   80.1810   55.8210 N   0  0  0  0  0  0  0  0  0  0  0  0
   39.9210   79.9550   55.9490 C   0  0  0  0  0  0  0  0  0  0  0  0
   39.0380   80.5150   55.0360 C   0  0  0  0  0  0  0  0  0  0  0  0
   37.6650   80.2760   55.1750 C   0  0  0  0  0  0  0  0  0  0  0  0
   37.2210   79.4770   56.2310 C   0  0  0  0  0  0  0  0  0  0  0  0
   38.0730   78.9040   57.1570 C   0  0  0  0  0  0  0  0  0  0  0  0
   39.4180   79.1680   56.9770 C   0  0  0  0  0  0  0  0  0  0  0  0
   39.7750   77.0502   62.2053 H   0  0  0  0  0  0  0  0  0  0  0  0
   39.1006   74.8481   61.3985 H   0  0  0  0  0  0  0  0  0  0  0  0
   38.9960   74.5063   58.9451 H   0  0  0  0  0  0  0  0  0  0  0  0
   39.5697   76.3382   57.3788 H   0  0  0  0  0  0  0  0  0  0  0  0
   42.7874   84.6552   58.5787 H   0  0  0  0  0  0  0  0  0  0  0  0
   40.6900   86.0243   58.2646 H   0  0  0  0  0  0  0  0  0  0  0  0
   38.5615   85.1789   59.2754 H   0  0  0  0  0  0  0  0  0  0  0  0
   40.1013   80.4399   59.2148 H   0  0  0  0  0  0  0  0  0  0  0  0
   40.9359   78.2051   64.1012 H   0  0  0  0  0  0  0  0  0  0  0  0
   40.3856   77.1843   62.7456 H   0  0  0  0  0  0  0  0  0  0  0  0
   43.2005   79.8459   56.5746 H   0  0  0  0  0  0  0  0  0  0  0  0
   39.4127   81.1399   54.2120 H   0  0  0  0  0  0  0  0  0  0  0  0
   36.9475   80.7108   54.4636 H   0  0  0  0  0  0  0  0  0  0  0  0
   36.1408   79.2947   56.3309 H   0  0  0  0  0  0  0  0  0  0  0  0
   37.7045   78.2786   57.9834 H   0  0  0  0  0  0  0  0  0  0  0  0
  1 15  1  0
  1  2  2  0
  3  2  1  0
  4  3  2  0
  5  6  2  0
  5  4  1  0
  6  1  1  0
  7 12  2  0
  8  7  1  0
  8  9  2  0
  9 10  1  0
 10 11  2  0
 11 13  1  0
 12 11  1  0
 13 19  1  0
 14 15  2  0
 14 13  1  0
 15 16  1  0
 16 18  2  0
 16 17  1  0
 19 20  2  0
 19 18  1  0
 21  6  1  0
 22 21  2  0
 23 22  1  0
 24 25  1  0
 24 23  2  0
 25 30  2  0
 26 27  2  0
 26 25  1  0
 27 28  1  0
 28 29  2  0
 30 29  1  0
 30 21  1  0
  2 31  1  0
  3 32  1  0
  4 33  1  0
  5 34  1  0
  7 35  1  0
  8 36  1  0
  9 37  1  0
 14 38  1  0
 17 39  1  0
 17 40  1  0
 23 41  1  0
 26 42  1  0
 27 43  1  0
 28 44  1  0
 29 45  1  0
M  END
>  <Score>  (1) 
-7.00961

$$$$
