
     RDKit          3D

 40 44  0  0  0  0  0  0  0  0999 V2000
   41.0530   81.9200   61.6550 C   0  0  0  0  0  0  0  0  0  0  0  0
   41.1580   82.4310   62.9650 C   0  0  0  0  0  0  0  0  0  0  0  0
   41.4830   83.7490   63.2560 C   0  0  0  0  0  0  0  0  0  0  0  0
   41.6990   84.5400   62.1830 N   0  0  0  0  0  0  0  0  0  0  0  0
   41.6060   84.0880   60.9150 C   0  0  0  0  0  0  0  0  0  0  0  0
   41.2980   82.8350   60.7540 N   0  0  0  0  0  0  0  0  0  0  0  0
   40.7540   80.5920   61.2540 C   0  0  0  0  0  0  0  0  0  0  0  0
   40.8730   79.5610   62.1940 C   0  0  0  0  0  0  0  0  0  0  0  0
   40.6470   78.2150   61.9010 C   0  0  0  0  0  0  0  0  0  0  0  0
   40.2860   77.8720   60.6200 C   0  0  0  0  0  0  0  0  0  0  0  0
   40.1570   78.8710   59.6620 C   0  0  0  0  0  0  0  0  0  0  0  0
   39.7900   78.5380   58.3880 C   0  0  0  0  0  0  0  0  0  0  0  0
   39.6330   79.4730   57.3960 C   0  0  0  0  0  0  0  0  0  0  0  0
   39.8740   80.7940   57.7740 C   0  0  0  0  0  0  0  0  0  0  0  0
   40.2380   81.0750   59.0560 C   0  0  0  0  0  0  0  0  0  0  0  0
   40.3940   80.1560   60.0300 C   0  0  0  0  0  0  0  0  0  0  0  0
   41.8110   85.0020   59.8010 C   0  0  0  0  0  0  0  0  0  0  0  0
   40.7910   85.1200   58.8700 C   0  0  0  0  0  0  0  0  0  0  0  0
   40.9220   85.9870   57.7920 C   0  0  0  0  0  0  0  0  0  0  0  0
   42.0500   86.7260   57.6460 N   0  0  0  0  0  0  0  0  0  0  0  0
   43.0230   86.5830   58.5760 C   0  0  0  0  0  0  0  0  0  0  0  0
   42.9250   85.7380   59.6450 N   0  0  0  0  0  0  0  0  0  0  0  0
   44.4870   87.5600   58.3560 S   0  0  0  0  0  0  0  0  0  0  0  0
   44.1580   89.1870   59.0320 C   0  0  0  0  0  0  0  0  0  0  0  0
   44.1270   89.2180   60.3770 N   0  0  0  0  0  0  0  0  0  0  0  0
   43.8840   90.4230   60.7950 O   0  0  0  0  0  0  0  0  0  0  0  0
   43.7520   91.2090   59.7530 C   0  0  0  0  0  0  0  0  0  0  0  0
   43.9180   90.4680   58.6400 N   0  0  0  0  0  0  0  0  0  0  0  0
   40.9716   81.7457   63.8050 H   0  0  0  0  0  0  0  0  0  0  0  0
   41.5592   84.1226   64.2878 H   0  0  0  0  0  0  0  0  0  0  0  0
   41.1610   79.8269   63.2218 H   0  0  0  0  0  0  0  0  0  0  0  0
   40.7556   77.4450   62.6790 H   0  0  0  0  0  0  0  0  0  0  0  0
   40.1015   76.8202   60.3561 H   0  0  0  0  0  0  0  0  0  0  0  0
   39.6136   77.4789   58.1486 H   0  0  0  0  0  0  0  0  0  0  0  0
   39.3372   79.1995   56.3724 H   0  0  0  0  0  0  0  0  0  0  0  0
   39.7704   81.6060   57.0392 H   0  0  0  0  0  0  0  0  0  0  0  0
   40.4178   82.1287   59.3157 H   0  0  0  0  0  0  0  0  0  0  0  0
   39.8734   84.5244   58.9850 H   0  0  0  0  0  0  0  0  0  0  0  0
   40.1094   86.0742   57.0557 H   0  0  0  0  0  0  0  0  0  0  0  0
   43.5418   92.2883   59.7828 H   0  0  0  0  0  0  0  0  0  0  0  0
  1  2  2  0
  2  3  1  0
  4  3  2  0
  5  4  1  0
  6  5  2  0
  6  1  1  0
  7  1  1  0
  7  8  2  0
  9  8  1  0
 10  9  2  0
 11 16  2  0
 11 10  1  0
 12 11  1  0
 13 14  1  0
 13 12  2  0
 14 15  2  0
 15 16  1  0
 16  7  1  0
 17  5  1  0
 18 17  2  0
 19 18  1  0
 20 19  2  0
 20 21  1  0
 21 22  2  0
 22 17  1  0
 23 21  1  0
 23 24  1  0
 24 25  2  0
 25 26  1  0
 27 26  1  0
 28 24  1  0
 28 27  2  0
  2 29  1  0
  3 30  1  0
  8 31  1  0
  9 32  1  0
 10 33  1  0
 12 34  1  0
 13 35  1  0
 14 36  1  0
 15 37  1  0
 18 38  1  0
 19 39  1  0
 27 40  1  0
M  END
>  <Score>  (1) 
-7.08858

$$$$
