
     RDKit          3D

 44 48  0  0  0  0  0  0  0  0999 V2000
   40.5670   79.9440   60.5490 C   0  0  0  0  0  0  0  0  0  0  0  0
   41.6900   80.1310   61.3600 C   0  0  0  0  0  0  0  0  0  0  0  0
   42.2780   78.9830   61.8910 C   0  0  0  0  0  0  0  0  0  0  0  0
   41.7430   77.7860   61.6000 N   0  0  0  0  0  0  0  0  0  0  0  0
   40.6670   77.6300   60.8220 C   0  0  0  0  0  0  0  0  0  0  0  0
   40.0930   78.6990   60.3070 N   0  0  0  0  0  0  0  0  0  0  0  0
   42.2030   81.3960   61.6280 N   0  0  0  0  0  0  0  0  0  0  0  0
   43.2960   81.9130   61.0090 C   0  0  0  0  0  0  0  0  0  0  0  0
   43.5440   83.1570   61.4830 N   0  0  0  0  0  0  0  0  0  0  0  0
   42.6270   83.4500   62.3980 C   0  0  0  0  0  0  0  0  0  0  0  0
   42.3690   84.5330   63.1860 C   0  0  0  0  0  0  0  0  0  0  0  0
   41.3300   84.4810   64.0450 N   0  0  0  0  0  0  0  0  0  0  0  0
   40.5210   83.4180   64.1320 C   0  0  0  0  0  0  0  0  0  0  0  0
   40.7710   82.3790   63.3520 N   0  0  0  0  0  0  0  0  0  0  0  0
   41.7970   82.3300   62.4710 C   0  0  0  0  0  0  0  0  0  0  0  0
   40.1940   76.2630   60.5900 C   0  0  0  0  0  0  0  0  0  0  0  0
   38.7830   76.1320   60.1270 C   0  0  0  0  0  0  0  0  0  0  0  0
   38.7560   75.6190   58.7240 C   0  0  0  0  0  0  0  0  0  0  0  0
   39.2020   74.3650   58.4070 C   0  0  0  0  0  0  0  0  0  0  0  0
   39.1510   73.9420   57.0660 C   0  0  0  0  0  0  0  0  0  0  0  0
   38.6430   74.8630   56.1900 C   0  0  0  0  0  0  0  0  0  0  0  0
   38.1960   76.1240   56.5210 C   0  0  0  0  0  0  0  0  0  0  0  0
   38.2700   76.4710   57.8200 N   0  0  0  0  0  0  0  0  0  0  0  0
   37.6810   77.0180   55.5390 N   0  0  0  0  0  0  0  0  0  0  0  0
   37.8280   78.3740   55.5100 C   0  0  0  0  0  0  0  0  0  0  0  0
   37.2050   78.8830   54.4310 N   0  0  0  0  0  0  0  0  0  0  0  0
   36.6630   77.8520   53.7730 C   0  0  0  0  0  0  0  0  0  0  0  0
   36.9590   76.7090   54.4600 N   0  0  0  0  0  0  0  0  0  0  0  0
   40.0643   80.8153   60.1038 H   0  0  0  0  0  0  0  0  0  0  0  0
   43.1651   79.0568   62.5373 H   0  0  0  0  0  0  0  0  0  0  0  0
   43.8899   81.3988   60.2390 H   0  0  0  0  0  0  0  0  0  0  0  0
   43.2732   84.7201   63.7838 H   0  0  0  0  0  0  0  0  0  0  0  0
   42.0831   85.3188   62.4713 H   0  0  0  0  0  0  0  0  0  0  0  0
   39.6726   83.4086   64.8320 H   0  0  0  0  0  0  0  0  0  0  0  0
   40.1492   81.5606   63.4192 H   0  0  0  0  0  0  0  0  0  0  0  0
   40.8426   75.8068   59.8277 H   0  0  0  0  0  0  0  0  0  0  0  0
   40.2334   75.7641   61.5696 H   0  0  0  0  0  0  0  0  0  0  0  0
   38.2472   75.4300   60.7828 H   0  0  0  0  0  0  0  0  0  0  0  0
   38.2962   77.1178   60.1626 H   0  0  0  0  0  0  0  0  0  0  0  0
   39.5944   73.6977   59.1885 H   0  0  0  0  0  0  0  0  0  0  0  0
   39.4933   72.9468   56.7459 H   0  0  0  0  0  0  0  0  0  0  0  0
   38.5867   74.5716   55.1308 H   0  0  0  0  0  0  0  0  0  0  0  0
   38.3756   78.9649   56.2590 H   0  0  0  0  0  0  0  0  0  0  0  0
   36.0809   77.9138   52.8417 H   0  0  0  0  0  0  0  0  0  0  0  0
  1  2  2  0
  2  7  1  0
  2  3  1  0
  4  3  2  0
  5  4  1  0
  6  1  1  0
  6  5  2  0
  7 15  1  0
  8  9  2  0
  8  7  1  0
  9 10  1  0
 10 15  2  0
 10 11  1  0
 11 12  1  0
 12 13  2  0
 14 13  1  0
 15 14  1  0
 16  5  1  0
 17 16  1  0
 18 17  1  0
 19 18  2  0
 20 19  1  0
 21 22  1  0
 21 20  2  0
 22 23  2  0
 23 18  1  0
 24 22  1  0
 25 24  1  0
 26 25  2  0
 27 26  1  0
 27 28  2  0
 28 24  1  0
  1 29  1  0
  3 30  1  0
  8 31  1  0
 11 32  1  0
 11 33  1  0
 13 34  1  0
 14 35  1  0
 16 36  1  0
 16 37  1  0
 17 38  1  0
 17 39  1  0
 19 40  1  0
 20 41  1  0
 21 42  1  0
 25 43  1  0
 27 44  1  0
M  END
>  <Score>  (1) 
-7.04675

$$$$
