
     RDKit          3D

 45 49  0  0  0  0  0  0  0  0999 V2000
   41.8110   82.3110   57.6360 N   0  0  0  0  0  0  0  0  0  0  0  0
   41.2890   81.9080   56.4830 N   0  0  0  0  0  0  0  0  0  0  0  0
   40.0900   81.3340   56.7410 C   0  0  0  0  0  0  0  0  0  0  0  0
   39.8710   81.3850   58.0710 C   0  0  0  0  0  0  0  0  0  0  0  0
   40.9520   81.9990   58.6500 C   0  0  0  0  0  0  0  0  0  0  0  0
   41.0620   82.2310   60.1020 C   0  0  0  0  0  0  0  0  0  0  0  0
   40.9350   81.2160   61.0430 C   0  0  0  0  0  0  0  0  0  0  0  0
   41.0560   81.5480   62.3720 C   0  0  0  0  0  0  0  0  0  0  0  0
   41.2930   82.8340   62.7870 C   0  0  0  0  0  0  0  0  0  0  0  0
   41.4190   83.8490   61.8510 C   0  0  0  0  0  0  0  0  0  0  0  0
   41.3020   83.5420   60.4890 C   0  0  0  0  0  0  0  0  0  0  0  0
   41.4370   84.6160   59.5070 C   0  0  0  0  0  0  0  0  0  0  0  0
   42.6380   85.2810   59.3020 C   0  0  0  0  0  0  0  0  0  0  0  0
   42.6870   86.2980   58.3440 C   0  0  0  0  0  0  0  0  0  0  0  0
   41.6020   86.6530   57.6090 N   0  0  0  0  0  0  0  0  0  0  0  0
   40.4400   85.9800   57.8330 C   0  0  0  0  0  0  0  0  0  0  0  0
   40.3700   85.0000   58.7500 N   0  0  0  0  0  0  0  0  0  0  0  0
   39.4430   80.8720   55.6150 O   0  0  0  0  0  0  0  0  0  0  0  0
   38.2800   80.1260   55.7770 C   0  0  0  0  0  0  0  0  0  0  0  0
   37.2620   80.8520   55.8580 O   0  0  0  0  0  0  0  0  0  0  0  0
   37.6900   77.9510   54.7510 C   0  0  0  0  0  0  0  0  0  0  0  0
   38.0110   78.7080   55.8710 C   0  0  0  0  0  0  0  0  0  0  0  0
   38.0640   78.0270   57.1120 C   0  0  0  0  0  0  0  0  0  0  0  0
   37.8040   76.6960   57.1550 N   0  0  0  0  0  0  0  0  0  0  0  0
   37.4990   76.0110   56.0460 C   0  0  0  0  0  0  0  0  0  0  0  0
   37.4450   76.6420   54.8610 N   0  0  0  0  0  0  0  0  0  0  0  0
   37.6140   78.5490   53.4620 N   0  0  0  0  0  0  0  0  0  0  0  0
   36.7660   79.3240   52.8070 C   0  0  0  0  0  0  0  0  0  0  0  0
   37.2810   79.5620   51.5580 C   0  0  0  0  0  0  0  0  0  0  0  0
   38.4510   78.9250   51.4600 N   0  0  0  0  0  0  0  0  0  0  0  0
   38.6660   78.2900   52.6460 C   0  0  0  0  0  0  0  0  0  0  0  0
   42.7193   82.7837   57.7473 H   0  0  0  0  0  0  0  0  0  0  0  0
   38.9839   81.0025   58.5971 H   0  0  0  0  0  0  0  0  0  0  0  0
   40.7434   80.1779   60.7338 H   0  0  0  0  0  0  0  0  0  0  0  0
   40.9594   80.7552   63.1284 H   0  0  0  0  0  0  0  0  0  0  0  0
   41.3829   83.0593   63.8599 H   0  0  0  0  0  0  0  0  0  0  0  0
   41.6086   84.8833   62.1739 H   0  0  0  0  0  0  0  0  0  0  0  0
   43.5335   85.0131   59.8819 H   0  0  0  0  0  0  0  0  0  0  0  0
   43.6366   86.8285   58.1802 H   0  0  0  0  0  0  0  0  0  0  0  0
   39.5428   86.2429   57.2534 H   0  0  0  0  0  0  0  0  0  0  0  0
   38.3140   78.5730   58.0336 H   0  0  0  0  0  0  0  0  0  0  0  0
   37.2927   74.9321   56.1049 H   0  0  0  0  0  0  0  0  0  0  0  0
   35.8127   79.7108   53.1963 H   0  0  0  0  0  0  0  0  0  0  0  0
   36.8114   80.1723   50.7725 H   0  0  0  0  0  0  0  0  0  0  0  0
   39.5415   77.6737   52.8982 H   0  0  0  0  0  0  0  0  0  0  0  0
  1  5  1  0
  2  3  2  0
  2  1  1  0
  3  4  1  0
  4  5  2  0
  5  6  1  0
  6 11  1  0
  6  7  2  0
  7  8  1  0
  8  9  2  0
 10  9  1  0
 11 10  2  0
 12 11  1  0
 13 12  2  0
 14 13  1  0
 15 16  1  0
 15 14  2  0
 16 17  2  0
 17 12  1  0
 18 19  1  0
 18  3  1  0
 19 20  2  0
 19 22  1  0
 21 26  2  0
 21 22  1  0
 22 23  2  0
 23 24  1  0
 25 24  2  0
 26 25  1  0
 27 21  1  0
 28 27  1  0
 29 28  2  0
 30 29  1  0
 30 31  2  0
 31 27  1  0
  1 32  1  0
  4 33  1  0
  7 34  1  0
  8 35  1  0
  9 36  1  0
 10 37  1  0
 13 38  1  0
 14 39  1  0
 16 40  1  0
 23 41  1  0
 25 42  1  0
 28 43  1  0
 29 44  1  0
 31 45  1  0
M  END
>  <Score>  (1) 
-7.08513

$$$$
