
     RDKit          3D

 53 57  0  0  1  0  0  0  0  0999 V2000
   40.4010   80.5080   61.2250 N   0  0  0  0  0  0  0  0  0  0  0  0
   41.0440   80.1240   62.3500 C   0  0  0  0  0  0  0  0  0  0  0  0
   41.3100   78.7850   62.2910 N   0  0  0  0  0  0  0  0  0  0  0  0
   40.8410   78.3110   61.1290 C   0  0  0  0  0  0  0  0  0  0  0  0
   40.8700   77.1130   60.4420 C   0  0  2  0  0  0  0  0  0  0  0  0
   40.0420   76.9420   59.3740 N   0  0  0  0  0  0  0  0  0  0  0  0
   39.5230   77.9860   58.7380 C   0  0  0  0  0  0  0  0  0  0  0  0
   39.6470   79.1880   59.3100 N   0  0  0  0  0  0  0  0  0  0  0  0
   40.2820   79.3900   60.4910 C   0  0  0  0  0  0  0  0  0  0  0  0
   38.8860   77.7850   57.4750 N   0  0  0  0  0  0  0  0  0  0  0  0
   37.9880   76.6690   57.3480 C   0  0  0  0  0  0  0  0  0  0  0  0
   36.6350   77.2770   57.0440 C   0  0  0  0  0  0  0  0  0  0  0  0
   36.7460   77.9070   55.6760 C   0  0  0  0  0  0  0  0  0  0  0  0
   37.8410   78.9280   55.5530 C   0  0  0  0  0  0  0  0  0  0  0  0
   39.0810   78.6150   56.3260 C   0  0  0  0  0  0  0  0  0  0  0  0
   39.9930   81.8370   60.9560 C   0  0  0  0  0  0  0  0  0  0  0  0
   40.2310   82.5350   59.7500 C   0  0  0  0  0  0  0  0  0  0  0  0
   39.7700   83.8390   59.6410 C   0  0  0  0  0  0  0  0  0  0  0  0
   39.1090   84.3860   60.7090 N   0  0  0  0  0  0  0  0  0  0  0  0
   38.9080   83.6840   61.8350 C   0  0  0  0  0  0  0  0  0  0  0  0
   39.3460   82.4190   61.9580 N   0  0  0  0  0  0  0  0  0  0  0  0
   41.1290   75.9580   61.2620 N   0  0  0  0  0  0  0  0  0  0  0  0
   42.5160   75.0650   60.8600 S   0  0  0  0  0  0  0  0  0  0  0  0
   43.6680   75.4690   61.7480 O   0  0  0  0  0  0  0  0  0  0  0  0
   42.8730   75.3510   59.4450 O   0  0  0  0  0  0  0  0  0  0  0  0
   42.1650   73.3630   61.0690 C   0  0  0  0  0  0  0  0  0  0  0  0
   42.5890   72.5260   62.0730 C   0  0  0  0  0  0  0  0  0  0  0  0
   42.2310   71.2030   62.1130 C   0  0  0  0  0  0  0  0  0  0  0  0
   41.4150   70.7090   61.1050 C   0  0  0  0  0  0  0  0  0  0  0  0
   40.9470   71.4920   60.0580 C   0  0  0  0  0  0  0  0  0  0  0  0
   41.3450   72.8110   60.0800 C   0  0  0  0  0  0  0  0  0  0  0  0
   41.3121   80.7877   63.1852 H   0  0  0  0  0  0  0  0  0  0  0  0
   41.7948   77.2373   59.8596 H   0  0  0  0  0  0  0  0  0  0  0  0
   39.2393   80.0024   58.8289 H   0  0  0  0  0  0  0  0  0  0  0  0
   38.3070   76.0093   56.5276 H   0  0  0  0  0  0  0  0  0  0  0  0
   37.9658   76.0548   58.2603 H   0  0  0  0  0  0  0  0  0  0  0  0
   35.8596   76.4967   57.0413 H   0  0  0  0  0  0  0  0  0  0  0  0
   36.3536   78.0215   57.8033 H   0  0  0  0  0  0  0  0  0  0  0  0
   36.9354   77.1087   54.9433 H   0  0  0  0  0  0  0  0  0  0  0  0
   35.7992   78.4370   55.4953 H   0  0  0  0  0  0  0  0  0  0  0  0
   38.1125   79.0119   54.4903 H   0  0  0  0  0  0  0  0  0  0  0  0
   37.4414   79.8621   55.9746 H   0  0  0  0  0  0  0  0  0  0  0  0
   39.7833   78.1036   55.6513 H   0  0  0  0  0  0  0  0  0  0  0  0
   39.4582   79.5770   56.7032 H   0  0  0  0  0  0  0  0  0  0  0  0
   40.7685   82.0560   58.9184 H   0  0  0  0  0  0  0  0  0  0  0  0
   39.9312   84.4190   58.7203 H   0  0  0  0  0  0  0  0  0  0  0  0
   38.3740   84.1533   62.6744 H   0  0  0  0  0  0  0  0  0  0  0  0
   41.2298   76.2776   62.2359 H   0  0  0  0  0  0  0  0  0  0  0  0
   43.2342   72.9290   62.8675 H   0  0  0  0  0  0  0  0  0  0  0  0
   42.5822   70.5488   62.9246 H   0  0  0  0  0  0  0  0  0  0  0  0
   41.1256   69.6482   61.1369 H   0  0  0  0  0  0  0  0  0  0  0  0
   40.3020   71.0866   59.2645 H   0  0  0  0  0  0  0  0  0  0  0  0
   40.9966   73.4695   59.2707 H   0  0  0  0  0  0  0  0  0  0  0  0
  1  2  1  0
  3  2  2  0
  4  3  1  0
  5  4  1  0
  5 22  1  0
  6  5  1  0
  7  8  1  0
  7  6  2  0
  8  9  1  0
  9  4  2  0
  9  1  1  0
 10  7  1  0
 11 10  1  0
 12 11  1  0
 13 12  1  0
 14 13  1  0
 14 15  1  0
 15 10  1  0
 16  1  1  0
 16 21  1  0
 17 16  2  0
 18 17  1  0
 18 19  2  0
 19 20  1  0
 20 21  2  0
 23 26  1  0
 23 22  1  0
 23 24  2  0
 25 23  2  0
 26 27  2  0
 27 28  1  0
 29 28  2  0
 30 31  2  0
 30 29  1  0
 31 26  1  0
  2 32  1  0
  5 33  1  6
  8 34  1  0
 11 35  1  0
 11 36  1  0
 12 37  1  0
 12 38  1  0
 13 39  1  0
 13 40  1  0
 14 41  1  0
 14 42  1  0
 15 43  1  0
 15 44  1  0
 17 45  1  0
 18 46  1  0
 20 47  1  0
 22 48  1  0
 27 49  1  0
 28 50  1  0
 29 51  1  0
 30 52  1  0
 31 53  1  0
M  END
>  <Score>  (1) 
-7.6691

$$$$
