
     RDKit          3D

 43 47  0  0  0  0  0  0  0  0999 V2000
   40.0450   81.0450   57.7000 C   0  0  0  0  0  0  0  0  0  0  0  0
   40.9320   81.7360   56.8990 C   0  0  0  0  0  0  0  0  0  0  0  0
   41.6630   82.8180   57.3510 C   0  0  0  0  0  0  0  0  0  0  0  0
   41.4550   83.1620   58.6450 N   0  0  0  0  0  0  0  0  0  0  0  0
   40.6010   82.5050   59.4330 C   0  0  0  0  0  0  0  0  0  0  0  0
   39.8910   81.4530   58.9880 N   0  0  0  0  0  0  0  0  0  0  0  0
   40.5070   83.0050   60.7620 N   0  0  0  0  0  0  0  0  0  0  0  0
   39.3580   82.8050   61.4700 C   0  0  0  0  0  0  0  0  0  0  0  0
   39.4530   83.3470   62.7050 N   0  0  0  0  0  0  0  0  0  0  0  0
   40.6710   83.8990   62.7940 C   0  0  0  0  0  0  0  0  0  0  0  0
   41.4270   84.6000   63.7350 C   0  0  0  0  0  0  0  0  0  0  0  0
   40.8880   84.8230   64.8440 O   0  0  0  0  0  0  0  0  0  0  0  0
   42.6570   84.9910   63.4140 N   0  0  0  0  0  0  0  0  0  0  0  0
   43.2570   84.7640   62.2280 C   0  0  0  0  0  0  0  0  0  0  0  0
   44.5760   85.2460   62.0390 N   0  0  0  0  0  0  0  0  0  0  0  0
   42.5740   84.0920   61.2860 N   0  0  0  0  0  0  0  0  0  0  0  0
   41.3280   83.6880   61.5870 C   0  0  0  0  0  0  0  0  0  0  0  0
   39.2570   79.9370   57.3250 N   0  0  0  0  0  0  0  0  0  0  0  0
   38.2800   80.1330   56.4360 C   0  0  0  0  0  0  0  0  0  0  0  0
   37.6540   78.9500   56.2150 C   0  0  0  0  0  0  0  0  0  0  0  0
   38.2710   78.0040   56.9980 N   0  0  0  0  0  0  0  0  0  0  0  0
   39.2430   78.6440   57.6590 C   0  0  0  0  0  0  0  0  0  0  0  0
   40.1750   78.1050   58.6100 N   0  0  0  0  0  0  0  0  0  0  0  0
   40.0790   76.9610   59.5390 C   0  0  0  0  0  0  0  0  0  0  0  0
   40.3710   77.7110   60.8510 C   0  0  0  0  0  0  0  0  0  0  0  0
   41.3110   78.8520   60.4250 C   0  0  0  0  0  0  0  0  0  0  0  0
   41.4920   78.5540   58.9320 C   0  0  0  0  0  0  0  0  0  0  0  0
   41.0624   81.4113   55.8561 H   0  0  0  0  0  0  0  0  0  0  0  0
   42.3661   83.3631   56.7042 H   0  0  0  0  0  0  0  0  0  0  0  0
   38.4736   82.2743   61.0876 H   0  0  0  0  0  0  0  0  0  0  0  0
   43.1927   85.5071   64.1264 H   0  0  0  0  0  0  0  0  0  0  0  0
   45.0589   85.0872   61.1432 H   0  0  0  0  0  0  0  0  0  0  0  0
   45.0518   85.7552   62.7974 H   0  0  0  0  0  0  0  0  0  0  0  0
   38.0255   81.0927   55.9624 H   0  0  0  0  0  0  0  0  0  0  0  0
   36.8074   78.7792   55.5337 H   0  0  0  0  0  0  0  0  0  0  0  0
   39.0774   76.5063   59.5351 H   0  0  0  0  0  0  0  0  0  0  0  0
   40.7380   76.1084   59.3181 H   0  0  0  0  0  0  0  0  0  0  0  0
   39.4439   78.1105   61.2879 H   0  0  0  0  0  0  0  0  0  0  0  0
   40.8141   77.0619   61.6206 H   0  0  0  0  0  0  0  0  0  0  0  0
   40.8471   79.8364   60.5854 H   0  0  0  0  0  0  0  0  0  0  0  0
   42.2525   78.8943   60.9923 H   0  0  0  0  0  0  0  0  0  0  0  0
   42.2444   77.7703   58.7600 H   0  0  0  0  0  0  0  0  0  0  0  0
   41.8541   79.4005   58.3301 H   0  0  0  0  0  0  0  0  0  0  0  0
  1  6  2  0
  2  3  2  0
  2  1  1  0
  3  4  1  0
  4  5  2  0
  5  7  1  0
  6  5  1  0
  7  8  1  0
  7 17  1  0
  8  9  2  0
  9 10  1  0
 10 11  1  0
 11 12  2  0
 13 11  1  0
 14 13  1  0
 15 14  1  0
 16 17  1  0
 16 14  2  0
 17 10  2  0
 18 22  1  0
 18  1  1  0
 19 18  1  0
 20 19  2  0
 20 21  1  0
 21 22  2  0
 22 23  1  0
 23 27  1  0
 23 24  1  0
 24 25  1  0
 26 25  1  0
 27 26  1  0
  2 28  1  0
  3 29  1  0
  8 30  1  0
 13 31  1  0
 15 32  1  0
 15 33  1  0
 19 34  1  0
 20 35  1  0
 24 36  1  0
 24 37  1  0
 25 38  1  0
 25 39  1  0
 26 40  1  0
 26 41  1  0
 27 42  1  0
 27 43  1  0
M  END
>  <Score>  (1) 
-7.62294

$$$$
