
     RDKit          3D

 53 57  0  0  1  0  0  0  0  0999 V2000
   41.1210   81.8120   62.1870 C   0  0  0  0  0  0  0  0  0  0  0  0
   40.2400   82.0050   61.1170 C   0  0  0  0  0  0  0  0  0  0  0  0
   40.2100   80.7930   60.4170 C   0  0  0  0  0  0  0  0  0  0  0  0
   41.0510   79.9520   61.0800 N   0  0  0  0  0  0  0  0  0  0  0  0
   41.5870   80.5550   62.1250 N   0  0  0  0  0  0  0  0  0  0  0  0
   42.2950   83.9480   62.7010 C   0  0  2  0  0  0  0  0  0  0  0  0
   42.0830   85.0110   63.7650 C   0  0  0  0  0  0  0  0  0  0  0  0
   40.8920   84.5980   64.5800 C   0  0  0  0  0  0  0  0  0  0  0  0
   40.2260   83.5600   63.6910 C   0  0  0  0  0  0  0  0  0  0  0  0
   41.4470   82.8150   63.1830 C   0  0  1  0  0  0  0  0  0  0  0  0
   43.7300   83.5890   62.5450 C   0  0  0  0  0  0  0  0  0  0  0  0
   44.3960   84.0780   61.4280 C   0  0  0  0  0  0  0  0  0  0  0  0
   45.7290   83.7600   61.2360 C   0  0  0  0  0  0  0  0  0  0  0  0
   46.3340   82.9710   62.1620 N   0  0  0  0  0  0  0  0  0  0  0  0
   45.6720   82.5050   63.2430 C   0  0  0  0  0  0  0  0  0  0  0  0
   44.3740   82.8090   63.4390 N   0  0  0  0  0  0  0  0  0  0  0  0
   41.2460   78.5950   60.6120 C   0  0  1  0  0  0  0  0  0  0  0  0
   40.2490   77.6290   61.2100 C   0  0  0  0  0  0  0  0  0  0  0  0
   41.1100   78.5080   59.0930 C   0  0  0  0  0  0  0  0  0  0  0  0
   39.8620   77.9770   58.6170 C   0  0  0  0  0  0  0  0  0  0  0  0
   39.3910   76.7750   59.0720 N   0  0  0  0  0  0  0  0  0  0  0  0
   38.2440   76.2280   58.6430 C   0  0  0  0  0  0  0  0  0  0  0  0
   37.4430   76.8030   57.7250 N   0  0  0  0  0  0  0  0  0  0  0  0
   37.8560   77.9970   57.2360 C   0  0  0  0  0  0  0  0  0  0  0  0
   37.0370   78.6040   56.2940 C   0  0  0  0  0  0  0  0  0  0  0  0
   37.4340   79.8300   55.7840 C   0  0  0  0  0  0  0  0  0  0  0  0
   38.6180   80.4110   56.2200 C   0  0  0  0  0  0  0  0  0  0  0  0
   39.3810   79.7600   57.1500 C   0  0  0  0  0  0  0  0  0  0  0  0
   39.0320   78.5450   57.6840 C   0  0  0  0  0  0  0  0  0  0  0  0
   39.6839   82.9227   60.8751 H   0  0  0  0  0  0  0  0  0  0  0  0
   39.6250   80.5659   59.5136 H   0  0  0  0  0  0  0  0  0  0  0  0
   42.0111   84.2775   61.6906 H   0  0  0  0  0  0  0  0  0  0  0  0
   42.9725   85.0820   64.4082 H   0  0  0  0  0  0  0  0  0  0  0  0
   41.9156   85.9952   63.3032 H   0  0  0  0  0  0  0  0  0  0  0  0
   41.2007   84.1592   65.5403 H   0  0  0  0  0  0  0  0  0  0  0  0
   40.2309   85.4364   64.8448 H   0  0  0  0  0  0  0  0  0  0  0  0
   39.5570   82.9017   64.2647 H   0  0  0  0  0  0  0  0  0  0  0  0
   39.5790   83.9746   62.9039 H   0  0  0  0  0  0  0  0  0  0  0  0
   41.9607   82.1954   63.9328 H   0  0  0  0  0  0  0  0  0  0  0  0
   43.8676   84.7131   60.7018 H   0  0  0  0  0  0  0  0  0  0  0  0
   46.2813   84.1341   60.3614 H   0  0  0  0  0  0  0  0  0  0  0  0
   46.1981   81.8704   63.9713 H   0  0  0  0  0  0  0  0  0  0  0  0
   42.2622   78.3180   60.9292 H   0  0  0  0  0  0  0  0  0  0  0  0
   40.3018   77.6802   62.3075 H   0  0  0  0  0  0  0  0  0  0  0  0
   39.2348   77.8969   60.8788 H   0  0  0  0  0  0  0  0  0  0  0  0
   40.4848   76.6069   60.8788 H   0  0  0  0  0  0  0  0  0  0  0  0
   41.2263   79.5220   58.6829 H   0  0  0  0  0  0  0  0  0  0  0  0
   41.8869   77.8050   58.7580 H   0  0  0  0  0  0  0  0  0  0  0  0
   37.9410   75.2577   59.0633 H   0  0  0  0  0  0  0  0  0  0  0  0
   36.1027   78.1272   55.9628 H   0  0  0  0  0  0  0  0  0  0  0  0
   36.8123   80.3423   55.0350 H   0  0  0  0  0  0  0  0  0  0  0  0
   38.9387   81.3848   55.8214 H   0  0  0  0  0  0  0  0  0  0  0  0
   40.3166   80.2317   57.4850 H   0  0  0  0  0  0  0  0  0  0  0  0
  1 10  1  0
  2  1  1  0
  3  4  1  0
  3  2  2  0
  4  5  1  0
  5  1  2  0
  6 10  1  0
  6  7  1  0
  7  8  1  0
  9  8  1  0
 10  9  1  0
 11  6  1  0
 11 16  1  0
 12 11  2  0
 13 12  1  0
 13 14  2  0
 14 15  1  0
 15 16  2  0
 17  4  1  0
 17 18  1  0
 19 17  1  0
 20 21  2  0
 20 19  1  0
 22 21  1  0
 23 22  2  0
 24 29  2  0
 24 23  1  0
 25 24  1  0
 26 27  1  0
 26 25  2  0
 27 28  2  0
 28 29  1  0
 29 20  1  0
  2 30  1  0
  3 31  1  0
  6 32  1  6
  7 33  1  0
  7 34  1  0
  8 35  1  0
  8 36  1  0
  9 37  1  0
  9 38  1  0
 10 39  1  1
 12 40  1  0
 13 41  1  0
 15 42  1  0
 17 43  1  6
 18 44  1  0
 18 45  1  0
 18 46  1  0
 19 47  1  0
 19 48  1  0
 22 49  1  0
 25 50  1  0
 26 51  1  0
 27 52  1  0
 28 53  1  0
M  END
>  <Score>  (1) 
-7.1563

$$$$
