
     RDKit          3D

 46 50  0  0  1  0  0  0  0  0999 V2000
   37.6280   75.8770   58.7430 N   0  0  0  0  0  0  0  0  0  0  0  0
   38.4500   76.6490   57.8490 C   0  0  0  0  0  0  0  0  0  0  0  0
   39.0010   77.8110   58.6770 C   0  0  0  0  0  0  0  0  0  0  0  0
   39.9730   77.1880   59.6600 C   0  0  2  0  0  0  0  0  0  0  0  0
   39.3170   76.0940   60.4760 C   0  0  0  0  0  0  0  0  0  0  0  0
   38.4500   75.1900   59.6810 C   0  0  2  0  0  0  0  0  0  0  0  0
   39.2070   74.1280   59.0870 N   0  0  0  0  0  0  0  0  0  0  0  0
   39.2240   73.8940   57.7460 C   0  0  0  0  0  0  0  0  0  0  0  0
   40.0180   72.8290   57.4410 N   0  0  0  0  0  0  0  0  0  0  0  0
   40.5280   72.3600   58.5920 C   0  0  0  0  0  0  0  0  0  0  0  0
   41.3770   71.3310   58.9400 C   0  0  0  0  0  0  0  0  0  0  0  0
   41.8510   70.5850   58.0630 O   0  0  0  0  0  0  0  0  0  0  0  0
   41.6860   71.1400   60.2390 N   0  0  0  0  0  0  0  0  0  0  0  0
   41.1840   71.9340   61.2030 C   0  0  0  0  0  0  0  0  0  0  0  0
   41.5750   71.6480   62.5490 N   0  0  0  0  0  0  0  0  0  0  0  0
   40.3560   72.9400   60.8540 N   0  0  0  0  0  0  0  0  0  0  0  0
   40.0110   73.1780   59.5770 C   0  0  0  0  0  0  0  0  0  0  0  0
   40.6790   80.1630   61.4750 C   0  0  0  0  0  0  0  0  0  0  0  0
   41.5660   79.2950   62.0700 C   0  0  0  0  0  0  0  0  0  0  0  0
   41.4330   78.0460   61.4770 C   0  0  0  0  0  0  0  0  0  0  0  0
   40.4600   78.2320   60.5430 N   0  0  0  0  0  0  0  0  0  0  0  0
   40.0050   79.4580   60.5240 N   0  0  0  0  0  0  0  0  0  0  0  0
   40.4980   81.5610   61.8010 C   0  0  0  0  0  0  0  0  0  0  0  0
   39.9470   82.4360   60.8340 C   0  0  0  0  0  0  0  0  0  0  0  0
   39.7860   83.7790   61.1800 C   0  0  0  0  0  0  0  0  0  0  0  0
   40.1710   84.1820   62.4420 N   0  0  0  0  0  0  0  0  0  0  0  0
   40.6860   83.3150   63.3170 C   0  0  0  0  0  0  0  0  0  0  0  0
   40.8600   82.0080   63.0260 N   0  0  0  0  0  0  0  0  0  0  0  0
   37.0823   75.1923   58.2005 H   0  0  0  0  0  0  0  0  0  0  0  0
   37.8488   77.0293   57.0100 H   0  0  0  0  0  0  0  0  0  0  0  0
   39.2603   76.0403   57.4213 H   0  0  0  0  0  0  0  0  0  0  0  0
   39.5203   78.5320   58.0285 H   0  0  0  0  0  0  0  0  0  0  0  0
   38.1985   78.3601   59.1914 H   0  0  0  0  0  0  0  0  0  0  0  0
   40.8020   76.7305   59.1001 H   0  0  0  0  0  0  0  0  0  0  0  0
   40.1077   75.4909   60.9461 H   0  0  0  0  0  0  0  0  0  0  0  0
   38.6698   76.5902   61.2142 H   0  0  0  0  0  0  0  0  0  0  0  0
   37.7453   74.7283   60.3883 H   0  0  0  0  0  0  0  0  0  0  0  0
   38.6689   74.4875   57.0047 H   0  0  0  0  0  0  0  0  0  0  0  0
   42.3194   70.3704   60.4987 H   0  0  0  0  0  0  0  0  0  0  0  0
   41.2182   72.2265   63.3229 H   0  0  0  0  0  0  0  0  0  0  0  0
   42.2134   70.8636   62.7442 H   0  0  0  0  0  0  0  0  0  0  0  0
   42.2646   79.5484   62.8810 H   0  0  0  0  0  0  0  0  0  0  0  0
   41.9846   77.1228   61.7079 H   0  0  0  0  0  0  0  0  0  0  0  0
   39.6543   82.0686   59.8393 H   0  0  0  0  0  0  0  0  0  0  0  0
   39.3624   84.4984   60.4637 H   0  0  0  0  0  0  0  0  0  0  0  0
   40.9796   83.6792   64.3126 H   0  0  0  0  0  0  0  0  0  0  0  0
  1  6  1  0
  2  3  1  0
  2  1  1  0
  3  4  1  0
  4  5  1  0
  4 21  1  0
  6  5  1  0
  7 17  1  0
  7  6  1  0
  8  7  1  0
  9  8  2  0
  9 10  1  0
 10 11  1  0
 10 17  2  0
 11 13  1  0
 12 11  2  0
 13 14  1  0
 14 15  1  0
 16 14  2  0
 17 16  1  0
 18 23  1  0
 18 19  1  0
 20 19  2  0
 21 20  1  0
 22 21  1  0
 22 18  2  0
 23 28  2  0
 24 25  2  0
 24 23  1  0
 25 26  1  0
 26 27  2  0
 28 27  1  0
  1 29  1  0
  2 30  1  0
  2 31  1  0
  3 32  1  0
  3 33  1  0
  4 34  1  6
  5 35  1  0
  5 36  1  0
  6 37  1  1
  8 38  1  0
 13 39  1  0
 15 40  1  0
 15 41  1  0
 19 42  1  0
 20 43  1  0
 24 44  1  0
 25 45  1  0
 27 46  1  0
M  END
>  <Score>  (1) 
-7.76884

$$$$
