
     RDKit          3D

 46 51  0  0  0  0  0  0  0  0999 V2000
   42.5990   84.9910   57.1480 C   0  0  0  0  0  0  0  0  0  0  0  0
   41.9790   83.7810   56.7250 C   0  0  0  0  0  0  0  0  0  0  0  0
   41.5780   82.8910   57.6820 C   0  0  0  0  0  0  0  0  0  0  0  0
   41.8040   83.2300   58.9740 N   0  0  0  0  0  0  0  0  0  0  0  0
   42.3820   84.3580   59.3850 C   0  0  0  0  0  0  0  0  0  0  0  0
   42.7770   85.2340   58.4650 N   0  0  0  0  0  0  0  0  0  0  0  0
   42.6050   84.6830   60.7820 C   0  0  0  0  0  0  0  0  0  0  0  0
   43.6060   85.4360   61.3360 C   0  0  0  0  0  0  0  0  0  0  0  0
   43.4780   85.5140   62.6750 N   0  0  0  0  0  0  0  0  0  0  0  0
   42.3830   84.8010   62.9810 C   0  0  0  0  0  0  0  0  0  0  0  0
   41.7710   84.5330   64.2110 C   0  0  0  0  0  0  0  0  0  0  0  0
   40.6190   83.7440   64.2010 C   0  0  0  0  0  0  0  0  0  0  0  0
   40.0650   83.2250   63.0670 C   0  0  0  0  0  0  0  0  0  0  0  0
   40.6850   83.5020   61.8710 C   0  0  0  0  0  0  0  0  0  0  0  0
   41.8250   84.2790   61.8430 C   0  0  0  0  0  0  0  0  0  0  0  0
   40.9240   81.6070   57.3310 C   0  0  0  0  0  0  0  0  0  0  0  0
   41.5960   80.3950   57.5810 C   0  0  0  0  0  0  0  0  0  0  0  0
   40.3740   79.1330   56.9750 S   0  0  0  0  0  0  0  0  0  0  0  0
   39.1810   80.5100   56.4980 C   0  0  0  0  0  0  0  0  0  0  0  0
   39.7430   81.4320   56.7920 N   0  0  0  0  0  0  0  0  0  0  0  0
   37.8660   80.0630   55.8880 C   0  0  0  0  0  0  0  0  0  0  0  0
   37.1050   80.8510   55.3330 O   0  0  0  0  0  0  0  0  0  0  0  0
   37.4760   78.6580   55.9510 C   0  0  0  0  0  0  0  0  0  0  0  0
   36.7640   77.8510   56.8160 C   0  0  0  0  0  0  0  0  0  0  0  0
   36.7330   76.5950   56.3340 N   0  0  0  0  0  0  0  0  0  0  0  0
   37.4020   76.5340   55.1730 C   0  0  0  0  0  0  0  0  0  0  0  0
   37.6140   75.4550   54.3540 C   0  0  0  0  0  0  0  0  0  0  0  0
   38.3340   75.6100   53.1960 C   0  0  0  0  0  0  0  0  0  0  0  0
   38.8300   76.8810   52.8950 C   0  0  0  0  0  0  0  0  0  0  0  0
   38.6000   77.9460   53.7400 C   0  0  0  0  0  0  0  0  0  0  0  0
   37.8780   77.8240   54.9140 C   0  0  0  0  0  0  0  0  0  0  0  0
   42.9330   85.7278   56.4026 H   0  0  0  0  0  0  0  0  0  0  0  0
   41.8268   83.5681   55.6566 H   0  0  0  0  0  0  0  0  0  0  0  0
   44.4117   85.9159   60.7611 H   0  0  0  0  0  0  0  0  0  0  0  0
   44.0940   86.0174   63.3293 H   0  0  0  0  0  0  0  0  0  0  0  0
   42.1825   84.9294   65.1510 H   0  0  0  0  0  0  0  0  0  0  0  0
   40.1300   83.5284   65.1624 H   0  0  0  0  0  0  0  0  0  0  0  0
   39.1556   82.6075   63.1080 H   0  0  0  0  0  0  0  0  0  0  0  0
   40.2707   83.1028   60.9335 H   0  0  0  0  0  0  0  0  0  0  0  0
   42.5908   80.2358   58.0225 H   0  0  0  0  0  0  0  0  0  0  0  0
   36.2948   78.1833   57.7538 H   0  0  0  0  0  0  0  0  0  0  0  0
   36.2649   75.7984   56.7892 H   0  0  0  0  0  0  0  0  0  0  0  0
   37.2085   74.4688   54.6241 H   0  0  0  0  0  0  0  0  0  0  0  0
   38.5154   74.7581   52.5242 H   0  0  0  0  0  0  0  0  0  0  0  0
   39.4107   77.0338   51.9733 H   0  0  0  0  0  0  0  0  0  0  0  0
   39.0067   78.9318   53.4701 H   0  0  0  0  0  0  0  0  0  0  0  0
  1  6  2  0
  2  1  1  0
  2  3  2  0
  3  4  1  0
  4  5  2  0
  5  7  1  0
  6  5  1  0
  7  8  2  0
  7 15  1  0
  8  9  1  0
  9 10  1  0
 10 11  2  0
 12 11  1  0
 13 12  2  0
 14 13  1  0
 15 14  2  0
 15 10  1  0
 16 17  2  0
 16  3  1  0
 18 17  1  0
 19 20  2  0
 19 18  1  0
 20 16  1  0
 21 23  1  0
 21 19  1  0
 22 21  2  0
 23 24  2  0
 25 24  1  0
 26 25  1  0
 27 26  2  0
 28 27  1  0
 29 28  2  0
 29 30  1  0
 30 31  2  0
 31 26  1  0
 31 23  1  0
  1 32  1  0
  2 33  1  0
  8 34  1  0
  9 35  1  0
 11 36  1  0
 12 37  1  0
 13 38  1  0
 14 39  1  0
 17 40  1  0
 24 41  1  0
 25 42  1  0
 27 43  1  0
 28 44  1  0
 29 45  1  0
 30 46  1  0
M  END
>  <Score>  (1) 
-7.52206

$$$$
