
     RDKit          3D

 47 51  0  0  0  0  0  0  0  0999 V2000
   40.4690   81.9850   61.6350 C   0  0  0  0  0  0  0  0  0  0  0  0
   40.8680   82.7380   60.5360 C   0  0  0  0  0  0  0  0  0  0  0  0
   41.3080   84.0480   60.7640 C   0  0  0  0  0  0  0  0  0  0  0  0
   41.3370   84.5460   62.0230 N   0  0  0  0  0  0  0  0  0  0  0  0
   40.9260   83.7410   63.0620 C   0  0  0  0  0  0  0  0  0  0  0  0
   40.5050   82.4990   62.8840 N   0  0  0  0  0  0  0  0  0  0  0  0
   41.7440   84.9260   59.7300 N   0  0  0  0  0  0  0  0  0  0  0  0
   41.1320   85.5430   58.7030 C   0  0  0  0  0  0  0  0  0  0  0  0
   42.0250   86.2780   58.0100 N   0  0  0  0  0  0  0  0  0  0  0  0
   43.2090   86.1080   58.6240 C   0  0  0  0  0  0  0  0  0  0  0  0
   44.3920   86.6770   58.2500 C   0  0  0  0  0  0  0  0  0  0  0  0
   44.5360   87.4420   57.2710 O   0  0  0  0  0  0  0  0  0  0  0  0
   45.5100   86.4090   58.9750 N   0  0  0  0  0  0  0  0  0  0  0  0
   45.3590   85.5840   60.0310 C   0  0  0  0  0  0  0  0  0  0  0  0
   46.4650   85.2280   60.8700 N   0  0  0  0  0  0  0  0  0  0  0  0
   44.1930   85.0040   60.4270 N   0  0  0  0  0  0  0  0  0  0  0  0
   43.0670   85.2640   59.7090 C   0  0  0  0  0  0  0  0  0  0  0  0
   40.8700   82.2820   59.1740 C   0  0  0  0  0  0  0  0  0  0  0  0
   39.9510   81.3120   58.7560 C   0  0  0  0  0  0  0  0  0  0  0  0
   40.1750   81.0670   57.4260 C   0  0  0  0  0  0  0  0  0  0  0  0
   41.2110   81.8920   57.0960 C   0  0  0  0  0  0  0  0  0  0  0  0
   41.6150   82.6050   58.1340 O   0  0  0  0  0  0  0  0  0  0  0  0
   39.4670   80.1480   56.5960 C   0  0  0  0  0  0  0  0  0  0  0  0
   39.7950   78.8530   56.2100 C   0  0  0  0  0  0  0  0  0  0  0  0
   38.9530   78.1310   55.3890 C   0  0  0  0  0  0  0  0  0  0  0  0
   37.7650   78.6380   54.9150 C   0  0  0  0  0  0  0  0  0  0  0  0
   37.4260   79.9290   55.2950 C   0  0  0  0  0  0  0  0  0  0  0  0
   38.2650   80.6730   56.1230 C   0  0  0  0  0  0  0  0  0  0  0  0
   41.9170   82.0980   55.8150 C   0  0  0  0  0  0  0  0  0  0  0  0
   43.1710   81.4740   55.9020 F   0  0  0  0  0  0  0  0  0  0  0  0
   42.1500   83.4550   55.5790 F   0  0  0  0  0  0  0  0  0  0  0  0
   41.1660   81.6090   54.7840 F   0  0  0  0  0  0  0  0  0  0  0  0
   40.9540   84.2800   64.4470 C   0  0  0  0  0  0  0  0  0  0  0  0
   40.1370   83.5230   65.2600 F   0  0  0  0  0  0  0  0  0  0  0  0
   40.5680   85.5850   64.5070 F   0  0  0  0  0  0  0  0  0  0  0  0
   42.2360   84.1510   64.9170 F   0  0  0  0  0  0  0  0  0  0  0  0
   40.1181   80.9533   61.4849 H   0  0  0  0  0  0  0  0  0  0  0  0
   40.0615   85.4601   58.4640 H   0  0  0  0  0  0  0  0  0  0  0  0
   46.4246   86.8148   58.7307 H   0  0  0  0  0  0  0  0  0  0  0  0
   46.3217   84.5957   61.6703 H   0  0  0  0  0  0  0  0  0  0  0  0
   47.4032   85.6045   60.6727 H   0  0  0  0  0  0  0  0  0  0  0  0
   39.1854   80.8319   59.3832 H   0  0  0  0  0  0  0  0  0  0  0  0
   40.7336   78.4002   56.5621 H   0  0  0  0  0  0  0  0  0  0  0  0
   39.2432   77.1095   55.1021 H   0  0  0  0  0  0  0  0  0  0  0  0
   37.1100   78.0437   54.2609 H   0  0  0  0  0  0  0  0  0  0  0  0
   36.4837   80.3705   54.9384 H   0  0  0  0  0  0  0  0  0  0  0  0
   37.9731   81.6943   56.4089 H   0  0  0  0  0  0  0  0  0  0  0  0
  1  6  2  0
  2  3  2  0
  2  1  1  0
  3  4  1  0
  4  5  2  0
  5 33  1  0
  6  5  1  0
  7  3  1  0
  8  7  1  0
  9 10  1  0
  9  8  2  0
 10 17  2  0
 11 10  1  0
 11 13  1  0
 12 11  2  0
 13 14  1  0
 14 16  2  0
 14 15  1  0
 17  7  1  0
 17 16  1  0
 18  2  1  0
 19 18  2  0
 20 19  1  0
 21 20  2  0
 21 22  1  0
 22 18  1  0
 23 20  1  0
 24 23  2  0
 25 24  1  0
 26 27  1  0
 26 25  2  0
 27 28  2  0
 28 23  1  0
 29 30  1  0
 29 21  1  0
 31 29  1  0
 32 29  1  0
 33 35  1  0
 33 36  1  0
 33 34  1  0
  1 37  1  0
  8 38  1  0
 13 39  1  0
 15 40  1  0
 15 41  1  0
 19 42  1  0
 24 43  1  0
 25 44  1  0
 26 45  1  0
 27 46  1  0
 28 47  1  0
M  END
>  <Score>  (1) 
-8.13288

$$$$
