
     RDKit          3D

 45 49  0  0  0  0  0  0  0  0999 V2000
   39.7150   82.7070   61.4890 C   0  0  0  0  0  0  0  0  0  0  0  0
   40.7790   82.8720   60.5860 C   0  0  0  0  0  0  0  0  0  0  0  0
   41.9000   83.5670   61.0270 C   0  0  0  0  0  0  0  0  0  0  0  0
   41.9300   84.0540   62.2850 N   0  0  0  0  0  0  0  0  0  0  0  0
   40.8710   83.8660   63.1170 C   0  0  0  0  0  0  0  0  0  0  0  0
   39.7890   83.2080   62.7300 N   0  0  0  0  0  0  0  0  0  0  0  0
   40.7690   82.3640   59.2420 C   0  0  0  0  0  0  0  0  0  0  0  0
   39.9510   81.3080   58.8560 C   0  0  0  0  0  0  0  0  0  0  0  0
   40.1860   81.0740   57.5190 C   0  0  0  0  0  0  0  0  0  0  0  0
   41.1260   81.9870   57.1540 C   0  0  0  0  0  0  0  0  0  0  0  0
   41.4870   82.7680   58.1760 O   0  0  0  0  0  0  0  0  0  0  0  0
   39.5530   80.0730   56.7230 C   0  0  0  0  0  0  0  0  0  0  0  0
   39.9770   78.8090   56.3550 C   0  0  0  0  0  0  0  0  0  0  0  0
   39.1890   78.0010   55.5690 C   0  0  0  0  0  0  0  0  0  0  0  0
   37.9570   78.3890   55.1100 C   0  0  0  0  0  0  0  0  0  0  0  0
   37.5170   79.6390   55.4650 C   0  0  0  0  0  0  0  0  0  0  0  0
   38.2970   80.4830   56.2630 C   0  0  0  0  0  0  0  0  0  0  0  0
   41.7820   82.2400   55.8590 C   0  0  0  0  0  0  0  0  0  0  0  0
   43.0790   81.7800   55.9090 F   0  0  0  0  0  0  0  0  0  0  0  0
   41.8410   83.6180   55.5820 F   0  0  0  0  0  0  0  0  0  0  0  0
   41.0360   81.6750   54.8430 F   0  0  0  0  0  0  0  0  0  0  0  0
   40.9090   84.4000   64.4940 C   0  0  0  0  0  0  0  0  0  0  0  0
   40.0820   83.6530   65.3180 F   0  0  0  0  0  0  0  0  0  0  0  0
   40.5610   85.6950   64.5860 F   0  0  0  0  0  0  0  0  0  0  0  0
   42.2110   84.2280   64.9610 F   0  0  0  0  0  0  0  0  0  0  0  0
   43.0210   83.8040   60.2420 O   0  0  0  0  0  0  0  0  0  0  0  0
   45.1150   86.3060   57.0390 N   0  0  0  0  0  0  0  0  0  0  0  0
   44.8680   85.0430   56.6200 C   0  0  0  0  0  0  0  0  0  0  0  0
   44.2430   84.3220   57.5950 N   0  0  0  0  0  0  0  0  0  0  0  0
   44.0850   85.1390   58.6660 C   0  0  0  0  0  0  0  0  0  0  0  0
   43.5400   85.0340   59.9500 C   0  0  0  0  0  0  0  0  0  0  0  0
   43.5680   86.1060   60.7630 N   0  0  0  0  0  0  0  0  0  0  0  0
   44.1150   87.2880   60.3620 C   0  0  0  0  0  0  0  0  0  0  0  0
   44.6530   87.4360   59.1330 N   0  0  0  0  0  0  0  0  0  0  0  0
   44.6370   86.3690   58.2930 C   0  0  0  0  0  0  0  0  0  0  0  0
   38.8130   82.1616   61.1745 H   0  0  0  0  0  0  0  0  0  0  0  0
   39.2464   80.7606   59.4994 H   0  0  0  0  0  0  0  0  0  0  0  0
   40.9576   78.4451   56.6955 H   0  0  0  0  0  0  0  0  0  0  0  0
   39.5627   77.0026   55.2976 H   0  0  0  0  0  0  0  0  0  0  0  0
   37.3454   77.7245   54.4820 H   0  0  0  0  0  0  0  0  0  0  0  0
   36.5327   79.9841   55.1158 H   0  0  0  0  0  0  0  0  0  0  0  0
   37.9184   81.4802   56.5318 H   0  0  0  0  0  0  0  0  0  0  0  0
   45.5732   87.0604   56.5081 H   0  0  0  0  0  0  0  0  0  0  0  0
   45.1351   84.6509   55.6276 H   0  0  0  0  0  0  0  0  0  0  0  0
   44.1181   88.1414   61.0561 H   0  0  0  0  0  0  0  0  0  0  0  0
  1  6  2  0
  2  3  2  0
  2  1  1  0
  3  4  1  0
  4  5  2  0
  5 22  1  0
  6  5  1  0
  7  2  1  0
  8  7  2  0
  9  8  1  0
 10  9  2  0
 10 11  1  0
 11  7  1  0
 12  9  1  0
 13 12  2  0
 14 13  1  0
 15 16  1  0
 15 14  2  0
 16 17  2  0
 17 12  1  0
 18 19  1  0
 18 10  1  0
 20 18  1  0
 21 18  1  0
 22 24  1  0
 22 25  1  0
 22 23  1  0
 26  3  1  0
 27 35  1  0
 28 27  1  0
 28 29  2  0
 29 30  1  0
 30 31  1  0
 31 26  1  0
 31 32  2  0
 33 32  1  0
 34 33  2  0
 35 30  2  0
 35 34  1  0
  1 36  1  0
  8 37  1  0
 13 38  1  0
 14 39  1  0
 15 40  1  0
 16 41  1  0
 17 42  1  0
 27 43  1  0
 28 44  1  0
 33 45  1  0
M  END
>  <Score>  (1) 
-7.23913

$$$$
