
     RDKit          3D

 40 44  0  0  0  0  0  0  0  0999 V2000
   40.8680   81.9220   61.1350 C   0  0  0  0  0  0  0  0  0  0  0  0
   40.6890   82.6150   59.9440 C   0  0  0  0  0  0  0  0  0  0  0  0
   40.3330   82.0300   58.7480 C   0  0  0  0  0  0  0  0  0  0  0  0
   40.1350   80.6720   58.7060 C   0  0  0  0  0  0  0  0  0  0  0  0
   40.2940   79.9120   59.8490 C   0  0  0  0  0  0  0  0  0  0  0  0
   40.1130   78.5470   59.8250 C   0  0  0  0  0  0  0  0  0  0  0  0
   40.2770   77.7540   60.9480 C   0  0  0  0  0  0  0  0  0  0  0  0
   40.6370   78.4330   62.0980 C   0  0  0  0  0  0  0  0  0  0  0  0
   40.8110   79.7860   62.1050 C   0  0  0  0  0  0  0  0  0  0  0  0
   40.6490   80.5740   60.9920 C   0  0  0  0  0  0  0  0  0  0  0  0
   40.0710   76.3300   60.7560 C   0  0  0  0  0  0  0  0  0  0  0  0
   38.7650   75.9960   60.6130 N   0  0  0  0  0  0  0  0  0  0  0  0
   38.3380   74.7310   60.4260 C   0  0  0  0  0  0  0  0  0  0  0  0
   39.2320   73.7200   60.3730 N   0  0  0  0  0  0  0  0  0  0  0  0
   40.5290   73.9920   60.5080 C   0  0  0  0  0  0  0  0  0  0  0  0
   41.5480   73.0390   60.4820 C   0  0  0  0  0  0  0  0  0  0  0  0
   42.8810   73.3970   60.6410 C   0  0  0  0  0  0  0  0  0  0  0  0
   43.2640   74.7160   60.8330 C   0  0  0  0  0  0  0  0  0  0  0  0
   42.2790   75.6720   60.8620 C   0  0  0  0  0  0  0  0  0  0  0  0
   40.9680   75.2850   60.7000 C   0  0  0  0  0  0  0  0  0  0  0  0
   42.6620   83.8080   63.9260 C   0  0  0  0  0  0  0  0  0  0  0  0
   42.4840   83.0840   62.7500 C   0  0  0  0  0  0  0  0  0  0  0  0
   41.2350   82.6680   62.2950 C   0  0  0  0  0  0  0  0  0  0  0  0
   40.2150   83.0460   63.1230 N   0  0  0  0  0  0  0  0  0  0  0  0
   40.3660   83.7400   64.2550 C   0  0  0  0  0  0  0  0  0  0  0  0
   41.5800   84.1070   64.6380 N   0  0  0  0  0  0  0  0  0  0  0  0
   40.8418   83.7043   59.9566 H   0  0  0  0  0  0  0  0  0  0  0  0
   40.2095   82.6411   57.8418 H   0  0  0  0  0  0  0  0  0  0  0  0
   39.8492   80.1880   57.7604 H   0  0  0  0  0  0  0  0  0  0  0  0
   39.8270   78.0682   58.8769 H   0  0  0  0  0  0  0  0  0  0  0  0
   40.7867   77.8681   63.0299 H   0  0  0  0  0  0  0  0  0  0  0  0
   41.0956   80.2706   63.0506 H   0  0  0  0  0  0  0  0  0  0  0  0
   37.2635   74.5226   60.3168 H   0  0  0  0  0  0  0  0  0  0  0  0
   41.2900   71.9802   60.3322 H   0  0  0  0  0  0  0  0  0  0  0  0
   43.6528   72.6137   60.6139 H   0  0  0  0  0  0  0  0  0  0  0  0
   44.3226   74.9875   60.9580 H   0  0  0  0  0  0  0  0  0  0  0  0
   42.5337   76.7315   61.0125 H   0  0  0  0  0  0  0  0  0  0  0  0
   43.6638   84.1218   64.2546 H   0  0  0  0  0  0  0  0  0  0  0  0
   43.3714   82.8286   62.1523 H   0  0  0  0  0  0  0  0  0  0  0  0
   39.4891   84.0045   64.8641 H   0  0  0  0  0  0  0  0  0  0  0  0
  1 23  1  0
  2  1  2  0
  3  2  1  0
  4  3  2  0
  4  5  1  0
  5 10  2  0
  6  5  1  0
  6  7  2  0
  7  8  1  0
  8  9  2  0
 10  1  1  0
 10  9  1  0
 11  7  1  0
 12 11  2  0
 13 12  1  0
 14 13  2  0
 14 15  1  0
 15 20  2  0
 16 15  1  0
 16 17  2  0
 17 18  1  0
 18 19  2  0
 20 11  1  0
 20 19  1  0
 21 26  2  0
 22 21  1  0
 23 22  2  0
 23 24  1  0
 24 25  2  0
 25 26  1  0
  2 27  1  0
  3 28  1  0
  4 29  1  0
  6 30  1  0
  8 31  1  0
  9 32  1  0
 13 33  1  0
 16 34  1  0
 17 35  1  0
 18 36  1  0
 19 37  1  0
 21 38  1  0
 22 39  1  0
 25 40  1  0
M  END
>  <Score>  (1) 
-7.46377

$$$$
