
     RDKit          3D

 53 56  0  0  1  0  0  0  0  0999 V2000
   40.4810   83.8660   58.6300 C   0  0  0  0  0  0  0  0  0  0  0  0
   39.5860   84.6050   59.3900 C   0  0  0  0  0  0  0  0  0  0  0  0
   39.2030   84.0720   60.6200 C   0  0  0  0  0  0  0  0  0  0  0  0
   39.7240   82.8740   61.0000 N   0  0  0  0  0  0  0  0  0  0  0  0
   40.5910   82.1790   60.2440 C   0  0  0  0  0  0  0  0  0  0  0  0
   40.9760   82.6820   59.0410 N   0  0  0  0  0  0  0  0  0  0  0  0
   41.0840   80.9270   60.7310 N   0  0  0  0  0  0  0  0  0  0  0  0
   40.2010   79.8550   61.0190 C   0  0  0  0  0  0  0  0  0  0  0  0
   40.9290   78.5250   60.8920 C   0  0  0  0  0  0  0  0  0  0  0  0
   42.1470   78.4340   61.7430 C   0  0  0  0  0  0  0  0  0  0  0  0
   42.8710   79.7280   61.8930 C   0  0  0  0  0  0  0  0  0  0  0  0
   42.5120   80.7960   60.9200 C   0  0  2  0  0  0  0  0  0  0  0  0
   43.0490   82.0870   61.4620 C   0  0  0  0  0  0  0  0  0  0  0  0
   44.0590   82.7780   60.8240 C   0  0  0  0  0  0  0  0  0  0  0  0
   44.4920   83.9760   61.4080 C   0  0  0  0  0  0  0  0  0  0  0  0
   43.9390   84.4380   62.5590 N   0  0  0  0  0  0  0  0  0  0  0  0
   42.9500   83.7400   63.1630 C   0  0  0  0  0  0  0  0  0  0  0  0
   42.5180   82.5830   62.6150 N   0  0  0  0  0  0  0  0  0  0  0  0
   42.3670   84.2130   64.3630 N   0  0  0  0  0  0  0  0  0  0  0  0
   40.9640   84.2160   64.5510 C   0  0  0  0  0  0  0  0  0  0  0  0
   40.2490   83.3390   63.9130 N   0  0  0  0  0  0  0  0  0  0  0  0
   40.3930   85.1900   65.4390 N   0  0  0  0  0  0  0  0  0  0  0  0
   39.1920   83.3590   64.0710 H   0  0  0  0  0  0  0  0  0  0  0  0
   45.5630   84.7340   60.7560 C   0  0  0  0  0  0  0  0  0  0  0  0
   45.1940   85.3640   59.4550 C   0  0  0  0  0  0  0  0  0  0  0  0
   46.5340   85.8320   58.9240 C   0  0  0  0  0  0  0  0  0  0  0  0
   47.4730   84.7200   59.3340 C   0  0  0  0  0  0  0  0  0  0  0  0
   46.7630   83.8930   60.3810 C   0  0  0  0  0  0  0  0  0  0  0  0
   40.7988   84.2619   57.6542 H   0  0  0  0  0  0  0  0  0  0  0  0
   39.1951   85.5707   59.0370 H   0  0  0  0  0  0  0  0  0  0  0  0
   38.4951   84.6083   61.2690 H   0  0  0  0  0  0  0  0  0  0  0  0
   39.8200   79.9640   62.0451 H   0  0  0  0  0  0  0  0  0  0  0  0
   39.3657   79.8763   60.3036 H   0  0  0  0  0  0  0  0  0  0  0  0
   40.2385   77.7202   61.1844 H   0  0  0  0  0  0  0  0  0  0  0  0
   41.2562   78.4325   59.8459 H   0  0  0  0  0  0  0  0  0  0  0  0
   41.8471   78.0859   62.7425 H   0  0  0  0  0  0  0  0  0  0  0  0
   42.8359   77.7360   61.2447 H   0  0  0  0  0  0  0  0  0  0  0  0
   42.6674   80.1118   62.9036 H   0  0  0  0  0  0  0  0  0  0  0  0
   43.9296   79.4981   61.7021 H   0  0  0  0  0  0  0  0  0  0  0  0
   42.9415   80.5369   59.9410 H   0  0  0  0  0  0  0  0  0  0  0  0
   44.5072   82.4026   59.8923 H   0  0  0  0  0  0  0  0  0  0  0  0
   42.9769   84.5626   65.1158 H   0  0  0  0  0  0  0  0  0  0  0  0
   39.3748   85.2126   65.5925 H   0  0  0  0  0  0  0  0  0  0  0  0
   41.0018   85.8658   65.9223 H   0  0  0  0  0  0  0  0  0  0  0  0
   45.7759   85.4832   61.5328 H   0  0  0  0  0  0  0  0  0  0  0  0
   44.7313   84.6323   58.7763 H   0  0  0  0  0  0  0  0  0  0  0  0
   44.4553   86.1730   59.5540 H   0  0  0  0  0  0  0  0  0  0  0  0
   46.8289   86.7871   59.3831 H   0  0  0  0  0  0  0  0  0  0  0  0
   46.5290   86.0157   57.8395 H   0  0  0  0  0  0  0  0  0  0  0  0
   47.7180   84.0944   58.4631 H   0  0  0  0  0  0  0  0  0  0  0  0
   48.4114   85.1314   59.7342 H   0  0  0  0  0  0  0  0  0  0  0  0
   46.4478   82.9239   59.9669 H   0  0  0  0  0  0  0  0  0  0  0  0
   47.4040   83.6596   61.2439 H   0  0  0  0  0  0  0  0  0  0  0  0
  1  6  2  0
  1  2  1  0
  2  3  2  0
  3  4  1  0
  5  7  1  0
  5  4  2  0
  6  5  1  0
  7 12  1  0
  7  8  1  0
  9  8  1  0
  9 10  1  0
 10 11  1  0
 12 13  1  0
 12 11  1  0
 13 18  2  0
 14 15  2  0
 14 13  1  0
 15 16  1  0
 16 17  2  0
 17 19  1  0
 18 17  1  0
 19 20  1  0
 20 22  1  0
 21 23  1  0
 21 20  2  0
 24 15  1  0
 25 24  1  0
 26 27  1  0
 26 25  1  0
 27 28  1  0
 28 24  1  0
  1 29  1  0
  2 30  1  0
  3 31  1  0
  8 32  1  0
  8 33  1  0
  9 34  1  0
  9 35  1  0
 10 36  1  0
 10 37  1  0
 11 38  1  0
 11 39  1  0
 12 40  1  6
 14 41  1  0
 19 42  1  0
 22 43  1  0
 22 44  1  0
 24 45  1  0
 25 46  1  0
 25 47  1  0
 26 48  1  0
 26 49  1  0
 27 50  1  0
 27 51  1  0
 28 52  1  0
 28 53  1  0
M  END
>  <Score>  (1) 
-7.06007

$$$$
