
     RDKit          3D

 41 45  0  0  0  0  0  0  0  0999 V2000
   40.8440   82.0470   61.2670 C   0  0  0  0  0  0  0  0  0  0  0  0
   40.6330   82.7290   60.0880 C   0  0  0  0  0  0  0  0  0  0  0  0
   40.2980   82.1110   58.9020 C   0  0  0  0  0  0  0  0  0  0  0  0
   40.1610   80.7420   58.8750 C   0  0  0  0  0  0  0  0  0  0  0  0
   40.3530   79.9980   60.0000 C   0  0  0  0  0  0  0  0  0  0  0  0
   40.2210   78.6450   59.9830 C   0  0  0  0  0  0  0  0  0  0  0  0
   40.4120   77.8570   61.1180 C   0  0  0  0  0  0  0  0  0  0  0  0
   40.7460   78.5420   62.2680 C   0  0  0  0  0  0  0  0  0  0  0  0
   40.8720   79.9090   62.2530 C   0  0  0  0  0  0  0  0  0  0  0  0
   40.6860   80.6800   61.1410 C   0  0  0  0  0  0  0  0  0  0  0  0
   39.8610   77.8990   58.7530 C   0  0  0  0  0  0  0  0  0  0  0  0
   40.0180   76.6690   58.2860 N   0  0  0  0  0  0  0  0  0  0  0  0
   39.5200   76.4750   57.1240 O   0  0  0  0  0  0  0  0  0  0  0  0
   38.9890   77.5760   56.7320 C   0  0  0  0  0  0  0  0  0  0  0  0
   39.1930   78.4450   57.7140 N   0  0  0  0  0  0  0  0  0  0  0  0
   38.2810   78.0900   55.5890 N   0  0  0  0  0  0  0  0  0  0  0  0
   38.3780   79.3850   55.2400 C   0  0  0  0  0  0  0  0  0  0  0  0
   37.6930   79.8520   54.1440 C   0  0  0  0  0  0  0  0  0  0  0  0
   36.9040   78.9590   53.4140 C   0  0  0  0  0  0  0  0  0  0  0  0
   36.2760   79.3770   52.4140 O   0  0  0  0  0  0  0  0  0  0  0  0
   36.8500   77.6620   53.8200 N   0  0  0  0  0  0  0  0  0  0  0  0
   37.5290   77.2070   54.9040 C   0  0  0  0  0  0  0  0  0  0  0  0
   37.3860   75.9920   55.1600 O   0  0  0  0  0  0  0  0  0  0  0  0
   42.5720   84.0030   64.0470 C   0  0  0  0  0  0  0  0  0  0  0  0
   42.4280   83.2720   62.8740 C   0  0  0  0  0  0  0  0  0  0  0  0
   41.1880   82.8030   62.4320 C   0  0  0  0  0  0  0  0  0  0  0  0
   40.1500   83.1350   63.2650 N   0  0  0  0  0  0  0  0  0  0  0  0
   40.2950   83.8400   64.3920 C   0  0  0  0  0  0  0  0  0  0  0  0
   41.5010   84.2650   64.7720 N   0  0  0  0  0  0  0  0  0  0  0  0
   40.7374   83.8240   60.0936 H   0  0  0  0  0  0  0  0  0  0  0  0
   40.1422   82.7046   57.9891 H   0  0  0  0  0  0  0  0  0  0  0  0
   39.8929   80.2418   57.9327 H   0  0  0  0  0  0  0  0  0  0  0  0
   40.3036   76.7625   61.0975 H   0  0  0  0  0  0  0  0  0  0  0  0
   40.9126   77.9887   63.2040 H   0  0  0  0  0  0  0  0  0  0  0  0
   41.1388   80.4138   63.1932 H   0  0  0  0  0  0  0  0  0  0  0  0
   39.0046   80.0694   55.8308 H   0  0  0  0  0  0  0  0  0  0  0  0
   37.7644   80.9087   53.8470 H   0  0  0  0  0  0  0  0  0  0  0  0
   36.2715   76.9993   53.2842 H   0  0  0  0  0  0  0  0  0  0  0  0
   43.5631   84.3577   64.3661 H   0  0  0  0  0  0  0  0  0  0  0  0
   43.3224   83.0547   62.2716 H   0  0  0  0  0  0  0  0  0  0  0  0
   39.4144   84.0709   65.0095 H   0  0  0  0  0  0  0  0  0  0  0  0
  1 26  1  0
  2  1  2  0
  3  2  1  0
  4  3  2  0
  4  5  1  0
  5 10  2  0
  6  5  1  0
  6  7  2  0
  7  8  1  0
  9  8  2  0
 10  1  1  0
 10  9  1  0
 11  6  1  0
 12 11  2  0
 13 12  1  0
 14 13  1  0
 14 15  2  0
 15 11  1  0
 16 14  1  0
 17 16  1  0
 18 17  2  0
 19 21  1  0
 19 18  1  0
 20 19  2  0
 21 22  1  0
 22 23  2  0
 22 16  1  0
 24 29  2  0
 25 24  1  0
 26 25  2  0
 26 27  1  0
 27 28  2  0
 28 29  1  0
  2 30  1  0
  3 31  1  0
  4 32  1  0
  7 33  1  0
  8 34  1  0
  9 35  1  0
 17 36  1  0
 18 37  1  0
 21 38  1  0
 24 39  1  0
 25 40  1  0
 28 41  1  0
M  END
>  <Score>  (1) 
-8.07229

$$$$
