
     RDKit          3D

 57 62  0  0  1  0  0  0  0  0999 V2000
   45.6210   83.2700   61.6320 C   0  0  2  0  0  0  0  0  0  0  0  0
   43.2380   84.2050   61.4510 N   0  0  0  0  0  0  0  0  0  0  0  0
   44.1400   83.2530   61.7790 C   0  0  0  0  0  0  0  0  0  0  0  0
   43.4800   82.1850   62.2940 N   0  0  0  0  0  0  0  0  0  0  0  0
   42.2000   82.4600   62.2900 C   0  0  0  0  0  0  0  0  0  0  0  0
   41.0010   81.8270   62.6540 C   0  0  0  0  0  0  0  0  0  0  0  0
   39.8300   82.4450   62.5200 N   0  0  0  0  0  0  0  0  0  0  0  0
   39.7350   83.6770   62.0020 C   0  0  0  0  0  0  0  0  0  0  0  0
   40.8560   84.3210   61.6210 N   0  0  0  0  0  0  0  0  0  0  0  0
   42.0490   83.7090   61.7700 C   0  0  0  0  0  0  0  0  0  0  0  0
   43.6890   85.4340   60.8860 C   0  0  0  0  0  0  0  0  0  0  0  0
   43.9550   86.4750   61.8310 C   0  0  0  0  0  0  0  0  0  0  0  0
   44.4100   87.7080   61.2870 C   0  0  0  0  0  0  0  0  0  0  0  0
   44.5660   87.8330   59.9440 N   0  0  0  0  0  0  0  0  0  0  0  0
   44.3000   86.8180   59.1050 C   0  0  0  0  0  0  0  0  0  0  0  0
   43.8670   85.6370   59.5940 N   0  0  0  0  0  0  0  0  0  0  0  0
   46.1320   82.1830   60.7640 C   0  0  0  0  0  0  0  0  0  0  0  0
   46.3080   83.1800   62.9680 C   0  0  0  0  0  0  0  0  0  0  0  0
   47.0890   81.9490   63.1510 C   0  0  0  0  0  0  0  0  0  0  0  0
   48.4390   82.0880   62.8470 C   0  0  0  0  0  0  0  0  0  0  0  0
   49.3260   81.0380   62.9490 C   0  0  0  0  0  0  0  0  0  0  0  0
   48.8490   79.8160   63.3660 C   0  0  0  0  0  0  0  0  0  0  0  0
   47.4880   79.7310   63.6600 C   0  0  0  0  0  0  0  0  0  0  0  0
   46.6410   80.7830   63.5480 N   0  0  0  0  0  0  0  0  0  0  0  0
   46.8530   78.4770   64.0200 C   0  0  0  0  0  0  0  0  0  0  0  0
   47.3810   77.7650   65.1120 C   0  0  0  0  0  0  0  0  0  0  0  0
   46.9080   76.5560   65.5780 C   0  0  0  0  0  0  0  0  0  0  0  0
   45.8390   75.9720   64.9480 C   0  0  0  0  0  0  0  0  0  0  0  0
   45.2930   76.6340   63.8720 C   0  0  0  0  0  0  0  0  0  0  0  0
   44.2440   76.0160   63.2260 C   0  0  0  0  0  0  0  0  0  0  0  0
   43.6480   76.5760   62.1080 C   0  0  0  0  0  0  0  0  0  0  0  0
   44.1850   77.7970   61.6900 C   0  0  0  0  0  0  0  0  0  0  0  0
   45.2310   78.3740   62.3670 C   0  0  0  0  0  0  0  0  0  0  0  0
   45.8030   77.8170   63.4630 C   0  0  0  0  0  0  0  0  0  0  0  0
   45.8527   84.2326   61.1526 H   0  0  0  0  0  0  0  0  0  0  0  0
   40.9390   80.9068   62.0545 H   0  0  0  0  0  0  0  0  0  0  0  0
   41.1001   81.7321   63.7454 H   0  0  0  0  0  0  0  0  0  0  0  0
   38.7522   84.1579   61.8888 H   0  0  0  0  0  0  0  0  0  0  0  0
   40.8025   85.2687   61.2210 H   0  0  0  0  0  0  0  0  0  0  0  0
   43.8160   86.3305   62.9126 H   0  0  0  0  0  0  0  0  0  0  0  0
   44.6343   88.5559   61.9509 H   0  0  0  0  0  0  0  0  0  0  0  0
   44.4349   86.9493   58.0212 H   0  0  0  0  0  0  0  0  0  0  0  0
   46.5169   81.3643   61.3898 H   0  0  0  0  0  0  0  0  0  0  0  0
   45.3164   81.8068   60.1289 H   0  0  0  0  0  0  0  0  0  0  0  0
   46.9420   82.5710   60.1289 H   0  0  0  0  0  0  0  0  0  0  0  0
   46.9870   84.0396   63.0675 H   0  0  0  0  0  0  0  0  0  0  0  0
   45.5191   83.1760   63.7345 H   0  0  0  0  0  0  0  0  0  0  0  0
   48.8111   83.0682   62.5142 H   0  0  0  0  0  0  0  0  0  0  0  0
   50.3896   81.1733   62.7031 H   0  0  0  0  0  0  0  0  0  0  0  0
   49.5125   78.9440   63.4632 H   0  0  0  0  0  0  0  0  0  0  0  0
   48.2404   78.2080   65.6367 H   0  0  0  0  0  0  0  0  0  0  0  0
   47.3814   76.0674   66.4424 H   0  0  0  0  0  0  0  0  0  0  0  0
   45.4325   75.0089   65.2904 H   0  0  0  0  0  0  0  0  0  0  0  0
   43.8708   75.0542   63.6077 H   0  0  0  0  0  0  0  0  0  0  0  0
   42.8095   76.0929   61.5849 H   0  0  0  0  0  0  0  0  0  0  0  0
   43.7644   78.3018   60.8078 H   0  0  0  0  0  0  0  0  0  0  0  0
   45.6240   79.3346   62.0026 H   0  0  0  0  0  0  0  0  0  0  0  0
  1  3  1  0
  1 18  1  0
  2 10  1  0
  2  3  1  0
  3  4  2  0
  5  4  1  0
  5  6  1  0
  7  6  1  0
  8  7  2  0
  9 10  1  0
  9  8  1  0
 10  5  2  0
 11  2  1  0
 11 12  2  0
 13 12  1  0
 14 13  2  0
 15 16  2  0
 15 14  1  0
 16 11  1  0
 17  1  1  0
 18 19  1  0
 19 24  2  0
 20 21  2  0
 20 19  1  0
 21 22  1  0
 22 23  2  0
 23 25  1  0
 24 23  1  0
 25 26  2  0
 26 27  1  0
 28 27  2  0
 29 28  1  0
 30 29  2  0
 31 30  1  0
 32 31  2  0
 32 33  1  0
 33 34  2  0
 34 29  1  0
 34 25  1  0
  1 35  1  6
  6 36  1  0
  6 37  1  0
  8 38  1  0
  9 39  1  0
 12 40  1  0
 13 41  1  0
 15 42  1  0
 17 43  1  0
 17 44  1  0
 17 45  1  0
 18 46  1  0
 18 47  1  0
 20 48  1  0
 21 49  1  0
 22 50  1  0
 26 51  1  0
 27 52  1  0
 28 53  1  0
 30 54  1  0
 31 55  1  0
 32 56  1  0
 33 57  1  0
M  END
>  <Score>  (1) 
-7.21673

$$$$
