
     RDKit          3D

 54 57  0  0  0  0  0  0  0  0999 V2000
   40.5370   79.7930   61.2070 N   0  0  0  0  0  0  0  0  0  0  0  0
   40.7200   78.8040   62.1180 C   0  0  0  0  0  0  0  0  0  0  0  0
   40.5800   77.4930   61.7170 C   0  0  0  0  0  0  0  0  0  0  0  0
   40.2580   77.1810   60.4090 C   0  0  0  0  0  0  0  0  0  0  0  0
   40.1520   75.9760   60.1100 O   0  0  0  0  0  0  0  0  0  0  0  0
   40.0870   78.1700   59.5580 N   0  0  0  0  0  0  0  0  0  0  0  0
   40.2210   79.4790   59.9290 C   0  0  0  0  0  0  0  0  0  0  0  0
   40.0270   80.2970   58.9980 O   0  0  0  0  0  0  0  0  0  0  0  0
   40.6480   81.1880   61.4530 C   0  0  0  0  0  0  0  0  0  0  0  0
   41.9010   81.7910   61.3860 C   0  0  0  0  0  0  0  0  0  0  0  0
   42.0030   83.1910   61.6260 C   0  0  0  0  0  0  0  0  0  0  0  0
   40.8260   83.8590   61.9140 N   0  0  0  0  0  0  0  0  0  0  0  0
   39.6540   83.2060   61.9610 C   0  0  0  0  0  0  0  0  0  0  0  0
   39.5620   81.8950   61.7350 N   0  0  0  0  0  0  0  0  0  0  0  0
   38.5140   83.9900   62.2560 N   0  0  0  0  0  0  0  0  0  0  0  0
   43.2030   83.8990   61.5890 N   0  0  0  0  0  0  0  0  0  0  0  0
   43.0720   85.2250   61.6060 N   0  0  0  0  0  0  0  0  0  0  0  0
   44.2630   85.8070   61.5750 C   0  0  0  0  0  0  0  0  0  0  0  0
   45.1990   84.8130   61.5360 C   0  0  0  0  0  0  0  0  0  0  0  0
   44.5260   83.6140   61.5450 C   0  0  0  0  0  0  0  0  0  0  0  0
   39.6920   77.7650   58.2090 C   0  0  0  0  0  0  0  0  0  0  0  0
   39.4890   78.8240   57.2140 C   0  0  0  0  0  0  0  0  0  0  0  0
   40.8550   76.8980   57.6280 C   0  0  0  0  0  0  0  0  0  0  0  0
   38.4860   76.8490   58.2040 C   0  0  0  0  0  0  0  0  0  0  0  0
   38.1880   76.2860   56.8600 N   0  0  0  0  0  0  0  0  0  0  0  0
   37.6230   77.1280   55.9370 C   0  0  0  0  0  0  0  0  0  0  0  0
   37.2560   76.8070   54.6500 C   0  0  0  0  0  0  0  0  0  0  0  0
   36.6520   77.8450   53.7740 C   0  0  0  0  0  0  0  0  0  0  0  0
   37.4870   75.5100   54.2770 C   0  0  0  0  0  0  0  0  0  0  0  0
   37.1730   75.1560   53.1120 O   0  0  0  0  0  0  0  0  0  0  0  0
   38.0400   74.6750   55.1710 N   0  0  0  0  0  0  0  0  0  0  0  0
   38.3830   75.0300   56.4180 C   0  0  0  0  0  0  0  0  0  0  0  0
   38.8870   74.2250   57.2050 O   0  0  0  0  0  0  0  0  0  0  0  0
   40.9761   79.0450   63.1603 H   0  0  0  0  0  0  0  0  0  0  0  0
   40.7264   76.6837   62.4475 H   0  0  0  0  0  0  0  0  0  0  0  0
   42.7964   81.1966   61.1518 H   0  0  0  0  0  0  0  0  0  0  0  0
   37.5846   83.5488   62.3067 H   0  0  0  0  0  0  0  0  0  0  0  0
   38.6133   85.0020   62.4201 H   0  0  0  0  0  0  0  0  0  0  0  0
   44.4605   86.8891   61.5798 H   0  0  0  0  0  0  0  0  0  0  0  0
   46.2903   84.9470   61.5034 H   0  0  0  0  0  0  0  0  0  0  0  0
   44.9777   82.6113   61.5210 H   0  0  0  0  0  0  0  0  0  0  0  0
   39.3059   79.7794   57.7275 H   0  0  0  0  0  0  0  0  0  0  0  0
   40.3866   78.9124   56.5843 H   0  0  0  0  0  0  0  0  0  0  0  0
   38.6224   78.5742   56.5843 H   0  0  0  0  0  0  0  0  0  0  0  0
   41.4370   76.4641   58.4544 H   0  0  0  0  0  0  0  0  0  0  0  0
   40.4365   76.0897   57.0103 H   0  0  0  0  0  0  0  0  0  0  0  0
   41.5101   77.5299   57.0103 H   0  0  0  0  0  0  0  0  0  0  0  0
   38.6752   76.0170   58.8982 H   0  0  0  0  0  0  0  0  0  0  0  0
   37.6162   77.4494   58.5089 H   0  0  0  0  0  0  0  0  0  0  0  0
   37.4450   78.1651   56.2577 H   0  0  0  0  0  0  0  0  0  0  0  0
   36.1956   78.6293   54.3958 H   0  0  0  0  0  0  0  0  0  0  0  0
   37.4330   78.2886   53.1390 H   0  0  0  0  0  0  0  0  0  0  0  0
   35.8804   77.3852   53.1390 H   0  0  0  0  0  0  0  0  0  0  0  0
   38.2115   73.7016   54.8813 H   0  0  0  0  0  0  0  0  0  0  0  0
  1  9  1  0
  1  2  1  0
  3  2  2  0
  4  3  1  0
  5  4  2  0
  6  7  1  0
  6  4  1  0
  7  1  1  0
  8  7  2  0
  9 14  1  0
 10  9  2  0
 10 11  1  0
 11 12  2  0
 12 13  1  0
 13 15  1  0
 14 13  2  0
 16 17  1  0
 16 11  1  0
 18 17  2  0
 19 20  2  0
 19 18  1  0
 20 16  1  0
 21  6  1  0
 22 21  1  0
 23 21  1  0
 24 21  1  0
 25 24  1  0
 26 25  1  0
 27 26  2  0
 28 27  1  0
 29 27  1  0
 29 31  1  0
 30 29  2  0
 31 32  1  0
 32 25  1  0
 32 33  2  0
  2 34  1  0
  3 35  1  0
 10 36  1  0
 15 37  1  0
 15 38  1  0
 18 39  1  0
 19 40  1  0
 20 41  1  0
 22 42  1  0
 22 43  1  0
 22 44  1  0
 23 45  1  0
 23 46  1  0
 23 47  1  0
 24 48  1  0
 24 49  1  0
 26 50  1  0
 28 51  1  0
 28 52  1  0
 28 53  1  0
 31 54  1  0
M  END
>  <Score>  (1) 
-7.78439

$$$$
