
     RDKit          3D

 42 46  0  0  1  0  0  0  0  0999 V2000
   39.9880   82.1650   60.4230 C   0  0  0  0  0  0  0  0  0  0  0  0
   40.5220   83.1610   59.5230 C   0  0  0  0  0  0  0  0  0  0  0  0
   40.2130   84.4940   59.7710 C   0  0  0  0  0  0  0  0  0  0  0  0
   39.4280   84.7730   60.8520 N   0  0  0  0  0  0  0  0  0  0  0  0
   38.9230   83.7860   61.7130 C   0  0  0  0  0  0  0  0  0  0  0  0
   39.2180   82.4680   61.4830 N   0  0  0  0  0  0  0  0  0  0  0  0
   40.3010   80.8150   60.1160 N   0  0  0  0  0  0  0  0  0  0  0  0
   40.7050   80.3230   58.9540 C   0  0  0  0  0  0  0  0  0  0  0  0
   41.0700   79.0240   59.0550 N   0  0  0  0  0  0  0  0  0  0  0  0
   40.8690   78.6840   60.3710 C   0  0  0  0  0  0  0  0  0  0  0  0
   41.0540   77.4800   60.9700 C   0  0  0  0  0  0  0  0  0  0  0  0
   41.5070   76.5050   60.2990 O   0  0  0  0  0  0  0  0  0  0  0  0
   40.7420   77.3730   62.2540 N   0  0  0  0  0  0  0  0  0  0  0  0
   40.2490   78.4640   62.9170 C   0  0  0  0  0  0  0  0  0  0  0  0
   39.9050   78.2100   64.2570 N   0  0  0  0  0  0  0  0  0  0  0  0
   40.0760   79.6640   62.3080 N   0  0  0  0  0  0  0  0  0  0  0  0
   40.3970   79.8040   60.9810 C   0  0  0  0  0  0  0  0  0  0  0  0
   40.9710   80.7770   57.6370 C   0  0  0  0  0  0  0  0  0  0  0  0
   41.1920   81.1560   56.5330 N   0  0  0  0  0  0  0  0  0  0  0  0
   41.4230   81.5550   55.3720 C   0  0  0  0  0  0  0  0  0  0  0  0
   40.3180   81.0810   54.7760 N   0  0  0  0  0  0  0  0  0  0  0  0
   39.4260   80.3920   55.5620 C   0  0  0  0  0  0  0  0  0  0  0  0
   38.3510   79.8200   54.8500 C   0  0  0  0  0  0  0  0  0  0  0  0
   37.5150   79.0030   55.5450 C   0  0  0  0  0  0  0  0  0  0  0  0
   37.6700   78.7100   56.8730 C   0  0  0  0  0  0  0  0  0  0  0  0
   38.7430   79.3490   57.3970 C   0  0  0  0  0  0  0  0  0  0  0  0
   39.7800   80.2650   56.9240 C   0  0  0  0  0  0  0  0  0  0  0  0
   41.1529   82.8741   58.6688 H   0  0  0  0  0  0  0  0  0  0  0  0
   40.5884   85.2960   59.1183 H   0  0  0  0  0  0  0  0  0  0  0  0
   38.2930   84.0696   62.5689 H   0  0  0  0  0  0  0  0  0  0  0  0
   40.8693   76.4780   62.7475 H   0  0  0  0  0  0  0  0  0  0  0  0
   39.5243   78.9665   64.8433 H   0  0  0  0  0  0  0  0  0  0  0  0
   40.0338   77.2675   64.6520 H   0  0  0  0  0  0  0  0  0  0  0  0
   41.6486   79.9248   57.4801 H   0  0  0  0  0  0  0  0  0  0  0  0
   41.9831   81.7152   56.8829 H   0  0  0  0  0  0  0  0  0  0  0  0
   41.4866   82.6517   55.3155 H   0  0  0  0  0  0  0  0  0  0  0  0
   42.3787   81.2289   54.9358 H   0  0  0  0  0  0  0  0  0  0  0  0
   40.1457   81.2276   53.7712 H   0  0  0  0  0  0  0  0  0  0  0  0
   38.1959   80.0256   53.7806 H   0  0  0  0  0  0  0  0  0  0  0  0
   36.6663   78.5522   55.0097 H   0  0  0  0  0  0  0  0  0  0  0  0
   37.0077   78.0410   57.4420 H   0  0  0  0  0  0  0  0  0  0  0  0
   38.8679   79.1166   58.4649 H   0  0  0  0  0  0  0  0  0  0  0  0
  1  6  2  0
  2  3  2  0
  2  1  1  0
  3  4  1  0
  4  5  2  0
  6  5  1  0
  7  1  1  0
  7 17  1  0
  8  9  2  0
  8  7  1  0
  9 10  1  0
 10 11  1  0
 10 17  2  0
 11 13  1  0
 12 11  2  0
 13 14  1  0
 14 15  1  0
 16 14  2  0
 17 16  1  0
 18  8  1  0
 19 18  1  0
 20 19  1  0
 21 20  1  0
 21 22  1  0
 22 27  2  0
 23 24  2  0
 23 22  1  0
 24 25  1  0
 25 26  2  0
 27 26  1  0
 27 18  1  0
  2 28  1  0
  3 29  1  0
  5 30  1  0
 13 31  1  0
 15 32  1  0
 15 33  1  0
 18 34  1  0
 19 35  1  0
 20 36  1  0
 20 37  1  0
 21 38  1  0
 23 39  1  0
 24 40  1  0
 25 41  1  0
 26 42  1  0
M  END
>  <Score>  (1) 
-7.78044

$$$$
