
     RDKit          3D

 46 49  0  0  1  0  0  0  0  0999 V2000
   41.4630   78.3160   61.4590 C   0  0  0  0  0  0  0  0  0  0  0  0
   40.0930   78.0060   61.4280 C   0  0  0  0  0  0  0  0  0  0  0  0
   39.6900   76.7530   61.0090 C   0  0  0  0  0  0  0  0  0  0  0  0
   40.6510   75.8610   60.6400 N   0  0  0  0  0  0  0  0  0  0  0  0
   41.9650   76.1990   60.6840 C   0  0  0  0  0  0  0  0  0  0  0  0
   42.3770   77.3840   61.0790 N   0  0  0  0  0  0  0  0  0  0  0  0
   41.9340   79.6490   61.9120 C   0  0  0  0  0  0  0  0  0  0  0  0
   41.1750   80.6510   61.1940 N   0  0  0  0  0  0  0  0  0  0  0  0
   40.7560   80.7120   59.9060 C   0  0  0  0  0  0  0  0  0  0  0  0
   40.0740   81.8440   59.6850 N   0  0  0  0  0  0  0  0  0  0  0  0
   40.0230   82.5540   60.8080 C   0  0  0  0  0  0  0  0  0  0  0  0
   39.4950   83.7730   61.2650 C   0  0  0  0  0  0  0  0  0  0  0  0
   38.8660   84.4440   60.3910 O   0  0  0  0  0  0  0  0  0  0  0  0
   39.6350   84.2070   62.5270 N   0  0  0  0  0  0  0  0  0  0  0  0
   40.3230   83.4330   63.4150 C   0  0  0  0  0  0  0  0  0  0  0  0
   40.5100   83.8310   64.7640 N   0  0  0  0  0  0  0  0  0  0  0  0
   40.8440   82.2630   63.0220 N   0  0  0  0  0  0  0  0  0  0  0  0
   40.7280   81.7880   61.7660 C   0  0  0  0  0  0  0  0  0  0  0  0
   43.0080   75.2150   60.2920 C   0  0  1  0  0  0  0  0  0  0  0  0
   44.3030   75.9290   59.8730 C   0  0  0  0  0  0  0  0  0  0  0  0
   43.3540   74.2950   61.4470 C   0  0  0  0  0  0  0  0  0  0  0  0
   42.7330   73.0120   61.3870 N   0  0  0  0  0  0  0  0  0  0  0  0
   42.2740   72.6460   60.1530 C   0  0  0  0  0  0  0  0  0  0  0  0
   41.6520   71.4390   59.9060 C   0  0  0  0  0  0  0  0  0  0  0  0
   41.4710   70.5380   60.9350 C   0  0  0  0  0  0  0  0  0  0  0  0
   40.9170   69.4170   60.8040 O   0  0  0  0  0  0  0  0  0  0  0  0
   41.9330   70.9280   62.1350 N   0  0  0  0  0  0  0  0  0  0  0  0
   42.5360   72.1060   62.3630 C   0  0  0  0  0  0  0  0  0  0  0  0
   42.9510   72.4360   63.4850 O   0  0  0  0  0  0  0  0  0  0  0  0
   39.3477   78.7547   61.7348 H   0  0  0  0  0  0  0  0  0  0  0  0
   38.6241   76.4834   60.9743 H   0  0  0  0  0  0  0  0  0  0  0  0
   41.7680   79.7573   62.9940 H   0  0  0  0  0  0  0  0  0  0  0  0
   43.0098   79.7653   61.7142 H   0  0  0  0  0  0  0  0  0  0  0  0
   40.9492   79.9392   59.1474 H   0  0  0  0  0  0  0  0  0  0  0  0
   39.2305   85.1079   62.8198 H   0  0  0  0  0  0  0  0  0  0  0  0
   41.0342   83.2255   65.4117 H   0  0  0  0  0  0  0  0  0  0  0  0
   40.1216   84.7255   65.0956 H   0  0  0  0  0  0  0  0  0  0  0  0
   42.5964   74.6352   59.4527 H   0  0  0  0  0  0  0  0  0  0  0  0
   44.8595   76.2358   60.7709 H   0  0  0  0  0  0  0  0  0  0  0  0
   44.9218   75.2446   59.2741 H   0  0  0  0  0  0  0  0  0  0  0  0
   44.0545   76.8176   59.2741 H   0  0  0  0  0  0  0  0  0  0  0  0
   44.4442   74.1491   61.4555 H   0  0  0  0  0  0  0  0  0  0  0  0
   42.9785   74.7823   62.3589 H   0  0  0  0  0  0  0  0  0  0  0  0
   42.4067   73.3473   59.3160 H   0  0  0  0  0  0  0  0  0  0  0  0
   41.3017   71.1961   58.8920 H   0  0  0  0  0  0  0  0  0  0  0  0
   41.8174   70.2830   62.9297 H   0  0  0  0  0  0  0  0  0  0  0  0
  1  7  1  0
  2  1  2  0
  3  2  1  0
  4  5  1  0
  4  3  2  0
  5  6  2  0
  6  1  1  0
  8 18  1  0
  8  7  1  0
  9  8  1  0
 10  9  2  0
 10 11  1  0
 11 12  1  0
 11 18  2  0
 12 14  1  0
 13 12  2  0
 14 15  1  0
 15 16  1  0
 17 15  2  0
 18 17  1  0
 19  5  1  0
 19 21  1  0
 20 19  1  0
 22 21  1  0
 22 28  1  0
 23 22  1  0
 24 23  2  0
 24 25  1  0
 25 27  1  0
 26 25  2  0
 27 28  1  0
 28 29  2  0
  2 30  1  0
  3 31  1  0
  7 32  1  0
  7 33  1  0
  9 34  1  0
 14 35  1  0
 16 36  1  0
 16 37  1  0
 19 38  1  6
 20 39  1  0
 20 40  1  0
 20 41  1  0
 21 42  1  0
 21 43  1  0
 23 44  1  0
 24 45  1  0
 27 46  1  0
M  END
>  <Score>  (1) 
-7.12589

$$$$
