
     RDKit          3D

 52 56  0  0  0  0  0  0  0  0999 V2000
   42.9770   85.0960   59.4290 C   0  0  0  0  0  0  0  0  0  0  0  0
   43.2480   86.3180   59.3930 O   0  0  0  0  0  0  0  0  0  0  0  0
   42.6300   84.3730   63.0710 C   0  0  0  0  0  0  0  0  0  0  0  0
   42.8800   85.0770   61.8920 C   0  0  0  0  0  0  0  0  0  0  0  0
   42.7350   84.4290   60.6870 C   0  0  0  0  0  0  0  0  0  0  0  0
   42.3550   83.1310   60.7220 N   0  0  0  0  0  0  0  0  0  0  0  0
   42.1150   82.4550   61.8660 C   0  0  0  0  0  0  0  0  0  0  0  0
   42.2540   83.0770   63.0310 N   0  0  0  0  0  0  0  0  0  0  0  0
   41.7140   81.0900   61.8730 N   0  0  0  0  0  0  0  0  0  0  0  0
   42.6850   80.1730   61.8100 C   0  0  0  0  0  0  0  0  0  0  0  0
   42.2860   78.8420   61.8170 C   0  0  0  0  0  0  0  0  0  0  0  0
   40.9490   78.5630   61.8890 C   0  0  0  0  0  0  0  0  0  0  0  0
   40.4370   77.2300   61.9020 N   0  0  0  0  0  0  0  0  0  0  0  0
   39.9950   79.5300   61.9520 N   0  0  0  0  0  0  0  0  0  0  0  0
   40.3810   80.8440   61.9450 C   0  0  0  0  0  0  0  0  0  0  0  0
   39.5560   81.8160   62.0020 O   0  0  0  0  0  0  0  0  0  0  0  0
   42.9070   84.3420   58.1740 C   0  0  0  0  0  0  0  0  0  0  0  0
   43.7840   84.2150   57.1140 C   0  0  0  0  0  0  0  0  0  0  0  0
   43.4410   83.4360   56.0760 C   0  0  0  0  0  0  0  0  0  0  0  0
   42.2520   82.7710   56.0480 C   0  0  0  0  0  0  0  0  0  0  0  0
   41.5220   83.3140   57.6960 S   0  0  0  0  0  0  0  0  0  0  0  0
   41.5960   81.9230   55.1890 C   0  0  0  0  0  0  0  0  0  0  0  0
   42.0300   81.7130   53.8780 C   0  0  0  0  0  0  0  0  0  0  0  0
   41.3370   80.8430   53.0340 C   0  0  0  0  0  0  0  0  0  0  0  0
   40.2410   80.2050   53.5000 N   0  0  0  0  0  0  0  0  0  0  0  0
   39.8250   80.4090   54.7620 C   0  0  0  0  0  0  0  0  0  0  0  0
   40.4930   81.2420   55.5580 N   0  0  0  0  0  0  0  0  0  0  0  0
   38.6740   79.7470   55.2680 N   0  0  0  0  0  0  0  0  0  0  0  0
   38.6320   79.1180   56.5760 C   0  0  0  0  0  0  0  0  0  0  0  0
   37.3230   78.4080   56.7110 C   0  0  0  0  0  0  0  0  0  0  0  0
   36.9390   77.6140   55.5870 N   0  0  0  0  0  0  0  0  0  0  0  0
   37.1120   78.2220   54.3050 C   0  0  0  0  0  0  0  0  0  0  0  0
   37.4740   79.6870   54.4530 C   0  0  0  0  0  0  0  0  0  0  0  0
   42.7403   84.8788   64.0416 H   0  0  0  0  0  0  0  0  0  0  0  0
   43.1879   86.1325   61.9257 H   0  0  0  0  0  0  0  0  0  0  0  0
   43.7461   80.4578   61.7554 H   0  0  0  0  0  0  0  0  0  0  0  0
   43.0281   78.0317   61.7658 H   0  0  0  0  0  0  0  0  0  0  0  0
   39.4212   77.0690   61.9573 H   0  0  0  0  0  0  0  0  0  0  0  0
   41.0835   76.4295   61.8561 H   0  0  0  0  0  0  0  0  0  0  0  0
   44.7484   84.7441   57.1205 H   0  0  0  0  0  0  0  0  0  0  0  0
   44.1353   83.3322   55.2291 H   0  0  0  0  0  0  0  0  0  0  0  0
   42.9238   82.2366   53.5080 H   0  0  0  0  0  0  0  0  0  0  0  0
   41.6794   80.6789   52.0016 H   0  0  0  0  0  0  0  0  0  0  0  0
   39.4579   78.3974   56.6694 H   0  0  0  0  0  0  0  0  0  0  0  0
   38.7362   79.8764   57.3659 H   0  0  0  0  0  0  0  0  0  0  0  0
   37.3839   77.7475   57.5885 H   0  0  0  0  0  0  0  0  0  0  0  0
   36.5592   79.1942   56.8025 H   0  0  0  0  0  0  0  0  0  0  0  0
   37.4994   76.7500   55.6047 H   0  0  0  0  0  0  0  0  0  0  0  0
   36.1749   78.1371   53.7353 H   0  0  0  0  0  0  0  0  0  0  0  0
   37.9274   77.7072   53.7757 H   0  0  0  0  0  0  0  0  0  0  0  0
   37.6658   80.1305   53.4648 H   0  0  0  0  0  0  0  0  0  0  0  0
   36.6526   80.2492   54.9213 H   0  0  0  0  0  0  0  0  0  0  0  0
  1  5  1  0
  2  1  2  0
  4  3  2  0
  5  6  2  0
  5  4  1  0
  6  7  1  0
  7  9  1  0
  7  8  2  0
  8  3  1  0
  9 15  1  0
 10 11  2  0
 10  9  1  0
 11 12  1  0
 12 13  1  0
 12 14  2  0
 15 14  1  0
 15 16  2  0
 17  1  1  0
 18 17  2  0
 19 18  1  0
 20 19  2  0
 20 21  1  0
 21 17  1  0
 22 27  1  0
 22 20  1  0
 23 22  2  0
 24 25  2  0
 24 23  1  0
 25 26  1  0
 26 28  1  0
 26 27  2  0
 28 29  1  0
 29 30  1  0
 31 30  1  0
 32 33  1  0
 32 31  1  0
 33 28  1  0
  3 34  1  0
  4 35  1  0
 10 36  1  0
 11 37  1  0
 13 38  1  0
 13 39  1  0
 18 40  1  0
 19 41  1  0
 23 42  1  0
 24 43  1  0
 29 44  1  0
 29 45  1  0
 30 46  1  0
 30 47  1  0
 31 48  1  0
 32 49  1  0
 32 50  1  0
 33 51  1  0
 33 52  1  0
M  END
>  <Score>  (1) 
-7.26158

$$$$
