
     RDKit          3D

 43 46  0  0  0  0  0  0  0  0999 V2000
   40.7890   82.4140   59.2670 C   0  0  0  0  0  0  0  0  0  0  0  0
   39.9820   81.3800   58.8540 C   0  0  0  0  0  0  0  0  0  0  0  0
   40.2320   81.1560   57.5240 C   0  0  0  0  0  0  0  0  0  0  0  0
   41.1840   82.0660   57.1780 C   0  0  0  0  0  0  0  0  0  0  0  0
   41.5260   82.8250   58.2200 O   0  0  0  0  0  0  0  0  0  0  0  0
   39.6060   80.1700   56.7050 C   0  0  0  0  0  0  0  0  0  0  0  0
   40.0430   78.9100   56.3220 C   0  0  0  0  0  0  0  0  0  0  0  0
   39.2710   78.1100   55.5150 C   0  0  0  0  0  0  0  0  0  0  0  0
   38.0340   78.5020   55.0440 C   0  0  0  0  0  0  0  0  0  0  0  0
   37.5840   79.7510   55.4150 C   0  0  0  0  0  0  0  0  0  0  0  0
   38.3510   80.5810   56.2320 C   0  0  0  0  0  0  0  0  0  0  0  0
   39.7440   82.6710   61.5220 C   0  0  0  0  0  0  0  0  0  0  0  0
   40.7850   82.9110   60.6130 C   0  0  0  0  0  0  0  0  0  0  0  0
   41.8650   83.6710   61.0520 C   0  0  0  0  0  0  0  0  0  0  0  0
   41.8680   84.1440   62.3200 N   0  0  0  0  0  0  0  0  0  0  0  0
   40.8320   83.8780   63.1510 C   0  0  0  0  0  0  0  0  0  0  0  0
   39.7870   83.1600   62.7780 N   0  0  0  0  0  0  0  0  0  0  0  0
   40.8540   84.4040   64.5370 C   0  0  0  0  0  0  0  0  0  0  0  0
   40.0480   83.6290   65.3500 F   0  0  0  0  0  0  0  0  0  0  0  0
   40.4870   85.6840   64.6400 F   0  0  0  0  0  0  0  0  0  0  0  0
   42.1570   84.2560   65.0130 F   0  0  0  0  0  0  0  0  0  0  0  0
   42.9680   83.9880   60.2610 O   0  0  0  0  0  0  0  0  0  0  0  0
   43.3860   85.2860   60.0410 C   0  0  0  0  0  0  0  0  0  0  0  0
   44.1170   85.8940   61.0350 C   0  0  0  0  0  0  0  0  0  0  0  0
   44.5980   87.1660   60.9610 C   0  0  0  0  0  0  0  0  0  0  0  0
   44.3360   87.9120   59.8050 C   0  0  0  0  0  0  0  0  0  0  0  0
   43.5880   87.2210   58.8460 C   0  0  0  0  0  0  0  0  0  0  0  0
   43.1180   85.9630   58.9290 N   0  0  0  0  0  0  0  0  0  0  0  0
   41.8560   82.3240   55.9050 C   0  0  0  0  0  0  0  0  0  0  0  0
   43.1530   81.8450   55.9690 F   0  0  0  0  0  0  0  0  0  0  0  0
   41.9340   83.7120   55.6420 F   0  0  0  0  0  0  0  0  0  0  0  0
   41.1400   81.7840   54.8690 F   0  0  0  0  0  0  0  0  0  0  0  0
   39.2634   80.8300   59.4793 H   0  0  0  0  0  0  0  0  0  0  0  0
   41.0214   78.5466   56.6694 H   0  0  0  0  0  0  0  0  0  0  0  0
   39.6536   77.1180   55.2330 H   0  0  0  0  0  0  0  0  0  0  0  0
   37.4322   77.8447   54.3992 H   0  0  0  0  0  0  0  0  0  0  0  0
   36.6026   80.0991   55.0604 H   0  0  0  0  0  0  0  0  0  0  0  0
   37.9659   81.5733   56.5098 H   0  0  0  0  0  0  0  0  0  0  0  0
   38.8769   82.0731   61.2046 H   0  0  0  0  0  0  0  0  0  0  0  0
   44.3263   85.3163   61.9474 H   0  0  0  0  0  0  0  0  0  0  0  0
   45.1787   87.5973   61.7897 H   0  0  0  0  0  0  0  0  0  0  0  0
   44.6859   88.9453   59.6643 H   0  0  0  0  0  0  0  0  0  0  0  0
   43.3581   87.7677   57.9196 H   0  0  0  0  0  0  0  0  0  0  0  0
  1 13  1  0
  2  1  2  0
  3  2  1  0
  4  3  2  0
  4  5  1  0
  5  1  1  0
  6  3  1  0
  7  6  2  0
  8  7  1  0
  9 10  1  0
  9  8  2  0
 10 11  2  0
 11  6  1  0
 12 17  2  0
 13 14  2  0
 13 12  1  0
 14 15  1  0
 15 16  2  0
 16 18  1  0
 17 16  1  0
 18 20  1  0
 18 21  1  0
 18 19  1  0
 22 14  1  0
 23 22  1  0
 23 24  2  0
 25 24  1  0
 26 25  2  0
 27 28  2  0
 27 26  1  0
 28 23  1  0
 29 30  1  0
 29  4  1  0
 31 29  1  0
 32 29  1  0
  2 33  1  0
  7 34  1  0
  8 35  1  0
  9 36  1  0
 10 37  1  0
 11 38  1  0
 12 39  1  0
 24 40  1  0
 25 41  1  0
 26 42  1  0
 27 43  1  0
M  END
>  <Score>  (1) 
-7.09828

$$$$
