
     RDKit          3D

 44 49  0  0  0  0  0  0  0  0999 V2000
   41.6860   85.3510   57.2470 C   0  0  0  0  0  0  0  0  0  0  0  0
   41.7620   84.0660   56.6170 C   0  0  0  0  0  0  0  0  0  0  0  0
   42.1160   82.9930   57.4050 C   0  0  0  0  0  0  0  0  0  0  0  0
   42.3670   83.2210   58.7040 N   0  0  0  0  0  0  0  0  0  0  0  0
   42.3020   84.4070   59.3060 C   0  0  0  0  0  0  0  0  0  0  0  0
   41.9560   85.4830   58.5590 N   0  0  0  0  0  0  0  0  0  0  0  0
   42.2130   81.6370   56.8200 C   0  0  0  0  0  0  0  0  0  0  0  0
   43.4170   81.2370   56.2010 C   0  0  0  0  0  0  0  0  0  0  0  0
   43.0580   79.5160   55.6410 S   0  0  0  0  0  0  0  0  0  0  0  0
   41.3120   79.6570   56.3610 C   0  0  0  0  0  0  0  0  0  0  0  0
   41.3090   80.6910   56.7800 N   0  0  0  0  0  0  0  0  0  0  0  0
   40.2780   78.6210   56.3340 N   0  0  0  0  0  0  0  0  0  0  0  0
   39.1150   78.7290   57.0380 C   0  0  0  0  0  0  0  0  0  0  0  0
   38.3380   77.6590   56.8490 N   0  0  0  0  0  0  0  0  0  0  0  0
   39.0090   76.8540   56.0170 C   0  0  0  0  0  0  0  0  0  0  0  0
   38.7740   75.6090   55.4300 C   0  0  0  0  0  0  0  0  0  0  0  0
   37.6840   75.0300   55.6980 O   0  0  0  0  0  0  0  0  0  0  0  0
   39.6940   75.0420   54.5980 N   0  0  0  0  0  0  0  0  0  0  0  0
   40.8690   75.6750   54.3150 C   0  0  0  0  0  0  0  0  0  0  0  0
   41.6760   74.9230   53.4380 N   0  0  0  0  0  0  0  0  0  0  0  0
   41.1070   76.8900   54.8820 N   0  0  0  0  0  0  0  0  0  0  0  0
   40.1960   77.4370   55.6990 C   0  0  0  0  0  0  0  0  0  0  0  0
   42.5780   84.6140   60.7030 C   0  0  0  0  0  0  0  0  0  0  0  0
   43.6900   85.2010   61.2930 C   0  0  0  0  0  0  0  0  0  0  0  0
   43.5800   85.2120   62.6340 N   0  0  0  0  0  0  0  0  0  0  0  0
   42.4060   84.6390   62.9090 C   0  0  0  0  0  0  0  0  0  0  0  0
   41.7590   84.3770   64.1340 C   0  0  0  0  0  0  0  0  0  0  0  0
   40.5210   83.7560   64.1030 C   0  0  0  0  0  0  0  0  0  0  0  0
   39.8920   83.3830   62.9420 C   0  0  0  0  0  0  0  0  0  0  0  0
   40.5340   83.6460   61.7520 C   0  0  0  0  0  0  0  0  0  0  0  0
   41.7600   84.2580   61.7540 C   0  0  0  0  0  0  0  0  0  0  0  0
   41.4054   86.2345   56.6549 H   0  0  0  0  0  0  0  0  0  0  0  0
   41.5460   83.9414   55.5456 H   0  0  0  0  0  0  0  0  0  0  0  0
   44.3463   81.8132   56.0812 H   0  0  0  0  0  0  0  0  0  0  0  0
   38.8515   79.5845   57.6773 H   0  0  0  0  0  0  0  0  0  0  0  0
   39.4989   74.1224   54.1771 H   0  0  0  0  0  0  0  0  0  0  0  0
   42.5931   75.2869   53.1423 H   0  0  0  0  0  0  0  0  0  0  0  0
   41.3488   74.0094   53.0927 H   0  0  0  0  0  0  0  0  0  0  0  0
   44.5488   85.6044   60.7364 H   0  0  0  0  0  0  0  0  0  0  0  0
   44.2617   85.5858   63.3097 H   0  0  0  0  0  0  0  0  0  0  0  0
   42.2252   84.6584   65.0897 H   0  0  0  0  0  0  0  0  0  0  0  0
   40.0161   83.5513   65.0586 H   0  0  0  0  0  0  0  0  0  0  0  0
   38.9085   82.8907   62.9609 H   0  0  0  0  0  0  0  0  0  0  0  0
   40.0620   83.3644   60.7991 H   0  0  0  0  0  0  0  0  0  0  0  0
  1  6  2  0
  2  1  1  0
  2  3  2  0
  3  4  1  0
  4  5  2  0
  5 23  1  0
  6  5  1  0
  7  3  1  0
  8  7  2  0
  9  8  1  0
  9 10  1  0
 10 11  2  0
 11  7  1  0
 12 10  1  0
 12 13  1  0
 14 13  2  0
 15 14  1  0
 16 17  2  0
 16 15  1  0
 18 16  1  0
 19 18  1  0
 19 21  2  0
 20 19  1  0
 21 22  1  0
 22 15  2  0
 22 12  1  0
 23 24  2  0
 23 31  1  0
 24 25  1  0
 25 26  1  0
 26 27  2  0
 28 27  1  0
 29 28  2  0
 30 31  2  0
 30 29  1  0
 31 26  1  0
  1 32  1  0
  2 33  1  0
  8 34  1  0
 13 35  1  0
 18 36  1  0
 20 37  1  0
 20 38  1  0
 24 39  1  0
 25 40  1  0
 27 41  1  0
 28 42  1  0
 29 43  1  0
 30 44  1  0
M  END
>  <Score>  (1) 
-7.18816

$$$$
