
     RDKit          3D

 49 52  0  0  1  0  0  0  0  0999 V2000
   39.6730   83.6020   60.0720 C   0  0  0  0  0  0  0  0  0  0  0  0
   40.0540   82.2480   60.0840 C   0  0  0  0  0  0  0  0  0  0  0  0
   40.7590   81.7970   61.2080 C   0  0  0  0  0  0  0  0  0  0  0  0
   41.0020   82.7070   62.1830 N   0  0  0  0  0  0  0  0  0  0  0  0
   40.6320   83.9760   62.1530 C   0  0  0  0  0  0  0  0  0  0  0  0
   39.9620   84.4110   61.0770 N   0  0  0  0  0  0  0  0  0  0  0  0
   40.9470   84.8070   63.2720 N   0  0  0  0  0  0  0  0  0  0  0  0
   40.4240   84.4280   64.5550 C   0  0  0  0  0  0  0  0  0  0  0  0
   40.3370   83.2130   64.9350 N   0  0  0  0  0  0  0  0  0  0  0  0
   39.9790   85.4640   65.4460 N   0  0  0  0  0  0  0  0  0  0  0  0
   40.6370   82.3840   64.4380 H   0  0  0  0  0  0  0  0  0  0  0  0
   41.2160   80.4590   61.3490 N   0  0  0  0  0  0  0  0  0  0  0  0
   40.5550   79.3660   62.0210 C   0  0  0  0  0  0  0  0  0  0  0  0
   41.4760   78.1960   61.8500 C   0  0  0  0  0  0  0  0  0  0  0  0
   42.8280   78.8820   61.8300 C   0  0  0  0  0  0  0  0  0  0  0  0
   42.4600   79.9860   60.8150 C   0  0  2  0  0  0  0  0  0  0  0  0
   43.5720   80.9760   60.8540 C   0  0  1  0  0  0  0  0  0  0  0  0
   43.2770   82.0360   59.8320 C   0  0  0  0  0  0  0  0  0  0  0  0
   43.8960   83.3310   60.2640 C   0  0  0  0  0  0  0  0  0  0  0  0
   44.0840   83.1740   61.7390 C   0  0  0  0  0  0  0  0  0  0  0  0
   43.6820   81.7730   62.0940 C   0  0  2  0  0  0  0  0  0  0  0  0
   45.1290   81.1880   62.7120 C   0  0  0  0  0  0  0  0  0  0  0  0
   45.5810   79.9710   62.7370 C   0  0  0  0  0  0  0  0  0  0  0  0
   46.7810   79.8990   63.3230 C   0  0  0  0  0  0  0  0  0  0  0  0
   47.4220   81.0300   63.8280 C   0  0  0  0  0  0  0  0  0  0  0  0
   46.0880   82.3100   63.3740 S   0  0  0  0  0  0  0  0  0  0  0  0
   39.1216   83.9971   59.2060 H   0  0  0  0  0  0  0  0  0  0  0  0
   39.8098   81.5742   59.2495 H   0  0  0  0  0  0  0  0  0  0  0  0
   41.5295   85.6494   63.1623 H   0  0  0  0  0  0  0  0  0  0  0  0
   39.5998   85.2192   66.3718 H   0  0  0  0  0  0  0  0  0  0  0  0
   40.0393   86.4513   65.1588 H   0  0  0  0  0  0  0  0  0  0  0  0
   40.4144   79.5955   63.0876 H   0  0  0  0  0  0  0  0  0  0  0  0
   39.5545   79.1698   61.6080 H   0  0  0  0  0  0  0  0  0  0  0  0
   41.3939   77.4926   62.6917 H   0  0  0  0  0  0  0  0  0  0  0  0
   41.2677   77.5854   60.9591 H   0  0  0  0  0  0  0  0  0  0  0  0
   43.1083   79.2894   62.8126 H   0  0  0  0  0  0  0  0  0  0  0  0
   43.6965   78.2539   61.5828 H   0  0  0  0  0  0  0  0  0  0  0  0
   42.3424   79.7060   59.7577 H   0  0  0  0  0  0  0  0  0  0  0  0
   44.4794   80.3698   60.7160 H   0  0  0  0  0  0  0  0  0  0  0  0
   42.1883   82.1628   59.7387 H   0  0  0  0  0  0  0  0  0  0  0  0
   43.6952   81.7354   58.8600 H   0  0  0  0  0  0  0  0  0  0  0  0
   44.8622   83.4881   59.7622 H   0  0  0  0  0  0  0  0  0  0  0  0
   43.2733   84.2012   60.0090 H   0  0  0  0  0  0  0  0  0  0  0  0
   45.1384   83.3415   62.0039 H   0  0  0  0  0  0  0  0  0  0  0  0
   43.4736   83.9052   62.2891 H   0  0  0  0  0  0  0  0  0  0  0  0
   42.7688   81.7330   62.7060 H   0  0  0  0  0  0  0  0  0  0  0  0
   45.0423   79.1044   62.3261 H   0  0  0  0  0  0  0  0  0  0  0  0
   47.2762   78.9205   63.4091 H   0  0  0  0  0  0  0  0  0  0  0  0
   48.3935   81.1460   64.3308 H   0  0  0  0  0  0  0  0  0  0  0  0
  1  2  2  0
  1  6  1  0
  2  3  1  0
  3 12  1  0
  3  4  2  0
  5  4  1  0
  5  7  1  0
  6  5  2  0
  7  8  1  0
  8  9  2  0
  8 10  1  0
 11  9  1  0
 12 13  1  0
 14 13  1  0
 15 14  1  0
 16 17  1  0
 16 12  1  0
 16 15  1  0
 17 21  1  0
 18 19  1  0
 18 17  1  0
 19 20  1  0
 20 21  1  0
 21 22  1  0
 22 23  2  0
 22 26  1  0
 23 24  1  0
 24 25  2  0
 26 25  1  0
  1 27  1  0
  2 28  1  0
  7 29  1  0
 10 30  1  0
 10 31  1  0
 13 32  1  0
 13 33  1  0
 14 34  1  0
 14 35  1  0
 15 36  1  0
 15 37  1  0
 16 38  1  6
 17 39  1  6
 18 40  1  0
 18 41  1  0
 19 42  1  0
 19 43  1  0
 20 44  1  0
 20 45  1  0
 21 46  1  1
 23 47  1  0
 24 48  1  0
 25 49  1  0
M  END
>  <Score>  (1) 
-7.12538

$$$$
