
     RDKit          3D

 38 41  0  0  0  0  0  0  0  0999 V2000
   45.4930   87.5670   57.3880 C   0  0  0  0  0  0  0  0  0  0  0  0
   45.1220   88.8990   57.6660 C   0  0  0  0  0  0  0  0  0  0  0  0
   44.5170   89.1480   58.8940 C   0  0  0  0  0  0  0  0  0  0  0  0
   44.3060   88.1280   59.7660 N   0  0  0  0  0  0  0  0  0  0  0  0
   44.6790   86.8510   59.4630 C   0  0  0  0  0  0  0  0  0  0  0  0
   45.2610   86.6020   58.2880 N   0  0  0  0  0  0  0  0  0  0  0  0
   44.4560   85.8000   60.3740 N   0  0  0  0  0  0  0  0  0  0  0  0
   45.4600   85.3280   61.1310 C   0  0  0  0  0  0  0  0  0  0  0  0
   45.3610   84.3120   62.0500 C   0  0  0  0  0  0  0  0  0  0  0  0
   44.0980   83.7780   62.1500 C   0  0  0  0  0  0  0  0  0  0  0  0
   43.8960   82.8330   62.9690 O   0  0  0  0  0  0  0  0  0  0  0  0
   43.0540   84.2040   61.4240 N   0  0  0  0  0  0  0  0  0  0  0  0
   43.2350   85.1980   60.5520 C   0  0  0  0  0  0  0  0  0  0  0  0
   42.2590   85.6160   59.8530 O   0  0  0  0  0  0  0  0  0  0  0  0
   41.7650   83.6010   61.5790 C   0  0  0  0  0  0  0  0  0  0  0  0
   40.7430   84.1320   62.3640 C   0  0  0  0  0  0  0  0  0  0  0  0
   39.5200   83.5030   62.4750 C   0  0  0  0  0  0  0  0  0  0  0  0
   39.3180   82.3460   61.8030 N   0  0  0  0  0  0  0  0  0  0  0  0
   40.3080   81.8290   61.0420 C   0  0  0  0  0  0  0  0  0  0  0  0
   41.4790   82.4490   60.9470 N   0  0  0  0  0  0  0  0  0  0  0  0
   40.2180   80.6150   60.2850 N   0  0  0  0  0  0  0  0  0  0  0  0
   40.1150   80.4500   58.9530 C   0  0  0  0  0  0  0  0  0  0  0  0
   40.0430   79.1640   58.4540 C   0  0  0  0  0  0  0  0  0  0  0  0
   40.0770   78.0620   59.2960 C   0  0  0  0  0  0  0  0  0  0  0  0
   40.0090   76.8990   58.7920 O   0  0  0  0  0  0  0  0  0  0  0  0
   40.1820   78.2850   60.6200 N   0  0  0  0  0  0  0  0  0  0  0  0
   40.2520   79.5510   61.1190 C   0  0  0  0  0  0  0  0  0  0  0  0
   40.3460   79.5600   62.3690 O   0  0  0  0  0  0  0  0  0  0  0  0
   45.9739   87.3198   56.4301 H   0  0  0  0  0  0  0  0  0  0  0  0
   45.3034   89.7073   56.9422 H   0  0  0  0  0  0  0  0  0  0  0  0
   44.2097   90.1705   59.1586 H   0  0  0  0  0  0  0  0  0  0  0  0
   46.4475   85.7958   61.0040 H   0  0  0  0  0  0  0  0  0  0  0  0
   46.2126   83.9586   62.6499 H   0  0  0  0  0  0  0  0  0  0  0  0
   40.9152   85.0731   62.9069 H   0  0  0  0  0  0  0  0  0  0  0  0
   38.7233   83.9344   63.0987 H   0  0  0  0  0  0  0  0  0  0  0  0
   40.0888   81.3183   58.2782 H   0  0  0  0  0  0  0  0  0  0  0  0
   39.9571   79.0107   57.3681 H   0  0  0  0  0  0  0  0  0  0  0  0
   40.2099   77.4841   61.2671 H   0  0  0  0  0  0  0  0  0  0  0  0
  1  2  2  0
  1  6  1  0
  2  3  1  0
  3  4  2  0
  5  4  1  0
  5  7  1  0
  6  5  2  0
  7 13  1  0
  7  8  1  0
  8  9  2  0
  9 10  1  0
 10 11  2  0
 12 15  1  0
 12 10  1  0
 13 12  1  0
 14 13  2  0
 15 16  2  0
 16 17  1  0
 18 17  2  0
 19 18  1  0
 20 19  2  0
 20 15  1  0
 21 19  1  0
 21 27  1  0
 22 21  1  0
 23 22  2  0
 23 24  1  0
 24 26  1  0
 25 24  2  0
 26 27  1  0
 27 28  2  0
  1 29  1  0
  2 30  1  0
  3 31  1  0
  8 32  1  0
  9 33  1  0
 16 34  1  0
 17 35  1  0
 22 36  1  0
 23 37  1  0
 26 38  1  0
M  END
>  <Score>  (1) 
-7.24872

$$$$
