
     RDKit          3D

 53 57  0  0  1  0  0  0  0  0999 V2000
   39.4700   83.1440   61.6930 C   0  0  0  0  0  0  0  0  0  0  0  0
   39.4520   83.6480   60.3700 C   0  0  0  0  0  0  0  0  0  0  0  0
   40.2740   83.0580   59.4500 C   0  0  0  0  0  0  0  0  0  0  0  0
   41.0710   82.0170   59.8420 N   0  0  0  0  0  0  0  0  0  0  0  0
   41.0790   81.5480   61.0970 C   0  0  0  0  0  0  0  0  0  0  0  0
   40.2670   82.1290   62.0100 N   0  0  0  0  0  0  0  0  0  0  0  0
   38.6210   83.7470   62.6480 N   0  0  0  0  0  0  0  0  0  0  0  0
   41.9390   80.4520   61.4400 N   0  0  0  0  0  0  0  0  0  0  0  0
   43.3440   80.7690   61.5650 C   0  0  0  0  0  0  0  0  0  0  0  0
   44.1410   79.6480   62.1410 C   0  0  0  0  0  0  0  0  0  0  0  0
   43.6040   78.3480   61.5890 C   0  0  0  0  0  0  0  0  0  0  0  0
   42.2250   78.2130   62.2870 C   0  0  0  0  0  0  0  0  0  0  0  0
   41.2920   79.1450   61.6180 C   0  0  2  0  0  0  0  0  0  0  0  0
   40.8460   78.5850   60.3770 N   0  0  0  0  0  0  0  0  0  0  0  0
   39.9820   77.5210   60.0910 C   0  0  0  0  0  0  0  0  0  0  0  0
   39.7400   76.5160   60.9940 C   0  0  0  0  0  0  0  0  0  0  0  0
   38.9030   75.4270   60.7830 C   0  0  0  0  0  0  0  0  0  0  0  0
   38.2730   75.3840   59.5390 C   0  0  0  0  0  0  0  0  0  0  0  0
   38.4970   76.3660   58.6280 C   0  0  0  0  0  0  0  0  0  0  0  0
   39.3310   77.4280   58.8780 C   0  0  0  0  0  0  0  0  0  0  0  0
   39.7870   78.3400   57.8770 C   0  0  0  0  0  0  0  0  0  0  0  0
   40.4830   79.2990   57.4870 N   0  0  0  0  0  0  0  0  0  0  0  0
   41.1460   80.2300   57.0930 C   0  0  0  0  0  0  0  0  0  0  0  0
   40.3480   80.3830   55.9990 N   0  0  0  0  0  0  0  0  0  0  0  0
   39.2620   79.5760   55.7670 C   0  0  0  0  0  0  0  0  0  0  0  0
   38.4450   79.8680   54.6430 C   0  0  0  0  0  0  0  0  0  0  0  0
   37.3060   79.1180   54.4720 C   0  0  0  0  0  0  0  0  0  0  0  0
   36.9100   78.0950   55.3370 C   0  0  0  0  0  0  0  0  0  0  0  0
   37.8040   77.9330   56.3690 C   0  0  0  0  0  0  0  0  0  0  0  0
   39.0070   78.5700   56.7220 C   0  0  0  0  0  0  0  0  0  0  0  0
   38.7978   84.4872   60.0911 H   0  0  0  0  0  0  0  0  0  0  0  0
   40.2942   83.4151   58.4098 H   0  0  0  0  0  0  0  0  0  0  0  0
   38.0136   84.5325   62.3741 H   0  0  0  0  0  0  0  0  0  0  0  0
   38.6095   83.4011   63.6181 H   0  0  0  0  0  0  0  0  0  0  0  0
   43.7409   81.0056   60.5668 H   0  0  0  0  0  0  0  0  0  0  0  0
   43.4305   81.6237   62.2521 H   0  0  0  0  0  0  0  0  0  0  0  0
   45.1986   79.7618   61.8609 H   0  0  0  0  0  0  0  0  0  0  0  0
   44.0629   79.6536   63.2382 H   0  0  0  0  0  0  0  0  0  0  0  0
   43.4901   78.4000   60.4961 H   0  0  0  0  0  0  0  0  0  0  0  0
   44.2688   77.4916   61.7751 H   0  0  0  0  0  0  0  0  0  0  0  0
   41.8562   77.1810   62.1926 H   0  0  0  0  0  0  0  0  0  0  0  0
   42.3088   78.4523   63.3574 H   0  0  0  0  0  0  0  0  0  0  0  0
   40.4014   79.2991   62.2449 H   0  0  0  0  0  0  0  0  0  0  0  0
   41.2314   79.0501   59.5427 H   0  0  0  0  0  0  0  0  0  0  0  0
   40.2514   76.5778   61.9659 H   0  0  0  0  0  0  0  0  0  0  0  0
   38.7475   74.6503   61.5463 H   0  0  0  0  0  0  0  0  0  0  0  0
   37.5939   74.5536   59.2957 H   0  0  0  0  0  0  0  0  0  0  0  0
   37.9912   76.3085   57.6529 H   0  0  0  0  0  0  0  0  0  0  0  0
   42.0402   80.7487   57.4690 H   0  0  0  0  0  0  0  0  0  0  0  0
   38.7139   80.6656   53.9348 H   0  0  0  0  0  0  0  0  0  0  0  0
   36.6685   79.3362   53.6025 H   0  0  0  0  0  0  0  0  0  0  0  0
   35.9974   77.4944   55.2086 H   0  0  0  0  0  0  0  0  0  0  0  0
   37.5167   77.1340   57.0683 H   0  0  0  0  0  0  0  0  0  0  0  0
  1  6  2  0
  1  7  1  0
  2  1  1  0
  3  4  1  0
  3  2  2  0
  4  5  2  0
  5  8  1  0
  5  6  1  0
  8  9  1  0
  8 13  1  0
  9 10  1  0
 11 10  1  0
 11 12  1  0
 13 12  1  0
 14 13  1  0
 15 14  1  0
 15 16  2  0
 17 16  1  0
 18 17  2  0
 19 20  2  0
 19 18  1  0
 20 15  1  0
 21 20  1  0
 22 21  2  0
 23 22  1  0
 24 23  2  0
 25 24  1  0
 25 30  2  0
 26 25  1  0
 27 26  2  0
 27 28  1  0
 28 29  2  0
 29 30  1  0
 30 21  1  0
  2 31  1  0
  3 32  1  0
  7 33  1  0
  7 34  1  0
  9 35  1  0
  9 36  1  0
 10 37  1  0
 10 38  1  0
 11 39  1  0
 11 40  1  0
 12 41  1  0
 12 42  1  0
 13 43  1  1
 14 44  1  0
 16 45  1  0
 17 46  1  0
 18 47  1  0
 19 48  1  0
 23 49  1  0
 26 50  1  0
 27 51  1  0
 28 52  1  0
 29 53  1  0
M  END
>  <Score>  (1) 
-7.25047

$$$$
