
     RDKit          3D

 48 51  0  0  1  0  0  0  0  0999 V2000
   40.3840   75.5840   59.1260 C   0  0  1  0  0  0  0  0  0  0  0  0
   39.1740   74.8830   59.4520 C   0  0  0  0  0  0  0  0  0  0  0  0
   39.4640   73.5020   59.8890 C   0  0  0  0  0  0  0  0  0  0  0  0
   40.6150   72.8360   59.3500 C   0  0  0  0  0  0  0  0  0  0  0  0
   41.4760   73.5360   58.3740 C   0  0  0  0  0  0  0  0  0  0  0  0
   40.9440   74.8420   57.8530 C   0  0  0  0  0  0  0  0  0  0  0  0
   40.3390   77.0200   58.8980 C   0  0  0  0  0  0  0  0  0  0  0  0
   40.2320   77.3760   57.5340 C   0  0  0  0  0  0  0  0  0  0  0  0
   40.1860   78.7410   57.2180 C   0  0  0  0  0  0  0  0  0  0  0  0
   40.2470   79.6480   58.2360 N   0  0  0  0  0  0  0  0  0  0  0  0
   40.3490   79.2570   59.5180 C   0  0  0  0  0  0  0  0  0  0  0  0
   40.3940   77.9570   59.8320 N   0  0  0  0  0  0  0  0  0  0  0  0
   40.4150   80.1690   60.6090 N   0  0  0  0  0  0  0  0  0  0  0  0
   39.9380   81.3970   60.2860 C   0  0  0  0  0  0  0  0  0  0  0  0
   39.9040   82.4470   61.1970 C   0  0  0  0  0  0  0  0  0  0  0  0
   39.3830   83.7950   60.8570 C   0  0  0  0  0  0  0  0  0  0  0  0
   40.3950   82.1660   62.4750 C   0  0  0  0  0  0  0  0  0  0  0  0
   40.4040   83.0690   63.3770 O   0  0  0  0  0  0  0  0  0  0  0  0
   40.8620   80.9380   62.7630 N   0  0  0  0  0  0  0  0  0  0  0  0
   40.8790   79.9450   61.8540 C   0  0  0  0  0  0  0  0  0  0  0  0
   41.2980   78.7750   62.0490 O   0  0  0  0  0  0  0  0  0  0  0  0
   40.9040   71.5050   59.7780 C   0  0  0  0  0  0  0  0  0  0  0  0
   40.5430   70.3330   59.1540 C   0  0  0  0  0  0  0  0  0  0  0  0
   40.8540   69.0760   59.6240 C   0  0  0  0  0  0  0  0  0  0  0  0
   41.5710   68.9370   60.7850 C   0  0  0  0  0  0  0  0  0  0  0  0
   41.9430   70.0890   61.4250 C   0  0  0  0  0  0  0  0  0  0  0  0
   41.6220   71.3390   60.9400 C   0  0  0  0  0  0  0  0  0  0  0  0
   42.1650   72.7670   61.8670 S   0  0  0  0  0  0  0  0  0  0  0  0
   41.0163   75.5496   60.0254 H   0  0  0  0  0  0  0  0  0  0  0  0
   38.6569   75.4160   60.2634 H   0  0  0  0  0  0  0  0  0  0  0  0
   38.5404   74.8408   58.5538 H   0  0  0  0  0  0  0  0  0  0  0  0
   38.8103   72.9942   60.6135 H   0  0  0  0  0  0  0  0  0  0  0  0
   42.4435   73.7345   58.8584 H   0  0  0  0  0  0  0  0  0  0  0  0
   41.5419   72.8699   57.5011 H   0  0  0  0  0  0  0  0  0  0  0  0
   41.7479   75.4288   57.3845 H   0  0  0  0  0  0  0  0  0  0  0  0
   40.1722   74.6986   57.0824 H   0  0  0  0  0  0  0  0  0  0  0  0
   40.1864   76.6082   56.7476 H   0  0  0  0  0  0  0  0  0  0  0  0
   40.1026   79.0737   56.1728 H   0  0  0  0  0  0  0  0  0  0  0  0
   39.5643   81.5686   59.2658 H   0  0  0  0  0  0  0  0  0  0  0  0
   39.1687   84.3495   61.7826 H   0  0  0  0  0  0  0  0  0  0  0  0
   40.1349   84.3409   60.2683 H   0  0  0  0  0  0  0  0  0  0  0  0
   38.4594   83.6934   60.2683 H   0  0  0  0  0  0  0  0  0  0  0  0
   41.2187   80.7510   63.7110 H   0  0  0  0  0  0  0  0  0  0  0  0
   39.9685   70.4045   58.2187 H   0  0  0  0  0  0  0  0  0  0  0  0
   40.5276   68.1844   59.0686 H   0  0  0  0  0  0  0  0  0  0  0  0
   41.8349   67.9462   61.1834 H   0  0  0  0  0  0  0  0  0  0  0  0
   42.5185   70.0144   62.3595 H   0  0  0  0  0  0  0  0  0  0  0  0
   42.0656   72.5056   63.2082 H   0  0  0  0  0  0  0  0  0  0  0  0
  1  2  1  0
  2  3  1  0
  4 22  1  0
  4  3  2  0
  5  4  1  0
  6  5  1  0
  6  1  1  0
  7  1  1  0
  7 12  1  0
  8  7  2  0
  9  8  1  0
  9 10  2  0
 10 11  1  0
 11 12  2  0
 11 13  1  0
 13 20  1  0
 14 13  1  0
 14 15  2  0
 15 17  1  0
 16 15  1  0
 17 19  1  0
 17 18  2  0
 20 21  2  0
 20 19  1  0
 22 27  2  0
 23 24  2  0
 23 22  1  0
 24 25  1  0
 25 26  2  0
 27 26  1  0
 27 28  1  0
  1 29  1  1
  2 30  1  0
  2 31  1  0
  3 32  1  0
  5 33  1  0
  5 34  1  0
  6 35  1  0
  6 36  1  0
  8 37  1  0
  9 38  1  0
 14 39  1  0
 16 40  1  0
 16 41  1  0
 16 42  1  0
 19 43  1  0
 23 44  1  0
 24 45  1  0
 25 46  1  0
 26 47  1  0
 28 48  1  0
M  END
>  <Score>  (1) 
-7.27181

$$$$
