
     RDKit          3D

 48 52  0  0  0  0  0  0  0  0999 V2000
   45.4510   86.8880   58.9120 C   0  0  0  0  0  0  0  0  0  0  0  0
   45.0990   88.1490   58.3540 C   0  0  0  0  0  0  0  0  0  0  0  0
   43.7300   88.3820   58.0530 C   0  0  0  0  0  0  0  0  0  0  0  0
   42.8870   87.3800   58.3250 N   0  0  0  0  0  0  0  0  0  0  0  0
   43.2390   86.1760   58.8600 C   0  0  0  0  0  0  0  0  0  0  0  0
   44.5160   85.9580   59.1410 N   0  0  0  0  0  0  0  0  0  0  0  0
   42.2140   85.2290   59.0840 N   0  0  0  0  0  0  0  0  0  0  0  0
   41.3770   84.7420   58.0570 C   0  0  0  0  0  0  0  0  0  0  0  0
   40.8170   83.3650   58.3360 C   0  0  0  0  0  0  0  0  0  0  0  0
   40.1340   83.2700   59.6340 C   0  0  0  0  0  0  0  0  0  0  0  0
   40.6730   84.2040   60.6960 C   0  0  0  0  0  0  0  0  0  0  0  0
   42.0290   84.7440   60.4410 C   0  0  0  0  0  0  0  0  0  0  0  0
   40.2070   81.8650   60.1080 C   0  0  0  0  0  0  0  0  0  0  0  0
   40.2690   81.4090   61.4390 C   0  0  0  0  0  0  0  0  0  0  0  0
   40.3200   80.0300   61.3830 C   0  0  0  0  0  0  0  0  0  0  0  0
   40.2860   79.7330   60.0140 C   0  0  0  0  0  0  0  0  0  0  0  0
   40.2190   80.8540   59.2990 O   0  0  0  0  0  0  0  0  0  0  0  0
   40.3210   78.3730   59.4940 C   0  0  0  0  0  0  0  0  0  0  0  0
   41.3920   77.7380   59.5880 O   0  0  0  0  0  0  0  0  0  0  0  0
   39.2150   77.6380   58.8540 C   0  0  0  0  0  0  0  0  0  0  0  0
   38.6530   76.4830   59.4080 C   0  0  0  0  0  0  0  0  0  0  0  0
   37.6740   76.0580   58.5880 N   0  0  0  0  0  0  0  0  0  0  0  0
   37.5610   76.8600   57.5360 C   0  0  0  0  0  0  0  0  0  0  0  0
   36.7270   76.8590   56.4320 C   0  0  0  0  0  0  0  0  0  0  0  0
   36.8590   77.8560   55.4860 C   0  0  0  0  0  0  0  0  0  0  0  0
   37.8150   78.8270   55.6610 C   0  0  0  0  0  0  0  0  0  0  0  0
   38.6590   78.8350   56.7710 C   0  0  0  0  0  0  0  0  0  0  0  0
   38.5220   77.8480   57.6990 C   0  0  0  0  0  0  0  0  0  0  0  0
   46.5020   86.6755   59.1576 H   0  0  0  0  0  0  0  0  0  0  0  0
   45.8617   88.9180   58.1620 H   0  0  0  0  0  0  0  0  0  0  0  0
   43.3833   89.3323   57.6209 H   0  0  0  0  0  0  0  0  0  0  0  0
   41.9592   84.6986   57.1247 H   0  0  0  0  0  0  0  0  0  0  0  0
   40.5218   85.4299   57.9836 H   0  0  0  0  0  0  0  0  0  0  0  0
   40.0975   83.1129   57.5430 H   0  0  0  0  0  0  0  0  0  0  0  0
   41.6658   82.6658   58.3612 H   0  0  0  0  0  0  0  0  0  0  0  0
   39.0935   83.5865   59.4691 H   0  0  0  0  0  0  0  0  0  0  0  0
   39.9804   85.0541   60.7830 H   0  0  0  0  0  0  0  0  0  0  0  0
   40.7545   83.6032   61.6138 H   0  0  0  0  0  0  0  0  0  0  0  0
   42.7625   83.9460   60.6285 H   0  0  0  0  0  0  0  0  0  0  0  0
   42.1666   85.6036   61.1134 H   0  0  0  0  0  0  0  0  0  0  0  0
   40.2755   82.0303   62.3467 H   0  0  0  0  0  0  0  0  0  0  0  0
   40.3750   79.3234   62.2242 H   0  0  0  0  0  0  0  0  0  0  0  0
   38.9583   76.0050   60.3505 H   0  0  0  0  0  0  0  0  0  0  0  0
   37.0920   75.2245   58.7539 H   0  0  0  0  0  0  0  0  0  0  0  0
   35.9674   76.0729   56.3094 H   0  0  0  0  0  0  0  0  0  0  0  0
   36.2055   77.8727   54.6013 H   0  0  0  0  0  0  0  0  0  0  0  0
   37.9174   79.6195   54.9051 H   0  0  0  0  0  0  0  0  0  0  0  0
   39.4185   79.6211   56.8942 H   0  0  0  0  0  0  0  0  0  0  0  0
  1  6  2  0
  2  1  1  0
  3  4  1  0
  3  2  2  0
  4  5  2  0
  5  7  1  0
  5  6  1  0
  7 12  1  0
  8  9  1  0
  8  7  1  0
  9 10  1  0
 10 13  1  0
 10 11  1  0
 12 11  1  0
 13 14  2  0
 15 14  1  0
 16 15  2  0
 17 16  1  0
 17 13  1  0
 18 19  2  0
 18 16  1  0
 20 21  2  0
 20 18  1  0
 22 21  1  0
 23 28  2  0
 23 22  1  0
 24 23  1  0
 25 26  1  0
 25 24  2  0
 26 27  2  0
 27 28  1  0
 28 20  1  0
  1 29  1  0
  2 30  1  0
  3 31  1  0
  8 32  1  0
  8 33  1  0
  9 34  1  0
  9 35  1  0
 10 36  1  0
 11 37  1  0
 11 38  1  0
 12 39  1  0
 12 40  1  0
 14 41  1  0
 15 42  1  0
 21 43  1  0
 22 44  1  0
 24 45  1  0
 25 46  1  0
 26 47  1  0
 27 48  1  0
M  END
>  <Score>  (1) 
-7.16522

$$$$
