
     RDKit          3D

 50 54  0  0  0  0  0  0  0  0999 V2000
   42.3640   80.0570   61.6410 C   0  0  0  0  0  0  0  0  0  0  0  0
   42.3450   79.1990   60.4070 C   0  0  0  0  0  0  0  0  0  0  0  0
   43.2450   78.1980   60.2200 C   0  0  0  0  0  0  0  0  0  0  0  0
   43.1550   77.4520   59.0660 C   0  0  0  0  0  0  0  0  0  0  0  0
   42.2040   77.7190   58.1660 N   0  0  0  0  0  0  0  0  0  0  0  0
   41.3370   78.7020   58.3720 C   0  0  0  0  0  0  0  0  0  0  0  0
   41.4400   79.4020   59.4790 N   0  0  0  0  0  0  0  0  0  0  0  0
   40.2150   79.1660   57.5260 C   0  0  0  0  0  0  0  0  0  0  0  0
   40.2830   80.3230   56.7800 C   0  0  0  0  0  0  0  0  0  0  0  0
   39.2890   80.7930   55.9880 C   0  0  0  0  0  0  0  0  0  0  0  0
   38.1070   80.1060   55.8840 C   0  0  0  0  0  0  0  0  0  0  0  0
   37.9790   78.9500   56.6000 C   0  0  0  0  0  0  0  0  0  0  0  0
   36.7950   78.2600   56.4930 C   0  0  0  0  0  0  0  0  0  0  0  0
   36.5810   77.0740   57.1830 C   0  0  0  0  0  0  0  0  0  0  0  0
   37.6300   76.6400   57.9770 C   0  0  0  0  0  0  0  0  0  0  0  0
   38.8040   77.3550   58.0630 C   0  0  0  0  0  0  0  0  0  0  0  0
   39.0150   78.5170   57.3870 C   0  0  0  0  0  0  0  0  0  0  0  0
   40.9500   80.3140   62.1470 C   0  0  0  0  0  0  0  0  0  0  0  0
   40.7920   81.7900   62.1790 C   0  0  0  0  0  0  0  0  0  0  0  0
   40.7100   82.5680   61.0100 C   0  0  0  0  0  0  0  0  0  0  0  0
   40.5660   83.9270   61.1690 C   0  0  0  0  0  0  0  0  0  0  0  0
   40.5110   84.4420   62.4280 N   0  0  0  0  0  0  0  0  0  0  0  0
   40.5920   83.6730   63.5190 C   0  0  0  0  0  0  0  0  0  0  0  0
   40.7330   82.3430   63.3970 N   0  0  0  0  0  0  0  0  0  0  0  0
   40.4790   84.7500   59.9760 C   0  0  0  0  0  0  0  0  0  0  0  0
   41.5460   84.9520   59.1460 C   0  0  0  0  0  0  0  0  0  0  0  0
   41.3410   85.7550   58.0430 C   0  0  0  0  0  0  0  0  0  0  0  0
   40.1150   86.3310   57.7870 N   0  0  0  0  0  0  0  0  0  0  0  0
   39.0870   86.1060   58.6340 C   0  0  0  0  0  0  0  0  0  0  0  0
   39.2600   85.3200   59.7250 N   0  0  0  0  0  0  0  0  0  0  0  0
   42.8418   81.0189   61.4034 H   0  0  0  0  0  0  0  0  0  0  0  0
   42.9277   79.5312   62.4257 H   0  0  0  0  0  0  0  0  0  0  0  0
   44.0231   77.9896   60.9691 H   0  0  0  0  0  0  0  0  0  0  0  0
   43.8679   76.6341   58.8846 H   0  0  0  0  0  0  0  0  0  0  0  0
   41.2130   80.9082   56.8314 H   0  0  0  0  0  0  0  0  0  0  0  0
   39.4308   81.7284   55.4269 H   0  0  0  0  0  0  0  0  0  0  0  0
   37.2898   80.4733   55.2458 H   0  0  0  0  0  0  0  0  0  0  0  0
   35.9987   78.6564   55.8459 H   0  0  0  0  0  0  0  0  0  0  0  0
   35.6374   76.5141   57.1040 H   0  0  0  0  0  0  0  0  0  0  0  0
   37.5233   75.7068   58.5495 H   0  0  0  0  0  0  0  0  0  0  0  0
   39.6076   76.9692   58.7075 H   0  0  0  0  0  0  0  0  0  0  0  0
   40.2122   79.8648   61.4659 H   0  0  0  0  0  0  0  0  0  0  0  0
   40.7888   79.8687   63.1398 H   0  0  0  0  0  0  0  0  0  0  0  0
   40.7589   82.1094   60.0113 H   0  0  0  0  0  0  0  0  0  0  0  0
   40.5431   84.1306   64.5181 H   0  0  0  0  0  0  0  0  0  0  0  0
   42.5255   84.4943   59.3486 H   0  0  0  0  0  0  0  0  0  0  0  0
   42.0613   86.5824   58.1239 H   0  0  0  0  0  0  0  0  0  0  0  0
   41.4450   85.0431   57.2109 H   0  0  0  0  0  0  0  0  0  0  0  0
   38.1056   86.5624   58.4377 H   0  0  0  0  0  0  0  0  0  0  0  0
   38.4722   85.1513   60.3667 H   0  0  0  0  0  0  0  0  0  0  0  0
  1 18  1  0
  2  1  1  0
  3  2  2  0
  4  3  1  0
  5  6  1  0
  5  4  2  0
  6  7  2  0
  7  2  1  0
  8  6  1  0
  9  8  2  0
 10  9  1  0
 11 10  2  0
 11 12  1  0
 12 17  2  0
 13 12  1  0
 13 14  2  0
 14 15  1  0
 15 16  2  0
 17  8  1  0
 17 16  1  0
 18 19  1  0
 19 24  2  0
 20 21  2  0
 20 19  1  0
 21 22  1  0
 22 23  2  0
 24 23  1  0
 25 21  1  0
 26 25  2  0
 27 26  1  0
 28 27  1  0
 28 29  2  0
 29 30  1  0
 30 25  1  0
  1 31  1  0
  1 32  1  0
  3 33  1  0
  4 34  1  0
  9 35  1  0
 10 36  1  0
 11 37  1  0
 13 38  1  0
 14 39  1  0
 15 40  1  0
 16 41  1  0
 18 42  1  0
 18 43  1  0
 20 44  1  0
 23 45  1  0
 26 46  1  0
 27 47  1  0
 27 48  1  0
 29 49  1  0
 30 50  1  0
M  END
>  <Score>  (1) 
-7.16254

$$$$
