
     RDKit          3D

 55 58  0  0  0  0  0  0  0  0999 V2000
   44.6680   86.9010   60.9770 C   0  0  0  0  0  0  0  0  0  0  0  0
   43.9290   86.8040   59.7610 C   0  0  0  0  0  0  0  0  0  0  0  0
   43.5270   85.6030   59.2760 C   0  0  0  0  0  0  0  0  0  0  0  0
   43.8400   84.5140   59.9690 N   0  0  0  0  0  0  0  0  0  0  0  0
   44.5400   84.5390   61.1310 C   0  0  0  0  0  0  0  0  0  0  0  0
   44.9420   85.7230   61.6190 N   0  0  0  0  0  0  0  0  0  0  0  0
   44.8250   83.2980   61.8040 C   0  0  0  0  0  0  0  0  0  0  0  0
   45.7710   83.2740   62.8040 C   0  0  0  0  0  0  0  0  0  0  0  0
   45.9430   82.0180   63.3910 C   0  0  0  0  0  0  0  0  0  0  0  0
   45.2450   80.9110   63.0160 N   0  0  0  0  0  0  0  0  0  0  0  0
   44.3390   81.0150   62.0310 C   0  0  0  0  0  0  0  0  0  0  0  0
   44.1250   82.1930   61.4250 N   0  0  0  0  0  0  0  0  0  0  0  0
   43.6530   79.8110   61.7000 N   0  0  0  0  0  0  0  0  0  0  0  0
   44.1640   78.7040   62.3030 C   0  0  0  0  0  0  0  0  0  0  0  0
   43.6280   77.4460   62.1010 C   0  0  0  0  0  0  0  0  0  0  0  0
   44.2080   76.2330   62.7780 C   0  0  0  0  0  0  0  0  0  0  0  0
   42.5510   77.3450   61.2640 C   0  0  0  0  0  0  0  0  0  0  0  0
   42.0240   76.2270   61.0440 O   0  0  0  0  0  0  0  0  0  0  0  0
   42.0690   78.4420   60.6850 N   0  0  0  0  0  0  0  0  0  0  0  0
   42.6000   79.6770   60.8870 C   0  0  0  0  0  0  0  0  0  0  0  0
   42.1740   80.7390   60.3600 O   0  0  0  0  0  0  0  0  0  0  0  0
   42.7840   85.6540   58.0230 C   0  0  0  0  0  0  0  0  0  0  0  0
   41.9300   84.4650   57.8380 C   0  0  0  0  0  0  0  0  0  0  0  0
   40.9670   84.2890   58.9700 C   0  0  0  0  0  0  0  0  0  0  0  0
   39.9340   85.1420   59.2260 C   0  0  0  0  0  0  0  0  0  0  0  0
   39.2680   84.6660   60.3360 C   0  0  0  0  0  0  0  0  0  0  0  0
   39.9370   83.5840   60.6570 C   0  0  0  0  0  0  0  0  0  0  0  0
   40.9080   83.3800   59.8630 O   0  0  0  0  0  0  0  0  0  0  0  0
   39.6510   82.6830   61.7820 C   0  0  0  0  0  0  0  0  0  0  0  0
   39.2300   81.5470   61.7570 O   0  0  0  0  0  0  0  0  0  0  0  0
   39.8780   83.1470   63.0760 O   0  0  0  0  0  0  0  0  0  0  0  0
   40.9460   83.1870   63.8290 C   0  0  0  0  0  0  0  0  0  0  0  0
   41.0930   84.6340   64.3960 C   0  0  0  0  0  0  0  0  0  0  0  0
   40.0640   84.8760   65.3820 N   0  0  0  0  0  0  0  0  0  0  0  0
   45.0000   87.8702   61.3776 H   0  0  0  0  0  0  0  0  0  0  0  0
   43.6804   87.7206   59.2061 H   0  0  0  0  0  0  0  0  0  0  0  0
   46.3399   84.1633   63.1128 H   0  0  0  0  0  0  0  0  0  0  0  0
   46.6821   81.9182   64.1996 H   0  0  0  0  0  0  0  0  0  0  0  0
   45.0304   78.8132   62.9719 H   0  0  0  0  0  0  0  0  0  0  0  0
   44.1481   76.3583   63.8692 H   0  0  0  0  0  0  0  0  0  0  0  0
   43.6396   75.3397   62.4798 H   0  0  0  0  0  0  0  0  0  0  0  0
   45.2602   76.1146   62.4798 H   0  0  0  0  0  0  0  0  0  0  0  0
   41.2582   78.3514   60.0563 H   0  0  0  0  0  0  0  0  0  0  0  0
   42.1480   86.5515   58.0235 H   0  0  0  0  0  0  0  0  0  0  0  0
   43.5109   85.6820   57.1979 H   0  0  0  0  0  0  0  0  0  0  0  0
   41.3626   84.5766   56.9023 H   0  0  0  0  0  0  0  0  0  0  0  0
   42.5812   83.5792   57.8031 H   0  0  0  0  0  0  0  0  0  0  0  0
   39.6786   86.0449   58.6519 H   0  0  0  0  0  0  0  0  0  0  0  0
   38.3849   85.0926   60.8342 H   0  0  0  0  0  0  0  0  0  0  0  0
   40.8434   82.4714   64.6581 H   0  0  0  0  0  0  0  0  0  0  0  0
   41.8352   82.9191   63.2395 H   0  0  0  0  0  0  0  0  0  0  0  0
   42.0821   84.7448   64.8645 H   0  0  0  0  0  0  0  0  0  0  0  0
   40.9904   85.3597   63.5757 H   0  0  0  0  0  0  0  0  0  0  0  0
   40.4644   84.7818   66.3263 H   0  0  0  0  0  0  0  0  0  0  0  0
   39.6897   85.8280   65.2611 H   0  0  0  0  0  0  0  0  0  0  0  0
  1  6  2  0
  2  1  1  0
  3  2  2  0
  3  4  1  0
  4  5  2  0
  5  6  1  0
  5  7  1  0
  7  8  2  0
  8  9  1  0
 10  9  2  0
 11 10  1  0
 12  7  1  0
 12 11  2  0
 13 11  1  0
 13 14  1  0
 15 14  2  0
 15 16  1  0
 17 15  1  0
 18 17  2  0
 19 20  1  0
 19 17  1  0
 20 13  1  0
 21 20  2  0
 22  3  1  0
 23 22  1  0
 23 24  1  0
 24 25  2  0
 24 28  1  0
 25 26  1  0
 26 27  2  0
 27 29  1  0
 28 27  1  0
 29 31  1  0
 30 29  2  0
 31 32  1  0
 32 33  1  0
 33 34  1  0
  1 35  1  0
  2 36  1  0
  8 37  1  0
  9 38  1  0
 14 39  1  0
 16 40  1  0
 16 41  1  0
 16 42  1  0
 19 43  1  0
 22 44  1  0
 22 45  1  0
 23 46  1  0
 23 47  1  0
 25 48  1  0
 26 49  1  0
 32 50  1  0
 32 51  1  0
 33 52  1  0
 33 53  1  0
 34 54  1  0
 34 55  1  0
M  END
>  <Score>  (1) 
-7.10739

$$$$
