
     RDKit          3D

 52 56  0  0  0  0  0  0  0  0999 V2000
   40.8560   81.6830   56.4100 C   0  0  0  0  0  0  0  0  0  0  0  0
   40.6970   81.4400   57.7700 C   0  0  0  0  0  0  0  0  0  0  0  0
   39.7160   80.5260   58.1480 C   0  0  0  0  0  0  0  0  0  0  0  0
   38.9810   79.9330   57.1560 N   0  0  0  0  0  0  0  0  0  0  0  0
   39.1590   80.1870   55.8790 C   0  0  0  0  0  0  0  0  0  0  0  0
   40.1200   81.0830   55.4870 N   0  0  0  0  0  0  0  0  0  0  0  0
   41.4880   82.0790   58.8280 C   0  0  0  0  0  0  0  0  0  0  0  0
   42.8070   82.2710   59.0350 N   0  0  0  0  0  0  0  0  0  0  0  0
   42.9480   82.9170   60.1730 O   0  0  0  0  0  0  0  0  0  0  0  0
   41.8270   83.1590   60.7200 C   0  0  0  0  0  0  0  0  0  0  0  0
   40.8890   82.6430   59.8950 N   0  0  0  0  0  0  0  0  0  0  0  0
   41.5480   83.8280   61.9400 N   0  0  0  0  0  0  0  0  0  0  0  0
   42.5630   84.6620   62.5610 C   0  0  0  0  0  0  0  0  0  0  0  0
   42.6210   84.3420   64.0500 C   0  0  0  0  0  0  0  0  0  0  0  0
   41.2980   84.2690   64.6450 N   0  0  0  0  0  0  0  0  0  0  0  0
   40.5290   83.2120   64.0110 C   0  0  0  0  0  0  0  0  0  0  0  0
   40.2430   83.6930   62.5960 C   0  0  0  0  0  0  0  0  0  0  0  0
   38.3650   79.5430   54.8500 C   0  0  0  0  0  0  0  0  0  0  0  0
   37.5810   78.4340   55.1430 C   0  0  0  0  0  0  0  0  0  0  0  0
   36.8290   77.8340   54.1440 C   0  0  0  0  0  0  0  0  0  0  0  0
   36.9040   78.3750   52.9070 N   0  0  0  0  0  0  0  0  0  0  0  0
   37.6560   79.4450   52.6120 C   0  0  0  0  0  0  0  0  0  0  0  0
   38.3780   80.0180   53.5820 N   0  0  0  0  0  0  0  0  0  0  0  0
   37.6550   79.9220   51.2880 N   0  0  0  0  0  0  0  0  0  0  0  0
   36.9370   81.1290   50.9320 C   0  0  0  0  0  0  0  0  0  0  0  0
   35.7930   80.7020   50.0370 C   0  0  0  0  0  0  0  0  0  0  0  0
   36.3150   79.9720   48.8460 C   0  0  0  0  0  0  0  0  0  0  0  0
   37.7870   79.7090   48.8520 C   0  0  0  0  0  0  0  0  0  0  0  0
   38.3430   79.2860   50.1830 C   0  0  0  0  0  0  0  0  0  0  0  0
   41.6236   82.4022   56.0882 H   0  0  0  0  0  0  0  0  0  0  0  0
   39.5377   80.2886   59.2072 H   0  0  0  0  0  0  0  0  0  0  0  0
   43.5411   84.4577   62.1010 H   0  0  0  0  0  0  0  0  0  0  0  0
   42.3127   85.7234   62.4172 H   0  0  0  0  0  0  0  0  0  0  0  0
   43.1247   83.3735   64.1853 H   0  0  0  0  0  0  0  0  0  0  0  0
   43.1728   85.1520   64.5494 H   0  0  0  0  0  0  0  0  0  0  0  0
   41.3867   84.0702   65.6517 H   0  0  0  0  0  0  0  0  0  0  0  0
   41.1099   82.2782   63.9873 H   0  0  0  0  0  0  0  0  0  0  0  0
   39.5997   83.0038   64.5615 H   0  0  0  0  0  0  0  0  0  0  0  0
   39.7257   84.6635   62.6200 H   0  0  0  0  0  0  0  0  0  0  0  0
   39.5931   82.9887   62.0561 H   0  0  0  0  0  0  0  0  0  0  0  0
   37.5567   78.0321   56.1667 H   0  0  0  0  0  0  0  0  0  0  0  0
   36.1988   76.9560   54.3491 H   0  0  0  0  0  0  0  0  0  0  0  0
   36.5487   81.6206   51.8362 H   0  0  0  0  0  0  0  0  0  0  0  0
   37.5953   81.8465   50.4203 H   0  0  0  0  0  0  0  0  0  0  0  0
   35.1178   80.0415   50.6007 H   0  0  0  0  0  0  0  0  0  0  0  0
   35.2486   81.5963   49.6994 H   0  0  0  0  0  0  0  0  0  0  0  0
   36.0800   80.5683   47.9520 H   0  0  0  0  0  0  0  0  0  0  0  0
   35.8297   78.9849   48.8576 H   0  0  0  0  0  0  0  0  0  0  0  0
   37.9957   78.9112   48.1241 H   0  0  0  0  0  0  0  0  0  0  0  0
   38.2744   80.6623   48.5999 H   0  0  0  0  0  0  0  0  0  0  0  0
   38.2385   78.1953   50.2806 H   0  0  0  0  0  0  0  0  0  0  0  0
   39.3993   79.5907   50.2212 H   0  0  0  0  0  0  0  0  0  0  0  0
  1  2  2  0
  2  3  1  0
  2  7  1  0
  4  3  2  0
  5  4  1  0
  6  5  2  0
  6  1  1  0
  7  8  2  0
  7 11  1  0
  8  9  1  0
  9 10  1  0
 10 12  1  0
 11 10  2  0
 12 13  1  0
 12 17  1  0
 13 14  1  0
 14 15  1  0
 16 15  1  0
 17 16  1  0
 18 19  2  0
 18  5  1  0
 20 19  1  0
 21 20  2  0
 22 21  1  0
 22 23  2  0
 23 18  1  0
 24 22  1  0
 25 24  1  0
 26 25  1  0
 27 28  1  0
 27 26  1  0
 28 29  1  0
 29 24  1  0
  1 30  1  0
  3 31  1  0
 13 32  1  0
 13 33  1  0
 14 34  1  0
 14 35  1  0
 15 36  1  0
 16 37  1  0
 16 38  1  0
 17 39  1  0
 17 40  1  0
 19 41  1  0
 20 42  1  0
 25 43  1  0
 25 44  1  0
 26 45  1  0
 26 46  1  0
 27 47  1  0
 27 48  1  0
 28 49  1  0
 28 50  1  0
 29 51  1  0
 29 52  1  0
M  END
>  <Score>  (1) 
-7.46527

$$$$
