
     RDKit          3D

 32 34  0  0  0  0  0  0  0  0999 V2000
   40.2480   79.8580   61.2120 C   0  0  0  0  0  0  0  0  0  0  0  0
   40.4720   79.4190   62.4990 N   0  0  0  0  0  0  0  0  0  0  0  0
   40.4750   78.1230   62.4790 O   0  0  0  0  0  0  0  0  0  0  0  0
   40.2620   77.6870   61.2390 C   0  0  0  0  0  0  0  0  0  0  0  0
   40.1170   78.7630   60.4280 N   0  0  0  0  0  0  0  0  0  0  0  0
   40.1850   76.3430   60.7590 N   0  0  0  0  0  0  0  0  0  0  0  0
   38.9640   75.7670   60.5280 C   0  0  0  0  0  0  0  0  0  0  0  0
   38.8720   74.4540   60.0590 C   0  0  0  0  0  0  0  0  0  0  0  0
   40.1110   73.8620   59.8740 C   0  0  0  0  0  0  0  0  0  0  0  0
   40.1050   72.6670   59.4480 O   0  0  0  0  0  0  0  0  0  0  0  0
   41.3200   74.3920   60.0870 N   0  0  0  0  0  0  0  0  0  0  0  0
   41.3280   75.6810   60.5460 C   0  0  0  0  0  0  0  0  0  0  0  0
   42.4340   76.2180   60.7600 O   0  0  0  0  0  0  0  0  0  0  0  0
   40.1740   81.2520   60.8180 C   0  0  0  0  0  0  0  0  0  0  0  0
   40.2580   81.7420   59.5260 C   0  0  0  0  0  0  0  0  0  0  0  0
   40.1650   83.1260   59.3520 C   0  0  0  0  0  0  0  0  0  0  0  0
   39.9990   83.9090   60.4560 N   0  0  0  0  0  0  0  0  0  0  0  0
   39.9200   83.4050   61.7040 C   0  0  0  0  0  0  0  0  0  0  0  0
   40.0070   82.0740   61.8930 N   0  0  0  0  0  0  0  0  0  0  0  0
   39.7440   84.2910   62.8200 N   0  0  0  0  0  0  0  0  0  0  0  0
   40.2850   83.9090   64.0770 C   0  0  0  0  0  0  0  0  0  0  0  0
   40.5670   82.6880   64.3760 N   0  0  0  0  0  0  0  0  0  0  0  0
   40.4970   84.9690   64.9960 N   0  0  0  0  0  0  0  0  0  0  0  0
   40.9550   82.4910   65.3070 H   0  0  0  0  0  0  0  0  0  0  0  0
   38.0462   76.3441   60.7137 H   0  0  0  0  0  0  0  0  0  0  0  0
   37.9179   73.9448   59.8581 H   0  0  0  0  0  0  0  0  0  0  0  0
   42.1882   73.8646   59.9167 H   0  0  0  0  0  0  0  0  0  0  0  0
   40.3930   81.0672   58.6679 H   0  0  0  0  0  0  0  0  0  0  0  0
   40.2243   83.5727   58.3485 H   0  0  0  0  0  0  0  0  0  0  0  0
   39.2380   85.1816   62.7120 H   0  0  0  0  0  0  0  0  0  0  0  0
   40.8867   84.7717   65.9288 H   0  0  0  0  0  0  0  0  0  0  0  0
   40.2612   85.9358   64.7303 H   0  0  0  0  0  0  0  0  0  0  0  0
  1  2  2  0
  3  2  1  0
  4  3  1  0
  5  1  1  0
  5  4  2  0
  6  4  1  0
  7  6  1  0
  8  7  2  0
  9  8  1  0
  9 11  1  0
 10  9  2  0
 11 12  1  0
 12  6  1  0
 12 13  2  0
 14  1  1  0
 14 19  1  0
 15 14  2  0
 16 15  1  0
 16 17  2  0
 17 18  1  0
 18 19  2  0
 18 20  1  0
 20 21  1  0
 21 22  2  0
 21 23  1  0
 22 24  1  0
  7 25  1  0
  8 26  1  0
 11 27  1  0
 15 28  1  0
 16 29  1  0
 20 30  1  0
 23 31  1  0
 23 32  1  0
M  END
>  <Score>  (1) 
-7.76091

$$$$
