
     RDKit          3D

 46 49  0  0  1  0  0  0  0  0999 V2000
   41.0540   80.9340   61.5690 N   0  0  0  0  0  0  0  0  0  0  0  0
   42.4570   80.9590   61.8580 C   0  0  0  0  0  0  0  0  0  0  0  0
   43.0790   79.6260   61.4490 C   0  0  0  0  0  0  0  0  0  0  0  0
   42.4310   78.4810   62.1660 C   0  0  0  0  0  0  0  0  0  0  0  0
   41.0450   78.7790   62.6080 C   0  0  0  0  0  0  0  0  0  0  0  0
   40.4140   79.6590   61.5280 C   0  0  2  0  0  0  0  0  0  0  0  0
   40.2650   78.9910   60.2630 C   0  0  0  0  0  0  0  0  0  0  0  0
   40.1330   79.5160   59.0150 C   0  0  0  0  0  0  0  0  0  0  0  0
   40.0050   78.7800   57.8560 C   0  0  0  0  0  0  0  0  0  0  0  0
   40.0120   77.4310   57.9610 N   0  0  0  0  0  0  0  0  0  0  0  0
   40.1430   76.8870   59.1950 C   0  0  0  0  0  0  0  0  0  0  0  0
   40.2610   77.6400   60.2730 N   0  0  0  0  0  0  0  0  0  0  0  0
   40.1500   75.4590   59.2880 N   0  0  0  0  0  0  0  0  0  0  0  0
   41.0680   74.7620   58.5590 C   0  0  0  0  0  0  0  0  0  0  0  0
   41.0360   73.4100   58.6790 C   0  0  0  0  0  0  0  0  0  0  0  0
   42.0600   72.6840   57.8620 C   0  0  0  0  0  0  0  0  0  0  0  0
   40.1340   72.7250   59.4890 C   0  0  0  0  0  0  0  0  0  0  0  0
   40.1620   71.4640   59.5520 O   0  0  0  0  0  0  0  0  0  0  0  0
   39.2320   73.4570   60.2010 N   0  0  0  0  0  0  0  0  0  0  0  0
   39.2840   74.7950   60.0650 C   0  0  0  0  0  0  0  0  0  0  0  0
   38.4530   75.4690   60.7240 O   0  0  0  0  0  0  0  0  0  0  0  0
   40.3100   82.1220   61.3320 C   0  0  0  0  0  0  0  0  0  0  0  0
   40.4780   82.8060   60.1500 C   0  0  0  0  0  0  0  0  0  0  0  0
   39.7500   83.9630   59.9110 C   0  0  0  0  0  0  0  0  0  0  0  0
   38.8880   84.3560   60.9020 N   0  0  0  0  0  0  0  0  0  0  0  0
   38.7340   83.6840   62.0470 C   0  0  0  0  0  0  0  0  0  0  0  0
   39.4510   82.5640   62.2550 N   0  0  0  0  0  0  0  0  0  0  0  0
   42.9338   81.7752   61.2954 H   0  0  0  0  0  0  0  0  0  0  0  0
   42.6090   81.1221   62.9352 H   0  0  0  0  0  0  0  0  0  0  0  0
   42.9515   79.4885   60.3651 H   0  0  0  0  0  0  0  0  0  0  0  0
   44.1460   79.6440   61.7158 H   0  0  0  0  0  0  0  0  0  0  0  0
   42.4037   77.6145   61.4889 H   0  0  0  0  0  0  0  0  0  0  0  0
   43.0268   78.2802   63.0686 H   0  0  0  0  0  0  0  0  0  0  0  0
   40.4736   77.8453   62.7168 H   0  0  0  0  0  0  0  0  0  0  0  0
   41.0436   79.2894   63.5824 H   0  0  0  0  0  0  0  0  0  0  0  0
   39.3525   79.8643   61.7307 H   0  0  0  0  0  0  0  0  0  0  0  0
   40.1280   80.6122   58.9234 H   0  0  0  0  0  0  0  0  0  0  0  0
   39.9006   79.2732   56.8783 H   0  0  0  0  0  0  0  0  0  0  0  0
   41.7959   75.2685   57.9081 H   0  0  0  0  0  0  0  0  0  0  0  0
   42.7722   72.1791   58.5312 H   0  0  0  0  0  0  0  0  0  0  0  0
   41.5605   71.9372   57.2274 H   0  0  0  0  0  0  0  0  0  0  0  0
   42.5994   73.4025   57.2274 H   0  0  0  0  0  0  0  0  0  0  0  0
   38.5403   73.0060   60.8166 H   0  0  0  0  0  0  0  0  0  0  0  0
   41.1882   82.4363   59.3957 H   0  0  0  0  0  0  0  0  0  0  0  0
   39.8587   84.5339   58.9770 H   0  0  0  0  0  0  0  0  0  0  0  0
   38.0288   84.0424   62.8113 H   0  0  0  0  0  0  0  0  0  0  0  0
  1  2  1  0
  3  2  1  0
  3  4  1  0
  4  5  1  0
  6  1  1  0
  6  5  1  0
  7 12  1  0
  7  6  1  0
  8  7  2  0
  9 10  2  0
  9  8  1  0
 10 11  1  0
 11 13  1  0
 11 12  2  0
 13 20  1  0
 14 15  2  0
 14 13  1  0
 15 17  1  0
 16 15  1  0
 17 18  2  0
 17 19  1  0
 20 19  1  0
 20 21  2  0
 22  1  1  0
 22 27  1  0
 23 22  2  0
 24 23  1  0
 24 25  2  0
 25 26  1  0
 26 27  2  0
  2 28  1  0
  2 29  1  0
  3 30  1  0
  3 31  1  0
  4 32  1  0
  4 33  1  0
  5 34  1  0
  5 35  1  0
  6 36  1  1
  8 37  1  0
  9 38  1  0
 14 39  1  0
 16 40  1  0
 16 41  1  0
 16 42  1  0
 19 43  1  0
 23 44  1  0
 24 45  1  0
 26 46  1  0
M  END
>  <Score>  (1) 
-7.23745

$$$$
