
     RDKit          3D

 38 41  0  0  0  0  0  0  0  0999 V2000
   40.7890   82.1660   59.0480 C   0  0  0  0  0  0  0  0  0  0  0  0
   39.8540   81.2010   58.6700 C   0  0  0  0  0  0  0  0  0  0  0  0
   40.0390   80.9170   57.3470 C   0  0  0  0  0  0  0  0  0  0  0  0
   41.0760   81.7160   56.9640 C   0  0  0  0  0  0  0  0  0  0  0  0
   41.4980   82.4400   57.9780 O   0  0  0  0  0  0  0  0  0  0  0  0
   39.2920   79.9810   56.5610 C   0  0  0  0  0  0  0  0  0  0  0  0
   39.5270   78.6490   56.2900 C   0  0  0  0  0  0  0  0  0  0  0  0
   38.6710   77.9190   55.4970 C   0  0  0  0  0  0  0  0  0  0  0  0
   37.5450   78.4660   54.9330 C   0  0  0  0  0  0  0  0  0  0  0  0
   37.2910   79.8010   55.1940 C   0  0  0  0  0  0  0  0  0  0  0  0
   38.1520   80.5440   55.9960 C   0  0  0  0  0  0  0  0  0  0  0  0
   40.5390   81.9130   61.5230 C   0  0  0  0  0  0  0  0  0  0  0  0
   40.8550   82.6780   60.3830 C   0  0  0  0  0  0  0  0  0  0  0  0
   41.2370   83.9890   60.5720 C   0  0  0  0  0  0  0  0  0  0  0  0
   41.2870   84.4730   61.8450 N   0  0  0  0  0  0  0  0  0  0  0  0
   40.9730   83.6960   62.9070 C   0  0  0  0  0  0  0  0  0  0  0  0
   40.6080   82.4490   62.7550 N   0  0  0  0  0  0  0  0  0  0  0  0
   41.6270   84.9770   59.5360 C   0  0  0  0  0  0  0  0  0  0  0  0
   41.0080   85.6400   58.5690 N   0  0  0  0  0  0  0  0  0  0  0  0
   41.7770   86.4060   57.9080 O   0  0  0  0  0  0  0  0  0  0  0  0
   42.9790   86.2950   58.4060 C   0  0  0  0  0  0  0  0  0  0  0  0
   42.8600   85.4260   59.3870 N   0  0  0  0  0  0  0  0  0  0  0  0
   41.0500   84.2710   64.2610 C   0  0  0  0  0  0  0  0  0  0  0  0
   40.2050   83.5560   65.1190 F   0  0  0  0  0  0  0  0  0  0  0  0
   40.7400   85.5760   64.3170 F   0  0  0  0  0  0  0  0  0  0  0  0
   42.3370   84.0510   64.7400 F   0  0  0  0  0  0  0  0  0  0  0  0
   41.7490   81.8790   55.6690 C   0  0  0  0  0  0  0  0  0  0  0  0
   43.0340   81.3190   55.7610 F   0  0  0  0  0  0  0  0  0  0  0  0
   41.9230   83.2270   55.3490 F   0  0  0  0  0  0  0  0  0  0  0  0
   40.9910   81.3060   54.6780 F   0  0  0  0  0  0  0  0  0  0  0  0
   39.0970   80.7466   59.3261 H   0  0  0  0  0  0  0  0  0  0  0  0
   40.4159   78.1607   56.7160 H   0  0  0  0  0  0  0  0  0  0  0  0
   38.8971   76.8592   55.3083 H   0  0  0  0  0  0  0  0  0  0  0  0
   36.8729   77.8680   54.3001 H   0  0  0  0  0  0  0  0  0  0  0  0
   36.3993   80.2798   54.7631 H   0  0  0  0  0  0  0  0  0  0  0  0
   37.9256   81.6032   56.1881 H   0  0  0  0  0  0  0  0  0  0  0  0
   40.2318   80.8635   61.4042 H   0  0  0  0  0  0  0  0  0  0  0  0
   43.8914   86.8143   58.0774 H   0  0  0  0  0  0  0  0  0  0  0  0
  1 13  1  0
  2  1  2  0
  3  2  1  0
  4  3  2  0
  4  5  1  0
  5  1  1  0
  6  3  1  0
  7  6  2  0
  8  7  1  0
  9 10  1  0
  9  8  2  0
 10 11  2  0
 11  6  1  0
 12 17  2  0
 13 14  2  0
 13 12  1  0
 14 15  1  0
 15 16  2  0
 16 23  1  0
 17 16  1  0
 18 14  1  0
 19 18  2  0
 20 21  1  0
 20 19  1  0
 21 22  2  0
 22 18  1  0
 23 25  1  0
 23 26  1  0
 23 24  1  0
 27 28  1  0
 27  4  1  0
 29 27  1  0
 30 27  1  0
  2 31  1  0
  7 32  1  0
  8 33  1  0
  9 34  1  0
 10 35  1  0
 11 36  1  0
 12 37  1  0
 21 38  1  0
M  END
>  <Score>  (1) 
-7.03055

$$$$
