
     RDKit          3D

 45 49  0  0  1  0  0  0  0  0999 V2000
   42.8460   86.5970   58.3930 C   0  0  0  0  0  0  0  0  0  0  0  0
   43.1130   86.1330   59.7070 C   0  0  0  0  0  0  0  0  0  0  0  0
   44.0810   86.7760   60.4260 C   0  0  0  0  0  0  0  0  0  0  0  0
   44.7280   87.8340   59.8190 N   0  0  0  0  0  0  0  0  0  0  0  0
   44.4560   88.2420   58.5880 C   0  0  0  0  0  0  0  0  0  0  0  0
   43.5050   87.6230   57.8590 N   0  0  0  0  0  0  0  0  0  0  0  0
   45.1660   89.3390   58.0270 N   0  0  0  0  0  0  0  0  0  0  0  0
   46.2970   89.1330   57.3090 C   0  0  0  0  0  0  0  0  0  0  0  0
   46.7500   90.3810   56.9010 C   0  0  0  0  0  0  0  0  0  0  0  0
   45.8840   91.3140   57.3820 N   0  0  0  0  0  0  0  0  0  0  0  0
   44.9190   90.6570   58.0700 C   0  0  0  0  0  0  0  0  0  0  0  0
   42.3110   85.0180   60.1600 N   0  0  0  0  0  0  0  0  0  0  0  0
   41.5320   84.2360   59.3960 C   0  0  0  0  0  0  0  0  0  0  0  0
   40.9050   83.3320   60.1950 N   0  0  0  0  0  0  0  0  0  0  0  0
   41.2760   83.5330   61.4500 C   0  0  0  0  0  0  0  0  0  0  0  0
   40.9620   83.0190   62.6740 C   0  0  2  0  0  0  0  0  0  0  0  0
   41.6530   83.3500   63.7810 N   0  0  0  0  0  0  0  0  0  0  0  0
   42.5390   84.3820   63.7710 C   0  0  0  0  0  0  0  0  0  0  0  0
   42.7840   84.9990   62.6040 N   0  0  0  0  0  0  0  0  0  0  0  0
   42.1690   84.5930   61.4510 C   0  0  0  0  0  0  0  0  0  0  0  0
   40.4940   81.6500   62.7070 N   0  0  0  0  0  0  0  0  0  0  0  0
   41.4820   92.5260   59.7160 C   0  0  0  0  0  0  0  0  0  0  0  0
   42.3910   91.9190   60.5860 C   0  0  0  0  0  0  0  0  0  0  0  0
   43.5260   91.2960   60.1120 C   0  0  0  0  0  0  0  0  0  0  0  0
   43.7840   91.2620   58.7570 C   0  0  0  0  0  0  0  0  0  0  0  0
   42.8940   91.8590   57.8800 C   0  0  0  0  0  0  0  0  0  0  0  0
   41.7560   92.4840   58.3520 C   0  0  0  0  0  0  0  0  0  0  0  0
   40.0640   93.2970   60.4030 S   0  0  0  0  0  0  0  0  0  0  0  0
   40.1910   94.7760   60.3170 O   0  0  0  0  0  0  0  0  0  0  0  0
   38.8460   92.7550   59.7320 O   0  0  0  0  0  0  0  0  0  0  0  0
   42.0705   86.0934   57.7972 H   0  0  0  0  0  0  0  0  0  0  0  0
   44.3351   86.4626   61.4494 H   0  0  0  0  0  0  0  0  0  0  0  0
   46.7666   88.1625   57.0910 H   0  0  0  0  0  0  0  0  0  0  0  0
   47.6478   90.5796   56.2973 H   0  0  0  0  0  0  0  0  0  0  0  0
   41.4196   84.3137   58.3045 H   0  0  0  0  0  0  0  0  0  0  0  0
   40.0945   83.6868   62.7818 H   0  0  0  0  0  0  0  0  0  0  0  0
   43.0418   84.7028   64.6952 H   0  0  0  0  0  0  0  0  0  0  0  0
   43.4442   85.7891   62.5762 H   0  0  0  0  0  0  0  0  0  0  0  0
   40.3901   81.3462   63.6857 H   0  0  0  0  0  0  0  0  0  0  0  0
   39.5836   81.5868   62.2294 H   0  0  0  0  0  0  0  0  0  0  0  0
   42.1977   91.9384   61.6687 H   0  0  0  0  0  0  0  0  0  0  0  0
   44.2277   90.8248   60.8160 H   0  0  0  0  0  0  0  0  0  0  0  0
   43.0948   91.8354   56.7987 H   0  0  0  0  0  0  0  0  0  0  0  0
   41.0590   92.9535   57.6423 H   0  0  0  0  0  0  0  0  0  0  0  0
   39.9486   93.0119   61.7380 H   0  0  0  0  0  0  0  0  0  0  0  0
  1  2  2  0
  2 12  1  0
  2  3  1  0
  4  3  2  0
  5  4  1  0
  6  1  1  0
  6  5  2  0
  7 11  1  0
  7  5  1  0
  8  7  1  0
  9  8  2  0
  9 10  1  0
 10 11  2  0
 11 25  1  0
 12 20  1  0
 13 12  1  0
 13 14  2  0
 14 15  1  0
 15 20  2  0
 15 16  1  0
 16 21  1  0
 16 17  1  0
 18 17  2  0
 19 18  1  0
 20 19  1  0
 22 28  1  0
 22 23  2  0
 24 23  1  0
 25 24  2  0
 26 27  2  0
 26 25  1  0
 27 22  1  0
 29 28  2  0
 30 28  2  0
  1 31  1  0
  3 32  1  0
  8 33  1  0
  9 34  1  0
 13 35  1  0
 16 36  1  1
 18 37  1  0
 19 38  1  0
 21 39  1  0
 21 40  1  0
 23 41  1  0
 24 42  1  0
 26 43  1  0
 27 44  1  0
 28 45  1  0
M  END
>  <Score>  (1) 
-7.01602

$$$$
