
     RDKit          3D

 43 48  0  0  0  0  0  0  0  0999 V2000
   42.1530   85.1990   57.2060 C   0  0  0  0  0  0  0  0  0  0  0  0
   41.7390   83.9610   56.6380 C   0  0  0  0  0  0  0  0  0  0  0  0
   41.6370   82.8520   57.4650 C   0  0  0  0  0  0  0  0  0  0  0  0
   41.9440   83.0430   58.7560 N   0  0  0  0  0  0  0  0  0  0  0  0
   42.3340   84.1890   59.3080 C   0  0  0  0  0  0  0  0  0  0  0  0
   42.4370   85.2650   58.5300 N   0  0  0  0  0  0  0  0  0  0  0  0
   42.6510   84.3260   60.7120 C   0  0  0  0  0  0  0  0  0  0  0  0
   43.8550   84.7010   61.2840 C   0  0  0  0  0  0  0  0  0  0  0  0
   43.7790   84.7200   62.6410 N   0  0  0  0  0  0  0  0  0  0  0  0
   42.5140   84.3520   62.9140 C   0  0  0  0  0  0  0  0  0  0  0  0
   41.8700   84.1990   64.1440 C   0  0  0  0  0  0  0  0  0  0  0  0
   40.5290   83.8010   64.1270 C   0  0  0  0  0  0  0  0  0  0  0  0
   39.8310   83.5590   62.9870 C   0  0  0  0  0  0  0  0  0  0  0  0
   40.4940   83.7180   61.7830 C   0  0  0  0  0  0  0  0  0  0  0  0
   41.8120   84.1100   61.7760 C   0  0  0  0  0  0  0  0  0  0  0  0
   41.2120   81.5390   56.9380 C   0  0  0  0  0  0  0  0  0  0  0  0
   41.8860   80.3820   57.3560 C   0  0  0  0  0  0  0  0  0  0  0  0
   41.0070   79.0430   56.4270 S   0  0  0  0  0  0  0  0  0  0  0  0
   39.8650   80.3410   55.6310 C   0  0  0  0  0  0  0  0  0  0  0  0
   40.2500   81.2930   56.0860 N   0  0  0  0  0  0  0  0  0  0  0  0
   38.8340   79.7930   54.6840 C   0  0  0  0  0  0  0  0  0  0  0  0
   38.1990   80.5220   53.9300 O   0  0  0  0  0  0  0  0  0  0  0  0
   36.5440   76.2610   56.6270 N   0  0  0  0  0  0  0  0  0  0  0  0
   36.2910   77.4400   57.2180 C   0  0  0  0  0  0  0  0  0  0  0  0
   36.9940   78.3990   56.5920 N   0  0  0  0  0  0  0  0  0  0  0  0
   37.7020   77.8650   55.6000 C   0  0  0  0  0  0  0  0  0  0  0  0
   38.5760   78.3570   54.6540 C   0  0  0  0  0  0  0  0  0  0  0  0
   39.1600   77.5270   53.7420 N   0  0  0  0  0  0  0  0  0  0  0  0
   38.8450   76.2200   53.8120 C   0  0  0  0  0  0  0  0  0  0  0  0
   37.9970   75.6900   54.7170 N   0  0  0  0  0  0  0  0  0  0  0  0
   37.4160   76.4950   55.6200 C   0  0  0  0  0  0  0  0  0  0  0  0
   42.2418   86.0957   56.5751 H   0  0  0  0  0  0  0  0  0  0  0  0
   41.5049   83.8854   55.5659 H   0  0  0  0  0  0  0  0  0  0  0  0
   44.7601   84.9522   60.7116 H   0  0  0  0  0  0  0  0  0  0  0  0
   44.5234   84.9620   63.3105 H   0  0  0  0  0  0  0  0  0  0  0  0
   42.3978   84.3846   65.0911 H   0  0  0  0  0  0  0  0  0  0  0  0
   40.0113   83.6772   65.0896 H   0  0  0  0  0  0  0  0  0  0  0  0
   38.7765   83.2478   63.0199 H   0  0  0  0  0  0  0  0  0  0  0  0
   39.9686   83.5315   60.8348 H   0  0  0  0  0  0  0  0  0  0  0  0
   42.7266   80.2925   58.0598 H   0  0  0  0  0  0  0  0  0  0  0  0
   36.1475   75.3479   56.8915 H   0  0  0  0  0  0  0  0  0  0  0  0
   35.6184   77.5953   58.0744 H   0  0  0  0  0  0  0  0  0  0  0  0
   39.3098   75.5396   53.0832 H   0  0  0  0  0  0  0  0  0  0  0  0
  1  6  2  0
  2  1  1  0
  2  3  2  0
  3  4  1  0
  4  5  2  0
  5  7  1  0
  6  5  1  0
  7  8  2  0
  7 15  1  0
  8  9  1  0
  9 10  1  0
 10 11  2  0
 12 11  1  0
 13 12  2  0
 14 13  1  0
 15 14  2  0
 15 10  1  0
 16 17  2  0
 16  3  1  0
 18 17  1  0
 19 20  2  0
 19 18  1  0
 20 16  1  0
 21 19  1  0
 22 21  2  0
 23 24  1  0
 25 24  2  0
 26 31  2  0
 26 25  1  0
 27 21  1  0
 27 26  1  0
 28 29  1  0
 28 27  2  0
 29 30  2  0
 30 31  1  0
 31 23  1  0
  1 32  1  0
  2 33  1  0
  8 34  1  0
  9 35  1  0
 11 36  1  0
 12 37  1  0
 13 38  1  0
 14 39  1  0
 17 40  1  0
 23 41  1  0
 24 42  1  0
 29 43  1  0
M  END
>  <Score>  (1) 
-7.32729

$$$$
