
     RDKit          3D

 46 49  0  0  0  0  0  0  0  0999 V2000
   40.7900   82.1940   59.0660 C   0  0  0  0  0  0  0  0  0  0  0  0
   39.8610   81.2230   58.6770 C   0  0  0  0  0  0  0  0  0  0  0  0
   40.0610   80.9440   57.3550 C   0  0  0  0  0  0  0  0  0  0  0  0
   41.1030   81.7550   56.9890 C   0  0  0  0  0  0  0  0  0  0  0  0
   41.5230   82.4870   58.0090 O   0  0  0  0  0  0  0  0  0  0  0  0
   39.3350   80.0140   56.5570 C   0  0  0  0  0  0  0  0  0  0  0  0
   39.5940   78.7030   56.2460 C   0  0  0  0  0  0  0  0  0  0  0  0
   38.7490   77.9690   55.4430 C   0  0  0  0  0  0  0  0  0  0  0  0
   37.5980   78.5050   54.9070 C   0  0  0  0  0  0  0  0  0  0  0  0
   37.3220   79.8150   55.2050 C   0  0  0  0  0  0  0  0  0  0  0  0
   38.1660   80.5680   56.0150 C   0  0  0  0  0  0  0  0  0  0  0  0
   40.0840   82.1430   61.4780 C   0  0  0  0  0  0  0  0  0  0  0  0
   40.8150   82.6860   60.4190 C   0  0  0  0  0  0  0  0  0  0  0  0
   41.6270   83.7780   60.6760 C   0  0  0  0  0  0  0  0  0  0  0  0
   41.7000   84.2950   61.9290 N   0  0  0  0  0  0  0  0  0  0  0  0
   40.9550   83.7140   62.9260 C   0  0  0  0  0  0  0  0  0  0  0  0
   40.1720   82.6740   62.7150 N   0  0  0  0  0  0  0  0  0  0  0  0
   42.4390   84.4560   59.7250 N   0  0  0  0  0  0  0  0  0  0  0  0
   43.7710   84.1820   59.6250 C   0  0  0  0  0  0  0  0  0  0  0  0
   44.5600   84.8400   58.7030 C   0  0  0  0  0  0  0  0  0  0  0  0
   46.0280   84.5560   58.5760 C   0  0  0  0  0  0  0  0  0  0  0  0
   44.0060   85.7890   57.8680 C   0  0  0  0  0  0  0  0  0  0  0  0
   44.7150   86.4060   57.0120 O   0  0  0  0  0  0  0  0  0  0  0  0
   42.6810   86.0460   57.9840 N   0  0  0  0  0  0  0  0  0  0  0  0
   41.9210   85.3910   58.8940 C   0  0  0  0  0  0  0  0  0  0  0  0
   40.6870   85.6880   58.9410 O   0  0  0  0  0  0  0  0  0  0  0  0
   41.0350   84.2800   64.2990 C   0  0  0  0  0  0  0  0  0  0  0  0
   40.1790   83.5930   65.1360 F   0  0  0  0  0  0  0  0  0  0  0  0
   40.7200   85.5980   64.3470 F   0  0  0  0  0  0  0  0  0  0  0  0
   42.3080   84.0720   64.7650 F   0  0  0  0  0  0  0  0  0  0  0  0
   41.7910   81.9270   55.7000 C   0  0  0  0  0  0  0  0  0  0  0  0
   43.0430   81.3450   55.7790 F   0  0  0  0  0  0  0  0  0  0  0  0
   41.9700   83.2970   55.4020 F   0  0  0  0  0  0  0  0  0  0  0  0
   41.0070   81.4100   54.6910 F   0  0  0  0  0  0  0  0  0  0  0  0
   39.1001   80.7631   59.3247 H   0  0  0  0  0  0  0  0  0  0  0  0
   40.4998   78.2258   56.6483 H   0  0  0  0  0  0  0  0  0  0  0  0
   39.0011   76.9212   55.2225 H   0  0  0  0  0  0  0  0  0  0  0  0
   36.9301   77.9084   54.2683 H   0  0  0  0  0  0  0  0  0  0  0  0
   36.4137   80.2803   54.7947 H   0  0  0  0  0  0  0  0  0  0  0  0
   37.9122   81.6157   56.2341 H   0  0  0  0  0  0  0  0  0  0  0  0
   39.4312   81.2753   61.3020 H   0  0  0  0  0  0  0  0  0  0  0  0
   44.2221   83.4279   60.2867 H   0  0  0  0  0  0  0  0  0  0  0  0
   46.4729   84.4699   59.5783 H   0  0  0  0  0  0  0  0  0  0  0  0
   46.1730   83.6131   58.0283 H   0  0  0  0  0  0  0  0  0  0  0  0
   46.5142   85.3767   58.0283 H   0  0  0  0  0  0  0  0  0  0  0  0
   42.2451   86.7498   57.3712 H   0  0  0  0  0  0  0  0  0  0  0  0
  1 13  1  0
  2  1  2  0
  3  2  1  0
  4  3  2  0
  4  5  1  0
  5  1  1  0
  6  3  1  0
  7  6  2  0
  8  7  1  0
  9 10  1  0
  9  8  2  0
 10 11  2  0
 11  6  1  0
 12 17  2  0
 13 14  2  0
 13 12  1  0
 14 15  1  0
 15 16  2  0
 16 27  1  0
 17 16  1  0
 18 14  1  0
 19 18  1  0
 20 19  2  0
 21 20  1  0
 22 24  1  0
 22 20  1  0
 23 22  2  0
 24 25  1  0
 25 26  2  0
 25 18  1  0
 27 29  1  0
 27 30  1  0
 27 28  1  0
 31 32  1  0
 31  4  1  0
 33 31  1  0
 34 31  1  0
  2 35  1  0
  7 36  1  0
  8 37  1  0
  9 38  1  0
 10 39  1  0
 11 40  1  0
 12 41  1  0
 19 42  1  0
 21 43  1  0
 21 44  1  0
 21 45  1  0
 24 46  1  0
M  END
>  <Score>  (1) 
-7.53837

$$$$
