
     RDKit          3D

 44 48  0  0  1  0  0  0  0  0999 V2000
   42.6330   86.5020   58.4530 C   0  0  0  0  0  0  0  0  0  0  0  0
   43.0500   85.9330   59.6810 C   0  0  0  0  0  0  0  0  0  0  0  0
   44.0780   86.5350   60.3520 C   0  0  0  0  0  0  0  0  0  0  0  0
   44.6410   87.6580   59.7850 N   0  0  0  0  0  0  0  0  0  0  0  0
   44.2330   88.1710   58.6360 C   0  0  0  0  0  0  0  0  0  0  0  0
   43.2080   87.5920   57.9440 N   0  0  0  0  0  0  0  0  0  0  0  0
   44.8500   89.3290   58.0990 N   0  0  0  0  0  0  0  0  0  0  0  0
   45.8840   89.2290   57.2420 C   0  0  0  0  0  0  0  0  0  0  0  0
   46.2750   90.5020   56.8810 C   0  0  0  0  0  0  0  0  0  0  0  0
   45.4510   91.3720   57.5410 N   0  0  0  0  0  0  0  0  0  0  0  0
   44.5950   90.6270   58.2740 C   0  0  0  0  0  0  0  0  0  0  0  0
   43.5670   91.1430   59.1320 N   0  0  0  0  0  0  0  0  0  0  0  0
   42.5810   92.0060   58.4640 C   0  0  0  0  0  0  0  0  0  0  0  0
   41.5750   92.3350   59.5250 C   0  0  0  0  0  0  0  0  0  0  0  0
   42.4440   92.2770   60.7770 C   0  0  0  0  0  0  0  0  0  0  0  0
   43.2640   91.0240   60.5470 C   0  0  0  0  0  0  0  0  0  0  0  0
   42.3230   84.7610   60.1190 N   0  0  0  0  0  0  0  0  0  0  0  0
   41.7490   83.8410   59.3240 C   0  0  0  0  0  0  0  0  0  0  0  0
   41.1220   82.9240   60.1020 N   0  0  0  0  0  0  0  0  0  0  0  0
   41.2890   83.2470   61.3750 C   0  0  0  0  0  0  0  0  0  0  0  0
   40.8680   82.7800   62.5870 C   0  0  2  0  0  0  0  0  0  0  0  0
   41.3560   83.2620   63.7440 N   0  0  0  0  0  0  0  0  0  0  0  0
   42.1140   84.3870   63.7600 C   0  0  0  0  0  0  0  0  0  0  0  0
   42.4530   84.9590   62.5980 N   0  0  0  0  0  0  0  0  0  0  0  0
   42.0540   84.4090   61.4160 C   0  0  0  0  0  0  0  0  0  0  0  0
   40.5510   81.3690   62.6640 N   0  0  0  0  0  0  0  0  0  0  0  0
   41.8075   86.0291   57.9009 H   0  0  0  0  0  0  0  0  0  0  0  0
   44.4428   86.1371   61.3104 H   0  0  0  0  0  0  0  0  0  0  0  0
   46.3394   88.2917   56.8897 H   0  0  0  0  0  0  0  0  0  0  0  0
   47.0925   90.7666   56.1942 H   0  0  0  0  0  0  0  0  0  0  0  0
   43.0602   92.9218   58.0877 H   0  0  0  0  0  0  0  0  0  0  0  0
   42.1204   91.5130   57.5952 H   0  0  0  0  0  0  0  0  0  0  0  0
   41.1451   93.3367   59.3775 H   0  0  0  0  0  0  0  0  0  0  0  0
   40.7028   91.6651   59.5466 H   0  0  0  0  0  0  0  0  0  0  0  0
   43.0882   93.1652   60.8556 H   0  0  0  0  0  0  0  0  0  0  0  0
   41.8657   92.2579   61.7125 H   0  0  0  0  0  0  0  0  0  0  0  0
   42.6811   90.1157   60.7597 H   0  0  0  0  0  0  0  0  0  0  0  0
   44.1499   90.9384   61.1934 H   0  0  0  0  0  0  0  0  0  0  0  0
   41.7824   83.8334   58.2245 H   0  0  0  0  0  0  0  0  0  0  0  0
   39.9282   83.3492   62.5336 H   0  0  0  0  0  0  0  0  0  0  0  0
   42.4453   84.8230   64.7140 H   0  0  0  0  0  0  0  0  0  0  0  0
   43.0187   85.8198   62.5970 H   0  0  0  0  0  0  0  0  0  0  0  0
   40.4872   81.0849   63.6520 H   0  0  0  0  0  0  0  0  0  0  0  0
   39.6497   81.1936   62.1974 H   0  0  0  0  0  0  0  0  0  0  0  0
  1  2  2  0
  2 17  1  0
  2  3  1  0
  4  3  2  0
  5  4  1  0
  6  1  1  0
  6  5  2  0
  7 11  1  0
  7  5  1  0
  8  7  1  0
  9  8  2  0
  9 10  1  0
 10 11  2  0
 11 12  1  0
 12 16  1  0
 13 12  1  0
 13 14  1  0
 14 15  1  0
 16 15  1  0
 17 25  1  0
 18 19  2  0
 18 17  1  0
 19 20  1  0
 20 25  2  0
 20 21  1  0
 21 26  1  0
 21 22  1  0
 22 23  2  0
 24 23  1  0
 25 24  1  0
  1 27  1  0
  3 28  1  0
  8 29  1  0
  9 30  1  0
 13 31  1  0
 13 32  1  0
 14 33  1  0
 14 34  1  0
 15 35  1  0
 15 36  1  0
 16 37  1  0
 16 38  1  0
 18 39  1  0
 21 40  1  1
 23 41  1  0
 24 42  1  0
 26 43  1  0
 26 44  1  0
M  END
>  <Score>  (1) 
-7.00848

$$$$
