
     RDKit          3D

 49 54  0  0  0  0  0  0  0  0999 V2000
   38.9240   83.4900   61.8530 C   0  0  0  0  0  0  0  0  0  0  0  0
   39.5250   84.4220   61.0060 C   0  0  0  0  0  0  0  0  0  0  0  0
   40.6890   84.0220   60.3060 C   0  0  0  0  0  0  0  0  0  0  0  0
   41.1480   82.7710   60.4940 N   0  0  0  0  0  0  0  0  0  0  0  0
   40.5310   81.8930   61.3300 C   0  0  0  0  0  0  0  0  0  0  0  0
   39.4240   82.2520   62.0080 N   0  0  0  0  0  0  0  0  0  0  0  0
   41.3170   84.9840   59.4260 C   0  0  0  0  0  0  0  0  0  0  0  0
   40.8760   85.4720   58.2420 C   0  0  0  0  0  0  0  0  0  0  0  0
   41.7550   86.3510   57.7320 N   0  0  0  0  0  0  0  0  0  0  0  0
   42.7800   86.4320   58.6000 C   0  0  0  0  0  0  0  0  0  0  0  0
   43.9350   87.1980   58.5330 C   0  0  0  0  0  0  0  0  0  0  0  0
   44.8700   87.1250   59.5520 C   0  0  0  0  0  0  0  0  0  0  0  0
   44.6690   86.3020   60.6320 C   0  0  0  0  0  0  0  0  0  0  0  0
   43.4990   85.5580   60.6500 C   0  0  0  0  0  0  0  0  0  0  0  0
   42.5300   85.5990   59.6480 C   0  0  0  0  0  0  0  0  0  0  0  0
   41.0650   80.5360   61.5110 C   0  0  0  0  0  0  0  0  0  0  0  0
   40.2490   79.4490   61.3840 C   0  0  0  0  0  0  0  0  0  0  0  0
   40.7710   78.1700   61.5610 C   0  0  0  0  0  0  0  0  0  0  0  0
   42.0960   78.0980   61.8560 C   0  0  0  0  0  0  0  0  0  0  0  0
   42.9420   79.1670   61.9870 C   0  0  0  0  0  0  0  0  0  0  0  0
   42.3660   80.3900   61.8030 N   0  0  0  0  0  0  0  0  0  0  0  0
   44.3360   79.2280   62.3600 C   0  0  0  0  0  0  0  0  0  0  0  0
   45.0290   78.0120   62.4860 C   0  0  0  0  0  0  0  0  0  0  0  0
   46.3340   77.8690   62.8390 C   0  0  0  0  0  0  0  0  0  0  0  0
   47.0690   79.0010   63.1000 C   0  0  0  0  0  0  0  0  0  0  0  0
   46.4670   80.2340   63.0030 C   0  0  0  0  0  0  0  0  0  0  0  0
   47.1900   81.3560   63.2970 C   0  0  0  0  0  0  0  0  0  0  0  0
   46.6260   82.6220   63.2530 C   0  0  0  0  0  0  0  0  0  0  0  0
   45.2750   82.6790   62.8910 C   0  0  0  0  0  0  0  0  0  0  0  0
   44.5900   81.5240   62.6010 C   0  0  0  0  0  0  0  0  0  0  0  0
   45.1490   80.2860   62.6430 C   0  0  0  0  0  0  0  0  0  0  0  0
   38.0182   83.7757   62.4078 H   0  0  0  0  0  0  0  0  0  0  0  0
   39.1086   85.4331   60.8862 H   0  0  0  0  0  0  0  0  0  0  0  0
   39.9274   85.1875   57.7632 H   0  0  0  0  0  0  0  0  0  0  0  0
   41.6618   86.8655   56.8446 H   0  0  0  0  0  0  0  0  0  0  0  0
   44.1075   87.8615   57.6728 H   0  0  0  0  0  0  0  0  0  0  0  0
   45.7845   87.7337   59.4952 H   0  0  0  0  0  0  0  0  0  0  0  0
   45.4040   86.2356   61.4477 H   0  0  0  0  0  0  0  0  0  0  0  0
   43.3242   84.8935   61.5090 H   0  0  0  0  0  0  0  0  0  0  0  0
   39.1841   79.5827   61.1430 H   0  0  0  0  0  0  0  0  0  0  0  0
   40.1466   77.2693   61.4674 H   0  0  0  0  0  0  0  0  0  0  0  0
   42.5253   77.0958   62.0019 H   0  0  0  0  0  0  0  0  0  0  0  0
   44.4635   77.0912   62.2801 H   0  0  0  0  0  0  0  0  0  0  0  0
   46.7909   76.8712   62.9140 H   0  0  0  0  0  0  0  0  0  0  0  0
   48.1288   78.9215   63.3838 H   0  0  0  0  0  0  0  0  0  0  0  0
   48.2488   81.2518   63.5763 H   0  0  0  0  0  0  0  0  0  0  0  0
   47.2053   83.5270   63.4884 H   0  0  0  0  0  0  0  0  0  0  0  0
   44.7610   83.6501   62.8387 H   0  0  0  0  0  0  0  0  0  0  0  0
   43.5299   81.6058   62.3191 H   0  0  0  0  0  0  0  0  0  0  0  0
  1  6  2  0
  2  1  1  0
  3  4  1  0
  3  2  2  0
  4  5  2  0
  5 16  1  0
  5  6  1  0
  7 15  1  0
  7  3  1  0
  8  7  2  0
  9  8  1  0
  9 10  1  0
 10 15  2  0
 11 10  1  0
 11 12  2  0
 12 13  1  0
 13 14  2  0
 15 14  1  0
 16 21  1  0
 17 16  2  0
 17 18  1  0
 18 19  2  0
 19 20  1  0
 20 22  1  0
 21 20  2  0
 22 23  2  0
 22 31  1  0
 23 24  1  0
 24 25  2  0
 26 25  1  0
 26 27  2  0
 28 27  1  0
 29 28  2  0
 30 31  2  0
 30 29  1  0
 31 26  1  0
  1 32  1  0
  2 33  1  0
  8 34  1  0
  9 35  1  0
 11 36  1  0
 12 37  1  0
 13 38  1  0
 14 39  1  0
 17 40  1  0
 18 41  1  0
 19 42  1  0
 23 43  1  0
 24 44  1  0
 25 45  1  0
 27 46  1  0
 28 47  1  0
 29 48  1  0
 30 49  1  0
M  END
>  <Score>  (1) 
-7.98168

$$$$
