
     RDKit          3D

 49 53  0  0  1  0  0  0  0  0999 V2000
   41.7420   82.6880   62.4060 C   0  0  1  0  0  0  0  0  0  0  0  0
   40.8080   82.5350   63.5420 C   0  0  0  0  0  0  0  0  0  0  0  0
   40.6400   83.9700   64.0210 C   0  0  0  0  0  0  0  0  0  0  0  0
   42.0140   84.5570   63.8540 C   0  0  0  0  0  0  0  0  0  0  0  0
   42.8000   83.6360   62.9420 C   0  0  2  0  0  0  0  0  0  0  0  0
   43.2550   84.4170   61.7920 N   0  0  0  0  0  0  0  0  0  0  0  0
   44.4850   84.9200   61.5380 C   0  0  0  0  0  0  0  0  0  0  0  0
   44.4100   85.5700   60.3470 N   0  0  0  0  0  0  0  0  0  0  0  0
   43.1570   85.4760   59.8650 C   0  0  0  0  0  0  0  0  0  0  0  0
   42.5370   85.9410   58.7220 C   0  0  0  0  0  0  0  0  0  0  0  0
   43.1640   86.6100   57.8600 O   0  0  0  0  0  0  0  0  0  0  0  0
   41.2350   85.6910   58.4900 N   0  0  0  0  0  0  0  0  0  0  0  0
   40.5410   84.9850   59.3840 C   0  0  0  0  0  0  0  0  0  0  0  0
   39.1720   84.6180   59.3270 N   0  0  0  0  0  0  0  0  0  0  0  0
   41.1370   84.5410   60.4800 N   0  0  0  0  0  0  0  0  0  0  0  0
   42.4280   84.7360   60.8000 C   0  0  0  0  0  0  0  0  0  0  0  0
   42.4390   81.4140   62.0090 C   0  0  0  0  0  0  0  0  0  0  0  0
   40.7860   78.5600   60.2590 C   0  0  0  0  0  0  0  0  0  0  0  0
   40.1720   79.1940   59.2070 C   0  0  0  0  0  0  0  0  0  0  0  0
   40.2710   80.5430   59.0320 C   0  0  0  0  0  0  0  0  0  0  0  0
   41.0200   81.2150   59.9730 C   0  0  0  0  0  0  0  0  0  0  0  0
   41.6470   80.6180   61.0360 C   0  0  0  0  0  0  0  0  0  0  0  0
   41.4990   79.2820   61.1350 N   0  0  0  0  0  0  0  0  0  0  0  0
   39.2520   75.2620   60.5570 C   0  0  0  0  0  0  0  0  0  0  0  0
   40.3480   74.4040   60.6860 C   0  0  0  0  0  0  0  0  0  0  0  0
   41.6080   74.9570   60.6700 C   0  0  0  0  0  0  0  0  0  0  0  0
   41.7520   76.3100   60.5310 N   0  0  0  0  0  0  0  0  0  0  0  0
   40.6530   77.1070   60.4090 C   0  0  0  0  0  0  0  0  0  0  0  0
   39.3930   76.5850   60.4210 N   0  0  0  0  0  0  0  0  0  0  0  0
   41.1931   83.0261   61.5147 H   0  0  0  0  0  0  0  0  0  0  0  0
   39.8481   82.1099   63.2137 H   0  0  0  0  0  0  0  0  0  0  0  0
   41.1725   81.8506   64.3222 H   0  0  0  0  0  0  0  0  0  0  0  0
   39.9049   84.5073   63.4038 H   0  0  0  0  0  0  0  0  0  0  0  0
   40.2674   84.0368   65.0538 H   0  0  0  0  0  0  0  0  0  0  0  0
   41.9417   85.5580   63.4037 H   0  0  0  0  0  0  0  0  0  0  0  0
   42.5137   84.6524   64.8293 H   0  0  0  0  0  0  0  0  0  0  0  0
   43.6485   83.1507   63.4465 H   0  0  0  0  0  0  0  0  0  0  0  0
   45.3766   84.8215   62.1747 H   0  0  0  0  0  0  0  0  0  0  0  0
   40.7808   86.0400   57.6340 H   0  0  0  0  0  0  0  0  0  0  0  0
   38.7545   84.0664   60.0901 H   0  0  0  0  0  0  0  0  0  0  0  0
   38.5954   84.9031   58.5225 H   0  0  0  0  0  0  0  0  0  0  0  0
   43.4075   81.6678   61.5534 H   0  0  0  0  0  0  0  0  0  0  0  0
   42.5691   80.8048   62.9156 H   0  0  0  0  0  0  0  0  0  0  0  0
   39.5870   78.6004   58.4891 H   0  0  0  0  0  0  0  0  0  0  0  0
   39.7839   81.0614   58.1930 H   0  0  0  0  0  0  0  0  0  0  0  0
   41.1219   82.3048   59.8640 H   0  0  0  0  0  0  0  0  0  0  0  0
   38.2386   74.8343   60.5677 H   0  0  0  0  0  0  0  0  0  0  0  0
   40.2074   73.3187   60.7970 H   0  0  0  0  0  0  0  0  0  0  0  0
   42.4951   74.3140   60.7685 H   0  0  0  0  0  0  0  0  0  0  0  0
  1  5  1  0
  1  2  1  0
  2  3  1  0
  4  3  1  0
  5  4  1  0
  6  5  1  0
  7  6  1  0
  8  7  2  0
  9  8  1  0
  9 16  2  0
 10  9  1  0
 11 10  2  0
 12 10  1  0
 12 13  1  0
 13 15  2  0
 14 13  1  0
 15 16  1  0
 16  6  1  0
 17  1  1  0
 18 28  1  0
 18 23  1  0
 19 18  2  0
 20 19  1  0
 20 21  2  0
 21 22  1  0
 22 23  2  0
 22 17  1  0
 24 25  2  0
 26 25  1  0
 27 26  2  0
 28 29  2  0
 28 27  1  0
 29 24  1  0
  1 30  1  6
  2 31  1  0
  2 32  1  0
  3 33  1  0
  3 34  1  0
  4 35  1  0
  4 36  1  0
  5 37  1  1
  7 38  1  0
 12 39  1  0
 14 40  1  0
 14 41  1  0
 17 42  1  0
 17 43  1  0
 19 44  1  0
 20 45  1  0
 21 46  1  0
 24 47  1  0
 25 48  1  0
 26 49  1  0
M  END
>  <Score>  (1) 
-7.11474

$$$$
