
     RDKit          3D

 46 51  0  0  0  0  0  0  0  0999 V2000
   40.6410   79.9220   58.7620 C   0  0  0  0  0  0  0  0  0  0  0  0
   40.7660   81.0120   57.9230 C   0  0  0  0  0  0  0  0  0  0  0  0
   40.1170   81.1130   56.7040 C   0  0  0  0  0  0  0  0  0  0  0  0
   39.3050   80.0780   56.3040 C   0  0  0  0  0  0  0  0  0  0  0  0
   39.1380   78.9770   57.0830 C   0  0  0  0  0  0  0  0  0  0  0  0
   38.3300   77.9630   56.6780 C   0  0  0  0  0  0  0  0  0  0  0  0
   38.1280   76.8130   57.4450 C   0  0  0  0  0  0  0  0  0  0  0  0
   38.8040   76.7710   58.6520 C   0  0  0  0  0  0  0  0  0  0  0  0
   39.6120   77.8210   59.0250 C   0  0  0  0  0  0  0  0  0  0  0  0
   39.8030   78.9390   58.2690 C   0  0  0  0  0  0  0  0  0  0  0  0
   37.5960   77.9910   55.4010 C   0  0  0  0  0  0  0  0  0  0  0  0
   36.4500   77.4440   54.9220 N   0  0  0  0  0  0  0  0  0  0  0  0
   36.2170   77.7730   53.6970 O   0  0  0  0  0  0  0  0  0  0  0  0
   37.1670   78.5440   53.2770 C   0  0  0  0  0  0  0  0  0  0  0  0
   37.9680   78.6530   54.3160 N   0  0  0  0  0  0  0  0  0  0  0  0
   37.4350   79.1920   52.0530 N   0  0  0  0  0  0  0  0  0  0  0  0
   36.3920   79.7600   51.4400 C   0  0  0  0  0  0  0  0  0  0  0  0
   36.8660   80.3390   50.2530 C   0  0  0  0  0  0  0  0  0  0  0  0
   38.1820   80.0960   50.1940 N   0  0  0  0  0  0  0  0  0  0  0  0
   38.5460   79.3900   51.2980 C   0  0  0  0  0  0  0  0  0  0  0  0
   42.8430   79.1590   61.7780 C   0  0  0  0  0  0  0  0  0  0  0  0
   42.2110   78.9620   60.5560 C   0  0  0  0  0  0  0  0  0  0  0  0
   41.3650   79.9400   59.9900 C   0  0  0  0  0  0  0  0  0  0  0  0
   41.2390   81.0610   60.7490 N   0  0  0  0  0  0  0  0  0  0  0  0
   41.8530   81.2440   61.9270 C   0  0  0  0  0  0  0  0  0  0  0  0
   42.6480   80.2900   62.4270 N   0  0  0  0  0  0  0  0  0  0  0  0
   41.6590   82.4880   62.6780 C   0  0  0  0  0  0  0  0  0  0  0  0
   42.5240   83.5540   62.4560 C   0  0  0  0  0  0  0  0  0  0  0  0
   42.2660   84.6710   63.2010 C   0  0  0  0  0  0  0  0  0  0  0  0
   41.2630   84.7500   64.0810 N   0  0  0  0  0  0  0  0  0  0  0  0
   40.4370   83.7100   64.2830 C   0  0  0  0  0  0  0  0  0  0  0  0
   40.6560   82.5920   63.5700 N   0  0  0  0  0  0  0  0  0  0  0  0
   41.4143   81.8424   58.2394 H   0  0  0  0  0  0  0  0  0  0  0  0
   40.2482   82.0019   56.0694 H   0  0  0  0  0  0  0  0  0  0  0  0
   38.7823   80.1422   55.3382 H   0  0  0  0  0  0  0  0  0  0  0  0
   37.4740   75.9939   57.1113 H   0  0  0  0  0  0  0  0  0  0  0  0
   38.6955   75.8986   59.3131 H   0  0  0  0  0  0  0  0  0  0  0  0
   40.1347   77.7539   59.9906 H   0  0  0  0  0  0  0  0  0  0  0  0
   35.3526   79.7715   51.8000 H   0  0  0  0  0  0  0  0  0  0  0  0
   36.2692   80.8890   49.5105 H   0  0  0  0  0  0  0  0  0  0  0  0
   39.5614   79.0410   51.5371 H   0  0  0  0  0  0  0  0  0  0  0  0
   43.4975   78.3813   62.1984 H   0  0  0  0  0  0  0  0  0  0  0  0
   42.3745   78.0182   60.0151 H   0  0  0  0  0  0  0  0  0  0  0  0
   43.3534   83.5024   61.7353 H   0  0  0  0  0  0  0  0  0  0  0  0
   42.9163   85.5484   63.0696 H   0  0  0  0  0  0  0  0  0  0  0  0
   39.6106   83.7713   65.0064 H   0  0  0  0  0  0  0  0  0  0  0  0
  1 23  1  0
  2  1  2  0
  3  2  1  0
  4  3  2  0
  4  5  1  0
  5 10  2  0
  6  5  1  0
  6  7  2  0
  7  8  1  0
  8  9  2  0
 10  1  1  0
 10  9  1  0
 11  6  1  0
 12 11  2  0
 13 12  1  0
 14 13  1  0
 14 15  2  0
 15 11  1  0
 16 14  1  0
 17 16  1  0
 18 17  2  0
 19 18  1  0
 19 20  2  0
 20 16  1  0
 21 26  2  0
 22 21  1  0
 23 22  2  0
 23 24  1  0
 24 25  2  0
 25 26  1  0
 25 27  1  0
 27 32  1  0
 28 27  2  0
 28 29  1  0
 29 30  2  0
 30 31  1  0
 32 31  2  0
  2 33  1  0
  3 34  1  0
  4 35  1  0
  7 36  1  0
  8 37  1  0
  9 38  1  0
 17 39  1  0
 18 40  1  0
 20 41  1  0
 21 42  1  0
 22 43  1  0
 28 44  1  0
 29 45  1  0
 31 46  1  0
M  END
>  <Score>  (1) 
-7.48645

$$$$
