
     RDKit          3D

 38 42  0  0  0  0  0  0  0  0999 V2000
   40.8730   81.9260   61.2200 C   0  0  0  0  0  0  0  0  0  0  0  0
   40.6910   82.5550   60.0060 C   0  0  0  0  0  0  0  0  0  0  0  0
   40.3920   81.8970   58.8390 C   0  0  0  0  0  0  0  0  0  0  0  0
   40.2620   80.5230   58.8660 C   0  0  0  0  0  0  0  0  0  0  0  0
   40.4260   79.8280   60.0240 C   0  0  0  0  0  0  0  0  0  0  0  0
   40.3010   78.4670   60.0590 C   0  0  0  0  0  0  0  0  0  0  0  0
   40.4660   77.7260   61.2300 C   0  0  0  0  0  0  0  0  0  0  0  0
   40.7650   78.4630   62.3570 C   0  0  0  0  0  0  0  0  0  0  0  0
   40.8840   79.8280   62.2900 C   0  0  0  0  0  0  0  0  0  0  0  0
   40.7240   80.5600   61.1460 C   0  0  0  0  0  0  0  0  0  0  0  0
   39.9730   77.6760   58.8450 C   0  0  0  0  0  0  0  0  0  0  0  0
   40.3660   76.5050   58.3190 N   0  0  0  0  0  0  0  0  0  0  0  0
   39.7890   76.2280   57.2050 O   0  0  0  0  0  0  0  0  0  0  0  0
   38.9850   77.1910   56.9290 C   0  0  0  0  0  0  0  0  0  0  0  0
   39.0750   78.0930   57.9170 N   0  0  0  0  0  0  0  0  0  0  0  0
   38.0740   77.4920   55.8700 N   0  0  0  0  0  0  0  0  0  0  0  0
   38.0670   78.7020   55.3110 N   0  0  0  0  0  0  0  0  0  0  0  0
   37.1290   78.7440   54.3420 C   0  0  0  0  0  0  0  0  0  0  0  0
   36.5140   77.5030   54.2860 C   0  0  0  0  0  0  0  0  0  0  0  0
   37.1390   76.7330   55.2690 C   0  0  0  0  0  0  0  0  0  0  0  0
   42.4880   84.0090   63.9790 C   0  0  0  0  0  0  0  0  0  0  0  0
   42.4010   83.2310   62.8270 C   0  0  0  0  0  0  0  0  0  0  0  0
   41.1790   82.7310   62.3660 C   0  0  0  0  0  0  0  0  0  0  0  0
   40.1130   83.0830   63.1540 N   0  0  0  0  0  0  0  0  0  0  0  0
   40.2020   83.8290   64.2570 C   0  0  0  0  0  0  0  0  0  0  0  0
   41.3820   84.2840   64.6600 N   0  0  0  0  0  0  0  0  0  0  0  0
   40.7915   83.6498   59.9709 H   0  0  0  0  0  0  0  0  0  0  0  0
   40.2585   82.4541   57.9000 H   0  0  0  0  0  0  0  0  0  0  0  0
   40.0225   79.9825   57.9384 H   0  0  0  0  0  0  0  0  0  0  0  0
   40.3647   76.6309   61.2527 H   0  0  0  0  0  0  0  0  0  0  0  0
   40.9096   77.9508   63.3197 H   0  0  0  0  0  0  0  0  0  0  0  0
   41.1238   80.3692   63.2172 H   0  0  0  0  0  0  0  0  0  0  0  0
   36.8936   79.6112   53.7076 H   0  0  0  0  0  0  0  0  0  0  0  0
   35.7045   77.1907   53.6099 H   0  0  0  0  0  0  0  0  0  0  0  0
   36.9069   75.6853   55.5108 H   0  0  0  0  0  0  0  0  0  0  0  0
   43.4614   84.3910   64.3205 H   0  0  0  0  0  0  0  0  0  0  0  0
   43.3185   83.0036   62.2644 H   0  0  0  0  0  0  0  0  0  0  0  0
   39.2958   84.0673   64.8332 H   0  0  0  0  0  0  0  0  0  0  0  0
  1 23  1  0
  2  1  2  0
  3  4  2  0
  3  2  1  0
  4  5  1  0
  5  6  1  0
  5 10  2  0
  6  7  2  0
  7  8  1  0
  9  8  2  0
 10  1  1  0
 10  9  1  0
 11  6  1  0
 12 11  2  0
 13 12  1  0
 14 13  1  0
 14 15  2  0
 15 11  1  0
 16 14  1  0
 17 16  1  0
 18 17  2  0
 19 18  1  0
 19 20  2  0
 20 16  1  0
 21 26  2  0
 22 21  1  0
 23 22  2  0
 23 24  1  0
 24 25  2  0
 25 26  1  0
  2 27  1  0
  3 28  1  0
  4 29  1  0
  7 30  1  0
  8 31  1  0
  9 32  1  0
 18 33  1  0
 19 34  1  0
 20 35  1  0
 21 36  1  0
 22 37  1  0
 25 38  1  0
M  END
>  <Score>  (1) 
-7.23239

$$$$
