
     RDKit          3D

 41 45  0  0  0  0  0  0  0  0999 V2000
   39.9630   82.2560   60.4230 C   0  0  0  0  0  0  0  0  0  0  0  0
   40.4390   83.2770   59.5570 C   0  0  0  0  0  0  0  0  0  0  0  0
   40.1420   84.6080   59.8610 C   0  0  0  0  0  0  0  0  0  0  0  0
   39.3890   84.8460   61.0150 N   0  0  0  0  0  0  0  0  0  0  0  0
   38.9520   83.8190   61.8280 C   0  0  0  0  0  0  0  0  0  0  0  0
   39.2240   82.5270   61.5520 N   0  0  0  0  0  0  0  0  0  0  0  0
   40.2950   80.9410   60.0550 N   0  0  0  0  0  0  0  0  0  0  0  0
   40.6500   80.5010   58.8410 C   0  0  0  0  0  0  0  0  0  0  0  0
   40.9270   79.1890   58.8900 N   0  0  0  0  0  0  0  0  0  0  0  0
   40.7410   78.7820   60.1570 C   0  0  0  0  0  0  0  0  0  0  0  0
   40.8740   77.5240   60.7080 C   0  0  0  0  0  0  0  0  0  0  0  0
   41.2510   76.5710   59.9370 O   0  0  0  0  0  0  0  0  0  0  0  0
   40.6040   77.3710   62.0100 N   0  0  0  0  0  0  0  0  0  0  0  0
   40.2150   78.4340   62.7370 C   0  0  0  0  0  0  0  0  0  0  0  0
   39.9510   78.1220   64.0770 N   0  0  0  0  0  0  0  0  0  0  0  0
   40.0750   79.6830   62.2260 N   0  0  0  0  0  0  0  0  0  0  0  0
   40.3410   79.8880   60.8970 C   0  0  0  0  0  0  0  0  0  0  0  0
   40.7200   81.1260   57.5000 C   0  0  0  0  0  0  0  0  0  0  0  0
   40.5940   80.1170   56.3940 C   0  0  0  0  0  0  0  0  0  0  0  0
   41.6930   79.3850   56.0390 N   0  0  0  0  0  0  0  0  0  0  0  0
   41.6650   78.4670   55.0690 C   0  0  0  0  0  0  0  0  0  0  0  0
   40.5520   78.1940   54.3700 N   0  0  0  0  0  0  0  0  0  0  0  0
   39.4550   78.8860   54.6850 C   0  0  0  0  0  0  0  0  0  0  0  0
   38.3140   78.6050   53.9650 C   0  0  0  0  0  0  0  0  0  0  0  0
   37.1510   79.3000   54.2560 C   0  0  0  0  0  0  0  0  0  0  0  0
   37.1850   80.2560   55.2680 C   0  0  0  0  0  0  0  0  0  0  0  0
   38.3270   80.5380   55.9900 C   0  0  0  0  0  0  0  0  0  0  0  0
   39.4620   79.8390   55.6820 C   0  0  0  0  0  0  0  0  0  0  0  0
   41.0300   83.0244   58.6643 H   0  0  0  0  0  0  0  0  0  0  0  0
   40.4858   85.4332   59.2201 H   0  0  0  0  0  0  0  0  0  0  0  0
   38.3653   84.0614   62.7264 H   0  0  0  0  0  0  0  0  0  0  0  0
   40.6935   76.4452   62.4525 H   0  0  0  0  0  0  0  0  0  0  0  0
   39.6455   78.8602   64.7271 H   0  0  0  0  0  0  0  0  0  0  0  0
   40.0624   77.1544   64.4121 H   0  0  0  0  0  0  0  0  0  0  0  0
   39.9030   81.8567   57.4071 H   0  0  0  0  0  0  0  0  0  0  0  0
   41.7036   81.6092   57.4046 H   0  0  0  0  0  0  0  0  0  0  0  0
   42.5871   77.9149   54.8346 H   0  0  0  0  0  0  0  0  0  0  0  0
   38.3263   77.8420   53.1728 H   0  0  0  0  0  0  0  0  0  0  0  0
   36.2226   79.1012   53.7006 H   0  0  0  0  0  0  0  0  0  0  0  0
   36.2635   80.8094   55.5017 H   0  0  0  0  0  0  0  0  0  0  0  0
   38.3247   81.2981   56.7851 H   0  0  0  0  0  0  0  0  0  0  0  0
  1  6  2  0
  2  3  2  0
  2  1  1  0
  3  4  1  0
  4  5  2  0
  6  5  1  0
  7  1  1  0
  7 17  1  0
  8  9  2  0
  8  7  1  0
  9 10  1  0
 10 11  1  0
 10 17  2  0
 11 13  1  0
 12 11  2  0
 13 14  1  0
 14 15  1  0
 16 14  2  0
 17 16  1  0
 18  8  1  0
 19 18  1  0
 20 19  2  0
 21 20  1  0
 22 23  1  0
 22 21  2  0
 23 28  2  0
 24 25  2  0
 24 23  1  0
 25 26  1  0
 26 27  2  0
 28 27  1  0
 28 19  1  0
  2 29  1  0
  3 30  1  0
  5 31  1  0
 13 32  1  0
 15 33  1  0
 15 34  1  0
 18 35  1  0
 18 36  1  0
 21 37  1  0
 24 38  1  0
 25 39  1  0
 26 40  1  0
 27 41  1  0
M  END
>  <Score>  (1) 
-7.5209

$$$$
