
     RDKit          3D

 50 54  0  0  1  0  0  0  0  0999 V2000
   40.3270   80.4850   60.9890 C   0  0  2  0  0  0  0  0  0  0  0  0
   39.8720   81.8890   60.9100 C   0  0  0  0  0  0  0  0  0  0  0  0
   40.0490   82.6170   59.6980 C   0  0  0  0  0  0  0  0  0  0  0  0
   39.6390   83.9420   59.6160 C   0  0  0  0  0  0  0  0  0  0  0  0
   39.0710   84.4670   60.7630 N   0  0  0  0  0  0  0  0  0  0  0  0
   38.9150   83.7600   61.8930 C   0  0  0  0  0  0  0  0  0  0  0  0
   39.3100   82.4660   61.9870 N   0  0  0  0  0  0  0  0  0  0  0  0
   41.4650   80.3580   62.0400 C   0  0  0  0  0  0  0  0  0  0  0  0
   42.5680   81.2280   61.7560 N   0  0  0  0  0  0  0  0  0  0  0  0
   43.7930   80.8070   61.4590 C   0  0  0  0  0  0  0  0  0  0  0  0
   44.6170   81.8650   61.2870 N   0  0  0  0  0  0  0  0  0  0  0  0
   43.8530   82.9800   61.5410 C   0  0  0  0  0  0  0  0  0  0  0  0
   42.6040   82.5640   61.8660 N   0  0  0  0  0  0  0  0  0  0  0  0
   44.2190   84.3500   61.4980 N   0  0  0  0  0  0  0  0  0  0  0  0
   43.4210   85.3570   61.8260 N   0  0  0  0  0  0  0  0  0  0  0  0
   44.0590   86.5310   61.6830 C   0  0  0  0  0  0  0  0  0  0  0  0
   45.3070   86.2250   61.2480 C   0  0  0  0  0  0  0  0  0  0  0  0
   45.4130   84.8690   61.1300 C   0  0  0  0  0  0  0  0  0  0  0  0
   40.7810   79.9550   59.6980 C   0  0  0  0  0  0  0  0  0  0  0  0
   39.9640   78.8480   59.1980 C   0  0  0  0  0  0  0  0  0  0  0  0
   39.8710   77.6440   59.8660 C   0  0  0  0  0  0  0  0  0  0  0  0
   39.1060   76.5550   59.4220 C   0  0  0  0  0  0  0  0  0  0  0  0
   38.4110   76.7420   58.2250 C   0  0  0  0  0  0  0  0  0  0  0  0
   38.4590   77.9100   57.5150 C   0  0  0  0  0  0  0  0  0  0  0  0
   37.7230   77.9730   56.3530 C   0  0  0  0  0  0  0  0  0  0  0  0
   37.7620   79.1530   55.6340 C   0  0  0  0  0  0  0  0  0  0  0  0
   38.5190   80.2140   56.0850 C   0  0  0  0  0  0  0  0  0  0  0  0
   39.2270   80.0740   57.2560 C   0  0  0  0  0  0  0  0  0  0  0  0
   39.2300   78.9410   58.0090 C   0  0  0  0  0  0  0  0  0  0  0  0
   39.4575   79.8840   61.2935 H   0  0  0  0  0  0  0  0  0  0  0  0
   40.5106   82.1296   58.8266 H   0  0  0  0  0  0  0  0  0  0  0  0
   39.7584   84.5357   58.6977 H   0  0  0  0  0  0  0  0  0  0  0  0
   38.4541   84.2434   62.7670 H   0  0  0  0  0  0  0  0  0  0  0  0
   41.0609   80.6114   63.0312 H   0  0  0  0  0  0  0  0  0  0  0  0
   41.8366   79.3231   62.0099 H   0  0  0  0  0  0  0  0  0  0  0  0
   44.1716   80.1801   62.2798 H   0  0  0  0  0  0  0  0  0  0  0  0
   43.7578   80.2220   60.5281 H   0  0  0  0  0  0  0  0  0  0  0  0
   41.8195   83.1688   62.1482 H   0  0  0  0  0  0  0  0  0  0  0  0
   43.6527   87.5343   61.8785 H   0  0  0  0  0  0  0  0  0  0  0  0
   46.1034   86.9508   61.0266 H   0  0  0  0  0  0  0  0  0  0  0  0
   46.2987   84.3067   60.7994 H   0  0  0  0  0  0  0  0  0  0  0  0
   40.7530   80.7691   58.9588 H   0  0  0  0  0  0  0  0  0  0  0  0
   41.7972   79.5623   59.8503 H   0  0  0  0  0  0  0  0  0  0  0  0
   40.4319   77.5311   60.8055 H   0  0  0  0  0  0  0  0  0  0  0  0
   39.0565   75.6102   59.9831 H   0  0  0  0  0  0  0  0  0  0  0  0
   37.7989   75.9146   57.8367 H   0  0  0  0  0  0  0  0  0  0  0  0
   37.1257   77.1156   56.0094 H   0  0  0  0  0  0  0  0  0  0  0  0
   37.1881   79.2460   54.7002 H   0  0  0  0  0  0  0  0  0  0  0  0
   38.5559   81.1559   55.5181 H   0  0  0  0  0  0  0  0  0  0  0  0
   39.8260   80.9284   57.6040 H   0  0  0  0  0  0  0  0  0  0  0  0
  1  8  1  0
  2  1  1  0
  2  7  1  0
  3  2  2  0
  4  3  1  0
  4  5  2  0
  5  6  1  0
  6  7  2  0
  9 13  1  0
  9  8  1  0
 10  9  1  0
 11 10  1  0
 11 12  2  0
 12 13  1  0
 14 12  1  0
 14 15  1  0
 16 15  2  0
 17 16  1  0
 18 17  2  0
 18 14  1  0
 19  1  1  0
 20 19  1  0
 20 21  2  0
 22 21  1  0
 23 22  2  0
 24 29  2  0
 24 23  1  0
 25 24  1  0
 26 27  1  0
 26 25  2  0
 27 28  2  0
 28 29  1  0
 29 20  1  0
  1 30  1  1
  3 31  1  0
  4 32  1  0
  6 33  1  0
  8 34  1  0
  8 35  1  0
 10 36  1  0
 10 37  1  0
 13 38  1  0
 16 39  1  0
 17 40  1  0
 18 41  1  0
 19 42  1  0
 19 43  1  0
 21 44  1  0
 22 45  1  0
 23 46  1  0
 25 47  1  0
 26 48  1  0
 27 49  1  0
 28 50  1  0
M  END
>  <Score>  (1) 
-7.27843

$$$$
