
     RDKit          3D

 50 54  0  0  1  0  0  0  0  0999 V2000
   39.4830   83.1060   61.7030 C   0  0  0  0  0  0  0  0  0  0  0  0
   39.4850   83.6070   60.3820 C   0  0  0  0  0  0  0  0  0  0  0  0
   40.2830   82.9800   59.4560 C   0  0  0  0  0  0  0  0  0  0  0  0
   41.0380   81.9050   59.8460 N   0  0  0  0  0  0  0  0  0  0  0  0
   41.0170   81.4460   61.1190 C   0  0  0  0  0  0  0  0  0  0  0  0
   40.2330   82.0600   62.0360 N   0  0  0  0  0  0  0  0  0  0  0  0
   38.6600   83.7570   62.6440 N   0  0  0  0  0  0  0  0  0  0  0  0
   41.8310   80.3140   61.4640 N   0  0  0  0  0  0  0  0  0  0  0  0
   43.2570   80.5770   61.5750 C   0  0  0  0  0  0  0  0  0  0  0  0
   44.0090   79.4220   62.1450 C   0  0  0  0  0  0  0  0  0  0  0  0
   43.4070   78.1390   61.6290 C   0  0  0  0  0  0  0  0  0  0  0  0
   42.0270   78.0830   62.3320 C   0  0  0  0  0  0  0  0  0  0  0  0
   41.1330   79.0360   61.6600 C   0  0  2  0  0  0  0  0  0  0  0  0
   40.6490   78.5000   60.4220 N   0  0  0  0  0  0  0  0  0  0  0  0
   39.8630   77.3900   60.1350 C   0  0  0  0  0  0  0  0  0  0  0  0
   39.7250   76.3290   60.9790 C   0  0  0  0  0  0  0  0  0  0  0  0
   38.9680   75.1960   60.7490 C   0  0  0  0  0  0  0  0  0  0  0  0
   38.2880   75.1530   59.5350 C   0  0  0  0  0  0  0  0  0  0  0  0
   38.3890   76.1860   58.6540 C   0  0  0  0  0  0  0  0  0  0  0  0
   39.1700   77.2860   58.9600 C   0  0  0  0  0  0  0  0  0  0  0  0
   39.2130   78.3190   57.9730 N   0  0  0  0  0  0  0  0  0  0  0  0
   40.0520   79.3760   58.0570 C   0  0  0  0  0  0  0  0  0  0  0  0
   39.8600   80.1850   56.9740 N   0  0  0  0  0  0  0  0  0  0  0  0
   38.9000   79.6280   56.2180 C   0  0  0  0  0  0  0  0  0  0  0  0
   38.2880   79.9860   55.0120 C   0  0  0  0  0  0  0  0  0  0  0  0
   37.3340   79.1720   54.5230 N   0  0  0  0  0  0  0  0  0  0  0  0
   36.9700   78.0420   55.1650 C   0  0  0  0  0  0  0  0  0  0  0  0
   37.5440   77.6590   56.3440 N   0  0  0  0  0  0  0  0  0  0  0  0
   38.5040   78.4660   56.8480 C   0  0  0  0  0  0  0  0  0  0  0  0
   38.8664   84.4728   60.1034 H   0  0  0  0  0  0  0  0  0  0  0  0
   40.3154   83.3360   58.4157 H   0  0  0  0  0  0  0  0  0  0  0  0
   38.0896   84.5653   62.3573 H   0  0  0  0  0  0  0  0  0  0  0  0
   38.6290   83.4245   63.6183 H   0  0  0  0  0  0  0  0  0  0  0  0
   43.6541   80.7963   60.5729 H   0  0  0  0  0  0  0  0  0  0  0  0
   43.3871   81.4297   62.2577 H   0  0  0  0  0  0  0  0  0  0  0  0
   45.0641   79.4827   61.8401 H   0  0  0  0  0  0  0  0  0  0  0  0
   43.9477   79.4451   63.2430 H   0  0  0  0  0  0  0  0  0  0  0  0
   43.2910   78.1702   60.5356 H   0  0  0  0  0  0  0  0  0  0  0  0
   44.0312   77.2573   61.8364 H   0  0  0  0  0  0  0  0  0  0  0  0
   41.6120   77.0669   62.2583 H   0  0  0  0  0  0  0  0  0  0  0  0
   42.1306   78.3429   63.3958 H   0  0  0  0  0  0  0  0  0  0  0  0
   40.2540   79.2161   62.2963 H   0  0  0  0  0  0  0  0  0  0  0  0
   40.9368   79.0366   59.5913 H   0  0  0  0  0  0  0  0  0  0  0  0
   40.2679   76.3792   61.9344 H   0  0  0  0  0  0  0  0  0  0  0  0
   38.9064   74.3773   61.4811 H   0  0  0  0  0  0  0  0  0  0  0  0
   37.6662   74.2803   59.2864 H   0  0  0  0  0  0  0  0  0  0  0  0
   37.8484   76.1459   57.6968 H   0  0  0  0  0  0  0  0  0  0  0  0
   40.7735   79.5554   58.8677 H   0  0  0  0  0  0  0  0  0  0  0  0
   38.5774   80.9042   54.4799 H   0  0  0  0  0  0  0  0  0  0  0  0
   36.1857   77.4089   54.7246 H   0  0  0  0  0  0  0  0  0  0  0  0
  1  6  2  0
  1  7  1  0
  2  1  1  0
  3  4  1  0
  3  2  2  0
  4  5  2  0
  5  8  1  0
  5  6  1  0
  8  9  1  0
  8 13  1  0
  9 10  1  0
 11 10  1  0
 11 12  1  0
 13 12  1  0
 14 13  1  0
 15 14  1  0
 15 16  2  0
 17 16  1  0
 18 17  2  0
 19 20  2  0
 19 18  1  0
 20 15  1  0
 21 22  1  0
 21 20  1  0
 23 22  2  0
 24 29  2  0
 24 23  1  0
 25 24  1  0
 26 25  2  0
 26 27  1  0
 27 28  2  0
 28 29  1  0
 29 21  1  0
  2 30  1  0
  3 31  1  0
  7 32  1  0
  7 33  1  0
  9 34  1  0
  9 35  1  0
 10 36  1  0
 10 37  1  0
 11 38  1  0
 11 39  1  0
 12 40  1  0
 12 41  1  0
 13 42  1  1
 14 43  1  0
 16 44  1  0
 17 45  1  0
 18 46  1  0
 19 47  1  0
 22 48  1  0
 25 49  1  0
 27 50  1  0
M  END
>  <Score>  (1) 
-7.04518

$$$$
