
     RDKit          3D

 58 62  0  0  1  0  0  0  0  0999 V2000
   39.5030   83.4880   60.0940 C   0  0  0  0  0  0  0  0  0  0  0  0
   39.9420   82.1510   60.1160 C   0  0  0  0  0  0  0  0  0  0  0  0
   40.7240   81.7610   61.2120 C   0  0  0  0  0  0  0  0  0  0  0  0
   40.9730   82.7100   62.1440 N   0  0  0  0  0  0  0  0  0  0  0  0
   40.5490   83.9600   62.1090 C   0  0  0  0  0  0  0  0  0  0  0  0
   39.8070   84.3370   61.0600 N   0  0  0  0  0  0  0  0  0  0  0  0
   40.8930   84.8280   63.1910 N   0  0  0  0  0  0  0  0  0  0  0  0
   40.4520   84.4600   64.5080 C   0  0  0  0  0  0  0  0  0  0  0  0
   40.4410   83.2540   64.9190 N   0  0  0  0  0  0  0  0  0  0  0  0
   40.0040   85.5010   65.3990 N   0  0  0  0  0  0  0  0  0  0  0  0
   40.7540   82.4280   64.4270 H   0  0  0  0  0  0  0  0  0  0  0  0
   41.2460   80.4520   61.3610 N   0  0  0  0  0  0  0  0  0  0  0  0
   40.6700   79.3500   62.0970 C   0  0  0  0  0  0  0  0  0  0  0  0
   41.6270   78.2170   61.9020 C   0  0  0  0  0  0  0  0  0  0  0  0
   42.9400   78.9500   61.7690 C   0  0  0  0  0  0  0  0  0  0  0  0
   42.4760   80.0180   60.7740 C   0  0  2  0  0  0  0  0  0  0  0  0
   43.5340   81.0480   60.7090 C   0  0  1  0  0  0  0  0  0  0  0  0
   44.7610   80.5290   61.3780 C   0  0  0  0  0  0  0  0  0  0  0  0
   45.9870   81.1320   60.7720 C   0  0  0  0  0  0  0  0  0  0  0  0
   45.5370   81.5930   59.4260 C   0  0  0  0  0  0  0  0  0  0  0  0
   44.0570   81.3630   59.3420 C   0  0  2  0  0  0  0  0  0  0  0  0
   43.5950   82.8110   59.1390 C   0  0  0  0  0  0  0  0  0  0  0  0
   42.9880   83.0170   57.8940 C   0  0  0  0  0  0  0  0  0  0  0  0
   42.5140   84.2350   57.4500 C   0  0  0  0  0  0  0  0  0  0  0  0
   42.6530   85.3140   58.2980 C   0  0  0  0  0  0  0  0  0  0  0  0
   43.2500   85.1110   59.5210 C   0  0  0  0  0  0  0  0  0  0  0  0
   43.4110   86.1480   60.4380 C   0  0  0  0  0  0  0  0  0  0  0  0
   43.9990   85.9620   61.6940 C   0  0  0  0  0  0  0  0  0  0  0  0
   44.4440   84.7010   62.0530 C   0  0  0  0  0  0  0  0  0  0  0  0
   44.3030   83.6490   61.1750 C   0  0  0  0  0  0  0  0  0  0  0  0
   43.7180   83.9060   59.9600 C   0  0  0  0  0  0  0  0  0  0  0  0
   38.8900   83.8359   59.2495 H   0  0  0  0  0  0  0  0  0  0  0  0
   39.6839   81.4461   59.3119 H   0  0  0  0  0  0  0  0  0  0  0  0
   41.4381   85.6874   63.0322 H   0  0  0  0  0  0  0  0  0  0  0  0
   39.6829   85.2634   66.3484 H   0  0  0  0  0  0  0  0  0  0  0  0
   40.0050   86.4824   65.0862 H   0  0  0  0  0  0  0  0  0  0  0  0
   40.5801   79.6018   63.1640 H   0  0  0  0  0  0  0  0  0  0  0  0
   39.6570   79.1021   61.7473 H   0  0  0  0  0  0  0  0  0  0  0  0
   41.6307   77.5406   62.7694 H   0  0  0  0  0  0  0  0  0  0  0  0
   41.3865   77.5697   61.0457 H   0  0  0  0  0  0  0  0  0  0  0  0
   43.2752   79.3841   62.7225 H   0  0  0  0  0  0  0  0  0  0  0  0
   43.8064   78.3447   61.4642 H   0  0  0  0  0  0  0  0  0  0  0  0
   42.3130   79.7071   59.7315 H   0  0  0  0  0  0  0  0  0  0  0  0
   43.0511   81.9307   61.1536 H   0  0  0  0  0  0  0  0  0  0  0  0
   44.7243   80.7831   62.4476 H   0  0  0  0  0  0  0  0  0  0  0  0
   44.8012   79.4376   61.2467 H   0  0  0  0  0  0  0  0  0  0  0  0
   46.3451   81.9791   61.3756 H   0  0  0  0  0  0  0  0  0  0  0  0
   46.8248   80.4213   60.7171 H   0  0  0  0  0  0  0  0  0  0  0  0
   45.7583   82.6634   59.3023 H   0  0  0  0  0  0  0  0  0  0  0  0
   46.0606   81.0402   58.6321 H   0  0  0  0  0  0  0  0  0  0  0  0
   43.7648   80.5915   58.6144 H   0  0  0  0  0  0  0  0  0  0  0  0
   42.8818   82.1502   57.2251 H   0  0  0  0  0  0  0  0  0  0  0  0
   42.0448   84.3408   56.4607 H   0  0  0  0  0  0  0  0  0  0  0  0
   42.2955   86.3118   58.0039 H   0  0  0  0  0  0  0  0  0  0  0  0
   43.0615   87.1541   60.1631 H   0  0  0  0  0  0  0  0  0  0  0  0
   44.1065   86.8082   62.3885 H   0  0  0  0  0  0  0  0  0  0  0  0
   44.9089   84.5397   63.0368 H   0  0  0  0  0  0  0  0  0  0  0  0
   44.6472   82.6380   61.4383 H   0  0  0  0  0  0  0  0  0  0  0  0
  1  2  2  0
  1  6  1  0
  2  3  1  0
  3 12  1  0
  3  4  2  0
  5  4  1  0
  5  7  1  0
  6  5  2  0
  7  8  1  0
  8  9  2  0
  8 10  1  0
 11  9  1  0
 12 13  1  0
 14 13  1  0
 15 14  1  0
 16 12  1  0
 16 15  1  0
 17 16  1  0
 17 18  1  0
 19 18  1  0
 20 19  1  0
 21 20  1  0
 21 17  1  0
 22 21  1  0
 22 31  1  0
 23 22  2  0
 24 23  1  0
 24 25  2  0
 25 26  1  0
 26 31  2  0
 26 27  1  0
 27 28  2  0
 28 29  1  0
 30 29  2  0
 31 30  1  0
  1 32  1  0
  2 33  1  0
  7 34  1  0
 10 35  1  0
 10 36  1  0
 13 37  1  0
 13 38  1  0
 14 39  1  0
 14 40  1  0
 15 41  1  0
 15 42  1  0
 16 43  1  6
 17 44  1  1
 18 45  1  0
 18 46  1  0
 19 47  1  0
 19 48  1  0
 20 49  1  0
 20 50  1  0
 21 51  1  6
 23 52  1  0
 24 53  1  0
 25 54  1  0
 27 55  1  0
 28 56  1  0
 29 57  1  0
 30 58  1  0
M  END
>  <Score>  (1) 
-7.09185

$$$$
