
     RDKit          3D

 42 46  0  0  1  0  0  0  0  0999 V2000
   40.0940   83.7640   60.1550 C   0  0  0  0  0  0  0  0  0  0  0  0
   39.2330   84.2050   61.1740 C   0  0  0  0  0  0  0  0  0  0  0  0
   39.0520   83.2720   62.1930 C   0  0  0  0  0  0  0  0  0  0  0  0
   39.6850   82.0980   62.1120 N   0  0  0  0  0  0  0  0  0  0  0  0
   40.4910   81.6960   61.1470 C   0  0  0  0  0  0  0  0  0  0  0  0
   40.6680   82.5740   60.1780 N   0  0  0  0  0  0  0  0  0  0  0  0
   41.0580   80.3950   61.2670 N   0  0  0  0  0  0  0  0  0  0  0  0
   40.3880   79.2570   60.9600 C   0  0  0  0  0  0  0  0  0  0  0  0
   41.2340   78.2250   61.1940 N   0  0  0  0  0  0  0  0  0  0  0  0
   42.4130   78.7470   61.6410 C   0  0  0  0  0  0  0  0  0  0  0  0
   43.5610   78.0650   62.0030 C   0  0  0  0  0  0  0  0  0  0  0  0
   43.6300   76.8100   61.9490 O   0  0  0  0  0  0  0  0  0  0  0  0
   44.5800   78.8560   62.4100 N   0  0  0  0  0  0  0  0  0  0  0  0
   44.4850   80.1980   62.4600 C   0  0  0  0  0  0  0  0  0  0  0  0
   45.6130   80.9770   62.9050 N   0  0  0  0  0  0  0  0  0  0  0  0
   43.3450   80.8570   62.0990 N   0  0  0  0  0  0  0  0  0  0  0  0
   42.2960   80.1230   61.6850 C   0  0  0  0  0  0  0  0  0  0  0  0
   40.5350   84.5770   59.0300 C   0  0  2  0  0  0  0  0  0  0  0  0
   41.1950   84.8480   57.9960 N   0  0  0  0  0  0  0  0  0  0  0  0
   41.2000   85.7360   57.1040 C   0  0  0  0  0  0  0  0  0  0  0  0
   42.3800   86.1210   57.5800 N   0  0  0  0  0  0  0  0  0  0  0  0
   42.7050   85.8650   58.8820 C   0  0  0  0  0  0  0  0  0  0  0  0
   43.9280   86.4120   59.3560 C   0  0  0  0  0  0  0  0  0  0  0  0
   44.2380   86.1460   60.6470 C   0  0  0  0  0  0  0  0  0  0  0  0
   43.5000   85.4150   61.5320 C   0  0  0  0  0  0  0  0  0  0  0  0
   42.3330   84.9380   60.9500 C   0  0  0  0  0  0  0  0  0  0  0  0
   41.7900   85.0780   59.6300 C   0  0  0  0  0  0  0  0  0  0  0  0
   38.7482   85.1924   61.1679 H   0  0  0  0  0  0  0  0  0  0  0  0
   38.3994   83.4980   63.0492 H   0  0  0  0  0  0  0  0  0  0  0  0
   39.3542   79.1853   60.5911 H   0  0  0  0  0  0  0  0  0  0  0  0
   45.4656   78.4131   62.6935 H   0  0  0  0  0  0  0  0  0  0  0  0
   45.5459   82.0040   62.9452 H   0  0  0  0  0  0  0  0  0  0  0  0
   46.4862   80.5067   63.1828 H   0  0  0  0  0  0  0  0  0  0  0  0
   39.4909   84.5806   58.6839 H   0  0  0  0  0  0  0  0  0  0  0  0
   42.1558   84.9056   58.3627 H   0  0  0  0  0  0  0  0  0  0  0  0
   40.4003   86.4855   57.1976 H   0  0  0  0  0  0  0  0  0  0  0  0
   41.0555   85.4911   56.0414 H   0  0  0  0  0  0  0  0  0  0  0  0
   43.0480   86.6114   56.9683 H   0  0  0  0  0  0  0  0  0  0  0  0
   44.5842   87.0159   58.7120 H   0  0  0  0  0  0  0  0  0  0  0  0
   45.1843   86.5631   61.0218 H   0  0  0  0  0  0  0  0  0  0  0  0
   43.7929   85.2272   62.5755 H   0  0  0  0  0  0  0  0  0  0  0  0
   41.7073   84.3403   61.6292 H   0  0  0  0  0  0  0  0  0  0  0  0
  1  6  1  0
  1  2  2  0
  2  3  1  0
  4  3  2  0
  5  7  1  0
  5  4  1  0
  6  5  2  0
  7 17  1  0
  8  9  2  0
  8  7  1  0
  9 10  1  0
 10 17  2  0
 10 11  1  0
 11 13  1  0
 12 11  2  0
 13 14  1  0
 14 15  1  0
 16 14  2  0
 17 16  1  0
 18 27  1  0
 18  1  1  0
 19 18  1  0
 20 21  1  0
 20 19  1  0
 21 22  1  0
 22 23  2  0
 22 27  1  0
 23 24  1  0
 24 25  2  0
 26 25  1  0
 27 26  2  0
  2 28  1  0
  3 29  1  0
  8 30  1  0
 13 31  1  0
 15 32  1  0
 15 33  1  0
 18 34  1  1
 19 35  1  0
 20 36  1  0
 20 37  1  0
 21 38  1  0
 23 39  1  0
 24 40  1  0
 25 41  1  0
 26 42  1  0
M  END
>  <Score>  (1) 
-7.139

$$$$
