
     RDKit          3D

 38 42  0  0  0  0  0  0  0  0999 V2000
   40.8410   81.9770   61.1510 C   0  0  0  0  0  0  0  0  0  0  0  0
   40.6650   82.6610   59.9660 C   0  0  0  0  0  0  0  0  0  0  0  0
   40.3480   82.0550   58.7720 C   0  0  0  0  0  0  0  0  0  0  0  0
   40.1930   80.6830   58.7420 C   0  0  0  0  0  0  0  0  0  0  0  0
   40.3530   79.9390   59.8790 C   0  0  0  0  0  0  0  0  0  0  0  0
   40.2040   78.5840   59.8610 C   0  0  0  0  0  0  0  0  0  0  0  0
   40.3610   77.7940   61.0030 C   0  0  0  0  0  0  0  0  0  0  0  0
   40.6790   78.4790   62.1630 C   0  0  0  0  0  0  0  0  0  0  0  0
   40.8220   79.8490   62.1400 C   0  0  0  0  0  0  0  0  0  0  0  0
   40.6700   80.6150   61.0320 C   0  0  0  0  0  0  0  0  0  0  0  0
   42.5230   83.9160   63.9740 C   0  0  0  0  0  0  0  0  0  0  0  0
   42.4010   83.1820   62.8010 C   0  0  0  0  0  0  0  0  0  0  0  0
   41.1670   82.7330   62.3210 C   0  0  0  0  0  0  0  0  0  0  0  0
   40.1150   83.0950   63.1250 N   0  0  0  0  0  0  0  0  0  0  0  0
   40.2310   83.8020   64.2510 C   0  0  0  0  0  0  0  0  0  0  0  0
   41.4340   84.2060   64.6650 N   0  0  0  0  0  0  0  0  0  0  0  0
   39.8590   77.8480   58.6170 C   0  0  0  0  0  0  0  0  0  0  0  0
   40.2030   76.7170   58.0270 N   0  0  0  0  0  0  0  0  0  0  0  0
   39.6080   76.5000   56.9140 O   0  0  0  0  0  0  0  0  0  0  0  0
   38.8160   77.4860   56.6860 C   0  0  0  0  0  0  0  0  0  0  0  0
   38.9600   78.3070   57.7100 N   0  0  0  0  0  0  0  0  0  0  0  0
   37.9300   77.6710   55.5290 C   0  0  0  0  0  0  0  0  0  0  0  0
   37.8310   78.8560   54.7960 C   0  0  0  0  0  0  0  0  0  0  0  0
   36.8780   78.5080   53.8360 C   0  0  0  0  0  0  0  0  0  0  0  0
   36.4580   77.2060   54.0110 C   0  0  0  0  0  0  0  0  0  0  0  0
   37.1170   76.7480   55.0350 O   0  0  0  0  0  0  0  0  0  0  0  0
   40.7851   83.7544   59.9762 H   0  0  0  0  0  0  0  0  0  0  0  0
   40.2203   82.6528   57.8575 H   0  0  0  0  0  0  0  0  0  0  0  0
   39.9386   80.1838   57.7954 H   0  0  0  0  0  0  0  0  0  0  0  0
   40.2400   76.7009   60.9815 H   0  0  0  0  0  0  0  0  0  0  0  0
   40.8178   77.9284   63.1051 H   0  0  0  0  0  0  0  0  0  0  0  0
   41.0763   80.3548   63.0831 H   0  0  0  0  0  0  0  0  0  0  0  0
   43.5110   84.2509   64.3227 H   0  0  0  0  0  0  0  0  0  0  0  0
   43.3096   82.9450   62.2281 H   0  0  0  0  0  0  0  0  0  0  0  0
   39.3350   84.0519   64.8381 H   0  0  0  0  0  0  0  0  0  0  0  0
   38.3619   79.8090   54.9372 H   0  0  0  0  0  0  0  0  0  0  0  0
   36.5119   79.1814   53.0470 H   0  0  0  0  0  0  0  0  0  0  0  0
   35.7156   76.6641   53.4067 H   0  0  0  0  0  0  0  0  0  0  0  0
  1 13  1  0
  2  1  2  0
  3  2  1  0
  4  3  2  0
  4  5  1  0
  5 10  2  0
  6  5  1  0
  6  7  2  0
  7  8  1  0
  9  8  2  0
 10  1  1  0
 10  9  1  0
 11 16  2  0
 12 11  1  0
 13 12  2  0
 13 14  1  0
 14 15  2  0
 15 16  1  0
 17  6  1  0
 18 17  2  0
 19 18  1  0
 20 19  1  0
 20 21  2  0
 21 17  1  0
 22 20  1  0
 23 22  2  0
 24 25  2  0
 24 23  1  0
 25 26  1  0
 26 22  1  0
  2 27  1  0
  3 28  1  0
  4 29  1  0
  7 30  1  0
  8 31  1  0
  9 32  1  0
 11 33  1  0
 12 34  1  0
 15 35  1  0
 23 36  1  0
 24 37  1  0
 25 38  1  0
M  END
>  <Score>  (1) 
-7.07227

$$$$
