
     RDKit          3D

 42 46  0  0  0  0  0  0  0  0999 V2000
   41.6290   83.5410   61.6880 C   0  0  0  0  0  0  0  0  0  0  0  0
   40.5760   84.1890   62.2940 C   0  0  0  0  0  0  0  0  0  0  0  0
   39.3510   83.5720   62.4090 C   0  0  0  0  0  0  0  0  0  0  0  0
   39.1850   82.3270   61.9240 N   0  0  0  0  0  0  0  0  0  0  0  0
   40.1940   81.6790   61.3310 C   0  0  0  0  0  0  0  0  0  0  0  0
   41.3390   82.3210   61.2530 N   0  0  0  0  0  0  0  0  0  0  0  0
   45.5370   87.2540   57.4170 C   0  0  0  0  0  0  0  0  0  0  0  0
   45.2160   88.6020   57.6690 C   0  0  0  0  0  0  0  0  0  0  0  0
   44.6120   88.9080   58.8860 C   0  0  0  0  0  0  0  0  0  0  0  0
   44.3590   87.9060   59.7750 N   0  0  0  0  0  0  0  0  0  0  0  0
   44.6910   86.5980   59.4880 C   0  0  0  0  0  0  0  0  0  0  0  0
   45.2660   86.2970   58.3290 N   0  0  0  0  0  0  0  0  0  0  0  0
   44.4170   85.5880   60.4270 N   0  0  0  0  0  0  0  0  0  0  0  0
   45.4100   85.1000   61.2080 C   0  0  0  0  0  0  0  0  0  0  0  0
   45.2660   84.1230   62.1530 C   0  0  0  0  0  0  0  0  0  0  0  0
   43.9770   83.6380   62.2720 C   0  0  0  0  0  0  0  0  0  0  0  0
   43.7420   82.7360   63.1150 O   0  0  0  0  0  0  0  0  0  0  0  0
   42.9400   84.0870   61.5190 N   0  0  0  0  0  0  0  0  0  0  0  0
   43.1800   85.0370   60.6270 C   0  0  0  0  0  0  0  0  0  0  0  0
   42.2190   85.4790   59.9020 O   0  0  0  0  0  0  0  0  0  0  0  0
   40.2860   80.3300   60.7220 C   0  0  0  0  0  0  0  0  0  0  0  0
   40.4530   79.1990   61.4180 N   0  0  0  0  0  0  0  0  0  0  0  0
   40.5320   78.0000   60.8440 C   0  0  0  0  0  0  0  0  0  0  0  0
   40.4520   77.8090   59.5180 N   0  0  0  0  0  0  0  0  0  0  0  0
   40.2810   78.9060   58.7350 C   0  0  0  0  0  0  0  0  0  0  0  0
   40.1970   78.7170   57.3740 C   0  0  0  0  0  0  0  0  0  0  0  0
   40.0240   79.8040   56.5440 C   0  0  0  0  0  0  0  0  0  0  0  0
   39.9410   81.0500   57.1310 C   0  0  0  0  0  0  0  0  0  0  0  0
   40.0320   81.1750   58.4990 C   0  0  0  0  0  0  0  0  0  0  0  0
   40.2050   80.1240   59.3660 C   0  0  0  0  0  0  0  0  0  0  0  0
   40.7147   85.2063   62.6888 H   0  0  0  0  0  0  0  0  0  0  0  0
   38.5125   84.0930   62.8943 H   0  0  0  0  0  0  0  0  0  0  0  0
   46.0144   86.9779   56.4652 H   0  0  0  0  0  0  0  0  0  0  0  0
   45.4349   89.3865   56.9297 H   0  0  0  0  0  0  0  0  0  0  0  0
   44.3421   89.9467   59.1272 H   0  0  0  0  0  0  0  0  0  0  0  0
   46.4153   85.5249   61.0705 H   0  0  0  0  0  0  0  0  0  0  0  0
   46.1025   83.7549   62.7652 H   0  0  0  0  0  0  0  0  0  0  0  0
   40.6700   77.1206   61.4902 H   0  0  0  0  0  0  0  0  0  0  0  0
   40.2675   77.7040   56.9510 H   0  0  0  0  0  0  0  0  0  0  0  0
   39.9546   79.6824   55.4529 H   0  0  0  0  0  0  0  0  0  0  0  0
   39.8020   81.9441   56.5055 H   0  0  0  0  0  0  0  0  0  0  0  0
   39.9613   82.1859   58.9269 H   0  0  0  0  0  0  0  0  0  0  0  0
  1  2  2  0
  2  3  1  0
  4  3  2  0
  5  4  1  0
  6  5  2  0
  6  1  1  0
  7  8  2  0
  7 12  1  0
  8  9  1  0
  9 10  2  0
 11 10  1  0
 11 13  1  0
 12 11  2  0
 13 19  1  0
 13 14  1  0
 14 15  2  0
 15 16  1  0
 16 17  2  0
 18  1  1  0
 18 16  1  0
 19 18  1  0
 20 19  2  0
 21  5  1  0
 21 22  2  0
 23 22  1  0
 24 23  2  0
 25 30  2  0
 25 24  1  0
 26 25  1  0
 27 28  1  0
 27 26  2  0
 28 29  2  0
 29 30  1  0
 30 21  1  0
  2 31  1  0
  3 32  1  0
  7 33  1  0
  8 34  1  0
  9 35  1  0
 14 36  1  0
 15 37  1  0
 23 38  1  0
 26 39  1  0
 27 40  1  0
 28 41  1  0
 29 42  1  0
M  END
>  <Score>  (1) 
-7.12539

$$$$
