
     RDKit          3D

 54 58  0  0  0  0  0  0  0  0999 V2000
   40.9630   80.5450   61.6720 N   0  0  0  0  0  0  0  0  0  0  0  0
   40.8720   79.4240   62.4330 C   0  0  0  0  0  0  0  0  0  0  0  0
   40.5520   78.2290   61.8270 C   0  0  0  0  0  0  0  0  0  0  0  0
   40.3240   78.1600   60.4660 C   0  0  0  0  0  0  0  0  0  0  0  0
   40.0420   77.0480   59.9750 O   0  0  0  0  0  0  0  0  0  0  0  0
   40.4200   79.2700   59.7650 N   0  0  0  0  0  0  0  0  0  0  0  0
   40.7360   80.4680   60.3360 C   0  0  0  0  0  0  0  0  0  0  0  0
   40.7900   81.4290   59.5300 O   0  0  0  0  0  0  0  0  0  0  0  0
   41.2840   81.8500   62.1330 C   0  0  0  0  0  0  0  0  0  0  0  0
   42.3710   82.5290   61.5720 C   0  0  0  0  0  0  0  0  0  0  0  0
   42.6740   83.8360   62.0420 C   0  0  0  0  0  0  0  0  0  0  0  0
   41.8660   84.3470   63.0290 N   0  0  0  0  0  0  0  0  0  0  0  0
   40.8420   83.6340   63.5170 C   0  0  0  0  0  0  0  0  0  0  0  0
   40.5490   82.4110   63.0850 N   0  0  0  0  0  0  0  0  0  0  0  0
   40.0740   84.2590   64.5410 N   0  0  0  0  0  0  0  0  0  0  0  0
   43.7380   84.5920   61.5470 N   0  0  0  0  0  0  0  0  0  0  0  0
   43.7350   85.8660   61.9370 N   0  0  0  0  0  0  0  0  0  0  0  0
   44.7820   86.5150   61.4310 C   0  0  0  0  0  0  0  0  0  0  0  0
   45.4840   85.6050   60.6800 C   0  0  0  0  0  0  0  0  0  0  0  0
   44.8240   84.4090   60.7600 C   0  0  0  0  0  0  0  0  0  0  0  0
   40.1120   79.1300   58.3490 C   0  0  0  0  0  0  0  0  0  0  0  0
   40.1540   80.3370   57.5110 C   0  0  0  0  0  0  0  0  0  0  0  0
   41.2030   78.2140   57.7130 C   0  0  0  0  0  0  0  0  0  0  0  0
   38.8170   78.3950   58.0920 C   0  0  0  0  0  0  0  0  0  0  0  0
   38.2210   78.7580   56.7730 N   0  0  0  0  0  0  0  0  0  0  0  0
   37.7050   79.9860   56.4570 C   0  0  0  0  0  0  0  0  0  0  0  0
   37.2210   80.0250   55.2270 N   0  0  0  0  0  0  0  0  0  0  0  0
   37.4060   78.8220   54.6980 C   0  0  0  0  0  0  0  0  0  0  0  0
   37.1050   78.2790   53.4700 C   0  0  0  0  0  0  0  0  0  0  0  0
   37.4160   76.9970   53.2170 N   0  0  0  0  0  0  0  0  0  0  0  0
   38.0250   76.2460   54.1790 C   0  0  0  0  0  0  0  0  0  0  0  0
   38.3240   76.7640   55.3810 N   0  0  0  0  0  0  0  0  0  0  0  0
   38.0220   78.0430   55.6520 C   0  0  0  0  0  0  0  0  0  0  0  0
   36.4720   79.0600   52.4690 N   0  0  0  0  0  0  0  0  0  0  0  0
   41.0512   79.4695   63.5174 H   0  0  0  0  0  0  0  0  0  0  0  0
   40.4769   77.3159   62.4358 H   0  0  0  0  0  0  0  0  0  0  0  0
   42.9787   82.0612   60.7834 H   0  0  0  0  0  0  0  0  0  0  0  0
   39.2729   83.7642   64.9585 H   0  0  0  0  0  0  0  0  0  0  0  0
   40.3198   85.2057   64.8639 H   0  0  0  0  0  0  0  0  0  0  0  0
   45.0352   87.5744   61.5849 H   0  0  0  0  0  0  0  0  0  0  0  0
   46.4082   85.8015   60.1168 H   0  0  0  0  0  0  0  0  0  0  0  0
   45.1221   83.4689   60.2729 H   0  0  0  0  0  0  0  0  0  0  0  0
   40.1850   81.2289   58.1540 H   0  0  0  0  0  0  0  0  0  0  0  0
   41.0518   80.3114   56.8759 H   0  0  0  0  0  0  0  0  0  0  0  0
   39.2566   80.3739   56.8759 H   0  0  0  0  0  0  0  0  0  0  0  0
   41.7832   77.7269   58.5105 H   0  0  0  0  0  0  0  0  0  0  0  0
   40.7200   77.4468   57.0900 H   0  0  0  0  0  0  0  0  0  0  0  0
   41.8750   78.8225   57.0900 H   0  0  0  0  0  0  0  0  0  0  0  0
   39.0137   77.3128   58.1072 H   0  0  0  0  0  0  0  0  0  0  0  0
   38.1024   78.6803   58.8781 H   0  0  0  0  0  0  0  0  0  0  0  0
   37.6942   80.8424   57.1473 H   0  0  0  0  0  0  0  0  0  0  0  0
   38.2758   75.1964   53.9661 H   0  0  0  0  0  0  0  0  0  0  0  0
   36.2514   78.6431   51.5534 H   0  0  0  0  0  0  0  0  0  0  0  0
   36.2331   80.0439   52.6579 H   0  0  0  0  0  0  0  0  0  0  0  0
  1  9  1  0
  1  2  1  0
  3  2  2  0
  4  3  1  0
  5  4  2  0
  6  7  1  0
  6  4  1  0
  7  1  1  0
  8  7  2  0
  9 14  2  0
 10 11  2  0
 10  9  1  0
 11 12  1  0
 12 13  2  0
 13 15  1  0
 14 13  1  0
 16 17  1  0
 16 11  1  0
 18 17  2  0
 19 20  2  0
 19 18  1  0
 20 16  1  0
 21  6  1  0
 22 21  1  0
 23 21  1  0
 24 21  1  0
 25 24  1  0
 26 25  1  0
 27 26  2  0
 28 27  1  0
 28 33  2  0
 29 28  1  0
 30 29  2  0
 30 31  1  0
 31 32  2  0
 32 33  1  0
 33 25  1  0
 34 29  1  0
  2 35  1  0
  3 36  1  0
 10 37  1  0
 15 38  1  0
 15 39  1  0
 18 40  1  0
 19 41  1  0
 20 42  1  0
 22 43  1  0
 22 44  1  0
 22 45  1  0
 23 46  1  0
 23 47  1  0
 23 48  1  0
 24 49  1  0
 24 50  1  0
 26 51  1  0
 31 52  1  0
 34 53  1  0
 34 54  1  0
M  END
>  <Score>  (1) 
-7.83434

$$$$
