
     RDKit          3D

 55 60  0  0  1  0  0  0  0  0999 V2000
   44.3120   82.3080   62.2190 C   0  0  2  0  0  0  0  0  0  0  0  0
   42.9820   84.0190   60.8440 N   0  0  0  0  0  0  0  0  0  0  0  0
   44.1370   83.4250   61.2580 C   0  0  0  0  0  0  0  0  0  0  0  0
   45.1940   84.0300   60.6420 N   0  0  0  0  0  0  0  0  0  0  0  0
   44.7200   84.9760   59.8620 C   0  0  0  0  0  0  0  0  0  0  0  0
   45.2320   85.9250   58.9900 C   0  0  0  0  0  0  0  0  0  0  0  0
   44.4190   86.7980   58.3490 N   0  0  0  0  0  0  0  0  0  0  0  0
   43.0930   86.7450   58.5140 C   0  0  0  0  0  0  0  0  0  0  0  0
   42.5590   85.8200   59.3390 N   0  0  0  0  0  0  0  0  0  0  0  0
   43.3630   84.9730   59.9840 C   0  0  0  0  0  0  0  0  0  0  0  0
   41.7420   83.5650   61.3450 C   0  0  0  0  0  0  0  0  0  0  0  0
   41.1050   82.5530   60.5570 C   0  0  0  0  0  0  0  0  0  0  0  0
   39.8590   82.0750   61.0300 C   0  0  0  0  0  0  0  0  0  0  0  0
   39.3430   82.5910   62.1860 N   0  0  0  0  0  0  0  0  0  0  0  0
   39.9880   83.5480   62.8950 C   0  0  0  0  0  0  0  0  0  0  0  0
   41.1780   84.0160   62.4580 N   0  0  0  0  0  0  0  0  0  0  0  0
   45.1030   82.6860   63.4230 C   0  0  0  0  0  0  0  0  0  0  0  0
   44.9870   81.1310   61.5730 C   0  0  0  0  0  0  0  0  0  0  0  0
   44.1380   79.9310   61.5090 C   0  0  0  0  0  0  0  0  0  0  0  0
   44.5020   78.9500   62.4350 C   0  0  0  0  0  0  0  0  0  0  0  0
   43.8140   77.7500   62.4990 C   0  0  0  0  0  0  0  0  0  0  0  0
   42.7620   77.5270   61.6410 C   0  0  0  0  0  0  0  0  0  0  0  0
   42.4670   78.5380   60.7630 C   0  0  0  0  0  0  0  0  0  0  0  0
   43.1370   79.7150   60.6950 N   0  0  0  0  0  0  0  0  0  0  0  0
   41.2870   78.3280   59.9290 C   0  0  0  0  0  0  0  0  0  0  0  0
   40.9470   79.1320   58.8320 C   0  0  0  0  0  0  0  0  0  0  0  0
   39.8430   78.7060   58.1930 N   0  0  0  0  0  0  0  0  0  0  0  0
   39.4290   77.6140   58.8530 C   0  0  0  0  0  0  0  0  0  0  0  0
   38.3560   76.7810   58.6150 C   0  0  0  0  0  0  0  0  0  0  0  0
   38.1510   75.6810   59.4540 C   0  0  0  0  0  0  0  0  0  0  0  0
   39.0330   75.4460   60.5140 C   0  0  0  0  0  0  0  0  0  0  0  0
   40.0880   76.3020   60.7140 C   0  0  0  0  0  0  0  0  0  0  0  0
   40.2860   77.3810   59.8900 C   0  0  0  0  0  0  0  0  0  0  0  0
   43.2926   82.0440   62.5371 H   0  0  0  0  0  0  0  0  0  0  0  0
   45.9440   86.5301   59.5704 H   0  0  0  0  0  0  0  0  0  0  0  0
   45.6208   85.3091   58.1657 H   0  0  0  0  0  0  0  0  0  0  0  0
   42.4408   87.4518   57.9800 H   0  0  0  0  0  0  0  0  0  0  0  0
   41.5386   85.7684   59.4696 H   0  0  0  0  0  0  0  0  0  0  0  0
   41.5599   82.1673   59.6327 H   0  0  0  0  0  0  0  0  0  0  0  0
   39.3131   81.2983   60.4744 H   0  0  0  0  0  0  0  0  0  0  0  0
   39.5455   83.9422   63.8217 H   0  0  0  0  0  0  0  0  0  0  0  0
   44.5413   82.4176   64.3299 H   0  0  0  0  0  0  0  0  0  0  0  0
   46.0632   82.1494   63.4142 H   0  0  0  0  0  0  0  0  0  0  0  0
   45.2887   83.7702   63.4142 H   0  0  0  0  0  0  0  0  0  0  0  0
   45.2712   81.4117   60.5481 H   0  0  0  0  0  0  0  0  0  0  0  0
   45.8597   80.8777   62.1928 H   0  0  0  0  0  0  0  0  0  0  0  0
   45.3432   79.1327   63.1198 H   0  0  0  0  0  0  0  0  0  0  0  0
   44.1062   76.9815   63.2298 H   0  0  0  0  0  0  0  0  0  0  0  0
   42.1886   76.5885   61.6584 H   0  0  0  0  0  0  0  0  0  0  0  0
   41.5226   80.0180   58.5261 H   0  0  0  0  0  0  0  0  0  0  0  0
   39.4041   79.1321   57.3643 H   0  0  0  0  0  0  0  0  0  0  0  0
   37.6712   76.9789   57.7772 H   0  0  0  0  0  0  0  0  0  0  0  0
   37.3010   75.0045   59.2813 H   0  0  0  0  0  0  0  0  0  0  0  0
   38.8830   74.5841   61.1807 H   0  0  0  0  0  0  0  0  0  0  0  0
   40.7839   76.1201   61.5463 H   0  0  0  0  0  0  0  0  0  0  0  0
  1 17  1  0
  2  3  1  0
  2 11  1  0
  3  1  1  0
  4  3  2  0
  5 10  2  0
  5  4  1  0
  6  5  1  0
  7  8  2  0
  7  6  1  0
  8  9  1  0
  9 10  1  0
 10  2  1  0
 11 16  2  0
 12 13  2  0
 12 11  1  0
 13 14  1  0
 14 15  2  0
 16 15  1  0
 18  1  1  0
 19 18  1  0
 19 20  2  0
 20 21  1  0
 22 21  2  0
 23 22  1  0
 24 23  2  0
 24 19  1  0
 25 23  1  0
 26 25  2  0
 27 26  1  0
 27 28  1  0
 28 33  2  0
 29 28  1  0
 29 30  2  0
 30 31  1  0
 31 32  2  0
 33 25  1  0
 33 32  1  0
  1 34  1  1
  6 35  1  0
  6 36  1  0
  8 37  1  0
  9 38  1  0
 12 39  1  0
 13 40  1  0
 15 41  1  0
 17 42  1  0
 17 43  1  0
 17 44  1  0
 18 45  1  0
 18 46  1  0
 20 47  1  0
 21 48  1  0
 22 49  1  0
 26 50  1  0
 27 51  1  0
 29 52  1  0
 30 53  1  0
 31 54  1  0
 32 55  1  0
M  END
>  <Score>  (1) 
-7.17574

$$$$
