
     RDKit          3D

 48 53  0  0  1  0  0  0  0  0999 V2000
   42.7980   86.6690   58.3830 C   0  0  0  0  0  0  0  0  0  0  0  0
   43.1090   86.1900   59.6810 C   0  0  0  0  0  0  0  0  0  0  0  0
   44.0860   86.8220   60.3980 C   0  0  0  0  0  0  0  0  0  0  0  0
   44.7180   87.8970   59.8220 N   0  0  0  0  0  0  0  0  0  0  0  0
   44.4080   88.3380   58.5920 C   0  0  0  0  0  0  0  0  0  0  0  0
   43.4300   87.7160   57.8510 N   0  0  0  0  0  0  0  0  0  0  0  0
   45.0650   89.4700   58.0400 N   0  0  0  0  0  0  0  0  0  0  0  0
   46.1600   89.2870   57.2700 C   0  0  0  0  0  0  0  0  0  0  0  0
   46.5970   90.5220   56.8540 C   0  0  0  0  0  0  0  0  0  0  0  0
   45.7600   91.4120   57.3820 N   0  0  0  0  0  0  0  0  0  0  0  0
   44.7980   90.7760   58.1260 C   0  0  0  0  0  0  0  0  0  0  0  0
   42.3290   85.0560   60.1370 N   0  0  0  0  0  0  0  0  0  0  0  0
   41.5700   84.2540   59.3690 C   0  0  0  0  0  0  0  0  0  0  0  0
   40.9610   83.3350   60.1580 N   0  0  0  0  0  0  0  0  0  0  0  0
   41.3200   83.5400   61.4180 C   0  0  0  0  0  0  0  0  0  0  0  0
   41.0150   83.0090   62.6400 C   0  0  2  0  0  0  0  0  0  0  0  0
   41.6860   83.3650   63.7510 N   0  0  0  0  0  0  0  0  0  0  0  0
   42.5450   84.4190   63.7450 C   0  0  0  0  0  0  0  0  0  0  0  0
   42.7820   85.0390   62.5770 N   0  0  0  0  0  0  0  0  0  0  0  0
   42.1850   84.6190   61.4190 C   0  0  0  0  0  0  0  0  0  0  0  0
   40.5980   81.6230   62.6670 N   0  0  0  0  0  0  0  0  0  0  0  0
   43.7230   91.3910   58.8590 C   0  0  0  0  0  0  0  0  0  0  0  0
   43.4810   91.2270   60.2020 C   0  0  0  0  0  0  0  0  0  0  0  0
   42.4730   91.8000   60.9370 C   0  0  0  0  0  0  0  0  0  0  0  0
   41.5750   92.6440   60.3170 C   0  0  0  0  0  0  0  0  0  0  0  0
   41.7440   92.8660   58.9680 C   0  0  0  0  0  0  0  0  0  0  0  0
   40.8430   93.7050   58.3790 C   0  0  0  0  0  0  0  0  0  0  0  0
   40.9430   93.9810   57.0340 C   0  0  0  0  0  0  0  0  0  0  0  0
   41.9590   93.4000   56.3060 C   0  0  0  0  0  0  0  0  0  0  0  0
   42.8240   92.5660   56.9760 C   0  0  0  0  0  0  0  0  0  0  0  0
   42.7860   92.2430   58.3120 C   0  0  0  0  0  0  0  0  0  0  0  0
   42.0145   86.1635   57.7993 H   0  0  0  0  0  0  0  0  0  0  0  0
   44.3584   86.4796   61.4073 H   0  0  0  0  0  0  0  0  0  0  0  0
   46.6207   88.3199   57.0200 H   0  0  0  0  0  0  0  0  0  0  0  0
   47.4654   90.7328   56.2126 H   0  0  0  0  0  0  0  0  0  0  0  0
   41.4610   84.3313   58.2771 H   0  0  0  0  0  0  0  0  0  0  0  0
   40.1187   83.6382   62.7431 H   0  0  0  0  0  0  0  0  0  0  0  0
   43.0329   84.7551   64.6718 H   0  0  0  0  0  0  0  0  0  0  0  0
   43.4239   85.8441   62.5524 H   0  0  0  0  0  0  0  0  0  0  0  0
   40.5043   81.3116   63.6443 H   0  0  0  0  0  0  0  0  0  0  0  0
   39.6912   81.5279   62.1879 H   0  0  0  0  0  0  0  0  0  0  0  0
   44.1697   90.5648   60.7470 H   0  0  0  0  0  0  0  0  0  0  0  0
   42.3820   91.5877   62.0125 H   0  0  0  0  0  0  0  0  0  0  0  0
   40.7570   93.1205   60.8772 H   0  0  0  0  0  0  0  0  0  0  0  0
   40.0394   94.1593   58.9771 H   0  0  0  0  0  0  0  0  0  0  0  0
   40.2227   94.6552   56.5475 H   0  0  0  0  0  0  0  0  0  0  0  0
   42.0739   93.5958   55.2297 H   0  0  0  0  0  0  0  0  0  0  0  0
   43.6295   92.1104   56.3813 H   0  0  0  0  0  0  0  0  0  0  0  0
  1  2  2  0
  2 12  1  0
  2  3  1  0
  4  3  2  0
  5  4  1  0
  6  1  1  0
  6  5  2  0
  7 11  1  0
  7  5  1  0
  8  7  1  0
  9  8  2  0
  9 10  1  0
 10 11  2  0
 11 22  1  0
 12 20  1  0
 13 12  1  0
 13 14  2  0
 14 15  1  0
 15 20  2  0
 15 16  1  0
 16 21  1  0
 16 17  1  0
 18 17  2  0
 19 18  1  0
 20 19  1  0
 22 23  2  0
 23 24  1  0
 25 24  2  0
 26 25  1  0
 27 26  2  0
 28 27  1  0
 29 30  1  0
 29 28  2  0
 30 31  2  0
 31 22  1  0
 31 26  1  0
  1 32  1  0
  3 33  1  0
  8 34  1  0
  9 35  1  0
 13 36  1  0
 16 37  1  1
 18 38  1  0
 19 39  1  0
 21 40  1  0
 21 41  1  0
 23 42  1  0
 24 43  1  0
 25 44  1  0
 27 45  1  0
 28 46  1  0
 29 47  1  0
 30 48  1  0
M  END
>  <Score>  (1) 
-7.08137

$$$$
