
     RDKit          3D

 42 45  0  0  0  0  0  0  0  0999 V2000
   41.2690   84.0500   61.4740 C   0  0  0  0  0  0  0  0  0  0  0  0
   40.5340   84.1010   60.3210 C   0  0  0  0  0  0  0  0  0  0  0  0
   39.2330   83.9670   60.6040 N   0  0  0  0  0  0  0  0  0  0  0  0
   39.1000   83.8290   61.9280 C   0  0  0  0  0  0  0  0  0  0  0  0
   40.3450   83.8780   62.4740 N   0  0  0  0  0  0  0  0  0  0  0  0
   37.8820   83.6590   62.6680 N   0  0  0  0  0  0  0  0  0  0  0  0
   44.6570   85.4050   61.4740 C   0  0  0  0  0  0  0  0  0  0  0  0
   45.4150   84.3020   61.8910 C   0  0  0  0  0  0  0  0  0  0  0  0
   44.7640   83.1230   62.1620 C   0  0  0  0  0  0  0  0  0  0  0  0
   43.4020   83.1050   62.0070 N   0  0  0  0  0  0  0  0  0  0  0  0
   42.6990   84.1540   61.6130 C   0  0  0  0  0  0  0  0  0  0  0  0
   43.3150   85.3180   61.3400 N   0  0  0  0  0  0  0  0  0  0  0  0
   45.4530   81.9310   62.5980 C   0  0  0  0  0  0  0  0  0  0  0  0
   44.9950   80.6480   62.3180 C   0  0  0  0  0  0  0  0  0  0  0  0
   45.6340   79.4950   62.7220 C   0  0  0  0  0  0  0  0  0  0  0  0
   46.8030   79.6640   63.4490 C   0  0  0  0  0  0  0  0  0  0  0  0
   47.3160   80.9120   63.7640 C   0  0  0  0  0  0  0  0  0  0  0  0
   46.6080   82.0070   63.3180 C   0  0  0  0  0  0  0  0  0  0  0  0
   41.0120   84.2720   58.9510 C   0  0  0  0  0  0  0  0  0  0  0  0
   41.4430   83.1140   58.2970 C   0  0  0  0  0  0  0  0  0  0  0  0
   41.9050   83.2140   57.0020 C   0  0  0  0  0  0  0  0  0  0  0  0
   41.9400   84.4300   56.3690 C   0  0  0  0  0  0  0  0  0  0  0  0
   41.5180   85.5790   57.0040 C   0  0  0  0  0  0  0  0  0  0  0  0
   41.0540   85.5060   58.2910 C   0  0  0  0  0  0  0  0  0  0  0  0
   40.6720   83.7710   63.8690 C   0  0  0  0  0  0  0  0  0  0  0  0
   40.7810   82.4480   64.2000 F   0  0  0  0  0  0  0  0  0  0  0  0
   39.6880   84.3490   64.6540 F   0  0  0  0  0  0  0  0  0  0  0  0
   41.8260   84.5110   64.1800 F   0  0  0  0  0  0  0  0  0  0  0  0
   37.9113   83.5629   63.6931 H   0  0  0  0  0  0  0  0  0  0  0  0
   36.9786   83.6331   62.1740 H   0  0  0  0  0  0  0  0  0  0  0  0
   45.1625   86.3565   61.2523 H   0  0  0  0  0  0  0  0  0  0  0  0
   46.5070   84.3788   61.9989 H   0  0  0  0  0  0  0  0  0  0  0  0
   44.0656   80.5469   61.7384 H   0  0  0  0  0  0  0  0  0  0  0  0
   45.2388   78.4971   62.4812 H   0  0  0  0  0  0  0  0  0  0  0  0
   47.3456   78.7699   63.7898 H   0  0  0  0  0  0  0  0  0  0  0  0
   48.2447   81.0235   64.3428 H   0  0  0  0  0  0  0  0  0  0  0  0
   47.0000   83.0063   63.5584 H   0  0  0  0  0  0  0  0  0  0  0  0
   41.4140   82.1398   58.8070 H   0  0  0  0  0  0  0  0  0  0  0  0
   42.2478   82.3125   56.4730 H   0  0  0  0  0  0  0  0  0  0  0  0
   42.3116   84.4900   55.3354 H   0  0  0  0  0  0  0  0  0  0  0  0
   41.5536   86.5463   56.4815 H   0  0  0  0  0  0  0  0  0  0  0  0
   40.7145   86.4169   58.8058 H   0  0  0  0  0  0  0  0  0  0  0  0
  1 11  1  0
  1  5  1  0
  2  3  1  0
  2  1  2  0
  3  4  2  0
  4  5  1  0
  4  6  1  0
  5 25  1  0
  7  8  2  0
  8  9  1  0
  9 13  1  0
 10  9  2  0
 11 10  1  0
 12  7  1  0
 12 11  2  0
 13 18  1  0
 14 13  2  0
 14 15  1  0
 15 16  2  0
 16 17  1  0
 18 17  2  0
 19  2  1  0
 20 19  2  0
 21 20  1  0
 22 21  2  0
 22 23  1  0
 23 24  2  0
 24 19  1  0
 25 28  1  0
 25 26  1  0
 25 27  1  0
  6 29  1  0
  6 30  1  0
  7 31  1  0
  8 32  1  0
 14 33  1  0
 15 34  1  0
 16 35  1  0
 17 36  1  0
 18 37  1  0
 20 38  1  0
 21 39  1  0
 22 40  1  0
 23 41  1  0
 24 42  1  0
M  END
>  <Score>  (1) 
-7.21076

$$$$
