
     RDKit          3D

 46 50  0  0  1  0  0  0  0  0999 V2000
   42.4340   82.2660   61.5450 C   0  0  0  0  0  0  0  0  0  0  0  0
   43.1990   83.1810   60.8440 C   0  0  0  0  0  0  0  0  0  0  0  0
   43.3530   84.4790   61.2450 C   0  0  0  0  0  0  0  0  0  0  0  0
   42.7040   84.8180   62.3880 N   0  0  0  0  0  0  0  0  0  0  0  0
   41.9490   83.9430   63.0980 C   0  0  0  0  0  0  0  0  0  0  0  0
   41.8230   82.6730   62.6670 N   0  0  0  0  0  0  0  0  0  0  0  0
   42.3190   80.9550   61.0170 N   0  0  0  0  0  0  0  0  0  0  0  0
   42.8400   80.5060   59.8560 C   0  0  0  0  0  0  0  0  0  0  0  0
   42.5040   79.2200   59.6620 N   0  0  0  0  0  0  0  0  0  0  0  0
   41.7640   78.8510   60.7110 C   0  0  0  0  0  0  0  0  0  0  0  0
   41.1740   77.6390   60.9950 C   0  0  0  0  0  0  0  0  0  0  0  0
   41.3250   76.6890   60.1630 O   0  0  0  0  0  0  0  0  0  0  0  0
   40.4650   77.5230   62.1470 N   0  0  0  0  0  0  0  0  0  0  0  0
   40.3560   78.5790   62.9690 C   0  0  0  0  0  0  0  0  0  0  0  0
   39.5990   78.3070   64.1280 N   0  0  0  0  0  0  0  0  0  0  0  0
   40.9260   79.7770   62.7080 N   0  0  0  0  0  0  0  0  0  0  0  0
   41.6320   79.9460   61.5930 C   0  0  0  0  0  0  0  0  0  0  0  0
   44.1240   85.4200   60.5040 N   0  0  0  0  0  0  0  0  0  0  0  0
   45.5750   85.3060   60.5930 C   0  0  0  0  0  0  0  0  0  0  0  0
   46.3180   85.8740   59.4510 C   0  0  0  0  0  0  0  0  0  0  0  0
   45.4260   86.5050   58.4160 C   0  0  0  0  0  0  0  0  0  0  0  0
   44.4150   87.3950   59.1280 C   0  0  0  0  0  0  0  0  0  0  0  0
   43.4460   86.4250   59.7470 C   0  0  1  0  0  0  0  0  0  0  0  0
   42.6320   85.9740   58.5830 C   0  0  0  0  0  0  0  0  0  0  0  0
   42.6590   84.6430   58.1200 C   0  0  0  0  0  0  0  0  0  0  0  0
   41.7970   84.5190   57.0550 C   0  0  0  0  0  0  0  0  0  0  0  0
   41.2660   85.7410   56.8820 N   0  0  0  0  0  0  0  0  0  0  0  0
   41.7380   86.6030   57.7610 N   0  0  0  0  0  0  0  0  0  0  0  0
   43.7049   82.8502   59.9249 H   0  0  0  0  0  0  0  0  0  0  0  0
   41.4432   84.2681   64.0191 H   0  0  0  0  0  0  0  0  0  0  0  0
   43.4520   81.1069   59.1673 H   0  0  0  0  0  0  0  0  0  0  0  0
   40.0131   76.6296   62.3891 H   0  0  0  0  0  0  0  0  0  0  0  0
   39.4496   79.0453   64.8305 H   0  0  0  0  0  0  0  0  0  0  0  0
   39.1958   77.3702   64.2716 H   0  0  0  0  0  0  0  0  0  0  0  0
   45.9025   85.8259   61.5054 H   0  0  0  0  0  0  0  0  0  0  0  0
   45.7983   84.2289   60.5991 H   0  0  0  0  0  0  0  0  0  0  0  0
   47.0092   86.6408   59.8307 H   0  0  0  0  0  0  0  0  0  0  0  0
   46.8486   85.0439   58.9618 H   0  0  0  0  0  0  0  0  0  0  0  0
   44.8986   85.7210   57.8528 H   0  0  0  0  0  0  0  0  0  0  0  0
   46.0265   87.1027   57.7144 H   0  0  0  0  0  0  0  0  0  0  0  0
   44.9065   88.0034   59.9014 H   0  0  0  0  0  0  0  0  0  0  0  0
   43.9244   88.1060   58.4470 H   0  0  0  0  0  0  0  0  0  0  0  0
   42.7814   86.8442   60.5168 H   0  0  0  0  0  0  0  0  0  0  0  0
   43.2714   83.8329   58.5427 H   0  0  0  0  0  0  0  0  0  0  0  0
   41.5870   83.6118   56.4693 H   0  0  0  0  0  0  0  0  0  0  0  0
   40.5763   85.9752   56.1537 H   0  0  0  0  0  0  0  0  0  0  0  0
  1  6  2  0
  2  3  2  0
  2  1  1  0
  3  4  1  0
  4  5  2  0
  6  5  1  0
  7  1  1  0
  7 17  1  0
  8  7  1  0
  9  8  2  0
  9 10  1  0
 10 11  1  0
 10 17  2  0
 11 13  1  0
 12 11  2  0
 13 14  1  0
 14 15  1  0
 16 14  2  0
 17 16  1  0
 18 19  1  0
 18  3  1  0
 20 19  1  0
 21 22  1  0
 21 20  1  0
 22 23  1  0
 23 18  1  0
 24 23  1  0
 25 24  1  0
 26 25  2  0
 27 26  1  0
 27 28  1  0
 28 24  2  0
  2 29  1  0
  5 30  1  0
  8 31  1  0
 13 32  1  0
 15 33  1  0
 15 34  1  0
 19 35  1  0
 19 36  1  0
 20 37  1  0
 20 38  1  0
 21 39  1  0
 21 40  1  0
 22 41  1  0
 22 42  1  0
 23 43  1  1
 25 44  1  0
 26 45  1  0
 27 46  1  0
M  END
>  <Score>  (1) 
-7.23617

$$$$
