
     RDKit          3D

 39 42  0  0  0  0  0  0  0  0999 V2000
   42.2760   84.7570   57.0940 C   0  0  0  0  0  0  0  0  0  0  0  0
   41.6930   83.5230   56.6990 C   0  0  0  0  0  0  0  0  0  0  0  0
   41.4420   82.5670   57.6730 C   0  0  0  0  0  0  0  0  0  0  0  0
   41.7790   82.9030   58.9220 N   0  0  0  0  0  0  0  0  0  0  0  0
   42.3180   84.0350   59.3220 C   0  0  0  0  0  0  0  0  0  0  0  0
   42.5690   84.9750   58.3960 N   0  0  0  0  0  0  0  0  0  0  0  0
   42.6600   84.3360   60.7050 C   0  0  0  0  0  0  0  0  0  0  0  0
   43.8230   84.8650   61.2110 C   0  0  0  0  0  0  0  0  0  0  0  0
   43.7590   84.9980   62.5560 N   0  0  0  0  0  0  0  0  0  0  0  0
   42.5390   84.5440   62.9050 C   0  0  0  0  0  0  0  0  0  0  0  0
   41.9350   84.4470   64.1560 C   0  0  0  0  0  0  0  0  0  0  0  0
   40.6350   83.9280   64.2120 C   0  0  0  0  0  0  0  0  0  0  0  0
   39.9400   83.5170   63.1000 C   0  0  0  0  0  0  0  0  0  0  0  0
   40.5760   83.6310   61.8810 C   0  0  0  0  0  0  0  0  0  0  0  0
   41.8410   84.1330   61.8020 C   0  0  0  0  0  0  0  0  0  0  0  0
   40.8400   81.2640   57.3290 C   0  0  0  0  0  0  0  0  0  0  0  0
   41.6350   80.0940   57.4270 C   0  0  0  0  0  0  0  0  0  0  0  0
   40.4560   78.7750   56.9050 S   0  0  0  0  0  0  0  0  0  0  0  0
   39.0880   80.0730   56.6490 C   0  0  0  0  0  0  0  0  0  0  0  0
   39.6200   81.0160   56.9270 N   0  0  0  0  0  0  0  0  0  0  0  0
   37.7660   79.5180   56.1790 C   0  0  0  0  0  0  0  0  0  0  0  0
   37.3460   79.7880   55.0390 O   0  0  0  0  0  0  0  0  0  0  0  0
   36.9990   78.6930   57.0190 N   0  0  0  0  0  0  0  0  0  0  0  0
   36.3870   77.4910   56.5690 C   0  0  0  0  0  0  0  0  0  0  0  0
   36.6050   77.2390   55.3230 N   0  0  0  0  0  0  0  0  0  0  0  0
   35.6370   76.7720   57.5680 N   0  0  0  0  0  0  0  0  0  0  0  0
   36.1780   76.3660   54.9350 H   0  0  0  0  0  0  0  0  0  0  0  0
   42.4883   85.5324   56.3432 H   0  0  0  0  0  0  0  0  0  0  0  0
   41.4461   83.3298   55.6446 H   0  0  0  0  0  0  0  0  0  0  0  0
   44.6944   85.1445   60.6007 H   0  0  0  0  0  0  0  0  0  0  0  0
   44.4889   85.3682   63.1814 H   0  0  0  0  0  0  0  0  0  0  0  0
   42.4602   84.7667   65.0681 H   0  0  0  0  0  0  0  0  0  0  0  0
   40.1466   83.8454   65.1942 H   0  0  0  0  0  0  0  0  0  0  0  0
   38.9195   83.1141   63.1785 H   0  0  0  0  0  0  0  0  0  0  0  0
   40.0575   83.3138   60.9642 H   0  0  0  0  0  0  0  0  0  0  0  0
   42.6864   79.9976   57.7356 H   0  0  0  0  0  0  0  0  0  0  0  0
   36.8748   78.9709   58.0030 H   0  0  0  0  0  0  0  0  0  0  0  0
   35.1633   75.8912   57.3215 H   0  0  0  0  0  0  0  0  0  0  0  0
   35.5747   77.1390   58.5284 H   0  0  0  0  0  0  0  0  0  0  0  0
  1  6  2  0
  2  1  1  0
  2  3  2  0
  3  4  1  0
  4  5  2  0
  5  7  1  0
  6  5  1  0
  7  8  2  0
  7 15  1  0
  8  9  1  0
  9 10  1  0
 10 11  2  0
 11 12  1  0
 13 12  2  0
 14 13  1  0
 15 14  2  0
 15 10  1  0
 16 17  2  0
 16  3  1  0
 18 17  1  0
 19 18  1  0
 19 20  2  0
 20 16  1  0
 21 19  1  0
 21 23  1  0
 22 21  2  0
 24 23  1  0
 24 26  1  0
 25 24  2  0
 27 25  1  0
  1 28  1  0
  2 29  1  0
  8 30  1  0
  9 31  1  0
 11 32  1  0
 12 33  1  0
 13 34  1  0
 14 35  1  0
 17 36  1  0
 23 37  1  0
 26 38  1  0
 26 39  1  0
M  END
>  <Score>  (1) 
-7.10831

$$$$
