
     RDKit          3D

 52 55  0  0  1  0  0  0  0  0999 V2000
   40.6000   83.3540   58.5460 C   0  0  0  0  0  0  0  0  0  0  0  0
   39.7830   84.2320   59.2510 C   0  0  0  0  0  0  0  0  0  0  0  0
   39.3650   83.8320   60.5190 C   0  0  0  0  0  0  0  0  0  0  0  0
   39.7780   82.6210   60.9790 N   0  0  0  0  0  0  0  0  0  0  0  0
   40.5660   81.7940   60.2820 C   0  0  0  0  0  0  0  0  0  0  0  0
   40.9870   82.1650   59.0390 N   0  0  0  0  0  0  0  0  0  0  0  0
   40.9480   80.5390   60.8550 N   0  0  0  0  0  0  0  0  0  0  0  0
   39.9680   79.5820   61.2130 C   0  0  0  0  0  0  0  0  0  0  0  0
   40.5520   78.1860   61.1890 C   0  0  0  0  0  0  0  0  0  0  0  0
   41.7690   78.0370   62.0400 C   0  0  0  0  0  0  0  0  0  0  0  0
   42.6310   79.2660   62.0990 C   0  0  0  0  0  0  0  0  0  0  0  0
   42.3590   80.2900   61.0530 C   0  0  2  0  0  0  0  0  0  0  0  0
   43.0170   81.5640   61.5020 C   0  0  0  0  0  0  0  0  0  0  0  0
   44.0950   82.1040   60.8260 C   0  0  0  0  0  0  0  0  0  0  0  0
   44.6370   83.2800   61.3120 C   0  0  0  0  0  0  0  0  0  0  0  0
   44.1280   83.8830   62.4130 N   0  0  0  0  0  0  0  0  0  0  0  0
   43.0700   83.3380   63.0640 C   0  0  0  0  0  0  0  0  0  0  0  0
   42.5320   82.1910   62.6010 N   0  0  0  0  0  0  0  0  0  0  0  0
   42.5370   83.9690   64.2170 N   0  0  0  0  0  0  0  0  0  0  0  0
   41.1450   84.1160   64.3880 C   0  0  0  0  0  0  0  0  0  0  0  0
   40.3420   83.2630   63.8170 N   0  0  0  0  0  0  0  0  0  0  0  0
   40.6810   85.2080   65.1930 N   0  0  0  0  0  0  0  0  0  0  0  0
   39.3070   83.3980   63.9690 H   0  0  0  0  0  0  0  0  0  0  0  0
   45.7490   83.8720   60.6460 N   0  0  0  0  0  0  0  0  0  0  0  0
   47.0650   83.2820   60.8000 C   0  0  0  0  0  0  0  0  0  0  0  0
   47.9510   83.8790   59.7090 C   0  0  0  0  0  0  0  0  0  0  0  0
   48.0300   85.2950   60.0180 N   0  0  0  0  0  0  0  0  0  0  0  0
   46.7740   85.8930   59.6420 C   0  0  0  0  0  0  0  0  0  0  0  0
   45.5750   85.0450   59.8270 C   0  0  0  0  0  0  0  0  0  0  0  0
   40.9439   83.6452   57.5425 H   0  0  0  0  0  0  0  0  0  0  0  0
   39.4799   85.2003   58.8260 H   0  0  0  0  0  0  0  0  0  0  0  0
   38.7186   84.4784   61.1309 H   0  0  0  0  0  0  0  0  0  0  0  0
   39.6005   79.8026   62.2261 H   0  0  0  0  0  0  0  0  0  0  0  0
   39.1417   79.6329   60.4887 H   0  0  0  0  0  0  0  0  0  0  0  0
   39.7870   77.4820   61.5485 H   0  0  0  0  0  0  0  0  0  0  0  0
   40.8541   77.9786   60.1518 H   0  0  0  0  0  0  0  0  0  0  0  0
   41.4472   77.7914   63.0628 H   0  0  0  0  0  0  0  0  0  0  0  0
   42.3793   77.2434   61.5842 H   0  0  0  0  0  0  0  0  0  0  0  0
   42.4824   79.7374   63.0817 H   0  0  0  0  0  0  0  0  0  0  0  0
   43.6609   78.9214   61.9240 H   0  0  0  0  0  0  0  0  0  0  0  0
   42.7526   79.9215   60.0942 H   0  0  0  0  0  0  0  0  0  0  0  0
   44.5080   81.6148   59.9315 H   0  0  0  0  0  0  0  0  0  0  0  0
   43.1769   84.3256   64.9410 H   0  0  0  0  0  0  0  0  0  0  0  0
   39.6710   85.3467   65.3400 H   0  0  0  0  0  0  0  0  0  0  0  0
   41.3577   85.8538   65.6243 H   0  0  0  0  0  0  0  0  0  0  0  0
   47.4734   83.5229   61.7925 H   0  0  0  0  0  0  0  0  0  0  0  0
   47.0174   82.1866   60.7120 H   0  0  0  0  0  0  0  0  0  0  0  0
   47.4997   83.7247   58.7178 H   0  0  0  0  0  0  0  0  0  0  0  0
   48.9444   83.4074   59.6812 H   0  0  0  0  0  0  0  0  0  0  0  0
   48.8372   85.7836   60.4310 H   0  0  0  0  0  0  0  0  0  0  0  0
   46.7102   86.9159   59.2424 H   0  0  0  0  0  0  0  0  0  0  0  0
   44.6080   85.2954   59.3664 H   0  0  0  0  0  0  0  0  0  0  0  0
  1  6  2  0
  1  2  1  0
  2  3  2  0
  3  4  1  0
  5  7  1  0
  5  4  2  0
  6  5  1  0
  7 12  1  0
  7  8  1  0
  9  8  1  0
  9 10  1  0
 10 11  1  0
 12 13  1  0
 12 11  1  0
 13 18  2  0
 14 15  2  0
 14 13  1  0
 15 16  1  0
 16 17  2  0
 17 19  1  0
 18 17  1  0
 19 20  1  0
 20 22  1  0
 21 23  1  0
 21 20  2  0
 24 25  1  0
 24 15  1  0
 26 27  1  0
 26 25  1  0
 28 29  2  0
 28 27  1  0
 29 24  1  0
  1 30  1  0
  2 31  1  0
  3 32  1  0
  8 33  1  0
  8 34  1  0
  9 35  1  0
  9 36  1  0
 10 37  1  0
 10 38  1  0
 11 39  1  0
 11 40  1  0
 12 41  1  6
 14 42  1  0
 19 43  1  0
 22 44  1  0
 22 45  1  0
 25 46  1  0
 25 47  1  0
 26 48  1  0
 26 49  1  0
 27 50  1  0
 28 51  1  0
 29 52  1  0
M  END
>  <Score>  (1) 
-7.04497

$$$$
