
     RDKit          3D

 52 56  0  0  0  0  0  0  0  0999 V2000
   40.5720   80.0170   60.6800 C   0  0  0  0  0  0  0  0  0  0  0  0
   41.7490   80.2360   61.4070 C   0  0  0  0  0  0  0  0  0  0  0  0
   42.4320   79.0920   61.8510 C   0  0  0  0  0  0  0  0  0  0  0  0
   41.9180   77.8830   61.5550 N   0  0  0  0  0  0  0  0  0  0  0  0
   40.7920   77.7040   60.8590 C   0  0  0  0  0  0  0  0  0  0  0  0
   40.1330   78.7630   60.4310 N   0  0  0  0  0  0  0  0  0  0  0  0
   42.2190   81.5210   61.6750 N   0  0  0  0  0  0  0  0  0  0  0  0
   43.2830   82.0780   61.0450 C   0  0  0  0  0  0  0  0  0  0  0  0
   43.4830   83.3310   61.5300 N   0  0  0  0  0  0  0  0  0  0  0  0
   42.5590   83.5670   62.4580 C   0  0  0  0  0  0  0  0  0  0  0  0
   42.3000   84.6530   63.2640 C   0  0  0  0  0  0  0  0  0  0  0  0
   41.2570   84.5550   64.1170 N   0  0  0  0  0  0  0  0  0  0  0  0
   40.4970   83.4680   64.2040 C   0  0  0  0  0  0  0  0  0  0  0  0
   40.7780   82.4410   63.4160 N   0  0  0  0  0  0  0  0  0  0  0  0
   41.7870   82.4270   62.5280 C   0  0  0  0  0  0  0  0  0  0  0  0
   40.3700   76.3260   60.6210 C   0  0  0  0  0  0  0  0  0  0  0  0
   38.9290   76.1330   60.3060 C   0  0  0  0  0  0  0  0  0  0  0  0
   38.7550   75.7690   58.8700 C   0  0  0  0  0  0  0  0  0  0  0  0
   39.2290   74.5820   58.3670 C   0  0  0  0  0  0  0  0  0  0  0  0
   39.0330   74.3040   57.0100 C   0  0  0  0  0  0  0  0  0  0  0  0
   38.3740   75.2650   56.3080 C   0  0  0  0  0  0  0  0  0  0  0  0
   37.9050   76.4430   56.8140 C   0  0  0  0  0  0  0  0  0  0  0  0
   38.1060   76.6920   58.1280 N   0  0  0  0  0  0  0  0  0  0  0  0
   37.2140   77.4540   56.0860 N   0  0  0  0  0  0  0  0  0  0  0  0
   36.6400   77.2430   54.7660 C   0  0  0  0  0  0  0  0  0  0  0  0
   37.3540   78.2360   53.8620 C   0  0  0  0  0  0  0  0  0  0  0  0
   37.3460   79.5790   54.3680 N   0  0  0  0  0  0  0  0  0  0  0  0
   37.9510   79.6400   55.7060 C   0  0  0  0  0  0  0  0  0  0  0  0
   37.0080   78.8040   56.5810 C   0  0  0  0  0  0  0  0  0  0  0  0
   39.9970   80.8772   60.3066 H   0  0  0  0  0  0  0  0  0  0  0  0
   43.3649   79.1814   62.4270 H   0  0  0  0  0  0  0  0  0  0  0  0
   43.8879   81.5923   60.2652 H   0  0  0  0  0  0  0  0  0  0  0  0
   43.2020   84.8416   63.8647 H   0  0  0  0  0  0  0  0  0  0  0  0
   42.0236   85.4608   62.5704 H   0  0  0  0  0  0  0  0  0  0  0  0
   39.6564   83.4224   64.9121 H   0  0  0  0  0  0  0  0  0  0  0  0
   40.1865   81.6009   63.4882 H   0  0  0  0  0  0  0  0  0  0  0  0
   40.9551   75.9356   59.7753 H   0  0  0  0  0  0  0  0  0  0  0  0
   40.5414   75.7943   61.5686 H   0  0  0  0  0  0  0  0  0  0  0  0
   38.5251   75.3267   60.9358 H   0  0  0  0  0  0  0  0  0  0  0  0
   38.3916   77.0722   60.5037 H   0  0  0  0  0  0  0  0  0  0  0  0
   39.7516   73.8652   59.0174 H   0  0  0  0  0  0  0  0  0  0  0  0
   39.3871   73.3731   56.5431 H   0  0  0  0  0  0  0  0  0  0  0  0
   38.2040   75.0761   55.2378 H   0  0  0  0  0  0  0  0  0  0  0  0
   36.8202   76.2124   54.4264 H   0  0  0  0  0  0  0  0  0  0  0  0
   35.5499   77.3904   54.7615 H   0  0  0  0  0  0  0  0  0  0  0  0
   36.8589   78.2310   52.8797 H   0  0  0  0  0  0  0  0  0  0  0  0
   38.4057   77.9196   53.8006 H   0  0  0  0  0  0  0  0  0  0  0  0
   37.8811   80.1834   53.7283 H   0  0  0  0  0  0  0  0  0  0  0  0
   38.9622   79.2072   55.6975 H   0  0  0  0  0  0  0  0  0  0  0  0
   38.0636   80.6712   56.0720 H   0  0  0  0  0  0  0  0  0  0  0  0
   35.9624   79.1186   56.4480 H   0  0  0  0  0  0  0  0  0  0  0  0
   37.2104   78.9067   57.6573 H   0  0  0  0  0  0  0  0  0  0  0  0
  1  2  2  0
  2  7  1  0
  2  3  1  0
  4  3  2  0
  5  4  1  0
  6  1  1  0
  6  5  2  0
  7 15  1  0
  8  9  2  0
  8  7  1  0
  9 10  1  0
 10 15  2  0
 10 11  1  0
 11 12  1  0
 12 13  2  0
 14 13  1  0
 15 14  1  0
 16  5  1  0
 17 16  1  0
 18 17  1  0
 19 18  2  0
 20 19  1  0
 21 22  1  0
 21 20  2  0
 22 23  2  0
 23 18  1  0
 24 29  1  0
 24 22  1  0
 25 24  1  0
 26 27  1  0
 26 25  1  0
 27 28  1  0
 28 29  1  0
  1 30  1  0
  3 31  1  0
  8 32  1  0
 11 33  1  0
 11 34  1  0
 13 35  1  0
 14 36  1  0
 16 37  1  0
 16 38  1  0
 17 39  1  0
 17 40  1  0
 19 41  1  0
 20 42  1  0
 21 43  1  0
 25 44  1  0
 25 45  1  0
 26 46  1  0
 26 47  1  0
 27 48  1  0
 28 49  1  0
 28 50  1  0
 29 51  1  0
 29 52  1  0
M  END
>  <Score>  (1) 
-7.37431

$$$$
