
     RDKit          3D

 44 48  0  0  1  0  0  0  0  0999 V2000
   41.2560   81.7960   61.5670 C   0  0  1  0  0  0  0  0  0  0  0  0
   41.1090   80.4010   62.1030 C   0  0  0  0  0  0  0  0  0  0  0  0
   41.6420   79.4780   61.0060 C   0  0  0  0  0  0  0  0  0  0  0  0
   41.7700   80.1550   59.6740 C   0  0  0  0  0  0  0  0  0  0  0  0
   40.6490   81.0730   59.3100 C   0  0  0  0  0  0  0  0  0  0  0  0
   40.2700   81.9640   60.4570 C   0  0  2  0  0  0  0  0  0  0  0  0
   45.6150   84.0640   61.2970 C   0  0  0  0  0  0  0  0  0  0  0  0
   45.3660   84.9430   60.2320 C   0  0  0  0  0  0  0  0  0  0  0  0
   44.0590   85.3860   60.0310 C   0  0  0  0  0  0  0  0  0  0  0  0
   43.0750   84.9390   60.8880 N   0  0  0  0  0  0  0  0  0  0  0  0
   43.3600   84.0970   61.8960 C   0  0  0  0  0  0  0  0  0  0  0  0
   44.6190   83.6640   62.0990 N   0  0  0  0  0  0  0  0  0  0  0  0
   42.1810   83.7990   62.6210 N   0  0  0  0  0  0  0  0  0  0  0  0
   41.9010   84.6480   63.6270 C   0  0  0  0  0  0  0  0  0  0  0  0
   40.7380   84.2120   64.2330 C   0  0  0  0  0  0  0  0  0  0  0  0
   40.3330   83.0920   63.5730 N   0  0  0  0  0  0  0  0  0  0  0  0
   41.2420   82.8480   62.5700 C   0  0  0  0  0  0  0  0  0  0  0  0
   40.0010   83.3200   60.0810 N   0  0  0  0  0  0  0  0  0  0  0  0
   39.1610   84.1910   60.7160 C   0  0  0  0  0  0  0  0  0  0  0  0
   39.1700   85.3850   60.0650 N   0  0  0  0  0  0  0  0  0  0  0  0
   40.0240   85.2650   59.0080 C   0  0  0  0  0  0  0  0  0  0  0  0
   40.3520   86.2230   58.0640 C   0  0  0  0  0  0  0  0  0  0  0  0
   41.2270   85.8480   57.1180 N   0  0  0  0  0  0  0  0  0  0  0  0
   41.7320   84.6020   57.1250 C   0  0  0  0  0  0  0  0  0  0  0  0
   41.4110   83.6610   58.0510 N   0  0  0  0  0  0  0  0  0  0  0  0
   40.5380   83.9790   59.0240 C   0  0  0  0  0  0  0  0  0  0  0  0
   42.2722   81.9189   61.1643 H   0  0  0  0  0  0  0  0  0  0  0  0
   41.6969   80.2804   63.0249 H   0  0  0  0  0  0  0  0  0  0  0  0
   40.0632   80.1708   62.3547 H   0  0  0  0  0  0  0  0  0  0  0  0
   42.6341   79.1120   61.3088 H   0  0  0  0  0  0  0  0  0  0  0  0
   40.9174   78.6589   60.8878 H   0  0  0  0  0  0  0  0  0  0  0  0
   42.7005   80.7417   59.6798 H   0  0  0  0  0  0  0  0  0  0  0  0
   41.7583   79.3508   58.9236 H   0  0  0  0  0  0  0  0  0  0  0  0
   40.9610   81.6981   58.4603 H   0  0  0  0  0  0  0  0  0  0  0  0
   39.7742   80.4603   59.0466 H   0  0  0  0  0  0  0  0  0  0  0  0
   39.2914   81.6392   60.8401 H   0  0  0  0  0  0  0  0  0  0  0  0
   46.6376   83.6999   61.4752 H   0  0  0  0  0  0  0  0  0  0  0  0
   46.1813   85.2744   59.5721 H   0  0  0  0  0  0  0  0  0  0  0  0
   43.8185   86.0756   59.2084 H   0  0  0  0  0  0  0  0  0  0  0  0
   42.4916   85.5302   63.9151 H   0  0  0  0  0  0  0  0  0  0  0  0
   40.2332   84.6825   65.0896 H   0  0  0  0  0  0  0  0  0  0  0  0
   38.5692   83.9618   61.6145 H   0  0  0  0  0  0  0  0  0  0  0  0
   39.9199   87.2343   58.0879 H   0  0  0  0  0  0  0  0  0  0  0  0
   42.4468   84.3284   56.3349 H   0  0  0  0  0  0  0  0  0  0  0  0
  1  2  1  0
  1 17  1  0
  3  2  1  0
  4  3  1  0
  5  4  1  0
  5  6  1  0
  6  1  1  0
  7 12  2  0
  8  7  1  0
  9  8  2  0
  9 10  1  0
 10 11  2  0
 11 12  1  0
 11 13  1  0
 13 14  1  0
 14 15  2  0
 16 15  1  0
 17 13  1  0
 17 16  2  0
 18  6  1  0
 18 19  1  0
 20 19  2  0
 21 26  2  0
 21 20  1  0
 22 21  1  0
 23 24  1  0
 23 22  2  0
 24 25  2  0
 25 26  1  0
 26 18  1  0
  1 27  1  6
  2 28  1  0
  2 29  1  0
  3 30  1  0
  3 31  1  0
  4 32  1  0
  4 33  1  0
  5 34  1  0
  5 35  1  0
  6 36  1  1
  7 37  1  0
  8 38  1  0
  9 39  1  0
 14 40  1  0
 15 41  1  0
 19 42  1  0
 22 43  1  0
 24 44  1  0
M  END
>  <Score>  (1) 
-7.69858

$$$$
