
     RDKit          3D

 45 48  0  0  1  0  0  0  0  0999 V2000
   40.6620   77.3860   59.2560 C   0  0  1  0  0  0  0  0  0  0  0  0
   40.1980   80.4730   61.2250 C   0  0  0  0  0  0  0  0  0  0  0  0
   40.2070   79.6620   60.1200 C   0  0  0  0  0  0  0  0  0  0  0  0
   40.5900   78.3760   60.3610 C   0  0  0  0  0  0  0  0  0  0  0  0
   40.9410   77.8660   61.5300 N   0  0  0  0  0  0  0  0  0  0  0  0
   40.9270   78.6980   62.6280 C   0  0  0  0  0  0  0  0  0  0  0  0
   40.5530   79.9840   62.4400 N   0  0  0  0  0  0  0  0  0  0  0  0
   39.8020   81.8770   61.1140 C   0  0  0  0  0  0  0  0  0  0  0  0
   40.0820   82.5150   59.9210 C   0  0  0  0  0  0  0  0  0  0  0  0
   39.7140   83.8450   59.7940 C   0  0  0  0  0  0  0  0  0  0  0  0
   39.0940   84.4680   60.8400 N   0  0  0  0  0  0  0  0  0  0  0  0
   38.8320   83.8140   62.0000 C   0  0  0  0  0  0  0  0  0  0  0  0
   39.1910   82.5100   62.1300 N   0  0  0  0  0  0  0  0  0  0  0  0
   41.8300   76.4400   59.4560 C   0  0  0  0  0  0  0  0  0  0  0  0
   39.3550   76.6100   59.2910 C   0  0  0  0  0  0  0  0  0  0  0  0
   38.4660   76.9360   58.1730 C   0  0  0  0  0  0  0  0  0  0  0  0
   37.1920   76.5290   58.0920 N   0  0  0  0  0  0  0  0  0  0  0  0
   36.6980   76.9840   56.9950 O   0  0  0  0  0  0  0  0  0  0  0  0
   37.6080   77.6760   56.3560 C   0  0  0  0  0  0  0  0  0  0  0  0
   38.7580   77.6600   57.0960 N   0  0  0  0  0  0  0  0  0  0  0  0
   37.4000   79.8370   52.7340 C   0  0  0  0  0  0  0  0  0  0  0  0
   37.5070   78.4600   52.6620 C   0  0  0  0  0  0  0  0  0  0  0  0
   37.5750   77.7580   53.8460 C   0  0  0  0  0  0  0  0  0  0  0  0
   37.5390   78.3860   55.0790 C   0  0  0  0  0  0  0  0  0  0  0  0
   37.4320   79.7670   55.1060 C   0  0  0  0  0  0  0  0  0  0  0  0
   37.3610   80.5150   53.9280 C   0  0  0  0  0  0  0  0  0  0  0  0
   37.3150   80.7280   51.2500 S   0  0  0  0  0  0  0  0  0  0  0  0
   37.4790   82.2090   51.4680 O   0  0  0  0  0  0  0  0  0  0  0  0
   35.9730   80.5530   50.5620 O   0  0  0  0  0  0  0  0  0  0  0  0
   40.8102   77.8892   58.2891 H   0  0  0  0  0  0  0  0  0  0  0  0
   39.9274   80.0204   59.1183 H   0  0  0  0  0  0  0  0  0  0  0  0
   41.2106   78.3286   63.6245 H   0  0  0  0  0  0  0  0  0  0  0  0
   40.5816   81.9837   59.0975 H   0  0  0  0  0  0  0  0  0  0  0  0
   39.9186   84.3926   58.8622 H   0  0  0  0  0  0  0  0  0  0  0  0
   38.3324   84.3361   62.8293 H   0  0  0  0  0  0  0  0  0  0  0  0
   42.0061   76.2973   60.5324 H   0  0  0  0  0  0  0  0  0  0  0  0
   41.6003   75.4703   58.9903 H   0  0  0  0  0  0  0  0  0  0  0  0
   42.7309   76.8661   58.9903 H   0  0  0  0  0  0  0  0  0  0  0  0
   39.5845   75.5348   59.2544 H   0  0  0  0  0  0  0  0  0  0  0  0
   38.8325   76.8868   60.2186 H   0  0  0  0  0  0  0  0  0  0  0  0
   37.5368   77.9423   51.6919 H   0  0  0  0  0  0  0  0  0  0  0  0
   37.6608   76.6619   53.8100 H   0  0  0  0  0  0  0  0  0  0  0  0
   37.4023   80.2857   56.0756 H   0  0  0  0  0  0  0  0  0  0  0  0
   37.2766   81.6114   53.9558 H   0  0  0  0  0  0  0  0  0  0  0  0
   38.3340   80.2310   50.4809 H   0  0  0  0  0  0  0  0  0  0  0  0
  1 15  1  0
  1 14  1  0
  1  4  1  0
  2  7  2  0
  3  4  2  0
  3  2  1  0
  4  5  1  0
  5  6  2  0
  7  6  1  0
  8  2  1  0
  8 13  1  0
  9  8  2  0
 10  9  1  0
 10 11  2  0
 11 12  1  0
 12 13  2  0
 16 15  1  0
 17 16  2  0
 18 17  1  0
 19 18  1  0
 19 20  2  0
 20 16  1  0
 21 26  2  0
 22 21  1  0
 22 23  2  0
 23 24  1  0
 24 25  2  0
 24 19  1  0
 26 25  1  0
 27 28  2  0
 27 21  1  0
 29 27  2  0
  1 30  1  6
  3 31  1  0
  6 32  1  0
  9 33  1  0
 10 34  1  0
 12 35  1  0
 14 36  1  0
 14 37  1  0
 14 38  1  0
 15 39  1  0
 15 40  1  0
 22 41  1  0
 23 42  1  0
 25 43  1  0
 26 44  1  0
 27 45  1  0
M  END
>  <Score>  (1) 
-7.09848

$$$$
