
     RDKit          3D

 47 52  0  0  0  0  0  0  0  0999 V2000
   38.9770   83.5100   61.8050 C   0  0  0  0  0  0  0  0  0  0  0  0
   39.5850   84.4300   60.9440 C   0  0  0  0  0  0  0  0  0  0  0  0
   40.7420   84.0300   60.2560 C   0  0  0  0  0  0  0  0  0  0  0  0
   41.2020   82.7760   60.4670 N   0  0  0  0  0  0  0  0  0  0  0  0
   40.6000   81.9000   61.3060 C   0  0  0  0  0  0  0  0  0  0  0  0
   39.4850   82.2780   61.9710 N   0  0  0  0  0  0  0  0  0  0  0  0
   41.3790   84.9730   59.3630 C   0  0  0  0  0  0  0  0  0  0  0  0
   40.9810   85.3720   58.1120 C   0  0  0  0  0  0  0  0  0  0  0  0
   41.8420   86.2690   57.6000 N   0  0  0  0  0  0  0  0  0  0  0  0
   42.8090   86.4540   58.5260 C   0  0  0  0  0  0  0  0  0  0  0  0
   43.9220   87.2780   58.4770 C   0  0  0  0  0  0  0  0  0  0  0  0
   44.7990   87.3130   59.5610 C   0  0  0  0  0  0  0  0  0  0  0  0
   44.5730   86.5410   60.6780 C   0  0  0  0  0  0  0  0  0  0  0  0
   43.4400   85.7350   60.6700 C   0  0  0  0  0  0  0  0  0  0  0  0
   42.5440   85.6640   59.6250 C   0  0  0  0  0  0  0  0  0  0  0  0
   41.1380   80.5530   61.4990 C   0  0  0  0  0  0  0  0  0  0  0  0
   40.2850   79.4670   61.3680 C   0  0  0  0  0  0  0  0  0  0  0  0
   40.7920   78.1780   61.5510 C   0  0  0  0  0  0  0  0  0  0  0  0
   42.1250   78.0950   61.8530 C   0  0  0  0  0  0  0  0  0  0  0  0
   42.9840   79.1820   61.9880 C   0  0  0  0  0  0  0  0  0  0  0  0
   42.4370   80.4090   61.7990 N   0  0  0  0  0  0  0  0  0  0  0  0
   44.3760   78.9760   62.3100 C   0  0  0  0  0  0  0  0  0  0  0  0
   45.0520   77.7770   62.2600 C   0  0  0  0  0  0  0  0  0  0  0  0
   46.3210   77.9440   62.6210 N   0  0  0  0  0  0  0  0  0  0  0  0
   46.4550   79.2450   62.9010 C   0  0  0  0  0  0  0  0  0  0  0  0
   47.5630   79.9690   63.3260 C   0  0  0  0  0  0  0  0  0  0  0  0
   47.5170   81.3260   63.5700 C   0  0  0  0  0  0  0  0  0  0  0  0
   46.3210   82.0290   63.3920 C   0  0  0  0  0  0  0  0  0  0  0  0
   45.2330   81.2730   62.9660 C   0  0  0  0  0  0  0  0  0  0  0  0
   45.2670   79.9360   62.7230 C   0  0  0  0  0  0  0  0  0  0  0  0
   38.0692   83.8002   62.3543 H   0  0  0  0  0  0  0  0  0  0  0  0
   39.1681   85.4390   60.8097 H   0  0  0  0  0  0  0  0  0  0  0  0
   40.0796   85.0074   57.5976 H   0  0  0  0  0  0  0  0  0  0  0  0
   41.7771   86.7268   56.6796 H   0  0  0  0  0  0  0  0  0  0  0  0
   44.1125   87.8998   57.5899 H   0  0  0  0  0  0  0  0  0  0  0  0
   45.6831   87.9663   59.5228 H   0  0  0  0  0  0  0  0  0  0  0  0
   45.2580   86.5608   61.5384 H   0  0  0  0  0  0  0  0  0  0  0  0
   43.2459   85.1129   61.5562 H   0  0  0  0  0  0  0  0  0  0  0  0
   39.2234   79.6187   61.1233 H   0  0  0  0  0  0  0  0  0  0  0  0
   40.1584   77.2836   61.4581 H   0  0  0  0  0  0  0  0  0  0  0  0
   42.5501   77.0912   62.0004 H   0  0  0  0  0  0  0  0  0  0  0  0
   44.6052   76.8166   61.9633 H   0  0  0  0  0  0  0  0  0  0  0  0
   47.0513   77.2196   62.6741 H   0  0  0  0  0  0  0  0  0  0  0  0
   48.5151   79.4383   63.4737 H   0  0  0  0  0  0  0  0  0  0  0  0
   48.4213   81.8554   63.9047 H   0  0  0  0  0  0  0  0  0  0  0  0
   46.2452   83.1107   63.5770 H   0  0  0  0  0  0  0  0  0  0  0  0
   44.2766   81.7950   62.8150 H   0  0  0  0  0  0  0  0  0  0  0  0
  1  6  2  0
  2  1  1  0
  3  4  1  0
  3  2  2  0
  4  5  2  0
  5 16  1  0
  5  6  1  0
  7 15  1  0
  7  3  1  0
  8  7  2  0
  9  8  1  0
  9 10  1  0
 10 15  2  0
 11 10  1  0
 11 12  2  0
 12 13  1  0
 14 13  2  0
 15 14  1  0
 16 21  1  0
 17 16  2  0
 17 18  1  0
 18 19  2  0
 19 20  1  0
 20 22  1  0
 21 20  2  0
 22 30  1  0
 23 22  2  0
 23 24  1  0
 24 25  1  0
 25 26  2  0
 26 27  1  0
 28 27  2  0
 29 28  1  0
 30 25  1  0
 30 29  2  0
  1 31  1  0
  2 32  1  0
  8 33  1  0
  9 34  1  0
 11 35  1  0
 12 36  1  0
 13 37  1  0
 14 38  1  0
 17 39  1  0
 18 40  1  0
 19 41  1  0
 23 42  1  0
 24 43  1  0
 26 44  1  0
 27 45  1  0
 28 46  1  0
 29 47  1  0
M  END
>  <Score>  (1) 
-7.64665

$$$$
