
     RDKit          3D

 35 38  0  0  0  0  0  0  0  0999 V2000
   39.8830   82.2150   60.3570 C   0  0  0  0  0  0  0  0  0  0  0  0
   40.2730   83.1860   59.3760 C   0  0  0  0  0  0  0  0  0  0  0  0
   39.9750   84.5270   59.6100 C   0  0  0  0  0  0  0  0  0  0  0  0
   39.3150   84.8300   60.7950 N   0  0  0  0  0  0  0  0  0  0  0  0
   38.9570   83.8670   61.7180 C   0  0  0  0  0  0  0  0  0  0  0  0
   39.2250   82.5340   61.5370 N   0  0  0  0  0  0  0  0  0  0  0  0
   40.2070   80.8760   60.0520 N   0  0  0  0  0  0  0  0  0  0  0  0
   40.4690   80.3590   58.8610 C   0  0  0  0  0  0  0  0  0  0  0  0
   40.7950   79.0680   58.9520 N   0  0  0  0  0  0  0  0  0  0  0  0
   40.7340   78.7420   60.2630 C   0  0  0  0  0  0  0  0  0  0  0  0
   40.9450   77.5240   60.8770 C   0  0  0  0  0  0  0  0  0  0  0  0
   41.2900   76.5370   60.1570 O   0  0  0  0  0  0  0  0  0  0  0  0
   40.7750   77.4610   62.1980 N   0  0  0  0  0  0  0  0  0  0  0  0
   40.4140   78.5530   62.8710 C   0  0  0  0  0  0  0  0  0  0  0  0
   40.2450   78.3330   64.2390 N   0  0  0  0  0  0  0  0  0  0  0  0
   40.1990   79.7680   62.3090 N   0  0  0  0  0  0  0  0  0  0  0  0
   40.3590   79.8930   60.9600 C   0  0  0  0  0  0  0  0  0  0  0  0
   40.3690   80.8670   57.4820 C   0  0  0  0  0  0  0  0  0  0  0  0
   39.1890   80.2140   56.7480 C   0  0  0  0  0  0  0  0  0  0  0  0
   38.8480   78.9310   57.1470 C   0  0  0  0  0  0  0  0  0  0  0  0
   37.7680   78.3740   56.4550 C   0  0  0  0  0  0  0  0  0  0  0  0
   37.0990   79.0240   55.4700 N   0  0  0  0  0  0  0  0  0  0  0  0
   37.4810   80.2660   55.1310 C   0  0  0  0  0  0  0  0  0  0  0  0
   38.4950   80.8420   55.7520 N   0  0  0  0  0  0  0  0  0  0  0  0
   40.7962   82.8787   58.4585 H   0  0  0  0  0  0  0  0  0  0  0  0
   40.2499   85.3109   58.8889 H   0  0  0  0  0  0  0  0  0  0  0  0
   38.4363   84.1814   62.6345 H   0  0  0  0  0  0  0  0  0  0  0  0
   40.9222   76.5717   62.6963 H   0  0  0  0  0  0  0  0  0  0  0  0
   39.9661   79.1100   64.8550 H   0  0  0  0  0  0  0  0  0  0  0  0
   40.3992   77.3937   64.6325 H   0  0  0  0  0  0  0  0  0  0  0  0
   40.2197   81.9565   57.5084 H   0  0  0  0  0  0  0  0  0  0  0  0
   41.2981   80.6223   56.9464 H   0  0  0  0  0  0  0  0  0  0  0  0
   39.3838   78.3943   57.9438 H   0  0  0  0  0  0  0  0  0  0  0  0
   37.4446   77.3573   56.7229 H   0  0  0  0  0  0  0  0  0  0  0  0
   36.9482   80.8053   54.3340 H   0  0  0  0  0  0  0  0  0  0  0  0
  1  6  2  0
  2  3  2  0
  2  1  1  0
  3  4  1  0
  4  5  2  0
  6  5  1  0
  7  1  1  0
  7 17  1  0
  8  9  2  0
  8  7  1  0
  9 10  1  0
 10 11  1  0
 10 17  2  0
 11 13  1  0
 12 11  2  0
 13 14  1  0
 14 15  1  0
 16 14  2  0
 17 16  1  0
 18  8  1  0
 19 20  2  0
 19 18  1  0
 21 20  1  0
 22 21  2  0
 23 22  1  0
 23 24  2  0
 24 19  1  0
  2 25  1  0
  3 26  1  0
  5 27  1  0
 13 28  1  0
 15 29  1  0
 15 30  1  0
 18 31  1  0
 18 32  1  0
 20 33  1  0
 21 34  1  0
 23 35  1  0
M  END
>  <Score>  (1) 
-7.11862

$$$$
