
     RDKit          3D

 42 44  0  0  1  0  0  0  0  0999 V2000
   40.0160   80.0300   60.5640 C   0  0  1  0  0  0  0  0  0  0  0  0
   40.5160   79.4420   59.3500 C   0  0  0  0  0  0  0  0  0  0  0  0
   40.2170   77.9910   59.3130 C   0  0  0  0  0  0  0  0  0  0  0  0
   40.1390   77.2640   60.5480 C   0  0  0  0  0  0  0  0  0  0  0  0
   40.3650   77.9670   61.8190 C   0  0  0  0  0  0  0  0  0  0  0  0
   40.8940   79.3750   61.7010 C   0  0  0  0  0  0  0  0  0  0  0  0
   40.0030   81.4770   60.6920 C   0  0  0  0  0  0  0  0  0  0  0  0
   40.3470   82.1540   59.5010 C   0  0  0  0  0  0  0  0  0  0  0  0
   40.3730   83.5620   59.5430 C   0  0  0  0  0  0  0  0  0  0  0  0
   40.0680   84.1850   60.7090 N   0  0  0  0  0  0  0  0  0  0  0  0
   39.7440   83.4950   61.8210 C   0  0  0  0  0  0  0  0  0  0  0  0
   39.7180   82.1680   61.7870 N   0  0  0  0  0  0  0  0  0  0  0  0
   39.4310   84.1990   63.0240 N   0  0  0  0  0  0  0  0  0  0  0  0
   40.2140   83.9860   64.1990 C   0  0  0  0  0  0  0  0  0  0  0  0
   40.7460   82.8190   64.3520 N   0  0  0  0  0  0  0  0  0  0  0  0
   40.3550   85.0810   65.1260 N   0  0  0  0  0  0  0  0  0  0  0  0
   41.3340   82.5580   65.1730 H   0  0  0  0  0  0  0  0  0  0  0  0
   39.8380   75.8720   60.5060 C   0  0  0  0  0  0  0  0  0  0  0  0
   38.5930   75.2970   60.3940 C   0  0  0  0  0  0  0  0  0  0  0  0
   38.3580   73.9400   60.3580 C   0  0  0  0  0  0  0  0  0  0  0  0
   39.4220   73.0680   60.4370 C   0  0  0  0  0  0  0  0  0  0  0  0
   40.6750   73.6110   60.5500 C   0  0  0  0  0  0  0  0  0  0  0  0
   40.8800   74.9800   60.5840 C   0  0  0  0  0  0  0  0  0  0  0  0
   42.5650   75.5750   60.7350 S   0  0  0  0  0  0  0  0  0  0  0  0
   38.9367   79.8220   60.6070 H   0  0  0  0  0  0  0  0  0  0  0  0
   40.0395   79.9316   58.4879 H   0  0  0  0  0  0  0  0  0  0  0  0
   41.6065   79.5810   59.3109 H   0  0  0  0  0  0  0  0  0  0  0  0
   40.0572   77.4786   58.3529 H   0  0  0  0  0  0  0  0  0  0  0  0
   39.4065   78.0097   62.3570 H   0  0  0  0  0  0  0  0  0  0  0  0
   41.1450   77.3959   62.3438 H   0  0  0  0  0  0  0  0  0  0  0  0
   41.9568   79.3691   61.4174 H   0  0  0  0  0  0  0  0  0  0  0  0
   40.8313   79.9275   62.6501 H   0  0  0  0  0  0  0  0  0  0  0  0
   40.5849   81.6043   58.5784 H   0  0  0  0  0  0  0  0  0  0  0  0
   40.6355   84.1449   58.6478 H   0  0  0  0  0  0  0  0  0  0  0  0
   38.6411   84.8597   63.0438 H   0  0  0  0  0  0  0  0  0  0  0  0
   40.9129   84.9613   65.9835 H   0  0  0  0  0  0  0  0  0  0  0  0
   39.8978   85.9831   64.9308 H   0  0  0  0  0  0  0  0  0  0  0  0
   37.7240   75.9682   60.3286 H   0  0  0  0  0  0  0  0  0  0  0  0
   37.3311   73.5564   60.2671 H   0  0  0  0  0  0  0  0  0  0  0  0
   39.2714   71.9787   60.4104 H   0  0  0  0  0  0  0  0  0  0  0  0
   41.5437   72.9395   60.6156 H   0  0  0  0  0  0  0  0  0  0  0  0
   42.8915   75.6903   62.0605 H   0  0  0  0  0  0  0  0  0  0  0  0
  1  7  1  0
  1  6  1  0
  2  1  1  0
  3  2  1  0
  3  4  2  0
  4  5  1  0
  6  5  1  0
  7 12  2  0
  8  9  2  0
  8  7  1  0
  9 10  1  0
 10 11  2  0
 11 13  1  0
 12 11  1  0
 13 14  1  0
 14 15  2  0
 14 16  1  0
 15 17  1  0
 18  4  1  0
 18 23  1  0
 19 18  2  0
 20 19  1  0
 20 21  2  0
 21 22  1  0
 22 23  2  0
 23 24  1  0
  1 25  1  1
  2 26  1  0
  2 27  1  0
  3 28  1  0
  5 29  1  0
  5 30  1  0
  6 31  1  0
  6 32  1  0
  8 33  1  0
  9 34  1  0
 13 35  1  0
 16 36  1  0
 16 37  1  0
 19 38  1  0
 20 39  1  0
 21 40  1  0
 22 41  1  0
 24 42  1  0
M  END
>  <Score>  (1) 
-7.54397

$$$$
