
     RDKit          3D

 47 50  0  0  1  0  0  0  0  0999 V2000
   40.4590   83.6390   58.6320 C   0  0  0  0  0  0  0  0  0  0  0  0
   39.5990   84.4330   59.3900 C   0  0  0  0  0  0  0  0  0  0  0  0
   39.2250   83.9540   60.6480 C   0  0  0  0  0  0  0  0  0  0  0  0
   39.7170   82.7470   61.0590 N   0  0  0  0  0  0  0  0  0  0  0  0
   40.5390   82.0150   60.3020 C   0  0  0  0  0  0  0  0  0  0  0  0
   40.9170   82.4570   59.0770 N   0  0  0  0  0  0  0  0  0  0  0  0
   41.0030   80.7580   60.8230 N   0  0  0  0  0  0  0  0  0  0  0  0
   40.0970   79.7200   61.1680 C   0  0  0  0  0  0  0  0  0  0  0  0
   40.7620   78.3640   61.0780 C   0  0  0  0  0  0  0  0  0  0  0  0
   42.0100   78.2590   61.8880 C   0  0  0  0  0  0  0  0  0  0  0  0
   42.7800   79.5360   61.9880 C   0  0  0  0  0  0  0  0  0  0  0  0
   42.4280   80.5810   60.9880 C   0  0  2  0  0  0  0  0  0  0  0  0
   43.0210   81.8770   61.4770 C   0  0  0  0  0  0  0  0  0  0  0  0
   44.0350   82.5150   60.8010 C   0  0  0  0  0  0  0  0  0  0  0  0
   44.5240   83.7060   61.3190 C   0  0  0  0  0  0  0  0  0  0  0  0
   44.0120   84.2240   62.4630 N   0  0  0  0  0  0  0  0  0  0  0  0
   43.0120   83.5850   63.1170 C   0  0  0  0  0  0  0  0  0  0  0  0
   42.5240   82.4190   62.6230 N   0  0  0  0  0  0  0  0  0  0  0  0
   42.4730   84.1190   64.3100 N   0  0  0  0  0  0  0  0  0  0  0  0
   41.0740   84.1800   64.5170 C   0  0  0  0  0  0  0  0  0  0  0  0
   40.3080   83.3050   63.9230 N   0  0  0  0  0  0  0  0  0  0  0  0
   40.5620   85.2100   65.3780 N   0  0  0  0  0  0  0  0  0  0  0  0
   39.2620   83.3680   64.1010 H   0  0  0  0  0  0  0  0  0  0  0  0
   45.5710   84.3860   60.6430 N   0  0  0  0  0  0  0  0  0  0  0  0
   46.7590   83.8770   60.2980 C   0  0  0  0  0  0  0  0  0  0  0  0
   47.4870   84.8610   59.6600 C   0  0  0  0  0  0  0  0  0  0  0  0
   46.7130   85.9640   59.6310 N   0  0  0  0  0  0  0  0  0  0  0  0
   45.5450   85.6670   60.2330 C   0  0  0  0  0  0  0  0  0  0  0  0
   40.7723   83.9916   57.6383 H   0  0  0  0  0  0  0  0  0  0  0  0
   39.2298   85.3980   59.0125 H   0  0  0  0  0  0  0  0  0  0  0  0
   38.5498   84.5352   61.2931 H   0  0  0  0  0  0  0  0  0  0  0  0
   39.7436   79.8791   62.1974 H   0  0  0  0  0  0  0  0  0  0  0  0
   39.2540   79.7432   60.4617 H   0  0  0  0  0  0  0  0  0  0  0  0
   40.0513   77.6033   61.4332 H   0  0  0  0  0  0  0  0  0  0  0  0
   41.0450   78.2113   60.0260 H   0  0  0  0  0  0  0  0  0  0  0  0
   41.7366   77.9396   62.9045 H   0  0  0  0  0  0  0  0  0  0  0  0
   42.6609   77.5346   61.3766 H   0  0  0  0  0  0  0  0  0  0  0  0
   42.6096   79.9560   62.9903 H   0  0  0  0  0  0  0  0  0  0  0  0
   43.8287   79.2707   61.7885 H   0  0  0  0  0  0  0  0  0  0  0  0
   42.8227   80.2698   60.0096 H   0  0  0  0  0  0  0  0  0  0  0  0
   44.4478   82.0919   59.8733 H   0  0  0  0  0  0  0  0  0  0  0  0
   43.1088   84.4695   65.0406 H   0  0  0  0  0  0  0  0  0  0  0  0
   39.5489   85.2816   65.5493 H   0  0  0  0  0  0  0  0  0  0  0  0
   41.2081   85.8768   65.8240 H   0  0  0  0  0  0  0  0  0  0  0  0
   47.0983   82.8484   60.4902 H   0  0  0  0  0  0  0  0  0  0  0  0
   48.5043   84.7636   59.2531 H   0  0  0  0  0  0  0  0  0  0  0  0
   44.7032   86.3620   60.3680 H   0  0  0  0  0  0  0  0  0  0  0  0
  1  6  2  0
  1  2  1  0
  2  3  2  0
  3  4  1  0
  5  7  1  0
  5  4  2  0
  6  5  1  0
  7 12  1  0
  7  8  1  0
  9  8  1  0
  9 10  1  0
 10 11  1  0
 12 13  1  0
 12 11  1  0
 13 18  2  0
 14 15  2  0
 14 13  1  0
 15 16  1  0
 16 17  2  0
 17 19  1  0
 18 17  1  0
 19 20  1  0
 20 22  1  0
 21 23  1  0
 21 20  2  0
 24 15  1  0
 25 24  1  0
 26 25  2  0
 27 26  1  0
 27 28  2  0
 28 24  1  0
  1 29  1  0
  2 30  1  0
  3 31  1  0
  8 32  1  0
  8 33  1  0
  9 34  1  0
  9 35  1  0
 10 36  1  0
 10 37  1  0
 11 38  1  0
 11 39  1  0
 12 40  1  6
 14 41  1  0
 19 42  1  0
 22 43  1  0
 22 44  1  0
 25 45  1  0
 26 46  1  0
 28 47  1  0
M  END
>  <Score>  (1) 
-7.26278

$$$$
