
     RDKit          3D

 54 58  0  0  1  0  0  0  0  0999 V2000
   43.0280   82.0630   61.4110 C   0  0  0  0  0  0  0  0  0  0  0  0
   44.0030   82.7530   60.7280 C   0  0  0  0  0  0  0  0  0  0  0  0
   44.4600   83.9700   61.2590 C   0  0  0  0  0  0  0  0  0  0  0  0
   43.9290   84.4230   62.4190 N   0  0  0  0  0  0  0  0  0  0  0  0
   42.9790   83.7350   63.0700 C   0  0  0  0  0  0  0  0  0  0  0  0
   42.5430   82.5740   62.5640 N   0  0  0  0  0  0  0  0  0  0  0  0
   42.4500   84.2450   64.2770 N   0  0  0  0  0  0  0  0  0  0  0  0
   41.0500   84.2270   64.5270 C   0  0  0  0  0  0  0  0  0  0  0  0
   40.3120   83.3230   63.9350 N   0  0  0  0  0  0  0  0  0  0  0  0
   40.5060   85.2070   65.4210 N   0  0  0  0  0  0  0  0  0  0  0  0
   39.2720   83.3400   64.1360 H   0  0  0  0  0  0  0  0  0  0  0  0
   40.4130   83.7620   58.5720 C   0  0  0  0  0  0  0  0  0  0  0  0
   39.5320   84.5130   59.3330 C   0  0  0  0  0  0  0  0  0  0  0  0
   39.1660   84.0170   60.5860 C   0  0  0  0  0  0  0  0  0  0  0  0
   39.6990   82.8300   60.9790 N   0  0  0  0  0  0  0  0  0  0  0  0
   40.5510   82.1160   60.2300 C   0  0  0  0  0  0  0  0  0  0  0  0
   40.9190   82.5870   59.0010 N   0  0  0  0  0  0  0  0  0  0  0  0
   41.0530   80.8840   60.7310 N   0  0  0  0  0  0  0  0  0  0  0  0
   40.1860   79.8080   61.0630 C   0  0  0  0  0  0  0  0  0  0  0  0
   40.9020   78.4830   60.9520 C   0  0  0  0  0  0  0  0  0  0  0  0
   42.1460   78.4120   61.7650 C   0  0  0  0  0  0  0  0  0  0  0  0
   42.8850   79.7120   61.8790 C   0  0  0  0  0  0  0  0  0  0  0  0
   42.4970   80.7610   60.8940 C   0  0  2  0  0  0  0  0  0  0  0  0
   45.4900   84.5760   60.4160 C   0  0  0  0  0  0  0  0  0  0  0  0
   46.7490   84.1160   60.3640 N   0  0  0  0  0  0  0  0  0  0  0  0
   47.7000   84.6570   59.6030 C   0  0  0  0  0  0  0  0  0  0  0  0
   47.4960   85.7200   58.8050 N   0  0  0  0  0  0  0  0  0  0  0  0
   46.2440   86.2560   58.7920 C   0  0  0  0  0  0  0  0  0  0  0  0
   45.9970   87.3450   57.9890 C   0  0  0  0  0  0  0  0  0  0  0  0
   44.7440   87.9180   57.9460 C   0  0  0  0  0  0  0  0  0  0  0  0
   43.7680   87.3340   58.7520 C   0  0  0  0  0  0  0  0  0  0  0  0
   44.0660   86.2560   59.5290 C   0  0  0  0  0  0  0  0  0  0  0  0
   45.3000   85.6610   59.5960 C   0  0  0  0  0  0  0  0  0  0  0  0
   44.4153   82.3600   59.7869 H   0  0  0  0  0  0  0  0  0  0  0  0
   43.0873   84.6353   64.9858 H   0  0  0  0  0  0  0  0  0  0  0  0
   39.4956   85.2176   65.6205 H   0  0  0  0  0  0  0  0  0  0  0  0
   41.1256   85.9005   65.8638 H   0  0  0  0  0  0  0  0  0  0  0  0
   40.7109   84.1373   57.5818 H   0  0  0  0  0  0  0  0  0  0  0  0
   39.1337   85.4690   58.9622 H   0  0  0  0  0  0  0  0  0  0  0  0
   38.4691   84.5689   61.2338 H   0  0  0  0  0  0  0  0  0  0  0  0
   39.8291   79.9388   62.0952 H   0  0  0  0  0  0  0  0  0  0  0  0
   39.3400   79.8095   60.3600 H   0  0  0  0  0  0  0  0  0  0  0  0
   40.2196   77.6889   61.2893 H   0  0  0  0  0  0  0  0  0  0  0  0
   41.1956   78.3605   59.8990 H   0  0  0  0  0  0  0  0  0  0  0  0
   41.8766   78.0791   62.7782 H   0  0  0  0  0  0  0  0  0  0  0  0
   42.8193   77.7116   61.2492 H   0  0  0  0  0  0  0  0  0  0  0  0
   42.7099   80.1136   62.8880 H   0  0  0  0  0  0  0  0  0  0  0  0
   43.9395   79.4783   61.6706 H   0  0  0  0  0  0  0  0  0  0  0  0
   42.9093   80.4869   59.9117 H   0  0  0  0  0  0  0  0  0  0  0  0
   48.7049   84.2104   59.6290 H   0  0  0  0  0  0  0  0  0  0  0  0
   46.8079   87.7631   57.3746 H   0  0  0  0  0  0  0  0  0  0  0  0
   44.5261   88.7888   57.3102 H   0  0  0  0  0  0  0  0  0  0  0  0
   42.7487   87.7473   58.7605 H   0  0  0  0  0  0  0  0  0  0  0  0
   43.2601   85.8325   60.1465 H   0  0  0  0  0  0  0  0  0  0  0  0
  1  6  2  0
  2  3  2  0
  2  1  1  0
  3  4  1  0
  4  5  2  0
  5  7  1  0
  6  5  1  0
  7  8  1  0
  8 10  1  0
  9 11  1  0
  9  8  2  0
 12 17  2  0
 12 13  1  0
 13 14  2  0
 14 15  1  0
 16 18  1  0
 16 15  2  0
 17 16  1  0
 18 23  1  0
 18 19  1  0
 20 19  1  0
 20 21  1  0
 21 22  1  0
 23  1  1  0
 23 22  1  0
 24  3  1  0
 25 24  2  0
 26 25  1  0
 27 26  2  0
 28 27  1  0
 28 33  2  0
 29 28  1  0
 30 29  2  0
 30 31  1  0
 31 32  2  0
 32 33  1  0
 33 24  1  0
  2 34  1  0
  7 35  1  0
 10 36  1  0
 10 37  1  0
 12 38  1  0
 13 39  1  0
 14 40  1  0
 19 41  1  0
 19 42  1  0
 20 43  1  0
 20 44  1  0
 21 45  1  0
 21 46  1  0
 22 47  1  0
 22 48  1  0
 23 49  1  6
 26 50  1  0
 29 51  1  0
 30 52  1  0
 31 53  1  0
 32 54  1  0
M  END
>  <Score>  (1) 
-7.8158

$$$$
