
     RDKit          3D

 39 42  0  0  0  0  0  0  0  0999 V2000
   38.8570   80.0740   57.4620 O   0  0  0  0  0  0  0  0  0  0  0  0
   38.3220   79.0250   56.7940 C   0  0  0  0  0  0  0  0  0  0  0  0
   38.1190   77.7410   57.1410 C   0  0  0  0  0  0  0  0  0  0  0  0
   37.5220   77.1080   56.0550 C   0  0  0  0  0  0  0  0  0  0  0  0
   37.4000   78.0700   55.0820 C   0  0  0  0  0  0  0  0  0  0  0  0
   37.8860   79.1860   55.5680 O   0  0  0  0  0  0  0  0  0  0  0  0
   38.4980   76.8540   58.2080 C   0  0  0  0  0  0  0  0  0  0  0  0
   39.7680   76.4170   58.4400 C   0  0  0  0  0  0  0  0  0  0  0  0
   39.7810   75.5030   59.4160 N   0  0  0  0  0  0  0  0  0  0  0  0
   38.5010   75.3180   59.8510 C   0  0  0  0  0  0  0  0  0  0  0  0
   37.7970   76.1430   59.0990 N   0  0  0  0  0  0  0  0  0  0  0  0
   36.8210   77.8550   53.7250 C   0  0  0  0  0  0  0  0  0  0  0  0
   36.8060   78.9860   52.9960 F   0  0  0  0  0  0  0  0  0  0  0  0
   35.6110   77.2020   53.7730 F   0  0  0  0  0  0  0  0  0  0  0  0
   37.6650   76.9530   53.0340 F   0  0  0  0  0  0  0  0  0  0  0  0
   37.1400   75.7430   56.0280 N   0  0  0  0  0  0  0  0  0  0  0  0
   40.0800   80.2060   58.0640 C   0  0  0  0  0  0  0  0  0  0  0  0
   40.9670   80.1820   57.1560 O   0  0  0  0  0  0  0  0  0  0  0  0
   40.6860   81.4260   61.2900 C   0  0  0  0  0  0  0  0  0  0  0  0
   40.5500   80.0770   61.6670 C   0  0  0  0  0  0  0  0  0  0  0  0
   40.2960   79.4090   60.4670 C   0  0  0  0  0  0  0  0  0  0  0  0
   40.2880   80.3440   59.4600 C   0  0  0  0  0  0  0  0  0  0  0  0
   40.5200   81.4950   60.0040 O   0  0  0  0  0  0  0  0  0  0  0  0
   40.4670   83.8500   64.0690 C   0  0  0  0  0  0  0  0  0  0  0  0
   41.8080   84.2400   64.1810 C   0  0  0  0  0  0  0  0  0  0  0  0
   42.7350   83.6760   63.3140 C   0  0  0  0  0  0  0  0  0  0  0  0
   42.2440   82.7790   62.4190 N   0  0  0  0  0  0  0  0  0  0  0  0
   40.9660   82.4200   62.3270 C   0  0  0  0  0  0  0  0  0  0  0  0
   40.0920   82.9640   63.1590 N   0  0  0  0  0  0  0  0  0  0  0  0
   40.6593   76.7678   57.8990 H   0  0  0  0  0  0  0  0  0  0  0  0
   38.1414   74.6420   60.6407 H   0  0  0  0  0  0  0  0  0  0  0  0
   36.7752   76.2337   59.1918 H   0  0  0  0  0  0  0  0  0  0  0  0
   36.7022   75.3473   55.1838 H   0  0  0  0  0  0  0  0  0  0  0  0
   37.3003   75.1469   56.8526 H   0  0  0  0  0  0  0  0  0  0  0  0
   40.6263   79.6468   62.6765 H   0  0  0  0  0  0  0  0  0  0  0  0
   40.1317   78.3277   60.3491 H   0  0  0  0  0  0  0  0  0  0  0  0
   39.7164   84.2851   64.7453 H   0  0  0  0  0  0  0  0  0  0  0  0
   42.1193   84.9754   64.9375 H   0  0  0  0  0  0  0  0  0  0  0  0
   43.8024   83.9395   63.3497 H   0  0  0  0  0  0  0  0  0  0  0  0
  1 17  1  0
  2  3  2  0
  2  1  1  0
  3  7  1  0
  4  3  1  0
  5  6  1  0
  5  4  2  0
  6  2  1  0
  7  8  2  0
  7 11  1  0
  8  9  1  0
  9 10  2  0
 11 10  1  0
 12 14  1  0
 12  5  1  0
 13 12  1  0
 15 12  1  0
 16  4  1  0
 17 22  1  0
 18 17  2  0
 19 20  2  0
 19 28  1  0
 21 20  1  0
 22 23  1  0
 22 21  2  0
 23 19  1  0
 24 25  2  0
 26 25  1  0
 27 26  2  0
 28 27  1  0
 28 29  2  0
 29 24  1  0
  8 30  1  0
 10 31  1  0
 11 32  1  0
 16 33  1  0
 16 34  1  0
 20 35  1  0
 21 36  1  0
 24 37  1  0
 25 38  1  0
 26 39  1  0
M  END
>  <Score>  (1) 
-7.08964

$$$$
