
     RDKit          3D

 35 38  0  0  1  0  0  0  0  0999 V2000
   40.9350   80.7450   61.2940 N   0  0  0  0  0  0  0  0  0  0  0  0
   41.9190   80.5800   62.2050 C   0  0  0  0  0  0  0  0  0  0  0  0
   42.3300   79.2830   62.2130 N   0  0  0  0  0  0  0  0  0  0  0  0
   41.6210   78.6110   61.3150 C   0  0  0  0  0  0  0  0  0  0  0  0
   41.5350   77.3180   60.8380 C   0  0  2  0  0  0  0  0  0  0  0  0
   40.6550   76.9730   59.8720 N   0  0  0  0  0  0  0  0  0  0  0  0
   39.8100   77.8830   59.3240 C   0  0  0  0  0  0  0  0  0  0  0  0
   39.9130   79.1340   59.8040 N   0  0  0  0  0  0  0  0  0  0  0  0
   40.7560   79.5380   60.7520 C   0  0  0  0  0  0  0  0  0  0  0  0
   38.8630   77.6000   58.3110 N   0  0  0  0  0  0  0  0  0  0  0  0
   38.9150   78.4750   57.2750 C   0  0  0  0  0  0  0  0  0  0  0  0
   38.0500   78.3260   56.2080 C   0  0  0  0  0  0  0  0  0  0  0  0
   37.1110   77.2930   56.1620 C   0  0  0  0  0  0  0  0  0  0  0  0
   36.3270   77.1600   55.1930 O   0  0  0  0  0  0  0  0  0  0  0  0
   37.1250   76.4700   57.2270 N   0  0  0  0  0  0  0  0  0  0  0  0
   37.9600   76.6040   58.2700 C   0  0  0  0  0  0  0  0  0  0  0  0
   37.9750   75.8380   59.2650 O   0  0  0  0  0  0  0  0  0  0  0  0
   40.2940   81.9830   61.0440 C   0  0  0  0  0  0  0  0  0  0  0  0
   40.3960   82.7280   59.8520 C   0  0  0  0  0  0  0  0  0  0  0  0
   39.6970   83.9240   59.7780 C   0  0  0  0  0  0  0  0  0  0  0  0
   38.9450   84.3290   60.8520 N   0  0  0  0  0  0  0  0  0  0  0  0
   38.8760   83.5880   61.9690 C   0  0  0  0  0  0  0  0  0  0  0  0
   39.5500   82.4290   62.0490 N   0  0  0  0  0  0  0  0  0  0  0  0
   42.3970   76.3460   61.3840 N   0  0  0  0  0  0  0  0  0  0  0  0
   42.3272   81.3760   62.8451 H   0  0  0  0  0  0  0  0  0  0  0  0
   42.2858   77.5518   60.0689 H   0  0  0  0  0  0  0  0  0  0  0  0
   39.2836   79.8436   59.4026 H   0  0  0  0  0  0  0  0  0  0  0  0
   39.6429   79.2996   57.2847 H   0  0  0  0  0  0  0  0  0  0  0  0
   38.1022   79.0398   55.3726 H   0  0  0  0  0  0  0  0  0  0  0  0
   36.4536   75.6890   57.2429 H   0  0  0  0  0  0  0  0  0  0  0  0
   41.0084   82.3735   59.0098 H   0  0  0  0  0  0  0  0  0  0  0  0
   39.7450   84.5408   58.8685 H   0  0  0  0  0  0  0  0  0  0  0  0
   38.2673   83.9300   62.8191 H   0  0  0  0  0  0  0  0  0  0  0  0
   42.3574   76.3907   62.4123 H   0  0  0  0  0  0  0  0  0  0  0  0
   42.1026   75.4104   61.0694 H   0  0  0  0  0  0  0  0  0  0  0  0
  1  2  1  0
  2  3  2  0
  4  3  1  0
  5  4  1  0
  5 24  1  0
  6  5  1  0
  7  8  1  0
  7  6  2  0
  8  9  1  0
  9  1  1  0
  9  4  2  0
 10  7  1  0
 11 10  1  0
 12 11  2  0
 13 12  1  0
 13 15  1  0
 14 13  2  0
 15 16  1  0
 16 10  1  0
 16 17  2  0
 18  1  1  0
 18 23  1  0
 19 18  2  0
 20 19  1  0
 20 21  2  0
 21 22  1  0
 22 23  2  0
  2 25  1  0
  5 26  1  6
  8 27  1  0
 11 28  1  0
 12 29  1  0
 15 30  1  0
 19 31  1  0
 20 32  1  0
 22 33  1  0
 24 34  1  0
 24 35  1  0
M  END
>  <Score>  (1) 
-7.41605

$$$$
