
     RDKit          3D

 44 48  0  0  0  0  0  0  0  0999 V2000
   39.8380   82.2190   60.2920 C   0  0  0  0  0  0  0  0  0  0  0  0
   40.1930   83.1830   59.2970 C   0  0  0  0  0  0  0  0  0  0  0  0
   39.9830   84.5260   59.5700 C   0  0  0  0  0  0  0  0  0  0  0  0
   39.4330   84.8440   60.8260 N   0  0  0  0  0  0  0  0  0  0  0  0
   39.1080   83.8860   61.7560 C   0  0  0  0  0  0  0  0  0  0  0  0
   39.2990   82.5550   61.5200 N   0  0  0  0  0  0  0  0  0  0  0  0
   40.0730   80.8810   59.9190 N   0  0  0  0  0  0  0  0  0  0  0  0
   40.2080   80.3780   58.7070 C   0  0  0  0  0  0  0  0  0  0  0  0
   40.4470   79.0640   58.7630 N   0  0  0  0  0  0  0  0  0  0  0  0
   40.4630   78.7010   60.0530 C   0  0  0  0  0  0  0  0  0  0  0  0
   40.6380   77.4650   60.6260 C   0  0  0  0  0  0  0  0  0  0  0  0
   40.8580   76.4630   59.8710 O   0  0  0  0  0  0  0  0  0  0  0  0
   40.5670   77.3810   61.9660 N   0  0  0  0  0  0  0  0  0  0  0  0
   40.3360   78.4730   62.6740 C   0  0  0  0  0  0  0  0  0  0  0  0
   40.2520   78.2130   64.0420 N   0  0  0  0  0  0  0  0  0  0  0  0
   40.1630   79.7120   62.1510 N   0  0  0  0  0  0  0  0  0  0  0  0
   40.2220   79.8660   60.8000 C   0  0  0  0  0  0  0  0  0  0  0  0
   40.0970   80.9090   57.3650 C   0  0  0  0  0  0  0  0  0  0  0  0
   40.3020   79.8620   56.2740 C   0  0  0  0  0  0  0  0  0  0  0  0
   41.5270   79.3190   55.9030 C   0  0  0  0  0  0  0  0  0  0  0  0
   41.4200   78.4330   54.9190 N   0  0  0  0  0  0  0  0  0  0  0  0
   40.1270   78.3890   54.6390 C   0  0  0  0  0  0  0  0  0  0  0  0
   39.4320   77.6380   53.7030 C   0  0  0  0  0  0  0  0  0  0  0  0
   38.0490   77.7540   53.5870 C   0  0  0  0  0  0  0  0  0  0  0  0
   37.3760   78.6240   54.4140 C   0  0  0  0  0  0  0  0  0  0  0  0
   38.0200   79.4070   55.3740 C   0  0  0  0  0  0  0  0  0  0  0  0
   39.4030   79.2430   55.4390 C   0  0  0  0  0  0  0  0  0  0  0  0
   37.2530   80.3130   56.2290 C   0  0  0  0  0  0  0  0  0  0  0  0
   40.6234   82.8657   58.3357 H   0  0  0  0  0  0  0  0  0  0  0  0
   40.2348   85.3076   58.8381 H   0  0  0  0  0  0  0  0  0  0  0  0
   38.6811   84.2011   62.7196 H   0  0  0  0  0  0  0  0  0  0  0  0
   40.6916   76.4734   62.4368 H   0  0  0  0  0  0  0  0  0  0  0  0
   40.0745   78.9830   64.7026 H   0  0  0  0  0  0  0  0  0  0  0  0
   40.3675   77.2510   64.3914 H   0  0  0  0  0  0  0  0  0  0  0  0
   39.0938   81.3440   57.2452 H   0  0  0  0  0  0  0  0  0  0  0  0
   40.8947   81.6572   57.2475 H   0  0  0  0  0  0  0  0  0  0  0  0
   42.4824   79.5936   56.3739 H   0  0  0  0  0  0  0  0  0  0  0  0
   42.1776   77.8974   54.4717 H   0  0  0  0  0  0  0  0  0  0  0  0
   39.9779   76.9446   53.0464 H   0  0  0  0  0  0  0  0  0  0  0  0
   37.5010   77.1572   52.8430 H   0  0  0  0  0  0  0  0  0  0  0  0
   36.2836   78.7061   54.3144 H   0  0  0  0  0  0  0  0  0  0  0  0
   37.4524   80.0775   57.2848 H   0  0  0  0  0  0  0  0  0  0  0  0
   37.5504   81.3517   56.0225 H   0  0  0  0  0  0  0  0  0  0  0  0
   36.1795   80.1911   56.0225 H   0  0  0  0  0  0  0  0  0  0  0  0
  1  6  2  0
  2  3  2  0
  2  1  1  0
  3  4  1  0
  4  5  2  0
  6  5  1  0
  7  1  1  0
  7 17  1  0
  8  9  2  0
  8  7  1  0
  9 10  1  0
 10 11  1  0
 10 17  2  0
 11 13  1  0
 12 11  2  0
 13 14  1  0
 14 15  1  0
 16 14  2  0
 17 16  1  0
 18  8  1  0
 19 18  1  0
 20 19  2  0
 21 20  1  0
 22 21  1  0
 22 27  2  0
 23 22  1  0
 24 23  2  0
 24 25  1  0
 25 26  2  0
 26 27  1  0
 26 28  1  0
 27 19  1  0
  2 29  1  0
  3 30  1  0
  5 31  1  0
 13 32  1  0
 15 33  1  0
 15 34  1  0
 18 35  1  0
 18 36  1  0
 20 37  1  0
 21 38  1  0
 23 39  1  0
 24 40  1  0
 25 41  1  0
 28 42  1  0
 28 43  1  0
 28 44  1  0
M  END
>  <Score>  (1) 
-7.50203

$$$$
