
     RDKit          3D

 52 56  0  0  0  0  0  0  0  0999 V2000
   40.9530   80.5940   61.6540 N   0  0  0  0  0  0  0  0  0  0  0  0
   40.9130   79.4570   62.3990 C   0  0  0  0  0  0  0  0  0  0  0  0
   40.5780   78.2710   61.7900 C   0  0  0  0  0  0  0  0  0  0  0  0
   40.2840   78.2240   60.4410 C   0  0  0  0  0  0  0  0  0  0  0  0
   39.9920   77.1140   59.9590 O   0  0  0  0  0  0  0  0  0  0  0  0
   40.3330   79.3460   59.7530 N   0  0  0  0  0  0  0  0  0  0  0  0
   40.6630   80.5350   60.3310 C   0  0  0  0  0  0  0  0  0  0  0  0
   40.6680   81.5090   59.5420 O   0  0  0  0  0  0  0  0  0  0  0  0
   41.2770   81.8930   62.1230 C   0  0  0  0  0  0  0  0  0  0  0  0
   42.3520   82.5710   61.5650 C   0  0  0  0  0  0  0  0  0  0  0  0
   42.6640   83.8770   62.0390 C   0  0  0  0  0  0  0  0  0  0  0  0
   41.8540   84.3830   63.0430 N   0  0  0  0  0  0  0  0  0  0  0  0
   40.8330   83.6690   63.5330 C   0  0  0  0  0  0  0  0  0  0  0  0
   40.5370   82.4480   63.0940 N   0  0  0  0  0  0  0  0  0  0  0  0
   40.0670   84.2900   64.5610 N   0  0  0  0  0  0  0  0  0  0  0  0
   43.7240   84.6430   61.5470 N   0  0  0  0  0  0  0  0  0  0  0  0
   43.7240   85.9000   61.9700 N   0  0  0  0  0  0  0  0  0  0  0  0
   44.7630   86.5600   61.4630 C   0  0  0  0  0  0  0  0  0  0  0  0
   45.4490   85.6730   60.6830 C   0  0  0  0  0  0  0  0  0  0  0  0
   44.7840   84.4720   60.7460 C   0  0  0  0  0  0  0  0  0  0  0  0
   39.9650   79.2260   58.3510 C   0  0  0  0  0  0  0  0  0  0  0  0
   39.7380   80.4650   57.5960 C   0  0  0  0  0  0  0  0  0  0  0  0
   41.1570   78.5340   57.6060 C   0  0  0  0  0  0  0  0  0  0  0  0
   38.8220   78.2710   58.1060 C   0  0  0  0  0  0  0  0  0  0  0  0
   38.1340   78.5430   56.8060 N   0  0  0  0  0  0  0  0  0  0  0  0
   37.5860   79.6900   56.2950 C   0  0  0  0  0  0  0  0  0  0  0  0
   37.0640   79.4770   55.0810 N   0  0  0  0  0  0  0  0  0  0  0  0
   37.2580   78.2010   54.7770 C   0  0  0  0  0  0  0  0  0  0  0  0
   36.9650   77.3840   53.7050 C   0  0  0  0  0  0  0  0  0  0  0  0
   37.2780   76.0770   53.6330 N   0  0  0  0  0  0  0  0  0  0  0  0
   37.9220   75.5310   54.6800 C   0  0  0  0  0  0  0  0  0  0  0  0
   38.2310   76.2860   55.7500 N   0  0  0  0  0  0  0  0  0  0  0  0
   37.9150   77.6090   55.8260 C   0  0  0  0  0  0  0  0  0  0  0  0
   41.1454   79.4859   63.4738 H   0  0  0  0  0  0  0  0  0  0  0  0
   40.5436   77.3465   62.3851 H   0  0  0  0  0  0  0  0  0  0  0  0
   42.9533   82.1069   60.7694 H   0  0  0  0  0  0  0  0  0  0  0  0
   39.2680   83.7928   64.9796 H   0  0  0  0  0  0  0  0  0  0  0  0
   40.3122   85.2362   64.8857 H   0  0  0  0  0  0  0  0  0  0  0  0
   45.0194   87.6152   61.6383 H   0  0  0  0  0  0  0  0  0  0  0  0
   46.3647   85.8815   60.1102 H   0  0  0  0  0  0  0  0  0  0  0  0
   45.0695   83.5417   60.2332 H   0  0  0  0  0  0  0  0  0  0  0  0
   39.5852   81.2988   58.2970 H   0  0  0  0  0  0  0  0  0  0  0  0
   40.6128   80.6740   56.9627 H   0  0  0  0  0  0  0  0  0  0  0  0
   38.8459   80.3503   56.9627 H   0  0  0  0  0  0  0  0  0  0  0  0
   41.8624   78.1245   58.3440 H   0  0  0  0  0  0  0  0  0  0  0  0
   40.7718   77.7191   56.9755 H   0  0  0  0  0  0  0  0  0  0  0  0
   41.6736   79.2726   56.9755 H   0  0  0  0  0  0  0  0  0  0  0  0
   39.2144   77.2435   58.0921 H   0  0  0  0  0  0  0  0  0  0  0  0
   38.0877   78.4053   58.9139 H   0  0  0  0  0  0  0  0  0  0  0  0
   37.5763   80.6595   56.8146 H   0  0  0  0  0  0  0  0  0  0  0  0
   36.4388   77.8319   52.8492 H   0  0  0  0  0  0  0  0  0  0  0  0
   38.1964   74.4659   54.6615 H   0  0  0  0  0  0  0  0  0  0  0  0
  1  9  1  0
  1  2  1  0
  3  2  2  0
  4  3  1  0
  5  4  2  0
  6  7  1  0
  6  4  1  0
  7  1  1  0
  8  7  2  0
  9 14  2  0
 10 11  2  0
 10  9  1  0
 11 12  1  0
 12 13  2  0
 13 15  1  0
 14 13  1  0
 16 17  1  0
 16 11  1  0
 18 17  2  0
 19 20  2  0
 19 18  1  0
 20 16  1  0
 21  6  1  0
 22 21  1  0
 23 21  1  0
 24 21  1  0
 25 24  1  0
 26 25  1  0
 27 26  2  0
 28 27  1  0
 28 33  2  0
 29 28  1  0
 30 29  2  0
 30 31  1  0
 31 32  2  0
 32 33  1  0
 33 25  1  0
  2 34  1  0
  3 35  1  0
 10 36  1  0
 15 37  1  0
 15 38  1  0
 18 39  1  0
 19 40  1  0
 20 41  1  0
 22 42  1  0
 22 43  1  0
 22 44  1  0
 23 45  1  0
 23 46  1  0
 23 47  1  0
 24 48  1  0
 24 49  1  0
 26 50  1  0
 29 51  1  0
 31 52  1  0
M  END
>  <Score>  (1) 
-7.721

$$$$
