
     RDKit          3D

 44 49  0  0  0  0  0  0  0  0999 V2000
   41.8050   86.0730   57.6440 C   0  0  0  0  0  0  0  0  0  0  0  0
   41.5340   84.9330   56.8260 C   0  0  0  0  0  0  0  0  0  0  0  0
   41.6400   83.6750   57.4100 C   0  0  0  0  0  0  0  0  0  0  0  0
   41.9880   83.6260   58.7010 N   0  0  0  0  0  0  0  0  0  0  0  0
   42.2420   84.6900   59.4710 C   0  0  0  0  0  0  0  0  0  0  0  0
   42.1480   85.9100   58.9350 N   0  0  0  0  0  0  0  0  0  0  0  0
   42.6170   84.5820   60.8650 C   0  0  0  0  0  0  0  0  0  0  0  0
   43.8630   84.7660   61.4380 C   0  0  0  0  0  0  0  0  0  0  0  0
   43.8300   84.5810   62.7700 N   0  0  0  0  0  0  0  0  0  0  0  0
   42.5540   84.2770   63.0530 C   0  0  0  0  0  0  0  0  0  0  0  0
   41.9210   83.9830   64.2700 C   0  0  0  0  0  0  0  0  0  0  0  0
   40.5520   83.6990   64.2570 C   0  0  0  0  0  0  0  0  0  0  0  0
   39.8020   83.6980   63.1020 C   0  0  0  0  0  0  0  0  0  0  0  0
   40.4410   83.9860   61.9260 C   0  0  0  0  0  0  0  0  0  0  0  0
   41.7910   84.2700   61.9180 C   0  0  0  0  0  0  0  0  0  0  0  0
   41.3750   82.4610   56.6230 C   0  0  0  0  0  0  0  0  0  0  0  0
   42.2390   82.1100   55.5780 C   0  0  0  0  0  0  0  0  0  0  0  0
   41.4990   80.5450   54.9090 S   0  0  0  0  0  0  0  0  0  0  0  0
   40.1300   80.6660   56.2000 C   0  0  0  0  0  0  0  0  0  0  0  0
   40.3980   81.5970   56.7490 N   0  0  0  0  0  0  0  0  0  0  0  0
   39.0150   79.6780   56.3420 C   0  0  0  0  0  0  0  0  0  0  0  0
   37.8650   79.7010   55.5790 C   0  0  0  0  0  0  0  0  0  0  0  0
   37.1610   78.6530   56.0370 N   0  0  0  0  0  0  0  0  0  0  0  0
   37.7820   77.9870   57.0210 C   0  0  0  0  0  0  0  0  0  0  0  0
   37.4370   76.8770   57.7670 C   0  0  0  0  0  0  0  0  0  0  0  0
   38.2920   76.4010   58.7370 C   0  0  0  0  0  0  0  0  0  0  0  0
   39.5130   77.0360   58.9710 C   0  0  0  0  0  0  0  0  0  0  0  0
   39.7940   78.1400   58.1890 C   0  0  0  0  0  0  0  0  0  0  0  0
   38.9790   78.6450   57.2210 C   0  0  0  0  0  0  0  0  0  0  0  0
   41.7332   87.0846   57.2180 H   0  0  0  0  0  0  0  0  0  0  0  0
   41.2509   85.0466   55.7692 H   0  0  0  0  0  0  0  0  0  0  0  0
   44.7692   85.0310   60.8736 H   0  0  0  0  0  0  0  0  0  0  0  0
   44.6161   84.6565   63.4313 H   0  0  0  0  0  0  0  0  0  0  0  0
   42.4884   83.9761   65.2123 H   0  0  0  0  0  0  0  0  0  0  0  0
   40.0531   83.4666   65.2094 H   0  0  0  0  0  0  0  0  0  0  0  0
   38.7254   83.4733   63.1236 H   0  0  0  0  0  0  0  0  0  0  0  0
   39.8752   83.9910   60.9827 H   0  0  0  0  0  0  0  0  0  0  0  0
   43.1418   82.6368   55.2352 H   0  0  0  0  0  0  0  0  0  0  0  0
   37.5902   80.4099   54.7840 H   0  0  0  0  0  0  0  0  0  0  0  0
   36.2363   78.3874   55.6690 H   0  0  0  0  0  0  0  0  0  0  0  0
   36.4769   76.3715   57.5862 H   0  0  0  0  0  0  0  0  0  0  0  0
   38.0115   75.5174   59.3291 H   0  0  0  0  0  0  0  0  0  0  0  0
   40.2148   76.6763   59.7379 H   0  0  0  0  0  0  0  0  0  0  0  0
   40.7521   78.6520   58.3618 H   0  0  0  0  0  0  0  0  0  0  0  0
  1  6  2  0
  2  3  2  0
  2  1  1  0
  3  4  1  0
  4  5  2  0
  5  7  1  0
  6  5  1  0
  7  8  2  0
  7 15  1  0
  8  9  1  0
  9 10  1  0
 10 11  2  0
 12 11  1  0
 13 12  2  0
 14 13  1  0
 15 14  2  0
 15 10  1  0
 16 20  1  0
 16  3  1  0
 17 16  2  0
 18 17  1  0
 18 19  1  0
 19 21  1  0
 19 20  2  0
 21 29  1  0
 22 23  1  0
 22 21  2  0
 23 24  1  0
 24 29  2  0
 24 25  1  0
 25 26  2  0
 26 27  1  0
 28 27  2  0
 29 28  1  0
  1 30  1  0
  2 31  1  0
  8 32  1  0
  9 33  1  0
 11 34  1  0
 12 35  1  0
 13 36  1  0
 14 37  1  0
 17 38  1  0
 22 39  1  0
 23 40  1  0
 25 41  1  0
 26 42  1  0
 27 43  1  0
 28 44  1  0
M  END
>  <Score>  (1) 
-7.25748

$$$$
