
     RDKit          3D

 42 46  0  0  0  0  0  0  0  0999 V2000
   41.9650   83.5700   61.0810 C   0  0  0  0  0  0  0  0  0  0  0  0
   40.9950   83.7350   62.0790 C   0  0  0  0  0  0  0  0  0  0  0  0
   39.8280   82.9910   62.0750 C   0  0  0  0  0  0  0  0  0  0  0  0
   39.6370   82.0840   61.0700 N   0  0  0  0  0  0  0  0  0  0  0  0
   40.5800   81.9350   60.1140 C   0  0  0  0  0  0  0  0  0  0  0  0
   41.6920   82.6580   60.1360 N   0  0  0  0  0  0  0  0  0  0  0  0
   40.2910   80.9660   59.1090 N   0  0  0  0  0  0  0  0  0  0  0  0
   40.1270   81.1800   57.7880 C   0  0  0  0  0  0  0  0  0  0  0  0
   39.8650   80.0090   57.1670 N   0  0  0  0  0  0  0  0  0  0  0  0
   39.8750   79.0790   58.1460 C   0  0  0  0  0  0  0  0  0  0  0  0
   39.6580   77.7030   58.0270 C   0  0  0  0  0  0  0  0  0  0  0  0
   39.4200   77.1790   56.9290 O   0  0  0  0  0  0  0  0  0  0  0  0
   39.7130   76.9400   59.1460 N   0  0  0  0  0  0  0  0  0  0  0  0
   39.9740   77.5540   60.3090 C   0  0  0  0  0  0  0  0  0  0  0  0
   40.0180   76.7010   61.4420 N   0  0  0  0  0  0  0  0  0  0  0  0
   40.1920   78.8690   60.4930 N   0  0  0  0  0  0  0  0  0  0  0  0
   40.1440   79.6600   59.3910 C   0  0  0  0  0  0  0  0  0  0  0  0
   45.3140   88.4050   57.5390 C   0  0  0  0  0  0  0  0  0  0  0  0
   44.8130   89.6550   57.9980 C   0  0  0  0  0  0  0  0  0  0  0  0
   44.1870   89.6740   59.2410 C   0  0  0  0  0  0  0  0  0  0  0  0
   44.0760   88.5250   59.9610 N   0  0  0  0  0  0  0  0  0  0  0  0
   44.5700   87.3470   59.4850 C   0  0  0  0  0  0  0  0  0  0  0  0
   45.1740   87.3040   58.2970 N   0  0  0  0  0  0  0  0  0  0  0  0
   44.4430   86.1560   60.2570 N   0  0  0  0  0  0  0  0  0  0  0  0
   45.4800   85.7010   60.9730 C   0  0  0  0  0  0  0  0  0  0  0  0
   45.4670   84.5690   61.7500 C   0  0  0  0  0  0  0  0  0  0  0  0
   44.2580   83.8960   61.7450 C   0  0  0  0  0  0  0  0  0  0  0  0
   44.1500   82.8430   62.4300 O   0  0  0  0  0  0  0  0  0  0  0  0
   43.1770   84.3090   61.0410 N   0  0  0  0  0  0  0  0  0  0  0  0
   43.2820   85.4270   60.3100 C   0  0  0  0  0  0  0  0  0  0  0  0
   42.2830   85.8330   59.6420 O   0  0  0  0  0  0  0  0  0  0  0  0
   41.1643   84.4694   62.8803 H   0  0  0  0  0  0  0  0  0  0  0  0
   39.0717   83.1263   62.8622 H   0  0  0  0  0  0  0  0  0  0  0  0
   40.1960   82.1591   57.2913 H   0  0  0  0  0  0  0  0  0  0  0  0
   39.5594   75.9224   59.1043 H   0  0  0  0  0  0  0  0  0  0  0  0
   40.2127   77.0929   62.3744 H   0  0  0  0  0  0  0  0  0  0  0  0
   39.8552   75.6899   61.3320 H   0  0  0  0  0  0  0  0  0  0  0  0
   45.8165   88.3396   56.5627 H   0  0  0  0  0  0  0  0  0  0  0  0
   44.9162   90.5692   57.3951 H   0  0  0  0  0  0  0  0  0  0  0  0
   43.7829   90.6159   59.6403 H   0  0  0  0  0  0  0  0  0  0  0  0
   46.4148   86.2795   60.9354 H   0  0  0  0  0  0  0  0  0  0  0  0
   46.3401   84.2275   62.3253 H   0  0  0  0  0  0  0  0  0  0  0  0
  1  2  2  0
  3  2  1  0
  4  3  2  0
  5  6  2  0
  5  4  1  0
  6  1  1  0
  7 17  1  0
  7  5  1  0
  8  7  1  0
  9  8  2  0
  9 10  1  0
 10 17  2  0
 11 10  1  0
 11 13  1  0
 12 11  2  0
 13 14  1  0
 14 16  2  0
 14 15  1  0
 17 16  1  0
 18 19  2  0
 18 23  1  0
 19 20  1  0
 20 21  2  0
 22 21  1  0
 22 24  1  0
 23 22  2  0
 24 30  1  0
 24 25  1  0
 25 26  2  0
 27 26  1  0
 27 28  2  0
 29  1  1  0
 29 27  1  0
 30 29  1  0
 31 30  2  0
  2 32  1  0
  3 33  1  0
  8 34  1  0
 13 35  1  0
 15 36  1  0
 15 37  1  0
 18 38  1  0
 19 39  1  0
 20 40  1  0
 25 41  1  0
 26 42  1  0
M  END
>  <Score>  (1) 
-7.36373

$$$$
