
     RDKit          3D

 44 48  0  0  0  0  0  0  0  0999 V2000
   45.5470   87.1900   57.4010 C   0  0  0  0  0  0  0  0  0  0  0  0
   45.2240   88.5540   57.6410 C   0  0  0  0  0  0  0  0  0  0  0  0
   44.6320   88.8710   58.8650 C   0  0  0  0  0  0  0  0  0  0  0  0
   44.3910   87.8790   59.7680 N   0  0  0  0  0  0  0  0  0  0  0  0
   44.7200   86.5730   59.4940 C   0  0  0  0  0  0  0  0  0  0  0  0
   45.2890   86.2470   58.3260 N   0  0  0  0  0  0  0  0  0  0  0  0
   44.4590   85.5620   60.4500 N   0  0  0  0  0  0  0  0  0  0  0  0
   45.4520   85.0790   61.2180 C   0  0  0  0  0  0  0  0  0  0  0  0
   45.3180   84.1030   62.1740 C   0  0  0  0  0  0  0  0  0  0  0  0
   44.0300   83.6230   62.3060 C   0  0  0  0  0  0  0  0  0  0  0  0
   43.7960   82.7280   63.1520 O   0  0  0  0  0  0  0  0  0  0  0  0
   42.9850   84.0710   61.5610 N   0  0  0  0  0  0  0  0  0  0  0  0
   43.2180   85.0180   60.6610 C   0  0  0  0  0  0  0  0  0  0  0  0
   42.2520   85.4570   59.9430 O   0  0  0  0  0  0  0  0  0  0  0  0
   41.6750   83.5300   61.7450 C   0  0  0  0  0  0  0  0  0  0  0  0
   40.6080   84.2080   62.2910 C   0  0  0  0  0  0  0  0  0  0  0  0
   39.3860   83.5980   62.4260 C   0  0  0  0  0  0  0  0  0  0  0  0
   39.2310   82.3210   62.0180 N   0  0  0  0  0  0  0  0  0  0  0  0
   40.2520   81.6430   61.4850 C   0  0  0  0  0  0  0  0  0  0  0  0
   41.3940   82.2840   61.3840 N   0  0  0  0  0  0  0  0  0  0  0  0
   40.3310   80.2690   60.9750 C   0  0  0  0  0  0  0  0  0  0  0  0
   40.5510   79.1520   61.7910 C   0  0  0  0  0  0  0  0  0  0  0  0
   40.6270   77.8720   61.3310 C   0  0  0  0  0  0  0  0  0  0  0  0
   40.4850   77.6060   59.9890 C   0  0  0  0  0  0  0  0  0  0  0  0
   40.2690   78.6570   59.1350 C   0  0  0  0  0  0  0  0  0  0  0  0
   40.1330   78.3540   57.8030 C   0  0  0  0  0  0  0  0  0  0  0  0
   39.9130   79.3520   56.8790 C   0  0  0  0  0  0  0  0  0  0  0  0
   39.8370   80.6620   57.3670 C   0  0  0  0  0  0  0  0  0  0  0  0
   39.9810   80.9010   58.7140 C   0  0  0  0  0  0  0  0  0  0  0  0
   40.2010   79.9260   59.6530 C   0  0  0  0  0  0  0  0  0  0  0  0
   46.0136   86.9020   56.4474 H   0  0  0  0  0  0  0  0  0  0  0  0
   45.4328   89.3304   56.8902 H   0  0  0  0  0  0  0  0  0  0  0  0
   44.3626   89.9116   59.0984 H   0  0  0  0  0  0  0  0  0  0  0  0
   46.4563   85.5018   61.0673 H   0  0  0  0  0  0  0  0  0  0  0  0
   46.1600   83.7367   62.7797 H   0  0  0  0  0  0  0  0  0  0  0  0
   40.7364   85.2490   62.6223 H   0  0  0  0  0  0  0  0  0  0  0  0
   38.5387   84.1462   62.8638 H   0  0  0  0  0  0  0  0  0  0  0  0
   40.6699   79.3189   62.8717 H   0  0  0  0  0  0  0  0  0  0  0  0
   40.8029   77.0467   62.0366 H   0  0  0  0  0  0  0  0  0  0  0  0
   40.5433   76.5750   59.6099 H   0  0  0  0  0  0  0  0  0  0  0  0
   40.2001   77.3074   57.4712 H   0  0  0  0  0  0  0  0  0  0  0  0
   39.8022   79.1298   55.8074 H   0  0  0  0  0  0  0  0  0  0  0  0
   39.6624   81.4987   56.6745 H   0  0  0  0  0  0  0  0  0  0  0  0
   39.9154   81.9428   59.0608 H   0  0  0  0  0  0  0  0  0  0  0  0
  1  2  2  0
  1  6  1  0
  2  3  1  0
  3  4  2  0
  5  4  1  0
  5  7  1  0
  6  5  2  0
  7 13  1  0
  7  8  1  0
  8  9  2  0
  9 10  1  0
 10 11  2  0
 12 15  1  0
 12 10  1  0
 13 12  1  0
 14 13  2  0
 15 16  2  0
 16 17  1  0
 18 17  2  0
 19 18  1  0
 20 19  2  0
 20 15  1  0
 21 19  1  0
 21 22  2  0
 23 22  1  0
 24 23  2  0
 25 30  2  0
 25 24  1  0
 26 25  1  0
 27 28  1  0
 27 26  2  0
 28 29  2  0
 29 30  1  0
 30 21  1  0
  1 31  1  0
  2 32  1  0
  3 33  1  0
  8 34  1  0
  9 35  1  0
 16 36  1  0
 17 37  1  0
 22 38  1  0
 23 39  1  0
 24 40  1  0
 26 41  1  0
 27 42  1  0
 28 43  1  0
 29 44  1  0
M  END
>  <Score>  (1) 
-7.38718

$$$$
