
     RDKit          3D

 49 53  0  0  1  0  0  0  0  0999 V2000
   40.3220   79.5800   60.1360 C   0  0  0  0  0  0  0  0  0  0  0  0
   40.4630   78.6190   59.1480 C   0  0  0  0  0  0  0  0  0  0  0  0
   40.5790   77.2810   59.4560 C   0  0  0  0  0  0  0  0  0  0  0  0
   40.5460   76.9630   60.7890 N   0  0  0  0  0  0  0  0  0  0  0  0
   40.4090   77.8970   61.7630 C   0  0  0  0  0  0  0  0  0  0  0  0
   40.2980   79.1940   61.4310 N   0  0  0  0  0  0  0  0  0  0  0  0
   40.2110   80.9310   59.7140 N   0  0  0  0  0  0  0  0  0  0  0  0
   40.2350   81.3830   58.4540 C   0  0  0  0  0  0  0  0  0  0  0  0
   40.1010   82.7170   58.4180 N   0  0  0  0  0  0  0  0  0  0  0  0
   39.9890   83.1140   59.7080 C   0  0  0  0  0  0  0  0  0  0  0  0
   39.8330   84.3820   60.2320 C   0  0  0  0  0  0  0  0  0  0  0  0
   39.7770   85.3620   59.4240 O   0  0  0  0  0  0  0  0  0  0  0  0
   39.7450   84.5190   61.5710 N   0  0  0  0  0  0  0  0  0  0  0  0
   39.8130   83.4280   62.3550 C   0  0  0  0  0  0  0  0  0  0  0  0
   39.7070   83.7370   63.7250 N   0  0  0  0  0  0  0  0  0  0  0  0
   39.9660   82.1840   61.8560 N   0  0  0  0  0  0  0  0  0  0  0  0
   40.0580   81.9920   60.5380 C   0  0  0  0  0  0  0  0  0  0  0  0
   40.7260   76.2520   58.4800 N   0  0  0  0  0  0  0  0  0  0  0  0
   42.0350   75.9580   57.9600 C   0  0  0  0  0  0  0  0  0  0  0  0
   42.2260   74.5860   57.4420 C   0  0  0  0  0  0  0  0  0  0  0  0
   41.0090   73.7150   57.6020 C   0  0  0  0  0  0  0  0  0  0  0  0
   39.8060   74.4560   57.1040 C   0  0  0  0  0  0  0  0  0  0  0  0
   39.5230   75.5690   58.0760 C   0  0  2  0  0  0  0  0  0  0  0  0
   38.7240   76.5810   57.3100 C   0  0  0  0  0  0  0  0  0  0  0  0
   39.1880   77.2150   56.1760 C   0  0  0  0  0  0  0  0  0  0  0  0
   38.4310   78.1420   55.4910 C   0  0  0  0  0  0  0  0  0  0  0  0
   37.1680   78.4730   55.9240 C   0  0  0  0  0  0  0  0  0  0  0  0
   36.6730   77.8600   57.0530 C   0  0  0  0  0  0  0  0  0  0  0  0
   37.4580   76.9370   57.7130 C   0  0  0  0  0  0  0  0  0  0  0  0
   40.4828   78.9313   58.0935 H   0  0  0  0  0  0  0  0  0  0  0  0
   40.3889   77.5938   62.8202 H   0  0  0  0  0  0  0  0  0  0  0  0
   40.3495   80.7446   57.5656 H   0  0  0  0  0  0  0  0  0  0  0  0
   39.6266   85.4524   61.9902 H   0  0  0  0  0  0  0  0  0  0  0  0
   39.7451   82.9844   64.4271 H   0  0  0  0  0  0  0  0  0  0  0  0
   39.5914   84.7156   64.0248 H   0  0  0  0  0  0  0  0  0  0  0  0
   42.2380   76.6607   57.1384 H   0  0  0  0  0  0  0  0  0  0  0  0
   42.7247   76.0558   58.8113 H   0  0  0  0  0  0  0  0  0  0  0  0
   43.0621   74.1210   57.9849 H   0  0  0  0  0  0  0  0  0  0  0  0
   42.4276   74.6697   56.3639 H   0  0  0  0  0  0  0  0  0  0  0  0
   41.1388   72.7905   57.0203 H   0  0  0  0  0  0  0  0  0  0  0  0
   40.8734   73.4596   58.6633 H   0  0  0  0  0  0  0  0  0  0  0  0
   40.0082   74.8719   56.1059 H   0  0  0  0  0  0  0  0  0  0  0  0
   38.9409   73.7810   57.0269 H   0  0  0  0  0  0  0  0  0  0  0  0
   39.0258   75.1541   58.9652 H   0  0  0  0  0  0  0  0  0  0  0  0
   40.1952   76.9730   55.8059 H   0  0  0  0  0  0  0  0  0  0  0  0
   38.8410   78.6213   54.5898 H   0  0  0  0  0  0  0  0  0  0  0  0
   36.5648   79.2136   55.3784 H   0  0  0  0  0  0  0  0  0  0  0  0
   35.6661   78.1026   57.4236 H   0  0  0  0  0  0  0  0  0  0  0  0
   37.0474   76.4579   58.6140 H   0  0  0  0  0  0  0  0  0  0  0  0
  1  6  2  0
  2  3  2  0
  2  1  1  0
  3  4  1  0
  4  5  2  0
  6  5  1  0
  7  1  1  0
  7 17  1  0
  8  7  1  0
  9  8  2  0
  9 10  1  0
 10 11  1  0
 10 17  2  0
 11 13  1  0
 12 11  2  0
 13 14  1  0
 14 15  1  0
 16 14  2  0
 17 16  1  0
 18  3  1  0
 19 18  1  0
 20 21  1  0
 20 19  1  0
 22 21  1  0
 22 23  1  0
 23 18  1  0
 24 29  1  0
 24 23  1  0
 25 24  2  0
 26 27  2  0
 26 25  1  0
 27 28  1  0
 28 29  2  0
  2 30  1  0
  5 31  1  0
  8 32  1  0
 13 33  1  0
 15 34  1  0
 15 35  1  0
 19 36  1  0
 19 37  1  0
 20 38  1  0
 20 39  1  0
 21 40  1  0
 21 41  1  0
 22 42  1  0
 22 43  1  0
 23 44  1  1
 25 45  1  0
 26 46  1  0
 27 47  1  0
 28 48  1  0
 29 49  1  0
M  END
>  <Score>  (1) 
-7.54057

$$$$
