
     RDKit          3D

 36 40  0  0  0  0  0  0  0  0999 V2000
   40.2530   81.7820   59.3030 C   0  0  0  0  0  0  0  0  0  0  0  0
   40.0910   82.0840   58.0290 N   0  0  0  0  0  0  0  0  0  0  0  0
   40.0660   81.0640   57.2650 O   0  0  0  0  0  0  0  0  0  0  0  0
   40.2130   79.9920   57.9910 C   0  0  0  0  0  0  0  0  0  0  0  0
   40.3250   80.4500   59.2300 N   0  0  0  0  0  0  0  0  0  0  0  0
   40.2480   78.6320   57.5730 N   0  0  0  0  0  0  0  0  0  0  0  0
   41.3620   77.9340   57.2840 C   0  0  0  0  0  0  0  0  0  0  0  0
   41.0710   76.6750   56.9200 N   0  0  0  0  0  0  0  0  0  0  0  0
   39.7450   76.5680   56.9750 C   0  0  0  0  0  0  0  0  0  0  0  0
   38.8950   75.5210   56.7120 C   0  0  0  0  0  0  0  0  0  0  0  0
   39.3390   74.4110   56.3430 O   0  0  0  0  0  0  0  0  0  0  0  0
   37.5620   75.6550   56.8420 N   0  0  0  0  0  0  0  0  0  0  0  0
   37.0780   76.8610   57.2440 C   0  0  0  0  0  0  0  0  0  0  0  0
   35.6900   77.1280   57.4190 N   0  0  0  0  0  0  0  0  0  0  0  0
   37.9030   77.9130   57.5110 N   0  0  0  0  0  0  0  0  0  0  0  0
   39.2160   77.7910   57.3850 C   0  0  0  0  0  0  0  0  0  0  0  0
   40.5180   81.6510   61.7580 C   0  0  0  0  0  0  0  0  0  0  0  0
   40.3520   82.4470   60.5870 C   0  0  0  0  0  0  0  0  0  0  0  0
   40.2810   83.8130   60.8010 C   0  0  0  0  0  0  0  0  0  0  0  0
   40.3720   84.3400   62.0990 N   0  0  0  0  0  0  0  0  0  0  0  0
   40.5300   83.5020   63.1550 C   0  0  0  0  0  0  0  0  0  0  0  0
   40.6030   82.1770   62.9950 N   0  0  0  0  0  0  0  0  0  0  0  0
   40.1270   84.7780   59.7210 C   0  0  0  0  0  0  0  0  0  0  0  0
   41.1950   85.2180   58.9290 C   0  0  0  0  0  0  0  0  0  0  0  0
   40.6490   86.1320   58.0140 C   0  0  0  0  0  0  0  0  0  0  0  0
   39.3120   86.2090   58.2780 N   0  0  0  0  0  0  0  0  0  0  0  0
   38.9840   85.3910   59.3120 N   0  0  0  0  0  0  0  0  0  0  0  0
   42.3815   78.3433   57.3391 H   0  0  0  0  0  0  0  0  0  0  0  0
   36.9277   74.8682   56.6431 H   0  0  0  0  0  0  0  0  0  0  0  0
   35.3797   78.0610   57.7257 H   0  0  0  0  0  0  0  0  0  0  0  0
   34.9965   76.3881   57.2389 H   0  0  0  0  0  0  0  0  0  0  0  0
   40.5794   80.5584   61.6463 H   0  0  0  0  0  0  0  0  0  0  0  0
   40.5998   83.9241   64.1684 H   0  0  0  0  0  0  0  0  0  0  0  0
   42.2480   84.9099   59.0079 H   0  0  0  0  0  0  0  0  0  0  0  0
   41.1948   86.6816   57.2329 H   0  0  0  0  0  0  0  0  0  0  0  0
   38.6454   86.8037   57.7653 H   0  0  0  0  0  0  0  0  0  0  0  0
  1 18  1  0
  2  1  2  0
  3  4  1  0
  3  2  1  0
  4  5  2  0
  5  1  1  0
  6  4  1  0
  7  6  1  0
  8  9  1  0
  8  7  2  0
  9 16  2  0
 10 12  1  0
 10  9  1  0
 11 10  2  0
 12 13  1  0
 13 14  1  0
 13 15  2  0
 16 15  1  0
 16  6  1  0
 17 22  2  0
 18 19  2  0
 18 17  1  0
 19 20  1  0
 20 21  2  0
 22 21  1  0
 23 19  1  0
 24 23  1  0
 25 26  1  0
 25 24  2  0
 26 27  1  0
 27 23  2  0
  7 28  1  0
 12 29  1  0
 14 30  1  0
 14 31  1  0
 17 32  1  0
 21 33  1  0
 24 34  1  0
 25 35  1  0
 26 36  1  0
M  END
>  <Score>  (1) 
-7.61531

$$$$
