
     RDKit          3D

 38 42  0  0  0  0  0  0  0  0999 V2000
   40.4630   81.4380   61.3090 C   0  0  0  0  0  0  0  0  0  0  0  0
   40.3100   82.3300   60.2230 C   0  0  0  0  0  0  0  0  0  0  0  0
   40.2460   83.6780   60.5330 C   0  0  0  0  0  0  0  0  0  0  0  0
   40.3300   84.0880   61.8670 N   0  0  0  0  0  0  0  0  0  0  0  0
   40.4750   83.1700   62.8500 C   0  0  0  0  0  0  0  0  0  0  0  0
   40.5420   81.8540   62.5910 N   0  0  0  0  0  0  0  0  0  0  0  0
   40.1030   84.7210   59.5340 C   0  0  0  0  0  0  0  0  0  0  0  0
   41.1750   85.1910   58.7670 C   0  0  0  0  0  0  0  0  0  0  0  0
   40.6820   86.1800   57.9270 C   0  0  0  0  0  0  0  0  0  0  0  0
   39.3290   86.2800   58.2090 N   0  0  0  0  0  0  0  0  0  0  0  0
   38.9720   85.3950   59.1870 N   0  0  0  0  0  0  0  0  0  0  0  0
   40.2080   81.7570   58.8870 C   0  0  0  0  0  0  0  0  0  0  0  0
   40.5940   82.0260   57.6550 N   0  0  0  0  0  0  0  0  0  0  0  0
   40.2140   81.1620   56.8050 O   0  0  0  0  0  0  0  0  0  0  0  0
   39.5390   80.2430   57.4020 C   0  0  0  0  0  0  0  0  0  0  0  0
   39.5450   80.6230   58.6750 N   0  0  0  0  0  0  0  0  0  0  0  0
   38.8250   78.9890   57.0690 C   0  0  0  0  0  0  0  0  0  0  0  0
   38.7920   77.8670   57.8740 C   0  0  0  0  0  0  0  0  0  0  0  0
   38.1250   76.7330   57.5340 C   0  0  0  0  0  0  0  0  0  0  0  0
   37.4360   76.6350   56.3540 C   0  0  0  0  0  0  0  0  0  0  0  0
   37.4410   77.7250   55.5220 C   0  0  0  0  0  0  0  0  0  0  0  0
   36.7420   77.6040   54.3420 C   0  0  0  0  0  0  0  0  0  0  0  0
   36.6910   78.6480   53.4450 C   0  0  0  0  0  0  0  0  0  0  0  0
   37.3660   79.8070   53.7800 C   0  0  0  0  0  0  0  0  0  0  0  0
   38.0530   79.8810   54.9760 C   0  0  0  0  0  0  0  0  0  0  0  0
   38.1250   78.8600   55.8930 C   0  0  0  0  0  0  0  0  0  0  0  0
   40.5201   80.3594   61.1007 H   0  0  0  0  0  0  0  0  0  0  0  0
   40.5400   83.5120   63.8935 H   0  0  0  0  0  0  0  0  0  0  0  0
   42.2165   84.8411   58.8200 H   0  0  0  0  0  0  0  0  0  0  0  0
   41.2495   86.7650   57.1883 H   0  0  0  0  0  0  0  0  0  0  0  0
   38.6810   86.9323   57.7448 H   0  0  0  0  0  0  0  0  0  0  0  0
   39.3297   77.8926   58.8333 H   0  0  0  0  0  0  0  0  0  0  0  0
   38.1386   75.8745   58.2216 H   0  0  0  0  0  0  0  0  0  0  0  0
   36.8978   75.7146   56.0835 H   0  0  0  0  0  0  0  0  0  0  0  0
   36.2188   76.6638   54.1132 H   0  0  0  0  0  0  0  0  0  0  0  0
   36.1352   78.5629   52.4996 H   0  0  0  0  0  0  0  0  0  0  0  0
   37.3560   80.6682   53.0957 H   0  0  0  0  0  0  0  0  0  0  0  0
   38.5772   80.8193   55.2100 H   0  0  0  0  0  0  0  0  0  0  0  0
  1  6  2  0
  2  3  2  0
  2  1  1  0
  3  4  1  0
  4  5  2  0
  6  5  1  0
  7  3  1  0
  8  7  1  0
  9 10  1  0
  9  8  2  0
 10 11  1  0
 11  7  2  0
 12  2  1  0
 13 12  2  0
 14 15  1  0
 14 13  1  0
 15 16  2  0
 16 12  1  0
 17 15  1  0
 17 18  2  0
 19 18  1  0
 20 19  2  0
 21 26  2  0
 21 20  1  0
 22 21  1  0
 23 24  1  0
 23 22  2  0
 24 25  2  0
 25 26  1  0
 26 17  1  0
  1 27  1  0
  5 28  1  0
  8 29  1  0
  9 30  1  0
 10 31  1  0
 18 32  1  0
 19 33  1  0
 20 34  1  0
 22 35  1  0
 23 36  1  0
 24 37  1  0
 25 38  1  0
M  END
>  <Score>  (1) 
-7.26154

$$$$
