
     RDKit          3D

 38 42  0  0  0  0  0  0  0  0999 V2000
   39.8390   82.0930   60.3600 C   0  0  0  0  0  0  0  0  0  0  0  0
   40.0830   82.9830   59.3400 C   0  0  0  0  0  0  0  0  0  0  0  0
   39.8200   84.3360   59.5090 C   0  0  0  0  0  0  0  0  0  0  0  0
   39.3100   84.7400   60.7360 N   0  0  0  0  0  0  0  0  0  0  0  0
   39.0820   83.8500   61.7130 C   0  0  0  0  0  0  0  0  0  0  0  0
   39.3350   82.5320   61.5550 N   0  0  0  0  0  0  0  0  0  0  0  0
   40.1140   80.7330   60.1140 N   0  0  0  0  0  0  0  0  0  0  0  0
   40.2670   80.1620   58.9200 C   0  0  0  0  0  0  0  0  0  0  0  0
   40.4830   78.8430   59.0640 N   0  0  0  0  0  0  0  0  0  0  0  0
   40.4670   78.5810   60.3790 C   0  0  0  0  0  0  0  0  0  0  0  0
   40.6300   77.3850   61.0340 C   0  0  0  0  0  0  0  0  0  0  0  0
   40.8430   76.3360   60.3420 O   0  0  0  0  0  0  0  0  0  0  0  0
   40.5570   77.3860   62.3740 N   0  0  0  0  0  0  0  0  0  0  0  0
   40.3320   78.5330   63.0190 C   0  0  0  0  0  0  0  0  0  0  0  0
   40.2690   78.3760   64.4250 N   0  0  0  0  0  0  0  0  0  0  0  0
   40.1680   79.7250   62.3980 N   0  0  0  0  0  0  0  0  0  0  0  0
   40.2330   79.7790   61.0390 C   0  0  0  0  0  0  0  0  0  0  0  0
   40.2460   80.4670   57.4920 C   0  0  0  0  0  0  0  0  0  0  0  0
   40.9090   81.2160   56.5430 C   0  0  0  0  0  0  0  0  0  0  0  0
   40.3730   81.1590   55.3330 N   0  0  0  0  0  0  0  0  0  0  0  0
   39.3020   80.3770   55.3330 C   0  0  0  0  0  0  0  0  0  0  0  0
   38.4140   79.9910   54.3810 C   0  0  0  0  0  0  0  0  0  0  0  0
   37.3830   79.1450   54.7100 C   0  0  0  0  0  0  0  0  0  0  0  0
   37.2420   78.6830   55.9970 C   0  0  0  0  0  0  0  0  0  0  0  0
   38.1640   79.0980   56.9340 C   0  0  0  0  0  0  0  0  0  0  0  0
   39.2320   79.9660   56.6230 C   0  0  0  0  0  0  0  0  0  0  0  0
   40.4891   82.6206   58.3841 H   0  0  0  0  0  0  0  0  0  0  0  0
   40.0083   85.0597   58.7023 H   0  0  0  0  0  0  0  0  0  0  0  0
   38.6766   84.2038   62.6724 H   0  0  0  0  0  0  0  0  0  0  0  0
   40.6737   76.5086   62.9008 H   0  0  0  0  0  0  0  0  0  0  0  0
   40.0996   79.1941   65.0275 H   0  0  0  0  0  0  0  0  0  0  0  0
   40.3926   77.4437   64.8452 H   0  0  0  0  0  0  0  0  0  0  0  0
   41.8062   81.8100   56.7712 H   0  0  0  0  0  0  0  0  0  0  0  0
   40.7377   81.6537   54.5064 H   0  0  0  0  0  0  0  0  0  0  0  0
   38.5200   80.3550   53.3484 H   0  0  0  0  0  0  0  0  0  0  0  0
   36.6643   78.8347   53.9372 H   0  0  0  0  0  0  0  0  0  0  0  0
   36.4204   78.0045   56.2702 H   0  0  0  0  0  0  0  0  0  0  0  0
   38.0628   78.7371   57.9682 H   0  0  0  0  0  0  0  0  0  0  0  0
  1  6  2  0
  2  3  2  0
  2  1  1  0
  3  4  1  0
  4  5  2  0
  6  5  1  0
  7  1  1  0
  7 17  1  0
  8  9  2  0
  8  7  1  0
  9 10  1  0
 10 11  1  0
 10 17  2  0
 11 13  1  0
 12 11  2  0
 13 14  1  0
 14 15  1  0
 16 14  2  0
 17 16  1  0
 18  8  1  0
 19 18  2  0
 20 19  1  0
 21 20  1  0
 21 26  2  0
 22 23  2  0
 22 21  1  0
 23 24  1  0
 24 25  2  0
 26 25  1  0
 26 18  1  0
  2 27  1  0
  3 28  1  0
  5 29  1  0
 13 30  1  0
 15 31  1  0
 15 32  1  0
 19 33  1  0
 20 34  1  0
 22 35  1  0
 23 36  1  0
 24 37  1  0
 25 38  1  0
M  END
>  <Score>  (1) 
-7.96409

$$$$
