
     RDKit          3D

 54 58  0  0  0  0  0  0  0  0999 V2000
   42.9690   85.1420   59.4800 C   0  0  0  0  0  0  0  0  0  0  0  0
   43.1620   86.3760   59.4590 O   0  0  0  0  0  0  0  0  0  0  0  0
   42.6080   84.3790   63.1160 C   0  0  0  0  0  0  0  0  0  0  0  0
   42.8560   85.1010   61.9370 C   0  0  0  0  0  0  0  0  0  0  0  0
   42.7280   84.4580   60.7400 C   0  0  0  0  0  0  0  0  0  0  0  0
   42.3700   83.1590   60.7540 N   0  0  0  0  0  0  0  0  0  0  0  0
   42.1320   82.4670   61.8920 C   0  0  0  0  0  0  0  0  0  0  0  0
   42.2530   83.0820   63.0600 N   0  0  0  0  0  0  0  0  0  0  0  0
   41.7540   81.0930   61.8820 N   0  0  0  0  0  0  0  0  0  0  0  0
   42.7230   80.1960   61.8110 C   0  0  0  0  0  0  0  0  0  0  0  0
   42.3430   78.8590   61.8010 C   0  0  0  0  0  0  0  0  0  0  0  0
   41.0070   78.5640   61.8640 C   0  0  0  0  0  0  0  0  0  0  0  0
   40.4970   77.2310   61.8620 N   0  0  0  0  0  0  0  0  0  0  0  0
   40.0460   79.5160   61.9350 N   0  0  0  0  0  0  0  0  0  0  0  0
   40.4140   80.8350   61.9460 C   0  0  0  0  0  0  0  0  0  0  0  0
   39.5750   81.8010   62.0110 O   0  0  0  0  0  0  0  0  0  0  0  0
   42.9860   84.3860   58.2230 C   0  0  0  0  0  0  0  0  0  0  0  0
   43.9740   84.1580   57.2860 C   0  0  0  0  0  0  0  0  0  0  0  0
   43.6860   83.4060   56.2100 C   0  0  0  0  0  0  0  0  0  0  0  0
   42.4470   82.8680   56.0260 C   0  0  0  0  0  0  0  0  0  0  0  0
   41.5670   83.5010   57.5710 S   0  0  0  0  0  0  0  0  0  0  0  0
   41.8230   82.0850   55.0880 C   0  0  0  0  0  0  0  0  0  0  0  0
   42.2010   82.0810   53.7520 C   0  0  0  0  0  0  0  0  0  0  0  0
   41.5460   81.2710   52.8230 C   0  0  0  0  0  0  0  0  0  0  0  0
   40.5230   80.4800   53.2460 N   0  0  0  0  0  0  0  0  0  0  0  0
   40.1610   80.4860   54.5330 C   0  0  0  0  0  0  0  0  0  0  0  0
   40.8060   81.2700   55.3990 N   0  0  0  0  0  0  0  0  0  0  0  0
   39.0440   79.6330   55.0350 C   0  0  0  0  0  0  0  0  0  0  0  0
   37.9610   80.4360   55.7170 C   0  0  0  0  0  0  0  0  0  0  0  0
   37.1680   79.4500   56.5490 C   0  0  0  0  0  0  0  0  0  0  0  0
   37.2740   78.0390   56.0110 C   0  0  0  0  0  0  0  0  0  0  0  0
   37.2710   78.0430   54.4860 C   0  0  0  0  0  0  0  0  0  0  0  0
   38.4580   78.7870   53.9210 C   0  0  0  0  0  0  0  0  0  0  0  0
   42.7046   84.8771   64.0920 H   0  0  0  0  0  0  0  0  0  0  0  0
   43.1469   86.1611   61.9775 H   0  0  0  0  0  0  0  0  0  0  0  0
   43.7807   80.4941   61.7621 H   0  0  0  0  0  0  0  0  0  0  0  0
   43.0956   78.0588   61.7440 H   0  0  0  0  0  0  0  0  0  0  0  0
   39.4811   77.0682   61.9112 H   0  0  0  0  0  0  0  0  0  0  0  0
   41.1448   76.4318   61.8113 H   0  0  0  0  0  0  0  0  0  0  0  0
   44.9794   84.5844   57.4178 H   0  0  0  0  0  0  0  0  0  0  0  0
   44.4688   83.2202   55.4598 H   0  0  0  0  0  0  0  0  0  0  0  0
   43.0286   82.7255   53.4209 H   0  0  0  0  0  0  0  0  0  0  0  0
   41.8518   81.2721   51.7664 H   0  0  0  0  0  0  0  0  0  0  0  0
   39.4784   78.9654   55.7936 H   0  0  0  0  0  0  0  0  0  0  0  0
   38.4067   81.2079   56.3617 H   0  0  0  0  0  0  0  0  0  0  0  0
   37.3209   80.9505   54.9851 H   0  0  0  0  0  0  0  0  0  0  0  0
   37.5511   79.4666   57.5800 H   0  0  0  0  0  0  0  0  0  0  0  0
   36.1100   79.7487   56.5125 H   0  0  0  0  0  0  0  0  0  0  0  0
   38.2098   77.5851   56.3692 H   0  0  0  0  0  0  0  0  0  0  0  0
   36.4090   77.4591   56.3653 H   0  0  0  0  0  0  0  0  0  0  0  0
   37.2999   77.0033   54.1278 H   0  0  0  0  0  0  0  0  0  0  0  0
   36.3571   78.5540   54.1488 H   0  0  0  0  0  0  0  0  0  0  0  0
   39.2107   78.0715   53.5582 H   0  0  0  0  0  0  0  0  0  0  0  0
   38.1493   79.4212   53.0769 H   0  0  0  0  0  0  0  0  0  0  0  0
  1  5  1  0
  2  1  2  0
  4  3  2  0
  5  6  2  0
  5  4  1  0
  6  7  1  0
  7  8  2  0
  8  3  1  0
  9  7  1  0
  9 15  1  0
 10  9  1  0
 11 10  2  0
 11 12  1  0
 12 14  2  0
 13 12  1  0
 14 15  1  0
 15 16  2  0
 17  1  1  0
 18 17  2  0
 19 18  1  0
 20 19  2  0
 20 21  1  0
 21 17  1  0
 22 27  1  0
 22 20  1  0
 23 22  2  0
 24 25  2  0
 24 23  1  0
 25 26  1  0
 26 28  1  0
 26 27  2  0
 28 29  1  0
 29 30  1  0
 31 30  1  0
 32 31  1  0
 33 32  1  0
 33 28  1  0
  3 34  1  0
  4 35  1  0
 10 36  1  0
 11 37  1  0
 13 38  1  0
 13 39  1  0
 18 40  1  0
 19 41  1  0
 23 42  1  0
 24 43  1  0
 28 44  1  0
 29 45  1  0
 29 46  1  0
 30 47  1  0
 30 48  1  0
 31 49  1  0
 31 50  1  0
 32 51  1  0
 32 52  1  0
 33 53  1  0
 33 54  1  0
M  END
>  <Score>  (1) 
-7.21709

$$$$
