
     RDKit          3D

 53 57  0  0  1  0  0  0  0  0999 V2000
   39.4780   83.0960   61.6450 C   0  0  0  0  0  0  0  0  0  0  0  0
   39.4980   83.6090   60.3290 C   0  0  0  0  0  0  0  0  0  0  0  0
   40.3400   83.0120   59.4250 C   0  0  0  0  0  0  0  0  0  0  0  0
   41.1150   81.9560   59.8260 N   0  0  0  0  0  0  0  0  0  0  0  0
   41.0740   81.4870   61.0920 C   0  0  0  0  0  0  0  0  0  0  0  0
   40.2460   82.0700   61.9930 N   0  0  0  0  0  0  0  0  0  0  0  0
   38.6100   83.7150   62.5720 N   0  0  0  0  0  0  0  0  0  0  0  0
   41.9140   80.3750   61.4510 N   0  0  0  0  0  0  0  0  0  0  0  0
   43.3240   80.6760   61.5980 C   0  0  0  0  0  0  0  0  0  0  0  0
   44.0940   79.5480   62.1990 C   0  0  0  0  0  0  0  0  0  0  0  0
   43.5430   78.2540   61.6620 C   0  0  0  0  0  0  0  0  0  0  0  0
   42.1450   78.1430   62.3220 C   0  0  0  0  0  0  0  0  0  0  0  0
   41.2450   79.0810   61.6240 C   0  0  2  0  0  0  0  0  0  0  0  0
   40.8170   78.5350   60.3700 N   0  0  0  0  0  0  0  0  0  0  0  0
   39.9770   77.4730   60.0600 C   0  0  0  0  0  0  0  0  0  0  0  0
   39.6210   76.5090   60.9510 C   0  0  0  0  0  0  0  0  0  0  0  0
   38.7970   75.4240   60.7110 C   0  0  0  0  0  0  0  0  0  0  0  0
   38.2900   75.3300   59.4140 C   0  0  0  0  0  0  0  0  0  0  0  0
   38.6200   76.2860   58.4630 C   0  0  0  0  0  0  0  0  0  0  0  0
   39.4420   77.3110   58.8180 C   0  0  0  0  0  0  0  0  0  0  0  0
   39.7190   78.2410   57.7660 N   0  0  0  0  0  0  0  0  0  0  0  0
   40.6810   79.1840   57.7200 C   0  0  0  0  0  0  0  0  0  0  0  0
   40.6300   79.8650   56.5690 N   0  0  0  0  0  0  0  0  0  0  0  0
   39.6050   79.3560   55.8350 C   0  0  0  0  0  0  0  0  0  0  0  0
   39.0740   79.6490   54.5760 C   0  0  0  0  0  0  0  0  0  0  0  0
   39.5890   80.5780   53.8810 O   0  0  0  0  0  0  0  0  0  0  0  0
   38.0250   78.9470   54.1140 N   0  0  0  0  0  0  0  0  0  0  0  0
   37.4920   77.9670   54.8620 C   0  0  0  0  0  0  0  0  0  0  0  0
   36.3810   77.2660   54.3030 N   0  0  0  0  0  0  0  0  0  0  0  0
   37.9860   77.6560   56.0920 N   0  0  0  0  0  0  0  0  0  0  0  0
   39.0510   78.3470   56.5950 C   0  0  0  0  0  0  0  0  0  0  0  0
   38.8608   84.4575   60.0391 H   0  0  0  0  0  0  0  0  0  0  0  0
   40.3922   83.3776   58.3888 H   0  0  0  0  0  0  0  0  0  0  0  0
   38.0241   84.5094   62.2778 H   0  0  0  0  0  0  0  0  0  0  0  0
   38.5630   83.3719   63.5420 H   0  0  0  0  0  0  0  0  0  0  0  0
   43.7419   80.8977   60.6049 H   0  0  0  0  0  0  0  0  0  0  0  0
   43.4109   81.5368   62.2773 H   0  0  0  0  0  0  0  0  0  0  0  0
   45.1566   79.6390   61.9297 H   0  0  0  0  0  0  0  0  0  0  0  0
   44.0024   79.5707   63.2949 H   0  0  0  0  0  0  0  0  0  0  0  0
   43.4568   78.2900   60.5660 H   0  0  0  0  0  0  0  0  0  0  0  0
   44.1883   77.3920   61.8866 H   0  0  0  0  0  0  0  0  0  0  0  0
   41.7647   77.1155   62.2240 H   0  0  0  0  0  0  0  0  0  0  0  0
   42.2032   78.3887   63.3926 H   0  0  0  0  0  0  0  0  0  0  0  0
   40.3438   79.2391   62.2346 H   0  0  0  0  0  0  0  0  0  0  0  0
   41.2034   79.0192   59.5471 H   0  0  0  0  0  0  0  0  0  0  0  0
   40.0307   76.6017   61.9676 H   0  0  0  0  0  0  0  0  0  0  0  0
   38.5575   74.6851   61.4899 H   0  0  0  0  0  0  0  0  0  0  0  0
   37.6264   74.4952   59.1443 H   0  0  0  0  0  0  0  0  0  0  0  0
   38.2236   76.2162   57.4393 H   0  0  0  0  0  0  0  0  0  0  0  0
   41.4109   79.3692   58.5218 H   0  0  0  0  0  0  0  0  0  0  0  0
   37.6301   79.1604   53.1869 H   0  0  0  0  0  0  0  0  0  0  0  0
   35.9329   76.5048   54.8328 H   0  0  0  0  0  0  0  0  0  0  0  0
   36.0276   77.5214   53.3699 H   0  0  0  0  0  0  0  0  0  0  0  0
  1  6  2  0
  1  7  1  0
  2  1  1  0
  3  4  1  0
  3  2  2  0
  4  5  2  0
  5  8  1  0
  5  6  1  0
  8  9  1  0
  8 13  1  0
  9 10  1  0
 11 10  1  0
 11 12  1  0
 13 12  1  0
 14 13  1  0
 15 14  1  0
 15 16  2  0
 17 16  1  0
 18 17  2  0
 19 20  2  0
 19 18  1  0
 20 15  1  0
 21 20  1  0
 22 21  1  0
 23 22  2  0
 24 23  1  0
 24 31  2  0
 25 24  1  0
 26 25  2  0
 27 25  1  0
 27 28  1  0
 28 30  2  0
 29 28  1  0
 30 31  1  0
 31 21  1  0
  2 32  1  0
  3 33  1  0
  7 34  1  0
  7 35  1  0
  9 36  1  0
  9 37  1  0
 10 38  1  0
 10 39  1  0
 11 40  1  0
 11 41  1  0
 12 42  1  0
 12 43  1  0
 13 44  1  1
 14 45  1  0
 16 46  1  0
 17 47  1  0
 18 48  1  0
 19 49  1  0
 22 50  1  0
 27 51  1  0
 29 52  1  0
 29 53  1  0
M  END
>  <Score>  (1) 
-7.34129

$$$$
