
     RDKit          3D

 32 35  0  0  0  0  0  0  0  0999 V2000
   40.1640   80.4410   61.1910 C   0  0  0  0  0  0  0  0  0  0  0  0
   40.2250   79.6390   60.0810 C   0  0  0  0  0  0  0  0  0  0  0  0
   40.5930   78.3380   60.3020 C   0  0  0  0  0  0  0  0  0  0  0  0
   40.8830   77.8220   61.4860 N   0  0  0  0  0  0  0  0  0  0  0  0
   40.8180   78.6360   62.5900 C   0  0  0  0  0  0  0  0  0  0  0  0
   40.4600   79.9190   62.3990 N   0  0  0  0  0  0  0  0  0  0  0  0
   40.6790   77.4410   59.1980 N   0  0  0  0  0  0  0  0  0  0  0  0
   41.8600   76.9180   58.7650 C   0  0  0  0  0  0  0  0  0  0  0  0
   41.5650   76.1150   57.7090 N   0  0  0  0  0  0  0  0  0  0  0  0
   40.2510   76.1210   57.4720 C   0  0  0  0  0  0  0  0  0  0  0  0
   39.3440   75.5490   56.5920 C   0  0  0  0  0  0  0  0  0  0  0  0
   39.8470   74.7700   55.7120 O   0  0  0  0  0  0  0  0  0  0  0  0
   38.0270   75.8130   56.6760 N   0  0  0  0  0  0  0  0  0  0  0  0
   37.5230   76.6350   57.6090 C   0  0  0  0  0  0  0  0  0  0  0  0
   36.1290   76.8640   57.6380 N   0  0  0  0  0  0  0  0  0  0  0  0
   38.3540   77.2300   58.5070 N   0  0  0  0  0  0  0  0  0  0  0  0
   39.6820   76.9710   58.4280 C   0  0  0  0  0  0  0  0  0  0  0  0
   39.7900   81.8390   61.0930 C   0  0  0  0  0  0  0  0  0  0  0  0
   40.0910   82.4810   59.8800 C   0  0  0  0  0  0  0  0  0  0  0  0
   39.7440   83.8210   59.7580 C   0  0  0  0  0  0  0  0  0  0  0  0
   39.1310   84.4470   60.8100 N   0  0  0  0  0  0  0  0  0  0  0  0
   38.8530   83.7940   61.9730 C   0  0  0  0  0  0  0  0  0  0  0  0
   39.1870   82.4850   62.1060 N   0  0  0  0  0  0  0  0  0  0  0  0
   39.9927   80.0169   59.0744 H   0  0  0  0  0  0  0  0  0  0  0  0
   41.0503   78.2529   63.5946 H   0  0  0  0  0  0  0  0  0  0  0  0
   42.8576   77.1084   59.1876 H   0  0  0  0  0  0  0  0  0  0  0  0
   37.3857   75.3700   56.0027 H   0  0  0  0  0  0  0  0  0  0  0  0
   35.7249   77.4920   58.3474 H   0  0  0  0  0  0  0  0  0  0  0  0
   35.5169   76.4029   56.9498 H   0  0  0  0  0  0  0  0  0  0  0  0
   40.5834   81.9425   59.0569 H   0  0  0  0  0  0  0  0  0  0  0  0
   39.9587   84.3708   58.8297 H   0  0  0  0  0  0  0  0  0  0  0  0
   38.3601   84.3252   62.8006 H   0  0  0  0  0  0  0  0  0  0  0  0
  1  6  2  0
  2  3  2  0
  2  1  1  0
  3  4  1  0
  4  5  2  0
  6  5  1  0
  7  3  1  0
  8  7  1  0
  9  8  2  0
 10  9  1  0
 10 17  2  0
 11 13  1  0
 11 10  1  0
 12 11  2  0
 13 14  1  0
 14 15  1  0
 14 16  2  0
 17 16  1  0
 17  7  1  0
 18  1  1  0
 18 23  1  0
 19 18  2  0
 20 19  1  0
 20 21  2  0
 21 22  1  0
 22 23  2  0
  2 24  1  0
  5 25  1  0
  8 26  1  0
 13 27  1  0
 15 28  1  0
 15 29  1  0
 19 30  1  0
 20 31  1  0
 22 32  1  0
M  END
>  <Score>  (1) 
-7.01979

$$$$
