
     RDKit          3D

 48 53  0  0  0  0  0  0  0  0999 V2000
   40.6100   77.0780   59.9810 C   0  0  0  0  0  0  0  0  0  0  0  0
   39.7460   76.2830   60.7420 C   0  0  0  0  0  0  0  0  0  0  0  0
   40.2460   74.9960   60.6630 C   0  0  0  0  0  0  0  0  0  0  0  0
   41.3770   75.0960   59.8610 C   0  0  0  0  0  0  0  0  0  0  0  0
   41.5810   76.3200   59.4680 O   0  0  0  0  0  0  0  0  0  0  0  0
   40.4920   78.5210   59.7670 C   0  0  0  0  0  0  0  0  0  0  0  0
   39.8680   78.9370   58.5820 C   0  0  0  0  0  0  0  0  0  0  0  0
   39.7410   80.2950   58.3510 C   0  0  0  0  0  0  0  0  0  0  0  0
   40.2460   81.1310   59.3150 N   0  0  0  0  0  0  0  0  0  0  0  0
   40.8310   80.7050   60.4240 C   0  0  0  0  0  0  0  0  0  0  0  0
   40.9670   79.3760   60.6730 N   0  0  0  0  0  0  0  0  0  0  0  0
   41.3480   81.5950   61.4110 N   0  0  0  0  0  0  0  0  0  0  0  0
   42.6580   81.5840   61.7510 C   0  0  0  0  0  0  0  0  0  0  0  0
   43.1500   82.4450   62.7040 C   0  0  0  0  0  0  0  0  0  0  0  0
   42.2810   83.3360   63.3180 C   0  0  0  0  0  0  0  0  0  0  0  0
   42.7840   84.2360   64.3110 N   0  0  0  0  0  0  0  0  0  0  0  0
   40.9950   83.3220   62.9590 N   0  0  0  0  0  0  0  0  0  0  0  0
   40.5050   82.4690   62.0160 C   0  0  0  0  0  0  0  0  0  0  0  0
   39.2940   82.4650   61.6860 O   0  0  0  0  0  0  0  0  0  0  0  0
   42.2410   73.9700   59.4950 C   0  0  0  0  0  0  0  0  0  0  0  0
   42.5050   73.4330   58.2860 N   0  0  0  0  0  0  0  0  0  0  0  0
   43.3310   72.4440   58.4220 O   0  0  0  0  0  0  0  0  0  0  0  0
   43.6500   72.2780   59.6980 C   0  0  0  0  0  0  0  0  0  0  0  0
   42.9690   73.2210   60.3020 N   0  0  0  0  0  0  0  0  0  0  0  0
   44.5540   71.2700   60.2650 C   0  0  0  0  0  0  0  0  0  0  0  0
   45.8690   71.5960   60.5760 C   0  0  0  0  0  0  0  0  0  0  0  0
   46.7010   70.6330   61.1070 C   0  0  0  0  0  0  0  0  0  0  0  0
   46.1540   69.3990   61.2930 C   0  0  0  0  0  0  0  0  0  0  0  0
   44.8870   69.0200   61.0120 C   0  0  0  0  0  0  0  0  0  0  0  0
   44.0470   70.0210   60.4670 C   0  0  0  0  0  0  0  0  0  0  0  0
   42.6760   69.5080   60.1920 C   0  0  0  0  0  0  0  0  0  0  0  0
   41.8760   69.0810   61.1790 N   0  0  0  0  0  0  0  0  0  0  0  0
   40.7440   68.6860   60.7000 O   0  0  0  0  0  0  0  0  0  0  0  0
   40.7510   68.8320   59.3950 C   0  0  0  0  0  0  0  0  0  0  0  0
   41.9260   69.3260   59.1390 N   0  0  0  0  0  0  0  0  0  0  0  0
   38.8520   76.6139   61.2908 H   0  0  0  0  0  0  0  0  0  0  0  0
   39.8372   74.0894   61.1331 H   0  0  0  0  0  0  0  0  0  0  0  0
   39.4896   78.2029   57.8554 H   0  0  0  0  0  0  0  0  0  0  0  0
   39.2601   80.6846   57.4416 H   0  0  0  0  0  0  0  0  0  0  0  0
   43.3396   80.8756   61.2576 H   0  0  0  0  0  0  0  0  0  0  0  0
   44.2159   82.4277   62.9754 H   0  0  0  0  0  0  0  0  0  0  0  0
   42.1476   84.9013   64.7728 H   0  0  0  0  0  0  0  0  0  0  0  0
   43.7824   84.2183   64.5637 H   0  0  0  0  0  0  0  0  0  0  0  0
   46.2434   72.6152   60.3997 H   0  0  0  0  0  0  0  0  0  0  0  0
   47.7480   70.8490   61.3660 H   0  0  0  0  0  0  0  0  0  0  0  0
   46.8142   68.6283   61.7174 H   0  0  0  0  0  0  0  0  0  0  0  0
   44.5303   67.9958   61.1957 H   0  0  0  0  0  0  0  0  0  0  0  0
   39.9479   68.5917   58.6827 H   0  0  0  0  0  0  0  0  0  0  0  0
  1  2  2  0
  3  2  1  0
  4  3  2  0
  5  4  1  0
  5  1  1  0
  6  1  1  0
  6 11  1  0
  7  6  2  0
  8  7  1  0
  8  9  2  0
  9 10  1  0
 10 11  2  0
 10 12  1  0
 12 13  1  0
 12 18  1  0
 13 14  2  0
 14 15  1  0
 15 16  1  0
 17 15  2  0
 18 17  1  0
 19 18  2  0
 20  4  1  0
 20 24  1  0
 21 22  1  0
 21 20  2  0
 22 23  1  0
 23 25  1  0
 23 24  2  0
 25 30  1  0
 25 26  2  0
 26 27  1  0
 27 28  2  0
 29 28  1  0
 30 29  2  0
 31 30  1  0
 31 32  2  0
 33 32  1  0
 34 33  1  0
 35 34  2  0
 35 31  1  0
  2 36  1  0
  3 37  1  0
  7 38  1  0
  8 39  1  0
 13 40  1  0
 14 41  1  0
 16 42  1  0
 16 43  1  0
 26 44  1  0
 27 45  1  0
 28 46  1  0
 29 47  1  0
 34 48  1  0
M  END
>  <Score>  (1) 
-7.10054

$$$$
