
     RDKit          3D

 48 53  0  0  1  0  0  0  0  0999 V2000
   38.3700   78.8760   56.8840 C   0  0  0  0  0  0  0  0  0  0  0  0
   38.2110   77.5610   57.1650 C   0  0  0  0  0  0  0  0  0  0  0  0
   37.6310   76.9820   56.0540 C   0  0  0  0  0  0  0  0  0  0  0  0
   37.4540   77.9570   55.1400 C   0  0  0  0  0  0  0  0  0  0  0  0
   37.9060   79.0390   55.6840 O   0  0  0  0  0  0  0  0  0  0  0  0
   38.4620   76.8280   58.3760 C   0  0  0  0  0  0  0  0  0  0  0  0
   38.6650   76.1850   59.4240 N   0  0  0  0  0  0  0  0  0  0  0  0
   38.6480   75.6010   60.4930 C   0  0  0  0  0  0  0  0  0  0  0  0
   39.9290   75.2620   60.3660 N   0  0  0  0  0  0  0  0  0  0  0  0
   40.6300   75.6360   59.2710 C   0  0  0  0  0  0  0  0  0  0  0  0
   41.9640   75.1670   59.1550 C   0  0  0  0  0  0  0  0  0  0  0  0
   42.5950   75.4780   57.9820 C   0  0  0  0  0  0  0  0  0  0  0  0
   42.0740   76.1800   56.9330 C   0  0  0  0  0  0  0  0  0  0  0  0
   40.7570   76.5630   57.2220 C   0  0  0  0  0  0  0  0  0  0  0  0
   39.8660   76.3880   58.3460 C   0  0  2  0  0  0  0  0  0  0  0  0
   36.8580   77.7760   53.7950 C   0  0  0  0  0  0  0  0  0  0  0  0
   36.8130   78.9670   53.1130 F   0  0  0  0  0  0  0  0  0  0  0  0
   35.6350   77.1560   53.8350 F   0  0  0  0  0  0  0  0  0  0  0  0
   37.6820   76.9150   53.0530 F   0  0  0  0  0  0  0  0  0  0  0  0
   37.3660   75.5700   55.9780 N   0  0  0  0  0  0  0  0  0  0  0  0
   38.8750   79.9410   57.5670 O   0  0  0  0  0  0  0  0  0  0  0  0
   40.1260   80.0670   58.1310 C   0  0  0  0  0  0  0  0  0  0  0  0
   41.0060   80.0160   57.2310 O   0  0  0  0  0  0  0  0  0  0  0  0
   40.7720   81.3130   61.3540 C   0  0  0  0  0  0  0  0  0  0  0  0
   40.6520   79.9700   61.7360 C   0  0  0  0  0  0  0  0  0  0  0  0
   40.3850   79.2900   60.5380 C   0  0  0  0  0  0  0  0  0  0  0  0
   40.3570   80.2310   59.5320 C   0  0  0  0  0  0  0  0  0  0  0  0
   40.5880   81.3890   60.0640 O   0  0  0  0  0  0  0  0  0  0  0  0
   40.5930   83.6960   64.1730 C   0  0  0  0  0  0  0  0  0  0  0  0
   41.9130   84.1680   64.2080 C   0  0  0  0  0  0  0  0  0  0  0  0
   42.8080   83.6590   63.2740 C   0  0  0  0  0  0  0  0  0  0  0  0
   42.3200   82.7350   62.3940 N   0  0  0  0  0  0  0  0  0  0  0  0
   41.0590   82.3060   62.3870 C   0  0  0  0  0  0  0  0  0  0  0  0
   40.2140   82.7990   63.2850 N   0  0  0  0  0  0  0  0  0  0  0  0
   37.9766   77.6247   58.9588 H   0  0  0  0  0  0  0  0  0  0  0  0
   37.8790   75.4240   61.2594 H   0  0  0  0  0  0  0  0  0  0  0  0
   42.4568   74.5928   59.9534 H   0  0  0  0  0  0  0  0  0  0  0  0
   43.6312   75.1255   57.8721 H   0  0  0  0  0  0  0  0  0  0  0  0
   42.6085   76.4107   55.9997 H   0  0  0  0  0  0  0  0  0  0  0  0
   40.7907   77.6564   57.1063 H   0  0  0  0  0  0  0  0  0  0  0  0
   40.2928   75.7759   56.6096 H   0  0  0  0  0  0  0  0  0  0  0  0
   36.9318   75.1722   55.1329 H   0  0  0  0  0  0  0  0  0  0  0  0
   37.6105   74.9568   56.7687 H   0  0  0  0  0  0  0  0  0  0  0  0
   40.7459   79.5451   62.7463 H   0  0  0  0  0  0  0  0  0  0  0  0
   40.2274   78.2074   60.4234 H   0  0  0  0  0  0  0  0  0  0  0  0
   39.8616   84.0809   64.8989 H   0  0  0  0  0  0  0  0  0  0  0  0
   42.2297   84.9160   64.9497 H   0  0  0  0  0  0  0  0  0  0  0  0
   43.8583   83.9845   63.2449 H   0  0  0  0  0  0  0  0  0  0  0  0
  1  2  2  0
  1 21  1  0
  3  2  1  0
  4  5  1  0
  4  3  2  0
  5  1  1  0
  6  2  1  0
  6  7  1  0
  7  8  1  0
  9  8  2  0
 10  9  1  0
 11 10  2  0
 12 11  1  0
 13 14  1  0
 13 12  2  0
 15 14  1  1
 15  6  1  0
 15 10  1  0
 15  7  1  0
 16 18  1  0
 16  4  1  0
 17 16  1  0
 19 16  1  0
 20  3  1  0
 21 22  1  0
 22 27  1  0
 23 22  2  0
 24 25  2  0
 24 33  1  0
 26 25  1  0
 27 28  1  0
 27 26  2  0
 28 24  1  0
 29 30  2  0
 31 30  1  0
 32 31  2  0
 33 32  1  0
 33 34  2  0
 34 29  1  0
  6 35  1  0
  8 36  1  0
 11 37  1  0
 12 38  1  0
 13 39  1  0
 14 40  1  0
 14 41  1  0
 20 42  1  0
 20 43  1  0
 25 44  1  0
 26 45  1  0
 29 46  1  0
 30 47  1  0
 31 48  1  0
M  END
>  <Score>  (1) 
-7.31214

$$$$
