
     RDKit          3D

 38 40  0  0  0  0  0  0  0  0999 V2000
   40.9430   78.9680   60.2850 C   0  0  0  0  0  0  0  0  0  0  0  0
   40.5490   77.7450   60.8330 C   0  0  0  0  0  0  0  0  0  0  0  0
   39.6370   77.1410   59.9760 C   0  0  0  0  0  0  0  0  0  0  0  0
   39.5210   78.0530   58.9250 C   0  0  0  0  0  0  0  0  0  0  0  0
   40.2920   79.0690   59.1660 O   0  0  0  0  0  0  0  0  0  0  0  0
   38.6680   77.8660   57.7630 C   0  0  0  0  0  0  0  0  0  0  0  0
   38.0590   76.6410   57.5600 C   0  0  0  0  0  0  0  0  0  0  0  0
   37.2290   76.3840   56.4720 C   0  0  0  0  0  0  0  0  0  0  0  0
   37.0720   77.4590   55.6230 C   0  0  0  0  0  0  0  0  0  0  0  0
   37.6560   78.6780   55.7920 C   0  0  0  0  0  0  0  0  0  0  0  0
   38.4600   78.8690   56.8790 N   0  0  0  0  0  0  0  0  0  0  0  0
   37.4830   79.8330   54.8740 C   0  0  0  0  0  0  0  0  0  0  0  0
   36.6660   79.4910   53.8080 F   0  0  0  0  0  0  0  0  0  0  0  0
   36.9110   80.9020   55.5080 F   0  0  0  0  0  0  0  0  0  0  0  0
   38.7270   80.1900   54.3480 F   0  0  0  0  0  0  0  0  0  0  0  0
   43.1310   79.3790   61.4440 C   0  0  0  0  0  0  0  0  0  0  0  0
   41.9000   79.8320   60.9630 C   0  0  0  0  0  0  0  0  0  0  0  0
   41.5870   81.1630   61.1490 C   0  0  0  0  0  0  0  0  0  0  0  0
   42.4860   81.9800   61.7880 N   0  0  0  0  0  0  0  0  0  0  0  0
   43.6670   81.4790   62.2310 C   0  0  0  0  0  0  0  0  0  0  0  0
   43.9770   80.1880   62.0550 N   0  0  0  0  0  0  0  0  0  0  0  0
   44.5310   82.5050   62.9070 C   0  0  0  0  0  0  0  0  0  0  0  0
   45.4910   81.8120   63.6920 F   0  0  0  0  0  0  0  0  0  0  0  0
   43.8260   83.2680   63.8000 F   0  0  0  0  0  0  0  0  0  0  0  0
   45.1470   83.2440   61.9660 F   0  0  0  0  0  0  0  0  0  0  0  0
   40.3390   81.7790   60.7010 C   0  0  0  0  0  0  0  0  0  0  0  0
   40.1930   82.0950   59.4850 O   0  0  0  0  0  0  0  0  0  0  0  0
   39.3180   82.0190   61.5920 O   0  0  0  0  0  0  0  0  0  0  0  0
   39.1680   83.3060   62.1990 C   0  0  0  0  0  0  0  0  0  0  0  0
   39.9150   83.3160   63.3620 F   0  0  0  0  0  0  0  0  0  0  0  0
   39.8250   84.1980   61.3430 F   0  0  0  0  0  0  0  0  0  0  0  0
   37.8840   83.7270   62.3250 F   0  0  0  0  0  0  0  0  0  0  0  0
   40.9030   77.3280   61.7874 H   0  0  0  0  0  0  0  0  0  0  0  0
   39.1273   76.1737   60.0969 H   0  0  0  0  0  0  0  0  0  0  0  0
   38.2378   75.8363   58.2883 H   0  0  0  0  0  0  0  0  0  0  0  0
   36.7427   75.4116   56.3050 H   0  0  0  0  0  0  0  0  0  0  0  0
   36.4265   77.3219   54.7429 H   0  0  0  0  0  0  0  0  0  0  0  0
   43.4024   78.3214   61.3103 H   0  0  0  0  0  0  0  0  0  0  0  0
  1  2  2  0
  1 17  1  0
  3  2  1  0
  4  5  1  0
  4  3  2  0
  5  1  1  0
  6  4  1  0
  7  6  2  0
  8  7  1  0
  9 10  1  0
  9  8  2  0
 10 11  2  0
 11  6  1  0
 12 14  1  0
 12 10  1  0
 13 12  1  0
 15 12  1  0
 16 21  2  0
 17 18  2  0
 17 16  1  0
 18 19  1  0
 19 20  2  0
 20 22  1  0
 21 20  1  0
 22 23  1  0
 22 24  1  0
 25 22  1  0
 26 18  1  0
 26 28  1  0
 27 26  2  0
 28 29  1  0
 29 32  1  0
 29 30  1  0
 31 29  1  0
  2 33  1  0
  3 34  1  0
  7 35  1  0
  8 36  1  0
  9 37  1  0
 16 38  1  0
M  END
>  <Score>  (1) 
-7.10645

$$$$
