
     RDKit          3D

 45 49  0  0  0  0  0  0  0  0999 V2000
   43.0580   85.2170   59.5880 C   0  0  0  0  0  0  0  0  0  0  0  0
   43.3690   86.4240   59.5820 O   0  0  0  0  0  0  0  0  0  0  0  0
   42.6130   84.4640   63.2170 C   0  0  0  0  0  0  0  0  0  0  0  0
   42.8890   85.1750   62.0470 C   0  0  0  0  0  0  0  0  0  0  0  0
   42.7850   84.5350   60.8420 C   0  0  0  0  0  0  0  0  0  0  0  0
   42.4160   83.2320   60.8430 N   0  0  0  0  0  0  0  0  0  0  0  0
   42.1500   82.5470   61.9800 C   0  0  0  0  0  0  0  0  0  0  0  0
   42.2500   83.1670   63.1520 N   0  0  0  0  0  0  0  0  0  0  0  0
   41.7640   81.1760   61.9650 N   0  0  0  0  0  0  0  0  0  0  0  0
   42.7490   80.2780   61.9230 C   0  0  0  0  0  0  0  0  0  0  0  0
   42.3680   78.9450   61.9100 C   0  0  0  0  0  0  0  0  0  0  0  0
   41.0270   78.6490   61.9390 C   0  0  0  0  0  0  0  0  0  0  0  0
   40.5170   77.3120   61.9300 N   0  0  0  0  0  0  0  0  0  0  0  0
   40.0540   79.6050   61.9830 N   0  0  0  0  0  0  0  0  0  0  0  0
   40.4330   80.9170   61.9960 C   0  0  0  0  0  0  0  0  0  0  0  0
   39.5910   81.8910   62.0360 O   0  0  0  0  0  0  0  0  0  0  0  0
   42.9680   84.4880   58.3220 C   0  0  0  0  0  0  0  0  0  0  0  0
   43.8010   84.4380   57.2200 C   0  0  0  0  0  0  0  0  0  0  0  0
   43.4480   83.6600   56.1800 C   0  0  0  0  0  0  0  0  0  0  0  0
   42.2960   82.9300   56.1910 C   0  0  0  0  0  0  0  0  0  0  0  0
   41.6220   83.3940   57.8800 S   0  0  0  0  0  0  0  0  0  0  0  0
   41.6500   82.0670   55.3410 C   0  0  0  0  0  0  0  0  0  0  0  0
   42.0600   81.8800   54.0150 C   0  0  0  0  0  0  0  0  0  0  0  0
   41.3770   80.9910   53.1850 C   0  0  0  0  0  0  0  0  0  0  0  0
   40.3040   80.3060   53.6810 N   0  0  0  0  0  0  0  0  0  0  0  0
   39.9240   80.4940   54.9510 C   0  0  0  0  0  0  0  0  0  0  0  0
   40.5840   81.3440   55.7330 N   0  0  0  0  0  0  0  0  0  0  0  0
   38.8020   79.7880   55.4990 N   0  0  0  0  0  0  0  0  0  0  0  0
   39.0460   78.4690   55.7460 C   0  0  0  0  0  0  0  0  0  0  0  0
   37.8830   77.9350   56.2670 C   0  0  0  0  0  0  0  0  0  0  0  0
   36.9820   78.9320   56.3170 N   0  0  0  0  0  0  0  0  0  0  0  0
   37.5330   80.0650   55.8520 C   0  0  0  0  0  0  0  0  0  0  0  0
   42.6919   84.9633   64.1940 H   0  0  0  0  0  0  0  0  0  0  0  0
   43.1854   86.2333   62.0935 H   0  0  0  0  0  0  0  0  0  0  0  0
   43.8069   80.5787   61.8999 H   0  0  0  0  0  0  0  0  0  0  0  0
   43.1212   78.1440   61.8773 H   0  0  0  0  0  0  0  0  0  0  0  0
   39.5003   77.1484   61.9530 H   0  0  0  0  0  0  0  0  0  0  0  0
   41.1666   76.5132   61.9005 H   0  0  0  0  0  0  0  0  0  0  0  0
   44.7329   85.0219   57.1936 H   0  0  0  0  0  0  0  0  0  0  0  0
   44.1051   83.6117   55.2991 H   0  0  0  0  0  0  0  0  0  0  0  0
   42.9251   82.4371   53.6260 H   0  0  0  0  0  0  0  0  0  0  0  0
   41.6985   80.8432   52.1435 H   0  0  0  0  0  0  0  0  0  0  0  0
   39.9891   77.9325   55.5649 H   0  0  0  0  0  0  0  0  0  0  0  0
   37.7244   76.8928   56.5811 H   0  0  0  0  0  0  0  0  0  0  0  0
   37.0365   81.0435   55.7737 H   0  0  0  0  0  0  0  0  0  0  0  0
  1  5  1  0
  2  1  2  0
  4  3  2  0
  5  6  2  0
  5  4  1  0
  6  7  1  0
  7  8  2  0
  8  3  1  0
  9  7  1  0
  9 15  1  0
 10  9  1  0
 11 10  2  0
 11 12  1  0
 12 14  2  0
 13 12  1  0
 14 15  1  0
 15 16  2  0
 17  1  1  0
 18 17  2  0
 19 20  2  0
 19 18  1  0
 20 21  1  0
 21 17  1  0
 22 27  1  0
 22 20  1  0
 23 22  2  0
 24 25  2  0
 24 23  1  0
 25 26  1  0
 26 28  1  0
 26 27  2  0
 28 29  1  0
 28 32  1  0
 29 30  2  0
 30 31  1  0
 32 31  2  0
  3 33  1  0
  4 34  1  0
 10 35  1  0
 11 36  1  0
 13 37  1  0
 13 38  1  0
 18 39  1  0
 19 40  1  0
 23 41  1  0
 24 42  1  0
 29 43  1  0
 30 44  1  0
 32 45  1  0
M  END
>  <Score>  (1) 
-7.01811

$$$$
