
     RDKit          3D

 40 44  0  0  0  0  0  0  0  0999 V2000
   40.9990   81.8200   61.1640 C   0  0  0  0  0  0  0  0  0  0  0  0
   40.6870   82.4300   59.9700 C   0  0  0  0  0  0  0  0  0  0  0  0
   40.1980   81.7570   58.8680 C   0  0  0  0  0  0  0  0  0  0  0  0
   40.0090   80.3990   58.9610 C   0  0  0  0  0  0  0  0  0  0  0  0
   40.2940   79.7300   60.1080 C   0  0  0  0  0  0  0  0  0  0  0  0
   40.1060   78.3850   60.1920 C   0  0  0  0  0  0  0  0  0  0  0  0
   40.3900   77.6530   61.3530 C   0  0  0  0  0  0  0  0  0  0  0  0
   40.8780   78.3880   62.4180 C   0  0  0  0  0  0  0  0  0  0  0  0
   41.0520   79.7490   62.2890 C   0  0  0  0  0  0  0  0  0  0  0  0
   40.7740   80.4650   61.1520 C   0  0  0  0  0  0  0  0  0  0  0  0
   39.5730   77.5860   59.0770 C   0  0  0  0  0  0  0  0  0  0  0  0
   39.4640   76.2680   58.7890 N   0  0  0  0  0  0  0  0  0  0  0  0
   38.8990   76.0520   57.6460 O   0  0  0  0  0  0  0  0  0  0  0  0
   38.6000   77.1760   57.1090 C   0  0  0  0  0  0  0  0  0  0  0  0
   39.0110   78.0730   57.9830 N   0  0  0  0  0  0  0  0  0  0  0  0
   37.9830   77.5510   55.8950 N   0  0  0  0  0  0  0  0  0  0  0  0
   36.9520   76.8110   55.5040 C   0  0  0  0  0  0  0  0  0  0  0  0
   36.4770   77.3250   54.2870 C   0  0  0  0  0  0  0  0  0  0  0  0
   37.2640   78.3820   53.9850 N   0  0  0  0  0  0  0  0  0  0  0  0
   38.1830   78.5210   54.9660 C   0  0  0  0  0  0  0  0  0  0  0  0
   43.0890   83.8090   63.6540 C   0  0  0  0  0  0  0  0  0  0  0  0
   42.8100   82.9990   62.5590 C   0  0  0  0  0  0  0  0  0  0  0  0
   41.4960   82.6270   62.2290 C   0  0  0  0  0  0  0  0  0  0  0  0
   40.5470   83.1400   63.0890 N   0  0  0  0  0  0  0  0  0  0  0  0
   40.8350   83.9210   64.1420 C   0  0  0  0  0  0  0  0  0  0  0  0
   42.1040   84.2460   64.4110 N   0  0  0  0  0  0  0  0  0  0  0  0
   39.7690   84.3920   64.9590 N   0  0  0  0  0  0  0  0  0  0  0  0
   40.8359   83.5169   59.8891 H   0  0  0  0  0  0  0  0  0  0  0  0
   39.9652   82.2953   57.9374 H   0  0  0  0  0  0  0  0  0  0  0  0
   39.6210   79.8455   58.0932 H   0  0  0  0  0  0  0  0  0  0  0  0
   40.2350   76.5656   61.4131 H   0  0  0  0  0  0  0  0  0  0  0  0
   41.1266   77.8876   63.3655 H   0  0  0  0  0  0  0  0  0  0  0  0
   41.4409   80.2997   63.1582 H   0  0  0  0  0  0  0  0  0  0  0  0
   36.5407   75.9439   56.0415 H   0  0  0  0  0  0  0  0  0  0  0  0
   35.6315   76.9432   53.6959 H   0  0  0  0  0  0  0  0  0  0  0  0
   38.9651   79.2935   55.0055 H   0  0  0  0  0  0  0  0  0  0  0  0
   44.1283   84.0837   63.8871 H   0  0  0  0  0  0  0  0  0  0  0  0
   43.6407   82.6396   61.9339 H   0  0  0  0  0  0  0  0  0  0  0  0
   39.9694   84.9924   65.7716 H   0  0  0  0  0  0  0  0  0  0  0  0
   38.7971   84.1325   64.7377 H   0  0  0  0  0  0  0  0  0  0  0  0
  1 23  1  0
  2  1  2  0
  3  4  2  0
  3  2  1  0
  4  5  1  0
  5  6  1  0
  5 10  2  0
  6  7  2  0
  7  8  1  0
  9  8  2  0
 10  1  1  0
 10  9  1  0
 11  6  1  0
 12 11  2  0
 13 12  1  0
 14 13  1  0
 14 15  2  0
 15 11  1  0
 16 14  1  0
 17 16  1  0
 18 17  2  0
 19 18  1  0
 19 20  2  0
 20 16  1  0
 21 26  2  0
 22 21  1  0
 23 22  2  0
 23 24  1  0
 24 25  2  0
 25 26  1  0
 25 27  1  0
  2 28  1  0
  3 29  1  0
  4 30  1  0
  7 31  1  0
  8 32  1  0
  9 33  1  0
 17 34  1  0
 18 35  1  0
 20 36  1  0
 21 37  1  0
 22 38  1  0
 27 39  1  0
 27 40  1  0
M  END
>  <Score>  (1) 
-7.6051

$$$$
