
     RDKit          3D

 43 46  0  0  1  0  0  0  0  0999 V2000
   40.5340   80.6010   61.2230 N   0  0  0  0  0  0  0  0  0  0  0  0
   41.2590   80.2410   62.3110 C   0  0  0  0  0  0  0  0  0  0  0  0
   41.5960   78.9110   62.2220 N   0  0  0  0  0  0  0  0  0  0  0  0
   41.0900   78.4290   61.0840 C   0  0  0  0  0  0  0  0  0  0  0  0
   41.1560   77.2460   60.3790 C   0  0  2  0  0  0  0  0  0  0  0  0
   40.2640   77.0240   59.3740 N   0  0  0  0  0  0  0  0  0  0  0  0
   39.6490   78.0450   58.7740 C   0  0  0  0  0  0  0  0  0  0  0  0
   39.7440   79.2500   59.3450 N   0  0  0  0  0  0  0  0  0  0  0  0
   40.4370   79.4830   60.4880 C   0  0  0  0  0  0  0  0  0  0  0  0
   38.9450   77.8080   57.5550 N   0  0  0  0  0  0  0  0  0  0  0  0
   38.0920   76.6510   57.4850 C   0  0  0  0  0  0  0  0  0  0  0  0
   36.7000   77.1920   57.2600 C   0  0  0  0  0  0  0  0  0  0  0  0
   36.6980   77.8310   55.8930 C   0  0  0  0  0  0  0  0  0  0  0  0
   37.7390   78.8940   55.6990 C   0  0  0  0  0  0  0  0  0  0  0  0
   39.0340   78.6460   56.3980 C   0  0  0  0  0  0  0  0  0  0  0  0
   40.0420   81.9110   60.9860 C   0  0  0  0  0  0  0  0  0  0  0  0
   40.2430   82.6380   59.7910 C   0  0  0  0  0  0  0  0  0  0  0  0
   39.7080   83.9170   59.7180 C   0  0  0  0  0  0  0  0  0  0  0  0
   39.0200   84.4010   60.7930 N   0  0  0  0  0  0  0  0  0  0  0  0
   38.8530   83.6650   61.9170 C   0  0  0  0  0  0  0  0  0  0  0  0
   39.3650   82.4270   62.0020 N   0  0  0  0  0  0  0  0  0  0  0  0
   41.5520   76.1020   61.1600 N   0  0  0  0  0  0  0  0  0  0  0  0
   42.8600   75.5530   61.2390 C   0  0  0  0  0  0  0  0  0  0  0  0
   43.7000   75.6050   60.2960 O   0  0  0  0  0  0  0  0  0  0  0  0
   43.2950   74.9060   62.4020 O   0  0  0  0  0  0  0  0  0  0  0  0
   41.5353   80.9109   63.1386 H   0  0  0  0  0  0  0  0  0  0  0  0
   42.0264   77.4474   59.7372 H   0  0  0  0  0  0  0  0  0  0  0  0
   39.2661   80.0430   58.8937 H   0  0  0  0  0  0  0  0  0  0  0  0
   38.3922   76.0015   56.6495 H   0  0  0  0  0  0  0  0  0  0  0  0
   38.1516   76.0429   58.3997 H   0  0  0  0  0  0  0  0  0  0  0  0
   35.9651   76.3744   57.2972 H   0  0  0  0  0  0  0  0  0  0  0  0
   36.4288   77.9212   58.0377 H   0  0  0  0  0  0  0  0  0  0  0  0
   36.8693   77.0425   55.1454 H   0  0  0  0  0  0  0  0  0  0  0  0
   35.7221   78.3263   55.7818 H   0  0  0  0  0  0  0  0  0  0  0  0
   37.9438   78.9779   54.6215 H   0  0  0  0  0  0  0  0  0  0  0  0
   37.3243   79.8131   56.1386 H   0  0  0  0  0  0  0  0  0  0  0  0
   39.7219   78.1699   55.6837 H   0  0  0  0  0  0  0  0  0  0  0  0
   39.3844   79.6261   56.7539 H   0  0  0  0  0  0  0  0  0  0  0  0
   40.8033   82.2060   58.9488 H   0  0  0  0  0  0  0  0  0  0  0  0
   39.8359   84.5279   58.8123 H   0  0  0  0  0  0  0  0  0  0  0  0
   38.2939   84.0844   62.7664 H   0  0  0  0  0  0  0  0  0  0  0  0
   40.8174   75.6383   61.7134 H   0  0  0  0  0  0  0  0  0  0  0  0
   44.2087   74.5273   62.4455 H   0  0  0  0  0  0  0  0  0  0  0  0
  1  2  1  0
  3  2  2  0
  4  3  1  0
  5  4  1  0
  5 22  1  0
  6  5  1  0
  7  8  1  0
  7  6  2  0
  8  9  1  0
  9  4  2  0
  9  1  1  0
 10  7  1  0
 11 10  1  0
 12 11  1  0
 13 12  1  0
 14 13  1  0
 14 15  1  0
 15 10  1  0
 16  1  1  0
 16 21  1  0
 17 16  2  0
 18 17  1  0
 18 19  2  0
 19 20  1  0
 20 21  2  0
 22 23  1  0
 23 25  1  0
 24 23  2  0
  2 26  1  0
  5 27  1  6
  8 28  1  0
 11 29  1  0
 11 30  1  0
 12 31  1  0
 12 32  1  0
 13 33  1  0
 13 34  1  0
 14 35  1  0
 14 36  1  0
 15 37  1  0
 15 38  1  0
 17 39  1  0
 18 40  1  0
 20 41  1  0
 22 42  1  0
 25 43  1  0
M  END
>  <Score>  (1) 
-7.07904

$$$$
