
     RDKit          3D

 33 36  0  0  0  0  0  0  0  0999 V2000
   40.5610   84.0860   60.1190 C   0  0  0  0  0  0  0  0  0  0  0  0
   41.0410   82.7770   59.9930 C   0  0  0  0  0  0  0  0  0  0  0  0
   40.4590   81.7770   60.7900 C   0  0  0  0  0  0  0  0  0  0  0  0
   39.4500   82.1410   61.6490 N   0  0  0  0  0  0  0  0  0  0  0  0
   39.0350   83.4120   61.7230 C   0  0  0  0  0  0  0  0  0  0  0  0
   39.5700   84.3750   60.9790 N   0  0  0  0  0  0  0  0  0  0  0  0
   37.9870   83.7130   62.6320 N   0  0  0  0  0  0  0  0  0  0  0  0
   40.8540   80.4110   60.7580 N   0  0  0  0  0  0  0  0  0  0  0  0
   41.3560   79.9580   61.8800 N   0  0  0  0  0  0  0  0  0  0  0  0
   41.7020   78.6740   61.7730 C   0  0  0  0  0  0  0  0  0  0  0  0
   41.3870   78.3230   60.4890 C   0  0  0  0  0  0  0  0  0  0  0  0
   40.8470   79.4160   59.8310 C   0  0  0  0  0  0  0  0  0  0  0  0
   41.2040   85.0370   59.2780 N   0  0  0  0  0  0  0  0  0  0  0  0
   40.7830   85.6050   58.1360 C   0  0  0  0  0  0  0  0  0  0  0  0
   41.6960   86.4510   57.6560 N   0  0  0  0  0  0  0  0  0  0  0  0
   42.7490   86.4580   58.4810 C   0  0  0  0  0  0  0  0  0  0  0  0
   43.9760   87.0760   58.5750 C   0  0  0  0  0  0  0  0  0  0  0  0
   44.2760   87.8970   57.6460 O   0  0  0  0  0  0  0  0  0  0  0  0
   44.8210   86.8340   59.5910 N   0  0  0  0  0  0  0  0  0  0  0  0
   44.5160   85.9700   60.5780 C   0  0  0  0  0  0  0  0  0  0  0  0
   45.3500   85.6700   61.6690 N   0  0  0  0  0  0  0  0  0  0  0  0
   43.3140   85.3440   60.5140 N   0  0  0  0  0  0  0  0  0  0  0  0
   42.4420   85.5620   59.5120 C   0  0  0  0  0  0  0  0  0  0  0  0
   41.8518   82.5379   59.2891 H   0  0  0  0  0  0  0  0  0  0  0  0
   37.6408   84.6793   62.7171 H   0  0  0  0  0  0  0  0  0  0  0  0
   37.5728   82.9651   63.2064 H   0  0  0  0  0  0  0  0  0  0  0  0
   42.1455   78.0347   62.5506 H   0  0  0  0  0  0  0  0  0  0  0  0
   41.5389   77.3271   60.0473 H   0  0  0  0  0  0  0  0  0  0  0  0
   40.4919   79.4675   58.7912 H   0  0  0  0  0  0  0  0  0  0  0  0
   39.8132   85.3997   57.6593 H   0  0  0  0  0  0  0  0  0  0  0  0
   45.7273   87.3228   59.6158 H   0  0  0  0  0  0  0  0  0  0  0  0
   45.0409   84.9953   62.3833 H   0  0  0  0  0  0  0  0  0  0  0  0
   46.2702   86.1248   61.7542 H   0  0  0  0  0  0  0  0  0  0  0  0
  1  6  1  0
  2  1  2  0
  2  3  1  0
  3  4  2  0
  4  5  1  0
  5  7  1  0
  6  5  2  0
  8  3  1  0
  8  9  1  0
 10  9  2  0
 11 10  1  0
 12 11  2  0
 12  8  1  0
 13 23  1  0
 13  1  1  0
 14 13  1  0
 15 14  2  0
 15 16  1  0
 16 17  1  0
 16 23  2  0
 17 19  1  0
 18 17  2  0
 19 20  1  0
 20 21  1  0
 22 20  2  0
 23 22  1  0
  2 24  1  0
  7 25  1  0
  7 26  1  0
 10 27  1  0
 11 28  1  0
 12 29  1  0
 14 30  1  0
 19 31  1  0
 21 32  1  0
 21 33  1  0
M  END
>  <Score>  (1) 
-7.20815

$$$$
