
     RDKit          3D

 48 52  0  0  0  0  0  0  0  0999 V2000
   40.8620   81.0340   59.5400 C   0  0  0  0  0  0  0  0  0  0  0  0
   42.1630   80.5250   59.7440 C   0  0  0  0  0  0  0  0  0  0  0  0
   42.4670   79.2040   59.3910 C   0  0  0  0  0  0  0  0  0  0  0  0
   41.4710   78.4880   58.8670 N   0  0  0  0  0  0  0  0  0  0  0  0
   40.2370   78.9450   58.6650 C   0  0  0  0  0  0  0  0  0  0  0  0
   40.0110   80.2050   59.0210 N   0  0  0  0  0  0  0  0  0  0  0  0
   39.2010   78.1680   58.1030 N   0  0  0  0  0  0  0  0  0  0  0  0
   38.3140   78.8210   57.2940 C   0  0  0  0  0  0  0  0  0  0  0  0
   37.3800   77.8370   56.9110 C   0  0  0  0  0  0  0  0  0  0  0  0
   37.7130   76.6550   57.4760 N   0  0  0  0  0  0  0  0  0  0  0  0
   38.8350   76.8850   58.2030 C   0  0  0  0  0  0  0  0  0  0  0  0
   40.4850   82.4030   59.8860 C   0  0  0  0  0  0  0  0  0  0  0  0
   39.9700   83.1600   58.8550 C   0  0  0  0  0  0  0  0  0  0  0  0
   39.5780   84.4820   59.0700 C   0  0  0  0  0  0  0  0  0  0  0  0
   39.7210   84.9850   60.3090 C   0  0  0  0  0  0  0  0  0  0  0  0
   40.2240   84.2670   61.3440 C   0  0  0  0  0  0  0  0  0  0  0  0
   40.6200   82.9360   61.1330 C   0  0  0  0  0  0  0  0  0  0  0  0
   41.1520   82.2090   62.2740 C   0  0  0  0  0  0  0  0  0  0  0  0
   40.6200   81.3870   63.0200 O   0  0  0  0  0  0  0  0  0  0  0  0
   42.4290   82.3300   62.7350 O   0  0  0  0  0  0  0  0  0  0  0  0
   43.0600   83.3030   63.4270 C   0  0  0  0  0  0  0  0  0  0  0  0
   44.5010   83.4380   63.4250 N   0  0  0  0  0  0  0  0  0  0  0  0
   42.2850   84.0630   64.0620 O   0  0  0  0  0  0  0  0  0  0  0  0
   39.3700   75.8080   58.9850 C   0  0  0  0  0  0  0  0  0  0  0  0
   39.4730   75.9020   60.3910 C   0  0  0  0  0  0  0  0  0  0  0  0
   39.9450   74.7620   60.9730 N   0  0  0  0  0  0  0  0  0  0  0  0
   40.1640   73.8930   59.9890 C   0  0  0  0  0  0  0  0  0  0  0  0
   40.6060   72.5970   59.9810 C   0  0  0  0  0  0  0  0  0  0  0  0
   40.7180   71.8740   58.8010 C   0  0  0  0  0  0  0  0  0  0  0  0
   40.3690   72.5010   57.6230 C   0  0  0  0  0  0  0  0  0  0  0  0
   39.9340   73.7940   57.6730 C   0  0  0  0  0  0  0  0  0  0  0  0
   39.8220   74.5190   58.8300 C   0  0  0  0  0  0  0  0  0  0  0  0
   42.9407   81.1681   60.1817 H   0  0  0  0  0  0  0  0  0  0  0  0
   43.4715   78.7805   59.5378 H   0  0  0  0  0  0  0  0  0  0  0  0
   38.3262   79.8823   57.0049 H   0  0  0  0  0  0  0  0  0  0  0  0
   36.5140   78.0051   56.2539 H   0  0  0  0  0  0  0  0  0  0  0  0
   39.8671   82.7175   57.8532 H   0  0  0  0  0  0  0  0  0  0  0  0
   39.1657   85.0924   58.2531 H   0  0  0  0  0  0  0  0  0  0  0  0
   39.4162   86.0261   60.4914 H   0  0  0  0  0  0  0  0  0  0  0  0
   40.3210   84.7232   62.3402 H   0  0  0  0  0  0  0  0  0  0  0  0
   44.9483   84.1926   63.9648 H   0  0  0  0  0  0  0  0  0  0  0  0
   45.0792   82.7794   62.8838 H   0  0  0  0  0  0  0  0  0  0  0  0
   39.2001   76.8035   60.9591 H   0  0  0  0  0  0  0  0  0  0  0  0
   40.1015   74.6044   61.9788 H   0  0  0  0  0  0  0  0  0  0  0  0
   40.8789   72.1171   60.9324 H   0  0  0  0  0  0  0  0  0  0  0  0
   41.0741   70.8332   58.8054 H   0  0  0  0  0  0  0  0  0  0  0  0
   40.4398   71.9697   56.6624 H   0  0  0  0  0  0  0  0  0  0  0  0
   39.6568   74.2831   56.7275 H   0  0  0  0  0  0  0  0  0  0  0  0
  1  2  2  0
  1 12  1  0
  3  2  1  0
  4  3  2  0
  5  4  1  0
  5  6  2  0
  6  1  1  0
  7 11  1  0
  7  5  1  0
  8  7  1  0
  9  8  2  0
  9 10  1  0
 10 11  2  0
 11 24  1  0
 12 17  2  0
 13 14  2  0
 13 12  1  0
 14 15  1  0
 15 16  2  0
 17 16  1  0
 17 18  1  0
 18 20  1  0
 18 19  2  0
 20 21  1  0
 21 23  2  0
 22 21  1  0
 24 25  2  0
 25 26  1  0
 27 26  1  0
 28 27  2  0
 29 28  1  0
 30 31  1  0
 30 29  2  0
 31 32  2  0
 32 24  1  0
 32 27  1  0
  2 33  1  0
  3 34  1  0
  8 35  1  0
  9 36  1  0
 13 37  1  0
 14 38  1  0
 15 39  1  0
 16 40  1  0
 22 41  1  0
 22 42  1  0
 25 43  1  0
 26 44  1  0
 28 45  1  0
 29 46  1  0
 30 47  1  0
 31 48  1  0
M  END
>  <Score>  (1) 
-7.11835

$$$$
