
     RDKit          3D

 47 50  0  0  0  0  0  0  0  0999 V2000
   38.9930   78.9900   57.6200 O   0  0  0  0  0  0  0  0  0  0  0  0
   38.5650   77.9340   56.8760 C   0  0  0  0  0  0  0  0  0  0  0  0
   38.5670   76.5930   57.0770 C   0  0  0  0  0  0  0  0  0  0  0  0
   37.9980   75.9980   55.9710 C   0  0  0  0  0  0  0  0  0  0  0  0
   37.6690   77.0160   55.1340 C   0  0  0  0  0  0  0  0  0  0  0  0
   38.0220   78.1440   55.7110 O   0  0  0  0  0  0  0  0  0  0  0  0
   39.0780   75.9500   58.2350 N   0  0  0  0  0  0  0  0  0  0  0  0
   38.1640   75.9180   59.3600 C   0  0  0  0  0  0  0  0  0  0  0  0
   38.5970   74.9440   60.4060 C   0  0  0  0  0  0  0  0  0  0  0  0
   39.3320   73.8080   59.7580 C   0  0  0  0  0  0  0  0  0  0  0  0
   40.6250   74.2630   59.1110 C   0  0  0  0  0  0  0  0  0  0  0  0
   40.4220   75.4070   58.1760 C   0  0  0  0  0  0  0  0  0  0  0  0
   37.0190   76.8840   53.7930 C   0  0  0  0  0  0  0  0  0  0  0  0
   37.6530   77.6090   52.8410 F   0  0  0  0  0  0  0  0  0  0  0  0
   35.6590   77.1440   53.8660 F   0  0  0  0  0  0  0  0  0  0  0  0
   37.0840   75.5330   53.3920 F   0  0  0  0  0  0  0  0  0  0  0  0
   37.8270   74.5950   55.8150 N   0  0  0  0  0  0  0  0  0  0  0  0
   40.2250   79.1730   58.2200 C   0  0  0  0  0  0  0  0  0  0  0  0
   41.1390   79.0110   57.3480 O   0  0  0  0  0  0  0  0  0  0  0  0
   40.7970   80.7650   61.2930 C   0  0  0  0  0  0  0  0  0  0  0  0
   40.6290   79.4840   61.8240 C   0  0  0  0  0  0  0  0  0  0  0  0
   40.3810   78.6640   60.7120 C   0  0  0  0  0  0  0  0  0  0  0  0
   40.4130   79.4900   59.5930 C   0  0  0  0  0  0  0  0  0  0  0  0
   40.6580   80.6980   59.9860 O   0  0  0  0  0  0  0  0  0  0  0  0
   40.5930   83.5060   63.7630 C   0  0  0  0  0  0  0  0  0  0  0  0
   41.9280   83.9260   63.8010 C   0  0  0  0  0  0  0  0  0  0  0  0
   42.8410   83.2720   62.9950 C   0  0  0  0  0  0  0  0  0  0  0  0
   42.3550   82.2560   62.2210 N   0  0  0  0  0  0  0  0  0  0  0  0
   41.0760   81.8710   62.2000 C   0  0  0  0  0  0  0  0  0  0  0  0
   40.2120   82.5080   62.9780 N   0  0  0  0  0  0  0  0  0  0  0  0
   38.1165   76.9217   59.8075 H   0  0  0  0  0  0  0  0  0  0  0  0
   37.1786   75.6008   58.9879 H   0  0  0  0  0  0  0  0  0  0  0  0
   39.2606   75.4480   61.1241 H   0  0  0  0  0  0  0  0  0  0  0  0
   37.7134   74.5555   60.9335 H   0  0  0  0  0  0  0  0  0  0  0  0
   39.5645   73.0530   60.5234 H   0  0  0  0  0  0  0  0  0  0  0  0
   38.6867   73.3912   58.9707 H   0  0  0  0  0  0  0  0  0  0  0  0
   41.3252   74.5725   59.9009 H   0  0  0  0  0  0  0  0  0  0  0  0
   41.0224   73.4196   58.5272 H   0  0  0  0  0  0  0  0  0  0  0  0
   40.6165   75.0611   57.1501 H   0  0  0  0  0  0  0  0  0  0  0  0
   41.1155   76.2065   58.4756 H   0  0  0  0  0  0  0  0  0  0  0  0
   37.3927   74.2211   54.9592 H   0  0  0  0  0  0  0  0  0  0  0  0
   38.1375   73.9526   56.5578 H   0  0  0  0  0  0  0  0  0  0  0  0
   40.6799   79.1838   62.8810 H   0  0  0  0  0  0  0  0  0  0  0  0
   40.1972   77.5795   60.7232 H   0  0  0  0  0  0  0  0  0  0  0  0
   39.8482   84.0123   64.3947 H   0  0  0  0  0  0  0  0  0  0  0  0
   42.2417   84.7536   64.4542 H   0  0  0  0  0  0  0  0  0  0  0  0
   43.9039   83.5548   62.9776 H   0  0  0  0  0  0  0  0  0  0  0  0
  1 18  1  0
  2  3  2  0
  2  1  1  0
  3  7  1  0
  4  3  1  0
  5  6  1  0
  5  4  2  0
  6  2  1  0
  7  8  1  0
  8  9  1  0
 10  9  1  0
 11 10  1  0
 12  7  1  0
 12 11  1  0
 13 15  1  0
 13  5  1  0
 14 13  1  0
 16 13  1  0
 17  4  1  0
 18 23  1  0
 19 18  2  0
 20 21  2  0
 20 29  1  0
 22 21  1  0
 23 24  1  0
 23 22  2  0
 24 20  1  0
 25 26  2  0
 27 26  1  0
 28 27  2  0
 29 28  1  0
 29 30  2  0
 30 25  1  0
  8 31  1  0
  8 32  1  0
  9 33  1  0
  9 34  1  0
 10 35  1  0
 10 36  1  0
 11 37  1  0
 11 38  1  0
 12 39  1  0
 12 40  1  0
 17 41  1  0
 17 42  1  0
 21 43  1  0
 22 44  1  0
 25 45  1  0
 26 46  1  0
 27 47  1  0
M  END
>  <Score>  (1) 
-7.03135

$$$$
