
     RDKit          3D

 52 57  0  0  0  0  0  0  0  0999 V2000
   41.3150   80.9300   61.2850 C   0  0  0  0  0  0  0  0  0  0  0  0
   40.2320   80.0700   61.2680 C   0  0  0  0  0  0  0  0  0  0  0  0
   40.3130   78.7300   61.6010 C   0  0  0  0  0  0  0  0  0  0  0  0
   41.5360   78.2220   61.9680 C   0  0  0  0  0  0  0  0  0  0  0  0
   42.6430   79.0100   62.0060 C   0  0  0  0  0  0  0  0  0  0  0  0
   43.8460   78.4950   62.3720 C   0  0  0  0  0  0  0  0  0  0  0  0
   45.0090   79.2680   62.4230 C   0  0  0  0  0  0  0  0  0  0  0  0
   44.8640   80.6010   62.0790 C   0  0  0  0  0  0  0  0  0  0  0  0
   43.6230   81.0790   61.7150 C   0  0  0  0  0  0  0  0  0  0  0  0
   42.4930   80.3200   61.6660 C   0  0  0  0  0  0  0  0  0  0  0  0
   39.8960   84.3530   60.3880 C   0  0  0  0  0  0  0  0  0  0  0  0
   39.8980   83.0110   60.7490 C   0  0  0  0  0  0  0  0  0  0  0  0
   41.0970   82.2900   60.9190 C   0  0  0  0  0  0  0  0  0  0  0  0
   42.2200   83.0420   60.6930 N   0  0  0  0  0  0  0  0  0  0  0  0
   42.1970   84.3370   60.3450 C   0  0  0  0  0  0  0  0  0  0  0  0
   41.0510   84.9770   60.1970 N   0  0  0  0  0  0  0  0  0  0  0  0
   43.4220   85.0310   60.1330 N   0  0  0  0  0  0  0  0  0  0  0  0
   44.6250   84.6570   60.8540 C   0  0  0  0  0  0  0  0  0  0  0  0
   45.5140   85.8950   60.9170 C   0  0  0  0  0  0  0  0  0  0  0  0
   44.7310   87.0940   61.1010 N   0  0  0  0  0  0  0  0  0  0  0  0
   43.8280   87.3760   60.0270 C   0  0  0  0  0  0  0  0  0  0  0  0
   43.5490   86.1380   59.2010 C   0  0  0  0  0  0  0  0  0  0  0  0
   44.0260   77.0850   62.7520 C   0  0  0  0  0  0  0  0  0  0  0  0
   44.5400   76.4200   63.8160 N   0  0  0  0  0  0  0  0  0  0  0  0
   44.4720   75.1370   63.6810 O   0  0  0  0  0  0  0  0  0  0  0  0
   43.9250   74.8640   62.5490 C   0  0  0  0  0  0  0  0  0  0  0  0
   43.6700   76.0430   62.0200 N   0  0  0  0  0  0  0  0  0  0  0  0
   43.6020   73.6630   61.8810 N   0  0  0  0  0  0  0  0  0  0  0  0
   43.0800   72.6830   62.6300 C   0  0  0  0  0  0  0  0  0  0  0  0
   42.8380   71.5880   61.7860 C   0  0  0  0  0  0  0  0  0  0  0  0
   43.2220   71.9470   60.5550 N   0  0  0  0  0  0  0  0  0  0  0  0
   43.6930   73.2190   60.6010 C   0  0  0  0  0  0  0  0  0  0  0  0
   39.2522   80.4740   60.9734 H   0  0  0  0  0  0  0  0  0  0  0  0
   39.4209   78.0871   61.5728 H   0  0  0  0  0  0  0  0  0  0  0  0
   41.6207   77.1585   62.2359 H   0  0  0  0  0  0  0  0  0  0  0  0
   45.9798   78.8434   62.7183 H   0  0  0  0  0  0  0  0  0  0  0  0
   45.7334   81.2747   62.0959 H   0  0  0  0  0  0  0  0  0  0  0  0
   43.5401   82.1425   61.4467 H   0  0  0  0  0  0  0  0  0  0  0  0
   38.9458   84.8927   60.2618 H   0  0  0  0  0  0  0  0  0  0  0  0
   38.9379   82.4977   60.9063 H   0  0  0  0  0  0  0  0  0  0  0  0
   44.3677   84.3253   61.8707 H   0  0  0  0  0  0  0  0  0  0  0  0
   45.1428   83.8288   60.3481 H   0  0  0  0  0  0  0  0  0  0  0  0
   46.2138   85.7912   61.7593 H   0  0  0  0  0  0  0  0  0  0  0  0
   46.0599   85.9793   59.9658 H   0  0  0  0  0  0  0  0  0  0  0  0
   44.1817   86.9914   61.9662 H   0  0  0  0  0  0  0  0  0  0  0  0
   42.8810   87.7490   60.4441 H   0  0  0  0  0  0  0  0  0  0  0  0
   44.2909   88.1308   59.3744 H   0  0  0  0  0  0  0  0  0  0  0  0
   42.6152   86.2641   58.6334 H   0  0  0  0  0  0  0  0  0  0  0  0
   44.3583   85.9549   58.4788 H   0  0  0  0  0  0  0  0  0  0  0  0
   42.8777   72.7281   63.7103 H   0  0  0  0  0  0  0  0  0  0  0  0
   42.4127   70.6173   62.0807 H   0  0  0  0  0  0  0  0  0  0  0  0
   44.0822   73.7926   59.7469 H   0  0  0  0  0  0  0  0  0  0  0  0
  1 10  1  0
  2  1  2  0
  2  3  1  0
  3  4  2  0
  4  5  1  0
  5  6  2  0
  6  7  1  0
  6 23  1  0
  8  7  2  0
  9  8  1  0
 10  9  2  0
 10  5  1  0
 11 12  2  0
 12 13  1  0
 13  1  1  0
 14 13  2  0
 15 14  1  0
 16 15  2  0
 16 11  1  0
 17 15  1  0
 17 18  1  0
 18 19  1  0
 19 20  1  0
 21 20  1  0
 22 21  1  0
 22 17  1  0
 23 24  2  0
 25 24  1  0
 26 25  1  0
 27 26  2  0
 27 23  1  0
 28 26  1  0
 28 29  1  0
 30 29  2  0
 31 32  2  0
 31 30  1  0
 32 28  1  0
  2 33  1  0
  3 34  1  0
  4 35  1  0
  7 36  1  0
  8 37  1  0
  9 38  1  0
 11 39  1  0
 12 40  1  0
 18 41  1  0
 18 42  1  0
 19 43  1  0
 19 44  1  0
 20 45  1  0
 21 46  1  0
 21 47  1  0
 22 48  1  0
 22 49  1  0
 29 50  1  0
 30 51  1  0
 32 52  1  0
M  END
>  <Score>  (1) 
-7.48745

$$$$
