
     RDKit          3D

 41 45  0  0  0  0  0  0  0  0999 V2000
   39.8450   82.2450   60.3510 C   0  0  0  0  0  0  0  0  0  0  0  0
   40.1640   83.2220   59.3570 C   0  0  0  0  0  0  0  0  0  0  0  0
   39.8880   84.5580   59.6430 C   0  0  0  0  0  0  0  0  0  0  0  0
   39.3190   84.8510   60.8860 N   0  0  0  0  0  0  0  0  0  0  0  0
   39.0320   83.8710   61.8110 C   0  0  0  0  0  0  0  0  0  0  0  0
   39.2790   82.5480   61.5820 N   0  0  0  0  0  0  0  0  0  0  0  0
   40.1340   80.9040   59.9990 N   0  0  0  0  0  0  0  0  0  0  0  0
   40.3320   80.4110   58.7820 C   0  0  0  0  0  0  0  0  0  0  0  0
   40.6170   79.1130   58.8330 N   0  0  0  0  0  0  0  0  0  0  0  0
   40.5990   78.7430   60.1260 C   0  0  0  0  0  0  0  0  0  0  0  0
   40.8090   77.5140   60.6990 C   0  0  0  0  0  0  0  0  0  0  0  0
   41.0870   76.5260   59.9450 O   0  0  0  0  0  0  0  0  0  0  0  0
   40.7060   77.4210   62.0340 N   0  0  0  0  0  0  0  0  0  0  0  0
   40.4130   78.5070   62.7430 C   0  0  0  0  0  0  0  0  0  0  0  0
   40.3330   78.2450   64.1180 N   0  0  0  0  0  0  0  0  0  0  0  0
   40.2020   79.7370   62.2130 N   0  0  0  0  0  0  0  0  0  0  0  0
   40.2890   79.8970   60.8750 C   0  0  0  0  0  0  0  0  0  0  0  0
   40.2340   80.9540   57.4250 C   0  0  0  0  0  0  0  0  0  0  0  0
   39.8790   79.9050   56.3840 C   0  0  0  0  0  0  0  0  0  0  0  0
   40.7330   79.5290   55.3400 C   0  0  0  0  0  0  0  0  0  0  0  0
   40.1960   78.5840   54.5600 N   0  0  0  0  0  0  0  0  0  0  0  0
   39.0010   78.3420   55.0840 C   0  0  0  0  0  0  0  0  0  0  0  0
   37.9990   77.4630   54.6970 C   0  0  0  0  0  0  0  0  0  0  0  0
   36.8130   77.3850   55.4100 C   0  0  0  0  0  0  0  0  0  0  0  0
   36.6290   78.1910   56.5190 C   0  0  0  0  0  0  0  0  0  0  0  0
   37.6100   79.0920   56.9480 C   0  0  0  0  0  0  0  0  0  0  0  0
   38.7710   79.1230   56.1940 C   0  0  0  0  0  0  0  0  0  0  0  0
   40.6131   82.9285   58.3967 H   0  0  0  0  0  0  0  0  0  0  0  0
   40.1100   85.3536   58.9165 H   0  0  0  0  0  0  0  0  0  0  0  0
   38.5861   84.1663   62.7722 H   0  0  0  0  0  0  0  0  0  0  0  0
   40.8526   76.5167   62.5049 H   0  0  0  0  0  0  0  0  0  0  0  0
   40.1119   79.0065   64.7754 H   0  0  0  0  0  0  0  0  0  0  0  0
   40.4953   77.2910   64.4708 H   0  0  0  0  0  0  0  0  0  0  0  0
   39.4572   81.7328   57.4154 H   0  0  0  0  0  0  0  0  0  0  0  0
   41.2240   81.3542   57.1610 H   0  0  0  0  0  0  0  0  0  0  0  0
   41.7316   79.9614   55.1795 H   0  0  0  0  0  0  0  0  0  0  0  0
   40.6186   78.1403   53.7320 H   0  0  0  0  0  0  0  0  0  0  0  0
   38.1476   76.8219   53.8156 H   0  0  0  0  0  0  0  0  0  0  0  0
   36.0232   76.6867   55.0960 H   0  0  0  0  0  0  0  0  0  0  0  0
   35.6850   78.1218   57.0794 H   0  0  0  0  0  0  0  0  0  0  0  0
   37.4678   79.7353   57.8289 H   0  0  0  0  0  0  0  0  0  0  0  0
  1  6  2  0
  2  3  2  0
  2  1  1  0
  3  4  1  0
  4  5  2  0
  6  5  1  0
  7  1  1  0
  7 17  1  0
  8  9  2  0
  8  7  1  0
  9 10  1  0
 10 11  1  0
 10 17  2  0
 11 13  1  0
 12 11  2  0
 13 14  1  0
 14 15  1  0
 16 14  2  0
 17 16  1  0
 18  8  1  0
 19 18  1  0
 20 19  2  0
 21 22  1  0
 21 20  1  0
 22 27  2  0
 23 22  1  0
 23 24  2  0
 24 25  1  0
 25 26  2  0
 27 19  1  0
 27 26  1  0
  2 28  1  0
  3 29  1  0
  5 30  1  0
 13 31  1  0
 15 32  1  0
 15 33  1  0
 18 34  1  0
 18 35  1  0
 20 36  1  0
 21 37  1  0
 23 38  1  0
 24 39  1  0
 25 40  1  0
 26 41  1  0
M  END
>  <Score>  (1) 
-7.59284

$$$$
