
     RDKit          3D

 42 46  0  0  0  0  0  0  0  0999 V2000
   40.7830   82.1510   61.5020 C   0  0  0  0  0  0  0  0  0  0  0  0
   40.4620   82.7980   60.3150 C   0  0  0  0  0  0  0  0  0  0  0  0
   40.1060   82.1500   59.1480 C   0  0  0  0  0  0  0  0  0  0  0  0
   40.0590   80.7850   59.1330 C   0  0  0  0  0  0  0  0  0  0  0  0
   40.3640   80.0580   60.2740 C   0  0  0  0  0  0  0  0  0  0  0  0
   40.3230   78.6870   60.2830 C   0  0  0  0  0  0  0  0  0  0  0  0
   40.6240   77.9420   61.4100 C   0  0  0  0  0  0  0  0  0  0  0  0
   40.9710   78.6690   62.5330 C   0  0  0  0  0  0  0  0  0  0  0  0
   41.0040   80.0410   62.5010 C   0  0  0  0  0  0  0  0  0  0  0  0
   40.7060   80.7820   61.3850 C   0  0  0  0  0  0  0  0  0  0  0  0
   39.9460   78.0100   59.0460 C   0  0  0  0  0  0  0  0  0  0  0  0
   40.0270   78.7920   57.8930 C   0  0  0  0  0  0  0  0  0  0  0  0
   39.6770   78.1860   56.6980 C   0  0  0  0  0  0  0  0  0  0  0  0
   39.2550   76.8730   56.5650 C   0  0  0  0  0  0  0  0  0  0  0  0
   39.2070   76.1850   57.7470 C   0  0  0  0  0  0  0  0  0  0  0  0
   38.8000   74.8630   57.7400 C   0  0  0  0  0  0  0  0  0  0  0  0
   38.7250   74.1010   58.9000 C   0  0  0  0  0  0  0  0  0  0  0  0
   39.0610   74.6460   60.1210 C   0  0  0  0  0  0  0  0  0  0  0  0
   39.4690   75.9650   60.1550 C   0  0  0  0  0  0  0  0  0  0  0  0
   39.5320   76.6900   58.9890 C   0  0  0  0  0  0  0  0  0  0  0  0
   42.5350   84.2390   64.1670 C   0  0  0  0  0  0  0  0  0  0  0  0
   42.3660   83.4720   63.0220 C   0  0  0  0  0  0  0  0  0  0  0  0
   41.1320   82.9540   62.6290 C   0  0  0  0  0  0  0  0  0  0  0  0
   40.1160   83.2790   63.4790 N   0  0  0  0  0  0  0  0  0  0  0  0
   40.2650   84.0170   64.5850 C   0  0  0  0  0  0  0  0  0  0  0  0
   41.4610   84.4830   64.9130 N   0  0  0  0  0  0  0  0  0  0  0  0
   40.4934   83.8975   60.3038 H   0  0  0  0  0  0  0  0  0  0  0  0
   39.8635   82.7258   58.2427 H   0  0  0  0  0  0  0  0  0  0  0  0
   39.7772   80.2585   58.2092 H   0  0  0  0  0  0  0  0  0  0  0  0
   40.5893   76.8425   61.4117 H   0  0  0  0  0  0  0  0  0  0  0  0
   41.2240   78.1414   63.4645 H   0  0  0  0  0  0  0  0  0  0  0  0
   41.2847   80.5758   63.4203 H   0  0  0  0  0  0  0  0  0  0  0  0
   40.3539   79.8416   57.9316 H   0  0  0  0  0  0  0  0  0  0  0  0
   39.7388   78.7942   55.7835 H   0  0  0  0  0  0  0  0  0  0  0  0
   38.9834   76.4247   55.5979 H   0  0  0  0  0  0  0  0  0  0  0  0
   38.5258   74.3979   56.7816 H   0  0  0  0  0  0  0  0  0  0  0  0
   38.3945   73.0534   58.8433 H   0  0  0  0  0  0  0  0  0  0  0  0
   39.0057   74.0472   61.0421 H   0  0  0  0  0  0  0  0  0  0  0  0
   39.7426   76.4337   61.1118 H   0  0  0  0  0  0  0  0  0  0  0  0
   43.5235   84.6316   64.4477 H   0  0  0  0  0  0  0  0  0  0  0  0
   43.2460   83.2632   62.3959 H   0  0  0  0  0  0  0  0  0  0  0  0
   39.3951   84.2367   65.2215 H   0  0  0  0  0  0  0  0  0  0  0  0
  1 23  1  0
  2  1  2  0
  3  2  1  0
  4  3  2  0
  4  5  1  0
  5  6  1  0
  5 10  2  0
  6  7  2  0
  7  8  1  0
  9  8  2  0
 10  1  1  0
 10  9  1  0
 11  6  1  0
 12 11  2  0
 13 12  1  0
 14 13  2  0
 14 15  1  0
 15 20  2  0
 16 15  1  0
 16 17  2  0
 17 18  1  0
 18 19  2  0
 20 11  1  0
 20 19  1  0
 21 26  2  0
 22 21  1  0
 23 22  2  0
 23 24  1  0
 24 25  2  0
 25 26  1  0
  2 27  1  0
  3 28  1  0
  4 29  1  0
  7 30  1  0
  8 31  1  0
  9 32  1  0
 12 33  1  0
 13 34  1  0
 14 35  1  0
 16 36  1  0
 17 37  1  0
 18 38  1  0
 19 39  1  0
 21 40  1  0
 22 41  1  0
 25 42  1  0
M  END
>  <Score>  (1) 
-7.07278

$$$$
