
     RDKit          3D

 53 56  0  0  0  0  0  0  0  0999 V2000
   44.6460   86.9200   61.0110 C   0  0  0  0  0  0  0  0  0  0  0  0
   43.9170   86.8060   59.7920 C   0  0  0  0  0  0  0  0  0  0  0  0
   43.5540   85.6000   59.3030 C   0  0  0  0  0  0  0  0  0  0  0  0
   43.8980   84.5170   59.9920 N   0  0  0  0  0  0  0  0  0  0  0  0
   44.5900   84.5550   61.1580 C   0  0  0  0  0  0  0  0  0  0  0  0
   44.9540   85.7510   61.6510 N   0  0  0  0  0  0  0  0  0  0  0  0
   44.9110   83.3220   61.8280 C   0  0  0  0  0  0  0  0  0  0  0  0
   45.9920   83.2810   62.6770 C   0  0  0  0  0  0  0  0  0  0  0  0
   46.1870   82.0320   63.2800 C   0  0  0  0  0  0  0  0  0  0  0  0
   45.3920   80.9570   63.0560 N   0  0  0  0  0  0  0  0  0  0  0  0
   44.3520   81.0770   62.2100 C   0  0  0  0  0  0  0  0  0  0  0  0
   44.1110   82.2450   61.6010 N   0  0  0  0  0  0  0  0  0  0  0  0
   43.5700   79.9020   62.0340 N   0  0  0  0  0  0  0  0  0  0  0  0
   42.3000   80.1710   61.6290 C   0  0  0  0  0  0  0  0  0  0  0  0
   41.4270   79.0970   61.4190 C   0  0  0  0  0  0  0  0  0  0  0  0
   41.8670   77.8010   61.6250 C   0  0  0  0  0  0  0  0  0  0  0  0
   41.0010   76.6660   61.4210 N   0  0  0  0  0  0  0  0  0  0  0  0
   43.1400   77.5950   62.0270 N   0  0  0  0  0  0  0  0  0  0  0  0
   43.9760   78.6320   62.2280 C   0  0  0  0  0  0  0  0  0  0  0  0
   45.1660   78.4810   62.6020 O   0  0  0  0  0  0  0  0  0  0  0  0
   42.8150   85.6260   58.0460 C   0  0  0  0  0  0  0  0  0  0  0  0
   41.9730   84.4290   57.8670 C   0  0  0  0  0  0  0  0  0  0  0  0
   40.9910   84.2700   58.9830 C   0  0  0  0  0  0  0  0  0  0  0  0
   39.9600   85.1350   59.2130 C   0  0  0  0  0  0  0  0  0  0  0  0
   39.2740   84.6720   60.3160 C   0  0  0  0  0  0  0  0  0  0  0  0
   39.9290   83.5880   60.6610 C   0  0  0  0  0  0  0  0  0  0  0  0
   40.9110   83.3710   59.8860 O   0  0  0  0  0  0  0  0  0  0  0  0
   39.6190   82.7020   61.7920 C   0  0  0  0  0  0  0  0  0  0  0  0
   39.0960   81.6090   61.7770 O   0  0  0  0  0  0  0  0  0  0  0  0
   39.9490   83.1260   63.0760 O   0  0  0  0  0  0  0  0  0  0  0  0
   41.0930   83.2700   63.6940 C   0  0  0  0  0  0  0  0  0  0  0  0
   41.1130   84.6760   64.3740 C   0  0  0  0  0  0  0  0  0  0  0  0
   40.0480   84.7590   65.3460 N   0  0  0  0  0  0  0  0  0  0  0  0
   44.9456   87.8977   61.4164 H   0  0  0  0  0  0  0  0  0  0  0  0
   43.6447   87.7169   59.2388 H   0  0  0  0  0  0  0  0  0  0  0  0
   46.6426   84.1479   62.8649 H   0  0  0  0  0  0  0  0  0  0  0  0
   47.0325   81.9169   63.9742 H   0  0  0  0  0  0  0  0  0  0  0  0
   41.9668   81.2072   61.4703 H   0  0  0  0  0  0  0  0  0  0  0  0
   40.3936   79.2827   61.0910 H   0  0  0  0  0  0  0  0  0  0  0  0
   41.3553   75.7124   61.5820 H   0  0  0  0  0  0  0  0  0  0  0  0
   40.0282   76.8090   61.1143 H   0  0  0  0  0  0  0  0  0  0  0  0
   42.1703   86.5172   58.0331 H   0  0  0  0  0  0  0  0  0  0  0  0
   43.5473   85.6480   57.2255 H   0  0  0  0  0  0  0  0  0  0  0  0
   41.4230   84.5190   56.9186 H   0  0  0  0  0  0  0  0  0  0  0  0
   42.6296   83.5465   57.8606 H   0  0  0  0  0  0  0  0  0  0  0  0
   39.7209   86.0347   58.6270 H   0  0  0  0  0  0  0  0  0  0  0  0
   38.3854   85.1090   60.7949 H   0  0  0  0  0  0  0  0  0  0  0  0
   41.2037   82.4863   64.4580 H   0  0  0  0  0  0  0  0  0  0  0  0
   41.9229   83.1853   62.9770 H   0  0  0  0  0  0  0  0  0  0  0  0
   42.0799   84.8259   64.8766 H   0  0  0  0  0  0  0  0  0  0  0  0
   40.9712   85.4538   63.6092 H   0  0  0  0  0  0  0  0  0  0  0  0
   40.4464   84.7280   66.2953 H   0  0  0  0  0  0  0  0  0  0  0  0
   39.5344   85.6426   65.2179 H   0  0  0  0  0  0  0  0  0  0  0  0
  1  6  2  0
  2  1  1  0
  3  2  2  0
  3  4  1  0
  4  5  2  0
  5  6  1  0
  5  7  1  0
  7  8  2  0
  8  9  1  0
 10  9  2  0
 11 10  1  0
 12  7  1  0
 12 11  2  0
 13 11  1  0
 13 19  1  0
 14 13  1  0
 15 16  1  0
 15 14  2  0
 16 18  2  0
 17 16  1  0
 18 19  1  0
 19 20  2  0
 21  3  1  0
 22 21  1  0
 22 23  1  0
 23 24  2  0
 23 27  1  0
 24 25  1  0
 25 26  2  0
 26 28  1  0
 27 26  1  0
 28 30  1  0
 29 28  2  0
 30 31  1  0
 31 32  1  0
 32 33  1  0
  1 34  1  0
  2 35  1  0
  8 36  1  0
  9 37  1  0
 14 38  1  0
 15 39  1  0
 17 40  1  0
 17 41  1  0
 21 42  1  0
 21 43  1  0
 22 44  1  0
 22 45  1  0
 24 46  1  0
 25 47  1  0
 31 48  1  0
 31 49  1  0
 32 50  1  0
 32 51  1  0
 33 52  1  0
 33 53  1  0
M  END
>  <Score>  (1) 
-7.10011

$$$$
