
     RDKit          3D

 46 50  0  0  1  0  0  0  0  0999 V2000
   40.3630   79.2740   58.9260 C   0  0  0  0  0  0  0  0  0  0  0  0
   40.7520   79.9450   57.8440 C   0  0  0  0  0  0  0  0  0  0  0  0
   40.2740   79.4970   56.6960 N   0  0  0  0  0  0  0  0  0  0  0  0
   39.4840   78.4050   57.0460 C   0  0  0  0  0  0  0  0  0  0  0  0
   39.5730   78.3190   58.3910 N   0  0  0  0  0  0  0  0  0  0  0  0
   40.3750   80.3350   61.2070 N   0  0  0  0  0  0  0  0  0  0  0  0
   40.6720   79.9930   62.5070 N   0  0  0  0  0  0  0  0  0  0  0  0
   41.0850   78.6820   62.3850 C   0  0  0  0  0  0  0  0  0  0  0  0
   41.0420   78.2450   61.0730 C   0  0  0  0  0  0  0  0  0  0  0  0
   40.5690   79.3390   60.2810 C   0  0  0  0  0  0  0  0  0  0  0  0
   39.9350   81.6660   61.0950 C   0  0  0  0  0  0  0  0  0  0  0  0
   40.2390   82.2590   59.8970 C   0  0  0  0  0  0  0  0  0  0  0  0
   39.8490   83.5590   59.6170 C   0  0  0  0  0  0  0  0  0  0  0  0
   39.1390   84.2310   60.6150 N   0  0  0  0  0  0  0  0  0  0  0  0
   38.8410   83.6360   61.8180 C   0  0  0  0  0  0  0  0  0  0  0  0
   39.2270   82.3510   62.0840 N   0  0  0  0  0  0  0  0  0  0  0  0
   38.8420   77.2290   59.0590 C   0  0  2  0  0  0  0  0  0  0  0  0
   39.4800   75.8830   59.1000 C   0  0  0  0  0  0  0  0  0  0  0  0
   38.3310   76.0800   58.2330 C   0  0  2  0  0  0  0  0  0  0  0  0
   38.3860   75.9580   56.8270 N   0  0  0  0  0  0  0  0  0  0  0  0
   37.4450   76.6180   56.0790 C   0  0  0  0  0  0  0  0  0  0  0  0
   37.4900   76.4720   54.7140 C   0  0  0  0  0  0  0  0  0  0  0  0
   36.4710   77.1850   53.8990 C   0  0  0  0  0  0  0  0  0  0  0  0
   38.4710   75.6780   54.1600 C   0  0  0  0  0  0  0  0  0  0  0  0
   38.5200   75.5390   52.9110 O   0  0  0  0  0  0  0  0  0  0  0  0
   39.3760   75.0500   54.9420 N   0  0  0  0  0  0  0  0  0  0  0  0
   39.3670   75.1650   56.2840 C   0  0  0  0  0  0  0  0  0  0  0  0
   40.1840   74.6040   57.0600 O   0  0  0  0  0  0  0  0  0  0  0  0
   41.4253   80.8130   57.9014 H   0  0  0  0  0  0  0  0  0  0  0  0
   38.9103   77.7523   56.3716 H   0  0  0  0  0  0  0  0  0  0  0  0
   41.4099   78.0582   63.2308 H   0  0  0  0  0  0  0  0  0  0  0  0
   41.3191   77.2452   60.7076 H   0  0  0  0  0  0  0  0  0  0  0  0
   40.8039   81.6915   59.1428 H   0  0  0  0  0  0  0  0  0  0  0  0
   40.7580   84.1412   59.4054 H   0  0  0  0  0  0  0  0  0  0  0  0
   39.1495   83.4748   58.7722 H   0  0  0  0  0  0  0  0  0  0  0  0
   38.2834   84.2022   62.5786 H   0  0  0  0  0  0  0  0  0  0  0  0
   39.0027   81.9036   62.9842 H   0  0  0  0  0  0  0  0  0  0  0  0
   38.4034   77.9240   59.7902 H   0  0  0  0  0  0  0  0  0  0  0  0
   40.4776   75.7381   58.6597 H   0  0  0  0  0  0  0  0  0  0  0  0
   39.7246   75.1720   59.9029 H   0  0  0  0  0  0  0  0  0  0  0  0
   37.3396   75.6208   58.1056 H   0  0  0  0  0  0  0  0  0  0  0  0
   36.6780   77.2448   56.5573 H   0  0  0  0  0  0  0  0  0  0  0  0
   35.7540   77.6867   54.5655 H   0  0  0  0  0  0  0  0  0  0  0  0
   36.9675   77.9338   53.2643 H   0  0  0  0  0  0  0  0  0  0  0  0
   35.9377   76.4620   53.2643 H   0  0  0  0  0  0  0  0  0  0  0  0
   40.0968   74.4638   54.4973 H   0  0  0  0  0  0  0  0  0  0  0  0
  1 10  1  0
  2  1  2  0
  3  4  2  0
  3  2  1  0
  4  5  1  0
  5  1  1  0
  5 17  1  0
  6  7  1  0
  8  7  2  0
  9  8  1  0
 10  9  2  0
 10  6  1  0
 11  6  1  0
 11 16  1  0
 12 11  2  0
 13 12  1  0
 13 14  1  0
 14 15  2  0
 15 16  1  0
 17 18  1  0
 19 17  1  0
 19 18  1  0
 20 19  1  0
 21 20  1  0
 22 21  2  0
 23 22  1  0
 24 22  1  0
 24 26  1  0
 25 24  2  0
 26 27  1  0
 27 20  1  0
 27 28  2  0
  2 29  1  0
  4 30  1  0
  8 31  1  0
  9 32  1  0
 12 33  1  0
 13 34  1  0
 13 35  1  0
 15 36  1  0
 16 37  1  0
 17 38  1  1
 18 39  1  0
 18 40  1  0
 19 41  1  1
 21 42  1  0
 23 43  1  0
 23 44  1  0
 23 45  1  0
 26 46  1  0
M  END
>  <Score>  (1) 
-7.08478

$$$$
