
     RDKit          3D

 51 55  0  0  1  0  0  0  0  0999 V2000
   40.6670   77.3990   60.6870 C   0  0  1  0  0  0  0  0  0  0  0  0
   40.1980   78.3210   59.6890 C   0  0  0  0  0  0  0  0  0  0  0  0
   40.9700   79.5880   59.7520 C   0  0  0  0  0  0  0  0  0  0  0  0
   41.4850   80.0190   61.0270 C   0  0  0  0  0  0  0  0  0  0  0  0
   41.2330   79.2050   62.2300 C   0  0  0  0  0  0  0  0  0  0  0  0
   40.2520   78.0720   62.0520 C   0  0  0  0  0  0  0  0  0  0  0  0
   42.2290   81.2260   61.0870 C   0  0  0  0  0  0  0  0  0  0  0  0
   43.5950   81.3670   60.9880 C   0  0  0  0  0  0  0  0  0  0  0  0
   44.2560   82.5740   61.0550 C   0  0  0  0  0  0  0  0  0  0  0  0
   43.5320   83.7440   61.2330 C   0  0  0  0  0  0  0  0  0  0  0  0
   42.1690   83.6310   61.3340 C   0  0  0  0  0  0  0  0  0  0  0  0
   41.5400   82.4060   61.2630 C   0  0  0  0  0  0  0  0  0  0  0  0
   39.7590   82.3930   61.4080 S   0  0  0  0  0  0  0  0  0  0  0  0
   40.1970   76.0200   60.6200 C   0  0  0  0  0  0  0  0  0  0  0  0
   38.8490   75.8800   60.2370 C   0  0  0  0  0  0  0  0  0  0  0  0
   38.3640   74.5570   60.1740 C   0  0  0  0  0  0  0  0  0  0  0  0
   39.1800   73.5230   60.4710 N   0  0  0  0  0  0  0  0  0  0  0  0
   40.4650   73.6990   60.8340 C   0  0  0  0  0  0  0  0  0  0  0  0
   40.9110   74.9430   60.8900 N   0  0  0  0  0  0  0  0  0  0  0  0
   41.4960   72.7290   61.1980 C   0  0  0  0  0  0  0  0  0  0  0  0
   42.4890   72.9760   62.1540 C   0  0  0  0  0  0  0  0  0  0  0  0
   43.4580   72.0810   62.5070 C   0  0  0  0  0  0  0  0  0  0  0  0
   43.4990   70.8430   61.9120 C   0  0  0  0  0  0  0  0  0  0  0  0
   42.5570   70.5260   60.9620 C   0  0  0  0  0  0  0  0  0  0  0  0
   42.6220   69.2770   60.3860 C   0  0  0  0  0  0  0  0  0  0  0  0
   41.7010   68.9030   59.4310 C   0  0  0  0  0  0  0  0  0  0  0  0
   40.7310   69.8330   59.0950 C   0  0  0  0  0  0  0  0  0  0  0  0
   40.7170   71.0570   59.7020 C   0  0  0  0  0  0  0  0  0  0  0  0
   41.6110   71.4740   60.6550 C   0  0  0  0  0  0  0  0  0  0  0  0
   41.7473   77.2538   60.5388 H   0  0  0  0  0  0  0  0  0  0  0  0
   39.1337   78.5358   59.8654 H   0  0  0  0  0  0  0  0  0  0  0  0
   40.3325   77.8699   58.6948 H   0  0  0  0  0  0  0  0  0  0  0  0
   41.1450   80.1848   58.8447 H   0  0  0  0  0  0  0  0  0  0  0  0
   42.1918   78.7755   62.5559 H   0  0  0  0  0  0  0  0  0  0  0  0
   40.7797   79.8851   62.9662 H   0  0  0  0  0  0  0  0  0  0  0  0
   39.2220   78.4545   61.9993 H   0  0  0  0  0  0  0  0  0  0  0  0
   40.2766   77.3623   62.8921 H   0  0  0  0  0  0  0  0  0  0  0  0
   44.1973   80.4575   60.8463 H   0  0  0  0  0  0  0  0  0  0  0  0
   45.3520   82.6098   60.9678 H   0  0  0  0  0  0  0  0  0  0  0  0
   44.0310   84.7226   61.2908 H   0  0  0  0  0  0  0  0  0  0  0  0
   41.5636   84.5385   61.4749 H   0  0  0  0  0  0  0  0  0  0  0  0
   39.4087   82.3904   62.7324 H   0  0  0  0  0  0  0  0  0  0  0  0
   38.2146   76.7474   60.0019 H   0  0  0  0  0  0  0  0  0  0  0  0
   37.3203   74.3675   59.8827 H   0  0  0  0  0  0  0  0  0  0  0  0
   42.4884   73.9559   62.6537 H   0  0  0  0  0  0  0  0  0  0  0  0
   44.2056   72.3509   63.2674 H   0  0  0  0  0  0  0  0  0  0  0  0
   44.2750   70.1154   62.1920 H   0  0  0  0  0  0  0  0  0  0  0  0
   43.4123   68.5746   60.6893 H   0  0  0  0  0  0  0  0  0  0  0  0
   41.7348   67.9109   58.9572 H   0  0  0  0  0  0  0  0  0  0  0  0
   39.9713   69.5859   58.3388 H   0  0  0  0  0  0  0  0  0  0  0  0
   39.9277   71.7626   59.4033 H   0  0  0  0  0  0  0  0  0  0  0  0
  1  6  1  0
  2  3  1  0
  2  1  1  0
  3  4  2  0
  4  7  1  0
  4  5  1  0
  6  5  1  0
  7 12  2  0
  8  9  2  0
  8  7  1  0
  9 10  1  0
 10 11  2  0
 12 11  1  0
 12 13  1  0
 14  1  1  0
 14 19  1  0
 15 14  2  0
 16 15  1  0
 16 17  2  0
 17 18  1  0
 18 19  2  0
 18 20  1  0
 20 21  2  0
 21 22  1  0
 23 22  2  0
 24 23  1  0
 25 24  2  0
 26 25  1  0
 27 26  2  0
 27 28  1  0
 28 29  2  0
 29 24  1  0
 29 20  1  0
  1 30  1  1
  2 31  1  0
  2 32  1  0
  3 33  1  0
  5 34  1  0
  5 35  1  0
  6 36  1  0
  6 37  1  0
  8 38  1  0
  9 39  1  0
 10 40  1  0
 11 41  1  0
 13 42  1  0
 15 43  1  0
 16 44  1  0
 21 45  1  0
 22 46  1  0
 23 47  1  0
 25 48  1  0
 26 49  1  0
 27 50  1  0
 28 51  1  0
M  END
>  <Score>  (1) 
-7.0639

$$$$
