
     RDKit          3D

 51 56  0  0  1  0  0  0  0  0999 V2000
   41.1820   78.6290   60.2770 C   0  0  0  0  0  0  0  0  0  0  0  0
   42.0930   78.9500   59.2820 C   0  0  0  0  0  0  0  0  0  0  0  0
   42.7340   77.8730   58.6680 C   0  0  0  0  0  0  0  0  0  0  0  0
   42.4430   76.5920   59.0680 C   0  0  0  0  0  0  0  0  0  0  0  0
   41.5170   76.3160   60.0760 C   0  0  0  0  0  0  0  0  0  0  0  0
   40.9160   77.3650   60.6480 N   0  0  0  0  0  0  0  0  0  0  0  0
   40.7020   81.8150   61.9060 N   0  0  0  0  0  0  0  0  0  0  0  0
   41.2560   80.4540   61.9700 C   0  0  0  0  0  0  0  0  0  0  0  0
   40.4660   79.6940   60.9800 C   0  0  1  0  0  0  0  0  0  0  0  0
   40.0860   80.7530   59.9560 C   0  0  0  0  0  0  0  0  0  0  0  0
   39.6480   81.8590   60.9410 C   0  0  0  0  0  0  0  0  0  0  0  0
   40.9870   84.4760   64.5120 C   0  0  0  0  0  0  0  0  0  0  0  0
   40.4600   83.3840   63.8200 C   0  0  0  0  0  0  0  0  0  0  0  0
   41.1480   82.9160   62.6810 C   0  0  0  0  0  0  0  0  0  0  0  0
   42.2670   83.5690   62.3520 N   0  0  0  0  0  0  0  0  0  0  0  0
   42.7630   84.6200   63.0280 C   0  0  0  0  0  0  0  0  0  0  0  0
   42.1140   85.0790   64.1220 N   0  0  0  0  0  0  0  0  0  0  0  0
   41.2580   74.9360   60.4500 C   0  0  0  0  0  0  0  0  0  0  0  0
   40.0810   74.3380   60.7200 C   0  0  0  0  0  0  0  0  0  0  0  0
   40.3580   73.0090   61.0260 C   0  0  0  0  0  0  0  0  0  0  0  0
   41.7120   72.8850   60.9190 C   0  0  0  0  0  0  0  0  0  0  0  0
   42.2230   74.0440   60.5750 O   0  0  0  0  0  0  0  0  0  0  0  0
   42.4670   71.6980   61.1400 N   0  0  0  0  0  0  0  0  0  0  0  0
   43.5260   71.5310   61.9540 C   0  0  0  0  0  0  0  0  0  0  0  0
   43.9830   70.2680   61.9040 N   0  0  0  0  0  0  0  0  0  0  0  0
   43.1880   69.6220   61.0340 C   0  0  0  0  0  0  0  0  0  0  0  0
   43.1110   68.3580   60.5460 C   0  0  0  0  0  0  0  0  0  0  0  0
   42.1840   67.9520   59.6490 N   0  0  0  0  0  0  0  0  0  0  0  0
   41.2590   68.8320   59.1850 C   0  0  0  0  0  0  0  0  0  0  0  0
   41.3250   70.0850   59.6610 N   0  0  0  0  0  0  0  0  0  0  0  0
   42.2440   70.4970   60.5530 C   0  0  0  0  0  0  0  0  0  0  0  0
   44.0280   67.3590   60.9640 N   0  0  0  0  0  0  0  0  0  0  0  0
   42.2982   79.9915   58.9938 H   0  0  0  0  0  0  0  0  0  0  0  0
   43.4682   78.0493   57.8681 H   0  0  0  0  0  0  0  0  0  0  0  0
   42.9578   75.7532   58.5767 H   0  0  0  0  0  0  0  0  0  0  0  0
   42.3226   80.4539   61.7009 H   0  0  0  0  0  0  0  0  0  0  0  0
   41.1948   80.0213   62.9795 H   0  0  0  0  0  0  0  0  0  0  0  0
   39.6411   79.1797   61.4948 H   0  0  0  0  0  0  0  0  0  0  0  0
   39.2624   80.4257   59.3044 H   0  0  0  0  0  0  0  0  0  0  0  0
   40.8699   81.0311   59.2362 H   0  0  0  0  0  0  0  0  0  0  0  0
   39.5967   82.8402   60.4465 H   0  0  0  0  0  0  0  0  0  0  0  0
   38.6444   81.7095   61.3658 H   0  0  0  0  0  0  0  0  0  0  0  0
   40.4603   84.8502   65.4023 H   0  0  0  0  0  0  0  0  0  0  0  0
   39.5306   82.9002   64.1549 H   0  0  0  0  0  0  0  0  0  0  0  0
   43.6921   85.1041   62.6928 H   0  0  0  0  0  0  0  0  0  0  0  0
   39.0882   74.8112   60.7019 H   0  0  0  0  0  0  0  0  0  0  0  0
   39.6368   72.2239   61.2971 H   0  0  0  0  0  0  0  0  0  0  0  0
   43.9609   72.3250   62.5789 H   0  0  0  0  0  0  0  0  0  0  0  0
   40.4931   68.5321   58.4546 H   0  0  0  0  0  0  0  0  0  0  0  0
   43.9572   66.4039   60.5849 H   0  0  0  0  0  0  0  0  0  0  0  0
   44.7644   67.5890   61.6465 H   0  0  0  0  0  0  0  0  0  0  0  0
  1  6  1  0
  1  9  1  0
  2  1  2  0
  3  4  2  0
  3  2  1  0
  4  5  1  0
  5 18  1  0
  5  6  2  0
  7  8  1  0
  7 14  1  0
  9  8  1  0
 10 11  1  0
 10  9  1  0
 11  7  1  0
 13 12  2  0
 14 13  1  0
 15 14  2  0
 15 16  1  0
 16 17  2  0
 17 12  1  0
 18 22  1  0
 18 19  2  0
 19 20  1  0
 21 20  2  0
 21 23  1  0
 22 21  1  0
 23 24  1  0
 25 24  2  0
 26 25  1  0
 27 32  1  0
 27 26  2  0
 28 27  1  0
 29 28  2  0
 29 30  1  0
 30 31  2  0
 31 26  1  0
 31 23  1  0
  2 33  1  0
  3 34  1  0
  4 35  1  0
  8 36  1  0
  8 37  1  0
  9 38  1  1
 10 39  1  0
 10 40  1  0
 11 41  1  0
 11 42  1  0
 12 43  1  0
 13 44  1  0
 16 45  1  0
 19 46  1  0
 20 47  1  0
 24 48  1  0
 29 49  1  0
 32 50  1  0
 32 51  1  0
M  END
>  <Score>  (1) 
-7.51145

$$$$
