
     RDKit          3D

 43 46  0  0  1  0  0  0  0  0999 V2000
   40.3440   77.4130   59.0840 C   0  0  1  0  0  0  0  0  0  0  0  0
   40.1790   80.4520   61.1260 C   0  0  0  0  0  0  0  0  0  0  0  0
   40.0960   79.6610   60.0200 C   0  0  0  0  0  0  0  0  0  0  0  0
   40.4640   78.3620   60.2180 C   0  0  0  0  0  0  0  0  0  0  0  0
   40.8840   77.8380   61.3670 N   0  0  0  0  0  0  0  0  0  0  0  0
   40.9590   78.6500   62.4560 C   0  0  0  0  0  0  0  0  0  0  0  0
   40.6030   79.9380   62.3030 N   0  0  0  0  0  0  0  0  0  0  0  0
   39.7960   81.8660   61.0580 C   0  0  0  0  0  0  0  0  0  0  0  0
   40.0770   82.5130   59.8730 C   0  0  0  0  0  0  0  0  0  0  0  0
   39.7130   83.8620   59.7890 C   0  0  0  0  0  0  0  0  0  0  0  0
   39.1040   84.4690   60.8670 N   0  0  0  0  0  0  0  0  0  0  0  0
   38.8480   83.7890   62.0110 C   0  0  0  0  0  0  0  0  0  0  0  0
   39.1960   82.4810   62.1080 N   0  0  0  0  0  0  0  0  0  0  0  0
   41.1550   76.1680   59.3920 C   0  0  0  0  0  0  0  0  0  0  0  0
   38.9250   77.0860   58.8740 C   0  0  0  0  0  0  0  0  0  0  0  0
   38.5370   76.8850   57.4420 C   0  0  0  0  0  0  0  0  0  0  0  0
   38.5270   75.5590   57.0080 C   0  0  0  0  0  0  0  0  0  0  0  0
   38.1040   75.2180   55.7280 C   0  0  0  0  0  0  0  0  0  0  0  0
   37.6790   76.1750   54.8390 C   0  0  0  0  0  0  0  0  0  0  0  0
   37.6840   77.4810   55.2460 C   0  0  0  0  0  0  0  0  0  0  0  0
   37.3020   78.5080   54.4100 C   0  0  0  0  0  0  0  0  0  0  0  0
   37.3160   79.8510   54.7650 C   0  0  0  0  0  0  0  0  0  0  0  0
   37.7570   80.1100   56.0630 C   0  0  0  0  0  0  0  0  0  0  0  0
   38.1400   79.1000   56.9080 C   0  0  0  0  0  0  0  0  0  0  0  0
   38.1020   77.7900   56.5020 C   0  0  0  0  0  0  0  0  0  0  0  0
   40.7351   77.8645   58.1603 H   0  0  0  0  0  0  0  0  0  0  0  0
   39.7588   80.0397   59.0439 H   0  0  0  0  0  0  0  0  0  0  0  0
   41.2994   78.2660   63.4290 H   0  0  0  0  0  0  0  0  0  0  0  0
   40.5638   81.9940   59.0342 H   0  0  0  0  0  0  0  0  0  0  0  0
   39.9112   84.4334   58.8702 H   0  0  0  0  0  0  0  0  0  0  0  0
   38.3603   84.2951   62.8572 H   0  0  0  0  0  0  0  0  0  0  0  0
   41.2361   76.0435   60.4819 H   0  0  0  0  0  0  0  0  0  0  0  0
   40.6559   75.2887   58.9587 H   0  0  0  0  0  0  0  0  0  0  0  0
   42.1610   76.2692   58.9587 H   0  0  0  0  0  0  0  0  0  0  0  0
   38.7015   76.1596   59.4233 H   0  0  0  0  0  0  0  0  0  0  0  0
   38.3491   77.9511   59.2345 H   0  0  0  0  0  0  0  0  0  0  0  0
   38.8610   74.7661   57.6933 H   0  0  0  0  0  0  0  0  0  0  0  0
   38.1098   74.1616   55.4215 H   0  0  0  0  0  0  0  0  0  0  0  0
   37.3441   75.8990   53.8282 H   0  0  0  0  0  0  0  0  0  0  0  0
   36.9642   78.2474   53.3961 H   0  0  0  0  0  0  0  0  0  0  0  0
   37.0033   80.6490   54.0755 H   0  0  0  0  0  0  0  0  0  0  0  0
   37.7986   81.1505   56.4176 H   0  0  0  0  0  0  0  0  0  0  0  0
   38.4822   79.3434   57.9247 H   0  0  0  0  0  0  0  0  0  0  0  0
  1 14  1  0
  1  4  1  0
  2  7  2  0
  3  4  2  0
  3  2  1  0
  4  5  1  0
  5  6  2  0
  7  6  1  0
  8  2  1  0
  8 13  1  0
  9  8  2  0
 10  9  1  0
 10 11  2  0
 11 12  1  0
 12 13  2  0
 15  1  1  0
 16 15  1  0
 17 16  2  0
 18 17  1  0
 19 20  1  0
 19 18  2  0
 20 25  2  0
 21 22  2  0
 21 20  1  0
 22 23  1  0
 23 24  2  0
 25 24  1  0
 25 16  1  0
  1 26  1  6
  3 27  1  0
  6 28  1  0
  9 29  1  0
 10 30  1  0
 12 31  1  0
 14 32  1  0
 14 33  1  0
 14 34  1  0
 15 35  1  0
 15 36  1  0
 17 37  1  0
 18 38  1  0
 19 39  1  0
 21 40  1  0
 22 41  1  0
 23 42  1  0
 24 43  1  0
M  END
>  <Score>  (1) 
-7.14936

$$$$
