
     RDKit          3D

 51 55  0  0  1  0  0  0  0  0999 V2000
   43.0160   81.8970   61.4550 C   0  0  0  0  0  0  0  0  0  0  0  0
   44.0420   82.5370   60.7870 C   0  0  0  0  0  0  0  0  0  0  0  0
   44.5240   83.7250   61.3230 C   0  0  0  0  0  0  0  0  0  0  0  0
   43.9980   84.2460   62.4810 N   0  0  0  0  0  0  0  0  0  0  0  0
   42.9990   83.5990   63.1100 C   0  0  0  0  0  0  0  0  0  0  0  0
   42.5150   82.4430   62.6050 N   0  0  0  0  0  0  0  0  0  0  0  0
   42.4610   84.1360   64.2970 N   0  0  0  0  0  0  0  0  0  0  0  0
   41.0580   84.1820   64.5180 C   0  0  0  0  0  0  0  0  0  0  0  0
   40.2950   83.3040   63.9210 N   0  0  0  0  0  0  0  0  0  0  0  0
   40.5410   85.1980   65.3930 N   0  0  0  0  0  0  0  0  0  0  0  0
   39.2580   83.3750   64.0920 H   0  0  0  0  0  0  0  0  0  0  0  0
   45.5790   84.3520   60.6050 N   0  0  0  0  0  0  0  0  0  0  0  0
   45.3460   85.4980   59.9080 C   0  0  0  0  0  0  0  0  0  0  0  0
   46.4750   85.9440   59.2910 N   0  0  0  0  0  0  0  0  0  0  0  0
   47.4440   85.0570   59.6060 C   0  0  0  0  0  0  0  0  0  0  0  0
   48.7910   84.8840   59.3380 C   0  0  0  0  0  0  0  0  0  0  0  0
   49.4860   83.8360   59.8380 N   0  0  0  0  0  0  0  0  0  0  0  0
   48.8600   82.9330   60.6170 C   0  0  0  0  0  0  0  0  0  0  0  0
   47.5540   83.0360   60.9190 N   0  0  0  0  0  0  0  0  0  0  0  0
   46.8830   84.0980   60.4040 C   0  0  0  0  0  0  0  0  0  0  0  0
   40.4480   83.6830   58.6300 C   0  0  0  0  0  0  0  0  0  0  0  0
   39.5940   84.4720   59.3860 C   0  0  0  0  0  0  0  0  0  0  0  0
   39.2150   83.9880   60.6490 C   0  0  0  0  0  0  0  0  0  0  0  0
   39.7090   82.7810   61.0490 N   0  0  0  0  0  0  0  0  0  0  0  0
   40.5360   82.0400   60.2890 C   0  0  0  0  0  0  0  0  0  0  0  0
   40.9080   82.5010   59.0670 N   0  0  0  0  0  0  0  0  0  0  0  0
   40.9990   80.7880   60.7960 N   0  0  0  0  0  0  0  0  0  0  0  0
   40.0890   79.7420   61.1290 C   0  0  0  0  0  0  0  0  0  0  0  0
   40.7520   78.3890   61.0350 C   0  0  0  0  0  0  0  0  0  0  0  0
   42.0080   78.2790   61.8400 C   0  0  0  0  0  0  0  0  0  0  0  0
   42.7770   79.5590   61.9530 C   0  0  0  0  0  0  0  0  0  0  0  0
   42.4260   80.6120   60.9610 C   0  0  2  0  0  0  0  0  0  0  0  0
   44.4638   82.1197   59.8607 H   0  0  0  0  0  0  0  0  0  0  0  0
   43.0977   84.5025   65.0189 H   0  0  0  0  0  0  0  0  0  0  0  0
   39.5285   85.2565   65.5726 H   0  0  0  0  0  0  0  0  0  0  0  0
   41.1830   85.8677   65.8405 H   0  0  0  0  0  0  0  0  0  0  0  0
   44.3691   86.0003   59.8505 H   0  0  0  0  0  0  0  0  0  0  0  0
   49.3096   85.6170   58.7025 H   0  0  0  0  0  0  0  0  0  0  0  0
   49.4349   82.0854   61.0184 H   0  0  0  0  0  0  0  0  0  0  0  0
   40.7592   84.0390   57.6368 H   0  0  0  0  0  0  0  0  0  0  0  0
   39.2277   85.4391   59.0112 H   0  0  0  0  0  0  0  0  0  0  0  0
   38.5393   84.5656   61.2969 H   0  0  0  0  0  0  0  0  0  0  0  0
   39.7287   79.8940   62.1571 H   0  0  0  0  0  0  0  0  0  0  0  0
   39.2519   79.7693   60.4158 H   0  0  0  0  0  0  0  0  0  0  0  0
   40.0422   77.6286   61.3928 H   0  0  0  0  0  0  0  0  0  0  0  0
   41.0306   78.2394   59.9814 H   0  0  0  0  0  0  0  0  0  0  0  0
   41.7403   77.9464   62.8538 H   0  0  0  0  0  0  0  0  0  0  0  0
   42.6587   77.5638   61.3156 H   0  0  0  0  0  0  0  0  0  0  0  0
   42.6032   79.9702   62.9583 H   0  0  0  0  0  0  0  0  0  0  0  0
   43.8266   79.2971   61.7539 H   0  0  0  0  0  0  0  0  0  0  0  0
   42.8221   80.3094   59.9804 H   0  0  0  0  0  0  0  0  0  0  0  0
  1  6  2  0
  2  3  2  0
  2  1  1  0
  3  4  1  0
  4  5  2  0
  5  7  1  0
  6  5  1  0
  7  8  1  0
  8 10  1  0
  9 11  1  0
  9  8  2  0
 12  3  1  0
 13 12  1  0
 14 15  1  0
 14 13  2  0
 15 20  2  0
 16 15  1  0
 16 17  2  0
 17 18  1  0
 18 19  2  0
 20 12  1  0
 20 19  1  0
 21 26  2  0
 21 22  1  0
 22 23  2  0
 23 24  1  0
 25 27  1  0
 25 24  2  0
 26 25  1  0
 27 32  1  0
 27 28  1  0
 29 28  1  0
 29 30  1  0
 30 31  1  0
 32  1  1  0
 32 31  1  0
  2 33  1  0
  7 34  1  0
 10 35  1  0
 10 36  1  0
 13 37  1  0
 16 38  1  0
 18 39  1  0
 21 40  1  0
 22 41  1  0
 23 42  1  0
 28 43  1  0
 28 44  1  0
 29 45  1  0
 29 46  1  0
 30 47  1  0
 30 48  1  0
 31 49  1  0
 31 50  1  0
 32 51  1  6
M  END
>  <Score>  (1) 
-7.80993

$$$$
