
     RDKit          3D

 36 38  0  0  0  0  0  0  0  0999 V2000
   40.5550   79.8110   59.5510 C   0  0  0  0  0  0  0  0  0  0  0  0
   40.2040   80.4400   58.3740 C   0  0  0  0  0  0  0  0  0  0  0  0
   39.4480   79.8380   57.3830 C   0  0  0  0  0  0  0  0  0  0  0  0
   39.0190   78.5470   57.5680 C   0  0  0  0  0  0  0  0  0  0  0  0
   39.3240   77.8560   58.7050 C   0  0  0  0  0  0  0  0  0  0  0  0
   38.9080   76.5680   58.9130 C   0  0  0  0  0  0  0  0  0  0  0  0
   39.2040   75.8500   60.0570 C   0  0  0  0  0  0  0  0  0  0  0  0
   39.9590   76.5140   60.9940 C   0  0  0  0  0  0  0  0  0  0  0  0
   40.3720   77.8020   60.7810 C   0  0  0  0  0  0  0  0  0  0  0  0
   40.0750   78.5190   59.6400 C   0  0  0  0  0  0  0  0  0  0  0  0
   43.3080   81.5060   61.5670 C   0  0  0  0  0  0  0  0  0  0  0  0
   42.7200   80.7450   60.5550 C   0  0  0  0  0  0  0  0  0  0  0  0
   41.3360   80.5440   60.4920 C   0  0  0  0  0  0  0  0  0  0  0  0
   40.6470   81.1640   61.5100 N   0  0  0  0  0  0  0  0  0  0  0  0
   41.2130   81.8870   62.4700 C   0  0  0  0  0  0  0  0  0  0  0  0
   42.5290   82.0520   62.4920 N   0  0  0  0  0  0  0  0  0  0  0  0
   40.4050   82.4900   63.4830 N   0  0  0  0  0  0  0  0  0  0  0  0
   40.3940   83.9000   63.6630 C   0  0  0  0  0  0  0  0  0  0  0  0
   40.5790   84.6380   62.6190 N   0  0  0  0  0  0  0  0  0  0  0  0
   40.1780   84.4170   64.9870 N   0  0  0  0  0  0  0  0  0  0  0  0
   40.5670   85.6720   62.7650 H   0  0  0  0  0  0  0  0  0  0  0  0
   38.7130   74.4550   60.2020 C   0  0  0  0  0  0  0  0  0  0  0  0
   37.4460   74.4910   60.7330 F   0  0  0  0  0  0  0  0  0  0  0  0
   39.5360   73.7230   61.0400 F   0  0  0  0  0  0  0  0  0  0  0  0
   38.5910   73.8690   58.9430 F   0  0  0  0  0  0  0  0  0  0  0  0
   40.5428   81.4743   58.2149 H   0  0  0  0  0  0  0  0  0  0  0  0
   39.1952   80.3848   56.4626 H   0  0  0  0  0  0  0  0  0  0  0  0
   38.4183   78.0604   56.7854 H   0  0  0  0  0  0  0  0  0  0  0  0
   38.3082   76.0800   58.1306 H   0  0  0  0  0  0  0  0  0  0  0  0
   40.2354   76.0035   61.9283 H   0  0  0  0  0  0  0  0  0  0  0  0
   40.9729   78.2916   61.5615 H   0  0  0  0  0  0  0  0  0  0  0  0
   44.3981   81.6504   61.5970 H   0  0  0  0  0  0  0  0  0  0  0  0
   43.3619   80.2908   59.7858 H   0  0  0  0  0  0  0  0  0  0  0  0
   39.8233   81.8953   64.0903 H   0  0  0  0  0  0  0  0  0  0  0  0
   40.1650   85.4344   65.1468 H   0  0  0  0  0  0  0  0  0  0  0  0
   40.0362   83.7700   65.7758 H   0  0  0  0  0  0  0  0  0  0  0  0
  1 10  1  0
  1 13  1  0
  2  1  2  0
  3  4  2  0
  3  2  1  0
  4  5  1  0
  5  6  1  0
  5 10  2  0
  6  7  2  0
  7 22  1  0
  7  8  1  0
  9  8  2  0
 10  9  1  0
 11 16  2  0
 12 11  1  0
 13 12  2  0
 13 14  1  0
 14 15  2  0
 15 16  1  0
 15 17  1  0
 17 18  1  0
 18 20  1  0
 19 21  1  0
 19 18  2  0
 22 23  1  0
 22 24  1  0
 25 22  1  0
  2 26  1  0
  3 27  1  0
  4 28  1  0
  6 29  1  0
  8 30  1  0
  9 31  1  0
 11 32  1  0
 12 33  1  0
 17 34  1  0
 20 35  1  0
 20 36  1  0
M  END
>  <Score>  (1) 
-7.29378

$$$$
