
     RDKit          3D

 48 52  0  0  1  0  0  0  0  0999 V2000
   40.2720   81.1170   58.6050 C   0  0  0  0  0  0  0  0  0  0  0  0
   39.5350   79.9630   58.3900 C   0  0  0  0  0  0  0  0  0  0  0  0
   39.3170   79.4770   57.1190 C   0  0  0  0  0  0  0  0  0  0  0  0
   39.8700   80.1990   56.0940 N   0  0  0  0  0  0  0  0  0  0  0  0
   40.5950   81.3300   56.2950 C   0  0  0  0  0  0  0  0  0  0  0  0
   40.7880   81.7770   57.5430 N   0  0  0  0  0  0  0  0  0  0  0  0
   40.4390   81.5320   59.9540 N   0  0  0  0  0  0  0  0  0  0  0  0
   39.9490   80.9320   61.0420 C   0  0  0  0  0  0  0  0  0  0  0  0
   40.3030   81.5990   62.1560 N   0  0  0  0  0  0  0  0  0  0  0  0
   41.0360   82.6470   61.7550 C   0  0  0  0  0  0  0  0  0  0  0  0
   41.6470   83.6520   62.4740 C   0  0  0  0  0  0  0  0  0  0  0  0
   41.5270   83.6240   63.7400 O   0  0  0  0  0  0  0  0  0  0  0  0
   42.3390   84.6070   61.8080 N   0  0  0  0  0  0  0  0  0  0  0  0
   42.4180   84.5640   60.4730 C   0  0  0  0  0  0  0  0  0  0  0  0
   43.1720   85.6280   59.9380 N   0  0  0  0  0  0  0  0  0  0  0  0
   41.8310   83.5940   59.7480 N   0  0  0  0  0  0  0  0  0  0  0  0
   41.1340   82.6230   60.3490 C   0  0  0  0  0  0  0  0  0  0  0  0
   38.5650   78.2970   56.8420 N   0  0  0  0  0  0  0  0  0  0  0  0
   37.1360   78.4000   56.6980 C   0  0  0  0  0  0  0  0  0  0  0  0
   36.5000   77.3530   55.8720 C   0  0  0  0  0  0  0  0  0  0  0  0
   37.4840   76.3880   55.2760 C   0  0  0  0  0  0  0  0  0  0  0  0
   38.4170   75.9100   56.3590 C   0  0  0  0  0  0  0  0  0  0  0  0
   39.3040   77.0650   56.7290 C   0  0  2  0  0  0  0  0  0  0  0  0
   39.6860   76.7610   58.1610 C   0  0  0  0  0  0  0  0  0  0  0  0
   38.8140   76.4790   59.1720 C   0  0  0  0  0  0  0  0  0  0  0  0
   39.3120   76.2180   60.4420 C   0  0  0  0  0  0  0  0  0  0  0  0
   40.6730   76.2370   60.7080 C   0  0  0  0  0  0  0  0  0  0  0  0
   41.5110   76.5250   59.6620 C   0  0  0  0  0  0  0  0  0  0  0  0
   41.0200   76.7720   58.4500 N   0  0  0  0  0  0  0  0  0  0  0  0
   39.1153   79.4237   59.2520 H   0  0  0  0  0  0  0  0  0  0  0  0
   41.0205   81.8748   55.4393 H   0  0  0  0  0  0  0  0  0  0  0  0
   39.3389   80.0168   61.0293 H   0  0  0  0  0  0  0  0  0  0  0  0
   42.8036   85.3649   62.3282 H   0  0  0  0  0  0  0  0  0  0  0  0
   43.3049   85.7039   58.9194 H   0  0  0  0  0  0  0  0  0  0  0  0
   43.5901   86.3296   60.5656 H   0  0  0  0  0  0  0  0  0  0  0  0
   36.6906   78.3553   57.7028 H   0  0  0  0  0  0  0  0  0  0  0  0
   36.9544   79.3492   56.1725 H   0  0  0  0  0  0  0  0  0  0  0  0
   35.7967   76.7896   56.5029 H   0  0  0  0  0  0  0  0  0  0  0  0
   35.9934   77.8593   55.0371 H   0  0  0  0  0  0  0  0  0  0  0  0
   36.9459   75.5298   54.8470 H   0  0  0  0  0  0  0  0  0  0  0  0
   38.0594   76.8858   54.4816 H   0  0  0  0  0  0  0  0  0  0  0  0
   37.8391   75.5835   57.2362 H   0  0  0  0  0  0  0  0  0  0  0  0
   39.0160   75.0570   56.0074 H   0  0  0  0  0  0  0  0  0  0  0  0
   40.1114   77.1739   55.9899 H   0  0  0  0  0  0  0  0  0  0  0  0
   37.7305   76.4586   58.9836 H   0  0  0  0  0  0  0  0  0  0  0  0
   38.6094   75.9905   61.2572 H   0  0  0  0  0  0  0  0  0  0  0  0
   41.0634   76.0298   61.7153 H   0  0  0  0  0  0  0  0  0  0  0  0
   42.5984   76.5522   59.8259 H   0  0  0  0  0  0  0  0  0  0  0  0
  1  7  1  0
  2  1  2  0
  3  2  1  0
  4  5  1  0
  4  3  2  0
  5  6  2  0
  6  1  1  0
  7 17  1  0
  7  8  1  0
  8  9  2  0
 10  9  1  0
 10 11  1  0
 11 12  2  0
 13 11  1  0
 14 13  1  0
 15 14  1  0
 16 17  1  0
 16 14  2  0
 17 10  2  0
 18  3  1  0
 19 18  1  0
 20 19  1  0
 21 20  1  0
 21 22  1  0
 22 23  1  0
 23 18  1  0
 23 24  1  0
 24 29  1  0
 24 25  2  0
 25 26  1  0
 26 27  2  0
 28 27  1  0
 29 28  2  0
  2 30  1  0
  5 31  1  0
  8 32  1  0
 13 33  1  0
 15 34  1  0
 15 35  1  0
 19 36  1  0
 19 37  1  0
 20 38  1  0
 20 39  1  0
 21 40  1  0
 21 41  1  0
 22 42  1  0
 22 43  1  0
 23 44  1  6
 25 45  1  0
 26 46  1  0
 27 47  1  0
 28 48  1  0
M  END
>  <Score>  (1) 
-7.04113

$$$$
