
     RDKit          3D

 40 43  0  0  0  0  0  0  0  0999 V2000
   43.2030   79.2840   61.6530 C   0  0  0  0  0  0  0  0  0  0  0  0
   41.9360   79.6410   61.2100 C   0  0  0  0  0  0  0  0  0  0  0  0
   41.5660   80.9710   61.3310 C   0  0  0  0  0  0  0  0  0  0  0  0
   42.4610   81.8610   61.8780 N   0  0  0  0  0  0  0  0  0  0  0  0
   43.6780   81.4390   62.2880 C   0  0  0  0  0  0  0  0  0  0  0  0
   44.0410   80.1570   62.1740 N   0  0  0  0  0  0  0  0  0  0  0  0
   40.9850   78.7050   60.6310 C   0  0  0  0  0  0  0  0  0  0  0  0
   40.5010   77.6080   61.3450 C   0  0  0  0  0  0  0  0  0  0  0  0
   39.6130   76.8870   60.5580 C   0  0  0  0  0  0  0  0  0  0  0  0
   39.6120   77.6130   59.3700 C   0  0  0  0  0  0  0  0  0  0  0  0
   40.4070   78.6390   59.4600 O   0  0  0  0  0  0  0  0  0  0  0  0
   38.8130   77.2500   58.1990 C   0  0  0  0  0  0  0  0  0  0  0  0
   38.3160   76.0040   57.8700 C   0  0  0  0  0  0  0  0  0  0  0  0
   37.6480   76.1490   56.7120 N   0  0  0  0  0  0  0  0  0  0  0  0
   37.6690   77.3950   56.2570 C   0  0  0  0  0  0  0  0  0  0  0  0
   37.1760   78.0940   55.1740 C   0  0  0  0  0  0  0  0  0  0  0  0
   37.4260   79.4580   55.0490 C   0  0  0  0  0  0  0  0  0  0  0  0
   38.1670   80.1720   55.9890 C   0  0  0  0  0  0  0  0  0  0  0  0
   38.6410   79.4530   57.0510 C   0  0  0  0  0  0  0  0  0  0  0  0
   38.4060   78.1020   57.1930 C   0  0  0  0  0  0  0  0  0  0  0  0
   44.5350   82.5300   62.8610 C   0  0  0  0  0  0  0  0  0  0  0  0
   45.5350   81.9360   63.6700 F   0  0  0  0  0  0  0  0  0  0  0  0
   43.8180   83.3580   63.7080 F   0  0  0  0  0  0  0  0  0  0  0  0
   45.0870   83.2410   61.8460 F   0  0  0  0  0  0  0  0  0  0  0  0
   40.2790   81.4990   60.9140 C   0  0  0  0  0  0  0  0  0  0  0  0
   39.9930   81.6080   59.6890 O   0  0  0  0  0  0  0  0  0  0  0  0
   39.3350   81.8960   61.8610 O   0  0  0  0  0  0  0  0  0  0  0  0
   39.2420   83.2560   62.2570 C   0  0  0  0  0  0  0  0  0  0  0  0
   39.9130   83.4180   63.4470 F   0  0  0  0  0  0  0  0  0  0  0  0
   40.0190   83.9740   61.3300 F   0  0  0  0  0  0  0  0  0  0  0  0
   37.9770   83.7580   62.2350 F   0  0  0  0  0  0  0  0  0  0  0  0
   43.5184   78.2338   61.5657 H   0  0  0  0  0  0  0  0  0  0  0  0
   40.7813   77.3526   62.3776 H   0  0  0  0  0  0  0  0  0  0  0  0
   39.0527   75.9743   60.8092 H   0  0  0  0  0  0  0  0  0  0  0  0
   38.4421   75.0740   58.4437 H   0  0  0  0  0  0  0  0  0  0  0  0
   37.1705   75.3745   56.2293 H   0  0  0  0  0  0  0  0  0  0  0  0
   36.5841   77.5722   54.4076 H   0  0  0  0  0  0  0  0  0  0  0  0
   37.0236   79.9921   54.1756 H   0  0  0  0  0  0  0  0  0  0  0  0
   38.3591   81.2499   55.8828 H   0  0  0  0  0  0  0  0  0  0  0  0
   39.2316   79.9717   57.8205 H   0  0  0  0  0  0  0  0  0  0  0  0
  1  6  2  0
  2  3  2  0
  2  1  1  0
  3  4  1  0
  4  5  2  0
  5 21  1  0
  6  5  1  0
  7  2  1  0
  7  8  2  0
  9  8  1  0
 10 11  1  0
 10  9  2  0
 11  7  1  0
 12 10  1  0
 13 12  2  0
 14 13  1  0
 15 14  1  0
 15 20  2  0
 16 15  1  0
 17 16  2  0
 17 18  1  0
 18 19  2  0
 19 20  1  0
 20 12  1  0
 21 22  1  0
 21 23  1  0
 24 21  1  0
 25  3  1  0
 25 27  1  0
 26 25  2  0
 27 28  1  0
 28 29  1  0
 30 28  1  0
 31 28  1  0
  1 32  1  0
  8 33  1  0
  9 34  1  0
 13 35  1  0
 14 36  1  0
 16 37  1  0
 17 38  1  0
 18 39  1  0
 19 40  1  0
M  END
>  <Score>  (1) 
-7.31602

$$$$
