
     RDKit          3D

 37 40  0  0  0  0  0  0  0  0999 V2000
   39.8530   82.1290   60.4110 C   0  0  0  0  0  0  0  0  0  0  0  0
   40.1890   83.0540   59.3750 C   0  0  0  0  0  0  0  0  0  0  0  0
   39.8990   84.3960   59.5760 C   0  0  0  0  0  0  0  0  0  0  0  0
   39.2960   84.7550   60.7890 N   0  0  0  0  0  0  0  0  0  0  0  0
   38.9930   83.8260   61.7610 C   0  0  0  0  0  0  0  0  0  0  0  0
   39.2550   82.4990   61.6090 N   0  0  0  0  0  0  0  0  0  0  0  0
   40.1610   80.7730   60.1420 N   0  0  0  0  0  0  0  0  0  0  0  0
   40.3930   80.2100   58.9650 C   0  0  0  0  0  0  0  0  0  0  0  0
   40.6860   78.9180   59.0950 N   0  0  0  0  0  0  0  0  0  0  0  0
   40.6390   78.6270   60.4080 C   0  0  0  0  0  0  0  0  0  0  0  0
   40.8410   77.4310   61.0560 C   0  0  0  0  0  0  0  0  0  0  0  0
   41.1450   76.4060   60.3660 O   0  0  0  0  0  0  0  0  0  0  0  0
   40.7040   77.4180   62.3910 N   0  0  0  0  0  0  0  0  0  0  0  0
   40.3840   78.5370   63.0310 C   0  0  0  0  0  0  0  0  0  0  0  0
   40.2670   78.3520   64.4080 N   0  0  0  0  0  0  0  0  0  0  0  0
   40.1780   79.7350   62.4250 N   0  0  0  0  0  0  0  0  0  0  0  0
   40.3010   79.8170   61.0800 C   0  0  0  0  0  0  0  0  0  0  0  0
   40.3120   80.6840   57.5790 C   0  0  0  0  0  0  0  0  0  0  0  0
   39.1630   80.0580   56.8090 C   0  0  0  0  0  0  0  0  0  0  0  0
   38.3970   80.6820   55.8560 C   0  0  0  0  0  0  0  0  0  0  0  0
   37.3860   79.9690   55.2460 C   0  0  0  0  0  0  0  0  0  0  0  0
   37.1170   78.6520   55.5620 C   0  0  0  0  0  0  0  0  0  0  0  0
   37.8710   78.0030   56.5140 C   0  0  0  0  0  0  0  0  0  0  0  0
   38.8810   78.7230   57.1190 C   0  0  0  0  0  0  0  0  0  0  0  0
   40.6644   82.7117   58.4439 H   0  0  0  0  0  0  0  0  0  0  0  0
   40.1339   85.1507   58.8110 H   0  0  0  0  0  0  0  0  0  0  0  0
   38.5221   84.1696   62.6939 H   0  0  0  0  0  0  0  0  0  0  0  0
   40.8464   76.5440   62.9170 H   0  0  0  0  0  0  0  0  0  0  0  0
   40.0222   79.1469   65.0155 H   0  0  0  0  0  0  0  0  0  0  0  0
   40.4254   77.4204   64.8178 H   0  0  0  0  0  0  0  0  0  0  0  0
   40.1754   81.7754   57.5883 H   0  0  0  0  0  0  0  0  0  0  0  0
   41.2455   80.3937   57.0748 H   0  0  0  0  0  0  0  0  0  0  0  0
   38.5859   81.7309   55.5839 H   0  0  0  0  0  0  0  0  0  0  0  0
   36.7724   80.4671   54.4809 H   0  0  0  0  0  0  0  0  0  0  0  0
   36.2995   78.1207   55.0527 H   0  0  0  0  0  0  0  0  0  0  0  0
   37.6763   76.9539   56.7813 H   0  0  0  0  0  0  0  0  0  0  0  0
   39.4946   78.2227   57.8826 H   0  0  0  0  0  0  0  0  0  0  0  0
  1  6  2  0
  2  3  2  0
  2  1  1  0
  3  4  1  0
  4  5  2  0
  6  5  1  0
  7  1  1  0
  7 17  1  0
  8  9  2  0
  8  7  1  0
  9 10  1  0
 10 11  1  0
 10 17  2  0
 11 13  1  0
 12 11  2  0
 13 14  1  0
 14 15  1  0
 16 14  2  0
 17 16  1  0
 18  8  1  0
 19 24  1  0
 19 18  1  0
 20 19  2  0
 21 22  2  0
 21 20  1  0
 22 23  1  0
 23 24  2  0
  2 25  1  0
  3 26  1  0
  5 27  1  0
 13 28  1  0
 15 29  1  0
 15 30  1  0
 18 31  1  0
 18 32  1  0
 20 33  1  0
 21 34  1  0
 22 35  1  0
 23 36  1  0
 24 37  1  0
M  END
>  <Score>  (1) 
-7.23511

$$$$
