
     RDKit          3D

 38 42  0  0  0  0  0  0  0  0999 V2000
   42.0490   82.2720   55.6860 C   0  0  0  0  0  0  0  0  0  0  0  0
   41.2610   81.2090   55.2760 C   0  0  0  0  0  0  0  0  0  0  0  0
   40.2080   80.8200   56.0870 C   0  0  0  0  0  0  0  0  0  0  0  0
   39.9890   81.5050   57.2590 N   0  0  0  0  0  0  0  0  0  0  0  0
   40.7820   82.5330   57.6140 C   0  0  0  0  0  0  0  0  0  0  0  0
   41.8040   82.9210   56.8440 N   0  0  0  0  0  0  0  0  0  0  0  0
   40.5080   83.2290   58.8710 C   0  0  0  0  0  0  0  0  0  0  0  0
   39.6680   84.3250   59.0280 C   0  0  0  0  0  0  0  0  0  0  0  0
   39.6560   84.6980   60.3060 N   0  0  0  0  0  0  0  0  0  0  0  0
   40.4810   83.8590   60.9930 C   0  0  0  0  0  0  0  0  0  0  0  0
   40.9840   82.9800   60.1060 N   0  0  0  0  0  0  0  0  0  0  0  0
   40.7380   83.9290   62.3930 N   0  0  0  0  0  0  0  0  0  0  0  0
   40.0680   83.2720   63.3300 N   0  0  0  0  0  0  0  0  0  0  0  0
   40.5490   83.5470   64.5540 C   0  0  0  0  0  0  0  0  0  0  0  0
   41.5670   84.4160   64.3790 C   0  0  0  0  0  0  0  0  0  0  0  0
   41.6700   84.6420   63.0230 C   0  0  0  0  0  0  0  0  0  0  0  0
   39.2880   79.7620   55.8500 N   0  0  0  0  0  0  0  0  0  0  0  0
   39.1030   78.7080   56.6750 C   0  0  0  0  0  0  0  0  0  0  0  0
   38.1710   77.9060   56.1530 N   0  0  0  0  0  0  0  0  0  0  0  0
   37.7720   78.4540   55.0080 C   0  0  0  0  0  0  0  0  0  0  0  0
   36.8350   78.0370   54.0810 C   0  0  0  0  0  0  0  0  0  0  0  0
   36.2160   76.9780   54.2800 O   0  0  0  0  0  0  0  0  0  0  0  0
   36.6500   78.8200   53.0020 N   0  0  0  0  0  0  0  0  0  0  0  0
   37.3300   79.9790   52.7870 C   0  0  0  0  0  0  0  0  0  0  0  0
   36.9790   80.6470   51.5860 N   0  0  0  0  0  0  0  0  0  0  0  0
   38.2510   80.3870   53.7010 N   0  0  0  0  0  0  0  0  0  0  0  0
   38.4640   79.6250   54.7980 C   0  0  0  0  0  0  0  0  0  0  0  0
   42.8910   82.5936   55.0555 H   0  0  0  0  0  0  0  0  0  0  0  0
   41.4666   80.6869   54.3299 H   0  0  0  0  0  0  0  0  0  0  0  0
   39.1002   84.8099   58.2203 H   0  0  0  0  0  0  0  0  0  0  0  0
   41.6415   82.2223   60.3395 H   0  0  0  0  0  0  0  0  0  0  0  0
   40.1849   83.1435   65.5104 H   0  0  0  0  0  0  0  0  0  0  0  0
   42.1939   84.8587   65.1670 H   0  0  0  0  0  0  0  0  0  0  0  0
   42.4033   85.3041   62.5395 H   0  0  0  0  0  0  0  0  0  0  0  0
   39.6340   78.5379   57.6232 H   0  0  0  0  0  0  0  0  0  0  0  0
   35.9556   78.5258   52.3005 H   0  0  0  0  0  0  0  0  0  0  0  0
   37.4401   81.5335   51.3361 H   0  0  0  0  0  0  0  0  0  0  0  0
   36.2630   80.2456   50.9638 H   0  0  0  0  0  0  0  0  0  0  0  0
  1  6  2  0
  2  1  1  0
  2  3  2  0
  3  4  1  0
  4  5  2  0
  5  7  1  0
  6  5  1  0
  7  8  2  0
  7 11  1  0
  8  9  1  0
  9 10  2  0
 10 12  1  0
 11 10  1  0
 12 16  1  0
 12 13  1  0
 13 14  2  0
 15 14  1  0
 16 15  2  0
 17  3  1  0
 17 18  1  0
 19 18  2  0
 20 19  1  0
 21 22  2  0
 21 20  1  0
 23 21  1  0
 24 23  1  0
 24 26  2  0
 25 24  1  0
 26 27  1  0
 27 20  2  0
 27 17  1  0
  1 28  1  0
  2 29  1  0
  8 30  1  0
 11 31  1  0
 14 32  1  0
 15 33  1  0
 16 34  1  0
 18 35  1  0
 23 36  1  0
 25 37  1  0
 25 38  1  0
M  END
>  <Score>  (1) 
-7.37836

$$$$
