
     RDKit          3D

 38 42  0  0  0  0  0  0  0  0999 V2000
   40.8430   81.9700   61.1570 C   0  0  0  0  0  0  0  0  0  0  0  0
   40.6680   82.6520   59.9690 C   0  0  0  0  0  0  0  0  0  0  0  0
   40.3470   82.0390   58.7740 C   0  0  0  0  0  0  0  0  0  0  0  0
   40.1900   80.6740   58.7510 C   0  0  0  0  0  0  0  0  0  0  0  0
   40.3510   79.9350   59.8920 C   0  0  0  0  0  0  0  0  0  0  0  0
   40.1970   78.5750   59.8740 C   0  0  0  0  0  0  0  0  0  0  0  0
   40.3510   77.7890   61.0140 C   0  0  0  0  0  0  0  0  0  0  0  0
   40.6720   78.4720   62.1710 C   0  0  0  0  0  0  0  0  0  0  0  0
   40.8170   79.8360   62.1480 C   0  0  0  0  0  0  0  0  0  0  0  0
   40.6670   80.6050   61.0340 C   0  0  0  0  0  0  0  0  0  0  0  0
   39.8520   77.8320   58.6400 C   0  0  0  0  0  0  0  0  0  0  0  0
   40.1840   76.6450   58.1040 N   0  0  0  0  0  0  0  0  0  0  0  0
   39.6080   76.4290   56.9720 O   0  0  0  0  0  0  0  0  0  0  0  0
   38.8680   77.4370   56.6810 C   0  0  0  0  0  0  0  0  0  0  0  0
   39.0210   78.2820   57.6960 N   0  0  0  0  0  0  0  0  0  0  0  0
   38.0140   77.7670   55.5910 N   0  0  0  0  0  0  0  0  0  0  0  0
   37.2590   76.7530   55.1290 C   0  0  0  0  0  0  0  0  0  0  0  0
   36.4920   77.2510   54.0730 C   0  0  0  0  0  0  0  0  0  0  0  0
   36.8150   78.5490   53.9380 N   0  0  0  0  0  0  0  0  0  0  0  0
   37.7500   78.8720   54.8690 C   0  0  0  0  0  0  0  0  0  0  0  0
   42.5130   83.9200   63.9750 C   0  0  0  0  0  0  0  0  0  0  0  0
   42.4010   83.1800   62.8060 C   0  0  0  0  0  0  0  0  0  0  0  0
   41.1700   82.7280   62.3210 C   0  0  0  0  0  0  0  0  0  0  0  0
   40.1110   83.0900   63.1170 N   0  0  0  0  0  0  0  0  0  0  0  0
   40.2220   83.8050   64.2450 C   0  0  0  0  0  0  0  0  0  0  0  0
   41.4180   84.2120   64.6630 N   0  0  0  0  0  0  0  0  0  0  0  0
   40.7912   83.7451   59.9750 H   0  0  0  0  0  0  0  0  0  0  0  0
   40.2192   82.6327   57.8569 H   0  0  0  0  0  0  0  0  0  0  0  0
   39.9327   80.1707   57.8073 H   0  0  0  0  0  0  0  0  0  0  0  0
   40.2252   76.6964   60.9940 H   0  0  0  0  0  0  0  0  0  0  0  0
   40.8116   77.9210   63.1128 H   0  0  0  0  0  0  0  0  0  0  0  0
   41.0711   80.3418   63.0912 H   0  0  0  0  0  0  0  0  0  0  0  0
   37.2480   75.7220   55.5124 H   0  0  0  0  0  0  0  0  0  0  0  0
   35.7643   76.6895   53.4687 H   0  0  0  0  0  0  0  0  0  0  0  0
   38.2100   79.8614   55.0083 H   0  0  0  0  0  0  0  0  0  0  0  0
   43.4984   84.2600   64.3263 H   0  0  0  0  0  0  0  0  0  0  0  0
   43.3137   82.9405   62.2407 H   0  0  0  0  0  0  0  0  0  0  0  0
   39.3226   84.0560   64.8265 H   0  0  0  0  0  0  0  0  0  0  0  0
  1 23  1  0
  2  1  2  0
  3  2  1  0
  4  3  2  0
  4  5  1  0
  5 10  2  0
  6  5  1  0
  6  7  2  0
  7  8  1  0
  9  8  2  0
 10  1  1  0
 10  9  1  0
 11  6  1  0
 12 11  2  0
 13 12  1  0
 14 13  1  0
 14 15  2  0
 15 11  1  0
 16 14  1  0
 17 16  1  0
 18 17  2  0
 19 18  1  0
 19 20  2  0
 20 16  1  0
 21 26  2  0
 22 21  1  0
 23 22  2  0
 23 24  1  0
 24 25  2  0
 25 26  1  0
  2 27  1  0
  3 28  1  0
  4 29  1  0
  7 30  1  0
  8 31  1  0
  9 32  1  0
 17 33  1  0
 18 34  1  0
 20 35  1  0
 21 36  1  0
 22 37  1  0
 25 38  1  0
M  END
>  <Score>  (1) 
-7.32047

$$$$
