
     RDKit          3D

 43 46  0  0  0  0  0  0  0  0999 V2000
   41.5440   84.4850   60.8780 C   0  0  0  0  0  0  0  0  0  0  0  0
   40.7440   84.3420   59.7750 C   0  0  0  0  0  0  0  0  0  0  0  0
   39.5000   83.9970   60.1820 N   0  0  0  0  0  0  0  0  0  0  0  0
   39.4880   83.9160   61.5070 C   0  0  0  0  0  0  0  0  0  0  0  0
   40.7340   84.2130   61.9330 N   0  0  0  0  0  0  0  0  0  0  0  0
   38.3840   83.5800   62.3590 N   0  0  0  0  0  0  0  0  0  0  0  0
   41.1730   84.5320   58.4300 N   0  0  0  0  0  0  0  0  0  0  0  0
   41.8060   83.4250   57.9550 C   0  0  0  0  0  0  0  0  0  0  0  0
   42.3110   83.3910   56.6560 C   0  0  0  0  0  0  0  0  0  0  0  0
   42.1410   84.5170   55.8780 C   0  0  0  0  0  0  0  0  0  0  0  0
   42.6340   84.5460   54.5390 N   0  0  0  0  0  0  0  0  0  0  0  0
   41.5090   85.5900   56.3880 N   0  0  0  0  0  0  0  0  0  0  0  0
   41.0270   85.6130   57.6420 C   0  0  0  0  0  0  0  0  0  0  0  0
   40.4260   86.5680   58.1930 O   0  0  0  0  0  0  0  0  0  0  0  0
   44.6430   86.3720   60.4440 C   0  0  0  0  0  0  0  0  0  0  0  0
   45.6090   85.4640   60.9230 C   0  0  0  0  0  0  0  0  0  0  0  0
   45.1880   84.2330   61.3830 C   0  0  0  0  0  0  0  0  0  0  0  0
   43.8520   83.9830   61.3390 N   0  0  0  0  0  0  0  0  0  0  0  0
   42.9490   84.8470   60.8830 C   0  0  0  0  0  0  0  0  0  0  0  0
   43.3350   86.0480   60.4330 N   0  0  0  0  0  0  0  0  0  0  0  0
   46.0970   83.2360   61.8940 C   0  0  0  0  0  0  0  0  0  0  0  0
   45.8900   82.5620   63.0790 C   0  0  0  0  0  0  0  0  0  0  0  0
   46.7420   81.6010   63.5950 C   0  0  0  0  0  0  0  0  0  0  0  0
   47.8680   81.3270   62.8420 C   0  0  0  0  0  0  0  0  0  0  0  0
   48.1420   81.9560   61.6550 C   0  0  0  0  0  0  0  0  0  0  0  0
   47.2310   82.9070   61.2120 C   0  0  0  0  0  0  0  0  0  0  0  0
   41.1860   84.2490   63.3060 C   0  0  0  0  0  0  0  0  0  0  0  0
   41.8520   83.0890   63.6020 F   0  0  0  0  0  0  0  0  0  0  0  0
   40.1120   84.3660   64.1850 F   0  0  0  0  0  0  0  0  0  0  0  0
   41.9550   85.3950   63.5760 F   0  0  0  0  0  0  0  0  0  0  0  0
   38.5116   83.5530   63.3807 H   0  0  0  0  0  0  0  0  0  0  0  0
   37.4637   83.3658   61.9491 H   0  0  0  0  0  0  0  0  0  0  0  0
   41.9208   82.5449   58.6049 H   0  0  0  0  0  0  0  0  0  0  0  0
   42.8254   82.5001   56.2665 H   0  0  0  0  0  0  0  0  0  0  0  0
   43.1175   83.7238   54.1503 H   0  0  0  0  0  0  0  0  0  0  0  0
   42.5063   85.3891   53.9613 H   0  0  0  0  0  0  0  0  0  0  0  0
   44.9611   87.3580   60.0743 H   0  0  0  0  0  0  0  0  0  0  0  0
   46.6760   85.7311   60.9300 H   0  0  0  0  0  0  0  0  0  0  0  0
   44.9845   82.8050   63.6544 H   0  0  0  0  0  0  0  0  0  0  0  0
   46.5357   81.0872   64.5455 H   0  0  0  0  0  0  0  0  0  0  0  0
   48.5760   80.5705   63.2115 H   0  0  0  0  0  0  0  0  0  0  0  0
   49.0467   81.7174   61.0766 H   0  0  0  0  0  0  0  0  0  0  0  0
   47.4353   83.4214   60.2614 H   0  0  0  0  0  0  0  0  0  0  0  0
  1 19  1  0
  1  5  1  0
  2  3  1  0
  2  1  2  0
  3  4  2  0
  4  5  1  0
  4  6  1  0
  5 27  1  0
  7  2  1  0
  8  7  1  0
  9  8  2  0
 10 12  2  0
 10  9  1  0
 11 10  1  0
 12 13  1  0
 13 14  2  0
 13  7  1  0
 15 16  2  0
 16 17  1  0
 17 21  1  0
 18 17  2  0
 19 18  1  0
 20 15  1  0
 20 19  2  0
 21 22  2  0
 22 23  1  0
 24 23  2  0
 25 24  1  0
 26 25  2  0
 26 21  1  0
 27 30  1  0
 27 28  1  0
 27 29  1  0
  6 31  1  0
  6 32  1  0
  8 33  1  0
  9 34  1  0
 11 35  1  0
 11 36  1  0
 15 37  1  0
 16 38  1  0
 22 39  1  0
 23 40  1  0
 24 41  1  0
 25 42  1  0
 26 43  1  0
M  END
>  <Score>  (1) 
-7.70596

$$$$
