
     RDKit          3D

 47 50  0  0  1  0  0  0  0  0999 V2000
   40.5160   83.5490   58.6300 C   0  0  0  0  0  0  0  0  0  0  0  0
   39.6680   84.3670   59.3580 C   0  0  0  0  0  0  0  0  0  0  0  0
   39.2780   83.9140   60.6190 C   0  0  0  0  0  0  0  0  0  0  0  0
   39.7410   82.7200   61.0530 N   0  0  0  0  0  0  0  0  0  0  0  0
   40.5640   81.9470   60.3220 C   0  0  0  0  0  0  0  0  0  0  0  0
   40.9580   82.3670   59.0920 N   0  0  0  0  0  0  0  0  0  0  0  0
   41.0030   80.6910   60.8700 N   0  0  0  0  0  0  0  0  0  0  0  0
   40.0660   79.6800   61.2200 C   0  0  0  0  0  0  0  0  0  0  0  0
   40.7130   78.3110   61.1700 C   0  0  0  0  0  0  0  0  0  0  0  0
   41.9680   78.2010   61.9810 C   0  0  0  0  0  0  0  0  0  0  0  0
   42.7550   79.4660   62.0630 C   0  0  0  0  0  0  0  0  0  0  0  0
   42.4260   80.5030   61.0480 C   0  0  2  0  0  0  0  0  0  0  0  0
   43.0360   81.7990   61.5200 C   0  0  0  0  0  0  0  0  0  0  0  0
   44.0680   82.4020   60.8460 C   0  0  0  0  0  0  0  0  0  0  0  0
   44.5620   83.5890   61.3550 C   0  0  0  0  0  0  0  0  0  0  0  0
   44.0430   84.1510   62.4960 N   0  0  0  0  0  0  0  0  0  0  0  0
   43.0240   83.5290   63.1350 C   0  0  0  0  0  0  0  0  0  0  0  0
   42.5370   82.3680   62.6420 N   0  0  0  0  0  0  0  0  0  0  0  0
   42.4860   84.1010   64.3080 N   0  0  0  0  0  0  0  0  0  0  0  0
   41.0820   84.1790   64.5000 C   0  0  0  0  0  0  0  0  0  0  0  0
   40.3200   83.3060   63.9170 N   0  0  0  0  0  0  0  0  0  0  0  0
   40.5690   85.2240   65.3350 N   0  0  0  0  0  0  0  0  0  0  0  0
   39.2690   83.3850   64.0840 H   0  0  0  0  0  0  0  0  0  0  0  0
   45.6330   84.2350   60.6750 N   0  0  0  0  0  0  0  0  0  0  0  0
   45.7860   85.4300   60.1640 N   0  0  0  0  0  0  0  0  0  0  0  0
   47.0250   85.5510   59.6130 C   0  0  0  0  0  0  0  0  0  0  0  0
   47.6680   84.3250   59.8100 C   0  0  0  0  0  0  0  0  0  0  0  0
   46.7610   83.5200   60.4820 C   0  0  0  0  0  0  0  0  0  0  0  0
   40.8410   83.8804   57.6328 H   0  0  0  0  0  0  0  0  0  0  0  0
   39.3176   85.3307   58.9600 H   0  0  0  0  0  0  0  0  0  0  0  0
   38.6066   84.5169   61.2481 H   0  0  0  0  0  0  0  0  0  0  0  0
   39.6958   79.8676   62.2387 H   0  0  0  0  0  0  0  0  0  0  0  0
   39.2336   79.7046   60.5013 H   0  0  0  0  0  0  0  0  0  0  0  0
   39.9906   77.5728   61.5484 H   0  0  0  0  0  0  0  0  0  0  0  0
   40.9939   78.1294   60.1221 H   0  0  0  0  0  0  0  0  0  0  0  0
   41.6935   77.8985   63.0023 H   0  0  0  0  0  0  0  0  0  0  0  0
   42.6077   77.4625   61.4757 H   0  0  0  0  0  0  0  0  0  0  0  0
   42.5873   79.9034   63.0583 H   0  0  0  0  0  0  0  0  0  0  0  0
   43.7993   79.1800   61.8687 H   0  0  0  0  0  0  0  0  0  0  0  0
   42.8252   80.1772   60.0762 H   0  0  0  0  0  0  0  0  0  0  0  0
   44.4879   81.9564   59.9321 H   0  0  0  0  0  0  0  0  0  0  0  0
   43.1199   84.4661   65.0331 H   0  0  0  0  0  0  0  0  0  0  0  0
   39.5545   85.3058   65.4929 H   0  0  0  0  0  0  0  0  0  0  0  0
   41.2147   85.8935   65.7774 H   0  0  0  0  0  0  0  0  0  0  0  0
   47.4388   86.4384   59.1116 H   0  0  0  0  0  0  0  0  0  0  0  0
   48.6867   84.0542   59.4956 H   0  0  0  0  0  0  0  0  0  0  0  0
   46.9310   82.4813   60.8016 H   0  0  0  0  0  0  0  0  0  0  0  0
  1  6  2  0
  1  2  1  0
  2  3  2  0
  3  4  1  0
  5  7  1  0
  5  4  2  0
  6  5  1  0
  7 12  1  0
  7  8  1  0
  9  8  1  0
  9 10  1  0
 10 11  1  0
 12 13  1  0
 12 11  1  0
 13 18  2  0
 14 15  2  0
 14 13  1  0
 15 16  1  0
 16 17  2  0
 17 19  1  0
 18 17  1  0
 19 20  1  0
 20 22  1  0
 21 23  1  0
 21 20  2  0
 24 15  1  0
 25 24  1  0
 26 27  1  0
 26 25  2  0
 27 28  2  0
 28 24  1  0
  1 29  1  0
  2 30  1  0
  3 31  1  0
  8 32  1  0
  8 33  1  0
  9 34  1  0
  9 35  1  0
 10 36  1  0
 10 37  1  0
 11 38  1  0
 11 39  1  0
 12 40  1  6
 14 41  1  0
 19 42  1  0
 22 43  1  0
 22 44  1  0
 26 45  1  0
 27 46  1  0
 28 47  1  0
M  END
>  <Score>  (1) 
-7.28192

$$$$
