
     RDKit          3D

 51 55  0  0  1  0  0  0  0  0999 V2000
   40.3950   80.5560   60.9610 C   0  0  2  0  0  0  0  0  0  0  0  0
   39.8710   81.9380   60.9710 C   0  0  0  0  0  0  0  0  0  0  0  0
   40.0140   82.7090   59.7880 C   0  0  0  0  0  0  0  0  0  0  0  0
   39.5520   84.0180   59.7320 C   0  0  0  0  0  0  0  0  0  0  0  0
   38.9660   84.4740   60.8910 N   0  0  0  0  0  0  0  0  0  0  0  0
   38.8470   83.7190   61.9900 C   0  0  0  0  0  0  0  0  0  0  0  0
   39.2960   82.4370   62.0530 N   0  0  0  0  0  0  0  0  0  0  0  0
   41.4740   80.4000   62.1050 C   0  0  0  0  0  0  0  0  0  0  0  0
   42.5910   81.2770   61.9290 N   0  0  0  0  0  0  0  0  0  0  0  0
   43.8530   80.8550   61.9370 C   0  0  0  0  0  0  0  0  0  0  0  0
   44.6760   81.9190   61.7990 N   0  0  0  0  0  0  0  0  0  0  0  0
   43.8640   83.0240   61.7640 C   0  0  0  0  0  0  0  0  0  0  0  0
   42.5740   82.6050   61.9300 N   0  0  0  0  0  0  0  0  0  0  0  0
   44.2260   84.3900   61.5980 N   0  0  0  0  0  0  0  0  0  0  0  0
   43.3710   85.4040   61.6240 N   0  0  0  0  0  0  0  0  0  0  0  0
   44.0150   86.5610   61.4480 C   0  0  0  0  0  0  0  0  0  0  0  0
   45.3300   86.2440   61.3070 C   0  0  0  0  0  0  0  0  0  0  0  0
   45.4570   84.9020   61.4000 C   0  0  0  0  0  0  0  0  0  0  0  0
   41.0120   80.1140   59.7340 C   0  0  0  0  0  0  0  0  0  0  0  0
   41.1320   78.7370   59.7190 O   0  0  0  0  0  0  0  0  0  0  0  0
   40.2420   77.7270   59.7800 C   0  0  0  0  0  0  0  0  0  0  0  0
   40.0240   76.7050   60.6760 C   0  0  0  0  0  0  0  0  0  0  0  0
   39.0530   75.7400   60.5870 C   0  0  0  0  0  0  0  0  0  0  0  0
   38.2110   75.7940   59.5040 C   0  0  0  0  0  0  0  0  0  0  0  0
   38.3550   76.7800   58.5620 C   0  0  0  0  0  0  0  0  0  0  0  0
   37.4530   76.7370   57.5220 C   0  0  0  0  0  0  0  0  0  0  0  0
   37.5410   77.7030   56.5420 C   0  0  0  0  0  0  0  0  0  0  0  0
   38.5110   78.6790   56.6150 C   0  0  0  0  0  0  0  0  0  0  0  0
   39.3810   78.6650   57.6810 C   0  0  0  0  0  0  0  0  0  0  0  0
   39.3570   77.7390   58.6940 C   0  0  0  0  0  0  0  0  0  0  0  0
   39.5018   79.9298   61.1025 H   0  0  0  0  0  0  0  0  0  0  0  0
   40.4964   82.2648   58.9049 H   0  0  0  0  0  0  0  0  0  0  0  0
   39.6472   84.6418   58.8310 H   0  0  0  0  0  0  0  0  0  0  0  0
   38.3662   84.1536   62.8788 H   0  0  0  0  0  0  0  0  0  0  0  0
   40.9984   80.6242   63.0712 H   0  0  0  0  0  0  0  0  0  0  0  0
   41.8514   79.3674   62.0695 H   0  0  0  0  0  0  0  0  0  0  0  0
   44.0652   80.3461   62.8888 H   0  0  0  0  0  0  0  0  0  0  0  0
   44.0140   80.1517   61.1066 H   0  0  0  0  0  0  0  0  0  0  0  0
   41.7444   83.2061   62.0360 H   0  0  0  0  0  0  0  0  0  0  0  0
   43.5712   87.5672   61.4223 H   0  0  0  0  0  0  0  0  0  0  0  0
   46.1505   86.9585   61.1449 H   0  0  0  0  0  0  0  0  0  0  0  0
   46.3945   84.3312   61.3273 H   0  0  0  0  0  0  0  0  0  0  0  0
   40.3925   80.4323   58.8826 H   0  0  0  0  0  0  0  0  0  0  0  0
   42.0155   80.5585   59.6612 H   0  0  0  0  0  0  0  0  0  0  0  0
   40.6932   76.6575   61.5478 H   0  0  0  0  0  0  0  0  0  0  0  0
   38.9532   74.9555   61.3516 H   0  0  0  0  0  0  0  0  0  0  0  0
   37.4162   75.0419   59.3913 H   0  0  0  0  0  0  0  0  0  0  0  0
   36.6829   75.9529   57.4745 H   0  0  0  0  0  0  0  0  0  0  0  0
   36.8344   77.6945   55.6990 H   0  0  0  0  0  0  0  0  0  0  0  0
   38.5882   79.4531   55.8374 H   0  0  0  0  0  0  0  0  0  0  0  0
   40.1495   79.4508   57.7244 H   0  0  0  0  0  0  0  0  0  0  0  0
  1  2  1  0
  1  8  1  0
  2  7  1  0
  3  2  2  0
  4  3  1  0
  4  5  2  0
  5  6  1  0
  6  7  2  0
  9 13  1  0
  9 10  1  0
  9  8  1  0
 11 10  1  0
 12 11  2  0
 12 13  1  0
 14 15  1  0
 14 12  1  0
 16 15  2  0
 17 18  2  0
 17 16  1  0
 18 14  1  0
 19  1  1  0
 20 19  1  0
 20 21  1  0
 21 22  2  0
 23 22  1  0
 24 23  2  0
 25 30  2  0
 25 24  1  0
 26 25  1  0
 27 28  1  0
 27 26  2  0
 28 29  2  0
 29 30  1  0
 30 21  1  0
  1 31  1  1
  3 32  1  0
  4 33  1  0
  6 34  1  0
  8 35  1  0
  8 36  1  0
 10 37  1  0
 10 38  1  0
 13 39  1  0
 16 40  1  0
 17 41  1  0
 18 42  1  0
 19 43  1  0
 19 44  1  0
 22 45  1  0
 23 46  1  0
 24 47  1  0
 26 48  1  0
 27 49  1  0
 28 50  1  0
 29 51  1  0
M  END
>  <Score>  (1) 
-7.38051

$$$$
