
     RDKit          3D

 42 45  0  0  0  0  0  0  0  0999 V2000
   39.2620   77.5540   58.5030 C   0  0  0  0  0  0  0  0  0  0  0  0
   39.0920   76.2330   58.2640 C   0  0  0  0  0  0  0  0  0  0  0  0
   38.2930   76.0970   57.1440 C   0  0  0  0  0  0  0  0  0  0  0  0
   38.0080   77.3760   56.7460 C   0  0  0  0  0  0  0  0  0  0  0  0
   38.6040   78.1950   57.5820 O   0  0  0  0  0  0  0  0  0  0  0  0
   39.5970   75.1130   58.9770 N   0  0  0  0  0  0  0  0  0  0  0  0
   40.7430   74.4670   58.6100 C   0  0  0  0  0  0  0  0  0  0  0  0
   41.2360   73.3630   59.2820 C   0  0  0  0  0  0  0  0  0  0  0  0
   40.5610   72.8640   60.3810 C   0  0  0  0  0  0  0  0  0  0  0  0
   40.8900   71.8740   61.0810 O   0  0  0  0  0  0  0  0  0  0  0  0
   39.4230   73.5450   60.7050 N   0  0  0  0  0  0  0  0  0  0  0  0
   38.9220   74.6310   60.0590 C   0  0  0  0  0  0  0  0  0  0  0  0
   37.8670   75.1500   60.4740 O   0  0  0  0  0  0  0  0  0  0  0  0
   37.1750   77.7670   55.5780 C   0  0  0  0  0  0  0  0  0  0  0  0
   37.1020   79.1330   55.4440 F   0  0  0  0  0  0  0  0  0  0  0  0
   35.9200   77.1830   55.6310 F   0  0  0  0  0  0  0  0  0  0  0  0
   37.7440   77.2650   54.4120 F   0  0  0  0  0  0  0  0  0  0  0  0
   37.8890   74.8590   56.5790 N   0  0  0  0  0  0  0  0  0  0  0  0
   39.9420   78.2370   59.4580 O   0  0  0  0  0  0  0  0  0  0  0  0
   41.2560   78.6630   59.4420 C   0  0  0  0  0  0  0  0  0  0  0  0
   41.8490   78.1980   58.4370 O   0  0  0  0  0  0  0  0  0  0  0  0
   41.8710   81.1420   61.8590 C   0  0  0  0  0  0  0  0  0  0  0  0
   43.1310   80.5330   61.9570 C   0  0  0  0  0  0  0  0  0  0  0  0
   43.0860   79.4770   61.0330 C   0  0  0  0  0  0  0  0  0  0  0  0
   41.8210   79.5090   60.4410 C   0  0  0  0  0  0  0  0  0  0  0  0
   41.1620   80.5000   60.9640 O   0  0  0  0  0  0  0  0  0  0  0  0
   40.3180   83.6980   64.0360 C   0  0  0  0  0  0  0  0  0  0  0  0
   41.4110   84.5450   64.2550 C   0  0  0  0  0  0  0  0  0  0  0  0
   42.6260   84.2280   63.6640 C   0  0  0  0  0  0  0  0  0  0  0  0
   42.6470   83.0950   62.9070 N   0  0  0  0  0  0  0  0  0  0  0  0
   41.5940   82.2970   62.7100 C   0  0  0  0  0  0  0  0  0  0  0  0
   40.4440   82.6160   63.2810 N   0  0  0  0  0  0  0  0  0  0  0  0
   41.3002   74.8423   57.7390 H   0  0  0  0  0  0  0  0  0  0  0  0
   42.1650   72.8820   58.9422 H   0  0  0  0  0  0  0  0  0  0  0  0
   38.8922   73.2024   61.5185 H   0  0  0  0  0  0  0  0  0  0  0  0
   37.2909   74.8463   55.7405 H   0  0  0  0  0  0  0  0  0  0  0  0
   38.1939   73.9734   57.0075 H   0  0  0  0  0  0  0  0  0  0  0  0
   43.9674   80.8190   62.6116 H   0  0  0  0  0  0  0  0  0  0  0  0
   43.8927   78.7612   60.8165 H   0  0  0  0  0  0  0  0  0  0  0  0
   39.3461   83.9326   64.4946 H   0  0  0  0  0  0  0  0  0  0  0  0
   41.3089   85.4428   64.8823 H   0  0  0  0  0  0  0  0  0  0  0  0
   43.5199   84.8547   63.7987 H   0  0  0  0  0  0  0  0  0  0  0  0
  1 19  1  0
  2  1  2  0
  2  6  1  0
  3  2  1  0
  4  3  2  0
  4  5  1  0
  5  1  1  0
  6 12  1  0
  7  6  1  0
  7  8  2  0
  8  9  1  0
  9 11  1  0
  9 10  2  0
 12 13  2  0
 12 11  1  0
 14 16  1  0
 14  4  1  0
 15 14  1  0
 17 14  1  0
 18  3  1  0
 20 19  1  0
 20 25  1  0
 21 20  2  0
 22 23  2  0
 22 31  1  0
 24 23  1  0
 25 26  1  0
 25 24  2  0
 26 22  1  0
 27 28  2  0
 29 28  1  0
 30 29  2  0
 31 30  1  0
 31 32  2  0
 32 27  1  0
  7 33  1  0
  8 34  1  0
 11 35  1  0
 18 36  1  0
 18 37  1  0
 23 38  1  0
 24 39  1  0
 27 40  1  0
 28 41  1  0
 29 42  1  0
M  END
>  <Score>  (1) 
-7.08874

$$$$
