
     RDKit          3D

 29 30  0  0  0  0  0  0  0  0999 V2000
   45.1270   34.4130   41.1880 C   0  0  0  0  0  0  0  0  0  0  0  0
   45.5410   34.9930   42.3820 C   0  0  0  0  0  0  0  0  0  0  0  0
   46.9170   35.2110   42.5590 C   0  0  0  0  0  0  0  0  0  0  0  0
   47.8020   34.8560   41.5780 C   0  0  0  0  0  0  0  0  0  0  0  0
   47.4020   34.2850   40.4050 C   0  0  0  0  0  0  0  0  0  0  0  0
   46.0350   34.0740   40.2390 C   0  0  0  0  0  0  0  0  0  0  0  0
   41.4340   34.8390   40.5710 C   0  0  0  0  0  0  0  0  0  0  0  0
   42.8040   35.1740   40.6590 C   0  0  0  0  0  0  0  0  0  0  0  0
   43.6990   34.2100   41.0540 C   0  0  0  0  0  0  0  0  0  0  0  0
   43.1930   32.9770   41.3380 N   0  0  0  0  0  0  0  0  0  0  0  0
   41.8860   32.6600   41.2520 C   0  0  0  0  0  0  0  0  0  0  0  0
   40.9890   33.6060   40.8630 N   0  0  0  0  0  0  0  0  0  0  0  0
   40.4550   35.8770   40.1430 C   0  0  0  0  0  0  0  0  0  0  0  0
   39.2230   35.2190   39.9580 F   0  0  0  0  0  0  0  0  0  0  0  0
   40.8460   36.3010   38.8770 F   0  0  0  0  0  0  0  0  0  0  0  0
   40.3160   36.8900   41.0490 F   0  0  0  0  0  0  0  0  0  0  0  0
   45.4470   32.1770   38.5250 C   0  0  0  0  0  0  0  0  0  0  0  0
   45.9590   31.1800   39.0170 O   0  0  0  0  0  0  0  0  0  0  0  0
   45.5010   33.4910   39.0690 N   0  0  0  0  0  0  0  0  0  0  0  0
   44.7300   32.0190   37.3000 N   0  0  0  0  0  0  0  0  0  0  0  0
   44.8159   35.2714   43.1609 H   0  0  0  0  0  0  0  0  0  0  0  0
   47.2844   35.6686   43.4894 H   0  0  0  0  0  0  0  0  0  0  0  0
   48.8747   35.0374   41.7407 H   0  0  0  0  0  0  0  0  0  0  0  0
   48.1260   34.0041   39.6259 H   0  0  0  0  0  0  0  0  0  0  0  0
   43.1479   36.1900   40.4152 H   0  0  0  0  0  0  0  0  0  0  0  0
   41.5464   31.6423   41.4949 H   0  0  0  0  0  0  0  0  0  0  0  0
   45.0391   34.1840   38.4630 H   0  0  0  0  0  0  0  0  0  0  0  0
   44.2851   32.8343   36.8548 H   0  0  0  0  0  0  0  0  0  0  0  0
   44.6578   31.0897   36.8617 H   0  0  0  0  0  0  0  0  0  0  0  0
  1  2  2  0
  2  3  1  0
  4  3  2  0
  5  4  1  0
  6  5  2  0
  6  1  1  0
  7  8  2  0
  7 12  1  0
  8  9  1  0
  9  1  1  0
  9 10  2  0
 11 10  1  0
 12 11  2  0
 13  7  1  0
 13 16  1  0
 14 13  1  0
 15 13  1  0
 17 18  2  0
 17 19  1  0
 19  6  1  0
 20 17  1  0
  2 21  1  0
  3 22  1  0
  4 23  1  0
  5 24  1  0
  8 25  1  0
 11 26  1  0
 19 27  1  0
 20 28  1  0
 20 29  1  0
M  ISO  6  21  14  22  14  23  14  24  14  25  14  26  14
M  END
>  <minimizedAffinity>  (1) 
-5.5980854

>  <minimizedRMSD>  (1) 
0.0322234444

$$$$
