
     RDKit          3D

 43 45  0  0  1  0  0  0  0  0999 V2000
   47.6250   31.7670   46.3640 C   0  0  2  0  0  0  0  0  0  0  0  0
   47.3970   30.3230   45.8260 C   0  0  0  0  0  0  0  0  0  0  0  0
   48.2200   29.3660   46.6250 C   0  0  0  0  0  0  0  0  0  0  0  0
   48.1920   29.5560   48.1030 C   0  0  0  0  0  0  0  0  0  0  0  0
   48.1780   30.9370   48.5230 C   0  0  0  0  0  0  0  0  0  0  0  0
   47.1740   31.8150   47.7410 C   0  0  2  0  0  0  0  0  0  0  0  0
   46.9740   32.7550   45.5260 C   0  0  0  0  0  0  0  0  0  0  0  0
   45.8830   33.4260   46.0580 C   0  0  0  0  0  0  0  0  0  0  0  0
   45.1980   34.3800   45.2710 C   0  0  0  0  0  0  0  0  0  0  0  0
   45.6870   34.5840   43.9820 N   0  0  0  0  0  0  0  0  0  0  0  0
   46.7430   33.9080   43.5320 C   0  0  0  0  0  0  0  0  0  0  0  0
   47.3780   33.0080   44.2860 N   0  0  0  0  0  0  0  0  0  0  0  0
   47.2170   34.1860   42.1720 C   0  0  0  0  0  0  0  0  0  0  0  0
   48.2070   35.1120   41.9390 C   0  0  0  0  0  0  0  0  0  0  0  0
   48.7150   35.4370   40.7060 C   0  0  0  0  0  0  0  0  0  0  0  0
   48.1470   34.7450   39.6600 C   0  0  0  0  0  0  0  0  0  0  0  0
   47.1410   33.7990   39.8650 C   0  0  0  0  0  0  0  0  0  0  0  0
   46.6870   33.5300   41.1260 N   0  0  0  0  0  0  0  0  0  0  0  0
   46.5330   33.0650   38.8080 N   0  0  0  0  0  0  0  0  0  0  0  0
   45.8430   31.2180   47.8530 N   0  0  0  0  0  0  0  0  0  0  0  0
   45.1550   30.6730   48.9500 C   0  0  0  0  0  0  0  0  0  0  0  0
   44.5960   31.3940   49.8530 O   0  0  0  0  0  0  0  0  0  0  0  0
   45.1160   29.2470   48.9840 N   0  0  0  0  0  0  0  0  0  0  0  0
   48.6955   32.0179   46.3327 H   0  0  0  0  0  0  0  0  0  0  0  0
   46.3330   30.0596   45.9184 H   0  0  0  0  0  0  0  0  0  0  0  0
   47.6932   30.2716   44.7679 H   0  0  0  0  0  0  0  0  0  0  0  0
   47.8584   28.3497   46.4094 H   0  0  0  0  0  0  0  0  0  0  0  0
   49.2620   29.5467   46.3225 H   0  0  0  0  0  0  0  0  0  0  0  0
   47.2887   29.0668   48.4964 H   0  0  0  0  0  0  0  0  0  0  0  0
   49.1208   29.1162   48.4954 H   0  0  0  0  0  0  0  0  0  0  0  0
   47.9128   30.9727   49.5899 H   0  0  0  0  0  0  0  0  0  0  0  0
   49.1812   31.3429   48.3257 H   0  0  0  0  0  0  0  0  0  0  0  0
   47.1221   32.8474   48.1170 H   0  0  0  0  0  0  0  0  0  0  0  0
   45.5526   33.2171   47.0862 H   0  0  0  0  0  0  0  0  0  0  0  0
   44.3268   34.9310   45.6550 H   0  0  0  0  0  0  0  0  0  0  0  0
   48.6256   35.6346   42.8117 H   0  0  0  0  0  0  0  0  0  0  0  0
   49.5081   36.1862   40.5656 H   0  0  0  0  0  0  0  0  0  0  0  0
   48.4951   34.9428   38.6355 H   0  0  0  0  0  0  0  0  0  0  0  0
   45.7942   32.3782   39.0164 H   0  0  0  0  0  0  0  0  0  0  0  0
   46.8318   33.2206   37.8346 H   0  0  0  0  0  0  0  0  0  0  0  0
   45.3156   31.1927   46.9686 H   0  0  0  0  0  0  0  0  0  0  0  0
   44.6319   28.7633   49.7538 H   0  0  0  0  0  0  0  0  0  0  0  0
   45.5719   28.7014   48.2388 H   0  0  0  0  0  0  0  0  0  0  0  0
  1  6  1  0
  2  1  1  0
  2  3  1  0
  3  4  1  0
  4  5  1  0
  6 20  1  0
  6  5  1  0
  7  8  2  0
  7  1  1  0
  9  8  1  0
 10  9  2  0
 11 10  1  0
 11 12  2  0
 12  7  1  0
 13 11  1  0
 14 13  2  0
 15 14  1  0
 16 17  1  0
 16 15  2  0
 17 18  2  0
 18 13  1  0
 19 17  1  0
 20 21  1  0
 21 23  1  0
 21 22  2  0
  1 24  1  1
  2 25  1  0
  2 26  1  0
  3 27  1  0
  3 28  1  0
  4 29  1  0
  4 30  1  0
  5 31  1  0
  5 32  1  0
  6 33  1  1
  8 34  1  0
  9 35  1  0
 14 36  1  0
 15 37  1  0
 16 38  1  0
 19 39  1  0
 19 40  1  0
 20 41  1  0
 23 42  1  0
 23 43  1  0
M  ISO  8  24  13  25  13  26  13  27  13  28  13  29  13  30  13  31  13
M  ISO  7  32  13  33  13  34  14  35  14  36  14  37  14  38  14
M  END
>  <minimizedAffinity>  (1) 
-5.9693346

>  <minimizedRMSD>  (1) 
0.201886937

$$$$
