
     RDKit          3D

 22 23  0  0  0  0  0  0  0  0999 V2000
   46.0700   34.1670   41.0070 C   0  0  0  0  0  0  0  0  0  0  0  0
   46.6250   34.8340   42.1150 C   0  0  0  0  0  0  0  0  0  0  0  0
   47.9500   35.2660   42.0070 C   0  0  0  0  0  0  0  0  0  0  0  0
   48.6170   35.0170   40.8470 N   0  0  0  0  0  0  0  0  0  0  0  0
   48.0500   34.3770   39.8150 C   0  0  0  0  0  0  0  0  0  0  0  0
   46.7700   33.9480   39.8920 N   0  0  0  0  0  0  0  0  0  0  0  0
   45.8180   35.0440   43.3040 C   0  0  0  0  0  0  0  0  0  0  0  0
   45.0630   36.1940   43.5110 C   0  0  0  0  0  0  0  0  0  0  0  0
   44.4720   35.9720   44.7380 C   0  0  0  0  0  0  0  0  0  0  0  0
   44.8330   34.7740   45.2510 N   0  0  0  0  0  0  0  0  0  0  0  0
   45.6430   34.2480   44.3570 N   0  0  0  0  0  0  0  0  0  0  0  0
   44.7650   33.7360   41.1020 O   0  0  0  0  0  0  0  0  0  0  0  0
   43.6880   34.2920   40.4580 C   0  0  0  0  0  0  0  0  0  0  0  0
   43.2440   35.4810   40.5420 O   0  0  0  0  0  0  0  0  0  0  0  0
   42.6920   33.8380   39.5110 N   0  0  0  0  0  0  0  0  0  0  0  0
   48.4409   35.7936   42.8380 H   0  0  0  0  0  0  0  0  0  0  0  0
   48.6307   34.1992   38.8978 H   0  0  0  0  0  0  0  0  0  0  0  0
   44.9615   37.0703   42.8539 H   0  0  0  0  0  0  0  0  0  0  0  0
   43.7931   36.6800   45.2359 H   0  0  0  0  0  0  0  0  0  0  0  0
   44.5378   34.3621   46.1477 H   0  0  0  0  0  0  0  0  0  0  0  0
   42.7098   32.8658   39.1713 H   0  0  0  0  0  0  0  0  0  0  0  0
   41.9655   34.4871   39.1768 H   0  0  0  0  0  0  0  0  0  0  0  0
  1 12  1  0
  1  2  2  0
  2  7  1  0
  3  2  1  0
  4  3  2  0
  5  6  2  0
  5  4  1  0
  6  1  1  0
  7  8  1  0
  7 11  2  0
  8  9  2  0
  9 10  1  0
 11 10  1  0
 13 14  2  0
 13 12  1  0
 15 13  1  0
  3 16  1  0
  5 17  1  0
  8 18  1  0
  9 19  1  0
 10 20  1  0
 15 21  1  0
 15 22  1  0
M  ISO  5  16  14  17  14  18  14  19  14  20   9
M  END
>  <minimizedAffinity>  (1) 
-4.51181936

>  <minimizedRMSD>  (1) 
0.0648971274

$$$$
