
     RDKit          3D

 25 26  0  0  1  0  0  0  0  0999 V2000
   45.8250   33.0610   47.7980 C   0  0  2  0  0  0  0  0  0  0  0  0
   46.4370   32.5260   46.5310 C   0  0  1  0  0  0  0  0  0  0  0  0
   45.7470   31.2830   46.3380 O   0  0  0  0  0  0  0  0  0  0  0  0
   46.0300   30.7180   47.6130 C   0  0  0  0  0  0  0  0  0  0  0  0
   45.3910   31.7690   48.5030 C   0  0  2  0  0  0  0  0  0  0  0  0
   44.9100   35.0110   44.3190 C   0  0  0  0  0  0  0  0  0  0  0  0
   45.8250   35.0990   43.2530 C   0  0  0  0  0  0  0  0  0  0  0  0
   46.9880   34.2840   43.2870 C   0  0  0  0  0  0  0  0  0  0  0  0
   47.1680   33.4540   44.3460 N   0  0  0  0  0  0  0  0  0  0  0  0
   46.2560   33.3950   45.3640 C   0  0  0  0  0  0  0  0  0  0  0  0
   45.1570   34.1550   45.3460 N   0  0  0  0  0  0  0  0  0  0  0  0
   43.7570   35.8410   44.2540 N   0  0  0  0  0  0  0  0  0  0  0  0
   44.6790   33.8470   47.4950 O   0  0  0  0  0  0  0  0  0  0  0  0
   44.0100   31.6200   48.3930 O   0  0  0  0  0  0  0  0  0  0  0  0
   46.5000   33.6991   48.3872 H   0  0  0  0  0  0  0  0  0  0  0  0
   47.5292   32.4377   46.6269 H   0  0  0  0  0  0  0  0  0  0  0  0
   45.5579   29.7324   47.7386 H   0  0  0  0  0  0  0  0  0  0  0  0
   47.0940   30.5219   47.8114 H   0  0  0  0  0  0  0  0  0  0  0  0
   45.6632   31.7285   49.5680 H   0  0  0  0  0  0  0  0  0  0  0  0
   45.6434   35.7841   42.4118 H   0  0  0  0  0  0  0  0  0  0  0  0
   47.7266   34.3246   42.4729 H   0  0  0  0  0  0  0  0  0  0  0  0
   43.6209   36.4714   43.4509 H   0  0  0  0  0  0  0  0  0  0  0  0
   43.0581   35.8117   45.0100 H   0  0  0  0  0  0  0  0  0  0  0  0
   44.2491   34.1418   48.3367 H   0  0  0  0  0  0  0  0  0  0  0  0
   43.6097   31.5768   49.2974 H   0  0  0  0  0  0  0  0  0  0  0  0
  1  5  1  0
  2  1  1  0
  3  2  1  0
  3  4  1  0
  4  5  1  0
  6 11  2  0
  7  8  2  0
  7  6  1  0
  8  9  1  0
  9 10  2  0
 10  2  1  0
 11 10  1  0
 12  6  1  0
 13  1  1  0
 14  5  1  0
  1 15  1  1
  2 16  1  1
  4 17  1  0
  4 18  1  0
  5 19  1  1
  7 20  1  0
  8 21  1  0
 12 22  1  0
 12 23  1  0
 13 24  1  0
 14 25  1  0
M  ISO  8  15  13  16  13  17  13  18  13  19  13  20  14  21  14  24   3
M  ISO  1  25   3
M  END
>  <minimizedAffinity>  (1) 
-5.46435595

>  <minimizedRMSD>  (1) 
0.81916374

$$$$
