
     RDKit          3D

 39 41  0  0  0  0  0  0  0  0999 V2000
   44.6780   35.0750   41.9740 C   0  0  0  0  0  0  0  0  0  0  0  0
   43.4810   35.1710   41.2500 C   0  0  0  0  0  0  0  0  0  0  0  0
   43.3820   34.4500   40.0530 C   0  0  0  0  0  0  0  0  0  0  0  0
   44.4410   33.7010   39.6570 N   0  0  0  0  0  0  0  0  0  0  0  0
   45.5700   33.6370   40.3820 C   0  0  0  0  0  0  0  0  0  0  0  0
   45.6950   34.3180   41.5370 N   0  0  0  0  0  0  0  0  0  0  0  0
   48.2680   35.0090   40.2330 Cl  0  0  0  0  0  0  0  0  0  0  0  0
   47.9410   33.3650   39.7830 C   0  0  0  0  0  0  0  0  0  0  0  0
   46.6770   32.7940   39.8760 C   0  0  0  0  0  0  0  0  0  0  0  0
   46.3990   31.5040   39.5270 C   0  0  0  0  0  0  0  0  0  0  0  0
   47.4370   30.7460   39.0630 C   0  0  0  0  0  0  0  0  0  0  0  0
   48.7280   31.2050   38.9290 C   0  0  0  0  0  0  0  0  0  0  0  0
   48.9230   32.5200   39.3030 C   0  0  0  0  0  0  0  0  0  0  0  0
   44.7870   35.8280   43.2270 C   0  0  0  0  0  0  0  0  0  0  0  0
   45.0810   37.0960   43.1700 C   0  0  0  0  0  0  0  0  0  0  0  0
   45.2040   37.9090   44.4110 C   0  0  0  0  0  0  0  0  0  0  0  0
   45.3470   39.2940   44.0370 N   0  0  0  0  0  0  0  0  0  0  0  0
   44.9860   40.3080   44.9670 C   0  0  0  0  0  0  0  0  0  0  0  0
   44.5860   41.5600   44.5570 C   0  0  0  0  0  0  0  0  0  0  0  0
   44.2260   42.5760   45.4310 C   0  0  0  0  0  0  0  0  0  0  0  0
   44.2710   42.3220   46.7860 C   0  0  0  0  0  0  0  0  0  0  0  0
   44.6700   41.0750   47.2030 C   0  0  0  0  0  0  0  0  0  0  0  0
   45.0210   40.0880   46.3280 C   0  0  0  0  0  0  0  0  0  0  0  0
   42.6474   35.7919   41.6100 H   0  0  0  0  0  0  0  0  0  0  0  0
   42.4648   34.4905   39.4471 H   0  0  0  0  0  0  0  0  0  0  0  0
   45.3828   31.0922   39.6155 H   0  0  0  0  0  0  0  0  0  0  0  0
   47.2280   29.7041   38.7788 H   0  0  0  0  0  0  0  0  0  0  0  0
   49.5440   30.5711   38.5518 H   0  0  0  0  0  0  0  0  0  0  0  0
   49.9409   32.9269   39.2115 H   0  0  0  0  0  0  0  0  0  0  0  0
   44.6239   35.3326   44.1955 H   0  0  0  0  0  0  0  0  0  0  0  0
   45.2405   37.5724   42.1914 H   0  0  0  0  0  0  0  0  0  0  0  0
   44.3026   37.7824   45.0286 H   0  0  0  0  0  0  0  0  0  0  0  0
   46.0798   37.5823   44.9909 H   0  0  0  0  0  0  0  0  0  0  0  0
   45.7070   39.5467   43.1056 H   0  0  0  0  0  0  0  0  0  0  0  0
   44.5498   41.7663   43.4771 H   0  0  0  0  0  0  0  0  0  0  0  0
   43.9124   43.5600   45.0524 H   0  0  0  0  0  0  0  0  0  0  0  0
   43.9944   43.0983   47.5146 H   0  0  0  0  0  0  0  0  0  0  0  0
   44.7079   40.8644   48.2820 H   0  0  0  0  0  0  0  0  0  0  0  0
   45.3352   39.1065   46.7125 H   0  0  0  0  0  0  0  0  0  0  0  0
  1 14  1  0
  2  1  2  0
  3  2  1  0
  4  3  2  0
  4  5  1  0
  5  6  2  0
  6  1  1  0
  8  9  2  0
  8  7  1  0
  9  5  1  0
 10  9  1  0
 11 10  2  0
 12 11  1  0
 12 13  2  0
 13  8  1  0
 15 14  2  0
 15 16  1  0
 17 16  1  0
 17 18  1  0
 18 23  1  0
 19 18  2  0
 19 20  1  0
 20 21  2  0
 21 22  1  0
 23 22  2  0
  2 24  1  0
  3 25  1  0
 10 26  1  0
 11 27  1  0
 12 28  1  0
 13 29  1  0
 14 30  1  0
 15 31  1  0
 16 32  1  0
 16 33  1  0
 17 34  1  0
 19 35  1  0
 20 36  1  0
 21 37  1  0
 22 38  1  0
 23 39  1  0
M  ISO  8  24  14  25  14  26  14  27  14  28  14  29  14  32   8  33   8
M  ISO  5  35  14  36  14  37  14  38  14  39  14
M  END
>  <minimizedAffinity>  (1) 
-3.9586978

>  <minimizedRMSD>  (1) 
2.06920934

$$$$
