
     RDKit          3D

 28 29  0  0  0  0  0  0  0  0999 V2000
   45.6800   30.6110   47.7410 O   0  0  0  0  0  0  0  0  0  0  0  0
   45.9790   31.9800   48.4050 P   0  0  2  0  0  0  0  0  0  0  0  0
   45.3740   31.8510   49.9670 O   0  0  0  0  0  0  0  0  0  0  0  0
   45.1390   33.1600   47.5390 O   0  0  0  0  0  0  0  0  0  0  0  0
   47.0300   33.1900   44.4330 C   0  0  0  0  0  0  0  0  0  0  0  0
   46.5790   32.8320   45.7250 C   0  0  0  0  0  0  0  0  0  0  0  0
   45.5430   33.5460   46.2790 C   0  0  0  0  0  0  0  0  0  0  0  0
   45.0050   34.5560   45.5600 N   0  0  0  0  0  0  0  0  0  0  0  0
   45.4300   34.8960   44.3390 C   0  0  0  0  0  0  0  0  0  0  0  0
   46.4490   34.2100   43.7700 N   0  0  0  0  0  0  0  0  0  0  0  0
   47.6130   32.2480   48.3880 O   0  0  0  0  0  0  0  0  0  0  0  0
   48.6640   31.6090   48.9330 C   0  0  0  0  0  0  0  0  0  0  0  0
   49.5860   32.4520   49.3660 O   0  0  0  0  0  0  0  0  0  0  0  0
   49.2680   30.2720   49.2740 C   0  0  0  0  0  0  0  0  0  0  0  0
   49.1790   29.2460   48.4120 C   0  0  0  0  0  0  0  0  0  0  0  0
   49.7470   28.0190   48.7960 C   0  0  0  0  0  0  0  0  0  0  0  0
   50.3720   27.8790   50.0110 C   0  0  0  0  0  0  0  0  0  0  0  0
   50.4950   28.8910   50.9310 C   0  0  0  0  0  0  0  0  0  0  0  0
   49.9260   30.0380   50.4940 C   0  0  0  0  0  0  0  0  0  0  0  0
   46.1039   32.0066   50.6175 H   0  0  0  0  0  0  0  0  0  0  0  0
   47.8575   32.6343   43.9677 H   0  0  0  0  0  0  0  0  0  0  0  0
   47.0465   32.0013   46.2739 H   0  0  0  0  0  0  0  0  0  0  0  0
   44.9544   35.7285   43.7997 H   0  0  0  0  0  0  0  0  0  0  0  0
   48.6789   29.3619   47.4391 H   0  0  0  0  0  0  0  0  0  0  0  0
   49.6901   27.1583   48.1134 H   0  0  0  0  0  0  0  0  0  0  0  0
   50.7997   26.8972   50.2622 H   0  0  0  0  0  0  0  0  0  0  0  0
   50.9952   28.7823   51.9046 H   0  0  0  0  0  0  0  0  0  0  0  0
   49.9858   30.8958   51.1800 H   0  0  0  0  0  0  0  0  0  0  0  0
  2  1  2  0
  2  3  1  0
  4  2  1  0
  5  6  2  0
  6  7  1  0
  7  4  1  0
  8  7  2  0
  9  8  1  0
 10  9  2  0
 10  5  1  0
 11  2  1  0
 11 12  1  0
 12 14  1  0
 12 13  2  0
 14 19  2  0
 15 16  2  0
 15 14  1  0
 16 17  1  0
 17 18  2  0
 19 18  1  0
  3 20  1  0
  5 21  1  0
  6 22  1  0
  9 23  1  0
 15 24  1  0
 16 25  1  0
 17 26  1  0
 18 27  1  0
 19 28  1  0
M  ISO  8  20   3  21  14  22  14  23  14  24  14  25  14  26  14  27  14
M  ISO  1  28  14
M  END
>  <minimizedAffinity>  (1) 
-4.97109222

>  <minimizedRMSD>  (1) 
1.25863957

$$$$
