
     RDKit          3D

 30 32  0  0  0  0  0  0  0  0999 V2000
   45.8250   34.2600   41.0470 C   0  0  0  0  0  0  0  0  0  0  0  0
   46.4540   34.7850   42.1700 C   0  0  0  0  0  0  0  0  0  0  0  0
   47.8300   35.0210   42.0510 C   0  0  0  0  0  0  0  0  0  0  0  0
   48.4570   34.7320   40.8740 N   0  0  0  0  0  0  0  0  0  0  0  0
   47.7990   34.2310   39.8330 C   0  0  0  0  0  0  0  0  0  0  0  0
   46.4800   33.9900   39.9070 N   0  0  0  0  0  0  0  0  0  0  0  0
   45.6960   35.0560   43.3720 C   0  0  0  0  0  0  0  0  0  0  0  0
   45.1320   36.2910   43.6410 C   0  0  0  0  0  0  0  0  0  0  0  0
   44.5200   36.0990   44.8650 C   0  0  0  0  0  0  0  0  0  0  0  0
   44.6990   34.8410   45.3070 N   0  0  0  0  0  0  0  0  0  0  0  0
   45.4140   34.2270   44.3870 N   0  0  0  0  0  0  0  0  0  0  0  0
   44.4680   34.0120   41.1210 O   0  0  0  0  0  0  0  0  0  0  0  0
   43.4490   34.8210   40.7120 C   0  0  0  0  0  0  0  0  0  0  0  0
   43.2410   36.0410   41.0550 O   0  0  0  0  0  0  0  0  0  0  0  0
   42.3840   34.3790   39.7660 C   0  0  0  0  0  0  0  0  0  0  0  0
   41.5600   35.2750   39.0830 C   0  0  0  0  0  0  0  0  0  0  0  0
   40.5590   34.9550   38.1980 C   0  0  0  0  0  0  0  0  0  0  0  0
   40.3610   33.6100   37.9740 C   0  0  0  0  0  0  0  0  0  0  0  0
   41.1250   32.6530   38.6020 C   0  0  0  0  0  0  0  0  0  0  0  0
   42.1060   33.0660   39.4730 C   0  0  0  0  0  0  0  0  0  0  0  0
   48.3985   35.4347   42.8970 H   0  0  0  0  0  0  0  0  0  0  0  0
   48.3408   34.0116   38.9012 H   0  0  0  0  0  0  0  0  0  0  0  0
   45.1633   37.2043   43.0287 H   0  0  0  0  0  0  0  0  0  0  0  0
   43.9592   36.8743   45.4076 H   0  0  0  0  0  0  0  0  0  0  0  0
   44.3476   34.4389   46.1877 H   0  0  0  0  0  0  0  0  0  0  0  0
   41.7291   36.3453   39.2724 H   0  0  0  0  0  0  0  0  0  0  0  0
   39.9528   35.7253   37.6989 H   0  0  0  0  0  0  0  0  0  0  0  0
   39.5724   33.2932   37.2756 H   0  0  0  0  0  0  0  0  0  0  0  0
   40.9551   31.5830   38.4118 H   0  0  0  0  0  0  0  0  0  0  0  0
   42.7095   32.2917   39.9691 H   0  0  0  0  0  0  0  0  0  0  0  0
  1 12  1  0
  1  2  1  0
  2  7  1  0
  3  2  2  0
  4  3  1  0
  5  6  1  0
  5  4  2  0
  6  1  2  0
  7  8  1  0
  7 11  2  0
  8  9  2  0
  9 10  1  0
 11 10  1  0
 13 14  2  0
 13 12  1  0
 15 13  1  0
 16 15  2  0
 17 16  1  0
 18 17  2  0
 18 19  1  0
 19 20  2  0
 20 15  1  0
  3 21  1  0
  5 22  1  0
  8 23  1  0
  9 24  1  0
 10 25  1  0
 16 26  1  0
 17 27  1  0
 18 28  1  0
 19 29  1  0
 20 30  1  0
M  ISO  8  21  14  22  14  23  14  24  14  25   9  26  14  27  14  28  14
M  ISO  2  29  14  30  14
M  END
>  <minimizedAffinity>  (1) 
-5.56389999

>  <minimizedRMSD>  (1) 
1.01043475

$$$$
