
     RDKit          3D

 34 36  0  0  0  0  0  0  0  0999 V2000
   46.5890   34.7420   42.0110 C   0  0  0  0  0  0  0  0  0  0  0  0
   47.8920   35.2380   41.9420 C   0  0  0  0  0  0  0  0  0  0  0  0
   48.6040   35.0470   40.7720 C   0  0  0  0  0  0  0  0  0  0  0  0
   48.0120   34.3780   39.7120 C   0  0  0  0  0  0  0  0  0  0  0  0
   46.7430   33.8850   39.7560 C   0  0  0  0  0  0  0  0  0  0  0  0
   46.0480   34.0960   40.9610 C   0  0  0  0  0  0  0  0  0  0  0  0
   44.4940   36.1970   44.8050 C   0  0  0  0  0  0  0  0  0  0  0  0
   45.1260   36.0850   43.5480 C   0  0  0  0  0  0  0  0  0  0  0  0
   45.8890   34.9750   43.2680 C   0  0  0  0  0  0  0  0  0  0  0  0
   45.9770   34.0470   44.2490 N   0  0  0  0  0  0  0  0  0  0  0  0
   45.3870   34.1290   45.4540 C   0  0  0  0  0  0  0  0  0  0  0  0
   44.6290   35.2390   45.7230 N   0  0  0  0  0  0  0  0  0  0  0  0
   43.4260   34.1050   40.8310 C   0  0  0  0  0  0  0  0  0  0  0  0
   43.1670   35.1850   40.2500 O   0  0  0  0  0  0  0  0  0  0  0  0
   44.7250   33.6290   41.1340 N   0  0  0  0  0  0  0  0  0  0  0  0
   42.2760   33.2950   41.2130 C   0  0  0  0  0  0  0  0  0  0  0  0
   41.0340   33.8920   41.1830 C   0  0  0  0  0  0  0  0  0  0  0  0
   39.8770   33.1840   41.5370 C   0  0  0  0  0  0  0  0  0  0  0  0
   39.9280   31.8720   41.9260 C   0  0  0  0  0  0  0  0  0  0  0  0
   41.1660   31.2700   41.9590 C   0  0  0  0  0  0  0  0  0  0  0  0
   42.2920   31.9770   41.6100 C   0  0  0  0  0  0  0  0  0  0  0  0
   48.3406   35.7669   42.7958 H   0  0  0  0  0  0  0  0  0  0  0  0
   49.6337   35.4236   40.6830 H   0  0  0  0  0  0  0  0  0  0  0  0
   48.5957   34.2384   38.7901 H   0  0  0  0  0  0  0  0  0  0  0  0
   46.2907   33.3559   38.9042 H   0  0  0  0  0  0  0  0  0  0  0  0
   43.8835   37.0840   45.0299 H   0  0  0  0  0  0  0  0  0  0  0  0
   45.0092   36.8802   42.7970 H   0  0  0  0  0  0  0  0  0  0  0  0
   45.5086   33.3305   46.2007 H   0  0  0  0  0  0  0  0  0  0  0  0
   44.6992   32.7097   41.5979 H   0  0  0  0  0  0  0  0  0  0  0  0
   40.9490   34.9446   40.8752 H   0  0  0  0  0  0  0  0  0  0  0  0
   38.9037   33.6952   41.5014 H   0  0  0  0  0  0  0  0  0  0  0  0
   39.0165   31.3211   42.2011 H   0  0  0  0  0  0  0  0  0  0  0  0
   41.2544   30.2175   42.2663 H   0  0  0  0  0  0  0  0  0  0  0  0
   43.2619   31.4597   41.6503 H   0  0  0  0  0  0  0  0  0  0  0  0
  1  9  1  0
  2  1  2  0
  3  2  1  0
  4  5  1  0
  4  3  2  0
  5  6  2  0
  6 15  1  0
  6  1  1  0
  7 12  2  0
  8  7  1  0
  9  8  2  0
  9 10  1  0
 10 11  2  0
 11 12  1  0
 13 15  1  0
 13 16  1  0
 14 13  2  0
 16 21  1  0
 17 16  2  0
 17 18  1  0
 18 19  2  0
 19 20  1  0
 21 20  2  0
  2 22  1  0
  3 23  1  0
  4 24  1  0
  5 25  1  0
  7 26  1  0
  8 27  1  0
 11 28  1  0
 15 29  1  0
 17 30  1  0
 18 31  1  0
 19 32  1  0
 20 33  1  0
 21 34  1  0
M  ISO  8  22  14  23  14  24  14  25  14  26  14  27  14  28  14  30  14
M  ISO  4  31  14  32  14  33  14  34  14
M  END
>  <minimizedAffinity>  (1) 
-6.3898468

>  <minimizedRMSD>  (1) 
0.711234212

$$$$
