
     RDKit          3D

 33 35  0  0  1  0  0  0  0  0999 V2000
   46.5870   34.6850   43.1310 C   0  0  0  0  0  0  0  0  0  0  0  0
   45.5520   35.6380   43.3390 C   0  0  0  0  0  0  0  0  0  0  0  0
   44.7570   35.4700   44.4790 C   0  0  0  0  0  0  0  0  0  0  0  0
   45.0230   34.4200   45.3020 N   0  0  0  0  0  0  0  0  0  0  0  0
   46.0280   33.5360   45.0500 C   0  0  0  0  0  0  0  0  0  0  0  0
   46.7960   33.6590   43.9920 N   0  0  0  0  0  0  0  0  0  0  0  0
   46.2560   32.4210   46.0220 C   0  0  1  0  0  0  0  0  0  0  0  0
   47.0020   32.7220   47.3060 C   0  0  0  0  0  0  0  0  0  0  0  0
   45.5150   32.5490   47.2930 C   0  0  1  0  0  0  0  0  0  0  0  0
   44.7820   33.7920   47.5810 N   0  0  0  0  0  0  0  0  0  0  0  0
   47.3820   34.9190   41.9710 C   0  0  0  0  0  0  0  0  0  0  0  0
   48.4070   35.6990   41.9490 O   0  0  0  0  0  0  0  0  0  0  0  0
   47.2570   34.3720   40.5980 C   0  0  0  0  0  0  0  0  0  0  0  0
   48.2690   34.6720   39.6600 C   0  0  0  0  0  0  0  0  0  0  0  0
   48.1530   34.1630   38.3600 C   0  0  0  0  0  0  0  0  0  0  0  0
   47.0660   33.3700   37.9530 C   0  0  0  0  0  0  0  0  0  0  0  0
   46.1230   33.1150   38.8890 C   0  0  0  0  0  0  0  0  0  0  0  0
   46.2070   33.5910   40.1530 C   0  0  0  0  0  0  0  0  0  0  0  0
   45.3840   36.4681   42.6371 H   0  0  0  0  0  0  0  0  0  0  0  0
   43.9381   36.1692   44.7036 H   0  0  0  0  0  0  0  0  0  0  0  0
   46.3757   31.6584   45.2384 H   0  0  0  0  0  0  0  0  0  0  0  0
   47.6444   31.9563   47.7655 H   0  0  0  0  0  0  0  0  0  0  0  0
   47.6988   33.5028   47.6448 H   0  0  0  0  0  0  0  0  0  0  0  0
   44.7736   31.8993   47.7811 H   0  0  0  0  0  0  0  0  0  0  0  0
   44.7075   33.9183   48.6005 H   0  0  0  0  0  0  0  0  0  0  0  0
   45.2871   34.5911   47.1720 H   0  0  0  0  0  0  0  0  0  0  0  0
   48.0308   34.0741   42.2452 H   0  0  0  0  0  0  0  0  0  0  0  0
   48.6823   35.9085   42.8766 H   0  0  0  0  0  0  0  0  0  0  0  0
   49.1312   35.2930   39.9444 H   0  0  0  0  0  0  0  0  0  0  0  0
   48.9428   34.3927   37.6297 H   0  0  0  0  0  0  0  0  0  0  0  0
   46.9864   32.9778   36.9284 H   0  0  0  0  0  0  0  0  0  0  0  0
   45.2556   32.4977   38.6123 H   0  0  0  0  0  0  0  0  0  0  0  0
   45.4012   33.3446   40.8601 H   0  0  0  0  0  0  0  0  0  0  0  0
  1  2  2  0
  1  6  1  0
  2  3  1  0
  3  4  2  0
  5  4  1  0
  5  7  1  0
  6  5  2  0
  7  9  1  0
  7  8  1  0
  9  8  1  0
  9 10  1  0
 11 12  1  0
 11  1  1  0
 13 11  1  0
 14 13  2  0
 15 14  1  0
 16 15  2  0
 16 17  1  0
 17 18  2  0
 18 13  1  0
  2 19  1  0
  3 20  1  0
  7 21  1  6
  8 22  1  0
  8 23  1  0
  9 24  1  1
 10 25  1  0
 10 26  1  0
 11 27  1  0
 12 28  1  0
 14 29  1  0
 15 30  1  0
 16 31  1  0
 17 32  1  0
 18 33  1  0
M  ISO  8  19  14  20  14  21  13  22  13  23  13  24  13  25   5  26   5
M  ISO  7  27   8  28   3  29  14  30  14  31  14  32  14  33  14
M  END
>  <minimizedAffinity>  (1) 
-5.97816324

>  <minimizedRMSD>  (1) 
0.857370794

$$$$
