
     RDKit          3D

 24 25  0  0  0  0  0  0  0  0999 V2000
   44.2690   35.9640   44.4030 C   0  0  0  0  0  0  0  0  0  0  0  0
   44.2610   35.4060   43.0980 C   0  0  0  0  0  0  0  0  0  0  0  0
   44.8660   34.1580   42.9350 C   0  0  0  0  0  0  0  0  0  0  0  0
   45.4260   33.5410   44.0110 N   0  0  0  0  0  0  0  0  0  0  0  0
   45.4160   34.0950   45.2300 C   0  0  0  0  0  0  0  0  0  0  0  0
   44.8330   35.3140   45.4190 N   0  0  0  0  0  0  0  0  0  0  0  0
   46.8800   32.3220   45.9750 C   0  0  0  0  0  0  0  0  0  0  0  0
   47.1490   31.9450   44.8140 O   0  0  0  0  0  0  0  0  0  0  0  0
   46.0180   33.3990   46.3090 N   0  0  0  0  0  0  0  0  0  0  0  0
   47.5320   31.5640   47.0420 C   0  0  0  0  0  0  0  0  0  0  0  0
   47.9290   30.2510   46.7980 C   0  0  0  0  0  0  0  0  0  0  0  0
   48.5580   29.4340   47.7440 C   0  0  0  0  0  0  0  0  0  0  0  0
   48.8020   29.9620   48.9950 C   0  0  0  0  0  0  0  0  0  0  0  0
   48.4210   31.2570   49.2660 C   0  0  0  0  0  0  0  0  0  0  0  0
   47.8100   32.0170   48.3150 C   0  0  0  0  0  0  0  0  0  0  0  0
   43.8036   36.9454   44.5772 H   0  0  0  0  0  0  0  0  0  0  0  0
   43.7981   35.9340   42.2513 H   0  0  0  0  0  0  0  0  0  0  0  0
   44.8897   33.6779   41.9456 H   0  0  0  0  0  0  0  0  0  0  0  0
   45.8383   33.6625   47.2884 H   0  0  0  0  0  0  0  0  0  0  0  0
   47.7360   29.8306   45.8000 H   0  0  0  0  0  0  0  0  0  0  0  0
   48.8490   28.4022   47.4977 H   0  0  0  0  0  0  0  0  0  0  0  0
   49.2958   29.3547   49.7679 H   0  0  0  0  0  0  0  0  0  0  0  0
   48.6122   31.6828   50.2620 H   0  0  0  0  0  0  0  0  0  0  0  0
   47.5231   33.0464   48.5759 H   0  0  0  0  0  0  0  0  0  0  0  0
  1  6  2  0
  2  1  1  0
  3  2  2  0
  3  4  1  0
  4  5  2  0
  5  6  1  0
  5  9  1  0
  7  9  1  0
  7 10  1  0
  8  7  2  0
 10 15  1  0
 11 10  2  0
 11 12  1  0
 12 13  2  0
 13 14  1  0
 15 14  2  0
  1 16  1  0
  2 17  1  0
  3 18  1  0
  9 19  1  0
 11 20  1  0
 12 21  1  0
 13 22  1  0
 14 23  1  0
 15 24  1  0
M  ISO  8  16  14  17  14  18  14  20  14  21  14  22  14  23  14  24  14
M  END
>  <minimizedAffinity>  (1) 
-4.61816311

>  <minimizedRMSD>  (1) 
1.86753774

$$$$
