
     RDKit          3D

 31 32  0  0  0  0  0  0  0  0999 V2000
   48.0670   32.7230   41.8050 O   0  0  0  0  0  0  0  0  0  0  0  0
   47.0680   33.8130   41.3400 P   0  0  2  0  0  0  0  0  0  0  0  0
   45.5410   33.5110   42.0620 O   0  0  0  0  0  0  0  0  0  0  0  0
   44.3540   35.8950   44.5470 C   0  0  0  0  0  0  0  0  0  0  0  0
   44.6320   35.2970   43.2930 C   0  0  0  0  0  0  0  0  0  0  0  0
   45.2840   34.0600   43.2990 C   0  0  0  0  0  0  0  0  0  0  0  0
   45.6090   33.5080   44.4830 N   0  0  0  0  0  0  0  0  0  0  0  0
   45.3310   34.1010   45.6660 C   0  0  0  0  0  0  0  0  0  0  0  0
   44.7060   35.2900   45.7040 N   0  0  0  0  0  0  0  0  0  0  0  0
   46.9060   33.7290   39.6930 O   0  0  0  0  0  0  0  0  0  0  0  0
   45.8910   33.2340   38.9400 C   0  0  0  0  0  0  0  0  0  0  0  0
   46.2280   32.4830   37.8510 O   0  0  0  0  0  0  0  0  0  0  0  0
   44.4170   33.1150   38.7500 C   0  0  0  0  0  0  0  0  0  0  0  0
   43.9150   32.1120   38.0330 C   0  0  0  0  0  0  0  0  0  0  0  0
   42.5160   32.0270   37.9170 C   0  0  0  0  0  0  0  0  0  0  0  0
   41.6690   32.9270   38.5050 C   0  0  0  0  0  0  0  0  0  0  0  0
   42.1080   33.9840   39.2560 C   0  0  0  0  0  0  0  0  0  0  0  0
   43.4710   33.9930   39.3180 C   0  0  0  0  0  0  0  0  0  0  0  0
   47.6420   35.2620   41.9070 O   0  0  0  0  0  0  0  0  0  0  0  0
   48.8890   35.5790   41.3890 C   0  0  0  0  0  0  0  0  0  0  0  0
   49.3160   36.8400   41.7740 F   0  0  0  0  0  0  0  0  0  0  0  0
   49.7890   34.6070   41.6870 F   0  0  0  0  0  0  0  0  0  0  0  0
   48.7300   35.6270   40.0080 F   0  0  0  0  0  0  0  0  0  0  0  0
   43.8429   36.8685   44.5800 H   0  0  0  0  0  0  0  0  0  0  0  0
   44.3459   35.7871   42.3507 H   0  0  0  0  0  0  0  0  0  0  0  0
   45.6189   33.6059   46.6052 H   0  0  0  0  0  0  0  0  0  0  0  0
   44.5719   31.3750   37.5479 H   0  0  0  0  0  0  0  0  0  0  0  0
   42.0847   31.2031   37.3294 H   0  0  0  0  0  0  0  0  0  0  0  0
   40.5856   32.7949   38.3678 H   0  0  0  0  0  0  0  0  0  0  0  0
   41.4535   34.7228   39.7416 H   0  0  0  0  0  0  0  0  0  0  0  0
   43.9010   34.8176   39.9054 H   0  0  0  0  0  0  0  0  0  0  0  0
  2  1  2  0
  2 19  1  0
  2  3  1  0
  3  6  1  0
  4  9  2  0
  5  6  2  0
  5  4  1  0
  6  7  1  0
  7  8  2  0
  8  9  1  0
 10  2  1  0
 11 10  1  0
 12 11  2  0
 13 11  1  0
 13 18  1  0
 14 13  2  0
 15 14  1  0
 15 16  2  0
 16 17  1  0
 17 18  2  0
 20 22  1  0
 20 21  1  0
 20 19  1  0
 23 20  1  0
  4 24  1  0
  5 25  1  0
  8 26  1  0
 14 27  1  0
 15 28  1  0
 16 29  1  0
 17 30  1  0
 18 31  1  0
M  ISO  8  24  14  25  14  26  14  27  14  28  14  29  14  30  14  31  14
M  END
>  <minimizedAffinity>  (1) 
-5.28129435

>  <minimizedRMSD>  (1) 
2.17889524

$$$$
