
     RDKit          3D

 26 27  0  0  0  0  0  0  0  0999 V2000
   42.6950   34.6620   40.8940 C   0  0  0  0  0  0  0  0  0  0  0  0
   41.9090   35.6220   40.6300 O   0  0  0  0  0  0  0  0  0  0  0  0
   42.1650   33.3890   40.5380 N   0  0  0  0  0  0  0  0  0  0  0  0
   44.0040   34.8670   41.5020 C   0  0  0  0  0  0  0  0  0  0  0  0
   45.0710   34.2670   40.8670 C   0  0  0  0  0  0  0  0  0  0  0  0
   46.3280   34.4370   41.4120 C   0  0  0  0  0  0  0  0  0  0  0  0
   46.4640   35.2030   42.5710 C   0  0  0  0  0  0  0  0  0  0  0  0
   45.3650   35.7850   43.1730 C   0  0  0  0  0  0  0  0  0  0  0  0
   44.0910   35.6280   42.6440 C   0  0  0  0  0  0  0  0  0  0  0  0
   40.8400   33.5910   39.9960 C   0  0  0  0  0  0  0  0  0  0  0  0
   39.6780   33.6750   40.7440 C   0  0  0  0  0  0  0  0  0  0  0  0
   38.4840   33.8730   40.0560 C   0  0  0  0  0  0  0  0  0  0  0  0
   38.5530   33.9660   38.7240 N   0  0  0  0  0  0  0  0  0  0  0  0
   39.7000   33.8800   38.0120 C   0  0  0  0  0  0  0  0  0  0  0  0
   40.8590   33.6910   38.6580 N   0  0  0  0  0  0  0  0  0  0  0  0
   39.8140   33.5500   42.1610 N   0  0  0  0  0  0  0  0  0  0  0  0
   42.6422   32.4828   40.6475 H   0  0  0  0  0  0  0  0  0  0  0  0
   44.9250   33.6711   39.9540 H   0  0  0  0  0  0  0  0  0  0  0  0
   47.2084   33.9761   40.9404 H   0  0  0  0  0  0  0  0  0  0  0  0
   47.4617   35.3455   43.0119 H   0  0  0  0  0  0  0  0  0  0  0  0
   45.5017   36.3825   44.0864 H   0  0  0  0  0  0  0  0  0  0  0  0
   43.2053   36.0845   43.1100 H   0  0  0  0  0  0  0  0  0  0  0  0
   37.5234   33.9498   40.5864 H   0  0  0  0  0  0  0  0  0  0  0  0
   39.6817   33.9642   36.9154 H   0  0  0  0  0  0  0  0  0  0  0  0
   38.9816   33.6050   42.7651 H   0  0  0  0  0  0  0  0  0  0  0  0
   40.7445   33.4049   42.5783 H   0  0  0  0  0  0  0  0  0  0  0  0
  1  4  1  0
  2  1  2  0
  3  1  1  0
  4  9  2  0
  5  6  2  0
  5  4  1  0
  6  7  1  0
  7  8  2  0
  9  8  1  0
 10  3  1  0
 10 11  2  0
 11 16  1  0
 12 11  1  0
 13 12  2  0
 14 15  2  0
 14 13  1  0
 15 10  1  0
  3 17  1  0
  5 18  1  0
  6 19  1  0
  7 20  1  0
  8 21  1  0
  9 22  1  0
 12 23  1  0
 14 24  1  0
 16 25  1  0
 16 26  1  0
M  ISO  7  18  14  19  14  20  14  21  14  22  14  23  14  24  14
M  END
>  <minimizedAffinity>  (1) 
-5.22122145

>  <minimizedRMSD>  (1) 
6.50607347

$$$$
