
     RDKit          3D

 27 28  0  0  0  0  0  0  0  0999 V2000
   45.4430   39.6190   43.5440 C   0  0  0  0  0  0  0  0  0  0  0  0
   45.0510   40.3790   44.7550 C   0  0  0  0  0  0  0  0  0  0  0  0
   44.5390   41.6630   44.5950 C   0  0  0  0  0  0  0  0  0  0  0  0
   44.1290   42.5040   45.6060 C   0  0  0  0  0  0  0  0  0  0  0  0
   44.2420   42.0160   46.8920 C   0  0  0  0  0  0  0  0  0  0  0  0
   44.7450   40.7480   47.1110 C   0  0  0  0  0  0  0  0  0  0  0  0
   45.1420   39.9430   46.0600 C   0  0  0  0  0  0  0  0  0  0  0  0
   44.9520   37.2250   43.2310 C   0  0  0  0  0  0  0  0  0  0  0  0
   45.5560   38.1860   43.8950 C   0  0  0  0  0  0  0  0  0  0  0  0
   45.1410   35.8500   43.6750 C   0  0  0  0  0  0  0  0  0  0  0  0
   45.5310   34.8800   42.7260 C   0  0  0  0  0  0  0  0  0  0  0  0
   45.7110   33.5560   43.1620 C   0  0  0  0  0  0  0  0  0  0  0  0
   45.5020   33.2750   44.4660 N   0  0  0  0  0  0  0  0  0  0  0  0
   45.1250   34.2340   45.3580 C   0  0  0  0  0  0  0  0  0  0  0  0
   44.9530   35.4910   44.9520 N   0  0  0  0  0  0  0  0  0  0  0  0
   46.4118   39.9865   43.1746 H   0  0  0  0  0  0  0  0  0  0  0  0
   44.6851   39.7522   42.7580 H   0  0  0  0  0  0  0  0  0  0  0  0
   44.4538   42.0415   43.5657 H   0  0  0  0  0  0  0  0  0  0  0  0
   43.7332   43.5094   45.3997 H   0  0  0  0  0  0  0  0  0  0  0  0
   43.9310   42.6379   47.7444 H   0  0  0  0  0  0  0  0  0  0  0  0
   44.8311   40.3721   48.1412 H   0  0  0  0  0  0  0  0  0  0  0  0
   45.5372   38.9377   46.2680 H   0  0  0  0  0  0  0  0  0  0  0  0
   44.3190   37.4537   42.3609 H   0  0  0  0  0  0  0  0  0  0  0  0
   46.1791   37.9096   44.7583 H   0  0  0  0  0  0  0  0  0  0  0  0
   45.6899   35.1535   41.6725 H   0  0  0  0  0  0  0  0  0  0  0  0
   46.0149   32.7676   42.4577 H   0  0  0  0  0  0  0  0  0  0  0  0
   44.9627   33.9700   46.4134 H   0  0  0  0  0  0  0  0  0  0  0  0
  1  9  1  0
  1  2  1  0
  2  7  1  0
  3  2  2  0
  3  4  1  0
  4  5  2  0
  5  6  1  0
  7  6  2  0
  8 10  1  0
  8  9  2  0
 10 15  2  0
 11 12  2  0
 11 10  1  0
 12 13  1  0
 13 14  2  0
 15 14  1  0
  1 16  1  0
  1 17  1  0
  3 18  1  0
  4 19  1  0
  5 20  1  0
  6 21  1  0
  7 22  1  0
  8 23  1  0
  9 24  1  0
 11 25  1  0
 12 26  1  0
 14 27  1  0
M  ISO  8  16   8  17   8  18  14  19  14  20  14  21  14  22  14  25  14
M  ISO  2  26  14  27  14
M  END
>  <minimizedAffinity>  (1) 
-3.26347637

>  <minimizedRMSD>  (1) 
2.09124541

$$$$
