
     RDKit          3D

 36 38  0  0  1  0  0  0  0  0999 V2000
   45.1800   34.9120   43.3960 C   0  0  0  0  0  0  0  0  0  0  0  0
   46.3290   34.2310   42.9850 C   0  0  0  0  0  0  0  0  0  0  0  0
   47.0550   33.5010   43.9200 C   0  0  0  0  0  0  0  0  0  0  0  0
   46.6150   33.4820   45.1880 N   0  0  0  0  0  0  0  0  0  0  0  0
   45.4940   34.1520   45.5660 C   0  0  0  0  0  0  0  0  0  0  0  0
   44.7850   34.8590   44.6780 N   0  0  0  0  0  0  0  0  0  0  0  0
   49.1470   33.6390   42.5810 C   0  0  2  0  0  0  0  0  0  0  0  0
   48.2550   32.8000   43.4510 C   0  0  2  0  0  0  0  0  0  0  0  0
   47.9810   31.7300   42.5740 O   0  0  0  0  0  0  0  0  0  0  0  0
   49.2310   31.3530   42.1250 C   0  0  0  0  0  0  0  0  0  0  0  0
   50.1490   32.5410   42.1740 C   0  0  1  0  0  0  0  0  0  0  0  0
   49.7300   34.6910   43.2430 O   0  0  0  0  0  0  0  0  0  0  0  0
   50.7150   32.8590   40.9590 O   0  0  0  0  0  0  0  0  0  0  0  0
   44.4010   35.7090   42.3810 C   0  0  0  0  0  0  0  0  0  0  0  0
   43.5430   34.8450   41.5350 C   0  0  0  0  0  0  0  0  0  0  0  0
   43.0430   35.4870   40.3970 C   0  0  0  0  0  0  0  0  0  0  0  0
   42.2320   34.8580   39.4900 C   0  0  0  0  0  0  0  0  0  0  0  0
   41.8910   33.5420   39.6960 C   0  0  0  0  0  0  0  0  0  0  0  0
   42.3770   32.9040   40.8120 C   0  0  0  0  0  0  0  0  0  0  0  0
   43.1920   33.5250   41.7280 C   0  0  0  0  0  0  0  0  0  0  0  0
   46.6551   34.2718   41.9352 H   0  0  0  0  0  0  0  0  0  0  0  0
   45.1656   34.1125   46.6151 H   0  0  0  0  0  0  0  0  0  0  0  0
   48.6474   34.1632   41.7529 H   0  0  0  0  0  0  0  0  0  0  0  0
   48.7089   32.4988   44.4066 H   0  0  0  0  0  0  0  0  0  0  0  0
   49.1561   30.9876   41.0902 H   0  0  0  0  0  0  0  0  0  0  0  0
   49.6283   30.5507   42.7641 H   0  0  0  0  0  0  0  0  0  0  0  0
   51.0140   32.3860   42.8357 H   0  0  0  0  0  0  0  0  0  0  0  0
   49.6520   34.5502   44.2198 H   0  0  0  0  0  0  0  0  0  0  0  0
   51.5683   33.3384   41.1078 H   0  0  0  0  0  0  0  0  0  0  0  0
   43.7637   36.4323   42.9108 H   0  0  0  0  0  0  0  0  0  0  0  0
   45.1214   36.2189   41.7245 H   0  0  0  0  0  0  0  0  0  0  0  0
   43.3120   36.5394   40.2236 H   0  0  0  0  0  0  0  0  0  0  0  0
   41.8582   35.3988   38.6080 H   0  0  0  0  0  0  0  0  0  0  0  0
   41.2431   33.0113   38.9829 H   0  0  0  0  0  0  0  0  0  0  0  0
   42.1021   31.8521   40.9792 H   0  0  0  0  0  0  0  0  0  0  0  0
   43.5607   32.9749   42.6063 H   0  0  0  0  0  0  0  0  0  0  0  0
  1  6  1  0
  2  1  2  0
  2  3  1  0
  3  4  2  0
  4  5  1  0
  6  5  2  0
  7 12  1  0
  7  8  1  0
  8  3  1  0
  9  8  1  0
 10 11  1  0
 10  9  1  0
 11  7  1  0
 13 11  1  0
 14  1  1  0
 15 20  1  0
 15 14  1  0
 16 15  2  0
 17 18  2  0
 17 16  1  0
 18 19  1  0
 19 20  2  0
  2 21  1  0
  5 22  1  0
  7 23  1  6
  8 24  1  1
 10 25  1  0
 10 26  1  0
 11 27  1  1
 12 28  1  0
 13 29  1  0
 14 30  1  0
 14 31  1  0
 16 32  1  0
 17 33  1  0
 18 34  1  0
 19 35  1  0
 20 36  1  0
M  ISO  8  21  14  22  14  23  13  24  13  25  13  26  13  27  13  28   3
M  ISO  8  29   3  30   8  31   8  32  14  33  14  34  14  35  14  36  14
M  END
>  <minimizedAffinity>  (1) 
-5.2810235

>  <minimizedRMSD>  (1) 
3.57843089

$$$$
