
     RDKit          3D

 32 34  0  0  1  0  0  0  0  0999 V2000
   46.5210   35.0230   42.0090 C   0  0  1  0  0  0  0  0  0  0  0  0
   48.0420   35.3440   41.9410 C   0  0  0  0  0  0  0  0  0  0  0  0
   47.3220   34.1200   41.2940 C   0  0  2  0  0  0  0  0  0  0  0  0
   44.7970   35.0460   45.3420 C   0  0  0  0  0  0  0  0  0  0  0  0
   45.1480   35.4660   44.0140 C   0  0  0  0  0  0  0  0  0  0  0  0
   46.1150   34.7170   43.4300 C   0  0  0  0  0  0  0  0  0  0  0  0
   46.7100   33.6460   44.0610 N   0  0  0  0  0  0  0  0  0  0  0  0
   46.3460   33.2880   45.3130 C   0  0  0  0  0  0  0  0  0  0  0  0
   45.3830   33.9950   45.9560 N   0  0  0  0  0  0  0  0  0  0  0  0
   44.5600   36.5730   43.3850 N   0  0  0  0  0  0  0  0  0  0  0  0
   47.2760   34.0200   39.7880 C   0  0  0  0  0  0  0  0  0  0  0  0
   48.3730   33.1780   39.2360 C   0  0  0  0  0  0  0  0  0  0  0  0
   48.6180   33.2330   37.8660 C   0  0  0  0  0  0  0  0  0  0  0  0
   49.6430   32.4360   37.3930 C   0  0  0  0  0  0  0  0  0  0  0  0
   50.4060   31.6120   38.2190 C   0  0  0  0  0  0  0  0  0  0  0  0
   50.1150   31.6030   39.5580 C   0  0  0  0  0  0  0  0  0  0  0  0
   49.1020   32.3820   40.0660 C   0  0  0  0  0  0  0  0  0  0  0  0
   45.5716   35.4980   41.7209 H   0  0  0  0  0  0  0  0  0  0  0  0
   48.4198   36.1716   41.3227 H   0  0  0  0  0  0  0  0  0  0  0  0
   48.8682   35.5237   42.6447 H   0  0  0  0  0  0  0  0  0  0  0  0
   47.4343   33.0273   41.3526 H   0  0  0  0  0  0  0  0  0  0  0  0
   44.0178   35.6039   45.8821 H   0  0  0  0  0  0  0  0  0  0  0  0
   46.8268   32.4304   45.8063 H   0  0  0  0  0  0  0  0  0  0  0  0
   44.8455   36.8348   42.4306 H   0  0  0  0  0  0  0  0  0  0  0  0
   43.8427   37.1242   43.8774 H   0  0  0  0  0  0  0  0  0  0  0  0
   46.3119   33.5799   39.4935 H   0  0  0  0  0  0  0  0  0  0  0  0
   47.3994   35.0352   39.3829 H   0  0  0  0  0  0  0  0  0  0  0  0
   48.0275   33.8760   37.1968 H   0  0  0  0  0  0  0  0  0  0  0  0
   49.8670   32.4525   36.3162 H   0  0  0  0  0  0  0  0  0  0  0  0
   51.2151   30.9895   37.8093 H   0  0  0  0  0  0  0  0  0  0  0  0
   50.6998   30.9638   40.2359 H   0  0  0  0  0  0  0  0  0  0  0  0
   48.8806   32.3621   41.1433 H   0  0  0  0  0  0  0  0  0  0  0  0
  1  6  1  0
  2  1  1  0
  3  2  1  0
  3  1  1  0
  4  9  2  0
  5  4  1  0
  6  5  2  0
  6  7  1  0
  7  8  2  0
  8  9  1  0
 10  5  1  0
 11  3  1  0
 12 11  1  0
 12 17  1  0
 13 12  2  0
 14 13  1  0
 14 15  2  0
 15 16  1  0
 16 17  2  0
  1 18  1  6
  2 19  1  0
  2 20  1  0
  3 21  1  1
  4 22  1  0
  8 23  1  0
 10 24  1  0
 10 25  1  0
 11 26  1  0
 11 27  1  0
 13 28  1  0
 14 29  1  0
 15 30  1  0
 16 31  1  0
 17 32  1  0
M  ISO  8  18  13  19  13  20  13  21  13  22  14  23  14  26   8  27   8
M  ISO  5  28  14  29  14  30  14  31  14  32  14
M  END
>  <minimizedAffinity>  (1) 
-4.89392471

>  <minimizedRMSD>  (1) 
0.719133556

$$$$
