
     RDKit          3D

 24 25  0  0  0  0  0  0  0  0999 V2000
   44.5910   35.6370   45.0420 C   0  0  0  0  0  0  0  0  0  0  0  0
   45.3610   35.1910   43.9760 C   0  0  0  0  0  0  0  0  0  0  0  0
   46.0650   33.9980   44.1580 C   0  0  0  0  0  0  0  0  0  0  0  0
   45.9690   33.3450   45.3310 N   0  0  0  0  0  0  0  0  0  0  0  0
   45.2090   33.8110   46.3440 C   0  0  0  0  0  0  0  0  0  0  0  0
   44.5200   34.9510   46.2100 N   0  0  0  0  0  0  0  0  0  0  0  0
   45.3680   36.0250   42.7360 C   0  0  0  0  0  0  0  0  0  0  0  0
   45.3050   37.3250   43.1620 F   0  0  0  0  0  0  0  0  0  0  0  0
   44.2440   35.6770   42.0010 F   0  0  0  0  0  0  0  0  0  0  0  0
   46.5230   35.7250   42.0430 F   0  0  0  0  0  0  0  0  0  0  0  0
   45.1110   33.1390   47.5500 O   0  0  0  0  0  0  0  0  0  0  0  0
   46.0440   32.1150   47.7820 C   0  0  0  0  0  0  0  0  0  0  0  0
   45.4970   30.8620   47.5890 C   0  0  0  0  0  0  0  0  0  0  0  0
   46.3150   29.7560   47.7860 C   0  0  0  0  0  0  0  0  0  0  0  0
   47.6410   29.9300   48.1660 C   0  0  0  0  0  0  0  0  0  0  0  0
   48.1530   31.1820   48.3500 C   0  0  0  0  0  0  0  0  0  0  0  0
   47.3520   32.2790   48.1580 C   0  0  0  0  0  0  0  0  0  0  0  0
   44.0227   36.5729   44.9363 H   0  0  0  0  0  0  0  0  0  0  0  0
   46.6926   33.5957   43.3492 H   0  0  0  0  0  0  0  0  0  0  0  0
   44.4456   30.7428   47.2884 H   0  0  0  0  0  0  0  0  0  0  0  0
   45.9132   28.7423   47.6412 H   0  0  0  0  0  0  0  0  0  0  0  0
   48.2836   29.0506   48.3198 H   0  0  0  0  0  0  0  0  0  0  0  0
   49.2032   31.3107   48.6509 H   0  0  0  0  0  0  0  0  0  0  0  0
   47.7592   33.2901   48.3057 H   0  0  0  0  0  0  0  0  0  0  0  0
  1  6  2  0
  2  3  2  0
  2  1  1  0
  3  4  1  0
  4  5  2  0
  5 11  1  0
  6  5  1  0
  7  8  1  0
  7  2  1  0
  9  7  1  0
 10  7  1  0
 11 12  1  0
 12 17  1  0
 13 12  2  0
 13 14  1  0
 14 15  2  0
 15 16  1  0
 17 16  2  0
  1 18  1  0
  3 19  1  0
 13 20  1  0
 14 21  1  0
 15 22  1  0
 16 23  1  0
 17 24  1  0
M  ISO  7  18  14  19  14  20  14  21  14  22  14  23  14  24  14
M  END
>  <minimizedAffinity>  (1) 
-5.10127544

>  <minimizedRMSD>  (1) 
1.11732531

$$$$
