
     RDKit          3D

 43 47  0  0  0  0  0  0  0  0999 V2000
   44.5010   35.5630   44.7520 C   0  0  0  0  0  0  0  0  0  0  0  0
   44.5300   35.1700   43.4140 C   0  0  0  0  0  0  0  0  0  0  0  0
   45.1230   33.9220   43.1070 C   0  0  0  0  0  0  0  0  0  0  0  0
   45.6240   33.1830   44.1090 N   0  0  0  0  0  0  0  0  0  0  0  0
   45.5860   33.5810   45.3930 C   0  0  0  0  0  0  0  0  0  0  0  0
   45.0110   34.7940   45.7010 N   0  0  0  0  0  0  0  0  0  0  0  0
   46.1110   32.8280   46.5250 C   0  0  0  0  0  0  0  0  0  0  0  0
   45.4220   32.7560   47.7380 C   0  0  0  0  0  0  0  0  0  0  0  0
   46.1990   31.9640   48.5910 C   0  0  0  0  0  0  0  0  0  0  0  0
   47.2910   31.5990   47.8870 N   0  0  0  0  0  0  0  0  0  0  0  0
   47.2260   32.1200   46.6580 N   0  0  0  0  0  0  0  0  0  0  0  0
   48.2460   30.7860   48.5250 C   0  0  0  0  0  0  0  0  0  0  0  0
   48.5140   29.5240   48.0060 C   0  0  0  0  0  0  0  0  0  0  0  0
   49.4550   28.6770   48.6000 C   0  0  0  0  0  0  0  0  0  0  0  0
   50.1120   29.1510   49.7380 C   0  0  0  0  0  0  0  0  0  0  0  0
   49.8580   30.4040   50.2720 C   0  0  0  0  0  0  0  0  0  0  0  0
   48.9150   31.2200   49.6500 C   0  0  0  0  0  0  0  0  0  0  0  0
   44.0220   35.9110   42.3640 O   0  0  0  0  0  0  0  0  0  0  0  0
   43.2990   35.3930   41.3050 C   0  0  0  0  0  0  0  0  0  0  0  0
   43.8180   34.7850   40.1780 C   0  0  0  0  0  0  0  0  0  0  0  0
   42.9760   34.3170   39.2040 C   0  0  0  0  0  0  0  0  0  0  0  0
   41.5910   34.4270   39.3020 C   0  0  0  0  0  0  0  0  0  0  0  0
   40.8400   33.9460   38.3110 N   0  0  0  0  0  0  0  0  0  0  0  0
   39.4930   34.0330   38.3670 C   0  0  0  0  0  0  0  0  0  0  0  0
   38.9350   34.6350   39.4810 C   0  0  0  0  0  0  0  0  0  0  0  0
   39.7290   35.1410   40.5230 C   0  0  0  0  0  0  0  0  0  0  0  0
   41.1000   35.0300   40.4220 C   0  0  0  0  0  0  0  0  0  0  0  0
   41.9280   35.5200   41.4350 C   0  0  0  0  0  0  0  0  0  0  0  0
   44.0470   36.5276   45.0229 H   0  0  0  0  0  0  0  0  0  0  0  0
   45.1722   33.5649   42.0677 H   0  0  0  0  0  0  0  0  0  0  0  0
   44.4579   33.2290   47.9760 H   0  0  0  0  0  0  0  0  0  0  0  0
   45.9655   31.6923   49.6310 H   0  0  0  0  0  0  0  0  0  0  0  0
   47.9745   29.1848   47.1094 H   0  0  0  0  0  0  0  0  0  0  0  0
   49.6688   27.6795   48.1884 H   0  0  0  0  0  0  0  0  0  0  0  0
   50.8573   28.5068   50.2274 H   0  0  0  0  0  0  0  0  0  0  0  0
   50.3910   30.7484   51.1705 H   0  0  0  0  0  0  0  0  0  0  0  0
   48.7026   32.2185   50.0598 H   0  0  0  0  0  0  0  0  0  0  0  0
   44.9066   34.6768   40.0630 H   0  0  0  0  0  0  0  0  0  0  0  0
   43.4088   33.8377   38.3135 H   0  0  0  0  0  0  0  0  0  0  0  0
   38.8624   33.6394   37.5561 H   0  0  0  0  0  0  0  0  0  0  0  0
   37.8406   34.7195   39.5523 H   0  0  0  0  0  0  0  0  0  0  0  0
   39.2672   35.6159   41.4012 H   0  0  0  0  0  0  0  0  0  0  0  0
   41.4950   36.0007   42.3246 H   0  0  0  0  0  0  0  0  0  0  0  0
  1  6  2  0
  2  1  1  0
  3  2  2  0
  3  4  1  0
  4  5  2  0
  5  6  1  0
  5  7  1  0
  7 11  2  0
  7  8  1  0
  8  9  2  0
 10 12  1  0
 10  9  1  0
 11 10  1  0
 12 17  1  0
 13 12  2  0
 13 14  1  0
 14 15  2  0
 15 16  1  0
 17 16  2  0
 18  2  1  0
 19 28  1  0
 19 18  1  0
 20 19  2  0
 21 22  2  0
 21 20  1  0
 22 27  1  0
 23 24  2  0
 23 22  1  0
 24 25  1  0
 25 26  2  0
 27 26  1  0
 27 28  2  0
  1 29  1  0
  3 30  1  0
  8 31  1  0
  9 32  1  0
 13 33  1  0
 14 34  1  0
 15 35  1  0
 16 36  1  0
 17 37  1  0
 20 38  1  0
 21 39  1  0
 24 40  1  0
 25 41  1  0
 26 42  1  0
 28 43  1  0
M  END
>  <minimizedAffinity>  (1) 
-7.46006012

>  <minimizedRMSD>  (1) 
1.69193995

$$$$
