
     RDKit          3D

 26 27  0  0  0  0  0  0  0  0999 V2000
   43.8560   33.6040   40.6350 C   0  0  0  0  0  0  0  0  0  0  0  0
   40.3780   34.8020   41.4780 C   0  0  0  0  0  0  0  0  0  0  0  0
   41.7470   34.8310   41.1060 C   0  0  0  0  0  0  0  0  0  0  0  0
   42.4260   33.6160   41.0210 C   0  0  0  0  0  0  0  0  0  0  0  0
   41.7220   32.4710   41.3040 N   0  0  0  0  0  0  0  0  0  0  0  0
   40.4330   32.4860   41.6510 C   0  0  0  0  0  0  0  0  0  0  0  0
   39.7550   33.6470   41.7400 N   0  0  0  0  0  0  0  0  0  0  0  0
   44.6790   34.0370   41.8400 C   0  0  0  0  0  0  0  0  0  0  0  0
   46.0510   34.3820   41.4400 C   0  0  0  0  0  0  0  0  0  0  0  0
   46.6380   34.0310   40.2430 C   0  0  0  0  0  0  0  0  0  0  0  0
   47.9250   34.3550   39.8680 C   0  0  0  0  0  0  0  0  0  0  0  0
   48.6660   35.0980   40.7950 C   0  0  0  0  0  0  0  0  0  0  0  0
   48.1040   35.4660   42.0070 C   0  0  0  0  0  0  0  0  0  0  0  0
   46.8170   35.1230   42.3460 C   0  0  0  0  0  0  0  0  0  0  0  0
   44.1502   32.5893   40.3286 H   0  0  0  0  0  0  0  0  0  0  0  0
   44.0273   34.2900   39.7923 H   0  0  0  0  0  0  0  0  0  0  0  0
   39.8186   35.7462   41.5524 H   0  0  0  0  0  0  0  0  0  0  0  0
   42.2566   35.7819   40.8914 H   0  0  0  0  0  0  0  0  0  0  0  0
   39.9178   31.5384   41.8670 H   0  0  0  0  0  0  0  0  0  0  0  0
   44.2064   34.9163   42.3020 H   0  0  0  0  0  0  0  0  0  0  0  0
   44.7203   33.2031   42.5561 H   0  0  0  0  0  0  0  0  0  0  0  0
   46.0336   33.4479   39.5326 H   0  0  0  0  0  0  0  0  0  0  0  0
   48.3443   34.0480   38.8985 H   0  0  0  0  0  0  0  0  0  0  0  0
   49.6998   35.3912   40.5599 H   0  0  0  0  0  0  0  0  0  0  0  0
   48.7058   36.0500   42.7189 H   0  0  0  0  0  0  0  0  0  0  0  0
   46.3955   35.4267   43.3156 H   0  0  0  0  0  0  0  0  0  0  0  0
  1  4  1  0
  1  8  1  0
  2  7  2  0
  3  2  1  0
  4  3  2  0
  4  5  1  0
  5  6  2  0
  6  7  1  0
  9  8  1  0
  9 14  1  0
 10  9  2  0
 11 10  1  0
 11 12  2  0
 12 13  1  0
 13 14  2  0
  1 15  1  0
  1 16  1  0
  2 17  1  0
  3 18  1  0
  6 19  1  0
  8 20  1  0
  8 21  1  0
 10 22  1  0
 11 23  1  0
 12 24  1  0
 13 25  1  0
 14 26  1  0
M  ISO  8  15   8  16   8  17  14  18  14  19  14  20   8  21   8  22  14
M  ISO  4  23  14  24  14  25  14  26  14
M  END
>  <minimizedAffinity>  (1) 
-4.25743055

>  <minimizedRMSD>  (1) 
4.33920145

$$$$
