
     RDKit          3D

 29 30  0  0  0  0  0  0  0  0999 V2000
   49.9050   33.0580   41.4770 O   0  0  0  0  0  0  0  0  0  0  0  0
   49.1500   34.0820   42.2700 P   0  0  2  0  0  0  0  0  0  0  0  0
   50.1830   35.2100   43.0080 O   0  0  0  0  0  0  0  0  0  0  0  0
   48.2980   33.3250   43.5180 O   0  0  0  0  0  0  0  0  0  0  0  0
   46.9580   33.2670   43.1020 C   0  0  0  0  0  0  0  0  0  0  0  0
   45.0510   34.3220   46.1230 C   0  0  0  0  0  0  0  0  0  0  0  0
   45.8820   33.5720   45.2900 C   0  0  0  0  0  0  0  0  0  0  0  0
   46.0990   34.0160   44.0060 C   0  0  0  0  0  0  0  0  0  0  0  0
   45.4880   35.1880   43.5920 N   0  0  0  0  0  0  0  0  0  0  0  0
   44.6830   35.8870   44.4430 C   0  0  0  0  0  0  0  0  0  0  0  0
   44.4700   35.4650   45.6810 N   0  0  0  0  0  0  0  0  0  0  0  0
   48.0640   34.8750   41.2670 O   0  0  0  0  0  0  0  0  0  0  0  0
   47.9670   34.5450   39.9240 C   0  0  0  0  0  0  0  0  0  0  0  0
   46.9190   33.6480   39.7260 C   0  0  0  0  0  0  0  0  0  0  0  0
   46.6230   33.1670   38.4460 C   0  0  0  0  0  0  0  0  0  0  0  0
   47.3790   33.5860   37.3720 C   0  0  0  0  0  0  0  0  0  0  0  0
   48.4280   34.4860   37.5880 C   0  0  0  0  0  0  0  0  0  0  0  0
   48.7170   34.9600   38.8500 C   0  0  0  0  0  0  0  0  0  0  0  0
   50.1098   35.1301   43.9920 H   0  0  0  0  0  0  0  0  0  0  0  0
   46.8762   33.6939   42.0915 H   0  0  0  0  0  0  0  0  0  0  0  0
   46.6358   32.2153   43.1030 H   0  0  0  0  0  0  0  0  0  0  0  0
   44.8646   33.9816   47.1522 H   0  0  0  0  0  0  0  0  0  0  0  0
   46.3532   32.6462   45.6519 H   0  0  0  0  0  0  0  0  0  0  0  0
   44.2037   36.8145   44.0965 H   0  0  0  0  0  0  0  0  0  0  0  0
   46.3182   33.3147   40.5851 H   0  0  0  0  0  0  0  0  0  0  0  0
   45.7935   32.4600   38.2977 H   0  0  0  0  0  0  0  0  0  0  0  0
   47.1603   33.2176   36.3589 H   0  0  0  0  0  0  0  0  0  0  0  0
   49.0343   34.8222   36.7340 H   0  0  0  0  0  0  0  0  0  0  0  0
   49.5456   35.6684   38.9967 H   0  0  0  0  0  0  0  0  0  0  0  0
  2  1  2  0
  2  3  1  0
  2  4  1  0
  5  4  1  0
  5  8  1  0
  7  6  2  0
  8  7  1  0
  9  8  2  0
  9 10  1  0
 10 11  2  0
 11  6  1  0
 12  2  1  0
 13 12  1  0
 14 13  2  0
 15 14  1  0
 16 17  1  0
 16 15  2  0
 17 18  2  0
 18 13  1  0
  3 19  1  0
  5 20  1  0
  5 21  1  0
  6 22  1  0
  7 23  1  0
 10 24  1  0
 14 25  1  0
 15 26  1  0
 16 27  1  0
 17 28  1  0
 18 29  1  0
M  ISO  8  19   3  20   8  21   8  22  14  23  14  24  14  25  14  26  14
M  ISO  3  27  14  28  14  29  14
M  END
>  <minimizedAffinity>  (1) 
-5.09010458

>  <minimizedRMSD>  (1) 
0.917295694

$$$$
