
     RDKit          3D

 33 35  0  0  0  0  0  0  0  0999 V2000
   47.2350   34.6690   42.0480 C   0  0  0  0  0  0  0  0  0  0  0  0
   47.6840   33.5740   42.7860 C   0  0  0  0  0  0  0  0  0  0  0  0
   49.0480   33.4900   43.0460 C   0  0  0  0  0  0  0  0  0  0  0  0
   49.8990   34.4530   42.5880 C   0  0  0  0  0  0  0  0  0  0  0  0
   49.4760   35.5350   41.8600 C   0  0  0  0  0  0  0  0  0  0  0  0
   48.1060   35.6000   41.6110 C   0  0  0  0  0  0  0  0  0  0  0  0
   43.5210   35.3230   42.2430 C   0  0  0  0  0  0  0  0  0  0  0  0
   44.8840   35.3410   42.5810 C   0  0  0  0  0  0  0  0  0  0  0  0
   45.8100   34.7060   41.7850 C   0  0  0  0  0  0  0  0  0  0  0  0
   45.2990   34.1010   40.7110 N   0  0  0  0  0  0  0  0  0  0  0  0
   44.0040   34.0620   40.3550 C   0  0  0  0  0  0  0  0  0  0  0  0
   43.1060   34.6880   41.1430 N   0  0  0  0  0  0  0  0  0  0  0  0
   46.7570   32.5320   43.2780 C   0  0  0  0  0  0  0  0  0  0  0  0
   46.4670   32.5170   44.7050 C   0  0  0  0  0  0  0  0  0  0  0  0
   46.8800   31.2860   45.2490 C   0  0  0  0  0  0  0  0  0  0  0  0
   46.7140   30.9440   46.5920 C   0  0  0  0  0  0  0  0  0  0  0  0
   46.1180   31.8420   47.4510 C   0  0  0  0  0  0  0  0  0  0  0  0
   45.6960   33.0610   46.9660 C   0  0  0  0  0  0  0  0  0  0  0  0
   45.8820   33.3510   45.6350 C   0  0  0  0  0  0  0  0  0  0  0  0
   49.4429   32.6418   43.6245 H   0  0  0  0  0  0  0  0  0  0  0  0
   50.9715   34.3571   42.8127 H   0  0  0  0  0  0  0  0  0  0  0  0
   50.1737   36.3033   41.4954 H   0  0  0  0  0  0  0  0  0  0  0  0
   47.7179   36.4504   41.0311 H   0  0  0  0  0  0  0  0  0  0  0  0
   42.7909   35.8345   42.8875 H   0  0  0  0  0  0  0  0  0  0  0  0
   45.2141   35.8668   43.4891 H   0  0  0  0  0  0  0  0  0  0  0  0
   43.6845   33.5334   39.4448 H   0  0  0  0  0  0  0  0  0  0  0  0
   45.8020   32.6621   42.7479 H   0  0  0  0  0  0  0  0  0  0  0  0
   47.2731   31.5801   43.0843 H   0  0  0  0  0  0  0  0  0  0  0  0
   47.3587   30.5553   44.5805 H   0  0  0  0  0  0  0  0  0  0  0  0
   47.0560   29.9660   46.9617 H   0  0  0  0  0  0  0  0  0  0  0  0
   45.9806   31.5884   48.5125 H   0  0  0  0  0  0  0  0  0  0  0  0
   45.2171   33.7917   47.6344 H   0  0  0  0  0  0  0  0  0  0  0  0
   45.5343   34.3328   45.2812 H   0  0  0  0  0  0  0  0  0  0  0  0
  1  2  1  0
  2  3  2  0
  2 13  1  0
  4  3  1  0
  5  4  2  0
  6  5  1  0
  6  1  2  0
  7  8  2  0
  9  1  1  0
  9  8  1  0
 10  9  2  0
 11 10  1  0
 11 12  2  0
 12  7  1  0
 13 14  1  0
 14 15  2  0
 14 19  1  0
 15 16  1  0
 16 17  2  0
 18 17  1  0
 19 18  2  0
  3 20  1  0
  4 21  1  0
  5 22  1  0
  6 23  1  0
  7 24  1  0
  8 25  1  0
 11 26  1  0
 13 27  1  0
 13 28  1  0
 15 29  1  0
 16 30  1  0
 17 31  1  0
 18 32  1  0
 19 33  1  0
M  ISO  8  20  14  21  14  22  14  23  14  24  14  25  14  26  14  27   8
M  ISO  6  28   8  29  14  30  14  31  14  32  14  33  14
M  END
>  <minimizedAffinity>  (1) 
-5.27197456

>  <minimizedRMSD>  (1) 
5.18850327

$$$$
