
     RDKit          3D

 31 32  0  0  0  0  0  0  0  0999 V2000
   45.8340   32.9120   46.3370 C   0  0  0  0  0  0  0  0  0  0  0  0
   45.2590   32.9180   47.5010 C   0  0  0  0  0  0  0  0  0  0  0  0
   44.5060   35.9430   44.7480 C   0  0  0  0  0  0  0  0  0  0  0  0
   45.2330   35.9780   43.5530 C   0  0  0  0  0  0  0  0  0  0  0  0
   46.1640   34.9830   43.2920 C   0  0  0  0  0  0  0  0  0  0  0  0
   46.3190   34.0130   44.2260 N   0  0  0  0  0  0  0  0  0  0  0  0
   45.6090   33.9990   45.3680 C   0  0  0  0  0  0  0  0  0  0  0  0
   44.7130   34.9480   45.6300 N   0  0  0  0  0  0  0  0  0  0  0  0
   46.9540   34.8810   42.1640 O   0  0  0  0  0  0  0  0  0  0  0  0
   46.3820   34.1830   41.0440 C   0  0  0  0  0  0  0  0  0  0  0  0
   45.1300   34.7160   40.7690 F   0  0  0  0  0  0  0  0  0  0  0  0
   47.2200   34.3990   39.9430 F   0  0  0  0  0  0  0  0  0  0  0  0
   46.3150   32.8190   41.2850 F   0  0  0  0  0  0  0  0  0  0  0  0
   45.4390   31.8560   48.5260 C   0  0  0  0  0  0  0  0  0  0  0  0
   46.7320   31.1530   48.3860 C   0  0  0  0  0  0  0  0  0  0  0  0
   47.9100   31.6330   48.9220 C   0  0  0  0  0  0  0  0  0  0  0  0
   49.1360   31.0110   48.8160 C   0  0  0  0  0  0  0  0  0  0  0  0
   49.1330   29.8140   48.1060 C   0  0  0  0  0  0  0  0  0  0  0  0
   48.0120   29.2510   47.5320 C   0  0  0  0  0  0  0  0  0  0  0  0
   46.8230   29.9450   47.6890 C   0  0  0  0  0  0  0  0  0  0  0  0
   46.5017   32.0798   46.0691 H   0  0  0  0  0  0  0  0  0  0  0  0
   44.5969   33.7620   47.7443 H   0  0  0  0  0  0  0  0  0  0  0  0
   43.7665   36.7275   44.9661 H   0  0  0  0  0  0  0  0  0  0  0  0
   45.0678   36.7874   42.8267 H   0  0  0  0  0  0  0  0  0  0  0  0
   45.3932   32.3164   49.5240 H   0  0  0  0  0  0  0  0  0  0  0  0
   44.6373   31.1157   48.3873 H   0  0  0  0  0  0  0  0  0  0  0  0
   47.8675   32.5829   49.4751 H   0  0  0  0  0  0  0  0  0  0  0  0
   50.0505   31.4306   49.2605 H   0  0  0  0  0  0  0  0  0  0  0  0
   50.0888   29.2810   47.9951 H   0  0  0  0  0  0  0  0  0  0  0  0
   48.0595   28.3013   46.9789 H   0  0  0  0  0  0  0  0  0  0  0  0
   45.9083   29.5257   47.2445 H   0  0  0  0  0  0  0  0  0  0  0  0
  1  2  2  0
  2 14  1  0
  3  8  2  0
  4  3  1  0
  5  4  2  0
  5  6  1  0
  6  7  2  0
  7  8  1  0
  7  1  1  0
  9  5  1  0
 10 13  1  0
 10  9  1  0
 11 10  1  0
 12 10  1  0
 15 14  1  0
 15 16  2  0
 17 16  1  0
 18 17  2  0
 19 20  2  0
 19 18  1  0
 20 15  1  0
  1 21  1  0
  2 22  1  0
  3 23  1  0
  4 24  1  0
 14 25  1  0
 14 26  1  0
 16 27  1  0
 17 28  1  0
 18 29  1  0
 19 30  1  0
 20 31  1  0
M  ISO  8  23  14  24  14  25   8  26   8  27  14  28  14  29  14  30  14
M  ISO  1  31  14
M  END
>  <minimizedAffinity>  (1) 
-5.36061716

>  <minimizedRMSD>  (1) 
0.628962696

$$$$
