
     RDKit          3D

 37 39  0  0  0  0  0  0  0  0999 V2000
   45.0280   35.7680   43.0720 C   0  0  0  0  0  0  0  0  0  0  0  0
   44.4170   34.9820   42.0740 C   0  0  0  0  0  0  0  0  0  0  0  0
   44.2760   33.6120   42.3330 C   0  0  0  0  0  0  0  0  0  0  0  0
   44.7270   33.1180   43.5100 N   0  0  0  0  0  0  0  0  0  0  0  0
   45.3120   33.9190   44.4470 C   0  0  0  0  0  0  0  0  0  0  0  0
   45.4590   35.2330   44.2240 N   0  0  0  0  0  0  0  0  0  0  0  0
   47.7390   32.1350   44.1400 Cl  0  0  0  0  0  0  0  0  0  0  0  0
   46.8740   32.4540   45.6210 C   0  0  0  0  0  0  0  0  0  0  0  0
   45.7640   33.2890   45.6820 C   0  0  0  0  0  0  0  0  0  0  0  0
   45.0810   33.5440   46.8400 C   0  0  0  0  0  0  0  0  0  0  0  0
   45.5430   32.9270   47.9840 C   0  0  0  0  0  0  0  0  0  0  0  0
   46.6270   32.0890   48.0290 C   0  0  0  0  0  0  0  0  0  0  0  0
   47.2700   31.8790   46.8080 C   0  0  0  0  0  0  0  0  0  0  0  0
   45.1830   37.2120   42.8120 C   0  0  0  0  0  0  0  0  0  0  0  0
   45.3800   38.0080   43.8340 C   0  0  0  0  0  0  0  0  0  0  0  0
   45.5420   39.4710   43.6240 C   0  0  0  0  0  0  0  0  0  0  0  0
   45.1010   40.2570   44.7860 C   0  0  0  0  0  0  0  0  0  0  0  0
   44.5750   41.5320   44.5600 C   0  0  0  0  0  0  0  0  0  0  0  0
   44.1450   42.3140   45.6110 C   0  0  0  0  0  0  0  0  0  0  0  0
   44.2150   41.8760   46.9170 C   0  0  0  0  0  0  0  0  0  0  0  0
   44.7370   40.6030   47.1720 C   0  0  0  0  0  0  0  0  0  0  0  0
   45.1630   39.8360   46.1020 C   0  0  0  0  0  0  0  0  0  0  0  0
   44.0654   35.4257   41.1309 H   0  0  0  0  0  0  0  0  0  0  0  0
   43.8064   32.9486   41.5918 H   0  0  0  0  0  0  0  0  0  0  0  0
   44.2052   34.2093   46.8578 H   0  0  0  0  0  0  0  0  0  0  0  0
   45.0052   33.1205   48.9238 H   0  0  0  0  0  0  0  0  0  0  0  0
   46.9663   31.6153   48.9620 H   0  0  0  0  0  0  0  0  0  0  0  0
   48.1461   31.2140   46.7930 H   0  0  0  0  0  0  0  0  0  0  0  0
   45.1345   37.6097   41.7876 H   0  0  0  0  0  0  0  0  0  0  0  0
   45.4257   37.5922   44.8514 H   0  0  0  0  0  0  0  0  0  0  0  0
   46.6043   39.6852   43.4354 H   0  0  0  0  0  0  0  0  0  0  0  0
   44.9143   39.7581   42.7675 H   0  0  0  0  0  0  0  0  0  0  0  0
   44.5032   41.9160   43.5317 H   0  0  0  0  0  0  0  0  0  0  0  0
   43.7354   43.3134   45.4025 H   0  0  0  0  0  0  0  0  0  0  0  0
   43.8672   42.5150   47.7421 H   0  0  0  0  0  0  0  0  0  0  0  0
   44.8072   40.2203   48.2009 H   0  0  0  0  0  0  0  0  0  0  0  0
   45.5734   38.8367   46.3094 H   0  0  0  0  0  0  0  0  0  0  0  0
  1  6  2  0
  2  3  2  0
  2  1  1  0
  3  4  1  0
  4  5  2  0
  5  9  1  0
  6  5  1  0
  7  8  1  0
  8  9  2  0
  8 13  1  0
  9 10  1  0
 10 11  2  0
 11 12  1  0
 13 12  2  0
 14  1  1  0
 14 15  2  0
 16 15  1  0
 16 17  1  0
 17 22  1  0
 18 17  2  0
 18 19  1  0
 19 20  2  0
 20 21  1  0
 22 21  2  0
  2 23  1  0
  3 24  1  0
 10 25  1  0
 11 26  1  0
 12 27  1  0
 13 28  1  0
 14 29  1  0
 15 30  1  0
 16 31  1  0
 16 32  1  0
 18 33  1  0
 19 34  1  0
 20 35  1  0
 21 36  1  0
 22 37  1  0
M  ISO  8  23  14  24  14  25  14  26  14  27  14  28  14  31   8  32   8
M  ISO  5  33  14  34  14  35  14  36  14  37  14
M  END
>  <minimizedAffinity>  (1) 
-4.2862711

>  <minimizedRMSD>  (1) 
3.49744463

$$$$
