
     RDKit          3D

 41 43  0  0  1  0  0  0  0  0999 V2000
   46.5170   31.9380   47.2520 C   0  0  2  0  0  0  0  0  0  0  0  0
   47.7030   32.3450   48.1140 C   0  0  0  0  0  0  0  0  0  0  0  0
   48.3250   31.0600   48.5280 C   0  0  0  0  0  0  0  0  0  0  0  0
   47.8790   29.8020   47.8470 C   0  0  0  0  0  0  0  0  0  0  0  0
   47.9360   30.1380   46.3690 C   0  0  0  0  0  0  0  0  0  0  0  0
   46.8700   31.0960   46.1220 C   0  0  1  0  0  0  0  0  0  0  0  0
   45.7820   30.1200   45.8020 C   0  0  0  0  0  0  0  0  0  0  0  0
   45.4440   29.7500   44.5190 C   0  0  0  0  0  0  0  0  0  0  0  0
   44.4360   28.8680   44.1890 C   0  0  0  0  0  0  0  0  0  0  0  0
   43.6940   28.2990   45.1770 C   0  0  0  0  0  0  0  0  0  0  0  0
   43.9760   28.6230   46.4700 C   0  0  0  0  0  0  0  0  0  0  0  0
   44.9930   29.5090   46.7530 C   0  0  0  0  0  0  0  0  0  0  0  0
   45.6330   33.0470   46.8970 C   0  0  0  0  0  0  0  0  0  0  0  0
   44.7090   33.4480   47.6590 O   0  0  0  0  0  0  0  0  0  0  0  0
   45.0990   35.2590   44.0430 C   0  0  0  0  0  0  0  0  0  0  0  0
   46.1710   34.9730   43.1660 C   0  0  0  0  0  0  0  0  0  0  0  0
   47.0740   34.0010   43.6020 C   0  0  0  0  0  0  0  0  0  0  0  0
   46.8200   33.4560   44.7980 N   0  0  0  0  0  0  0  0  0  0  0  0
   45.8250   33.7270   45.6070 C   0  0  0  0  0  0  0  0  0  0  0  0
   44.9390   34.6630   45.2090 N   0  0  0  0  0  0  0  0  0  0  0  0
   48.2120   33.7120   42.7250 C   0  0  0  0  0  0  0  0  0  0  0  0
   48.8180   32.5330   43.1210 F   0  0  0  0  0  0  0  0  0  0  0  0
   49.1760   34.6640   43.0760 F   0  0  0  0  0  0  0  0  0  0  0  0
   47.9120   33.7210   41.4170 F   0  0  0  0  0  0  0  0  0  0  0  0
   45.9136   31.2932   47.9079 H   0  0  0  0  0  0  0  0  0  0  0  0
   48.4143   32.9516   47.5342 H   0  0  0  0  0  0  0  0  0  0  0  0
   47.4011   32.9587   48.9756 H   0  0  0  0  0  0  0  0  0  0  0  0
   49.4082   31.1540   48.3611 H   0  0  0  0  0  0  0  0  0  0  0  0
   48.0077   30.9296   49.5731 H   0  0  0  0  0  0  0  0  0  0  0  0
   48.5569   28.9688   48.0840 H   0  0  0  0  0  0  0  0  0  0  0  0
   46.8766   29.4822   48.1678 H   0  0  0  0  0  0  0  0  0  0  0  0
   48.9109   30.5810   46.1173 H   0  0  0  0  0  0  0  0  0  0  0  0
   47.8118   29.2365   45.7510 H   0  0  0  0  0  0  0  0  0  0  0  0
   47.1155   31.8530   45.3626 H   0  0  0  0  0  0  0  0  0  0  0  0
   46.0223   30.1918   43.6941 H   0  0  0  0  0  0  0  0  0  0  0  0
   44.2338   28.6266   43.1350 H   0  0  0  0  0  0  0  0  0  0  0  0
   42.8848   27.5934   44.9375 H   0  0  0  0  0  0  0  0  0  0  0  0
   43.3917   28.1772   47.2884 H   0  0  0  0  0  0  0  0  0  0  0  0
   45.1884   29.7446   47.8096 H   0  0  0  0  0  0  0  0  0  0  0  0
   44.3618   36.0162   43.7377 H   0  0  0  0  0  0  0  0  0  0  0  0
   46.2865   35.4850   42.1993 H   0  0  0  0  0  0  0  0  0  0  0  0
  1  2  1  0
  2  3  1  0
  4  3  1  0
  5  4  1  0
  6  5  1  0
  6  1  1  0
  7  6  1  0
  7 12  1  0
  8  7  2  0
  9  8  1  0
  9 10  2  0
 10 11  1  0
 11 12  2  0
 13  1  1  0
 13 14  2  0
 15 20  2  0
 16 17  2  0
 16 15  1  0
 17 18  1  0
 18 19  2  0
 19 13  1  0
 20 19  1  0
 21 23  1  0
 21 22  1  0
 21 17  1  0
 24 21  1  0
  1 25  1  1
  2 26  1  0
  2 27  1  0
  3 28  1  0
  3 29  1  0
  4 30  1  0
  4 31  1  0
  5 32  1  0
  5 33  1  0
  6 34  1  6
  8 35  1  0
  9 36  1  0
 10 37  1  0
 11 38  1  0
 12 39  1  0
 15 40  1  0
 16 41  1  0
M  ISO  8  25  13  26  13  27  13  28  13  29  13  30  13  31  13  32  13
M  ISO  8  33  13  34  13  35  14  36  14  37  14  38  14  39  14  40  14
M  ISO  1  41  14
M  END
>  <minimizedAffinity>  (1) 
-5.6389246

>  <minimizedRMSD>  (1) 
1.97417629

$$$$
