
     RDKit          3D

 45 48  0  0  1  0  0  0  0  0999 V2000
   46.0270   31.4870   47.5560 N   0  0  0  0  0  0  0  0  0  0  0  0
   46.8080   32.3590   48.3630 C   0  0  0  0  0  0  0  0  0  0  0  0
   48.2590   31.8780   48.4320 C   0  0  0  0  0  0  0  0  0  0  0  0
   48.2160   30.5760   49.2040 C   0  0  0  0  0  0  0  0  0  0  0  0
   47.4370   29.6300   48.3250 C   0  0  0  0  0  0  0  0  0  0  0  0
   46.0490   30.1750   48.0240 C   0  0  2  0  0  0  0  0  0  0  0  0
   45.2160   29.1580   47.4040 C   0  0  0  0  0  0  0  0  0  0  0  0
   44.4140   29.2740   46.2890 C   0  0  0  0  0  0  0  0  0  0  0  0
   43.6250   28.2880   45.7380 C   0  0  0  0  0  0  0  0  0  0  0  0
   43.6240   27.0510   46.3490 C   0  0  0  0  0  0  0  0  0  0  0  0
   44.3790   26.8290   47.4560 C   0  0  0  0  0  0  0  0  0  0  0  0
   45.1250   27.8550   47.9310 C   0  0  0  0  0  0  0  0  0  0  0  0
   45.8900   31.8290   46.2020 C   0  0  0  0  0  0  0  0  0  0  0  0
   46.2780   33.8790   44.6360 C   0  0  1  0  0  0  0  0  0  0  0  0
   45.2640   34.2310   45.5640 C   0  0  0  0  0  0  0  0  0  0  0  0
   46.2770   33.2670   46.0520 C   0  0  1  0  0  0  0  0  0  0  0  0
   44.7840   32.7660   42.9790 C   0  0  0  0  0  0  0  0  0  0  0  0
   46.1020   32.9450   43.4930 C   0  0  0  0  0  0  0  0  0  0  0  0
   47.1280   32.2460   42.9100 C   0  0  0  0  0  0  0  0  0  0  0  0
   46.8360   31.4120   41.8620 N   0  0  0  0  0  0  0  0  0  0  0  0
   45.5710   31.2580   41.3890 C   0  0  0  0  0  0  0  0  0  0  0  0
   44.5200   31.9360   41.9430 N   0  0  0  0  0  0  0  0  0  0  0  0
   46.7830   33.3702   47.9307 H   0  0  0  0  0  0  0  0  0  0  0  0
   46.3899   32.3683   49.3804 H   0  0  0  0  0  0  0  0  0  0  0  0
   48.6578   31.7123   47.4203 H   0  0  0  0  0  0  0  0  0  0  0  0
   48.9124   32.6187   48.9161 H   0  0  0  0  0  0  0  0  0  0  0  0
   49.2332   30.1948   49.3770 H   0  0  0  0  0  0  0  0  0  0  0  0
   47.7536   30.6968   50.1947 H   0  0  0  0  0  0  0  0  0  0  0  0
   47.9803   29.4898   47.3789 H   0  0  0  0  0  0  0  0  0  0  0  0
   47.3276   28.6724   48.8552 H   0  0  0  0  0  0  0  0  0  0  0  0
   45.5107   30.3684   48.9636 H   0  0  0  0  0  0  0  0  0  0  0  0
   44.4027   30.2533   45.7882 H   0  0  0  0  0  0  0  0  0  0  0  0
   43.0168   28.4804   44.8418 H   0  0  0  0  0  0  0  0  0  0  0  0
   43.0074   26.2388   45.9367 H   0  0  0  0  0  0  0  0  0  0  0  0
   44.3845   25.8468   47.9513 H   0  0  0  0  0  0  0  0  0  0  0  0
   45.7267   27.6475   48.8282 H   0  0  0  0  0  0  0  0  0  0  0  0
   46.5495   31.1980   45.5881 H   0  0  0  0  0  0  0  0  0  0  0  0
   44.8531   31.6734   45.8694 H   0  0  0  0  0  0  0  0  0  0  0  0
   46.9358   34.4920   44.0024 H   0  0  0  0  0  0  0  0  0  0  0  0
   45.2457   35.2490   45.9803 H   0  0  0  0  0  0  0  0  0  0  0  0
   44.1650   34.2099   45.5211 H   0  0  0  0  0  0  0  0  0  0  0  0
   46.9738   33.2028   46.9007 H   0  0  0  0  0  0  0  0  0  0  0  0
   43.9538   33.3212   43.4400 H   0  0  0  0  0  0  0  0  0  0  0  0
   48.1604   32.3521   43.2746 H   0  0  0  0  0  0  0  0  0  0  0  0
   45.3892   30.5758   40.5455 H   0  0  0  0  0  0  0  0  0  0  0  0
  1  6  1  0
  1  2  1  0
  2  3  1  0
  3  4  1  0
  5  4  1  0
  6  5  1  0
  7 12  1  0
  7  6  1  0
  8  7  2  0
  9  8  1  0
  9 10  2  0
 10 11  1  0
 11 12  2  0
 13  1  1  0
 14 15  1  0
 14 16  1  0
 15 16  1  0
 16 13  1  0
 17 18  2  0
 18 14  1  0
 19 18  1  0
 20 19  2  0
 21 20  1  0
 21 22  2  0
 22 17  1  0
  2 23  1  0
  2 24  1  0
  3 25  1  0
  3 26  1  0
  4 27  1  0
  4 28  1  0
  5 29  1  0
  5 30  1  0
  6 31  1  1
  8 32  1  0
  9 33  1  0
 10 34  1  0
 11 35  1  0
 12 36  1  0
 13 37  1  0
 13 38  1  0
 14 39  1  6
 15 40  1  0
 15 41  1  0
 16 42  1  1
 17 43  1  0
 19 44  1  0
 21 45  1  0
M  ISO  8  23  13  24  13  25  13  26  13  27  13  28  13  29  13  30  13
M  ISO  8  31  13  32  14  33  14  34  14  35  14  36  14  37   8  38   8
M  ISO  7  39  13  40  13  41  13  42  13  43  14  44  14  45  14
M  END
>  <minimizedAffinity>  (1) 
-4.46283531

>  <minimizedRMSD>  (1) 
1.11096346

$$$$
