
     RDKit          3D

 47 50  0  0  0  0  0  0  0  0999 V2000
   44.6940   33.0690   42.2290 C   0  0  0  0  0  0  0  0  0  0  0  0
   44.2000   32.2530   43.0910 O   0  0  0  0  0  0  0  0  0  0  0  0
   45.5700   34.0280   42.8260 N   0  0  0  0  0  0  0  0  0  0  0  0
   45.5990   33.8060   44.2590 C   0  0  0  0  0  0  0  0  0  0  0  0
   44.9490   34.5430   45.2000 C   0  0  0  0  0  0  0  0  0  0  0  0
   45.0920   34.1840   46.5130 C   0  0  0  0  0  0  0  0  0  0  0  0
   45.8700   33.1200   46.7880 N   0  0  0  0  0  0  0  0  0  0  0  0
   46.5110   32.3980   45.8350 C   0  0  0  0  0  0  0  0  0  0  0  0
   46.3740   32.7460   44.5390 N   0  0  0  0  0  0  0  0  0  0  0  0
   47.3510   31.2390   46.2130 C   0  0  0  0  0  0  0  0  0  0  0  0
   47.6400   31.0510   47.5460 C   0  0  0  0  0  0  0  0  0  0  0  0
   48.4190   29.9750   47.9000 C   0  0  0  0  0  0  0  0  0  0  0  0
   48.8990   29.1070   46.9270 C   0  0  0  0  0  0  0  0  0  0  0  0
   48.5970   29.3150   45.5940 C   0  0  0  0  0  0  0  0  0  0  0  0
   47.8160   30.3880   45.2190 C   0  0  0  0  0  0  0  0  0  0  0  0
   44.1680   35.6340   44.7380 N   0  0  0  0  0  0  0  0  0  0  0  0
   44.4630   33.0930   40.8510 O   0  0  0  0  0  0  0  0  0  0  0  0
   42.4550   30.9060   40.6630 Cl  0  0  0  0  0  0  0  0  0  0  0  0
   42.2050   32.5970   40.2910 C   0  0  0  0  0  0  0  0  0  0  0  0
   43.2100   33.5530   40.4100 C   0  0  0  0  0  0  0  0  0  0  0  0
   42.9600   34.8600   40.1060 C   0  0  0  0  0  0  0  0  0  0  0  0
   41.7290   35.3060   39.6720 C   0  0  0  0  0  0  0  0  0  0  0  0
   40.6950   34.3600   39.5450 C   0  0  0  0  0  0  0  0  0  0  0  0
   39.0970   34.8430   38.9990 Cl  0  0  0  0  0  0  0  0  0  0  0  0
   40.9850   33.0470   39.8600 C   0  0  0  0  0  0  0  0  0  0  0  0
   39.3230   32.5550   41.9560 F   0  0  0  0  0  0  0  0  0  0  0  0
   39.0930   31.8310   40.8070 C   0  0  0  0  0  0  0  0  0  0  0  0
   39.9180   32.0580   39.7300 C   0  0  0  0  0  0  0  0  0  0  0  0
   39.6560   31.3030   38.5780 C   0  0  0  0  0  0  0  0  0  0  0  0
   38.6110   30.3960   38.5850 C   0  0  0  0  0  0  0  0  0  0  0  0
   37.8110   30.2140   39.7190 C   0  0  0  0  0  0  0  0  0  0  0  0
   38.0450   30.9480   40.8790 C   0  0  0  0  0  0  0  0  0  0  0  0
   46.0944   34.7569   42.3214 H   0  0  0  0  0  0  0  0  0  0  0  0
   44.5893   34.7446   47.3149 H   0  0  0  0  0  0  0  0  0  0  0  0
   47.2570   31.7447   48.3089 H   0  0  0  0  0  0  0  0  0  0  0  0
   48.6634   29.8005   48.9582 H   0  0  0  0  0  0  0  0  0  0  0  0
   49.5229   28.2494   47.2190 H   0  0  0  0  0  0  0  0  0  0  0  0
   48.9808   28.6226   44.8303 H   0  0  0  0  0  0  0  0  0  0  0  0
   47.5683   30.5648   44.1619 H   0  0  0  0  0  0  0  0  0  0  0  0
   43.6565   36.2227   45.4109 H   0  0  0  0  0  0  0  0  0  0  0  0
   44.1126   35.8372   43.7298 H   0  0  0  0  0  0  0  0  0  0  0  0
   43.7762   35.5898   40.2118 H   0  0  0  0  0  0  0  0  0  0  0  0
   41.5611   36.3665   39.4330 H   0  0  0  0  0  0  0  0  0  0  0  0
   40.2750   31.4304   37.6776 H   0  0  0  0  0  0  0  0  0  0  0  0
   38.4046   29.8055   37.6802 H   0  0  0  0  0  0  0  0  0  0  0  0
   36.9889   29.4836   39.6936 H   0  0  0  0  0  0  0  0  0  0  0  0
   37.4347   30.8288   41.7863 H   0  0  0  0  0  0  0  0  0  0  0  0
  1  3  1  0
  1  2  2  0
  3  4  1  0
  4  9  1  0
  4  5  2  0
  5  6  1  0
  6  7  2  0
  8 10  1  0
  8  7  1  0
  9  8  2  0
 10 11  2  0
 11 12  1  0
 13 12  2  0
 14 13  1  0
 15 14  2  0
 15 10  1  0
 16  5  1  0
 17  1  1  0
 19 20  2  0
 19 18  1  0
 20 17  1  0
 21 20  1  0
 22 21  2  0
 23 22  1  0
 23 25  2  0
 24 23  1  0
 25 19  1  0
 27 32  2  0
 27 26  1  0
 28 25  1  0
 28 27  1  0
 29 30  1  0
 29 28  2  0
 30 31  2  0
 31 32  1  0
  3 33  1  0
  6 34  1  0
 11 35  1  0
 12 36  1  0
 13 37  1  0
 14 38  1  0
 15 39  1  0
 16 40  1  0
 16 41  1  0
 21 42  1  0
 22 43  1  0
 29 44  1  0
 30 45  1  0
 31 46  1  0
 32 47  1  0
M  ISO  8  34  14  35  14  36  14  37  14  38  14  39  14  42  14  43  14
M  ISO  4  44  14  45  14  46  14  47  14
M  END
>  <minimizedAffinity>  (1) 
-6.52878284

>  <minimizedRMSD>  (1) 
1.7505554

$$$$
