
     RDKit          3D

 42 45  0  0  1  0  0  0  0  0999 V2000
   49.0920   33.4050   40.9540 N   0  0  0  0  0  0  0  0  0  0  0  0
   50.1660   32.6310   41.5210 C   0  0  0  0  0  0  0  0  0  0  0  0
   50.4610   31.3370   40.8670 C   0  0  0  0  0  0  0  0  0  0  0  0
   49.2650   30.4180   40.9530 C   0  0  0  0  0  0  0  0  0  0  0  0
   47.9860   31.1790   40.9410 C   0  0  0  0  0  0  0  0  0  0  0  0
   48.1740   32.5100   40.2880 C   0  0  2  0  0  0  0  0  0  0  0  0
   48.1990   32.5370   38.8300 C   0  0  0  0  0  0  0  0  0  0  0  0
   48.3460   33.7750   38.1820 C   0  0  0  0  0  0  0  0  0  0  0  0
   48.4060   33.9790   36.8200 C   0  0  0  0  0  0  0  0  0  0  0  0
   48.3130   32.8690   36.0090 C   0  0  0  0  0  0  0  0  0  0  0  0
   48.1660   31.6110   36.5540 C   0  0  0  0  0  0  0  0  0  0  0  0
   48.1170   31.5020   37.9240 C   0  0  0  0  0  0  0  0  0  0  0  0
   47.1840   34.8580   41.8910 C   0  0  1  0  0  0  0  0  0  0  0  0
   48.4420   35.6200   41.8500 C   0  0  0  0  0  0  0  0  0  0  0  0
   48.4950   34.1450   42.0240 C   0  0  2  0  0  0  0  0  0  0  0  0
   45.4220   36.0580   43.2450 C   0  0  0  0  0  0  0  0  0  0  0  0
   46.3100   34.9650   43.0850 C   0  0  0  0  0  0  0  0  0  0  0  0
   46.3310   33.9890   44.0920 C   0  0  0  0  0  0  0  0  0  0  0  0
   45.4980   34.1450   45.1660 N   0  0  0  0  0  0  0  0  0  0  0  0
   44.6630   35.2170   45.2680 C   0  0  0  0  0  0  0  0  0  0  0  0
   44.6160   36.1770   44.3170 N   0  0  0  0  0  0  0  0  0  0  0  0
   51.0787   33.2434   41.4781 H   0  0  0  0  0  0  0  0  0  0  0  0
   49.8363   32.3755   42.5388 H   0  0  0  0  0  0  0  0  0  0  0  0
   51.3180   30.8643   41.3691 H   0  0  0  0  0  0  0  0  0  0  0  0
   50.6960   31.5182   39.8078 H   0  0  0  0  0  0  0  0  0  0  0  0
   49.2799   29.7317   40.0935 H   0  0  0  0  0  0  0  0  0  0  0  0
   49.3257   29.8629   41.9007 H   0  0  0  0  0  0  0  0  0  0  0  0
   47.2295   30.6065   40.3843 H   0  0  0  0  0  0  0  0  0  0  0  0
   47.6559   31.3356   41.9786 H   0  0  0  0  0  0  0  0  0  0  0  0
   47.1969   32.9787   40.4767 H   0  0  0  0  0  0  0  0  0  0  0  0
   48.4203   34.6662   38.8225 H   0  0  0  0  0  0  0  0  0  0  0  0
   48.5234   34.9878   36.3974 H   0  0  0  0  0  0  0  0  0  0  0  0
   48.3564   32.9876   34.9163 H   0  0  0  0  0  0  0  0  0  0  0  0
   48.0902   30.7210   35.9120 H   0  0  0  0  0  0  0  0  0  0  0  0
   48.0010   30.4892   38.3372 H   0  0  0  0  0  0  0  0  0  0  0  0
   46.3105   34.7706   41.2282 H   0  0  0  0  0  0  0  0  0  0  0  0
   48.7777   36.0723   40.9052 H   0  0  0  0  0  0  0  0  0  0  0  0
   48.8437   36.4787   42.4078 H   0  0  0  0  0  0  0  0  0  0  0  0
   48.8735   33.4154   42.7551 H   0  0  0  0  0  0  0  0  0  0  0  0
   45.3902   36.8352   42.4672 H   0  0  0  0  0  0  0  0  0  0  0  0
   47.0008   33.1194   44.0200 H   0  0  0  0  0  0  0  0  0  0  0  0
   44.0091   35.3038   46.1483 H   0  0  0  0  0  0  0  0  0  0  0  0
  1  2  1  0
  1 15  1  0
  3  4  1  0
  3  2  1  0
  5  4  1  0
  6  5  1  0
  6  1  1  0
  7  6  1  0
  8  7  2  0
  9  8  1  0
 10 11  1  0
 10  9  2  0
 11 12  2  0
 12  7  1  0
 13 15  1  0
 13 17  1  0
 14 13  1  0
 14 15  1  0
 16 21  2  0
 17 16  1  0
 17 18  2  0
 18 19  1  0
 19 20  2  0
 21 20  1  0
  2 22  1  0
  2 23  1  0
  3 24  1  0
  3 25  1  0
  4 26  1  0
  4 27  1  0
  5 28  1  0
  5 29  1  0
  6 30  1  1
  8 31  1  0
  9 32  1  0
 10 33  1  0
 11 34  1  0
 12 35  1  0
 13 36  1  6
 14 37  1  0
 14 38  1  0
 15 39  1  1
 16 40  1  0
 18 41  1  0
 20 42  1  0
M  ISO  8  22  13  23  13  24  13  25  13  26  13  27  13  28  13  29  13
M  ISO  8  30  13  31  14  32  14  33  14  34  14  35  14  36  13  37  13
M  ISO  5  38  13  39  13  40  14  41  14  42  14
M  END
>  <minimizedAffinity>  (1) 
-5.21693897

>  <minimizedRMSD>  (1) 
1.63772798

$$$$
