
     RDKit          3D

 44 46  0  0  1  0  0  0  0  0999 V2000
   47.4490   32.3910   42.6960 C   0  0  2  0  0  0  0  0  0  0  0  0
   47.9990   31.3890   43.6410 C   0  0  0  0  0  0  0  0  0  0  0  0
   47.3310   31.5480   44.9800 C   0  0  0  0  0  0  0  0  0  0  0  0
   45.9960   31.1530   44.9460 O   0  0  0  0  0  0  0  0  0  0  0  0
   45.4510   31.3490   43.6960 C   0  0  0  0  0  0  0  0  0  0  0  0
   46.0030   32.6030   43.0420 C   0  0  1  0  0  0  0  0  0  0  0  0
   45.5310   33.8110   43.6330 C   0  0  0  0  0  0  0  0  0  0  0  0
   45.5630   34.8080   42.6330 C   0  0  0  0  0  0  0  0  0  0  0  0
   45.1690   36.1280   42.9040 C   0  0  0  0  0  0  0  0  0  0  0  0
   44.7420   36.4730   44.1650 C   0  0  0  0  0  0  0  0  0  0  0  0
   44.6960   35.5430   45.1570 C   0  0  0  0  0  0  0  0  0  0  0  0
   45.0870   34.2680   44.8550 C   0  0  0  0  0  0  0  0  0  0  0  0
   47.6180   32.1170   41.3870 O   0  0  0  0  0  0  0  0  0  0  0  0
   49.8710   32.1050   40.0380 O   0  0  0  0  0  0  0  0  0  0  0  0
   48.7690   32.9500   40.5430 P   0  0  2  0  0  0  0  0  0  0  0  0
   49.4610   34.1010   41.5900 O   0  0  0  0  0  0  0  0  0  0  0  0
   48.0410   33.8290   39.2510 O   0  0  0  0  0  0  0  0  0  0  0  0
   46.9190   32.2510   37.9030 C   0  0  0  0  0  0  0  0  0  0  0  0
   47.8510   33.2580   38.0080 C   0  0  0  0  0  0  0  0  0  0  0  0
   48.5650   33.6610   36.8500 C   0  0  0  0  0  0  0  0  0  0  0  0
   48.2840   33.0200   35.6970 N   0  0  0  0  0  0  0  0  0  0  0  0
   47.3750   32.0480   35.6300 C   0  0  0  0  0  0  0  0  0  0  0  0
   46.7000   31.6740   36.7460 N   0  0  0  0  0  0  0  0  0  0  0  0
   44.8220   32.2190   39.2400 C   0  0  0  0  0  0  0  0  0  0  0  0
   44.5720   33.4530   39.0380 O   0  0  0  0  0  0  0  0  0  0  0  0
   45.9990   31.5230   38.7010 N   0  0  0  0  0  0  0  0  0  0  0  0
   48.0329   33.3142   42.8255 H   0  0  0  0  0  0  0  0  0  0  0  0
   47.8101   30.3768   43.2541 H   0  0  0  0  0  0  0  0  0  0  0  0
   49.0829   31.5417   43.7498 H   0  0  0  0  0  0  0  0  0  0  0  0
   47.8650   30.9324   45.7189 H   0  0  0  0  0  0  0  0  0  0  0  0
   47.3638   32.6133   45.2523 H   0  0  0  0  0  0  0  0  0  0  0  0
   45.6871   30.4813   43.0625 H   0  0  0  0  0  0  0  0  0  0  0  0
   44.3629   31.4665   43.8070 H   0  0  0  0  0  0  0  0  0  0  0  0
   45.5703   32.7960   42.0492 H   0  0  0  0  0  0  0  0  0  0  0  0
   45.9037   34.5447   41.6208 H   0  0  0  0  0  0  0  0  0  0  0  0
   45.2018   36.8863   42.1078 H   0  0  0  0  0  0  0  0  0  0  0  0
   44.4353   37.5087   44.3731 H   0  0  0  0  0  0  0  0  0  0  0  0
   44.3554   35.8081   46.1688 H   0  0  0  0  0  0  0  0  0  0  0  0
   45.0426   33.5317   45.6710 H   0  0  0  0  0  0  0  0  0  0  0  0
   49.2994   33.8322   42.5290 H   0  0  0  0  0  0  0  0  0  0  0  0
   49.3167   34.4631   36.8909 H   0  0  0  0  0  0  0  0  0  0  0  0
   47.1720   31.5493   34.6708 H   0  0  0  0  0  0  0  0  0  0  0  0
   44.1152   31.6414   39.8538 H   0  0  0  0  0  0  0  0  0  0  0  0
   46.1533   30.5241   38.8991 H   0  0  0  0  0  0  0  0  0  0  0  0
  1  6  1  0
  1  2  1  0
  2  3  1  0
  4  3  1  0
  5  4  1  0
  6  7  1  0
  6  5  1  0
  7 12  2  0
  8  9  2  0
  8  7  1  0
  9 10  1  0
 10 11  2  0
 12 11  1  0
 13  1  1  0
 15 14  2  0
 15 13  1  0
 15 16  1  0
 17 15  1  0
 18 19  2  0
 18 26  1  0
 19 17  1  0
 20 19  1  0
 21 20  2  0
 22 21  1  0
 22 23  2  0
 23 18  1  0
 25 24  2  0
 26 24  1  0
  1 27  1  1
  2 28  1  0
  2 29  1  0
  3 30  1  0
  3 31  1  0
  5 32  1  0
  5 33  1  0
  6 34  1  6
  8 35  1  0
  9 36  1  0
 10 37  1  0
 11 38  1  0
 12 39  1  0
 16 40  1  0
 20 41  1  0
 22 42  1  0
 24 43  1  0
 26 44  1  0
M  ISO  8  27  13  28  13  29  13  30  13  31  13  32  13  33  13  34  13
M  ISO  8  35  14  36  14  37  14  38  14  39  14  40   3  41  14  42  14
M  ISO  1  43   6
M  END
>  <minimizedAffinity>  (1) 
-4.9288578

>  <minimizedRMSD>  (1) 
5.06488371

$$$$
