
     RDKit          3D

 34 36  0  0  1  0  0  0  0  0999 V2000
   44.5960   35.7790   44.6790 C   0  0  0  0  0  0  0  0  0  0  0  0
   44.5330   35.3990   43.3330 C   0  0  0  0  0  0  0  0  0  0  0  0
   44.8570   34.1000   42.9850 C   0  0  0  0  0  0  0  0  0  0  0  0
   45.2220   33.2600   43.9930 N   0  0  0  0  0  0  0  0  0  0  0  0
   45.2750   33.6440   45.2740 C   0  0  0  0  0  0  0  0  0  0  0  0
   44.9670   34.8920   45.6260 N   0  0  0  0  0  0  0  0  0  0  0  0
   45.6570   32.6740   46.2380 N   0  0  0  0  0  0  0  0  0  0  0  0
   45.4760   32.8460   47.6850 C   0  0  0  0  0  0  0  0  0  0  0  0
   46.7120   32.1810   48.2250 C   0  0  0  0  0  0  0  0  0  0  0  0
   47.3680   31.4550   47.0860 C   0  0  0  0  0  0  0  0  0  0  0  0
   46.2600   31.3820   46.0480 C   0  0  2  0  0  0  0  0  0  0  0  0
   46.8240   31.1590   44.6930 C   0  0  0  0  0  0  0  0  0  0  0  0
   47.9580   31.7020   44.1570 C   0  0  0  0  0  0  0  0  0  0  0  0
   48.3810   31.4240   42.8890 C   0  0  0  0  0  0  0  0  0  0  0  0
   47.6750   30.5680   42.0720 C   0  0  0  0  0  0  0  0  0  0  0  0
   46.5260   29.9830   42.5340 C   0  0  0  0  0  0  0  0  0  0  0  0
   46.1420   30.2980   43.8250 C   0  0  0  0  0  0  0  0  0  0  0  0
   44.1200   36.4220   42.4210 N   0  0  0  0  0  0  0  0  0  0  0  0
   44.3409   36.8095   44.9671 H   0  0  0  0  0  0  0  0  0  0  0  0
   44.8214   33.7602   41.9394 H   0  0  0  0  0  0  0  0  0  0  0  0
   45.4393   33.9101   47.9613 H   0  0  0  0  0  0  0  0  0  0  0  0
   44.5360   32.4254   48.0717 H   0  0  0  0  0  0  0  0  0  0  0  0
   47.3981   32.9380   48.6328 H   0  0  0  0  0  0  0  0  0  0  0  0
   46.4537   31.4810   49.0333 H   0  0  0  0  0  0  0  0  0  0  0  0
   48.2325   32.0174   46.7034 H   0  0  0  0  0  0  0  0  0  0  0  0
   47.7638   30.4686   47.3695 H   0  0  0  0  0  0  0  0  0  0  0  0
   45.5428   30.5542   46.1497 H   0  0  0  0  0  0  0  0  0  0  0  0
   48.5544   32.3914   44.7726 H   0  0  0  0  0  0  0  0  0  0  0  0
   49.3025   31.8921   42.5126 H   0  0  0  0  0  0  0  0  0  0  0  0
   48.0325   30.3555   41.0536 H   0  0  0  0  0  0  0  0  0  0  0  0
   45.9371   29.2959   41.9087 H   0  0  0  0  0  0  0  0  0  0  0  0
   45.2203   29.8312   44.2026 H   0  0  0  0  0  0  0  0  0  0  0  0
   44.0500   36.2167   41.4141 H   0  0  0  0  0  0  0  0  0  0  0  0
   43.8928   37.3634   42.7716 H   0  0  0  0  0  0  0  0  0  0  0  0
  1  6  2  0
  2  1  1  0
  3  2  2  0
  3  4  1  0
  4  5  2  0
  5  6  1  0
  5  7  1  0
  7  8  1  0
  8  9  1  0
 10  9  1  0
 11  7  1  0
 11 10  1  0
 12 11  1  0
 13 12  2  0
 14 13  1  0
 15 16  1  0
 15 14  2  0
 16 17  2  0
 17 12  1  0
 18  2  1  0
  1 19  1  0
  3 20  1  0
  8 21  1  0
  8 22  1  0
  9 23  1  0
  9 24  1  0
 10 25  1  0
 10 26  1  0
 11 27  1  1
 13 28  1  0
 14 29  1  0
 15 30  1  0
 16 31  1  0
 17 32  1  0
 18 33  1  0
 18 34  1  0
M  ISO  8  19  14  20  14  21  13  22  13  23  13  24  13  25  13  26  13
M  ISO  6  27  13  28  14  29  14  30  14  31  14  32  14
M  END
>  <minimizedAffinity>  (1) 
-4.44481564

>  <minimizedRMSD>  (1) 
1.92673206

$$$$
