
     RDKit          3D

 30 32  0  0  0  0  0  0  0  0999 V2000
   47.7440   32.7460   41.7400 C   0  0  0  0  0  0  0  0  0  0  0  0
   47.8130   33.7770   42.6580 C   0  0  0  0  0  0  0  0  0  0  0  0
   49.0430   34.3230   42.9790 C   0  0  0  0  0  0  0  0  0  0  0  0
   50.1730   33.8190   42.3710 C   0  0  0  0  0  0  0  0  0  0  0  0
   50.1520   32.7900   41.4500 C   0  0  0  0  0  0  0  0  0  0  0  0
   48.8760   32.2770   41.1630 C   0  0  0  0  0  0  0  0  0  0  0  0
   44.3540   32.1230   40.1780 C   0  0  0  0  0  0  0  0  0  0  0  0
   45.6240   32.6830   40.3950 C   0  0  0  0  0  0  0  0  0  0  0  0
   46.4260   32.2230   41.4490 C   0  0  0  0  0  0  0  0  0  0  0  0
   45.9000   31.2410   42.2050 N   0  0  0  0  0  0  0  0  0  0  0  0
   44.6820   30.7040   41.9960 C   0  0  0  0  0  0  0  0  0  0  0  0
   43.9040   31.1410   40.9840 N   0  0  0  0  0  0  0  0  0  0  0  0
   46.6920   34.3890   43.3610 C   0  0  0  0  0  0  0  0  0  0  0  0
   46.1360   33.9880   44.5580 C   0  0  0  0  0  0  0  0  0  0  0  0
   45.0690   34.6580   45.1160 C   0  0  0  0  0  0  0  0  0  0  0  0
   44.5670   35.7560   44.4340 C   0  0  0  0  0  0  0  0  0  0  0  0
   45.0910   36.1920   43.2360 C   0  0  0  0  0  0  0  0  0  0  0  0
   46.1700   35.4990   42.6880 C   0  0  0  0  0  0  0  0  0  0  0  0
   49.1180   35.1447   43.7065 H   0  0  0  0  0  0  0  0  0  0  0  0
   51.1454   34.2610   42.6340 H   0  0  0  0  0  0  0  0  0  0  0  0
   51.0657   32.4013   40.9767 H   0  0  0  0  0  0  0  0  0  0  0  0
   48.7924   31.4560   40.4357 H   0  0  0  0  0  0  0  0  0  0  0  0
   43.7269   32.4860   39.3503 H   0  0  0  0  0  0  0  0  0  0  0  0
   45.9901   33.4844   39.7364 H   0  0  0  0  0  0  0  0  0  0  0  0
   44.3189   29.9025   42.6561 H   0  0  0  0  0  0  0  0  0  0  0  0
   46.5538   33.1138   45.0788 H   0  0  0  0  0  0  0  0  0  0  0  0
   44.6301   34.3326   46.0707 H   0  0  0  0  0  0  0  0  0  0  0  0
   43.7155   36.3015   44.8669 H   0  0  0  0  0  0  0  0  0  0  0  0
   44.6671   37.0679   42.7231 H   0  0  0  0  0  0  0  0  0  0  0  0
   46.6080   35.8231   41.7324 H   0  0  0  0  0  0  0  0  0  0  0  0
  1  2  1  0
  2  3  2  0
  2 13  1  0
  4  3  1  0
  5  4  2  0
  6  5  1  0
  6  1  2  0
  7  8  2  0
  7 12  1  0
  8  9  1  0
  9  1  1  0
  9 10  2  0
 11 10  1  0
 12 11  2  0
 13 14  2  0
 14 15  1  0
 16 15  2  0
 17 16  1  0
 18 17  2  0
 18 13  1  0
  3 19  1  0
  4 20  1  0
  5 21  1  0
  6 22  1  0
  7 23  1  0
  8 24  1  0
 11 25  1  0
 14 26  1  0
 15 27  1  0
 16 28  1  0
 17 29  1  0
 18 30  1  0
M  ISO  8  19  14  20  14  21  14  22  14  23  14  24  14  25  14  26  14
M  ISO  4  27  14  28  14  29  14  30  14
M  END
>  <minimizedAffinity>  (1) 
-4.55860376

>  <minimizedRMSD>  (1) 
4.06265926

$$$$
