
     RDKit          3D

 49 54  0  0  1  0  0  0  0  0999 V2000
   45.0350   34.6300   43.4710 C   0  0  0  0  0  0  0  0  0  0  0  0
   45.3620   33.2910   43.8660 C   0  0  0  0  0  0  0  0  0  0  0  0
   44.8650   32.2590   43.1120 C   0  0  0  0  0  0  0  0  0  0  0  0
   44.0920   32.5690   42.0340 N   0  0  0  0  0  0  0  0  0  0  0  0
   43.7950   33.8460   41.6750 C   0  0  0  0  0  0  0  0  0  0  0  0
   44.2680   34.8720   42.3960 N   0  0  0  0  0  0  0  0  0  0  0  0
   46.2210   33.0850   45.0680 C   0  0  1  0  0  0  0  0  0  0  0  0
   45.8610   33.6840   46.3510 C   0  0  0  0  0  0  0  0  0  0  0  0
   45.6430   32.2290   46.1790 C   0  0  2  0  0  0  0  0  0  0  0  0
   46.6280   31.3160   46.8170 C   0  0  0  0  0  0  0  0  0  0  0  0
   46.7680   29.9820   46.5020 C   0  0  0  0  0  0  0  0  0  0  0  0
   47.7070   29.1850   47.1450 C   0  0  0  0  0  0  0  0  0  0  0  0
   48.5110   29.7240   48.1090 C   0  0  0  0  0  0  0  0  0  0  0  0
   49.4390   28.9640   48.7540 N   0  0  0  0  0  0  0  0  0  0  0  0
   50.2320   29.5160   49.7150 C   0  0  0  0  0  0  0  0  0  0  0  0
   50.1620   30.8750   50.1070 C   0  0  0  0  0  0  0  0  0  0  0  0
   49.2210   31.6450   49.4500 C   0  0  0  0  0  0  0  0  0  0  0  0
   48.4190   31.0700   48.4750 C   0  0  0  0  0  0  0  0  0  0  0  0
   47.4720   31.8190   47.8080 C   0  0  0  0  0  0  0  0  0  0  0  0
   42.9520   34.0530   40.4660 C   0  0  2  0  0  0  0  0  0  0  0  0
   42.6900   35.3800   39.9370 C   0  0  0  0  0  0  0  0  0  0  0  0
   41.5920   34.7550   40.7660 C   0  0  1  0  0  0  0  0  0  0  0  0
   40.4150   34.3530   39.9980 C   0  0  0  0  0  0  0  0  0  0  0  0
   39.3160   33.6730   40.4500 C   0  0  0  0  0  0  0  0  0  0  0  0
   38.2470   33.3340   39.6550 C   0  0  0  0  0  0  0  0  0  0  0  0
   38.2810   33.7000   38.3210 C   0  0  0  0  0  0  0  0  0  0  0  0
   39.3490   34.3850   37.7950 C   0  0  0  0  0  0  0  0  0  0  0  0
   40.3790   34.6900   38.6420 C   0  0  0  0  0  0  0  0  0  0  0  0
   45.4200   35.4754   44.0602 H   0  0  0  0  0  0  0  0  0  0  0  0
   45.0839   31.2123   43.3699 H   0  0  0  0  0  0  0  0  0  0  0  0
   47.1353   33.0973   44.4565 H   0  0  0  0  0  0  0  0  0  0  0  0
   46.6527   34.0395   47.0269 H   0  0  0  0  0  0  0  0  0  0  0  0
   45.2172   34.5244   46.6496 H   0  0  0  0  0  0  0  0  0  0  0  0
   44.7836   31.5559   46.3141 H   0  0  0  0  0  0  0  0  0  0  0  0
   46.1245   29.5398   45.7272 H   0  0  0  0  0  0  0  0  0  0  0  0
   47.8028   28.1221   46.8784 H   0  0  0  0  0  0  0  0  0  0  0  0
   50.9683   28.8692   50.2146 H   0  0  0  0  0  0  0  0  0  0  0  0
   50.8164   31.2921   50.8866 H   0  0  0  0  0  0  0  0  0  0  0  0
   49.1083   32.7104   49.6994 H   0  0  0  0  0  0  0  0  0  0  0  0
   47.3758   32.8819   48.0746 H   0  0  0  0  0  0  0  0  0  0  0  0
   43.3169   33.1334   39.9851 H   0  0  0  0  0  0  0  0  0  0  0  0
   43.2459   36.2406   40.3375 H   0  0  0  0  0  0  0  0  0  0  0  0
   42.7224   35.8116   38.9257 H   0  0  0  0  0  0  0  0  0  0  0  0
   41.0203   34.9795   41.6785 H   0  0  0  0  0  0  0  0  0  0  0  0
   39.2868   33.3812   41.5102 H   0  0  0  0  0  0  0  0  0  0  0  0
   37.3873   32.7863   40.0684 H   0  0  0  0  0  0  0  0  0  0  0  0
   37.4354   33.4370   37.6684 H   0  0  0  0  0  0  0  0  0  0  0  0
   39.3751   34.6768   36.7347 H   0  0  0  0  0  0  0  0  0  0  0  0
   41.2379   35.2381   38.2274 H   0  0  0  0  0  0  0  0  0  0  0  0
  1  2  2  0
  2  7  1  0
  3  2  1  0
  4  3  2  0
  5  4  1  0
  5  6  2  0
  6  1  1  0
  7  9  1  0
  7  8  1  0
  9  8  1  0
  9 10  1  0
 10 19  1  0
 11 10  2  0
 11 12  1  0
 12 13  2  0
 13 18  1  0
 13 14  1  0
 14 15  2  0
 15 16  1  0
 17 16  2  0
 18 17  1  0
 19 18  2  0
 20 22  1  0
 20  5  1  0
 21 20  1  0
 21 22  1  0
 23 24  2  0
 23 22  1  0
 25 24  1  0
 26 25  2  0
 27 26  1  0
 27 28  2  0
 28 23  1  0
  1 29  1  0
  3 30  1  0
  7 31  1  6
  8 32  1  0
  8 33  1  0
  9 34  1  6
 11 35  1  0
 12 36  1  0
 15 37  1  0
 16 38  1  0
 17 39  1  0
 19 40  1  0
 20 41  1  6
 21 42  1  0
 21 43  1  0
 22 44  1  1
 24 45  1  0
 25 46  1  0
 26 47  1  0
 27 48  1  0
 28 49  1  0
M  ISO  8  29  14  30  14  31  13  32  13  33  13  34  13  35  14  36  14
M  ISO  8  37  14  38  14  39  14  40  14  41  13  42  13  43  13  44  13
M  ISO  5  45  14  46  14  47  14  48  14  49  14
M  END
>  <minimizedAffinity>  (1) 
-6.92373705

>  <minimizedRMSD>  (1) 
9.39998341

$$$$
