
     RDKit          3D

 36 39  0  0  0  0  0  0  0  0999 V2000
   46.0700   32.7120   47.0940 C   0  0  0  0  0  0  0  0  0  0  0  0
   44.9790   32.3410   47.8440 C   0  0  0  0  0  0  0  0  0  0  0  0
   45.1320   31.5280   48.9450 C   0  0  0  0  0  0  0  0  0  0  0  0
   46.4060   31.1100   49.2570 C   0  0  0  0  0  0  0  0  0  0  0  0
   47.4760   31.5100   48.4730 C   0  0  0  0  0  0  0  0  0  0  0  0
   47.3300   32.3090   47.3890 N   0  0  0  0  0  0  0  0  0  0  0  0
   48.8410   31.0910   48.7680 C   0  0  0  0  0  0  0  0  0  0  0  0
   49.3050   29.8950   48.2760 C   0  0  0  0  0  0  0  0  0  0  0  0
   50.5980   29.4120   48.5060 C   0  0  0  0  0  0  0  0  0  0  0  0
   51.4600   30.1840   49.2770 C   0  0  0  0  0  0  0  0  0  0  0  0
   51.0230   31.3880   49.7860 C   0  0  0  0  0  0  0  0  0  0  0  0
   49.7460   31.8010   49.5210 C   0  0  0  0  0  0  0  0  0  0  0  0
   44.7550   35.3050   44.8290 C   0  0  0  0  0  0  0  0  0  0  0  0
   45.5550   35.1680   43.6690 C   0  0  0  0  0  0  0  0  0  0  0  0
   46.5190   34.1860   43.7190 C   0  0  0  0  0  0  0  0  0  0  0  0
   46.6750   33.4010   44.8360 N   0  0  0  0  0  0  0  0  0  0  0  0
   45.8740   33.5730   45.9350 C   0  0  0  0  0  0  0  0  0  0  0  0
   44.9200   34.5260   45.9190 N   0  0  0  0  0  0  0  0  0  0  0  0
   47.3950   33.9390   42.5330 C   0  0  0  0  0  0  0  0  0  0  0  0
   48.7580   34.6220   42.6480 C   0  0  0  0  0  0  0  0  0  0  0  0
   48.5410   33.0740   42.6760 C   0  0  0  0  0  0  0  0  0  0  0  0
   43.9767   32.6961   47.5626 H   0  0  0  0  0  0  0  0  0  0  0  0
   44.2674   31.2236   49.5532 H   0  0  0  0  0  0  0  0  0  0  0  0
   46.5743   30.4592   50.1277 H   0  0  0  0  0  0  0  0  0  0  0  0
   48.6224   29.2834   47.6677 H   0  0  0  0  0  0  0  0  0  0  0  0
   50.9236   28.4479   48.0883 H   0  0  0  0  0  0  0  0  0  0  0  0
   52.4838   29.8362   49.4793 H   0  0  0  0  0  0  0  0  0  0  0  0
   51.6931   32.0095   50.3981 H   0  0  0  0  0  0  0  0  0  0  0  0
   49.4216   32.7657   49.9383 H   0  0  0  0  0  0  0  0  0  0  0  0
   43.9696   36.0750   44.8426 H   0  0  0  0  0  0  0  0  0  0  0  0
   45.4153   35.8057   42.7837 H   0  0  0  0  0  0  0  0  0  0  0  0
   46.5692   33.9296   41.8064 H   0  0  0  0  0  0  0  0  0  0  0  0
   49.2176   35.1091   41.7754 H   0  0  0  0  0  0  0  0  0  0  0  0
   49.2244   35.3790   43.2957 H   0  0  0  0  0  0  0  0  0  0  0  0
   48.6928   32.5170   43.6123 H   0  0  0  0  0  0  0  0  0  0  0  0
   48.9455   32.2272   42.1021 H   0  0  0  0  0  0  0  0  0  0  0  0
  1  6  1  0
  1  2  2  0
  2  3  1  0
  3  4  2  0
  5  7  1  0
  5  4  1  0
  6  5  2  0
  7 12  2  0
  8  9  2  0
  8  7  1  0
  9 10  1  0
 10 11  2  0
 12 11  1  0
 13 18  2  0
 14 15  2  0
 14 13  1  0
 15 16  1  0
 16 17  2  0
 17  1  1  0
 18 17  1  0
 19 20  1  0
 19 21  1  0
 19 15  1  0
 20 21  1  0
  2 22  1  0
  3 23  1  0
  4 24  1  0
  8 25  1  0
  9 26  1  0
 10 27  1  0
 11 28  1  0
 12 29  1  0
 13 30  1  0
 14 31  1  0
 19 32  1  0
 20 33  1  0
 20 34  1  0
 21 35  1  0
 21 36  1  0
M  ISO  8  22  14  23  14  24  14  25  14  26  14  27  14  28  14  29  14
M  ISO  7  30  14  31  14  32  13  33  13  34  13  35  13  36  13
M  END
>  <minimizedAffinity>  (1) 
-6.23661137

>  <minimizedRMSD>  (1) 
1.55688429

$$$$
