
     RDKit          3D

 46 49  0  0  1  0  0  0  0  0999 V2000
   44.1740   33.0680   40.8840 C   0  0  0  0  0  0  0  0  0  0  0  0
   44.0980   32.0890   41.6750 O   0  0  0  0  0  0  0  0  0  0  0  0
   43.0400   33.7380   40.3090 N   0  0  0  0  0  0  0  0  0  0  0  0
   42.7520   35.1490   40.1480 C   0  0  0  0  0  0  0  0  0  0  0  0
   42.3670   35.4170   38.6810 C   0  0  0  0  0  0  0  0  0  0  0  0
   41.0950   34.6750   38.3500 C   0  0  0  0  0  0  0  0  0  0  0  0
   40.7880   33.6760   39.4280 C   0  0  0  0  0  0  0  0  0  0  0  0
   42.0060   32.8650   39.7940 C   0  0  2  0  0  0  0  0  0  0  0  0
   41.6580   31.7440   40.6950 C   0  0  0  0  0  0  0  0  0  0  0  0
   40.9330   31.9860   41.8690 C   0  0  0  0  0  0  0  0  0  0  0  0
   40.5450   31.0660   42.7970 C   0  0  0  0  0  0  0  0  0  0  0  0
   40.8930   29.7630   42.5680 C   0  0  0  0  0  0  0  0  0  0  0  0
   41.6040   29.4490   41.4390 C   0  0  0  0  0  0  0  0  0  0  0  0
   41.9760   30.4110   40.5250 C   0  0  0  0  0  0  0  0  0  0  0  0
   46.0010   33.2150   39.2580 C   0  0  0  0  0  0  0  0  0  0  0  0
   45.4920   33.5450   40.5330 C   0  0  0  0  0  0  0  0  0  0  0  0
   46.2600   34.3010   41.3950 C   0  0  0  0  0  0  0  0  0  0  0  0
   47.4820   34.7030   40.9800 N   0  0  0  0  0  0  0  0  0  0  0  0
   47.9810   34.3910   39.7560 C   0  0  0  0  0  0  0  0  0  0  0  0
   47.2290   33.6530   38.9180 N   0  0  0  0  0  0  0  0  0  0  0  0
   45.7230   34.6260   42.7000 C   0  0  0  0  0  0  0  0  0  0  0  0
   45.0370   35.7890   42.8860 C   0  0  0  0  0  0  0  0  0  0  0  0
   44.5330   36.0840   44.1340 C   0  0  0  0  0  0  0  0  0  0  0  0
   44.6970   35.2360   45.2290 C   0  0  0  0  0  0  0  0  0  0  0  0
   45.4020   34.0730   44.9780 C   0  0  0  0  0  0  0  0  0  0  0  0
   45.8760   33.8220   43.7490 N   0  0  0  0  0  0  0  0  0  0  0  0
   41.9176   35.4327   40.8062 H   0  0  0  0  0  0  0  0  0  0  0  0
   43.6391   35.7425   40.4142 H   0  0  0  0  0  0  0  0  0  0  0  0
   42.2107   36.4959   38.5344 H   0  0  0  0  0  0  0  0  0  0  0  0
   43.1757   35.0701   38.0209 H   0  0  0  0  0  0  0  0  0  0  0  0
   40.2648   35.3924   38.2710 H   0  0  0  0  0  0  0  0  0  0  0  0
   41.2236   34.1465   37.3939 H   0  0  0  0  0  0  0  0  0  0  0  0
   40.4337   34.2116   40.3211 H   0  0  0  0  0  0  0  0  0  0  0  0
   40.0163   32.9885   39.0515 H   0  0  0  0  0  0  0  0  0  0  0  0
   42.4163   32.3867   38.8924 H   0  0  0  0  0  0  0  0  0  0  0  0
   40.6461   33.0301   42.0627 H   0  0  0  0  0  0  0  0  0  0  0  0
   39.9763   31.3589   43.6919 H   0  0  0  0  0  0  0  0  0  0  0  0
   40.6057   28.9766   43.2814 H   0  0  0  0  0  0  0  0  0  0  0  0
   41.8852   28.4011   41.2576 H   0  0  0  0  0  0  0  0  0  0  0  0
   42.5435   30.1078   39.6328 H   0  0  0  0  0  0  0  0  0  0  0  0
   45.4065   32.6120   38.5559 H   0  0  0  0  0  0  0  0  0  0  0  0
   48.9815   34.7351   39.4548 H   0  0  0  0  0  0  0  0  0  0  0  0
   44.8872   36.4854   42.0478 H   0  0  0  0  0  0  0  0  0  0  0  0
   43.9799   37.0248   44.2720 H   0  0  0  0  0  0  0  0  0  0  0  0
   44.2934   35.4757   46.2238 H   0  0  0  0  0  0  0  0  0  0  0  0
   45.5746   33.3510   45.7897 H   0  0  0  0  0  0  0  0  0  0  0  0
  1  2  2  0
  3  1  1  0
  4  3  1  0
  5  4  1  0
  6  5  1  0
  6  7  1  0
  7  8  1  0
  8  3  1  0
  8  9  1  0
  9 10  2  0
 10 11  1  0
 12 11  2  0
 13 12  1  0
 14  9  1  0
 14 13  2  0
 15 16  2  0
 16  1  1  0
 16 17  1  0
 17 21  1  0
 18 17  2  0
 19 18  1  0
 20 15  1  0
 20 19  2  0
 21 22  2  0
 21 26  1  0
 22 23  1  0
 23 24  2  0
 25 24  1  0
 26 25  2  0
  4 27  1  0
  4 28  1  0
  5 29  1  0
  5 30  1  0
  6 31  1  0
  6 32  1  0
  7 33  1  0
  7 34  1  0
  8 35  1  6
 10 36  1  0
 11 37  1  0
 12 38  1  0
 13 39  1  0
 14 40  1  0
 15 41  1  0
 19 42  1  0
 22 43  1  0
 23 44  1  0
 24 45  1  0
 25 46  1  0
M  ISO  8  27  13  28  13  29  13  30  13  31  13  32  13  33  13  34  13
M  ISO  8  35  13  36  14  37  14  38  14  39  14  40  14  41  14  42  14
M  ISO  4  43  14  44  14  45  14  46  14
M  END
>  <minimizedAffinity>  (1) 
-6.1000762

>  <minimizedRMSD>  (1) 
6.41156006

$$$$
