
     RDKit          3D

 33 35  0  0  1  0  0  0  0  0999 V2000
   46.7170   34.9160   42.1480 C   0  0  2  0  0  0  0  0  0  0  0  0
   46.1880   33.9060   41.1790 C   0  0  0  0  0  0  0  0  0  0  0  0
   47.2940   33.9540   40.1280 C   0  0  0  0  0  0  0  0  0  0  0  0
   48.5640   34.1870   40.9280 C   0  0  1  0  0  0  0  0  0  0  0  0
   48.1320   34.3770   42.3670 C   0  0  0  0  0  0  0  0  0  0  0  0
   44.4010   36.0460   44.9000 C   0  0  0  0  0  0  0  0  0  0  0  0
   45.0620   36.0710   43.6650 C   0  0  0  0  0  0  0  0  0  0  0  0
   45.9570   35.0140   43.4130 C   0  0  0  0  0  0  0  0  0  0  0  0
   46.1440   34.0280   44.3590 N   0  0  0  0  0  0  0  0  0  0  0  0
   45.4710   34.0710   45.5280 C   0  0  0  0  0  0  0  0  0  0  0  0
   44.6060   35.0710   45.7990 N   0  0  0  0  0  0  0  0  0  0  0  0
   49.4420   33.0350   40.7060 C   0  0  0  0  0  0  0  0  0  0  0  0
   49.3250   32.2240   39.6000 C   0  0  0  0  0  0  0  0  0  0  0  0
   50.1700   31.1300   39.4020 C   0  0  0  0  0  0  0  0  0  0  0  0
   51.1660   30.8200   40.3220 C   0  0  0  0  0  0  0  0  0  0  0  0
   51.2990   31.6220   41.4360 C   0  0  0  0  0  0  0  0  0  0  0  0
   50.4540   32.6950   41.6090 C   0  0  0  0  0  0  0  0  0  0  0  0
   46.6553   35.9477   41.7714 H   0  0  0  0  0  0  0  0  0  0  0  0
   46.0991   32.9088   41.6346 H   0  0  0  0  0  0  0  0  0  0  0  0
   45.1755   34.1092   40.8000 H   0  0  0  0  0  0  0  0  0  0  0  0
   47.1230   34.7783   39.4200 H   0  0  0  0  0  0  0  0  0  0  0  0
   47.3403   33.0351   39.5252 H   0  0  0  0  0  0  0  0  0  0  0  0
   49.1357   35.0783   40.6302 H   0  0  0  0  0  0  0  0  0  0  0  0
   48.7692   35.1035   42.8924 H   0  0  0  0  0  0  0  0  0  0  0  0
   48.1933   33.4747   42.9931 H   0  0  0  0  0  0  0  0  0  0  0  0
   43.6913   36.8513   45.1404 H   0  0  0  0  0  0  0  0  0  0  0  0
   44.8909   36.8731   42.9319 H   0  0  0  0  0  0  0  0  0  0  0  0
   45.6302   33.2773   46.2728 H   0  0  0  0  0  0  0  0  0  0  0  0
   48.5469   32.4430   38.8539 H   0  0  0  0  0  0  0  0  0  0  0  0
   50.0461   30.5045   38.5057 H   0  0  0  0  0  0  0  0  0  0  0  0
   51.8304   29.9575   40.1651 H   0  0  0  0  0  0  0  0  0  0  0  0
   52.0768   31.4053   42.1830 H   0  0  0  0  0  0  0  0  0  0  0  0
   50.5819   33.3186   42.5061 H   0  0  0  0  0  0  0  0  0  0  0  0
  1  5  1  0
  1  8  1  0
  2  1  1  0
  3  4  1  0
  3  2  1  0
  4  5  1  0
  6 11  2  0
  7  6  1  0
  8  7  2  0
  8  9  1  0
  9 10  2  0
 10 11  1  0
 12  4  1  0
 12 17  1  0
 13 12  2  0
 14 13  1  0
 14 15  2  0
 15 16  1  0
 16 17  2  0
  1 18  1  6
  2 19  1  0
  2 20  1  0
  3 21  1  0
  3 22  1  0
  4 23  1  6
  5 24  1  0
  5 25  1  0
  6 26  1  0
  7 27  1  0
 10 28  1  0
 13 29  1  0
 14 30  1  0
 15 31  1  0
 16 32  1  0
 17 33  1  0
M  ISO  8  18  13  19  13  20  13  21  13  22  13  23  13  24  13  25  13
M  ISO  8  26  14  27  14  28  14  29  14  30  14  31  14  32  14  33  14
M  END
>  <minimizedAffinity>  (1) 
-4.8744812

>  <minimizedRMSD>  (1) 
1.59949696

$$$$
