
     RDKit          3D

 33 35  0  0  1  0  0  0  0  0999 V2000
   48.8540   35.1400   41.4650 C   0  0  1  0  0  0  0  0  0  0  0  0
   49.7720   34.9660   42.5690 C   0  0  0  0  0  0  0  0  0  0  0  0
   49.3990   33.8740   41.5720 C   0  0  1  0  0  0  0  0  0  0  0  0
   49.6360   32.6060   42.1590 C   0  0  0  0  0  0  0  0  0  0  0  0
   50.9330   32.0710   42.0700 C   0  0  0  0  0  0  0  0  0  0  0  0
   51.3350   30.8310   42.5980 C   0  0  0  0  0  0  0  0  0  0  0  0
   50.3040   30.1760   43.2260 C   0  0  0  0  0  0  0  0  0  0  0  0
   48.9980   30.5740   43.3870 C   0  0  0  0  0  0  0  0  0  0  0  0
   48.7250   31.7820   42.8410 C   0  0  0  0  0  0  0  0  0  0  0  0
   47.4100   35.4700   41.7610 C   0  0  0  0  0  0  0  0  0  0  0  0
   46.8790   34.1810   42.3090 C   0  0  0  0  0  0  0  0  0  0  0  0
   44.5290   35.8650   44.7150 C   0  0  0  0  0  0  0  0  0  0  0  0
   45.2620   35.5700   43.5280 C   0  0  0  0  0  0  0  0  0  0  0  0
   46.0740   34.4710   43.5370 C   0  0  0  0  0  0  0  0  0  0  0  0
   46.1500   33.7070   44.6630 N   0  0  0  0  0  0  0  0  0  0  0  0
   45.4630   33.9940   45.7550 C   0  0  0  0  0  0  0  0  0  0  0  0
   44.6580   35.0600   45.7940 N   0  0  0  0  0  0  0  0  0  0  0  0
   48.7933   35.8201   40.6026 H   0  0  0  0  0  0  0  0  0  0  0  0
   50.7697   35.4288   42.5490 H   0  0  0  0  0  0  0  0  0  0  0  0
   49.7509   35.0992   43.6607 H   0  0  0  0  0  0  0  0  0  0  0  0
   49.3833   33.2174   40.6896 H   0  0  0  0  0  0  0  0  0  0  0  0
   51.6931   32.6692   41.5463 H   0  0  0  0  0  0  0  0  0  0  0  0
   52.3569   30.4319   42.5173 H   0  0  0  0  0  0  0  0  0  0  0  0
   50.5584   29.1978   43.6601 H   0  0  0  0  0  0  0  0  0  0  0  0
   48.2449   29.9671   43.9109 H   0  0  0  0  0  0  0  0  0  0  0  0
   47.6943   32.1531   42.9404 H   0  0  0  0  0  0  0  0  0  0  0  0
   47.3326   36.2777   42.5037 H   0  0  0  0  0  0  0  0  0  0  0  0
   46.8567   35.8291   40.8807 H   0  0  0  0  0  0  0  0  0  0  0  0
   46.2416   33.6944   41.5561 H   0  0  0  0  0  0  0  0  0  0  0  0
   47.7143   33.5109   42.5607 H   0  0  0  0  0  0  0  0  0  0  0  0
   43.8639   36.7404   44.7527 H   0  0  0  0  0  0  0  0  0  0  0  0
   45.1766   36.2061   42.6346 H   0  0  0  0  0  0  0  0  0  0  0  0
   45.5548   33.3486   46.6411 H   0  0  0  0  0  0  0  0  0  0  0  0
  1  3  1  0
  1 10  1  0
  1  2  1  0
  3  4  1  0
  3  2  1  0
  4  9  1  0
  5  4  2  0
  5  6  1  0
  6  7  2  0
  7  8  1  0
  9  8  2  0
 10 11  1  0
 11 14  1  0
 12 17  2  0
 13 14  2  0
 13 12  1  0
 14 15  1  0
 15 16  2  0
 16 17  1  0
  1 18  1  6
  2 19  1  0
  2 20  1  0
  3 21  1  6
  5 22  1  0
  6 23  1  0
  7 24  1  0
  8 25  1  0
  9 26  1  0
 10 27  1  0
 10 28  1  0
 11 29  1  0
 11 30  1  0
 12 31  1  0
 13 32  1  0
 16 33  1  0
M  ISO  8  18  13  19  13  20  13  21  13  22  14  23  14  24  14  25  14
M  ISO  8  26  14  27   8  28   8  29   8  30   8  31  14  32  14  33  14
M  END
>  <minimizedAffinity>  (1) 
-4.8502717

>  <minimizedRMSD>  (1) 
0.717054069

$$$$
