
     RDKit          3D

 26 27  0  0  0  0  0  0  0  0999 V2000
   46.8110   34.8640   42.7420 C   0  0  0  0  0  0  0  0  0  0  0  0
   47.1900   33.8140   43.5970 C   0  0  0  0  0  0  0  0  0  0  0  0
   46.3910   33.5490   44.7110 C   0  0  0  0  0  0  0  0  0  0  0  0
   45.3010   34.3220   44.8950 N   0  0  0  0  0  0  0  0  0  0  0  0
   44.9460   35.3180   44.0790 C   0  0  0  0  0  0  0  0  0  0  0  0
   45.7040   35.5850   43.0040 N   0  0  0  0  0  0  0  0  0  0  0  0
   46.8030   32.4550   45.5840 C   0  0  0  0  0  0  0  0  0  0  0  0
   46.9910   32.8080   46.9240 C   0  0  0  0  0  0  0  0  0  0  0  0
   47.3820   31.7970   47.7830 C   0  0  0  0  0  0  0  0  0  0  0  0
   47.5940   30.4860   47.3990 C   0  0  0  0  0  0  0  0  0  0  0  0
   47.3910   30.2110   46.0600 C   0  0  0  0  0  0  0  0  0  0  0  0
   47.0050   31.1450   45.1430 C   0  0  0  0  0  0  0  0  0  0  0  0
   48.3390   33.1220   43.2600 O   0  0  0  0  0  0  0  0  0  0  0  0
   50.8220   32.9890   42.3590 O   0  0  0  0  0  0  0  0  0  0  0  0
   49.6370   33.8960   42.4430 P   0  0  0  0  0  0  0  0  0  0  0  0
   49.1850   34.3010   40.8560 O   0  0  0  0  0  0  0  0  0  0  0  0
   50.0910   35.3090   43.2600 O   0  0  0  0  0  0  0  0  0  0  0  0
   47.4205   35.0972   41.8565 H   0  0  0  0  0  0  0  0  0  0  0  0
   44.0436   35.9121   44.2854 H   0  0  0  0  0  0  0  0  0  0  0  0
   46.8357   33.8381   47.2772 H   0  0  0  0  0  0  0  0  0  0  0  0
   47.5344   32.0530   48.8419 H   0  0  0  0  0  0  0  0  0  0  0  0
   47.9048   29.7104   48.1144 H   0  0  0  0  0  0  0  0  0  0  0  0
   47.5498   29.1793   45.7132 H   0  0  0  0  0  0  0  0  0  0  0  0
   46.8572   30.8742   44.0872 H   0  0  0  0  0  0  0  0  0  0  0  0
   48.4479   34.9614   40.8812 H   0  0  0  0  0  0  0  0  0  0  0  0
   50.0417   35.1557   44.2368 H   0  0  0  0  0  0  0  0  0  0  0  0
  1  6  2  0
  1  2  1  0
  2  3  2  0
  3  4  1  0
  3  7  1  0
  5  4  2  0
  6  5  1  0
  7  8  2  0
  8  9  1  0
 10  9  2  0
 11 10  1  0
 12  7  1  0
 12 11  2  0
 13  2  1  0
 14 15  2  0
 15 17  1  0
 15 13  1  0
 16 15  1  0
  1 18  1  0
  5 19  1  0
  8 20  1  0
  9 21  1  0
 10 22  1  0
 11 23  1  0
 12 24  1  0
 16 25  1  0
 17 26  1  0
M  ISO  8  18  14  19  14  20  14  21  14  22  14  23  14  24  14  25   3
M  ISO  1  26   3
M  END
>  <minimizedAffinity>  (1) 
-5.4684701

>  <minimizedRMSD>  (1) 
0.590791345

$$$$
