
     RDKit          3D

 36 38  0  0  1  0  0  0  0  0999 V2000
   47.1580   34.0580   42.4680 C   0  0  2  0  0  0  0  0  0  0  0  0
   48.5320   34.5710   42.6530 C   0  0  0  0  0  0  0  0  0  0  0  0
   48.9310   35.5990   41.6450 C   0  0  0  0  0  0  0  0  0  0  0  0
   48.7330   35.1340   40.2150 C   0  0  0  0  0  0  0  0  0  0  0  0
   47.4660   34.3780   39.9990 C   0  0  0  0  0  0  0  0  0  0  0  0
   46.5100   34.4840   41.1650 C   0  0  1  0  0  0  0  0  0  0  0  0
   46.2580   34.4660   43.5650 C   0  0  0  0  0  0  0  0  0  0  0  0
   45.5570   35.6710   43.3660 C   0  0  0  0  0  0  0  0  0  0  0  0
   44.6850   36.1430   44.3530 C   0  0  0  0  0  0  0  0  0  0  0  0
   44.5650   35.3860   45.4750 N   0  0  0  0  0  0  0  0  0  0  0  0
   45.2500   34.2250   45.6500 C   0  0  0  0  0  0  0  0  0  0  0  0
   46.0960   33.7700   44.6900 N   0  0  0  0  0  0  0  0  0  0  0  0
   45.4230   33.5020   40.8900 C   0  0  0  0  0  0  0  0  0  0  0  0
   44.1350   33.9190   40.5610 C   0  0  0  0  0  0  0  0  0  0  0  0
   43.1330   33.0030   40.3080 C   0  0  0  0  0  0  0  0  0  0  0  0
   43.4120   31.6630   40.3820 C   0  0  0  0  0  0  0  0  0  0  0  0
   44.6800   31.2270   40.7050 C   0  0  0  0  0  0  0  0  0  0  0  0
   45.6790   32.1490   40.9580 C   0  0  0  0  0  0  0  0  0  0  0  0
   47.2878   32.9657   42.4573 H   0  0  0  0  0  0  0  0  0  0  0  0
   48.6026   35.0209   43.6543 H   0  0  0  0  0  0  0  0  0  0  0  0
   49.2133   33.7166   42.5272 H   0  0  0  0  0  0  0  0  0  0  0  0
   48.3250   36.5026   41.8070 H   0  0  0  0  0  0  0  0  0  0  0  0
   50.0047   35.7951   41.7819 H   0  0  0  0  0  0  0  0  0  0  0  0
   48.7254   36.0181   39.5605 H   0  0  0  0  0  0  0  0  0  0  0  0
   49.5601   34.4467   39.9837 H   0  0  0  0  0  0  0  0  0  0  0  0
   46.9695   34.7748   39.1012 H   0  0  0  0  0  0  0  0  0  0  0  0
   47.7310   33.3164   39.8857 H   0  0  0  0  0  0  0  0  0  0  0  0
   46.1693   35.5251   41.2646 H   0  0  0  0  0  0  0  0  0  0  0  0
   45.6949   36.2407   42.4352 H   0  0  0  0  0  0  0  0  0  0  0  0
   44.1241   37.0808   44.2269 H   0  0  0  0  0  0  0  0  0  0  0  0
   45.1179   33.6488   46.5776 H   0  0  0  0  0  0  0  0  0  0  0  0
   43.9127   34.9947   40.5018 H   0  0  0  0  0  0  0  0  0  0  0  0
   42.1202   33.3456   40.0494 H   0  0  0  0  0  0  0  0  0  0  0  0
   42.6176   30.9289   40.1820 H   0  0  0  0  0  0  0  0  0  0  0  0
   44.8958   30.1498   40.7611 H   0  0  0  0  0  0  0  0  0  0  0  0
   46.6893   31.7990   41.2164 H   0  0  0  0  0  0  0  0  0  0  0  0
  1  2  1  0
  1  7  1  0
  3  2  1  0
  4  3  1  0
  5  4  1  0
  5  6  1  0
  6  1  1  0
  7 12  1  0
  8  7  2  0
  8  9  1  0
  9 10  2  0
 10 11  1  0
 12 11  2  0
 13 18  1  0
 13  6  1  0
 14 13  2  0
 15 16  2  0
 15 14  1  0
 16 17  1  0
 17 18  2  0
  1 19  1  6
  2 20  1  0
  2 21  1  0
  3 22  1  0
  3 23  1  0
  4 24  1  0
  4 25  1  0
  5 26  1  0
  5 27  1  0
  6 28  1  1
  8 29  1  0
  9 30  1  0
 11 31  1  0
 14 32  1  0
 15 33  1  0
 16 34  1  0
 17 35  1  0
 18 36  1  0
M  ISO  8  19  13  20  13  21  13  22  13  23  13  24  13  25  13  26  13
M  ISO  8  27  13  28  13  29  14  30  14  31  14  32  14  33  14  34  14
M  ISO  2  35  14  36  14
M  END
>  <minimizedAffinity>  (1) 
-5.38091135

>  <minimizedRMSD>  (1) 
5.52750301

$$$$
