
     RDKit          3D

 18 18  0  0  0  0  0  0  0  0999 V2000
   45.8500   35.3990   42.9230 C   0  0  0  0  0  0  0  0  0  0  0  0
   46.2710   34.2210   43.5360 C   0  0  0  0  0  0  0  0  0  0  0  0
   45.7640   33.9360   44.8150 C   0  0  0  0  0  0  0  0  0  0  0  0
   44.8970   34.8100   45.3910 N   0  0  0  0  0  0  0  0  0  0  0  0
   44.5190   35.9470   44.7470 C   0  0  0  0  0  0  0  0  0  0  0  0
   44.9860   36.2390   43.5330 N   0  0  0  0  0  0  0  0  0  0  0  0
   47.1810   33.3330   42.8950 C   0  0  0  0  0  0  0  0  0  0  0  0
   46.7300   32.6230   41.9470 O   0  0  0  0  0  0  0  0  0  0  0  0
   48.5140   33.2480   43.2950 O   0  0  0  0  0  0  0  0  0  0  0  0
   50.9740   32.9920   42.2660 O   0  0  0  0  0  0  0  0  0  0  0  0
   49.8020   33.9190   42.3510 P   0  0  0  0  0  0  0  0  0  0  0  0
   50.2590   35.3500   43.1600 O   0  0  0  0  0  0  0  0  0  0  0  0
   49.2190   34.3980   40.8420 O   0  0  0  0  0  0  0  0  0  0  0  0
   46.2291   35.6502   41.9214 H   0  0  0  0  0  0  0  0  0  0  0  0
   46.0644   33.0187   45.3426 H   0  0  0  0  0  0  0  0  0  0  0  0
   43.8160   36.6372   45.2363 H   0  0  0  0  0  0  0  0  0  0  0  0
   50.2128   35.2052   44.1383 H   0  0  0  0  0  0  0  0  0  0  0  0
   48.4599   35.0217   40.9643 H   0  0  0  0  0  0  0  0  0  0  0  0
  1  6  2  0
  1  2  1  0
  2  3  2  0
  3  4  1  0
  5  4  2  0
  6  5  1  0
  7  9  1  0
  7  2  1  0
  8  7  2  0
 10 11  2  0
 11 12  1  0
 11  9  1  0
 13 11  1  0
  1 14  1  0
  3 15  1  0
  5 16  1  0
 12 17  1  0
 13 18  1  0
M  ISO  5  14  14  15  14  16  14  17   3  18   3
M  END
>  <minimizedAffinity>  (1) 
-4.66388273

>  <minimizedRMSD>  (1) 
3.38323975

$$$$
