
     RDKit          3D

 37 39  0  0  1  0  0  0  0  0999 V2000
   47.4890   33.6050   39.8660 C   0  0  0  0  0  0  0  0  0  0  0  0
   48.4010   34.3610   39.1150 C   0  0  0  0  0  0  0  0  0  0  0  0
   48.0480   34.2840   37.7820 C   0  0  0  0  0  0  0  0  0  0  0  0
   46.9460   33.4910   37.7820 C   0  0  0  0  0  0  0  0  0  0  0  0
   46.6270   33.0990   39.0050 O   0  0  0  0  0  0  0  0  0  0  0  0
   46.1950   33.1160   36.5630 C   0  0  2  0  0  0  0  0  0  0  0  0
   45.7400   31.7430   36.3620 C   0  0  0  0  0  0  0  0  0  0  0  0
   46.9760   32.1400   35.6390 C   0  0  1  0  0  0  0  0  0  0  0  0
   47.9500   32.5270   33.3830 C   0  0  0  0  0  0  0  0  0  0  0  0
   49.1310   32.3660   33.8040 O   0  0  0  0  0  0  0  0  0  0  0  0
   46.8080   32.4550   34.2220 N   0  0  0  0  0  0  0  0  0  0  0  0
   47.3950   33.3540   41.2600 O   0  0  0  0  0  0  0  0  0  0  0  0
   47.3920   34.4500   42.1470 C   0  0  0  0  0  0  0  0  0  0  0  0
   47.9700   35.4990   41.7320 O   0  0  0  0  0  0  0  0  0  0  0  0
   46.7510   34.2670   43.3970 C   0  0  0  0  0  0  0  0  0  0  0  0
   45.5980   34.9530   43.5940 C   0  0  0  0  0  0  0  0  0  0  0  0
   44.9240   34.8130   44.8030 C   0  0  0  0  0  0  0  0  0  0  0  0
   45.4510   33.9950   45.7290 N   0  0  0  0  0  0  0  0  0  0  0  0
   46.5870   33.3280   45.5180 C   0  0  0  0  0  0  0  0  0  0  0  0
   47.2060   33.4860   44.3490 N   0  0  0  0  0  0  0  0  0  0  0  0
   46.9910   32.5360   46.5660 O   0  0  0  0  0  0  0  0  0  0  0  0
   45.0790   30.9750   47.3990 O   0  0  0  0  0  0  0  0  0  0  0  0
   45.8890   32.1900   47.8130 P   0  0  0  0  0  0  0  0  0  0  0  0
   46.7170   31.7650   49.2280 O   0  0  0  0  0  0  0  0  0  0  0  0
   44.8030   33.4370   48.1120 O   0  0  0  0  0  0  0  0  0  0  0  0
   49.2557   34.9222   39.5205 H   0  0  0  0  0  0  0  0  0  0  0  0
   48.5442   34.7554   36.9208 H   0  0  0  0  0  0  0  0  0  0  0  0
   45.6800   34.0856   36.4955 H   0  0  0  0  0  0  0  0  0  0  0  0
   45.8079   31.0251   37.1926 H   0  0  0  0  0  0  0  0  0  0  0  0
   44.7846   31.3032   36.0399 H   0  0  0  0  0  0  0  0  0  0  0  0
   47.9956   31.7346   35.5607 H   0  0  0  0  0  0  0  0  0  0  0  0
   47.8002   32.7332   32.3129 H   0  0  0  0  0  0  0  0  0  0  0  0
   45.8683   32.6234   33.8354 H   0  0  0  0  0  0  0  0  0  0  0  0
   45.2006   35.6118   42.8078 H   0  0  0  0  0  0  0  0  0  0  0  0
   43.9870   35.3563   44.9950 H   0  0  0  0  0  0  0  0  0  0  0  0
   46.1846   32.0383   50.0166 H   0  0  0  0  0  0  0  0  0  0  0  0
   44.6988   33.5566   49.0892 H   0  0  0  0  0  0  0  0  0  0  0  0
  1 12  1  0
  2  1  2  0
  3  2  1  0
  4  3  2  0
  4  5  1  0
  5  1  1  0
  6  4  1  0
  7  6  1  0
  8  7  1  0
  8  6  1  0
  9 10  2  0
  9 11  1  0
 11  8  1  0
 12 13  1  0
 13 15  1  0
 14 13  2  0
 15 16  2  0
 15 20  1  0
 16 17  1  0
 17 18  2  0
 19 18  1  0
 19 21  1  0
 20 19  2  0
 21 23  1  0
 22 23  2  0
 23 25  1  0
 23 24  1  0
  2 26  1  0
  3 27  1  0
  6 28  1  6
  7 29  1  0
  7 30  1  0
  8 31  1  1
  9 32  1  0
 11 33  1  0
 16 34  1  0
 17 35  1  0
 24 36  1  0
 25 37  1  0
M  ISO  8  26  14  27  14  28  13  29  13  30  13  31  13  32   6  34  14
M  ISO  3  35  14  36   3  37   3
M  END
>  <minimizedAffinity>  (1) 
-5.78421545

>  <minimizedRMSD>  (1) 
1.14237571

$$$$
