
     RDKit          3D

 43 45  0  0  1  0  0  0  0  0999 V2000
   42.8020   34.2770   39.0330 C   0  0  1  0  0  0  0  0  0  0  0  0
   43.0650   35.1800   40.2290 C   0  0  1  0  0  0  0  0  0  0  0  0
   41.8320   35.7090   40.6620 O   0  0  0  0  0  0  0  0  0  0  0  0
   40.9620   35.9810   39.6040 C   0  0  0  0  0  0  0  0  0  0  0  0
   40.4650   34.7200   38.9340 C   0  0  2  0  0  0  0  0  0  0  0  0
   41.5010   33.5930   39.2910 C   0  0  1  0  0  0  0  0  0  0  0  0
   42.7350   35.0290   37.8520 O   0  0  0  0  0  0  0  0  0  0  0  0
   40.5340   34.8550   37.5580 O   0  0  0  0  0  0  0  0  0  0  0  0
   43.4320   34.3140   41.2720 O   0  0  0  0  0  0  0  0  0  0  0  0
   44.5860   34.3670   41.9430 C   0  0  0  0  0  0  0  0  0  0  0  0
   45.8030   34.5080   41.2810 C   0  0  0  0  0  0  0  0  0  0  0  0
   46.9770   34.5600   42.0060 C   0  0  0  0  0  0  0  0  0  0  0  0
   46.9130   34.4700   43.3800 N   0  0  0  0  0  0  0  0  0  0  0  0
   45.7130   34.3320   44.0030 C   0  0  0  0  0  0  0  0  0  0  0  0
   44.5600   34.2820   43.2850 N   0  0  0  0  0  0  0  0  0  0  0  0
   48.3150   34.6920   41.3440 C   0  0  0  0  0  0  0  0  0  0  0  0
   49.0440   36.0180   41.5380 C   0  0  0  0  0  0  0  0  0  0  0  0
   49.5170   34.6680   42.1200 C   0  0  0  0  0  0  0  0  0  0  0  0
   41.2050   32.5190   38.5410 O   0  0  0  0  0  0  0  0  0  0  0  0
   40.1080   31.7260   38.5910 C   0  0  0  0  0  0  0  0  0  0  0  0
   39.3900   31.4930   37.5230 O   0  0  0  0  0  0  0  0  0  0  0  0
   39.2970   30.9340   39.4100 O   0  0  0  0  0  0  0  0  0  0  0  0
   37.6340   30.5090   41.3830 O   0  0  0  0  0  0  0  0  0  0  0  0
   38.6500   31.5290   40.8800 P   0  0  0  0  0  0  0  0  0  0  0  0
   38.0290   33.0710   40.7590 O   0  0  0  0  0  0  0  0  0  0  0  0
   39.8910   31.5140   42.0610 O   0  0  0  0  0  0  0  0  0  0  0  0
   43.6144   33.5463   38.9064 H   0  0  0  0  0  0  0  0  0  0  0  0
   43.7999   35.9605   39.9825 H   0  0  0  0  0  0  0  0  0  0  0  0
   40.0977   36.5406   39.9911 H   0  0  0  0  0  0  0  0  0  0  0  0
   41.5149   36.5661   38.8543 H   0  0  0  0  0  0  0  0  0  0  0  0
   39.4348   34.5070   39.2554 H   0  0  0  0  0  0  0  0  0  0  0  0
   41.5092   33.1917   40.3151 H   0  0  0  0  0  0  0  0  0  0  0  0
   42.6494   35.9894   38.0767 H   0  0  0  0  0  0  0  0  0  0  0  0
   40.9727   35.7133   37.3322 H   0  0  0  0  0  0  0  0  0  0  0  0
   45.8290   34.5778   40.1835 H   0  0  0  0  0  0  0  0  0  0  0  0
   45.6745   34.2600   45.1000 H   0  0  0  0  0  0  0  0  0  0  0  0
   47.9844   34.0974   40.4796 H   0  0  0  0  0  0  0  0  0  0  0  0
   49.5834   36.4900   40.7036 H   0  0  0  0  0  0  0  0  0  0  0  0
   48.8013   37.0185   41.9254 H   0  0  0  0  0  0  0  0  0  0  0  0
   49.4629   34.4924   43.2045 H   0  0  0  0  0  0  0  0  0  0  0  0
   50.4543   34.0946   42.0676 H   0  0  0  0  0  0  0  0  0  0  0  0
   37.8807   33.4392   41.6660 H   0  0  0  0  0  0  0  0  0  0  0  0
   39.4867   31.5189   42.9647 H   0  0  0  0  0  0  0  0  0  0  0  0
  1  6  1  0
  1  2  1  0
  2  3  1  0
  2  9  1  0
  4  3  1  0
  5  6  1  0
  5  4  1  0
  7  1  1  0
  8  5  1  0
  9 10  1  0
 10 15  1  0
 11 10  2  0
 11 12  1  0
 12 13  2  0
 13 14  1  0
 15 14  2  0
 16 17  1  0
 16 12  1  0
 16 18  1  0
 17 18  1  0
 19 20  1  0
 19  6  1  0
 20 22  1  0
 21 20  2  0
 22 24  1  0
 24 23  2  0
 24 26  1  0
 25 24  1  0
  1 27  1  6
  2 28  1  6
  4 29  1  0
  4 30  1  0
  5 31  1  6
  6 32  1  1
  7 33  1  0
  8 34  1  0
 11 35  1  0
 14 36  1  0
 16 37  1  0
 17 38  1  0
 17 39  1  0
 18 40  1  0
 18 41  1  0
 25 42  1  0
 26 43  1  0
M  ISO  8  27  13  28  13  29  13  30  13  31  13  32  13  33   3  34   3
M  ISO  8  35  14  36  14  37  13  38  13  39  13  40  13  41  13  42   3
M  ISO  1  43   3
M  END
>  <minimizedAffinity>  (1) 
-6.37068605

>  <minimizedRMSD>  (1) 
1.64172173

$$$$
