
     RDKit          3D

 24 24  0  0  0  0  0  0  0  0999 V2000
   45.2910   30.7560   47.5460 O   0  0  0  0  0  0  0  0  0  0  0  0
   45.7950   31.9650   48.3580 P   0  0  2  0  0  0  0  0  0  0  0  0
   45.2080   31.7480   49.9240 O   0  0  0  0  0  0  0  0  0  0  0  0
   45.1240   33.3660   47.6830 O   0  0  0  0  0  0  0  0  0  0  0  0
   46.7880   33.4130   44.4530 C   0  0  0  0  0  0  0  0  0  0  0  0
   46.4370   33.0650   45.7700 C   0  0  0  0  0  0  0  0  0  0  0  0
   45.4220   33.7500   46.3940 C   0  0  0  0  0  0  0  0  0  0  0  0
   44.7960   34.7390   45.7080 N   0  0  0  0  0  0  0  0  0  0  0  0
   45.1320   35.0680   44.4550 C   0  0  0  0  0  0  0  0  0  0  0  0
   46.1240   34.4140   43.8190 N   0  0  0  0  0  0  0  0  0  0  0  0
   47.4450   32.0470   48.3280 O   0  0  0  0  0  0  0  0  0  0  0  0
   48.3800   31.4050   49.0720 C   0  0  0  0  0  0  0  0  0  0  0  0
   49.4790   32.0470   49.1960 O   0  0  0  0  0  0  0  0  0  0  0  0
   48.8770   30.3670   49.8420 O   0  0  0  0  0  0  0  0  0  0  0  0
   51.4980   30.3250   49.6100 O   0  0  0  0  0  0  0  0  0  0  0  0
   50.3730   30.3770   50.6200 P   0  0  0  0  0  0  0  0  0  0  0  0
   50.5160   31.6980   51.6390 O   0  0  0  0  0  0  0  0  0  0  0  0
   50.4400   28.9260   51.5290 O   0  0  0  0  0  0  0  0  0  0  0  0
   45.9061   32.0061   50.5768 H   0  0  0  0  0  0  0  0  0  0  0  0
   47.5981   32.8759   43.9380 H   0  0  0  0  0  0  0  0  0  0  0  0
   46.9676   32.2558   46.2932 H   0  0  0  0  0  0  0  0  0  0  0  0
   44.5945   35.8782   43.9405 H   0  0  0  0  0  0  0  0  0  0  0  0
   50.4831   31.3936   52.5805 H   0  0  0  0  0  0  0  0  0  0  0  0
   50.4301   29.1412   52.4953 H   0  0  0  0  0  0  0  0  0  0  0  0
  2  1  2  0
  2  3  1  0
  4  2  1  0
  5  6  2  0
  6  7  1  0
  7  4  1  0
  8  7  2  0
  9  8  1  0
 10  5  1  0
 10  9  2  0
 11  2  1  0
 11 12  1  0
 12 13  2  0
 12 14  1  0
 14 16  1  0
 15 16  2  0
 16 18  1  0
 16 17  1  0
  3 19  1  0
  5 20  1  0
  6 21  1  0
  9 22  1  0
 17 23  1  0
 18 24  1  0
M  ISO  6  19   3  20  14  21  14  22  14  23   3  24   3
M  END
>  <minimizedAffinity>  (1) 
-4.89075851

>  <minimizedRMSD>  (1) 
1.07336593

$$$$
