
     RDKit          3D

 29 30  0  0  1  0  0  0  0  0999 V2000
   45.8480   32.4990   45.4800 C   0  0  2  0  0  0  0  0  0  0  0  0
   47.2280   32.6170   44.9140 C   0  0  0  0  0  0  0  0  0  0  0  0
   46.9520   33.5320   43.7230 C   0  0  0  0  0  0  0  0  0  0  0  0
   45.7710   34.3830   44.1240 C   0  0  2  0  0  0  0  0  0  0  0  0
   45.4710   33.9850   45.5700 C   0  0  0  0  0  0  0  0  0  0  0  0
   45.5020   29.9490   48.2410 C   0  0  0  0  0  0  0  0  0  0  0  0
   45.5760   30.4540   46.9240 C   0  0  0  0  0  0  0  0  0  0  0  0
   45.7450   31.8280   46.7820 C   0  0  0  0  0  0  0  0  0  0  0  0
   45.8290   32.6170   47.9140 N   0  0  0  0  0  0  0  0  0  0  0  0
   45.7520   32.0790   49.1460 C   0  0  0  0  0  0  0  0  0  0  0  0
   45.5910   30.7660   49.3200 N   0  0  0  0  0  0  0  0  0  0  0  0
   44.6590   33.9770   43.3940 O   0  0  0  0  0  0  0  0  0  0  0  0
   42.7530   35.0090   41.8800 O   0  0  0  0  0  0  0  0  0  0  0  0
   44.2300   35.1310   42.2370 P   0  0  0  0  0  0  0  0  0  0  0  0
   44.6480   36.6620   42.7760 O   0  0  0  0  0  0  0  0  0  0  0  0
   45.0750   34.8570   40.7760 O   0  0  0  0  0  0  0  0  0  0  0  0
   45.1927   31.8622   44.8675 H   0  0  0  0  0  0  0  0  0  0  0  0
   47.9242   33.0783   45.6299 H   0  0  0  0  0  0  0  0  0  0  0  0
   47.7069   31.6598   44.6602 H   0  0  0  0  0  0  0  0  0  0  0  0
   46.7097   32.9366   42.8304 H   0  0  0  0  0  0  0  0  0  0  0  0
   47.8288   34.1476   43.4733 H   0  0  0  0  0  0  0  0  0  0  0  0
   45.9759   35.4535   43.9753 H   0  0  0  0  0  0  0  0  0  0  0  0
   44.4114   34.1289   45.8282 H   0  0  0  0  0  0  0  0  0  0  0  0
   45.9956   34.5649   46.3437 H   0  0  0  0  0  0  0  0  0  0  0  0
   45.3691   28.8680   48.3952 H   0  0  0  0  0  0  0  0  0  0  0  0
   45.5033   29.7907   46.0495 H   0  0  0  0  0  0  0  0  0  0  0  0
   45.8232   32.7349   50.0262 H   0  0  0  0  0  0  0  0  0  0  0  0
   44.6512   36.6739   43.7659 H   0  0  0  0  0  0  0  0  0  0  0  0
   45.9967   34.5581   40.9789 H   0  0  0  0  0  0  0  0  0  0  0  0
  1  5  1  0
  1  8  1  0
  2  1  1  0
  3  4  1  0
  3  2  1  0
  4  5  1  0
  6 11  2  0
  7  6  1  0
  8  7  2  0
  8  9  1  0
  9 10  2  0
 10 11  1  0
 12  4  1  0
 13 14  2  0
 14 15  1  0
 14 12  1  0
 16 14  1  0
  1 17  1  6
  2 18  1  0
  2 19  1  0
  3 20  1  0
  3 21  1  0
  4 22  1  1
  5 23  1  0
  5 24  1  0
  6 25  1  0
  7 26  1  0
 10 27  1  0
 15 28  1  0
 16 29  1  0
M  ISO  8  17  13  18  13  19  13  20  13  21  13  22  13  23  13  24  13
M  ISO  5  25  14  26  14  27  14  28   3  29   3
M  END
>  <minimizedAffinity>  (1) 
-4.62768841

>  <minimizedRMSD>  (1) 
5.63835478

$$$$
