
     RDKit          3D

 28 29  0  0  0  0  0  0  0  0999 V2000
   46.6190   34.7690   42.1120 C   0  0  0  0  0  0  0  0  0  0  0  0
   47.8990   35.2920   42.0060 C   0  0  0  0  0  0  0  0  0  0  0  0
   48.6730   35.1350   40.8540 C   0  0  0  0  0  0  0  0  0  0  0  0
   48.1570   34.4390   39.7830 C   0  0  0  0  0  0  0  0  0  0  0  0
   46.8950   33.9310   39.9040 C   0  0  0  0  0  0  0  0  0  0  0  0
   46.1190   34.0730   41.0260 C   0  0  0  0  0  0  0  0  0  0  0  0
   44.4170   36.1940   44.8060 C   0  0  0  0  0  0  0  0  0  0  0  0
   45.0720   36.0870   43.5620 C   0  0  0  0  0  0  0  0  0  0  0  0
   45.8990   34.9840   43.3430 C   0  0  0  0  0  0  0  0  0  0  0  0
   46.0380   34.0700   44.3230 N   0  0  0  0  0  0  0  0  0  0  0  0
   45.3890   34.2080   45.5080 C   0  0  0  0  0  0  0  0  0  0  0  0
   44.5810   35.2740   45.7410 N   0  0  0  0  0  0  0  0  0  0  0  0
   45.5410   33.2370   46.5410 N   0  0  0  0  0  0  0  0  0  0  0  0
   44.8350   33.5860   41.2200 O   0  0  0  0  0  0  0  0  0  0  0  0
   43.2840   35.6190   40.7360 O   0  0  0  0  0  0  0  0  0  0  0  0
   43.4800   34.1770   40.3630 P   0  0  0  0  0  0  0  0  0  0  0  0
   42.0840   33.3070   40.7480 O   0  0  0  0  0  0  0  0  0  0  0  0
   43.6850   34.0840   38.6890 O   0  0  0  0  0  0  0  0  0  0  0  0
   48.3184   35.8487   42.8570 H   0  0  0  0  0  0  0  0  0  0  0  0
   49.6850   35.5630   40.8024 H   0  0  0  0  0  0  0  0  0  0  0  0
   48.7414   34.2972   38.8619 H   0  0  0  0  0  0  0  0  0  0  0  0
   46.4765   33.3755   39.0518 H   0  0  0  0  0  0  0  0  0  0  0  0
   43.7605   37.0548   45.0012 H   0  0  0  0  0  0  0  0  0  0  0  0
   44.9349   36.8528   42.7843 H   0  0  0  0  0  0  0  0  0  0  0  0
   45.0430   33.3539   47.4350 H   0  0  0  0  0  0  0  0  0  0  0  0
   46.1488   32.4187   46.3932 H   0  0  0  0  0  0  0  0  0  0  0  0
   41.9918   33.2496   41.7320 H   0  0  0  0  0  0  0  0  0  0  0  0
   44.5675   33.6837   38.4863 H   0  0  0  0  0  0  0  0  0  0  0  0
  1  9  1  0
  2  1  2  0
  3  2  1  0
  4  5  1  0
  4  3  2  0
  5  6  2  0
  6 14  1  0
  6  1  1  0
  7 12  2  0
  8  7  1  0
  9  8  2  0
  9 10  1  0
 10 11  2  0
 11 12  1  0
 11 13  1  0
 16 15  2  0
 16 17  1  0
 16 14  1  0
 18 16  1  0
  2 19  1  0
  3 20  1  0
  4 21  1  0
  5 22  1  0
  7 23  1  0
  8 24  1  0
 13 25  1  0
 13 26  1  0
 17 27  1  0
 18 28  1  0
M  ISO  8  19  14  20  14  21  14  22  14  23  14  24  14  27   3  28   3
M  END
>  <minimizedAffinity>  (1) 
-5.98609447

>  <minimizedRMSD>  (1) 
0.275920242

$$$$
