
     RDKit          3D

 25 26  0  0  0  0  0  0  0  0999 V2000
   45.4470   36.2800   43.2970 C   0  0  0  0  0  0  0  0  0  0  0  0
   46.1600   35.1050   42.9910 C   0  0  0  0  0  0  0  0  0  0  0  0
   46.0220   34.0640   43.9080 C   0  0  0  0  0  0  0  0  0  0  0  0
   45.2620   34.1820   45.0000 N   0  0  0  0  0  0  0  0  0  0  0  0
   44.5880   35.3480   45.2540 C   0  0  0  0  0  0  0  0  0  0  0  0
   44.6910   36.3830   44.3960 N   0  0  0  0  0  0  0  0  0  0  0  0
   46.6990   32.8740   43.6660 C   0  0  0  0  0  0  0  0  0  0  0  0
   48.0100   32.4820   43.6260 C   0  0  0  0  0  0  0  0  0  0  0  0
   48.4150   31.2560   43.3560 C   0  0  0  0  0  0  0  0  0  0  0  0
   47.4260   30.3340   43.1030 C   0  0  0  0  0  0  0  0  0  0  0  0
   45.8870   31.3470   43.2800 S   0  0  0  0  0  0  0  0  0  0  0  0
   46.9440   35.0280   41.7950 C   0  0  0  0  0  0  0  0  0  0  0  0
   48.1010   35.5900   41.9130 O   0  0  0  0  0  0  0  0  0  0  0  0
   46.1270   34.3310   40.8610 O   0  0  0  0  0  0  0  0  0  0  0  0
   47.1300   32.0360   39.9360 O   0  0  0  0  0  0  0  0  0  0  0  0
   46.9510   33.4950   39.5810 P   0  0  0  0  0  0  0  0  0  0  0  0
   45.9750   33.5390   38.1910 O   0  0  0  0  0  0  0  0  0  0  0  0
   48.4830   34.1400   39.3160 O   0  0  0  0  0  0  0  0  0  0  0  0
   45.5135   37.1384   42.6124 H   0  0  0  0  0  0  0  0  0  0  0  0
   43.9645   35.4392   46.1556 H   0  0  0  0  0  0  0  0  0  0  0  0
   48.7784   33.2414   43.8332 H   0  0  0  0  0  0  0  0  0  0  0  0
   49.4813   30.9867   43.3344 H   0  0  0  0  0  0  0  0  0  0  0  0
   47.5247   29.2662   42.8578 H   0  0  0  0  0  0  0  0  0  0  0  0
   45.0226   33.5819   38.4578 H   0  0  0  0  0  0  0  0  0  0  0  0
   48.9188   34.3235   40.1858 H   0  0  0  0  0  0  0  0  0  0  0  0
  1  6  2  0
  2  1  1  0
  2  3  2  0
  3  4  1  0
  4  5  2  0
  6  5  1  0
  7  3  1  0
  8  7  2  0
  9  8  1  0
 10 11  1  0
 10  9  2  0
 11  7  1  0
 12 13  2  0
 12  2  1  0
 14 12  1  0
 16 15  2  0
 16 14  1  0
 17 16  1  0
 18 16  1  0
  1 19  1  0
  5 20  1  0
  8 21  1  0
  9 22  1  0
 10 23  1  0
 17 24  1  0
 18 25  1  0
M  ISO  7  19  14  20  14  21  14  22  14  23  14  24   3  25   3
M  END
>  <minimizedAffinity>  (1) 
-4.29664373

>  <minimizedRMSD>  (1) 
0.779217839

$$$$
