
     RDKit          3D

 25 26  0  0  1  0  0  0  0  0999 V2000
   47.2100   34.8330   41.6520 C   0  0  1  0  0  0  0  0  0  0  0  0
   48.6290   34.8420   41.2180 C   0  0  2  0  0  0  0  0  0  0  0  0
   47.5850   34.3990   40.2750 C   0  0  0  0  0  0  0  0  0  0  0  0
   46.9770   34.0160   43.9820 C   0  0  0  0  0  0  0  0  0  0  0  0
   46.7130   33.8160   42.6270 C   0  0  0  0  0  0  0  0  0  0  0  0
   45.9910   32.6750   42.2350 C   0  0  0  0  0  0  0  0  0  0  0  0
   45.5790   31.8080   43.2220 N   0  0  0  0  0  0  0  0  0  0  0  0
   45.8620   32.0500   44.5190 C   0  0  0  0  0  0  0  0  0  0  0  0
   46.5610   33.1500   44.9200 N   0  0  0  0  0  0  0  0  0  0  0  0
   49.5270   33.8290   41.7860 C   0  0  0  0  0  0  0  0  0  0  0  0
   50.2740   34.1650   42.6490 O   0  0  0  0  0  0  0  0  0  0  0  0
   49.4330   32.5420   41.2670 O   0  0  0  0  0  0  0  0  0  0  0  0
   50.8540   31.5340   39.2230 O   0  0  0  0  0  0  0  0  0  0  0  0
   50.8510   31.7060   40.7250 P   0  0  0  0  0  0  0  0  0  0  0  0
   52.2400   32.5330   41.2210 O   0  0  0  0  0  0  0  0  0  0  0  0
   50.8390   30.1510   41.4230 O   0  0  0  0  0  0  0  0  0  0  0  0
   46.5320   35.5813   42.0883 H   0  0  0  0  0  0  0  0  0  0  0  0
   49.4275   35.5980   41.1876 H   0  0  0  0  0  0  0  0  0  0  0  0
   47.3230   35.0263   39.4102 H   0  0  0  0  0  0  0  0  0  0  0  0
   47.4152   33.4954   39.6711 H   0  0  0  0  0  0  0  0  0  0  0  0
   47.5417   34.9081   44.2907 H   0  0  0  0  0  0  0  0  0  0  0  0
   45.7632   32.4817   41.1764 H   0  0  0  0  0  0  0  0  0  0  0  0
   45.5166   31.3345   45.2798 H   0  0  0  0  0  0  0  0  0  0  0  0
   52.2758   32.5543   42.2101 H   0  0  0  0  0  0  0  0  0  0  0  0
   50.8396   30.2322   42.4097 H   0  0  0  0  0  0  0  0  0  0  0  0
  1  5  1  0
  2  1  1  0
  2 10  1  0
  3  2  1  0
  3  1  1  0
  4  9  2  0
  5  4  1  0
  6  5  2  0
  6  7  1  0
  7  8  2  0
  8  9  1  0
 10 11  2  0
 12 10  1  0
 13 14  2  0
 14 15  1  0
 14 12  1  0
 14 16  1  0
  1 17  1  6
  2 18  1  6
  3 19  1  0
  3 20  1  0
  4 21  1  0
  6 22  1  0
  8 23  1  0
 15 24  1  0
 16 25  1  0
M  ISO  8  17  13  18  13  19  13  20  13  21  14  22  14  23  14  24   3
M  ISO  1  25   3
M  END
>  <minimizedAffinity>  (1) 
-3.86702394

>  <minimizedRMSD>  (1) 
2.93808126

$$$$
