
     RDKit          3D

 20 21  0  0  0  0  0  0  0  0999 V2000
   45.6750   34.7930   44.0640 C   0  0  0  0  0  0  0  0  0  0  0  0
   46.6270   35.0570   43.0660 C   0  0  0  0  0  0  0  0  0  0  0  0
   47.6480   34.1230   42.9700 C   0  0  0  0  0  0  0  0  0  0  0  0
   47.6820   33.0370   43.8130 N   0  0  0  0  0  0  0  0  0  0  0  0
   46.7280   32.8380   44.7610 C   0  0  0  0  0  0  0  0  0  0  0  0
   45.7200   33.7300   44.8790 N   0  0  0  0  0  0  0  0  0  0  0  0
   48.7280   34.2650   41.9330 C   0  0  0  0  0  0  0  0  0  0  0  0
   48.9720   35.7050   41.5350 C   0  0  0  0  0  0  0  0  0  0  0  0
   50.0030   34.8480   42.3250 C   0  0  0  0  0  0  0  0  0  0  0  0
   44.5560   35.7660   44.2110 C   0  0  0  0  0  0  0  0  0  0  0  0
   44.0310   35.6030   45.4980 F   0  0  0  0  0  0  0  0  0  0  0  0
   43.5910   35.4590   43.3070 F   0  0  0  0  0  0  0  0  0  0  0  0
   45.0170   37.0680   44.1400 F   0  0  0  0  0  0  0  0  0  0  0  0
   46.5675   35.9379   42.4099 H   0  0  0  0  0  0  0  0  0  0  0  0
   46.7762   31.9615   45.4239 H   0  0  0  0  0  0  0  0  0  0  0  0
   48.4897   33.3254   41.4130 H   0  0  0  0  0  0  0  0  0  0  0  0
   49.1550   35.9712   40.4835 H   0  0  0  0  0  0  0  0  0  0  0  0
   48.4612   36.6688   41.6768 H   0  0  0  0  0  0  0  0  0  0  0  0
   50.2040   35.0683   43.3838 H   0  0  0  0  0  0  0  0  0  0  0  0
   51.0587   34.5750   42.1805 H   0  0  0  0  0  0  0  0  0  0  0  0
  1 10  1  0
  1  6  2  0
  2  1  1  0
  3  2  2  0
  3  4  1  0
  4  5  2  0
  5  6  1  0
  7  9  1  0
  7  3  1  0
  8  7  1  0
  8  9  1  0
 10 11  1  0
 12 10  1  0
 13 10  1  0
  2 14  1  0
  5 15  1  0
  7 16  1  0
  8 17  1  0
  8 18  1  0
  9 19  1  0
  9 20  1  0
M  ISO  7  14  14  15  14  16  13  17  13  18  13  19  13  20  13
M  END
>  <minimizedAffinity>  (1) 
-4.68477392

>  <minimizedRMSD>  (1) 
1.6196444

$$$$
