
     RDKit          3D

 25 26  0  0  0  0  0  0  0  0999 V2000
   46.6040   34.7930   42.0940 C   0  0  0  0  0  0  0  0  0  0  0  0
   47.9280   35.2110   42.0500 C   0  0  0  0  0  0  0  0  0  0  0  0
   48.7170   35.0360   40.9060 C   0  0  0  0  0  0  0  0  0  0  0  0
   48.1730   34.4340   39.7930 C   0  0  0  0  0  0  0  0  0  0  0  0
   46.8690   34.0270   39.8520 C   0  0  0  0  0  0  0  0  0  0  0  0
   46.0780   34.1960   40.9820 C   0  0  0  0  0  0  0  0  0  0  0  0
   44.4080   36.2170   44.7940 C   0  0  0  0  0  0  0  0  0  0  0  0
   45.0580   36.1220   43.5370 C   0  0  0  0  0  0  0  0  0  0  0  0
   45.8790   35.0200   43.3210 C   0  0  0  0  0  0  0  0  0  0  0  0
   46.0110   34.1060   44.3120 N   0  0  0  0  0  0  0  0  0  0  0  0
   45.3690   34.2380   45.5000 C   0  0  0  0  0  0  0  0  0  0  0  0
   44.5700   35.2920   45.7360 N   0  0  0  0  0  0  0  0  0  0  0  0
   45.5340   33.2820   46.5340 N   0  0  0  0  0  0  0  0  0  0  0  0
   44.6690   33.7490   41.0260 C   0  0  0  0  0  0  0  0  0  0  0  0
   44.4580   32.9050   39.9400 F   0  0  0  0  0  0  0  0  0  0  0  0
   43.8450   34.8690   40.9320 F   0  0  0  0  0  0  0  0  0  0  0  0
   44.3220   33.0950   42.1740 F   0  0  0  0  0  0  0  0  0  0  0  0
   48.3680   35.6917   42.9362 H   0  0  0  0  0  0  0  0  0  0  0  0
   49.7629   35.3767   40.8965 H   0  0  0  0  0  0  0  0  0  0  0  0
   48.7710   34.2848   38.8819 H   0  0  0  0  0  0  0  0  0  0  0  0
   46.4272   33.5453   38.9673 H   0  0  0  0  0  0  0  0  0  0  0  0
   43.7531   37.0777   44.9950 H   0  0  0  0  0  0  0  0  0  0  0  0
   44.9182   36.8904   42.7624 H   0  0  0  0  0  0  0  0  0  0  0  0
   45.0377   33.4003   47.4288 H   0  0  0  0  0  0  0  0  0  0  0  0
   46.1502   32.4692   46.3904 H   0  0  0  0  0  0  0  0  0  0  0  0
  1  9  1  0
  2  1  2  0
  3  2  1  0
  4  5  1  0
  4  3  2  0
  5  6  2  0
  6 14  1  0
  6  1  1  0
  7 12  2  0
  8  7  1  0
  9  8  2  0
  9 10  1  0
 10 11  2  0
 11 12  1  0
 11 13  1  0
 14 17  1  0
 15 14  1  0
 16 14  1  0
  2 18  1  0
  3 19  1  0
  4 20  1  0
  5 21  1  0
  7 22  1  0
  8 23  1  0
 13 24  1  0
 13 25  1  0
M  ISO  6  18  14  19  14  20  14  21  14  22  14  23  14
M  END
>  <minimizedAffinity>  (1) 
-5.77269411

>  <minimizedRMSD>  (1) 
0.329402894

$$$$
