
     RDKit          3D

 26 27  0  0  1  0  0  0  0  0999 V2000
   46.5290   34.7420   41.2850 C   0  0  0  0  0  0  0  0  0  0  0  0
   47.9920   34.4810   41.0920 C   0  0  1  0  0  0  0  0  0  0  0  0
   48.9320   35.6100   41.3750 C   0  0  0  0  0  0  0  0  0  0  0  0
   48.8370   34.4610   42.2960 C   0  0  2  0  0  0  0  0  0  0  0  0
   50.0040   33.4690   42.1190 C   0  0  0  0  0  0  0  0  0  0  0  0
   49.7530   32.3630   42.9380 F   0  0  0  0  0  0  0  0  0  0  0  0
   50.0540   32.9570   40.8390 F   0  0  0  0  0  0  0  0  0  0  0  0
   51.2210   34.0310   42.3660 F   0  0  0  0  0  0  0  0  0  0  0  0
   46.0180   33.6160   42.1480 C   0  0  0  0  0  0  0  0  0  0  0  0
   44.4400   35.9280   44.6340 C   0  0  0  0  0  0  0  0  0  0  0  0
   44.8680   35.3930   43.4050 C   0  0  0  0  0  0  0  0  0  0  0  0
   45.4970   34.1800   43.4290 C   0  0  0  0  0  0  0  0  0  0  0  0
   45.6800   33.5390   44.6170 N   0  0  0  0  0  0  0  0  0  0  0  0
   45.2690   34.0550   45.7640 C   0  0  0  0  0  0  0  0  0  0  0  0
   44.6500   35.2460   45.7870 N   0  0  0  0  0  0  0  0  0  0  0  0
   46.0100   34.7464   40.3151 H   0  0  0  0  0  0  0  0  0  0  0  0
   46.3521   35.7216   41.7531 H   0  0  0  0  0  0  0  0  0  0  0  0
   47.8233   33.7992   40.2454 H   0  0  0  0  0  0  0  0  0  0  0  0
   49.8307   35.7482   40.7559 H   0  0  0  0  0  0  0  0  0  0  0  0
   48.8356   36.7013   41.4741 H   0  0  0  0  0  0  0  0  0  0  0  0
   48.6656   34.3576   43.3776 H   0  0  0  0  0  0  0  0  0  0  0  0
   45.2093   33.0870   41.6225 H   0  0  0  0  0  0  0  0  0  0  0  0
   46.8351   32.9104   42.3589 H   0  0  0  0  0  0  0  0  0  0  0  0
   43.9328   36.9038   44.6596 H   0  0  0  0  0  0  0  0  0  0  0  0
   44.7025   35.9311   42.4600 H   0  0  0  0  0  0  0  0  0  0  0  0
   45.4352   33.5058   46.7025 H   0  0  0  0  0  0  0  0  0  0  0  0
  1  9  1  0
  2  1  1  0
  2  3  1  0
  2  4  1  0
  3  4  1  0
  5  4  1  0
  5  8  1  0
  5  6  1  0
  7  5  1  0
  9 12  1  0
 10 15  2  0
 11 12  2  0
 11 10  1  0
 12 13  1  0
 13 14  2  0
 14 15  1  0
  1 16  1  0
  1 17  1  0
  2 18  1  6
  3 19  1  0
  3 20  1  0
  4 21  1  1
  9 22  1  0
  9 23  1  0
 10 24  1  0
 11 25  1  0
 14 26  1  0
M  ISO  8  16   8  17   8  18  13  19  13  20  13  21  13  22   8  23   8
M  ISO  3  24  14  25  14  26  14
M  END
>  <minimizedAffinity>  (1) 
-4.68129444

>  <minimizedRMSD>  (1) 
1.1406635

$$$$
