
     RDKit          3D

 37 40  0  0  0  0  0  0  0  0999 V2000
   47.1860   31.2680   45.1280 C   0  0  0  0  0  0  0  0  0  0  0  0
   48.1390   30.4200   44.5650 C   0  0  0  0  0  0  0  0  0  0  0  0
   48.6400   31.0090   43.4510 C   0  0  0  0  0  0  0  0  0  0  0  0
   48.0080   32.1950   43.3320 N   0  0  0  0  0  0  0  0  0  0  0  0
   47.1430   32.3330   44.3400 N   0  0  0  0  0  0  0  0  0  0  0  0
   47.3700   31.8420   40.5980 F   0  0  0  0  0  0  0  0  0  0  0  0
   47.8630   32.9980   41.0190 C   0  0  0  0  0  0  0  0  0  0  0  0
   48.1750   33.1780   42.3380 C   0  0  0  0  0  0  0  0  0  0  0  0
   48.6940   34.3910   42.7980 C   0  0  0  0  0  0  0  0  0  0  0  0
   48.9110   35.4360   41.9550 C   0  0  0  0  0  0  0  0  0  0  0  0
   48.5970   35.2510   40.6260 C   0  0  0  0  0  0  0  0  0  0  0  0
   48.0790   34.0540   40.1530 C   0  0  0  0  0  0  0  0  0  0  0  0
   47.7780   33.9620   38.7230 C   0  0  0  0  0  0  0  0  0  0  0  0
   48.4330   34.4830   37.6260 C   0  0  0  0  0  0  0  0  0  0  0  0
   47.7820   34.1340   36.4900 N   0  0  0  0  0  0  0  0  0  0  0  0
   46.7300   33.4000   36.8750 C   0  0  0  0  0  0  0  0  0  0  0  0
   46.7320   33.3000   38.2160 N   0  0  0  0  0  0  0  0  0  0  0  0
   45.4160   31.7180   48.2960 C   0  0  0  0  0  0  0  0  0  0  0  0
   45.0010   30.3980   48.5980 C   0  0  0  0  0  0  0  0  0  0  0  0
   45.3380   29.3660   47.7050 C   0  0  0  0  0  0  0  0  0  0  0  0
   46.0420   29.7530   46.6170 N   0  0  0  0  0  0  0  0  0  0  0  0
   46.4350   30.9840   46.3260 C   0  0  0  0  0  0  0  0  0  0  0  0
   46.1200   32.0090   47.1810 N   0  0  0  0  0  0  0  0  0  0  0  0
   44.9420   27.9690   47.9480 C   0  0  0  0  0  0  0  0  0  0  0  0
   44.0320   27.5670   47.0160 F   0  0  0  0  0  0  0  0  0  0  0  0
   46.1200   27.2160   47.8580 F   0  0  0  0  0  0  0  0  0  0  0  0
   44.4490   27.7740   49.2240 F   0  0  0  0  0  0  0  0  0  0  0  0
   48.4352   29.4366   44.9590 H   0  0  0  0  0  0  0  0  0  0  0  0
   49.4087   30.6010   42.7783 H   0  0  0  0  0  0  0  0  0  0  0  0
   48.9324   34.5033   43.8660 H   0  0  0  0  0  0  0  0  0  0  0  0
   49.3204   36.3898   42.3191 H   0  0  0  0  0  0  0  0  0  0  0  0
   48.7620   36.0773   39.9189 H   0  0  0  0  0  0  0  0  0  0  0  0
   49.3483   35.0917   37.6675 H   0  0  0  0  0  0  0  0  0  0  0  0
   48.0434   34.3829   35.5253 H   0  0  0  0  0  0  0  0  0  0  0  0
   45.9842   32.9511   36.2024 H   0  0  0  0  0  0  0  0  0  0  0  0
   45.1571   32.5307   48.9906 H   0  0  0  0  0  0  0  0  0  0  0  0
   44.4272   30.1849   49.5119 H   0  0  0  0  0  0  0  0  0  0  0  0
  1 22  1  0
  2  1  1  0
  3  2  2  0
  4  3  1  0
  4  5  1  0
  5  1  2  0
  6  7  1  0
  7  8  2  0
  8  9  1  0
  8  4  1  0
 10  9  2  0
 11 10  1  0
 12 11  2  0
 12  7  1  0
 13 12  1  0
 14 13  2  0
 15 16  1  0
 15 14  1  0
 16 17  2  0
 17 13  1  0
 18 19  2  0
 20 24  1  0
 20 19  1  0
 21 20  2  0
 22 21  1  0
 22 23  2  0
 23 18  1  0
 24 27  1  0
 25 24  1  0
 26 24  1  0
  2 28  1  0
  3 29  1  0
  9 30  1  0
 10 31  1  0
 11 32  1  0
 14 33  1  0
 15 34  1  0
 16 35  1  0
 18 36  1  0
 19 37  1  0
M  ISO  8  28  14  29  14  30  14  31  14  32  14  33  14  34   9  35  14
M  ISO  2  36  14  37  14
M  END
>  <minimizedAffinity>  (1) 
-6.30914402

>  <minimizedRMSD>  (1) 
4.26209736

$$$$
