
     RDKit          3D

 29 31  0  0  0  0  0  0  0  0999 V2000
   47.4290   30.8510   45.6080 C   0  0  0  0  0  0  0  0  0  0  0  0
   47.0440   32.1430   45.2890 C   0  0  0  0  0  0  0  0  0  0  0  0
   46.3940   32.8780   46.2480 C   0  0  0  0  0  0  0  0  0  0  0  0
   46.1070   32.3960   47.5080 C   0  0  0  0  0  0  0  0  0  0  0  0
   45.5100   32.8420   48.6270 N   0  0  0  0  0  0  0  0  0  0  0  0
   45.5310   31.8700   49.5790 C   0  0  0  0  0  0  0  0  0  0  0  0
   46.1550   30.8080   49.0260 N   0  0  0  0  0  0  0  0  0  0  0  0
   46.5140   31.1040   47.7670 C   0  0  0  0  0  0  0  0  0  0  0  0
   47.1660   30.3160   46.8600 C   0  0  0  0  0  0  0  0  0  0  0  0
   47.3360   34.4630   42.4820 C   0  0  0  0  0  0  0  0  0  0  0  0
   47.8830   33.6840   41.4770 C   0  0  0  0  0  0  0  0  0  0  0  0
   48.1460   32.3490   41.7890 C   0  0  0  0  0  0  0  0  0  0  0  0
   47.8650   31.8760   43.0300 N   0  0  0  0  0  0  0  0  0  0  0  0
   47.3350   32.6750   43.9680 C   0  0  0  0  0  0  0  0  0  0  0  0
   47.0660   33.9660   43.7110 N   0  0  0  0  0  0  0  0  0  0  0  0
   48.1470   34.3110   40.1610 C   0  0  0  0  0  0  0  0  0  0  0  0
   48.6340   35.5800   40.4500 F   0  0  0  0  0  0  0  0  0  0  0  0
   46.9560   34.4300   39.4920 F   0  0  0  0  0  0  0  0  0  0  0  0
   49.0310   33.5140   39.4690 F   0  0  0  0  0  0  0  0  0  0  0  0
   47.5770   28.9190   47.2170 C   0  0  0  0  0  0  0  0  0  0  0  0
   48.4470   29.0040   48.2760 F   0  0  0  0  0  0  0  0  0  0  0  0
   48.0950   28.2270   46.1650 F   0  0  0  0  0  0  0  0  0  0  0  0
   46.4710   28.2010   47.6690 F   0  0  0  0  0  0  0  0  0  0  0  0
   47.9512   30.2403   44.8568 H   0  0  0  0  0  0  0  0  0  0  0  0
   46.0860   33.9043   45.9992 H   0  0  0  0  0  0  0  0  0  0  0  0
   45.0985   33.7787   48.7458 H   0  0  0  0  0  0  0  0  0  0  0  0
   45.1208   31.9363   50.5975 H   0  0  0  0  0  0  0  0  0  0  0  0
   47.1137   35.5202   42.2747 H   0  0  0  0  0  0  0  0  0  0  0  0
   48.5803   31.6813   41.0303 H   0  0  0  0  0  0  0  0  0  0  0  0
  1  9  2  0
  2  1  1  0
  2  3  2  0
  3  4  1  0
  4  8  2  0
  4  5  1  0
  5  6  1  0
  7  6  2  0
  8  7  1  0
  9 20  1  0
  9  8  1  0
 10 15  2  0
 11 12  2  0
 11 10  1  0
 12 13  1  0
 13 14  2  0
 14  2  1  0
 15 14  1  0
 16 17  1  0
 16 11  1  0
 18 16  1  0
 19 16  1  0
 20 23  1  0
 20 21  1  0
 22 20  1  0
  1 24  1  0
  3 25  1  0
  5 26  1  0
  6 27  1  0
 10 28  1  0
 12 29  1  0
M  ISO  6  24  14  25  14  26   9  27  14  28  14  29  14
M  END
>  <minimizedAffinity>  (1) 
-5.54988813

>  <minimizedRMSD>  (1) 
0.670846999

$$$$
