
     RDKit          3D

 25 26  0  0  0  0  0  0  0  0999 V2000
   45.1340   33.3310   41.1430 F   0  0  0  0  0  0  0  0  0  0  0  0
   46.2960   33.9650   40.9810 C   0  0  0  0  0  0  0  0  0  0  0  0
   46.8020   34.7480   42.0060 C   0  0  0  0  0  0  0  0  0  0  0  0
   48.0010   35.4330   41.9050 C   0  0  0  0  0  0  0  0  0  0  0  0
   48.7560   35.3570   40.7450 C   0  0  0  0  0  0  0  0  0  0  0  0
   48.2160   34.5650   39.7440 C   0  0  0  0  0  0  0  0  0  0  0  0
   47.0330   33.8750   39.8160 C   0  0  0  0  0  0  0  0  0  0  0  0
   45.4790   33.9860   45.3630 C   0  0  0  0  0  0  0  0  0  0  0  0
   44.6550   35.1180   45.5970 C   0  0  0  0  0  0  0  0  0  0  0  0
   44.5620   36.1160   44.6150 C   0  0  0  0  0  0  0  0  0  0  0  0
   45.2850   35.9370   43.4700 N   0  0  0  0  0  0  0  0  0  0  0  0
   46.0510   34.8730   43.2670 C   0  0  0  0  0  0  0  0  0  0  0  0
   46.1390   33.9180   44.2070 N   0  0  0  0  0  0  0  0  0  0  0  0
   45.5740   32.9830   46.3450 N   0  0  0  0  0  0  0  0  0  0  0  0
   46.5390   33.0530   38.6910 C   0  0  0  0  0  0  0  0  0  0  0  0
   45.2290   33.4420   38.4320 F   0  0  0  0  0  0  0  0  0  0  0  0
   46.4880   31.7340   39.0790 F   0  0  0  0  0  0  0  0  0  0  0  0
   47.3570   33.2060   37.5930 F   0  0  0  0  0  0  0  0  0  0  0  0
   48.3564   36.0409   42.7500 H   0  0  0  0  0  0  0  0  0  0  0  0
   49.7131   35.8862   40.6276 H   0  0  0  0  0  0  0  0  0  0  0  0
   48.7876   34.4824   38.8078 H   0  0  0  0  0  0  0  0  0  0  0  0
   44.0948   35.2119   46.5390 H   0  0  0  0  0  0  0  0  0  0  0  0
   43.9326   37.0062   44.7613 H   0  0  0  0  0  0  0  0  0  0  0  0
   46.1697   32.1585   46.1830 H   0  0  0  0  0  0  0  0  0  0  0  0
   45.0479   33.0732   47.2259 H   0  0  0  0  0  0  0  0  0  0  0  0
  2  1  1  0
  2  3  2  0
  3 12  1  0
  4  3  1  0
  5  4  2  0
  6  7  2  0
  6  5  1  0
  7  2  1  0
  8  9  2  0
  8 14  1  0
 10  9  1  0
 11 10  2  0
 12 11  1  0
 12 13  2  0
 13  8  1  0
 15 17  1  0
 15  7  1  0
 16 15  1  0
 18 15  1  0
  4 19  1  0
  5 20  1  0
  6 21  1  0
  9 22  1  0
 10 23  1  0
 14 24  1  0
 14 25  1  0
M  ISO  5  19  14  20  14  21  14  22  14  23  14
M  END
>  <minimizedAffinity>  (1) 
-5.67930126

>  <minimizedRMSD>  (1) 
0.105394676

$$$$
