
     RDKit          3D

 26 27  0  0  0  0  0  0  0  0999 V2000
   46.7500   33.8280   41.5220 C   0  0  0  0  0  0  0  0  0  0  0  0
   45.5830   33.4670   42.1630 C   0  0  0  0  0  0  0  0  0  0  0  0
   44.5060   33.1530   41.3700 C   0  0  0  0  0  0  0  0  0  0  0  0
   44.5540   33.1860   39.9860 C   0  0  0  0  0  0  0  0  0  0  0  0
   45.7380   33.5520   39.3890 C   0  0  0  0  0  0  0  0  0  0  0  0
   46.8460   33.8760   40.1530 C   0  0  0  0  0  0  0  0  0  0  0  0
   45.0200   34.4470   45.7550 C   0  0  0  0  0  0  0  0  0  0  0  0
   45.0030   34.4860   44.3590 C   0  0  0  0  0  0  0  0  0  0  0  0
   45.5890   33.4500   43.6190 C   0  0  0  0  0  0  0  0  0  0  0  0
   46.1510   32.4500   44.3290 N   0  0  0  0  0  0  0  0  0  0  0  0
   46.1590   32.4260   45.6690 C   0  0  0  0  0  0  0  0  0  0  0  0
   45.5970   33.4200   46.3720 N   0  0  0  0  0  0  0  0  0  0  0  0
   44.4220   35.5040   46.4680 N   0  0  0  0  0  0  0  0  0  0  0  0
   48.1260   34.2710   39.5090 C   0  0  0  0  0  0  0  0  0  0  0  0
   48.0400   34.3450   38.1340 F   0  0  0  0  0  0  0  0  0  0  0  0
   49.0860   33.2950   39.7680 F   0  0  0  0  0  0  0  0  0  0  0  0
   48.5100   35.5040   40.0310 F   0  0  0  0  0  0  0  0  0  0  0  0
   48.8860   34.4410   42.9090 N   0  0  0  0  0  0  0  0  0  0  0  0
   47.9190   34.1710   42.2850 C   0  0  0  0  0  0  0  0  0  0  0  0
   43.5630   32.8623   41.8560 H   0  0  0  0  0  0  0  0  0  0  0  0
   43.6716   32.9272   39.3823 H   0  0  0  0  0  0  0  0  0  0  0  0
   45.8052   33.5876   38.2916 H   0  0  0  0  0  0  0  0  0  0  0  0
   44.5287   35.3315   43.8393 H   0  0  0  0  0  0  0  0  0  0  0  0
   46.6306   31.5838   46.1966 H   0  0  0  0  0  0  0  0  0  0  0  0
   43.9833   36.2850   45.9595 H   0  0  0  0  0  0  0  0  0  0  0  0
   44.4233   35.4961   47.4980 H   0  0  0  0  0  0  0  0  0  0  0  0
  1  2  2  0
  1 19  1  0
  2  9  1  0
  3  2  1  0
  4  3  2  0
  5  4  1  0
  5  6  2  0
  6  1  1  0
  7 12  2  0
  7 13  1  0
  8  7  1  0
  9 10  1  0
  9  8  2  0
 10 11  2  0
 11 12  1  0
 14 16  1  0
 14 17  1  0
 14  6  1  0
 15 14  1  0
 19 18  3  0
  3 20  1  0
  4 21  1  0
  5 22  1  0
  8 23  1  0
 11 24  1  0
 13 25  1  0
 13 26  1  0
M  ISO  5  20  14  21  14  22  14  23  14  24  14
M  END
>  <minimizedAffinity>  (1) 
-5.23880529

>  <minimizedRMSD>  (1) 
2.27089977

$$$$
