
     RDKit          3D

 31 32  0  0  0  0  0  0  0  0999 V2000
   45.7690   32.7220   47.6570 O   0  0  0  0  0  0  0  0  0  0  0  0
   44.9430   34.9750   45.0250 C   0  0  0  0  0  0  0  0  0  0  0  0
   45.8340   34.6240   44.0140 C   0  0  0  0  0  0  0  0  0  0  0  0
   46.7430   33.5760   44.2640 C   0  0  0  0  0  0  0  0  0  0  0  0
   46.6870   32.9790   45.4730 N   0  0  0  0  0  0  0  0  0  0  0  0
   45.8180   33.3420   46.4180 C   0  0  0  0  0  0  0  0  0  0  0  0
   44.9520   34.3280   46.2050 N   0  0  0  0  0  0  0  0  0  0  0  0
   45.7860   35.3480   42.7070 C   0  0  0  0  0  0  0  0  0  0  0  0
   44.8900   36.3820   42.9290 F   0  0  0  0  0  0  0  0  0  0  0  0
   45.2100   34.4710   41.7840 F   0  0  0  0  0  0  0  0  0  0  0  0
   47.0030   35.7760   42.3530 F   0  0  0  0  0  0  0  0  0  0  0  0
   47.7510   33.1440   43.2670 C   0  0  0  0  0  0  0  0  0  0  0  0
   48.7000   34.1840   43.1750 F   0  0  0  0  0  0  0  0  0  0  0  0
   48.4510   32.0260   43.6130 F   0  0  0  0  0  0  0  0  0  0  0  0
   47.2420   33.1060   41.9670 F   0  0  0  0  0  0  0  0  0  0  0  0
   45.3280   31.4020   47.8060 C   0  0  0  0  0  0  0  0  0  0  0  0
   46.5160   30.5450   47.9020 C   0  0  0  0  0  0  0  0  0  0  0  0
   46.7370   29.2750   47.3930 C   0  0  0  0  0  0  0  0  0  0  0  0
   47.9540   28.6930   47.6300 C   0  0  0  0  0  0  0  0  0  0  0  0
   48.9080   29.3030   48.3220 N   0  0  0  0  0  0  0  0  0  0  0  0
   48.6900   30.5290   48.8130 C   0  0  0  0  0  0  0  0  0  0  0  0
   47.4970   31.1630   48.6100 N   0  0  0  0  0  0  0  0  0  0  0  0
   49.8190   31.1200   49.5710 C   0  0  0  0  0  0  0  0  0  0  0  0
   49.8120   32.4890   49.4860 F   0  0  0  0  0  0  0  0  0  0  0  0
   51.0340   30.6380   49.0820 F   0  0  0  0  0  0  0  0  0  0  0  0
   49.7650   30.7820   50.9090 F   0  0  0  0  0  0  0  0  0  0  0  0
   44.2238   35.7902   44.8572 H   0  0  0  0  0  0  0  0  0  0  0  0
   44.7239   31.3094   48.7206 H   0  0  0  0  0  0  0  0  0  0  0  0
   44.7050   31.1040   46.9498 H   0  0  0  0  0  0  0  0  0  0  0  0
   45.9599   28.7512   46.8171 H   0  0  0  0  0  0  0  0  0  0  0  0
   48.1472   27.6854   47.2331 H   0  0  0  0  0  0  0  0  0  0  0  0
  1 16  1  0
  2  7  2  0
  3  4  2  0
  3  2  1  0
  4  5  1  0
  5  6  2  0
  6  1  1  0
  7  6  1  0
  8  9  1  0
  8  3  1  0
 10  8  1  0
 11  8  1  0
 12 14  1  0
 12  4  1  0
 13 12  1  0
 15 12  1  0
 16 17  1  0
 17 22  2  0
 18 19  2  0
 18 17  1  0
 19 20  1  0
 20 21  2  0
 21 23  1  0
 22 21  1  0
 23 26  1  0
 24 23  1  0
 25 23  1  0
  2 27  1  0
 16 28  1  0
 16 29  1  0
 18 30  1  0
 19 31  1  0
M  ISO  5  27  14  28   8  29   8  30  14  31  14
M  END
>  <minimizedAffinity>  (1) 
-5.81914186

>  <minimizedRMSD>  (1) 
0.2364586

$$$$
