
     RDKit          3D

 28 29  0  0  0  0  0  0  0  0999 V2000
   49.3800   35.4530   42.4150 O   0  0  0  0  0  0  0  0  0  0  0  0
   48.7950   34.2660   41.7100 P   0  0  1  0  0  0  0  0  0  0  0  0
   50.0630   33.2420   41.2850 O   0  0  0  0  0  0  0  0  0  0  0  0
   47.6800   33.4610   42.7290 O   0  0  0  0  0  0  0  0  0  0  0  0
   46.1320   35.3060   42.7340 C   0  0  0  0  0  0  0  0  0  0  0  0
   46.6680   34.1870   43.3730 C   0  0  0  0  0  0  0  0  0  0  0  0
   46.1770   33.8200   44.6420 C   0  0  0  0  0  0  0  0  0  0  0  0
   45.1840   34.6020   45.1770 N   0  0  0  0  0  0  0  0  0  0  0  0
   44.6940   35.6720   44.5300 C   0  0  0  0  0  0  0  0  0  0  0  0
   45.1660   36.0140   43.3260 N   0  0  0  0  0  0  0  0  0  0  0  0
   48.0370   34.7660   40.3230 O   0  0  0  0  0  0  0  0  0  0  0  0
   47.4550   34.0010   39.3840 C   0  0  0  0  0  0  0  0  0  0  0  0
   46.3440   33.5050   39.8010 O   0  0  0  0  0  0  0  0  0  0  0  0
   47.6280   33.5030   38.0050 C   0  0  0  0  0  0  0  0  0  0  0  0
   48.8800   33.4530   37.2820 C   0  0  0  0  0  0  0  0  0  0  0  0
   48.7280   32.9480   36.0090 C   0  0  0  0  0  0  0  0  0  0  0  0
   47.5570   32.5490   35.5060 C   0  0  0  0  0  0  0  0  0  0  0  0
   46.3630   32.8840   36.9590 S   0  0  0  0  0  0  0  0  0  0  0  0
   47.1320   32.0030   34.2570 C   0  0  0  0  0  0  0  0  0  0  0  0
   47.8190   32.6260   33.2290 F   0  0  0  0  0  0  0  0  0  0  0  0
   45.7970   32.2360   34.0430 F   0  0  0  0  0  0  0  0  0  0  0  0
   47.4830   30.6720   34.2210 F   0  0  0  0  0  0  0  0  0  0  0  0
   50.4947   32.8934   42.1049 H   0  0  0  0  0  0  0  0  0  0  0  0
   46.5048   35.6049   41.7432 H   0  0  0  0  0  0  0  0  0  0  0  0
   46.5721   32.9456   45.1799 H   0  0  0  0  0  0  0  0  0  0  0  0
   43.8977   36.2723   44.9941 H   0  0  0  0  0  0  0  0  0  0  0  0
   49.8431   33.7806   37.7006 H   0  0  0  0  0  0  0  0  0  0  0  0
   49.6210   32.8691   35.3715 H   0  0  0  0  0  0  0  0  0  0  0  0
  2  1  2  0
  2  4  1  0
  3  2  1  0
  4  6  1  0
  5 10  2  0
  5  6  1  0
  6  7  2  0
  7  8  1  0
  9  8  2  0
 10  9  1  0
 11  2  1  0
 12 13  2  0
 12 11  1  0
 14 12  1  0
 15 14  2  0
 16 15  1  0
 17 16  2  0
 17 18  1  0
 18 14  1  0
 19 17  1  0
 20 19  1  0
 21 19  1  0
 22 19  1  0
  3 23  1  0
  5 24  1  0
  7 25  1  0
  9 26  1  0
 15 27  1  0
 16 28  1  0
M  ISO  6  23   3  24  14  25  14  26  14  27  14  28  14
M  END
>  <minimizedAffinity>  (1) 
-4.89785719

>  <minimizedRMSD>  (1) 
0.358519197

$$$$
