
     RDKit          3D

 37 39  0  0  1  0  0  0  0  0999 V2000
   45.0620   34.6590   45.4220 C   0  0  0  0  0  0  0  0  0  0  0  0
   45.5980   34.9010   44.1500 C   0  0  0  0  0  0  0  0  0  0  0  0
   46.5170   34.0310   43.5800 C   0  0  0  0  0  0  0  0  0  0  0  0
   46.8800   32.9300   44.3060 N   0  0  0  0  0  0  0  0  0  0  0  0
   46.3560   32.7150   45.5220 C   0  0  0  0  0  0  0  0  0  0  0  0
   45.4690   33.5520   46.0740 N   0  0  0  0  0  0  0  0  0  0  0  0
   46.8160   31.4890   46.2430 C   0  0  2  0  0  0  0  0  0  0  0  0
   46.6570   30.2540   45.3780 C   0  0  0  0  0  0  0  0  0  0  0  0
   45.2920   29.6560   45.6860 C   0  0  0  0  0  0  0  0  0  0  0  0
   45.1970   29.1590   46.9610 O   0  0  0  0  0  0  0  0  0  0  0  0
   45.8290   29.9150   47.9160 C   0  0  0  0  0  0  0  0  0  0  0  0
   45.9210   31.3590   47.4520 C   0  0  1  0  0  0  0  0  0  0  0  0
   46.6290   32.0210   48.6450 C   0  0  0  0  0  0  0  0  0  0  0  0
   47.7810   32.6510   48.3170 F   0  0  0  0  0  0  0  0  0  0  0  0
   46.9360   31.0240   49.5590 F   0  0  0  0  0  0  0  0  0  0  0  0
   45.7340   32.8610   49.2970 F   0  0  0  0  0  0  0  0  0  0  0  0
   45.1100   32.5380   41.4650 Cl  0  0  0  0  0  0  0  0  0  0  0  0
   46.4890   33.6000   41.1770 C   0  0  0  0  0  0  0  0  0  0  0  0
   47.0880   34.2640   42.2460 C   0  0  0  0  0  0  0  0  0  0  0  0
   48.1530   35.0760   41.9740 C   0  0  0  0  0  0  0  0  0  0  0  0
   48.6210   35.2320   40.6760 C   0  0  0  0  0  0  0  0  0  0  0  0
   47.9860   34.5460   39.6540 C   0  0  0  0  0  0  0  0  0  0  0  0
   48.5870   34.7490   38.0240 Cl  0  0  0  0  0  0  0  0  0  0  0  0
   46.9160   33.7220   39.8750 C   0  0  0  0  0  0  0  0  0  0  0  0
   44.3338   35.3492   45.8730 H   0  0  0  0  0  0  0  0  0  0  0  0
   45.2848   35.7965   43.5933 H   0  0  0  0  0  0  0  0  0  0  0  0
   47.8798   31.5742   46.5097 H   0  0  0  0  0  0  0  0  0  0  0  0
   47.4479   29.5263   45.6124 H   0  0  0  0  0  0  0  0  0  0  0  0
   46.7360   30.5134   44.3120 H   0  0  0  0  0  0  0  0  0  0  0  0
   44.5299   30.4389   45.5578 H   0  0  0  0  0  0  0  0  0  0  0  0
   45.1390   28.8147   44.9940 H   0  0  0  0  0  0  0  0  0  0  0  0
   45.2580   29.8689   48.8550 H   0  0  0  0  0  0  0  0  0  0  0  0
   46.8429   29.5207   48.0789 H   0  0  0  0  0  0  0  0  0  0  0  0
   44.9451   31.7851   47.1761 H   0  0  0  0  0  0  0  0  0  0  0  0
   48.6472   35.6144   42.7961 H   0  0  0  0  0  0  0  0  0  0  0  0
   49.4787   35.8872   40.4637 H   0  0  0  0  0  0  0  0  0  0  0  0
   46.4220   33.1840   39.0525 H   0  0  0  0  0  0  0  0  0  0  0  0
  1  6  2  0
  2  1  1  0
  3  2  2  0
  3  4  1  0
  4  5  2  0
  5  6  1  0
  5  7  1  0
  7 12  1  0
  8  9  1  0
  8  7  1  0
  9 10  1  0
 10 11  1  0
 12 11  1  0
 12 13  1  0
 13 16  1  0
 13 15  1  0
 14 13  1  0
 18 17  1  0
 18 19  2  0
 19  3  1  0
 20 19  1  0
 21 20  2  0
 22 24  2  0
 22 21  1  0
 23 22  1  0
 24 18  1  0
  1 25  1  0
  2 26  1  0
  7 27  1  1
  8 28  1  0
  8 29  1  0
  9 30  1  0
  9 31  1  0
 11 32  1  0
 11 33  1  0
 12 34  1  6
 20 35  1  0
 21 36  1  0
 24 37  1  0
M  ISO  8  25  14  26  14  27  13  28  13  29  13  30  13  31  13  32  13
M  ISO  5  33  13  34  13  35  14  36  14  37  14
M  END
>  <minimizedAffinity>  (1) 
-6.61039257

>  <minimizedRMSD>  (1) 
1.29807079

$$$$
