
     RDKit          3D

 20 21  0  0  0  0  0  0  0  0999 V2000
   46.0340   32.9590   46.0520 C   0  0  0  0  0  0  0  0  0  0  0  0
   46.9230   31.9230   45.7560 C   0  0  0  0  0  0  0  0  0  0  0  0
   46.9840   31.1090   46.8480 C   0  0  0  0  0  0  0  0  0  0  0  0
   46.1670   31.6240   47.7800 N   0  0  0  0  0  0  0  0  0  0  0  0
   45.5930   32.7460   47.2890 N   0  0  0  0  0  0  0  0  0  0  0  0
   44.4730   36.0040   44.7230 C   0  0  0  0  0  0  0  0  0  0  0  0
   45.0300   36.0970   43.4370 C   0  0  0  0  0  0  0  0  0  0  0  0
   45.9470   35.1010   43.0330 C   0  0  0  0  0  0  0  0  0  0  0  0
   46.2370   34.1070   43.9190 N   0  0  0  0  0  0  0  0  0  0  0  0
   45.6830   34.0500   45.1490 C   0  0  0  0  0  0  0  0  0  0  0  0
   44.8020   34.9930   45.5540 N   0  0  0  0  0  0  0  0  0  0  0  0
   45.9430   31.0500   49.1040 C   0  0  0  0  0  0  0  0  0  0  0  0
   45.1650   29.8880   49.0110 F   0  0  0  0  0  0  0  0  0  0  0  0
   47.1540   30.6710   49.6540 F   0  0  0  0  0  0  0  0  0  0  0  0
   45.2360   31.8930   49.9140 F   0  0  0  0  0  0  0  0  0  0  0  0
   47.4737   31.7884   44.8133 H   0  0  0  0  0  0  0  0  0  0  0  0
   47.5915   30.1973   46.9470 H   0  0  0  0  0  0  0  0  0  0  0  0
   43.7565   36.7682   45.0584 H   0  0  0  0  0  0  0  0  0  0  0  0
   44.7596   36.9229   42.7626 H   0  0  0  0  0  0  0  0  0  0  0  0
   46.4115   35.1270   42.0362 H   0  0  0  0  0  0  0  0  0  0  0  0
  1  5  2  0
  2  1  1  0
  2  3  2  0
  3  4  1  0
  4 12  1  0
  5  4  1  0
  6 11  2  0
  7  6  1  0
  8  7  2  0
  8  9  1  0
  9 10  2  0
 10 11  1  0
 10  1  1  0
 12 14  1  0
 12 15  1  0
 13 12  1  0
  2 16  1  0
  3 17  1  0
  6 18  1  0
  7 19  1  0
  8 20  1  0
M  ISO  5  16  14  17  14  18  14  19  14  20  14
M  END
>  <minimizedAffinity>  (1) 
-5.22314453

>  <minimizedRMSD>  (1) 
1.23851907

$$$$
