
     RDKit          3D

 23 24  0  0  0  0  0  0  0  0999 V2000
   46.6640   35.1370   42.5730 C   0  0  0  0  0  0  0  0  0  0  0  0
   47.6930   34.9410   41.6420 C   0  0  0  0  0  0  0  0  0  0  0  0
   48.5380   33.8250   41.8210 C   0  0  0  0  0  0  0  0  0  0  0  0
   48.3260   32.9920   42.8770 N   0  0  0  0  0  0  0  0  0  0  0  0
   47.3200   33.2240   43.7480 C   0  0  0  0  0  0  0  0  0  0  0  0
   46.5000   34.2800   43.6000 N   0  0  0  0  0  0  0  0  0  0  0  0
   47.0350   32.4100   44.8640 N   0  0  0  0  0  0  0  0  0  0  0  0
   47.5750   31.1860   44.8300 C   0  0  0  0  0  0  0  0  0  0  0  0
   47.3610   30.3070   45.8720 C   0  0  0  0  0  0  0  0  0  0  0  0
   46.5600   30.7880   46.9270 C   0  0  0  0  0  0  0  0  0  0  0  0
   46.3400   30.0090   47.9020 O   0  0  0  0  0  0  0  0  0  0  0  0
   46.0370   32.0230   46.9220 N   0  0  0  0  0  0  0  0  0  0  0  0
   46.2780   32.8330   45.8860 C   0  0  0  0  0  0  0  0  0  0  0  0
   45.8280   34.0240   45.7860 O   0  0  0  0  0  0  0  0  0  0  0  0
   45.2140   32.5070   48.0140 C   0  0  0  0  0  0  0  0  0  0  0  0
   44.6030   33.6820   47.5730 F   0  0  0  0  0  0  0  0  0  0  0  0
   45.9580   32.7390   49.1520 F   0  0  0  0  0  0  0  0  0  0  0  0
   44.2790   31.5490   48.3560 F   0  0  0  0  0  0  0  0  0  0  0  0
   45.9856   35.9961   42.4647 H   0  0  0  0  0  0  0  0  0  0  0  0
   47.8372   35.6339   40.7999 H   0  0  0  0  0  0  0  0  0  0  0  0
   49.3589   33.6302   41.1152 H   0  0  0  0  0  0  0  0  0  0  0  0
   48.1900   30.8803   43.9707 H   0  0  0  0  0  0  0  0  0  0  0  0
   47.7891   29.2937   45.8787 H   0  0  0  0  0  0  0  0  0  0  0  0
  1  6  2  0
  2  3  2  0
  2  1  1  0
  3  4  1  0
  4  5  2  0
  5  7  1  0
  6  5  1  0
  7 13  1  0
  8  7  1  0
  8  9  2  0
  9 10  1  0
 10 11  2  0
 12 10  1  0
 12 15  1  0
 13 12  1  0
 14 13  2  0
 15 18  1  0
 15 17  1  0
 16 15  1  0
  1 19  1  0
  2 20  1  0
  3 21  1  0
  8 22  1  0
  9 23  1  0
M  ISO  5  19  14  20  14  21  14  22  14  23  14
M  END
>  <minimizedAffinity>  (1) 
-5.43939161

>  <minimizedRMSD>  (1) 
1.77891386

$$$$
