
     RDKit          3D

 42 44  0  0  0  0  0  0  0  0999 V2000
   46.1250   31.7900   45.2570 C   0  0  0  0  0  0  0  0  0  0  0  0
   47.1040   32.5270   47.4000 C   0  0  0  0  0  0  0  0  0  0  0  0
   47.0060   31.5420   46.3890 C   0  0  0  0  0  0  0  0  0  0  0  0
   47.7310   30.3760   46.5570 C   0  0  0  0  0  0  0  0  0  0  0  0
   48.4840   30.2460   47.6720 N   0  0  0  0  0  0  0  0  0  0  0  0
   48.5550   31.1870   48.6080 C   0  0  0  0  0  0  0  0  0  0  0  0
   47.8670   32.3450   48.4890 N   0  0  0  0  0  0  0  0  0  0  0  0
   49.4180   30.9320   49.8070 C   0  0  0  0  0  0  0  0  0  0  0  0
   50.6940   31.6420   49.7660 C   0  0  0  0  0  0  0  0  0  0  0  0
   51.8900   31.1040   49.3070 C   0  0  0  0  0  0  0  0  0  0  0  0
   52.8640   32.0610   49.4210 C   0  0  0  0  0  0  0  0  0  0  0  0
   52.2310   33.1530   49.9480 N   0  0  0  0  0  0  0  0  0  0  0  0
   50.9380   32.9060   50.1540 N   0  0  0  0  0  0  0  0  0  0  0  0
   46.7920   32.7740   44.3540 C   0  0  0  0  0  0  0  0  0  0  0  0
   46.4110   34.7650   43.0230 C   0  0  0  0  0  0  0  0  0  0  0  0
   46.0850   34.0490   44.1560 C   0  0  0  0  0  0  0  0  0  0  0  0
   45.1810   34.4090   45.0780 C   0  0  0  0  0  0  0  0  0  0  0  0
   44.5130   35.5930   44.8960 C   0  0  0  0  0  0  0  0  0  0  0  0
   44.7510   36.3820   43.8150 C   0  0  0  0  0  0  0  0  0  0  0  0
   45.6960   35.9430   42.9060 C   0  0  0  0  0  0  0  0  0  0  0  0
   47.5870   34.4230   41.8310 S   0  0  0  0  0  0  0  0  0  0  0  0
   48.5140   35.5970   41.5970 O   0  0  0  0  0  0  0  0  0  0  0  0
   46.8070   34.3070   40.4950 O   0  0  0  0  0  0  0  0  0  0  0  0
   48.4980   33.0190   41.7140 C   0  0  0  0  0  0  0  0  0  0  0  0
   47.9590   31.7790   41.9100 F   0  0  0  0  0  0  0  0  0  0  0  0
   49.5460   32.9770   40.7640 F   0  0  0  0  0  0  0  0  0  0  0  0
   49.3730   33.0370   42.8300 F   0  0  0  0  0  0  0  0  0  0  0  0
   45.9425   30.8507   44.7143 H   0  0  0  0  0  0  0  0  0  0  0  0
   45.1605   32.1874   45.6060 H   0  0  0  0  0  0  0  0  0  0  0  0
   46.5407   33.4655   47.2907 H   0  0  0  0  0  0  0  0  0  0  0  0
   47.6957   29.5757   45.8032 H   0  0  0  0  0  0  0  0  0  0  0  0
   48.8698   31.2520   50.7054 H   0  0  0  0  0  0  0  0  0  0  0  0
   49.6458   29.8559   49.8197 H   0  0  0  0  0  0  0  0  0  0  0  0
   52.0308   30.0845   48.9186 H   0  0  0  0  0  0  0  0  0  0  0  0
   53.9257   31.9706   49.1477 H   0  0  0  0  0  0  0  0  0  0  0  0
   52.6934   34.0491   50.1581 H   0  0  0  0  0  0  0  0  0  0  0  0
   47.7825   33.0002   44.7755 H   0  0  0  0  0  0  0  0  0  0  0  0
   46.8231   32.2950   43.3643 H   0  0  0  0  0  0  0  0  0  0  0  0
   44.9810   33.7742   45.9538 H   0  0  0  0  0  0  0  0  0  0  0  0
   43.7686   35.9109   45.6409 H   0  0  0  0  0  0  0  0  0  0  0  0
   44.2139   37.3308   43.6693 H   0  0  0  0  0  0  0  0  0  0  0  0
   45.8930   36.5754   42.0278 H   0  0  0  0  0  0  0  0  0  0  0  0
  1  3  1  0
  2  7  2  0
  3  4  2  0
  3  2  1  0
  4  5  1  0
  5  6  2  0
  6  8  1  0
  7  6  1  0
  9  8  1  0
  9 13  2  0
 10 11  2  0
 10  9  1  0
 11 12  1  0
 12 13  1  0
 14  1  1  0
 15 16  2  0
 16 14  1  0
 16 17  1  0
 18 17  2  0
 19 18  1  0
 20 15  1  0
 20 19  2  0
 21 15  1  0
 22 21  2  0
 23 21  2  0
 24 21  1  0
 24 25  1  0
 24 27  1  0
 26 24  1  0
  1 28  1  0
  1 29  1  0
  2 30  1  0
  4 31  1  0
  8 32  1  0
  8 33  1  0
 10 34  1  0
 11 35  1  0
 12 36  1  0
 14 37  1  0
 14 38  1  0
 17 39  1  0
 18 40  1  0
 19 41  1  0
 20 42  1  0
M  ISO  8  28   8  29   8  30  14  31  14  32   8  33   8  34  14  35  14
M  ISO  7  36   9  37   8  38   8  39  14  40  14  41  14  42  14
M  END
>  <minimizedAffinity>  (1) 
-6.08296728

>  <minimizedRMSD>  (1) 
0.188448802

$$$$
