
     RDKit          3D

 27 29  0  0  0  0  0  0  0  0999 V2000
   48.2800   32.7880   40.3720 C   0  0  0  0  0  0  0  0  0  0  0  0
   49.5830   32.4970   40.7420 C   0  0  0  0  0  0  0  0  0  0  0  0
   49.9290   32.6890   42.0910 C   0  0  0  0  0  0  0  0  0  0  0  0
   48.9700   33.1430   42.9400 N   0  0  0  0  0  0  0  0  0  0  0  0
   47.7110   33.4120   42.5270 C   0  0  0  0  0  0  0  0  0  0  0  0
   47.3670   33.2320   41.2400 N   0  0  0  0  0  0  0  0  0  0  0  0
   46.7630   33.8870   43.4770 N   0  0  0  0  0  0  0  0  0  0  0  0
   45.8900   34.9130   43.3040 C   0  0  0  0  0  0  0  0  0  0  0  0
   45.1630   35.0440   44.4490 N   0  0  0  0  0  0  0  0  0  0  0  0
   45.6020   34.1010   45.2980 C   0  0  0  0  0  0  0  0  0  0  0  0
   45.2640   33.7440   46.5780 C   0  0  0  0  0  0  0  0  0  0  0  0
   45.8610   32.7460   47.2270 N   0  0  0  0  0  0  0  0  0  0  0  0
   46.8450   32.0190   46.6570 C   0  0  0  0  0  0  0  0  0  0  0  0
   47.1740   32.3730   45.3980 N   0  0  0  0  0  0  0  0  0  0  0  0
   46.6140   33.3570   44.7040 C   0  0  0  0  0  0  0  0  0  0  0  0
   44.2440   34.4280   47.2860 N   0  0  0  0  0  0  0  0  0  0  0  0
   47.9240   32.5230   38.6110 S   0  0  0  0  0  0  0  0  0  0  0  0
   48.2580   34.1300   37.8070 C   0  0  0  0  0  0  0  0  0  0  0  0
   48.5440   35.1180   38.7250 F   0  0  0  0  0  0  0  0  0  0  0  0
   49.4190   33.9680   37.0370 F   0  0  0  0  0  0  0  0  0  0  0  0
   47.2160   34.4080   36.9770 F   0  0  0  0  0  0  0  0  0  0  0  0
   50.3174   32.1304   40.0096 H   0  0  0  0  0  0  0  0  0  0  0  0
   50.9474   32.4777   42.4492 H   0  0  0  0  0  0  0  0  0  0  0  0
   45.7878   35.5297   42.3989 H   0  0  0  0  0  0  0  0  0  0  0  0
   47.3451   31.1931   47.1841 H   0  0  0  0  0  0  0  0  0  0  0  0
   44.0050   34.1444   48.2469 H   0  0  0  0  0  0  0  0  0  0  0  0
   43.7418   35.2086   46.8395 H   0  0  0  0  0  0  0  0  0  0  0  0
  1  2  2  0
  1  6  1  0
  2  3  1  0
  3  4  2  0
  5  4  1  0
  5  7  1  0
  6  5  2  0
  7 15  1  0
  8  7  1  0
  8  9  2  0
  9 10  1  0
 10 11  2  0
 11 12  1  0
 11 16  1  0
 13 12  2  0
 14 13  1  0
 15 10  1  0
 15 14  2  0
 17  1  1  0
 18 17  1  0
 18 19  1  0
 20 18  1  0
 21 18  1  0
  2 22  1  0
  3 23  1  0
  8 24  1  0
 13 25  1  0
 16 26  1  0
 16 27  1  0
M  ISO  4  22  14  23  14  24  14  25  14
M  END
>  <minimizedAffinity>  (1) 
-5.93260765

>  <minimizedRMSD>  (1) 
0.789589882

$$$$
