
     RDKit          3D

 23 23  0  0  0  0  0  0  0  0999 V2000
   47.7510   32.8480   43.7750 C   0  0  0  0  0  0  0  0  0  0  0  0
   48.2120   31.8090   43.2410 O   0  0  0  0  0  0  0  0  0  0  0  0
   45.2650   34.1380   46.1800 C   0  0  0  0  0  0  0  0  0  0  0  0
   46.1070   34.0390   45.0530 C   0  0  0  0  0  0  0  0  0  0  0  0
   46.9110   32.8970   44.9490 C   0  0  0  0  0  0  0  0  0  0  0  0
   46.8590   31.9490   45.9040 N   0  0  0  0  0  0  0  0  0  0  0  0
   46.0320   32.0920   46.9700 C   0  0  0  0  0  0  0  0  0  0  0  0
   45.2530   33.1750   47.0930 N   0  0  0  0  0  0  0  0  0  0  0  0
   44.4400   35.2720   46.3290 N   0  0  0  0  0  0  0  0  0  0  0  0
   48.0080   34.1220   43.2760 O   0  0  0  0  0  0  0  0  0  0  0  0
   49.4410   35.9660   41.9790 O   0  0  0  0  0  0  0  0  0  0  0  0
   49.2500   34.5010   42.1720 P   0  0  1  0  0  0  0  0  0  0  0  0
   50.6820   33.8660   42.8330 O   0  0  0  0  0  0  0  0  0  0  0  0
   48.9360   33.7190   40.7120 O   0  0  0  0  0  0  0  0  0  0  0  0
   47.9980   34.4450   39.9970 C   0  0  0  0  0  0  0  0  0  0  0  0
   46.9140   34.8320   40.7470 F   0  0  0  0  0  0  0  0  0  0  0  0
   47.6200   33.6730   38.8910 F   0  0  0  0  0  0  0  0  0  0  0  0
   48.6620   35.5390   39.4650 F   0  0  0  0  0  0  0  0  0  0  0  0
   46.1313   34.8273   44.2862 H   0  0  0  0  0  0  0  0  0  0  0  0
   46.0007   31.3095   47.7424 H   0  0  0  0  0  0  0  0  0  0  0  0
   44.4538   36.0161   45.6169 H   0  0  0  0  0  0  0  0  0  0  0  0
   43.8236   35.3562   47.1499 H   0  0  0  0  0  0  0  0  0  0  0  0
   50.6282   33.8899   43.8213 H   0  0  0  0  0  0  0  0  0  0  0  0
  1  5  1  0
  2  1  2  0
  3  9  1  0
  3  8  2  0
  4  3  1  0
  5  4  2  0
  5  6  1  0
  6  7  2  0
  7  8  1  0
 10  1  1  0
 12 11  2  0
 12 13  1  0
 12 10  1  0
 14 12  1  0
 15 14  1  0
 15 16  1  0
 17 15  1  0
 18 15  1  0
  4 19  1  0
  7 20  1  0
  9 21  1  0
  9 22  1  0
 13 23  1  0
M  ISO  3  19  14  20  14  23   3
M  END
>  <minimizedAffinity>  (1) 
-5.17625046

>  <minimizedRMSD>  (1) 
3.37195277

$$$$
