
     RDKit          3D

 32 33  0  0  1  0  0  0  0  0999 V2000
   47.8950   34.0230   42.0210 N   0  0  0  0  0  0  0  0  0  0  0  0
   47.9100   34.9220   40.9320 C   0  0  0  0  0  0  0  0  0  0  0  0
   49.0530   35.8060   41.2560 C   0  0  0  0  0  0  0  0  0  0  0  0
   49.6860   35.3160   42.5520 C   0  0  0  0  0  0  0  0  0  0  0  0
   49.1550   33.8790   42.6250 C   0  0  2  0  0  0  0  0  0  0  0  0
   46.7140   33.4300   42.3980 C   0  0  0  0  0  0  0  0  0  0  0  0
   44.5860   35.7950   44.4520 C   0  0  0  0  0  0  0  0  0  0  0  0
   45.2610   35.2630   43.3110 C   0  0  0  0  0  0  0  0  0  0  0  0
   46.0010   34.0940   43.4720 C   0  0  0  0  0  0  0  0  0  0  0  0
   46.0320   33.5400   44.7030 N   0  0  0  0  0  0  0  0  0  0  0  0
   45.3760   34.0640   45.7950 C   0  0  0  0  0  0  0  0  0  0  0  0
   44.6600   35.1820   45.6660 N   0  0  0  0  0  0  0  0  0  0  0  0
   49.9380   33.1290   41.7340 O   0  0  0  0  0  0  0  0  0  0  0  0
   49.1390   31.0560   43.1920 O   0  0  0  0  0  0  0  0  0  0  0  0
   50.1280   31.5390   42.1610 P   0  0  2  0  0  0  0  0  0  0  0  0
   51.6780   31.3510   42.8330 O   0  0  0  0  0  0  0  0  0  0  0  0
   50.1040   30.5250   40.7840 O   0  0  0  0  0  0  0  0  0  0  0  0
   49.3530   31.0310   39.7550 C   0  0  0  0  0  0  0  0  0  0  0  0
   48.0820   31.2790   40.2920 F   0  0  0  0  0  0  0  0  0  0  0  0
   49.7930   32.2150   39.2380 F   0  0  0  0  0  0  0  0  0  0  0  0
   49.1350   30.0750   38.7670 F   0  0  0  0  0  0  0  0  0  0  0  0
   47.2398   34.9569   40.0604 H   0  0  0  0  0  0  0  0  0  0  0  0
   49.3878   36.6692   40.6621 H   0  0  0  0  0  0  0  0  0  0  0  0
   50.7844   35.3365   42.4960 H   0  0  0  0  0  0  0  0  0  0  0  0
   49.4422   35.9303   43.4314 H   0  0  0  0  0  0  0  0  0  0  0  0
   49.1486   33.4243   43.6266 H   0  0  0  0  0  0  0  0  0  0  0  0
   46.0532   33.4003   41.5191 H   0  0  0  0  0  0  0  0  0  0  0  0
   46.9829   32.4348   42.7819 H   0  0  0  0  0  0  0  0  0  0  0  0
   43.9953   36.7171   44.3482 H   0  0  0  0  0  0  0  0  0  0  0  0
   45.1982   35.7624   42.3329 H   0  0  0  0  0  0  0  0  0  0  0  0
   45.4424   33.5616   46.7713 H   0  0  0  0  0  0  0  0  0  0  0  0
   51.6126   31.3589   43.8208 H   0  0  0  0  0  0  0  0  0  0  0  0
  1  6  1  0
  1  5  1  0
  2  3  2  0
  2  1  1  0
  3  4  1  0
  4  5  1  0
  6  9  1  0
  7 12  2  0
  8  9  2  0
  8  7  1  0
  9 10  1  0
 10 11  2  0
 12 11  1  0
 13 15  1  0
 13  5  1  0
 15 16  1  0
 15 14  2  0
 17 15  1  0
 18 19  1  0
 18 17  1  0
 20 18  1  0
 21 18  1  0
  2 22  1  0
  3 23  1  0
  4 24  1  0
  4 25  1  0
  5 26  1  1
  6 27  1  0
  6 28  1  0
  7 29  1  0
  8 30  1  0
 11 31  1  0
 16 32  1  0
M  ISO  8  22  13  23  13  24  13  25  13  26  13  27   8  28   8  29  14
M  ISO  3  30  14  31  14  32   3
M  END
>  <minimizedAffinity>  (1) 
-4.68452787

>  <minimizedRMSD>  (1) 
0.6885674

$$$$
