
     RDKit          3D

 43 46  0  0  0  0  0  0  0  0999 V2000
   46.0130   32.2430   46.1030 C   0  0  0  0  0  0  0  0  0  0  0  0
   45.8590   32.9090   47.3170 C   0  0  0  0  0  0  0  0  0  0  0  0
   46.1100   32.3020   48.5540 C   0  0  0  0  0  0  0  0  0  0  0  0
   46.5290   31.0010   48.6220 C   0  0  0  0  0  0  0  0  0  0  0  0
   46.6840   30.3040   47.4060 C   0  0  0  0  0  0  0  0  0  0  0  0
   47.0470   28.9970   47.5170 C   0  0  0  0  0  0  0  0  0  0  0  0
   47.1370   28.2570   46.3340 C   0  0  0  0  0  0  0  0  0  0  0  0
   46.8370   28.9100   45.0860 C   0  0  0  0  0  0  0  0  0  0  0  0
   46.4830   30.2370   45.1470 C   0  0  0  0  0  0  0  0  0  0  0  0
   46.4010   30.9970   46.2270 C   0  0  0  0  0  0  0  0  0  0  0  0
   44.5720   29.7860   43.8880 C   0  0  0  0  0  0  0  0  0  0  0  0
   45.9510   30.2220   43.8000 C   0  0  0  0  0  0  0  0  0  0  0  0
   46.3250   30.3320   42.5280 C   0  0  0  0  0  0  0  0  0  0  0  0
   45.5380   30.0700   41.4270 C   0  0  0  0  0  0  0  0  0  0  0  0
   44.2360   29.6530   41.5340 C   0  0  0  0  0  0  0  0  0  0  0  0
   43.7540   29.5120   42.8090 C   0  0  0  0  0  0  0  0  0  0  0  0
   43.8300   29.5680   45.0830 O   0  0  0  0  0  0  0  0  0  0  0  0
   42.4430   29.0880   42.8550 O   0  0  0  0  0  0  0  0  0  0  0  0
   42.0730   27.7050   42.8000 C   0  0  0  0  0  0  0  0  0  0  0  0
   43.1900   26.9400   43.1100 F   0  0  0  0  0  0  0  0  0  0  0  0
   41.0360   27.5210   43.6930 F   0  0  0  0  0  0  0  0  0  0  0  0
   41.6810   27.4560   41.4830 F   0  0  0  0  0  0  0  0  0  0  0  0
   45.2610   34.1150   42.9640 C   0  0  0  0  0  0  0  0  0  0  0  0
   46.5710   34.5120   42.6020 C   0  0  0  0  0  0  0  0  0  0  0  0
   47.5870   34.0910   43.4300 C   0  0  0  0  0  0  0  0  0  0  0  0
   47.2030   33.3620   44.4740 N   0  0  0  0  0  0  0  0  0  0  0  0
   45.9900   32.9740   44.8460 C   0  0  0  0  0  0  0  0  0  0  0  0
   45.0400   33.3740   44.0530 N   0  0  0  0  0  0  0  0  0  0  0  0
   48.9470   34.3620   43.1480 N   0  0  0  0  0  0  0  0  0  0  0  0
   45.5258   33.9572   47.3034 H   0  0  0  0  0  0  0  0  0  0  0  0
   45.9688   32.8772   49.4809 H   0  0  0  0  0  0  0  0  0  0  0  0
   46.7369   30.5176   49.5880 H   0  0  0  0  0  0  0  0  0  0  0  0
   47.2605   28.5422   48.4956 H   0  0  0  0  0  0  0  0  0  0  0  0
   47.4311   27.1973   46.3562 H   0  0  0  0  0  0  0  0  0  0  0  0
   46.8887   28.3718   44.1281 H   0  0  0  0  0  0  0  0  0  0  0  0
   47.3568   30.6623   42.3374 H   0  0  0  0  0  0  0  0  0  0  0  0
   45.9709   30.2004   40.4242 H   0  0  0  0  0  0  0  0  0  0  0  0
   43.6159   29.4443   40.6497 H   0  0  0  0  0  0  0  0  0  0  0  0
   42.8877   29.2685   45.0329 H   0  0  0  0  0  0  0  0  0  0  0  0
   44.4106   34.4222   42.3375 H   0  0  0  0  0  0  0  0  0  0  0  0
   46.7661   35.1231   41.7084 H   0  0  0  0  0  0  0  0  0  0  0  0
   49.6818   34.0317   43.7898 H   0  0  0  0  0  0  0  0  0  0  0  0
   49.2021   34.8895   42.3009 H   0  0  0  0  0  0  0  0  0  0  0  0
  1 10  1  0
  1  2  2  0
  2  3  1  0
  3  4  2  0
  5  6  2  0
  5  4  1  0
  7  6  1  0
  8  9  1  0
  8  7  2  0
  9 10  2  0
 10  5  1  0
 11 17  1  0
 12 11  2  0
 12  9  1  0
 13 12  1  0
 14 15  1  0
 14 13  2  0
 15 16  2  0
 16 18  1  0
 16 11  1  0
 19 18  1  0
 19 20  1  0
 19 21  1  0
 22 19  1  0
 23 28  2  0
 24 23  1  0
 24 25  2  0
 25 26  1  0
 26 27  2  0
 27  1  1  0
 28 27  1  0
 29 25  1  0
  2 30  1  0
  3 31  1  0
  4 32  1  0
  6 33  1  0
  7 34  1  0
  8 35  1  0
 13 36  1  0
 14 37  1  0
 15 38  1  0
 17 39  1  0
 23 40  1  0
 24 41  1  0
 29 42  1  0
 29 43  1  0
M  ISO  8  30  14  31  14  32  14  33  14  34  14  35  14  36  14  37  14
M  ISO  4  38  14  39   3  40  14  41  14
M  END
>  <minimizedAffinity>  (1) 
-4.72589922

>  <minimizedRMSD>  (1) 
0.460450262

$$$$
