
     RDKit          3D

 22 22  0  0  0  0  0  0  0  0999 V2000
   44.9390   35.2760   42.4330 C   0  0  0  0  0  0  0  0  0  0  0  0
   42.9160   34.2180   39.4800 C   0  0  0  0  0  0  0  0  0  0  0  0
   44.0160   34.4130   40.3370 C   0  0  0  0  0  0  0  0  0  0  0  0
   43.8000   35.0650   41.5290 C   0  0  0  0  0  0  0  0  0  0  0  0
   42.5320   35.5040   41.8450 N   0  0  0  0  0  0  0  0  0  0  0  0
   41.4900   35.2970   40.9870 C   0  0  0  0  0  0  0  0  0  0  0  0
   41.6940   34.6660   39.8330 N   0  0  0  0  0  0  0  0  0  0  0  0
   45.4480   34.0650   42.9000 O   0  0  0  0  0  0  0  0  0  0  0  0
   47.4110   33.1090   41.4630 O   0  0  0  0  0  0  0  0  0  0  0  0
   47.1080   34.0800   42.5750 P   0  0  2  0  0  0  0  0  0  0  0  0
   47.8900   33.6790   44.0250 O   0  0  0  0  0  0  0  0  0  0  0  0
   47.5490   35.6230   42.0840 O   0  0  0  0  0  0  0  0  0  0  0  0
   48.7790   35.6010   41.4120 C   0  0  0  0  0  0  0  0  0  0  0  0
   48.5410   35.3490   40.0730 F   0  0  0  0  0  0  0  0  0  0  0  0
   49.5700   34.5730   41.9390 F   0  0  0  0  0  0  0  0  0  0  0  0
   49.4380   36.7850   41.5820 F   0  0  0  0  0  0  0  0  0  0  0  0
   44.6082   35.8799   43.2908 H   0  0  0  0  0  0  0  0  0  0  0  0
   45.7332   35.7935   41.8749 H   0  0  0  0  0  0  0  0  0  0  0  0
   43.0538   33.6989   38.5200 H   0  0  0  0  0  0  0  0  0  0  0  0
   45.0188   34.0545   40.0615 H   0  0  0  0  0  0  0  0  0  0  0  0
   40.4824   35.6516   41.2495 H   0  0  0  0  0  0  0  0  0  0  0  0
   47.3319   33.9652   44.7910 H   0  0  0  0  0  0  0  0  0  0  0  0
  1  8  1  0
  2  7  2  0
  2  3  1  0
  3  4  2  0
  4  5  1  0
  4  1  1  0
  6  5  2  0
  7  6  1  0
 10  9  2  0
 10  8  1  0
 10 11  1  0
 12 10  1  0
 13 16  1  0
 13 15  1  0
 13 12  1  0
 14 13  1  0
  1 17  1  0
  1 18  1  0
  2 19  1  0
  3 20  1  0
  6 21  1  0
 11 22  1  0
M  ISO  6  17   8  18   8  19  14  20  14  21  14  22   3
M  END
>  <minimizedAffinity>  (1) 
-4.51198816

>  <minimizedRMSD>  (1) 
3.83500385

$$$$
