
     RDKit          3D

 32 33  0  0  0  0  0  0  0  0999 V2000
   45.2550   33.5430   41.1220 F   0  0  0  0  0  0  0  0  0  0  0  0
   46.4320   34.1580   41.0400 C   0  0  0  0  0  0  0  0  0  0  0  0
   46.8970   34.8590   42.1290 C   0  0  0  0  0  0  0  0  0  0  0  0
   48.1240   35.5330   42.1300 C   0  0  0  0  0  0  0  0  0  0  0  0
   48.9180   35.4980   40.9820 C   0  0  0  0  0  0  0  0  0  0  0  0
   48.4180   34.7850   39.9180 C   0  0  0  0  0  0  0  0  0  0  0  0
   47.2310   34.1260   39.8980 C   0  0  0  0  0  0  0  0  0  0  0  0
   45.5040   33.9680   45.4010 C   0  0  0  0  0  0  0  0  0  0  0  0
   44.6260   35.0480   45.6460 C   0  0  0  0  0  0  0  0  0  0  0  0
   44.5180   36.0860   44.6760 C   0  0  0  0  0  0  0  0  0  0  0  0
   45.2870   35.9580   43.5550 N   0  0  0  0  0  0  0  0  0  0  0  0
   46.1050   34.9220   43.3580 C   0  0  0  0  0  0  0  0  0  0  0  0
   46.2090   33.9420   44.2710 N   0  0  0  0  0  0  0  0  0  0  0  0
   45.5890   32.9590   46.3780 N   0  0  0  0  0  0  0  0  0  0  0  0
   46.8230   33.4440   38.7800 O   0  0  0  0  0  0  0  0  0  0  0  0
   48.2690   34.7350   36.9750 O   0  0  0  0  0  0  0  0  0  0  0  0
   47.6020   33.4200   37.2950 P   0  0  2  0  0  0  0  0  0  0  0  0
   46.4380   33.0430   36.0910 O   0  0  0  0  0  0  0  0  0  0  0  0
   48.7640   32.1970   37.1590 O   0  0  0  0  0  0  0  0  0  0  0  0
   49.8570   32.0350   37.9760 C   0  0  0  0  0  0  0  0  0  0  0  0
   49.7190   31.5530   39.1250 O   0  0  0  0  0  0  0  0  0  0  0  0
   51.0960   32.4440   37.4210 N   0  0  0  0  0  0  0  0  0  0  0  0
   48.4579   36.0824   43.0226 H   0  0  0  0  0  0  0  0  0  0  0  0
   49.8892   36.0121   40.9316 H   0  0  0  0  0  0  0  0  0  0  0  0
   49.0315   34.7451   39.0058 H   0  0  0  0  0  0  0  0  0  0  0  0
   44.0343   35.0867   46.5725 H   0  0  0  0  0  0  0  0  0  0  0  0
   43.8491   36.9468   44.8228 H   0  0  0  0  0  0  0  0  0  0  0  0
   46.2178   32.1558   46.2355 H   0  0  0  0  0  0  0  0  0  0  0  0
   45.0224   33.0236   47.2357 H   0  0  0  0  0  0  0  0  0  0  0  0
   45.5914   32.7688   36.5248 H   0  0  0  0  0  0  0  0  0  0  0  0
   51.9617   32.3542   37.9718 H   0  0  0  0  0  0  0  0  0  0  0  0
   51.1303   32.8309   36.4670 H   0  0  0  0  0  0  0  0  0  0  0  0
  2  1  1  0
  2  3  2  0
  3  4  1  0
  3 12  1  0
  5  4  2  0
  6  5  1  0
  7  6  2  0
  7  2  1  0
  8  9  2  0
  8 14  1  0
 10  9  1  0
 11 10  2  0
 12 11  1  0
 12 13  2  0
 13  8  1  0
 15  7  1  0
 17 16  2  0
 17 15  1  0
 18 17  1  0
 19 17  1  0
 19 20  1  0
 20 21  2  0
 22 20  1  0
  4 23  1  0
  5 24  1  0
  6 25  1  0
  9 26  1  0
 10 27  1  0
 14 28  1  0
 14 29  1  0
 18 30  1  0
 22 31  1  0
 22 32  1  0
M  ISO  6  23  14  24  14  25  14  26  14  27  14  30   3
M  END
>  <minimizedAffinity>  (1) 
-6.217237

>  <minimizedRMSD>  (1) 
1.06970251

$$$$
