
     RDKit          3D

 23 23  0  0  0  0  0  0  0  0999 V2000
   46.8960   33.0570   43.2150 C   0  0  0  0  0  0  0  0  0  0  0  0
   44.7800   35.0130   45.5730 C   0  0  0  0  0  0  0  0  0  0  0  0
   45.5720   33.9820   45.0580 C   0  0  0  0  0  0  0  0  0  0  0  0
   46.0600   34.1260   43.7800 C   0  0  0  0  0  0  0  0  0  0  0  0
   45.7560   35.2550   43.0710 N   0  0  0  0  0  0  0  0  0  0  0  0
   44.9780   36.2410   43.6070 C   0  0  0  0  0  0  0  0  0  0  0  0
   44.4990   36.1160   44.8440 N   0  0  0  0  0  0  0  0  0  0  0  0
   48.1790   33.0810   43.7320 O   0  0  0  0  0  0  0  0  0  0  0  0
   50.1930   32.5770   42.1480 O   0  0  0  0  0  0  0  0  0  0  0  0
   49.2040   33.6430   42.5150 P   0  0  2  0  0  0  0  0  0  0  0  0
   49.9530   35.0400   43.1190 O   0  0  0  0  0  0  0  0  0  0  0  0
   48.2750   34.0120   41.1680 O   0  0  0  0  0  0  0  0  0  0  0  0
   48.5800   34.9750   40.2280 C   0  0  0  0  0  0  0  0  0  0  0  0
   49.0110   36.0440   40.7800 O   0  0  0  0  0  0  0  0  0  0  0  0
   48.4670   34.8840   38.8140 N   0  0  0  0  0  0  0  0  0  0  0  0
   46.9493   33.1857   42.1239 H   0  0  0  0  0  0  0  0  0  0  0  0
   46.4396   32.0911   43.4772 H   0  0  0  0  0  0  0  0  0  0  0  0
   44.3772   34.9245   46.5928 H   0  0  0  0  0  0  0  0  0  0  0  0
   45.7972   33.0859   45.6549 H   0  0  0  0  0  0  0  0  0  0  0  0
   44.7464   37.1398   43.0166 H   0  0  0  0  0  0  0  0  0  0  0  0
   49.9417   35.0189   44.1087 H   0  0  0  0  0  0  0  0  0  0  0  0
   48.1184   34.0174   38.3799 H   0  0  0  0  0  0  0  0  0  0  0  0
   48.7338   35.6846   38.2235 H   0  0  0  0  0  0  0  0  0  0  0  0
  1  8  1  0
  1  4  1  0
  3  2  2  0
  4  3  1  0
  5  6  1  0
  5  4  2  0
  6  7  2  0
  7  2  1  0
 10  9  2  0
 10 11  1  0
 10  8  1  0
 12 10  1  0
 13 14  2  0
 13 12  1  0
 15 13  1  0
  1 16  1  0
  1 17  1  0
  2 18  1  0
  3 19  1  0
  6 20  1  0
 11 21  1  0
 15 22  1  0
 15 23  1  0
M  ISO  6  16   8  17   8  18  14  19  14  20  14  21   3
M  END
>  <minimizedAffinity>  (1) 
-4.5250721

>  <minimizedRMSD>  (1) 
1.00965607

$$$$
