
     RDKit          3D

 28 29  0  0  1  0  0  0  0  0999 V2000
   47.2810   32.2840   46.0470 C   0  0  2  0  0  0  0  0  0  0  0  0
   46.6560   32.1210   44.7050 C   0  0  1  0  0  0  0  0  0  0  0  0
   45.4550   31.3580   44.9780 O   0  0  0  0  0  0  0  0  0  0  0  0
   46.1200   30.2790   45.6470 C   0  0  0  0  0  0  0  0  0  0  0  0
   46.7580   31.0450   46.7950 C   0  0  2  0  0  0  0  0  0  0  0  0
   44.7490   35.1380   43.8930 C   0  0  0  0  0  0  0  0  0  0  0  0
   45.5450   35.7630   42.9040 C   0  0  0  0  0  0  0  0  0  0  0  0
   46.7460   35.1410   42.5050 C   0  0  0  0  0  0  0  0  0  0  0  0
   47.0940   33.9540   43.0910 N   0  0  0  0  0  0  0  0  0  0  0  0
   46.3060   33.3810   44.0390 C   0  0  0  0  0  0  0  0  0  0  0  0
   45.1480   33.9510   44.4450 N   0  0  0  0  0  0  0  0  0  0  0  0
   43.5540   35.7070   44.3260 O   0  0  0  0  0  0  0  0  0  0  0  0
   46.7970   33.4590   46.6800 O   0  0  0  0  0  0  0  0  0  0  0  0
   45.7650   31.4170   47.6760 O   0  0  0  0  0  0  0  0  0  0  0  0
   45.9390   31.2320   49.0400 C   0  0  0  0  0  0  0  0  0  0  0  0
   45.0360   31.4180   49.9030 O   0  0  0  0  0  0  0  0  0  0  0  0
   47.2520   30.8000   49.4450 N   0  0  0  0  0  0  0  0  0  0  0  0
   48.3772   32.3706   46.0163 H   0  0  0  0  0  0  0  0  0  0  0  0
   47.3621   31.6399   44.0122 H   0  0  0  0  0  0  0  0  0  0  0  0
   45.4097   29.5196   46.0059 H   0  0  0  0  0  0  0  0  0  0  0  0
   46.8204   29.7042   45.0233 H   0  0  0  0  0  0  0  0  0  0  0  0
   47.5214   30.5000   47.3695 H   0  0  0  0  0  0  0  0  0  0  0  0
   45.2325   36.7171   42.4544 H   0  0  0  0  0  0  0  0  0  0  0  0
   47.3891   35.5997   41.7395 H   0  0  0  0  0  0  0  0  0  0  0  0
   43.2461   36.5652   43.9404 H   0  0  0  0  0  0  0  0  0  0  0  0
   46.8430   33.3473   47.6626 H   0  0  0  0  0  0  0  0  0  0  0  0
   47.4573   30.6414   50.4418 H   0  0  0  0  0  0  0  0  0  0  0  0
   47.9856   30.6496   48.7378 H   0  0  0  0  0  0  0  0  0  0  0  0
  1 13  1  0
  1  5  1  0
  2  3  1  0
  2  1  1  0
  3  4  1  0
  4  5  1  0
  5 14  1  0
  6 12  1  0
  6 11  2  0
  7  6  1  0
  8  7  2  0
  8  9  1  0
  9 10  2  0
 10 11  1  0
 10  2  1  0
 14 15  1  0
 15 17  1  0
 15 16  2  0
  1 18  1  6
  2 19  1  6
  4 20  1  0
  4 21  1  0
  5 22  1  1
  7 23  1  0
  8 24  1  0
 12 25  1  0
 13 26  1  0
 17 27  1  0
 17 28  1  0
M  ISO  8  18  13  19  13  20  13  21  13  22  13  23  14  24  14  25   3
M  ISO  1  26   3
M  END
>  <minimizedAffinity>  (1) 
-5.44996786

>  <minimizedRMSD>  (1) 
1.883798

$$$$
