
     RDKit          3D

 19 19  0  0  0  0  0  0  0  0999 V2000
   44.4400   35.9770   44.4530 C   0  0  0  0  0  0  0  0  0  0  0  0
   45.1550   35.8030   43.2500 C   0  0  0  0  0  0  0  0  0  0  0  0
   46.1140   34.7970   43.2220 C   0  0  0  0  0  0  0  0  0  0  0  0
   46.2870   34.0660   44.3450 N   0  0  0  0  0  0  0  0  0  0  0  0
   45.5890   34.2570   45.4810 C   0  0  0  0  0  0  0  0  0  0  0  0
   44.6520   35.2300   45.5280 N   0  0  0  0  0  0  0  0  0  0  0  0
   45.8410   33.4410   46.6630 C   0  0  0  0  0  0  0  0  0  0  0  0
   44.8960   33.1080   47.4370 O   0  0  0  0  0  0  0  0  0  0  0  0
   47.4530   32.2180   48.0850 C   0  0  0  0  0  0  0  0  0  0  0  0
   46.5400   31.8730   48.8710 O   0  0  0  0  0  0  0  0  0  0  0  0
   47.1810   33.0190   46.9330 N   0  0  0  0  0  0  0  0  0  0  0  0
   46.8280   34.6470   41.9660 C   0  0  0  0  0  0  0  0  0  0  0  0
   47.5680   33.4570   42.0030 F   0  0  0  0  0  0  0  0  0  0  0  0
   47.7910   35.6640   41.9330 F   0  0  0  0  0  0  0  0  0  0  0  0
   46.0400   34.6350   40.8700 F   0  0  0  0  0  0  0  0  0  0  0  0
   43.6744   36.7653   44.5017 H   0  0  0  0  0  0  0  0  0  0  0  0
   44.9621   36.4362   42.3714 H   0  0  0  0  0  0  0  0  0  0  0  0
   48.4859   31.8975   48.2860 H   0  0  0  0  0  0  0  0  0  0  0  0
   47.9465   33.2913   46.2999 H   0  0  0  0  0  0  0  0  0  0  0  0
  1  6  2  0
  2  1  1  0
  3  2  2  0
  3  4  1  0
  4  5  2  0
  5  6  1  0
  5  7  1  0
  7 11  1  0
  7  8  2  0
  9 10  2  0
 11  9  1  0
 12 13  1  0
 12  3  1  0
 14 12  1  0
 15 12  1  0
  1 16  1  0
  2 17  1  0
  9 18  1  0
 11 19  1  0
M  ISO  3  16  14  17  14  18   6
M  END
>  <minimizedAffinity>  (1) 
-5.33363342

>  <minimizedRMSD>  (1) 
0.514166355

$$$$
