
     RDKit          3D

 25 26  0  0  0  0  0  0  0  0999 V2000
   45.1780   36.1880   43.3260 C   0  0  0  0  0  0  0  0  0  0  0  0
   45.8090   34.9750   42.9680 C   0  0  0  0  0  0  0  0  0  0  0  0
   45.8260   33.9650   43.9220 C   0  0  0  0  0  0  0  0  0  0  0  0
   45.2610   34.1590   45.1250 N   0  0  0  0  0  0  0  0  0  0  0  0
   44.6560   35.3430   45.4470 C   0  0  0  0  0  0  0  0  0  0  0  0
   44.6280   36.3190   44.5540 N   0  0  0  0  0  0  0  0  0  0  0  0
   46.4730   32.7020   43.5700 C   0  0  0  0  0  0  0  0  0  0  0  0
   45.7040   31.6390   43.1280 C   0  0  0  0  0  0  0  0  0  0  0  0
   46.3540   30.4670   42.8060 C   0  0  0  0  0  0  0  0  0  0  0  0
   47.7250   30.2830   42.8960 C   0  0  0  0  0  0  0  0  0  0  0  0
   48.4250   31.3970   43.3470 C   0  0  0  0  0  0  0  0  0  0  0  0
   47.7930   32.5510   43.6660 N   0  0  0  0  0  0  0  0  0  0  0  0
   46.3930   34.8130   41.6830 C   0  0  0  0  0  0  0  0  0  0  0  0
   47.6280   35.0400   41.5540 O   0  0  0  0  0  0  0  0  0  0  0  0
   44.1410   34.1860   40.9350 C   0  0  0  0  0  0  0  0  0  0  0  0
   43.7400   34.3650   42.1270 O   0  0  0  0  0  0  0  0  0  0  0  0
   45.5230   34.4010   40.6150 N   0  0  0  0  0  0  0  0  0  0  0  0
   45.1347   37.0212   42.6091 H   0  0  0  0  0  0  0  0  0  0  0  0
   44.1979   35.4821   46.4373 H   0  0  0  0  0  0  0  0  0  0  0  0
   44.6113   31.7268   43.0369 H   0  0  0  0  0  0  0  0  0  0  0  0
   45.7444   29.6216   42.4543 H   0  0  0  0  0  0  0  0  0  0  0  0
   48.2179   29.3355   42.6328 H   0  0  0  0  0  0  0  0  0  0  0  0
   49.5189   31.3390   43.4470 H   0  0  0  0  0  0  0  0  0  0  0  0
   43.4342   33.8686   40.1542 H   0  0  0  0  0  0  0  0  0  0  0  0
   45.8780   34.2655   39.6576 H   0  0  0  0  0  0  0  0  0  0  0  0
  1  6  2  0
  2  1  1  0
  2  3  2  0
  3  4  1  0
  4  5  2  0
  6  5  1  0
  7 12  1  0
  7  3  1  0
  8  7  2  0
  9 10  2  0
  9  8  1  0
 10 11  1  0
 11 12  2  0
 13  2  1  0
 14 13  2  0
 15 16  2  0
 17 15  1  0
 17 13  1  0
  1 18  1  0
  5 19  1  0
  8 20  1  0
  9 21  1  0
 10 22  1  0
 11 23  1  0
 15 24  1  0
 17 25  1  0
M  ISO  7  18  14  19  14  20  14  21  14  22  14  23  14  24   6
M  END
>  <minimizedAffinity>  (1) 
-4.41588402

>  <minimizedRMSD>  (1) 
0.307553887

$$$$
