
     RDKit          3D

 36 38  0  0  1  0  0  0  0  0999 V2000
   48.5540   32.3710   38.0910 O   0  0  0  0  0  0  0  0  0  0  0  0
   48.0770   33.8140   38.2550 P   0  0  2  0  0  0  0  0  0  0  0  0
   49.3040   34.7680   37.5770 O   0  0  0  0  0  0  0  0  0  0  0  0
   47.7020   34.1770   39.8050 O   0  0  0  0  0  0  0  0  0  0  0  0
   48.0810   35.4590   41.8200 C   0  0  1  0  0  0  0  0  0  0  0  0
   49.3060   34.6660   41.6640 C   0  0  0  0  0  0  0  0  0  0  0  0
   48.4500   35.0870   40.4550 C   0  0  1  0  0  0  0  0  0  0  0  0
   46.0460   32.9390   43.7870 C   0  0  0  0  0  0  0  0  0  0  0  0
   47.1400   33.6140   43.2570 C   0  0  0  0  0  0  0  0  0  0  0  0
   46.9150   34.7220   42.4200 C   0  0  0  0  0  0  0  0  0  0  0  0
   45.6400   35.1010   42.1540 N   0  0  0  0  0  0  0  0  0  0  0  0
   44.5920   34.4180   42.6890 C   0  0  0  0  0  0  0  0  0  0  0  0
   44.7980   33.3390   43.5040 N   0  0  0  0  0  0  0  0  0  0  0  0
   46.7320   33.9390   37.2570 O   0  0  0  0  0  0  0  0  0  0  0  0
   45.7040   33.0170   37.2120 C   0  0  0  0  0  0  0  0  0  0  0  0
   45.5970   31.8840   36.4360 C   0  0  0  0  0  0  0  0  0  0  0  0
   44.5080   31.0660   36.5060 C   0  0  0  0  0  0  0  0  0  0  0  0
   43.4730   31.3580   37.3670 C   0  0  0  0  0  0  0  0  0  0  0  0
   43.6130   32.5130   38.1370 C   0  0  0  0  0  0  0  0  0  0  0  0
   44.7110   33.3140   38.0500 N   0  0  0  0  0  0  0  0  0  0  0  0
   42.2240   34.0230   39.7430 C   0  0  0  0  0  0  0  0  0  0  0  0
   42.9120   35.0730   39.6590 O   0  0  0  0  0  0  0  0  0  0  0  0
   42.5440   32.8400   39.0430 N   0  0  0  0  0  0  0  0  0  0  0  0
   49.8374   35.1827   38.3006 H   0  0  0  0  0  0  0  0  0  0  0  0
   47.8475   36.4208   42.2999 H   0  0  0  0  0  0  0  0  0  0  0  0
   50.2906   35.1260   41.8342 H   0  0  0  0  0  0  0  0  0  0  0  0
   49.6878   33.7167   42.0678 H   0  0  0  0  0  0  0  0  0  0  0  0
   48.6429   35.6181   39.5112 H   0  0  0  0  0  0  0  0  0  0  0  0
   46.2056   32.0707   44.4431 H   0  0  0  0  0  0  0  0  0  0  0  0
   48.1645   33.2870   43.4884 H   0  0  0  0  0  0  0  0  0  0  0  0
   43.5642   34.7381   42.4629 H   0  0  0  0  0  0  0  0  0  0  0  0
   46.4118   31.6322   35.7412 H   0  0  0  0  0  0  0  0  0  0  0  0
   44.4558   30.1687   35.8719 H   0  0  0  0  0  0  0  0  0  0  0  0
   42.5838   30.7150   37.4433 H   0  0  0  0  0  0  0  0  0  0  0  0
   41.3345   34.0272   40.3901 H   0  0  0  0  0  0  0  0  0  0  0  0
   41.8884   32.0640   39.2128 H   0  0  0  0  0  0  0  0  0  0  0  0
  2  1  2  0
  2  4  1  0
  3  2  1  0
  4  7  1  0
  5 10  1  0
  6  5  1  0
  7  6  1  0
  7  5  1  0
  9  8  2  0
 10  9  1  0
 11 10  2  0
 11 12  1  0
 12 13  2  0
 13  8  1  0
 14  2  1  0
 15 14  1  0
 15 20  2  0
 16 17  2  0
 16 15  1  0
 17 18  1  0
 18 19  2  0
 19 23  1  0
 20 19  1  0
 22 21  2  0
 23 21  1  0
  3 24  1  0
  5 25  1  6
  6 26  1  0
  6 27  1  0
  7 28  1  6
  8 29  1  0
  9 30  1  0
 12 31  1  0
 16 32  1  0
 17 33  1  0
 18 34  1  0
 21 35  1  0
 23 36  1  0
M  ISO  8  24   3  25  13  26  13  27  13  28  13  29  14  30  14  31  14
M  ISO  4  32  14  33  14  34  14  35   6
M  END
>  <minimizedAffinity>  (1) 
-4.8351016

>  <minimizedRMSD>  (1) 
0.575656712

$$$$
