
     RDKit          3D

 35 37  0  0  1  0  0  0  0  0999 V2000
   45.9740   33.5110   45.8700 C   0  0  0  0  0  0  0  0  0  0  0  0
   46.7160   33.6210   44.6860 C   0  0  0  0  0  0  0  0  0  0  0  0
   47.3110   32.4370   44.1570 C   0  0  0  0  0  0  0  0  0  0  0  0
   47.1320   31.2550   44.8220 N   0  0  0  0  0  0  0  0  0  0  0  0
   46.4090   31.2100   45.9570 C   0  0  0  0  0  0  0  0  0  0  0  0
   45.8380   32.3270   46.4710 N   0  0  0  0  0  0  0  0  0  0  0  0
   46.2780   29.9600   46.5760 N   0  0  0  0  0  0  0  0  0  0  0  0
   47.4290   29.2400   47.0080 C   0  0  2  0  0  0  0  0  0  0  0  0
   47.1770   27.8240   47.3910 C   0  0  0  0  0  0  0  0  0  0  0  0
   45.9030   27.5250   47.9320 N   0  0  0  0  0  0  0  0  0  0  0  0
   45.0390   28.6400   48.0800 C   0  0  0  0  0  0  0  0  0  0  0  0
   44.9650   29.3900   46.7830 C   0  0  0  0  0  0  0  0  0  0  0  0
   48.2040   29.9910   48.0310 C   0  0  0  0  0  0  0  0  0  0  0  0
   47.8250   30.8070   49.0720 C   0  0  0  0  0  0  0  0  0  0  0  0
   48.8800   31.2710   49.7520 N   0  0  0  0  0  0  0  0  0  0  0  0
   49.9520   30.7420   49.1380 C   0  0  0  0  0  0  0  0  0  0  0  0
   49.5450   29.9840   48.1190 N   0  0  0  0  0  0  0  0  0  0  0  0
   51.6840   32.3640   49.9960 C   0  0  0  0  0  0  0  0  0  0  0  0
   50.8570   33.3030   49.8760 O   0  0  0  0  0  0  0  0  0  0  0  0
   51.2680   31.0490   49.6330 N   0  0  0  0  0  0  0  0  0  0  0  0
   45.5019   34.4039   46.3056 H   0  0  0  0  0  0  0  0  0  0  0  0
   46.8359   34.5904   44.1801 H   0  0  0  0  0  0  0  0  0  0  0  0
   47.9032   32.4740   43.2308 H   0  0  0  0  0  0  0  0  0  0  0  0
   48.0642   29.1578   46.1137 H   0  0  0  0  0  0  0  0  0  0  0  0
   47.3087   27.2072   46.4898 H   0  0  0  0  0  0  0  0  0  0  0  0
   47.8900   27.6144   48.2020 H   0  0  0  0  0  0  0  0  0  0  0  0
   45.4433   26.8446   47.3102 H   0  0  0  0  0  0  0  0  0  0  0  0
   44.0341   28.2908   48.3596 H   0  0  0  0  0  0  0  0  0  0  0  0
   45.4280   29.3039   48.8661 H   0  0  0  0  0  0  0  0  0  0  0  0
   44.2083   30.1860   46.8445 H   0  0  0  0  0  0  0  0  0  0  0  0
   44.6771   28.7295   45.9518 H   0  0  0  0  0  0  0  0  0  0  0  0
   46.7801   31.0489   49.3160 H   0  0  0  0  0  0  0  0  0  0  0  0
   48.8721   31.8979   50.5692 H   0  0  0  0  0  0  0  0  0  0  0  0
   52.7010   32.5514   50.3708 H   0  0  0  0  0  0  0  0  0  0  0  0
   51.9449   30.2787   49.7302 H   0  0  0  0  0  0  0  0  0  0  0  0
  1  6  2  0
  2  1  1  0
  3  2  2  0
  3  4  1  0
  4  5  2  0
  5  6  1  0
  5  7  1  0
  7 12  1  0
  7  8  1  0
  8  9  1  0
  8 13  1  0
  9 10  1  0
 10 11  1  0
 12 11  1  0
 13 17  1  0
 13 14  2  0
 14 15  1  0
 16 20  1  0
 16 15  1  0
 17 16  2  0
 19 18  2  0
 20 18  1  0
  1 21  1  0
  2 22  1  0
  3 23  1  0
  8 24  1  6
  9 25  1  0
  9 26  1  0
 10 27  1  0
 11 28  1  0
 11 29  1  0
 12 30  1  0
 12 31  1  0
 14 32  1  0
 15 33  1  0
 18 34  1  0
 20 35  1  0
M  ISO  8  21  14  22  14  23  14  24  13  25  13  26  13  27   5  28  13
M  ISO  6  29  13  30  13  31  13  32  14  33   9  34   6
M  END
>  <minimizedAffinity>  (1) 
-4.9071064

>  <minimizedRMSD>  (1) 
0.0387724228

$$$$
