
     RDKit          3D

 28 29  0  0  1  0  0  0  0  0999 V2000
   44.2100   34.4310   41.3320 N   0  0  0  0  0  0  0  0  0  0  0  0
   45.0200   33.6950   40.4620 C   0  0  1  0  0  0  0  0  0  0  0  0
   44.5020   33.4810   39.0770 C   0  0  0  0  0  0  0  0  0  0  0  0
   43.1190   33.3420   38.9350 N   0  0  0  0  0  0  0  0  0  0  0  0
   42.3220   34.0900   39.8240 C   0  0  0  0  0  0  0  0  0  0  0  0
   43.1190   35.0570   40.6720 C   0  0  0  0  0  0  0  0  0  0  0  0
   44.2890   35.7000   43.3570 C   0  0  0  0  0  0  0  0  0  0  0  0
   44.5290   34.4850   42.7090 C   0  0  0  0  0  0  0  0  0  0  0  0
   45.0560   33.4380   43.4550 C   0  0  0  0  0  0  0  0  0  0  0  0
   45.3250   33.6050   44.7720 N   0  0  0  0  0  0  0  0  0  0  0  0
   45.0770   34.8060   45.3670 C   0  0  0  0  0  0  0  0  0  0  0  0
   44.5720   35.8260   44.6750 N   0  0  0  0  0  0  0  0  0  0  0  0
   47.7050   33.9320   40.5250 C   0  0  0  0  0  0  0  0  0  0  0  0
   47.7510   32.8930   41.2680 O   0  0  0  0  0  0  0  0  0  0  0  0
   46.3550   34.2140   40.2070 N   0  0  0  0  0  0  0  0  0  0  0  0
   45.0305   32.7722   41.0606 H   0  0  0  0  0  0  0  0  0  0  0  0
   44.8138   34.3427   38.4685 H   0  0  0  0  0  0  0  0  0  0  0  0
   44.9219   32.5153   38.7592 H   0  0  0  0  0  0  0  0  0  0  0  0
   42.8718   33.6266   37.9765 H   0  0  0  0  0  0  0  0  0  0  0  0
   41.5880   34.6624   39.2379 H   0  0  0  0  0  0  0  0  0  0  0  0
   41.8396   33.3768   40.5086 H   0  0  0  0  0  0  0  0  0  0  0  0
   43.5099   35.8551   40.0237 H   0  0  0  0  0  0  0  0  0  0  0  0
   42.4459   35.4566   41.4448 H   0  0  0  0  0  0  0  0  0  0  0  0
   43.8717   36.5507   42.7982 H   0  0  0  0  0  0  0  0  0  0  0  0
   45.2557   32.4691   42.9739 H   0  0  0  0  0  0  0  0  0  0  0  0
   45.2977   34.9351   46.4369 H   0  0  0  0  0  0  0  0  0  0  0  0
   48.5752   34.5138   40.1869 H   0  0  0  0  0  0  0  0  0  0  0  0
   46.3006   35.0490   39.6064 H   0  0  0  0  0  0  0  0  0  0  0  0
  1  8  1  0
  2  1  1  0
  3  2  1  0
  4  3  1  0
  4  5  1  0
  5  6  1  0
  6  1  1  0
  7 12  2  0
  8  7  1  0
  8  9  2  0
  9 10  1  0
 10 11  2  0
 12 11  1  0
 13 14  2  0
 15  2  1  0
 15 13  1  0
  2 16  1  1
  3 17  1  0
  3 18  1  0
  4 19  1  0
  5 20  1  0
  5 21  1  0
  6 22  1  0
  6 23  1  0
  7 24  1  0
  9 25  1  0
 11 26  1  0
 13 27  1  0
 15 28  1  0
M  ISO  8  16  13  17  13  18  13  19   5  20  13  21  13  22  13  23  13
M  ISO  4  24  14  25  14  26  14  27   6
M  END
>  <minimizedAffinity>  (1) 
-3.89060402

>  <minimizedRMSD>  (1) 
1.50306797

$$$$
