
     RDKit          3D

 31 32  0  0  1  0  0  0  0  0999 V2000
   45.6990   34.4160   41.7990 N   0  0  0  0  0  0  0  0  0  0  0  0
   47.0610   34.1920   41.3750 C   0  0  1  0  0  0  0  0  0  0  0  0
   47.2240   34.0610   39.9020 C   0  0  0  0  0  0  0  0  0  0  0  0
   46.2080   33.4010   39.2200 N   0  0  0  0  0  0  0  0  0  0  0  0
   44.9030   33.4410   39.7140 C   0  0  0  0  0  0  0  0  0  0  0  0
   44.7450   34.5490   40.7360 C   0  0  0  0  0  0  0  0  0  0  0  0
   44.7640   35.5930   43.6420 C   0  0  0  0  0  0  0  0  0  0  0  0
   45.4480   34.4790   43.1870 C   0  0  0  0  0  0  0  0  0  0  0  0
   45.8360   33.5080   44.1250 C   0  0  0  0  0  0  0  0  0  0  0  0
   45.5370   33.6810   45.4370 N   0  0  0  0  0  0  0  0  0  0  0  0
   44.8660   34.7850   45.8410 C   0  0  0  0  0  0  0  0  0  0  0  0
   44.4890   35.7170   44.9710 N   0  0  0  0  0  0  0  0  0  0  0  0
   47.8670   35.3920   41.8190 C   0  0  0  0  0  0  0  0  0  0  0  0
   50.0990   34.2560   42.2090 C   0  0  0  0  0  0  0  0  0  0  0  0
   49.6440   33.5260   43.1240 O   0  0  0  0  0  0  0  0  0  0  0  0
   49.2590   35.1960   41.5330 N   0  0  0  0  0  0  0  0  0  0  0  0
   47.3929   33.2422   41.8196 H   0  0  0  0  0  0  0  0  0  0  0  0
   47.3030   35.0752   39.4834 H   0  0  0  0  0  0  0  0  0  0  0  0
   48.1194   33.4373   39.7634 H   0  0  0  0  0  0  0  0  0  0  0  0
   46.4780   32.4083   39.1699 H   0  0  0  0  0  0  0  0  0  0  0  0
   44.2077   33.6183   38.8803 H   0  0  0  0  0  0  0  0  0  0  0  0
   44.6821   32.4797   40.2010 H   0  0  0  0  0  0  0  0  0  0  0  0
   44.8946   35.5190   40.2392 H   0  0  0  0  0  0  0  0  0  0  0  0
   43.7344   34.4842   41.1656 H   0  0  0  0  0  0  0  0  0  0  0  0
   44.4445   36.3732   42.9354 H   0  0  0  0  0  0  0  0  0  0  0  0
   46.3805   32.6103   43.7969 H   0  0  0  0  0  0  0  0  0  0  0  0
   44.6286   34.9133   46.9074 H   0  0  0  0  0  0  0  0  0  0  0  0
   47.5101   36.2853   41.2855 H   0  0  0  0  0  0  0  0  0  0  0  0
   47.7417   35.5230   42.9040 H   0  0  0  0  0  0  0  0  0  0  0  0
   51.1579   34.1714   41.9235 H   0  0  0  0  0  0  0  0  0  0  0  0
   49.6823   35.7710   40.7907 H   0  0  0  0  0  0  0  0  0  0  0  0
  1  8  1  0
  2  1  1  0
  2 13  1  0
  3  2  1  0
  4  5  1  0
  4  3  1  0
  5  6  1  0
  6  1  1  0
  7 12  2  0
  8  7  1  0
  8  9  2  0
  9 10  1  0
 10 11  2  0
 12 11  1  0
 14 15  2  0
 16 13  1  0
 16 14  1  0
  2 17  1  1
  3 18  1  0
  3 19  1  0
  4 20  1  0
  5 21  1  0
  5 22  1  0
  6 23  1  0
  6 24  1  0
  7 25  1  0
  9 26  1  0
 11 27  1  0
 13 28  1  0
 13 29  1  0
 14 30  1  0
 16 31  1  0
M  ISO  8  17  13  18  13  19  13  20   5  21  13  22  13  23  13  24  13
M  ISO  6  25  14  26  14  27  14  28   8  29   8  30   6
M  END
>  <minimizedAffinity>  (1) 
-4.20749664

>  <minimizedRMSD>  (1) 
0.826999664

$$$$
