
     RDKit          3D

 26 27  0  0  1  0  0  0  0  0999 V2000
   47.0660   35.1700   41.7370 C   0  0  1  0  0  0  0  0  0  0  0  0
   48.5710   35.5470   41.8280 C   0  0  0  0  0  0  0  0  0  0  0  0
   47.9630   34.3480   41.0370 C   0  0  2  0  0  0  0  0  0  0  0  0
   45.0000   34.8510   44.8530 C   0  0  0  0  0  0  0  0  0  0  0  0
   45.4610   35.3570   43.6090 C   0  0  0  0  0  0  0  0  0  0  0  0
   46.5520   34.7420   43.0930 C   0  0  0  0  0  0  0  0  0  0  0  0
   47.1780   33.6990   43.7360 N   0  0  0  0  0  0  0  0  0  0  0  0
   46.7110   33.2430   44.9200 C   0  0  0  0  0  0  0  0  0  0  0  0
   45.6160   33.8240   45.4800 N   0  0  0  0  0  0  0  0  0  0  0  0
   44.8400   36.4500   42.9830 N   0  0  0  0  0  0  0  0  0  0  0  0
   48.0420   34.3670   39.5300 C   0  0  0  0  0  0  0  0  0  0  0  0
   49.0530   33.0410   37.6720 C   0  0  0  0  0  0  0  0  0  0  0  0
   48.5870   33.9200   36.8770 O   0  0  0  0  0  0  0  0  0  0  0  0
   48.8030   33.2200   39.0610 N   0  0  0  0  0  0  0  0  0  0  0  0
   46.1275   35.6336   41.3988 H   0  0  0  0  0  0  0  0  0  0  0  0
   48.9671   36.4293   41.3040 H   0  0  0  0  0  0  0  0  0  0  0  0
   49.3240   35.7048   42.6142 H   0  0  0  0  0  0  0  0  0  0  0  0
   48.1198   33.2593   41.0312 H   0  0  0  0  0  0  0  0  0  0  0  0
   44.1154   35.3082   45.3204 H   0  0  0  0  0  0  0  0  0  0  0  0
   47.2138   32.4067   45.4277 H   0  0  0  0  0  0  0  0  0  0  0  0
   45.1953   36.7966   42.0805 H   0  0  0  0  0  0  0  0  0  0  0  0
   44.0293   36.9050   43.4264 H   0  0  0  0  0  0  0  0  0  0  0  0
   47.0258   34.3269   39.1107 H   0  0  0  0  0  0  0  0  0  0  0  0
   48.5417   35.2914   39.2046 H   0  0  0  0  0  0  0  0  0  0  0  0
   49.6255   32.1786   37.2999 H   0  0  0  0  0  0  0  0  0  0  0  0
   49.1632   32.5330   39.7386 H   0  0  0  0  0  0  0  0  0  0  0  0
  1  2  1  0
  1  6  1  0
  3  1  1  0
  3  2  1  0
  4  9  2  0
  5  4  1  0
  6  5  2  0
  6  7  1  0
  7  8  2  0
  8  9  1  0
 10  5  1  0
 11  3  1  0
 12 14  1  0
 13 12  2  0
 14 11  1  0
  1 15  1  6
  2 16  1  0
  2 17  1  0
  3 18  1  1
  4 19  1  0
  8 20  1  0
 10 21  1  0
 10 22  1  0
 11 23  1  0
 11 24  1  0
 12 25  1  0
 14 26  1  0
M  ISO  8  15  13  16  13  17  13  18  13  19  14  20  14  23   8  24   8
M  ISO  1  25   6
M  END
>  <minimizedAffinity>  (1) 
-4.49944878

>  <minimizedRMSD>  (1) 
1.69904959

$$$$
