
     RDKit          3D

 17 17  0  0  0  0  0  0  0  0999 V2000
   45.4230   35.2020   43.0960 C   0  0  0  0  0  0  0  0  0  0  0  0
   46.4590   35.5600   42.2080 C   0  0  0  0  0  0  0  0  0  0  0  0
   47.6810   34.8800   42.3820 C   0  0  0  0  0  0  0  0  0  0  0  0
   47.7690   33.9530   43.3640 N   0  0  0  0  0  0  0  0  0  0  0  0
   46.7430   33.6480   44.1860 C   0  0  0  0  0  0  0  0  0  0  0  0
   45.5660   34.2790   44.0480 N   0  0  0  0  0  0  0  0  0  0  0  0
   43.4050   35.3480   41.8880 C   0  0  0  0  0  0  0  0  0  0  0  0
   43.9480   34.4600   41.1540 O   0  0  0  0  0  0  0  0  0  0  0  0
   44.1470   35.8330   43.0030 N   0  0  0  0  0  0  0  0  0  0  0  0
   48.7400   35.2680   41.4500 C   0  0  0  0  0  0  0  0  0  0  0  0
   49.8500   34.4460   41.6700 F   0  0  0  0  0  0  0  0  0  0  0  0
   49.1520   36.5410   41.8070 F   0  0  0  0  0  0  0  0  0  0  0  0
   48.3890   35.1540   40.1400 F   0  0  0  0  0  0  0  0  0  0  0  0
   46.3214   36.3230   41.4277 H   0  0  0  0  0  0  0  0  0  0  0  0
   46.8708   32.8842   44.9672 H   0  0  0  0  0  0  0  0  0  0  0  0
   42.3963   35.7279   41.6682 H   0  0  0  0  0  0  0  0  0  0  0  0
   43.8052   36.5492   43.6596 H   0  0  0  0  0  0  0  0  0  0  0  0
  1  6  2  0
  2  3  2  0
  2  1  1  0
  3  4  1  0
  4  5  2  0
  6  5  1  0
  7  9  1  0
  8  7  2  0
  9  1  1  0
 10 11  1  0
 10 12  1  0
 10  3  1  0
 13 10  1  0
  2 14  1  0
  5 15  1  0
  7 16  1  0
  9 17  1  0
M  ISO  3  14  14  15  14  16   6
M  END
>  <minimizedAffinity>  (1) 
-4.72248697

>  <minimizedRMSD>  (1) 
1.96267569

$$$$
