
     RDKit          3D

 23 24  0  0  1  0  0  0  0  0999 V2000
   46.4980   35.1450   41.9970 C   0  0  1  0  0  0  0  0  0  0  0  0
   48.0270   35.3090   41.8700 C   0  0  0  0  0  0  0  0  0  0  0  0
   47.1670   34.1860   41.1990 C   0  0  2  0  0  0  0  0  0  0  0  0
   44.7940   35.0430   45.3510 C   0  0  0  0  0  0  0  0  0  0  0  0
   45.1440   35.5030   44.0550 C   0  0  0  0  0  0  0  0  0  0  0  0
   46.1250   34.7880   43.4140 C   0  0  0  0  0  0  0  0  0  0  0  0
   46.7200   33.6940   44.0190 N   0  0  0  0  0  0  0  0  0  0  0  0
   46.3510   33.2980   45.2520 C   0  0  0  0  0  0  0  0  0  0  0  0
   45.3810   33.9800   45.9190 N   0  0  0  0  0  0  0  0  0  0  0  0
   44.5600   36.6510   43.4450 N   0  0  0  0  0  0  0  0  0  0  0  0
   48.1410   33.3700   39.0130 C   0  0  0  0  0  0  0  0  0  0  0  0
   48.9630   32.6140   39.5930 O   0  0  0  0  0  0  0  0  0  0  0  0
   47.2120   34.1850   39.7560 N   0  0  0  0  0  0  0  0  0  0  0  0
   45.5997   35.7417   41.7802 H   0  0  0  0  0  0  0  0  0  0  0  0
   48.4605   36.1233   41.2708 H   0  0  0  0  0  0  0  0  0  0  0  0
   48.8940   35.3720   42.5440 H   0  0  0  0  0  0  0  0  0  0  0  0
   47.0821   33.0893   41.2047 H   0  0  0  0  0  0  0  0  0  0  0  0
   44.0124   35.5783   45.9100 H   0  0  0  0  0  0  0  0  0  0  0  0
   46.8323   32.4258   45.7185 H   0  0  0  0  0  0  0  0  0  0  0  0
   44.8539   36.9380   42.5005 H   0  0  0  0  0  0  0  0  0  0  0  0
   43.8440   37.1937   43.9487 H   0  0  0  0  0  0  0  0  0  0  0  0
   48.1309   33.4100   37.9138 H   0  0  0  0  0  0  0  0  0  0  0  0
   46.5568   34.7882   39.2385 H   0  0  0  0  0  0  0  0  0  0  0  0
  1  6  1  0
  2  1  1  0
  3  2  1  0
  3  1  1  0
  4  9  2  0
  5  4  1  0
  6  7  1  0
  6  5  2  0
  7  8  2  0
  8  9  1  0
 10  5  1  0
 11 12  2  0
 11 13  1  0
 13  3  1  0
  1 14  1  6
  2 15  1  0
  2 16  1  0
  3 17  1  1
  4 18  1  0
  8 19  1  0
 10 20  1  0
 10 21  1  0
 11 22  1  0
 13 23  1  0
M  ISO  7  14  13  15  13  16  13  17  13  18  14  19  14  22   6
M  END
>  <minimizedAffinity>  (1) 
-4.38210392

>  <minimizedRMSD>  (1) 
0.757657051

$$$$
