
     RDKit          3D

 38 40  0  0  1  0  0  0  0  0999 V2000
   44.0540   34.6850   42.4680 C   0  0  1  0  0  0  0  0  0  0  0  0
   44.2550   36.1600   41.9820 C   0  0  0  0  0  0  0  0  0  0  0  0
   44.1010   34.9540   41.0610 C   0  0  2  0  0  0  0  0  0  0  0  0
   45.1890   34.1530   43.2460 C   0  0  0  0  0  0  0  0  0  0  0  0
   46.4540   34.1280   42.6310 C   0  0  0  0  0  0  0  0  0  0  0  0
   47.5350   33.6320   43.3490 C   0  0  0  0  0  0  0  0  0  0  0  0
   47.3170   33.1950   44.6120 N   0  0  0  0  0  0  0  0  0  0  0  0
   46.1040   33.2300   45.1710 C   0  0  0  0  0  0  0  0  0  0  0  0
   45.0770   33.7100   44.4650 N   0  0  0  0  0  0  0  0  0  0  0  0
   46.0650   32.7030   46.5750 C   0  0  0  0  0  0  0  0  0  0  0  0
   45.0960   33.3430   47.3320 F   0  0  0  0  0  0  0  0  0  0  0  0
   47.2960   33.0080   47.2050 F   0  0  0  0  0  0  0  0  0  0  0  0
   45.9560   31.3400   46.5570 F   0  0  0  0  0  0  0  0  0  0  0  0
   42.7700   34.8150   40.3550 C   0  0  0  0  0  0  0  0  0  0  0  0
   42.6240   35.1760   39.0390 C   0  0  0  0  0  0  0  0  0  0  0  0
   41.4300   35.0400   38.3600 C   0  0  0  0  0  0  0  0  0  0  0  0
   40.3810   34.5320   39.0300 N   0  0  0  0  0  0  0  0  0  0  0  0
   40.5170   34.1690   40.3400 C   0  0  0  0  0  0  0  0  0  0  0  0
   41.6880   34.3110   40.9840 N   0  0  0  0  0  0  0  0  0  0  0  0
   39.3890   33.5850   41.1290 C   0  0  0  0  0  0  0  0  0  0  0  0
   38.5780   32.6550   40.2720 C   0  0  0  0  0  0  0  0  0  0  0  0
   37.5600   30.5160   41.2360 C   0  0  0  0  0  0  0  0  0  0  0  0
   38.3000   29.7640   40.5600 O   0  0  0  0  0  0  0  0  0  0  0  0
   37.6630   31.9270   41.1260 N   0  0  0  0  0  0  0  0  0  0  0  0
   43.3377   34.0930   43.0567 H   0  0  0  0  0  0  0  0  0  0  0  0
   43.4470   36.8999   42.0802 H   0  0  0  0  0  0  0  0  0  0  0  0
   44.9877   36.9657   42.1372 H   0  0  0  0  0  0  0  0  0  0  0  0
   44.7067   34.5725   40.2258 H   0  0  0  0  0  0  0  0  0  0  0  0
   46.5846   34.4940   41.6019 H   0  0  0  0  0  0  0  0  0  0  0  0
   48.5402   33.5953   42.9038 H   0  0  0  0  0  0  0  0  0  0  0  0
   43.4920   35.5897   38.5047 H   0  0  0  0  0  0  0  0  0  0  0  0
   41.3397   35.3376   37.3049 H   0  0  0  0  0  0  0  0  0  0  0  0
   39.7960   33.0269   41.9851 H   0  0  0  0  0  0  0  0  0  0  0  0
   38.7412   34.4004   41.4834 H   0  0  0  0  0  0  0  0  0  0  0  0
   39.2451   31.9493   39.7554 H   0  0  0  0  0  0  0  0  0  0  0  0
   38.0171   33.2279   39.5189 H   0  0  0  0  0  0  0  0  0  0  0  0
   36.8216   30.0771   41.9231 H   0  0  0  0  0  0  0  0  0  0  0  0
   37.0256   32.4872   41.7098 H   0  0  0  0  0  0  0  0  0  0  0  0
  1  4  1  0
  2  1  1  0
  3  2  1  0
  3  1  1  0
  4  9  1  0
  5  4  2  0
  5  6  1  0
  6  7  2  0
  7  8  1  0
  8 10  1  0
  9  8  2  0
 10 12  1  0
 10 11  1  0
 13 10  1  0
 14 19  1  0
 14  3  1  0
 15 14  2  0
 16 17  2  0
 16 15  1  0
 17 18  1  0
 18 19  2  0
 18 20  1  0
 21 24  1  0
 21 20  1  0
 23 22  2  0
 24 22  1  0
  1 25  1  6
  2 26  1  0
  2 27  1  0
  3 28  1  6
  5 29  1  0
  6 30  1  0
 15 31  1  0
 16 32  1  0
 20 33  1  0
 20 34  1  0
 21 35  1  0
 21 36  1  0
 22 37  1  0
 24 38  1  0
M  ISO  8  25  13  26  13  27  13  28  13  29  14  30  14  31  14  32  14
M  ISO  5  33   8  34   8  35   8  36   8  37   6
M  END
>  <minimizedAffinity>  (1) 
-5.57216263

>  <minimizedRMSD>  (1) 
0.251281947

$$$$
