
     RDKit          3D

 15 15  0  0  0  0  0  0  0  0999 V2000
   46.3250   34.1390   43.9330 C   0  0  0  0  0  0  0  0  0  0  0  0
   45.6900   34.1020   45.1810 C   0  0  0  0  0  0  0  0  0  0  0  0
   44.7500   35.0950   45.4490 C   0  0  0  0  0  0  0  0  0  0  0  0
   44.4980   36.0380   44.4990 N   0  0  0  0  0  0  0  0  0  0  0  0
   45.1420   36.0240   43.3130 C   0  0  0  0  0  0  0  0  0  0  0  0
   46.0620   35.0810   43.0070 N   0  0  0  0  0  0  0  0  0  0  0  0
   48.5090   33.5710   43.0060 C   0  0  0  0  0  0  0  0  0  0  0  0
   48.7990   34.7800   42.7270 O   0  0  0  0  0  0  0  0  0  0  0  0
   47.2940   33.1470   43.6110 N   0  0  0  0  0  0  0  0  0  0  0  0
   46.0640   32.8370   46.3870 S   0  0  0  0  0  0  0  0  0  0  0  0
   44.2198   35.1170   46.4125 H   0  0  0  0  0  0  0  0  0  0  0  0
   44.9115   36.8038   42.5722 H   0  0  0  0  0  0  0  0  0  0  0  0
   49.2530   32.7987   42.7609 H   0  0  0  0  0  0  0  0  0  0  0  0
   47.1201   32.1515   43.8104 H   0  0  0  0  0  0  0  0  0  0  0  0
   45.9125   33.3496   47.6484 H   0  0  0  0  0  0  0  0  0  0  0  0
  1  2  2  0
  2  3  1  0
  2 10  1  0
  4  3  2  0
  5  4  1  0
  6  5  2  0
  6  1  1  0
  7  9  1  0
  8  7  2  0
  9  1  1  0
  3 11  1  0
  5 12  1  0
  7 13  1  0
  9 14  1  0
 10 15  1  0
M  ISO  4  11  14  12  14  13   6  15  11
M  END
>  <minimizedAffinity>  (1) 
-3.64681625

>  <minimizedRMSD>  (1) 
4.26097441

$$$$
