
     RDKit          3D

 15 15  0  0  0  0  0  0  0  0999 V2000
   45.0510   35.9350   43.7500 C   0  0  0  0  0  0  0  0  0  0  0  0
   45.9210   34.9300   43.2940 C   0  0  0  0  0  0  0  0  0  0  0  0
   46.2030   33.8620   44.1570 C   0  0  0  0  0  0  0  0  0  0  0  0
   45.6140   33.8670   45.3860 N   0  0  0  0  0  0  0  0  0  0  0  0
   44.7890   34.8450   45.7830 C   0  0  0  0  0  0  0  0  0  0  0  0
   44.5000   35.8860   44.9710 N   0  0  0  0  0  0  0  0  0  0  0  0
   47.8930   35.0200   41.6080 C   0  0  0  0  0  0  0  0  0  0  0  0
   48.8640   35.1390   42.4120 O   0  0  0  0  0  0  0  0  0  0  0  0
   46.5350   34.9230   42.0180 N   0  0  0  0  0  0  0  0  0  0  0  0
   44.7880   36.9690   42.8950 O   0  0  0  0  0  0  0  0  0  0  0  0
   46.8768   33.0475   43.8526 H   0  0  0  0  0  0  0  0  0  0  0  0
   44.3396   34.8000   46.7860 H   0  0  0  0  0  0  0  0  0  0  0  0
   48.1127   34.9899   40.5306 H   0  0  0  0  0  0  0  0  0  0  0  0
   45.8702   34.8297   41.2368 H   0  0  0  0  0  0  0  0  0  0  0  0
   45.2048   36.9871   41.9972 H   0  0  0  0  0  0  0  0  0  0  0  0
  1  6  2  0
  2  1  1  0
  2  3  2  0
  3  4  1  0
  4  5  2  0
  6  5  1  0
  7  9  1  0
  7  8  2  0
  9  2  1  0
 10  1  1  0
  3 11  1  0
  5 12  1  0
  7 13  1  0
  9 14  1  0
 10 15  1  0
M  ISO  4  11  14  12  14  13   6  15   3
M  END
>  <minimizedAffinity>  (1) 
-3.68292117

>  <minimizedRMSD>  (1) 
0.871263027

$$$$
