
     RDKit          3D

 24 25  0  0  0  0  0  0  0  0999 V2000
   46.3570   31.9780   45.3370 C   0  0  0  0  0  0  0  0  0  0  0  0
   47.4020   31.4640   44.5940 C   0  0  0  0  0  0  0  0  0  0  0  0
   48.0610   30.2980   44.9550 C   0  0  0  0  0  0  0  0  0  0  0  0
   47.6690   29.6150   46.0960 C   0  0  0  0  0  0  0  0  0  0  0  0
   46.6390   30.1060   46.8430 C   0  0  0  0  0  0  0  0  0  0  0  0
   45.9990   31.2750   46.4580 C   0  0  0  0  0  0  0  0  0  0  0  0
   44.7390   35.2450   45.5720 C   0  0  0  0  0  0  0  0  0  0  0  0
   44.4120   35.5640   44.2520 C   0  0  0  0  0  0  0  0  0  0  0  0
   44.7550   34.6400   43.2640 C   0  0  0  0  0  0  0  0  0  0  0  0
   45.3860   33.4780   43.6190 N   0  0  0  0  0  0  0  0  0  0  0  0
   45.6850   33.2090   44.9280 C   0  0  0  0  0  0  0  0  0  0  0  0
   45.3560   34.0990   45.8910 N   0  0  0  0  0  0  0  0  0  0  0  0
   44.9770   31.5370   48.6750 C   0  0  0  0  0  0  0  0  0  0  0  0
   45.5420   31.1120   49.7120 O   0  0  0  0  0  0  0  0  0  0  0  0
   44.9310   31.7330   47.2830 N   0  0  0  0  0  0  0  0  0  0  0  0
   47.7220   31.9968   43.6864 H   0  0  0  0  0  0  0  0  0  0  0  0
   48.8896   29.9176   44.3397 H   0  0  0  0  0  0  0  0  0  0  0  0
   48.1821   28.6891   46.3949 H   0  0  0  0  0  0  0  0  0  0  0  0
   46.3158   29.5752   47.7506 H   0  0  0  0  0  0  0  0  0  0  0  0
   44.4828   35.9547   46.3724 H   0  0  0  0  0  0  0  0  0  0  0  0
   43.9039   36.5068   44.0010 H   0  0  0  0  0  0  0  0  0  0  0  0
   44.5203   34.8436   42.2088 H   0  0  0  0  0  0  0  0  0  0  0  0
   44.0410   31.9838   49.0415 H   0  0  0  0  0  0  0  0  0  0  0  0
   44.1225   32.2093   46.8583 H   0  0  0  0  0  0  0  0  0  0  0  0
  1  6  2  0
  2  3  2  0
  2  1  1  0
  3  4  1  0
  4  5  2  0
  6  5  1  0
  6 15  1  0
  7 12  2  0
  8  7  1  0
  9 10  1  0
  9  8  2  0
 10 11  2  0
 11  1  1  0
 11 12  1  0
 13 14  2  0
 15 13  1  0
  2 16  1  0
  3 17  1  0
  4 18  1  0
  5 19  1  0
  7 20  1  0
  8 21  1  0
  9 22  1  0
 13 23  1  0
 15 24  1  0
M  ISO  8  16  14  17  14  18  14  19  14  20  14  21  14  22  14  23   6
M  END
>  <minimizedAffinity>  (1) 
-4.28470612

>  <minimizedRMSD>  (1) 
2.26204276

$$$$
