
     RDKit          3D

 34 36  0  0  1  0  0  0  0  0999 V2000
   47.0990   34.8850   42.1080 C   0  0  2  0  0  0  0  0  0  0  0  0
   46.4090   34.6380   43.4220 C   0  0  0  0  0  0  0  0  0  0  0  0
   45.0680   35.3230   43.0890 C   0  0  0  0  0  0  0  0  0  0  0  0
   44.8300   35.0260   41.6300 C   0  0  1  0  0  0  0  0  0  0  0  0
   46.0430   34.2930   41.1610 C   0  0  0  0  0  0  0  0  0  0  0  0
   50.7000   33.8080   42.4490 C   0  0  0  0  0  0  0  0  0  0  0  0
   49.5300   34.5530   42.6640 C   0  0  0  0  0  0  0  0  0  0  0  0
   48.3810   34.1530   41.9650 C   0  0  0  0  0  0  0  0  0  0  0  0
   48.4390   33.0690   41.1100 N   0  0  0  0  0  0  0  0  0  0  0  0
   49.5980   32.3900   40.9440 C   0  0  0  0  0  0  0  0  0  0  0  0
   50.7110   32.7540   41.6020 N   0  0  0  0  0  0  0  0  0  0  0  0
   43.6670   34.1240   41.3800 C   0  0  2  0  0  0  0  0  0  0  0  0
   43.0640   34.1200   40.0500 C   0  0  0  0  0  0  0  0  0  0  0  0
   42.2940   34.5190   41.2950 C   0  0  2  0  0  0  0  0  0  0  0  0
   40.5940   36.2340   40.9420 C   0  0  0  0  0  0  0  0  0  0  0  0
   39.7120   35.5900   40.2710 O   0  0  0  0  0  0  0  0  0  0  0  0
   41.8650   35.8830   41.5020 N   0  0  0  0  0  0  0  0  0  0  0  0
   47.3823   35.9355   41.9460 H   0  0  0  0  0  0  0  0  0  0  0  0
   46.2881   33.5655   43.6345 H   0  0  0  0  0  0  0  0  0  0  0  0
   46.9301   35.0048   44.3186 H   0  0  0  0  0  0  0  0  0  0  0  0
   44.2576   34.9068   43.7055 H   0  0  0  0  0  0  0  0  0  0  0  0
   45.0945   36.4038   43.2917 H   0  0  0  0  0  0  0  0  0  0  0  0
   44.6274   35.9769   41.1155 H   0  0  0  0  0  0  0  0  0  0  0  0
   45.9395   33.2060   41.2942 H   0  0  0  0  0  0  0  0  0  0  0  0
   46.2667   34.4071   40.0900 H   0  0  0  0  0  0  0  0  0  0  0  0
   51.6233   34.0862   42.9783 H   0  0  0  0  0  0  0  0  0  0  0  0
   49.5145   35.4126   43.3502 H   0  0  0  0  0  0  0  0  0  0  0  0
   49.6289   31.5283   40.2609 H   0  0  0  0  0  0  0  0  0  0  0  0
   44.1580   33.3977   42.0444 H   0  0  0  0  0  0  0  0  0  0  0  0
   42.8453   33.1700   39.5404 H   0  0  0  0  0  0  0  0  0  0  0  0
   43.2893   34.5792   39.0762 H   0  0  0  0  0  0  0  0  0  0  0  0
   41.3640   34.1969   41.7862 H   0  0  0  0  0  0  0  0  0  0  0  0
   40.3149   37.2817   41.1278 H   0  0  0  0  0  0  0  0  0  0  0  0
   42.4389   36.5626   42.0213 H   0  0  0  0  0  0  0  0  0  0  0  0
  1  2  1  0
  3  2  1  0
  4  3  1  0
  5  4  1  0
  5  1  1  0
  6  7  2  0
  8  1  1  0
  8  7  1  0
  9  8  2  0
 10  9  1  0
 10 11  2  0
 11  6  1  0
 12  4  1  0
 13 14  1  0
 13 12  1  0
 14 12  1  0
 14 17  1  0
 15 17  1  0
 16 15  2  0
  1 18  1  6
  2 19  1  0
  2 20  1  0
  3 21  1  0
  3 22  1  0
  4 23  1  6
  5 24  1  0
  5 25  1  0
  6 26  1  0
  7 27  1  0
 10 28  1  0
 12 29  1  1
 13 30  1  0
 13 31  1  0
 14 32  1  1
 15 33  1  0
 17 34  1  0
M  ISO  8  18  13  19  13  20  13  21  13  22  13  23  13  24  13  25  13
M  ISO  8  26  14  27  14  28  14  29  13  30  13  31  13  32  13  33   6
M  END
>  <minimizedAffinity>  (1) 
-5.15088272

>  <minimizedRMSD>  (1) 
7.10782623

$$$$
