
     RDKit          3D

 28 29  0  0  0  0  0  0  0  0999 V2000
   45.0420   35.0800   42.7710 C   0  0  0  0  0  0  0  0  0  0  0  0
   45.1380   34.9060   44.1400 C   0  0  0  0  0  0  0  0  0  0  0  0
   46.3140   34.3390   44.6100 C   0  0  0  0  0  0  0  0  0  0  0  0
   47.2630   34.0060   43.7090 N   0  0  0  0  0  0  0  0  0  0  0  0
   47.1330   34.1910   42.3790 C   0  0  0  0  0  0  0  0  0  0  0  0
   46.0020   34.7400   41.8810 N   0  0  0  0  0  0  0  0  0  0  0  0
   43.0750   34.5800   41.5840 C   0  0  0  0  0  0  0  0  0  0  0  0
   43.5780   33.4460   41.8370 O   0  0  0  0  0  0  0  0  0  0  0  0
   43.8960   35.6530   42.0840 N   0  0  0  0  0  0  0  0  0  0  0  0
   41.8620   34.8390   40.9000 N   0  0  0  0  0  0  0  0  0  0  0  0
   41.3210   34.2570   39.6640 C   0  0  0  0  0  0  0  0  0  0  0  0
   40.6780   35.5250   39.0890 C   0  0  0  0  0  0  0  0  0  0  0  0
   39.8450   35.9010   40.3070 C   0  0  0  0  0  0  0  0  0  0  0  0
   40.9080   35.8140   41.3920 C   0  0  0  0  0  0  0  0  0  0  0  0
   44.0360   35.3200   44.9130 N   0  0  0  0  0  0  0  0  0  0  0  0
   46.4687   34.1658   45.6852 H   0  0  0  0  0  0  0  0  0  0  0  0
   47.9465   33.8954   41.7001 H   0  0  0  0  0  0  0  0  0  0  0  0
   43.7032   36.6587   41.9732 H   0  0  0  0  0  0  0  0  0  0  0  0
   42.1116   33.8588   39.0110 H   0  0  0  0  0  0  0  0  0  0  0  0
   40.6515   33.3936   39.7918 H   0  0  0  0  0  0  0  0  0  0  0  0
   41.4229   36.2946   38.8383 H   0  0  0  0  0  0  0  0  0  0  0  0
   40.1292   35.4054   38.1432 H   0  0  0  0  0  0  0  0  0  0  0  0
   39.4318   36.9168   40.2210 H   0  0  0  0  0  0  0  0  0  0  0  0
   38.9594   35.2705   40.4748 H   0  0  0  0  0  0  0  0  0  0  0  0
   40.4657   35.4781   42.3415 H   0  0  0  0  0  0  0  0  0  0  0  0
   41.3769   36.7887   41.5924 H   0  0  0  0  0  0  0  0  0  0  0  0
   44.0560   35.2128   45.9372 H   0  0  0  0  0  0  0  0  0  0  0  0
   43.2100   35.7300   44.4541 H   0  0  0  0  0  0  0  0  0  0  0  0
  1  2  2  0
  2  3  1  0
  2 15  1  0
  4  3  2  0
  5  4  1  0
  6  5  2  0
  6  1  1  0
  7  8  2  0
  7  9  1  0
  9  1  1  0
 10 14  1  0
 10  7  1  0
 11 10  1  0
 12 11  1  0
 12 13  1  0
 13 14  1  0
  3 16  1  0
  5 17  1  0
  9 18  1  0
 11 19  1  0
 11 20  1  0
 12 21  1  0
 12 22  1  0
 13 23  1  0
 13 24  1  0
 14 25  1  0
 14 26  1  0
 15 27  1  0
 15 28  1  0
M  ISO  8  16  14  17  14  19  13  20  13  21  13  22  13  23  13  24  13
M  ISO  2  25  13  26  13
M  END
>  <minimizedAffinity>  (1) 
-4.84790325

>  <minimizedRMSD>  (1) 
2.60997963

$$$$
