
     RDKit          3D

 43 45  0  0  1  0  0  0  0  0999 V2000
   45.1120   36.5580   43.3020 C   0  0  0  0  0  0  0  0  0  0  0  0
   44.0710   36.5160   42.3860 C   0  0  0  0  0  0  0  0  0  0  0  0
   44.1240   35.5350   41.3900 C   0  0  0  0  0  0  0  0  0  0  0  0
   45.1750   34.6820   41.3650 N   0  0  0  0  0  0  0  0  0  0  0  0
   46.1680   34.7600   42.2800 C   0  0  0  0  0  0  0  0  0  0  0  0
   46.1370   35.6900   43.2390 N   0  0  0  0  0  0  0  0  0  0  0  0
   48.7790   35.8840   41.2350 Cl  0  0  0  0  0  0  0  0  0  0  0  0
   48.4930   34.2450   41.6920 C   0  0  0  0  0  0  0  0  0  0  0  0
   47.2630   33.7850   42.1680 C   0  0  0  0  0  0  0  0  0  0  0  0
   47.0080   32.4830   42.5430 C   0  0  0  0  0  0  0  0  0  0  0  0
   48.0620   31.6090   42.4250 C   0  0  0  0  0  0  0  0  0  0  0  0
   49.3220   31.9390   41.9700 C   0  0  0  0  0  0  0  0  0  0  0  0
   49.4740   33.2800   41.6170 C   0  0  0  0  0  0  0  0  0  0  0  0
   45.0860   37.5790   44.3680 C   0  0  0  0  0  0  0  0  0  0  0  0
   45.3730   38.8380   44.0300 C   0  0  0  0  0  0  0  0  0  0  0  0
   45.3160   39.8250   45.1640 C   0  0  0  0  0  0  0  0  0  0  0  0
   44.5180   40.9420   44.6710 N   0  0  0  0  0  0  0  0  0  0  0  0
   44.9290   42.6160   46.2570 N   0  0  0  0  0  0  0  0  0  0  0  0
   44.6680   43.7740   45.4530 C   0  0  0  0  0  0  0  0  0  0  0  0
   43.3540   43.5680   44.7660 C   0  0  0  0  0  0  0  0  0  0  0  0
   42.7460   42.4140   45.5360 C   0  0  0  0  0  0  0  0  0  0  0  0
   43.9920   41.6080   45.8430 C   0  0  1  0  0  0  0  0  0  0  0  0
   43.2344   37.2281   42.4408 H   0  0  0  0  0  0  0  0  0  0  0  0
   43.3241   35.4579   40.6388 H   0  0  0  0  0  0  0  0  0  0  0  0
   46.0227   32.1638   42.9134 H   0  0  0  0  0  0  0  0  0  0  0  0
   47.8871   30.5629   42.7166 H   0  0  0  0  0  0  0  0  0  0  0  0
   50.1385   31.2060   41.8921 H   0  0  0  0  0  0  0  0  0  0  0  0
   50.4612   33.5940   41.2472 H   0  0  0  0  0  0  0  0  0  0  0  0
   44.0741   37.5775   44.7994 H   0  0  0  0  0  0  0  0  0  0  0  0
   45.8942   37.2847   45.0537 H   0  0  0  0  0  0  0  0  0  0  0  0
   46.3900   38.8564   43.6113 H   0  0  0  0  0  0  0  0  0  0  0  0
   44.6013   39.1487   43.3104 H   0  0  0  0  0  0  0  0  0  0  0  0
   44.8384   39.3710   46.0448 H   0  0  0  0  0  0  0  0  0  0  0  0
   46.3208   40.1478   45.4740 H   0  0  0  0  0  0  0  0  0  0  0  0
   45.1063   41.5886   44.1263 H   0  0  0  0  0  0  0  0  0  0  0  0
   45.8936   42.2882   46.1052 H   0  0  0  0  0  0  0  0  0  0  0  0
   44.6205   44.6691   46.0906 H   0  0  0  0  0  0  0  0  0  0  0  0
   45.4697   43.9167   44.7135 H   0  0  0  0  0  0  0  0  0  0  0  0
   42.7245   44.4672   44.8383 H   0  0  0  0  0  0  0  0  0  0  0  0
   43.4540   43.3666   43.6892 H   0  0  0  0  0  0  0  0  0  0  0  0
   42.2458   42.7558   46.4541 H   0  0  0  0  0  0  0  0  0  0  0  0
   41.9618   41.8625   44.9966 H   0  0  0  0  0  0  0  0  0  0  0  0
   43.7946   40.8184   46.5830 H   0  0  0  0  0  0  0  0  0  0  0  0
  1 14  1  0
  2  1  2  0
  3  2  1  0
  4  3  2  0
  4  5  1  0
  5  6  2  0
  6  1  1  0
  7  8  1  0
  8  9  2  0
  9  5  1  0
  9 10  1  0
 11 10  2  0
 12 11  1  0
 13  8  1  0
 13 12  2  0
 15 14  1  0
 15 16  1  0
 17 16  1  0
 19 18  1  0
 20 19  1  0
 20 21  1  0
 21 22  1  0
 22 17  1  0
 22 18  1  0
  2 23  1  0
  3 24  1  0
 10 25  1  0
 11 26  1  0
 12 27  1  0
 13 28  1  0
 14 29  1  0
 14 30  1  0
 15 31  1  0
 15 32  1  0
 16 33  1  0
 16 34  1  0
 17 35  1  0
 18 36  1  0
 19 37  1  0
 19 38  1  0
 20 39  1  0
 20 40  1  0
 21 41  1  0
 21 42  1  0
 22 43  1  1
M  ISO  8  23  14  24  14  25  14  26  14  27  14  28  14  29   8  30   8
M  ISO  8  31   8  32   8  33   8  34   8  35   5  36   5  37  13  38  13
M  ISO  5  39  13  40  13  41  13  42  13  43  13
M  END
>  <minimizedAffinity>  (1) 
-4.223773

>  <minimizedRMSD>  (1) 
0.697259784

$$$$
