
     RDKit          3D

 47 50  0  0  1  0  0  0  0  0999 V2000
   40.9420   33.7400   41.2610 C   0  0  0  0  0  0  0  0  0  0  0  0
   42.2960   33.3970   41.2260 C   0  0  0  0  0  0  0  0  0  0  0  0
   42.7200   32.1660   41.6760 C   0  0  0  0  0  0  0  0  0  0  0  0
   41.8410   31.2510   42.1640 C   0  0  0  0  0  0  0  0  0  0  0  0
   40.5050   31.5740   42.2050 C   0  0  0  0  0  0  0  0  0  0  0  0
   40.0490   32.7890   41.7650 C   0  0  0  0  0  0  0  0  0  0  0  0
   39.8270   30.4660   42.7460 O   0  0  0  0  0  0  0  0  0  0  0  0
   40.7570   29.5870   43.2380 C   0  0  1  0  0  0  0  0  0  0  0  0
   41.9920   29.9570   42.6750 O   0  0  0  0  0  0  0  0  0  0  0  0
   40.7800   29.6500   44.6830 N   0  0  0  0  0  0  0  0  0  0  0  0
   40.4090   27.3530   44.0890 N   0  0  0  0  0  0  0  0  0  0  0  0
   41.6050   26.5830   43.7540 C   0  0  0  0  0  0  0  0  0  0  0  0
   42.2000   26.3990   45.1470 C   0  0  0  0  0  0  0  0  0  0  0  0
   42.1740   27.8560   45.6150 C   0  0  0  0  0  0  0  0  0  0  0  0
   40.7980   28.2650   45.1470 C   0  0  1  0  0  0  0  0  0  0  0  0
   43.3260   34.7070   40.5540 S   0  0  0  0  0  0  0  0  0  0  0  0
   44.9740   34.0180   40.1520 C   0  0  0  0  0  0  0  0  0  0  0  0
   45.0450   33.2610   39.0300 C   0  0  0  0  0  0  0  0  0  0  0  0
   46.2970   32.7430   38.7550 C   0  0  0  0  0  0  0  0  0  0  0  0
   47.3630   32.9750   39.5390 N   0  0  0  0  0  0  0  0  0  0  0  0
   47.2450   33.7360   40.6460 C   0  0  0  0  0  0  0  0  0  0  0  0
   46.0380   34.2390   40.9210 N   0  0  0  0  0  0  0  0  0  0  0  0
   46.4860   31.9140   37.5950 N   0  0  0  0  0  0  0  0  0  0  0  0
   44.0610   32.8500   37.9780 C   0  0  0  0  0  0  0  0  0  0  0  0
   48.2680   34.0410   41.5230 O   0  0  0  0  0  0  0  0  0  0  0  0
   48.7420   35.3840   41.5190 C   0  0  0  0  0  0  0  0  0  0  0  0
   49.9420   35.4830   42.1400 F   0  0  0  0  0  0  0  0  0  0  0  0
   48.7930   35.7940   40.1760 F   0  0  0  0  0  0  0  0  0  0  0  0
   47.8250   36.1620   42.2280 F   0  0  0  0  0  0  0  0  0  0  0  0
   40.5918   34.7204   40.9058 H   0  0  0  0  0  0  0  0  0  0  0  0
   43.7912   31.9185   41.6397 H   0  0  0  0  0  0  0  0  0  0  0  0
   38.9739   33.0177   41.8085 H   0  0  0  0  0  0  0  0  0  0  0  0
   40.5203   28.5456   42.9744 H   0  0  0  0  0  0  0  0  0  0  0  0
   41.6226   30.1465   45.0061 H   0  0  0  0  0  0  0  0  0  0  0  0
   39.6604   26.7256   44.4158 H   0  0  0  0  0  0  0  0  0  0  0  0
   41.3528   25.6194   43.2872 H   0  0  0  0  0  0  0  0  0  0  0  0
   42.2744   27.0609   43.0236 H   0  0  0  0  0  0  0  0  0  0  0  0
   41.5752   25.7516   45.7798 H   0  0  0  0  0  0  0  0  0  0  0  0
   43.1848   25.9101   45.1792 H   0  0  0  0  0  0  0  0  0  0  0  0
   42.2722   27.9343   46.7078 H   0  0  0  0  0  0  0  0  0  0  0  0
   42.9953   28.4781   45.2297 H   0  0  0  0  0  0  0  0  0  0  0  0
   40.0838   28.2103   45.9819 H   0  0  0  0  0  0  0  0  0  0  0  0
   47.4167   31.5256   37.3857 H   0  0  0  0  0  0  0  0  0  0  0  0
   45.6906   31.7087   36.9736 H   0  0  0  0  0  0  0  0  0  0  0  0
   43.1481   32.4687   38.4588 H   0  0  0  0  0  0  0  0  0  0  0  0
   43.8100   33.7185   37.3513 H   0  0  0  0  0  0  0  0  0  0  0  0
   44.5023   32.0610   37.3513 H   0  0  0  0  0  0  0  0  0  0  0  0
  1  6  2  0
  2  1  1  0
  2  3  2  0
  3  4  1  0
  4  5  2  0
  4  9  1  0
  5  7  1  0
  6  5  1  0
  7  8  1  0
  8 10  1  0
  9  8  1  0
 11 15  1  0
 12 11  1  0
 12 13  1  0
 13 14  1  0
 15 10  1  0
 15 14  1  0
 16  2  1  0
 17 16  1  0
 17 22  1  0
 18 17  2  0
 19 18  1  0
 19 20  2  0
 20 21  1  0
 21 22  2  0
 21 25  1  0
 23 19  1  0
 24 18  1  0
 26 25  1  0
 26 27  1  0
 26 29  1  0
 28 26  1  0
  1 30  1  0
  3 31  1  0
  6 32  1  0
  8 33  1  1
 10 34  1  0
 11 35  1  0
 12 36  1  0
 12 37  1  0
 13 38  1  0
 13 39  1  0
 14 40  1  0
 14 41  1  0
 15 42  1  1
 23 43  1  0
 23 44  1  0
 24 45  1  0
 24 46  1  0
 24 47  1  0
M  ISO  8  30  14  31  14  32  14  33  13  34   5  35   5  36  13  37  13
M  ISO  8  38  13  39  13  40  13  41  13  42  13  45   8  46   8  47   8
M  END
>  <minimizedAffinity>  (1) 
-5.83404207

>  <minimizedRMSD>  (1) 
2.68818378

$$$$
