
     RDKit          3D

 38 41  0  0  0  0  0  0  0  0999 V2000
   47.3380   32.3060   47.9520 C   0  0  0  0  0  0  0  0  0  0  0  0
   46.8580   31.0150   48.0180 C   0  0  0  0  0  0  0  0  0  0  0  0
   45.9830   30.6440   47.0410 C   0  0  0  0  0  0  0  0  0  0  0  0
   45.6250   31.5090   46.0780 N   0  0  0  0  0  0  0  0  0  0  0  0
   46.0920   32.7510   46.0220 C   0  0  0  0  0  0  0  0  0  0  0  0
   46.9480   33.1180   46.9760 N   0  0  0  0  0  0  0  0  0  0  0  0
   45.4280   29.3610   46.9990 N   0  0  0  0  0  0  0  0  0  0  0  0
   44.2620   28.9650   46.1930 C   0  0  0  0  0  0  0  0  0  0  0  0
   44.1430   27.4710   46.3760 C   0  0  0  0  0  0  0  0  0  0  0  0
   44.7420   27.2600   47.7690 C   0  0  0  0  0  0  0  0  0  0  0  0
   45.9060   28.2100   47.7410 C   0  0  0  0  0  0  0  0  0  0  0  0
   45.8370   33.8520   45.0690 C   0  0  0  0  0  0  0  0  0  0  0  0
   44.8760   34.7910   45.2520 N   0  0  0  0  0  0  0  0  0  0  0  0
   44.6230   35.7910   44.4170 C   0  0  0  0  0  0  0  0  0  0  0  0
   45.3510   35.9240   43.2840 N   0  0  0  0  0  0  0  0  0  0  0  0
   46.3320   35.0530   42.9910 C   0  0  0  0  0  0  0  0  0  0  0  0
   47.0680   35.1960   41.8370 C   0  0  0  0  0  0  0  0  0  0  0  0
   48.0680   34.3160   41.5290 C   0  0  0  0  0  0  0  0  0  0  0  0
   48.3100   33.2860   42.4170 C   0  0  0  0  0  0  0  0  0  0  0  0
   47.5500   33.1810   43.5590 C   0  0  0  0  0  0  0  0  0  0  0  0
   46.5400   34.0400   43.9040 C   0  0  0  0  0  0  0  0  0  0  0  0
   47.2650   30.1480   49.0470 N   0  0  0  0  0  0  0  0  0  0  0  0
   48.0477   32.6653   48.7118 H   0  0  0  0  0  0  0  0  0  0  0  0
   44.4237   29.2121   45.1334 H   0  0  0  0  0  0  0  0  0  0  0  0
   43.3482   29.4915   46.5057 H   0  0  0  0  0  0  0  0  0  0  0  0
   43.0918   27.1487   46.3421 H   0  0  0  0  0  0  0  0  0  0  0  0
   44.6472   26.8909   45.5890 H   0  0  0  0  0  0  0  0  0  0  0  0
   44.0248   27.5263   48.5594 H   0  0  0  0  0  0  0  0  0  0  0  0
   45.0187   26.2176   47.9853 H   0  0  0  0  0  0  0  0  0  0  0  0
   46.7676   27.7521   47.2330 H   0  0  0  0  0  0  0  0  0  0  0  0
   46.2458   28.4798   48.7518 H   0  0  0  0  0  0  0  0  0  0  0  0
   43.8229   36.5105   44.6455 H   0  0  0  0  0  0  0  0  0  0  0  0
   46.8488   36.0294   41.1533 H   0  0  0  0  0  0  0  0  0  0  0  0
   48.6585   34.4243   40.6073 H   0  0  0  0  0  0  0  0  0  0  0  0
   49.1054   32.5543   42.2124 H   0  0  0  0  0  0  0  0  0  0  0  0
   47.7688   32.3483   44.2436 H   0  0  0  0  0  0  0  0  0  0  0  0
   46.8989   29.1860   49.0848 H   0  0  0  0  0  0  0  0  0  0  0  0
   47.9293   30.4748   49.7631 H   0  0  0  0  0  0  0  0  0  0  0  0
  1  2  2  0
  2 22  1  0
  3  2  1  0
  4  3  2  0
  5  4  1  0
  5  6  2  0
  6  1  1  0
  7  3  1  0
  7 11  1  0
  8  9  1  0
  8  7  1  0
  9 10  1  0
 11 10  1  0
 12 13  2  0
 12  5  1  0
 14 13  1  0
 15 14  2  0
 16 15  1  0
 16 21  2  0
 17 16  1  0
 18 17  2  0
 18 19  1  0
 19 20  2  0
 20 21  1  0
 21 12  1  0
  1 23  1  0
  8 24  1  0
  8 25  1  0
  9 26  1  0
  9 27  1  0
 10 28  1  0
 10 29  1  0
 11 30  1  0
 11 31  1  0
 14 32  1  0
 17 33  1  0
 18 34  1  0
 19 35  1  0
 20 36  1  0
 22 37  1  0
 22 38  1  0
M  ISO  8  23  14  24  13  25  13  26  13  27  13  28  13  29  13  30  13
M  ISO  6  31  13  32  14  33  14  34  14  35  14  36  14
M  END
>  <minimizedAffinity>  (1) 
-6.46010828

>  <minimizedRMSD>  (1) 
0.499881536

$$$$
