
     RDKit          3D

 53 57  0  0  1  0  0  0  0  0999 V2000
   47.1830   29.3350   46.3950 N   0  0  0  0  0  0  0  0  0  0  0  0
   46.7890   29.1240   45.0670 C   0  0  1  0  0  0  0  0  0  0  0  0
   45.4580   28.4190   45.0650 C   0  0  0  0  0  0  0  0  0  0  0  0
   44.5330   29.3560   45.6340 N   0  0  0  0  0  0  0  0  0  0  0  0
   44.7980   29.6150   47.0240 C   0  0  0  0  0  0  0  0  0  0  0  0
   46.2480   29.7440   47.3740 C   0  0  2  0  0  0  0  0  0  0  0  0
   46.1120   32.3900   43.8980 C   0  0  0  0  0  0  0  0  0  0  0  0
   46.6410   31.8420   42.7480 C   0  0  0  0  0  0  0  0  0  0  0  0
   46.9680   30.5520   43.0150 C   0  0  0  0  0  0  0  0  0  0  0  0
   46.6360   30.3350   44.3140 N   0  0  0  0  0  0  0  0  0  0  0  0
   46.1280   31.4460   44.8200 N   0  0  0  0  0  0  0  0  0  0  0  0
   44.6650   35.4550   45.3450 C   0  0  0  0  0  0  0  0  0  0  0  0
   44.7300   36.3670   44.2840 C   0  0  0  0  0  0  0  0  0  0  0  0
   45.2700   35.9150   43.0920 C   0  0  0  0  0  0  0  0  0  0  0  0
   45.7000   34.6260   43.0190 N   0  0  0  0  0  0  0  0  0  0  0  0
   45.6190   33.7800   44.0640 C   0  0  0  0  0  0  0  0  0  0  0  0
   45.1030   34.1770   45.2390 N   0  0  0  0  0  0  0  0  0  0  0  0
   46.4620   31.1600   47.8710 C   0  0  1  0  0  0  0  0  0  0  0  0
   46.1310   31.3960   49.3360 C   0  0  0  0  0  0  0  0  0  0  0  0
   47.5340   31.5090   48.8280 C   0  0  1  0  0  0  0  0  0  0  0  0
   48.5560   30.4550   49.2330 C   0  0  0  0  0  0  0  0  0  0  0  0
   49.4450   31.0810   50.1600 N   0  0  0  0  0  0  0  0  0  0  0  0
   50.4270   30.2140   50.7610 C   0  0  0  0  0  0  0  0  0  0  0  0
   51.0740   31.2360   51.7100 C   0  0  0  0  0  0  0  0  0  0  0  0
   51.1710   32.4430   50.7650 C   0  0  0  0  0  0  0  0  0  0  0  0
   50.3120   32.0740   49.5610 C   0  0  0  0  0  0  0  0  0  0  0  0
   47.9178   30.0565   46.3718 H   0  0  0  0  0  0  0  0  0  0  0  0
   47.5860   28.5319   44.5934 H   0  0  0  0  0  0  0  0  0  0  0  0
   45.1610   28.1594   44.0382 H   0  0  0  0  0  0  0  0  0  0  0  0
   45.4912   27.4782   45.6340 H   0  0  0  0  0  0  0  0  0  0  0  0
   44.5989   30.2427   45.1141 H   0  0  0  0  0  0  0  0  0  0  0  0
   44.2949   30.5538   47.2990 H   0  0  0  0  0  0  0  0  0  0  0  0
   44.4224   28.7423   47.5784 H   0  0  0  0  0  0  0  0  0  0  0  0
   46.4668   29.0081   48.1618 H   0  0  0  0  0  0  0  0  0  0  0  0
   46.7741   32.3584   41.7859 H   0  0  0  0  0  0  0  0  0  0  0  0
   47.4132   29.8267   42.3181 H   0  0  0  0  0  0  0  0  0  0  0  0
   44.2412   35.7897   46.3033 H   0  0  0  0  0  0  0  0  0  0  0  0
   44.3670   37.3996   44.3933 H   0  0  0  0  0  0  0  0  0  0  0  0
   45.3498   36.5837   42.2223 H   0  0  0  0  0  0  0  0  0  0  0  0
   46.1825   31.5746   46.8912 H   0  0  0  0  0  0  0  0  0  0  0  0
   45.5782   32.2970   49.6405 H   0  0  0  0  0  0  0  0  0  0  0  0
   45.6265   30.8246   50.1291 H   0  0  0  0  0  0  0  0  0  0  0  0
   48.3067   32.2912   48.8605 H   0  0  0  0  0  0  0  0  0  0  0  0
   48.0518   29.6009   49.7088 H   0  0  0  0  0  0  0  0  0  0  0  0
   49.1012   30.0747   48.3566 H   0  0  0  0  0  0  0  0  0  0  0  0
   49.9648   29.3768   51.3046 H   0  0  0  0  0  0  0  0  0  0  0  0
   51.1102   29.7068   50.0639 H   0  0  0  0  0  0  0  0  0  0  0  0
   50.4355   31.4478   52.5803 H   0  0  0  0  0  0  0  0  0  0  0  0
   52.0267   30.9175   52.1582 H   0  0  0  0  0  0  0  0  0  0  0  0
   50.7823   33.3485   51.2538 H   0  0  0  0  0  0  0  0  0  0  0  0
   52.2107   32.6601   50.4788 H   0  0  0  0  0  0  0  0  0  0  0  0
   50.9151   31.6493   48.7450 H   0  0  0  0  0  0  0  0  0  0  0  0
   49.7891   32.9197   49.0905 H   0  0  0  0  0  0  0  0  0  0  0  0
  1  6  1  0
  2  1  1  0
  3  2  1  0
  3  4  1  0
  4  5  1  0
  5  6  1  0
  6 18  1  0
  7 16  1  0
  7 11  2  0
  8  9  2  0
  8  7  1  0
  9 10  1  0
 10 11  1  0
 10  2  1  0
 13 12  2  0
 14 13  1  0
 15 14  2  0
 15 16  1  0
 16 17  2  0
 17 12  1  0
 18 20  1  0
 18 19  1  0
 20 21  1  0
 20 19  1  0
 21 22  1  0
 22 23  1  0
 23 24  1  0
 25 24  1  0
 26 22  1  0
 26 25  1  0
  1 27  1  0
  2 28  1  6
  3 29  1  0
  3 30  1  0
  4 31  1  0
  5 32  1  0
  5 33  1  0
  6 34  1  1
  8 35  1  0
  9 36  1  0
 12 37  1  0
 13 38  1  0
 14 39  1  0
 18 40  1  6
 19 41  1  0
 19 42  1  0
 20 43  1  6
 21 44  1  0
 21 45  1  0
 23 46  1  0
 23 47  1  0
 24 48  1  0
 24 49  1  0
 25 50  1  0
 25 51  1  0
 26 52  1  0
 26 53  1  0
M  ISO  8  27   5  28  13  29  13  30  13  31   5  32  13  33  13  34  13
M  ISO  8  35  14  36  14  37  14  38  14  39  14  40  13  41  13  42  13
M  ISO  8  43  13  44   8  45   8  46  13  47  13  48  13  49  13  50  13
M  ISO  3  51  13  52  13  53  13
M  END
>  <minimizedAffinity>  (1) 
-5.44183016

>  <minimizedRMSD>  (1) 
1.33437431

$$$$
