
     RDKit          3D

 53 56  0  0  1  0  0  0  0  0999 V2000
   47.5880   31.8200   46.3230 C   0  0  2  0  0  0  0  0  0  0  0  0
   47.3340   30.3660   45.8190 C   0  0  0  0  0  0  0  0  0  0  0  0
   48.1480   29.4170   46.6300 C   0  0  0  0  0  0  0  0  0  0  0  0
   48.1360   29.6400   48.1060 C   0  0  0  0  0  0  0  0  0  0  0  0
   48.1430   31.0300   48.4970 C   0  0  0  0  0  0  0  0  0  0  0  0
   47.1500   31.9040   47.7000 C   0  0  2  0  0  0  0  0  0  0  0  0
   46.9460   32.7980   45.4670 C   0  0  0  0  0  0  0  0  0  0  0  0
   45.8410   33.4670   45.9760 C   0  0  0  0  0  0  0  0  0  0  0  0
   45.1660   34.4120   45.1690 C   0  0  0  0  0  0  0  0  0  0  0  0
   45.6740   34.6130   43.8890 N   0  0  0  0  0  0  0  0  0  0  0  0
   46.7460   33.9360   43.4620 C   0  0  0  0  0  0  0  0  0  0  0  0
   47.3680   33.0470   44.2340 N   0  0  0  0  0  0  0  0  0  0  0  0
   47.2430   34.2090   42.1090 C   0  0  0  0  0  0  0  0  0  0  0  0
   48.2150   35.1590   41.8890 C   0  0  0  0  0  0  0  0  0  0  0  0
   48.7400   35.4800   40.6610 C   0  0  0  0  0  0  0  0  0  0  0  0
   48.2040   34.7510   39.6100 C   0  0  0  0  0  0  0  0  0  0  0  0
   47.2340   33.7990   39.8050 C   0  0  0  0  0  0  0  0  0  0  0  0
   46.7530   33.5270   41.0610 N   0  0  0  0  0  0  0  0  0  0  0  0
   46.6920   33.0580   38.7190 N   0  0  0  0  0  0  0  0  0  0  0  0
   46.8030   33.3580   37.3030 C   0  0  0  0  0  0  0  0  0  0  0  0
   45.3300   33.2320   36.8890 C   0  0  0  0  0  0  0  0  0  0  0  0
   44.8030   32.1590   37.8010 C   0  0  0  0  0  0  0  0  0  0  0  0
   45.9090   31.8390   38.7840 C   0  0  0  0  0  0  0  0  0  0  0  0
   45.8100   31.3290   47.8350 N   0  0  0  0  0  0  0  0  0  0  0  0
   45.1510   30.7450   48.9310 C   0  0  0  0  0  0  0  0  0  0  0  0
   44.6460   31.4320   49.8900 O   0  0  0  0  0  0  0  0  0  0  0  0
   45.0790   29.3190   48.8910 N   0  0  0  0  0  0  0  0  0  0  0  0
   48.6615   32.0558   46.2784 H   0  0  0  0  0  0  0  0  0  0  0  0
   46.2671   30.1205   45.9265 H   0  0  0  0  0  0  0  0  0  0  0  0
   47.6202   30.2867   44.7599 H   0  0  0  0  0  0  0  0  0  0  0  0
   47.7697   28.4017   46.4400 H   0  0  0  0  0  0  0  0  0  0  0  0
   49.1898   29.5757   46.3147 H   0  0  0  0  0  0  0  0  0  0  0  0
   47.2304   29.1708   48.5179 H   0  0  0  0  0  0  0  0  0  0  0  0
   49.0633   29.1975   48.4990 H   0  0  0  0  0  0  0  0  0  0  0  0
   47.8816   31.0920   49.5637 H   0  0  0  0  0  0  0  0  0  0  0  0
   49.1512   31.4175   48.2888 H   0  0  0  0  0  0  0  0  0  0  0  0
   47.1187   32.9458   48.0516 H   0  0  0  0  0  0  0  0  0  0  0  0
   45.4931   33.2635   46.9995 H   0  0  0  0  0  0  0  0  0  0  0  0
   44.2849   34.9599   45.5342 H   0  0  0  0  0  0  0  0  0  0  0  0
   48.6008   35.7027   42.7639 H   0  0  0  0  0  0  0  0  0  0  0  0
   49.5164   36.2470   40.5234 H   0  0  0  0  0  0  0  0  0  0  0  0
   48.5670   34.9412   38.5892 H   0  0  0  0  0  0  0  0  0  0  0  0
   47.1906   34.3727   37.1296 H   0  0  0  0  0  0  0  0  0  0  0  0
   47.4983   32.7133   36.7454 H   0  0  0  0  0  0  0  0  0  0  0  0
   44.7945   34.1800   37.0457 H   0  0  0  0  0  0  0  0  0  0  0  0
   45.2022   32.9911   35.8233 H   0  0  0  0  0  0  0  0  0  0  0  0
   43.9130   32.5207   38.3368 H   0  0  0  0  0  0  0  0  0  0  0  0
   44.5104   31.2649   37.2310 H   0  0  0  0  0  0  0  0  0  0  0  0
   46.4944   30.9644   38.4640 H   0  0  0  0  0  0  0  0  0  0  0  0
   45.5591   31.5759   39.7931 H   0  0  0  0  0  0  0  0  0  0  0  0
   45.2493   31.3576   46.9715 H   0  0  0  0  0  0  0  0  0  0  0  0
   44.6137   28.8053   49.6529 H   0  0  0  0  0  0  0  0  0  0  0  0
   45.4923   28.8045   48.1003 H   0  0  0  0  0  0  0  0  0  0  0  0
  1  6  1  0
  2  1  1  0
  2  3  1  0
  3  4  1  0
  4  5  1  0
  6 24  1  0
  6  5  1  0
  7  8  2  0
  7  1  1  0
  9  8  1  0
 10  9  2  0
 11 10  1  0
 11 12  2  0
 12  7  1  0
 13 11  1  0
 14 13  2  0
 15 14  1  0
 16 17  1  0
 16 15  2  0
 17 18  2  0
 18 13  1  0
 19 23  1  0
 19 17  1  0
 20 19  1  0
 21 20  1  0
 21 22  1  0
 22 23  1  0
 24 25  1  0
 25 26  2  0
 27 25  1  0
  1 28  1  1
  2 29  1  0
  2 30  1  0
  3 31  1  0
  3 32  1  0
  4 33  1  0
  4 34  1  0
  5 35  1  0
  5 36  1  0
  6 37  1  1
  8 38  1  0
  9 39  1  0
 14 40  1  0
 15 41  1  0
 16 42  1  0
 20 43  1  0
 20 44  1  0
 21 45  1  0
 21 46  1  0
 22 47  1  0
 22 48  1  0
 23 49  1  0
 23 50  1  0
 24 51  1  0
 27 52  1  0
 27 53  1  0
M  ISO  8  28  13  29  13  30  13  31  13  32  13  33  13  34  13  35  13
M  ISO  8  36  13  37  13  38  14  39  14  40  14  41  14  42  14  43  13
M  ISO  7  44  13  45  13  46  13  47  13  48  13  49  13  50  13
M  END
>  <minimizedAffinity>  (1) 
-6.71828365

>  <minimizedRMSD>  (1) 
0.145568535

$$$$
