
     RDKit          3D

 51 54  0  0  1  0  0  0  0  0999 V2000
   45.6780   34.8780   42.0850 C   0  0  0  0  0  0  0  0  0  0  0  0
   46.8290   34.7470   41.4190 C   0  0  0  0  0  0  0  0  0  0  0  0
   44.0660   33.5070   40.6510 C   0  0  0  0  0  0  0  0  0  0  0  0
   44.3730   34.6470   41.4240 C   0  0  0  0  0  0  0  0  0  0  0  0
   43.3920   35.6450   41.5950 C   0  0  0  0  0  0  0  0  0  0  0  0
   42.1790   35.4550   40.9950 N   0  0  0  0  0  0  0  0  0  0  0  0
   41.9360   34.3560   40.2700 C   0  0  0  0  0  0  0  0  0  0  0  0
   42.8750   33.4010   40.1080 N   0  0  0  0  0  0  0  0  0  0  0  0
   39.7060   33.5850   41.7150 F   0  0  0  0  0  0  0  0  0  0  0  0
   39.5270   33.8150   40.3960 C   0  0  0  0  0  0  0  0  0  0  0  0
   40.6220   34.2010   39.6490 C   0  0  0  0  0  0  0  0  0  0  0  0
   40.5350   34.4610   38.2800 C   0  0  0  0  0  0  0  0  0  0  0  0
   39.2880   34.3170   37.6800 C   0  0  0  0  0  0  0  0  0  0  0  0
   38.1650   33.9270   38.4140 C   0  0  0  0  0  0  0  0  0  0  0  0
   38.2970   33.6780   39.7730 C   0  0  0  0  0  0  0  0  0  0  0  0
   48.1450   34.9830   42.0960 C   0  0  0  0  0  0  0  0  0  0  0  0
   49.2020   34.1820   41.5680 N   0  0  0  0  0  0  0  0  0  0  0  0
   50.3540   34.2170   42.4000 C   0  0  0  0  0  0  0  0  0  0  0  0
   51.0150   32.8710   42.3620 C   0  0  0  0  0  0  0  0  0  0  0  0
   49.9050   31.9600   41.9110 C   0  0  0  0  0  0  0  0  0  0  0  0
   48.7970   32.8290   41.3960 C   0  0  2  0  0  0  0  0  0  0  0  0
   48.4070   32.5270   40.0450 N   0  0  0  0  0  0  0  0  0  0  0  0
   49.5000   32.1340   39.2010 C   0  0  0  0  0  0  0  0  0  0  0  0
   49.1630   30.8470   38.5250 C   0  0  0  0  0  0  0  0  0  0  0  0
   47.8930   30.3640   39.1740 C   0  0  0  0  0  0  0  0  0  0  0  0
   47.3850   31.5390   39.9690 C   0  0  0  0  0  0  0  0  0  0  0  0
   45.7003   35.1636   43.1471 H   0  0  0  0  0  0  0  0  0  0  0  0
   46.8103   34.4614   40.3569 H   0  0  0  0  0  0  0  0  0  0  0  0
   44.8161   32.7158   40.5049 H   0  0  0  0  0  0  0  0  0  0  0  0
   43.5962   36.5464   42.1914 H   0  0  0  0  0  0  0  0  0  0  0  0
   41.4173   34.7675   37.6989 H   0  0  0  0  0  0  0  0  0  0  0  0
   39.1839   34.5148   36.6029 H   0  0  0  0  0  0  0  0  0  0  0  0
   37.1878   33.8186   37.9207 H   0  0  0  0  0  0  0  0  0  0  0  0
   37.4190   33.3697   40.3596 H   0  0  0  0  0  0  0  0  0  0  0  0
   48.4153   36.0423   41.9746 H   0  0  0  0  0  0  0  0  0  0  0  0
   48.0224   34.7057   43.1534 H   0  0  0  0  0  0  0  0  0  0  0  0
   51.0527   34.9831   42.0329 H   0  0  0  0  0  0  0  0  0  0  0  0
   50.0639   34.4634   43.4321 H   0  0  0  0  0  0  0  0  0  0  0  0
   51.8500   32.8609   41.6460 H   0  0  0  0  0  0  0  0  0  0  0  0
   51.4522   32.5759   43.3273 H   0  0  0  0  0  0  0  0  0  0  0  0
   50.2647   31.2954   41.1117 H   0  0  0  0  0  0  0  0  0  0  0  0
   49.5533   31.3327   42.7434 H   0  0  0  0  0  0  0  0  0  0  0  0
   47.8817   32.6327   41.9737 H   0  0  0  0  0  0  0  0  0  0  0  0
   49.6773   32.9116   38.4434 H   0  0  0  0  0  0  0  0  0  0  0  0
   50.4072   32.0042   39.8094 H   0  0  0  0  0  0  0  0  0  0  0  0
   49.9705   30.1145   38.6710 H   0  0  0  0  0  0  0  0  0  0  0  0
   49.0386   30.9795   37.4401 H   0  0  0  0  0  0  0  0  0  0  0  0
   47.1582   30.0677   38.4109 H   0  0  0  0  0  0  0  0  0  0  0  0
   48.0647   29.4816   39.8079 H   0  0  0  0  0  0  0  0  0  0  0  0
   46.4988   31.9631   39.4741 H   0  0  0  0  0  0  0  0  0  0  0  0
   47.1114   31.2102   40.9824 H   0  0  0  0  0  0  0  0  0  0  0  0
  2  1  2  0
  2 16  1  0
  3  4  2  0
  4  5  1  0
  4  1  1  0
  6  5  2  0
  7  6  1  0
  8  7  2  0
  8  3  1  0
 10  9  1  0
 11  7  1  0
 11 10  2  0
 12 11  1  0
 13 12  2  0
 13 14  1  0
 14 15  2  0
 15 10  1  0
 17 16  1  0
 17 18  1  0
 19 18  1  0
 20 19  1  0
 21 17  1  0
 21 20  1  0
 22 23  1  0
 22 21  1  0
 24 25  1  0
 24 23  1  0
 25 26  1  0
 26 22  1  0
  1 27  1  0
  2 28  1  0
  3 29  1  0
  5 30  1  0
 12 31  1  0
 13 32  1  0
 14 33  1  0
 15 34  1  0
 16 35  1  0
 16 36  1  0
 18 37  1  0
 18 38  1  0
 19 39  1  0
 19 40  1  0
 20 41  1  0
 20 42  1  0
 21 43  1  1
 23 44  1  0
 23 45  1  0
 24 46  1  0
 24 47  1  0
 25 48  1  0
 25 49  1  0
 26 50  1  0
 26 51  1  0
M  ISO  8  29  14  30  14  31  14  32  14  33  14  34  14  35   8  36   8
M  ISO  8  37  13  38  13  39  13  40  13  41  13  42  13  43  13  44  13
M  ISO  7  45  13  46  13  47  13  48  13  49  13  50  13  51  13
M  END
>  <minimizedAffinity>  (1) 
-6.08596039

>  <minimizedRMSD>  (1) 
0.708908975

$$$$
