
     RDKit          3D

 36 38  0  0  1  0  0  0  0  0999 V2000
   44.6320   34.5710   42.0930 N   0  0  0  0  0  0  0  0  0  0  0  0
   45.2210   33.6460   41.1860 C   0  0  1  0  0  0  0  0  0  0  0  0
   44.8410   33.8140   39.7650 C   0  0  0  0  0  0  0  0  0  0  0  0
   43.5320   34.2440   39.5020 N   0  0  0  0  0  0  0  0  0  0  0  0
   42.9200   35.1010   40.4180 C   0  0  0  0  0  0  0  0  0  0  0  0
   43.8900   35.6220   41.4670 C   0  0  0  0  0  0  0  0  0  0  0  0
   44.4480   35.4470   44.3040 C   0  0  0  0  0  0  0  0  0  0  0  0
   44.8270   34.3970   43.4740 C   0  0  0  0  0  0  0  0  0  0  0  0
   45.3770   33.2770   44.0790 C   0  0  0  0  0  0  0  0  0  0  0  0
   45.5320   33.2270   45.4290 N   0  0  0  0  0  0  0  0  0  0  0  0
   45.1490   34.2780   46.1990 C   0  0  0  0  0  0  0  0  0  0  0  0
   44.6160   35.3690   45.6550 N   0  0  0  0  0  0  0  0  0  0  0  0
   46.6560   33.6090   41.3510 N   0  0  0  0  0  0  0  0  0  0  0  0
   47.3450   34.8280   41.1660 C   0  0  0  0  0  0  0  0  0  0  0  0
   48.3580   34.5850   40.0400 C   0  0  0  0  0  0  0  0  0  0  0  0
   48.6570   33.1030   40.1790 C   0  0  0  0  0  0  0  0  0  0  0  0
   47.2950   32.5770   40.5860 C   0  0  0  0  0  0  0  0  0  0  0  0
   44.7944   32.6702   41.4614 H   0  0  0  0  0  0  0  0  0  0  0  0
   45.5275   34.5511   39.3229 H   0  0  0  0  0  0  0  0  0  0  0  0
   44.9024   32.8047   39.3319 H   0  0  0  0  0  0  0  0  0  0  0  0
   43.5472   34.7293   38.5936 H   0  0  0  0  0  0  0  0  0  0  0  0
   42.4977   35.9574   39.8719 H   0  0  0  0  0  0  0  0  0  0  0  0
   42.1390   34.5289   40.9402 H   0  0  0  0  0  0  0  0  0  0  0  0
   44.5959   36.3132   40.9833 H   0  0  0  0  0  0  0  0  0  0  0  0
   43.3014   36.1276   42.2467 H   0  0  0  0  0  0  0  0  0  0  0  0
   44.0064   36.3534   43.8642 H   0  0  0  0  0  0  0  0  0  0  0  0
   45.6904   32.4221   43.4618 H   0  0  0  0  0  0  0  0  0  0  0  0
   45.2815   34.2265   47.2898 H   0  0  0  0  0  0  0  0  0  0  0  0
   46.6412   35.6234   40.8797 H   0  0  0  0  0  0  0  0  0  0  0  0
   47.8460   35.1479   42.0916 H   0  0  0  0  0  0  0  0  0  0  0  0
   49.2659   35.1888   40.1853 H   0  0  0  0  0  0  0  0  0  0  0  0
   47.9819   34.8644   39.0448 H   0  0  0  0  0  0  0  0  0  0  0  0
   48.9918   32.6662   39.2266 H   0  0  0  0  0  0  0  0  0  0  0  0
   49.4670   32.8654   40.8843 H   0  0  0  0  0  0  0  0  0  0  0  0
   46.6975   32.3450   39.6921 H   0  0  0  0  0  0  0  0  0  0  0  0
   47.3920   31.6544   41.1771 H   0  0  0  0  0  0  0  0  0  0  0  0
  1  8  1  0
  2 13  1  0
  2  1  1  0
  3  2  1  0
  4  3  1  0
  4  5  1  0
  5  6  1  0
  6  1  1  0
  7 12  2  0
  8  9  2  0
  8  7  1  0
  9 10  1  0
 10 11  2  0
 12 11  1  0
 13 14  1  0
 15 16  1  0
 15 14  1  0
 16 17  1  0
 17 13  1  0
  2 18  1  1
  3 19  1  0
  3 20  1  0
  4 21  1  0
  5 22  1  0
  5 23  1  0
  6 24  1  0
  6 25  1  0
  7 26  1  0
  9 27  1  0
 11 28  1  0
 14 29  1  0
 14 30  1  0
 15 31  1  0
 15 32  1  0
 16 33  1  0
 16 34  1  0
 17 35  1  0
 17 36  1  0
M  ISO  8  18  13  19  13  20  13  21   5  22  13  23  13  24  13  25  13
M  ISO  8  26  14  27  14  28  14  29  13  30  13  31  13  32  13  33  13
M  ISO  3  34  13  35  13  36  13
M  END
>  <minimizedAffinity>  (1) 
-4.27282286

>  <minimizedRMSD>  (1) 
1.05632436

$$$$
