
     RDKit          3D

 36 38  0  0  1  0  0  0  0  0999 V2000
   46.3960   30.6490   46.1010 C   0  0  0  0  0  0  0  0  0  0  0  0
   45.1370   30.2960   46.8520 C   0  0  1  0  0  0  0  0  0  0  0  0
   45.0650   28.8890   47.3450 C   0  0  0  0  0  0  0  0  0  0  0  0
   45.2040   29.9680   48.3010 C   0  0  1  0  0  0  0  0  0  0  0  0
   46.3900   30.4030   48.9760 N   0  0  0  0  0  0  0  0  0  0  0  0
   46.5520   31.8510   48.9160 C   0  0  0  0  0  0  0  0  0  0  0  0
   47.9810   32.1420   48.5930 C   0  0  0  0  0  0  0  0  0  0  0  0
   48.6630   30.8270   48.3740 C   0  0  0  0  0  0  0  0  0  0  0  0
   47.5000   29.8910   48.1430 C   0  0  0  0  0  0  0  0  0  0  0  0
   45.9000   32.9500   45.6910 C   0  0  0  0  0  0  0  0  0  0  0  0
   46.1550   31.7980   45.1650 C   0  0  0  0  0  0  0  0  0  0  0  0
   44.5620   36.1210   44.4010 C   0  0  0  0  0  0  0  0  0  0  0  0
   45.1770   36.2310   43.1480 C   0  0  0  0  0  0  0  0  0  0  0  0
   46.0300   35.2190   42.7790 C   0  0  0  0  0  0  0  0  0  0  0  0
   46.2140   34.2040   43.6400 N   0  0  0  0  0  0  0  0  0  0  0  0
   45.6260   34.1000   44.8350 C   0  0  0  0  0  0  0  0  0  0  0  0
   44.8100   35.0640   45.1940 N   0  0  0  0  0  0  0  0  0  0  0  0
   47.1789   30.9289   46.8212 H   0  0  0  0  0  0  0  0  0  0  0  0
   46.7116   29.7752   45.5121 H   0  0  0  0  0  0  0  0  0  0  0  0
   44.5209   30.9842   46.2546 H   0  0  0  0  0  0  0  0  0  0  0  0
   44.1179   28.3333   47.2798 H   0  0  0  0  0  0  0  0  0  0  0  0
   45.6246   27.9658   47.1338 H   0  0  0  0  0  0  0  0  0  0  0  0
   44.6519   30.1454   49.2357 H   0  0  0  0  0  0  0  0  0  0  0  0
   45.9001   32.2676   48.1340 H   0  0  0  0  0  0  0  0  0  0  0  0
   46.2771   32.3067   49.8787 H   0  0  0  0  0  0  0  0  0  0  0  0
   48.0440   32.7554   47.6820 H   0  0  0  0  0  0  0  0  0  0  0  0
   48.4605   32.6986   49.4117 H   0  0  0  0  0  0  0  0  0  0  0  0
   49.3246   30.8635   47.4959 H   0  0  0  0  0  0  0  0  0  0  0  0
   49.3108   30.5241   49.2098 H   0  0  0  0  0  0  0  0  0  0  0  0
   47.2130   29.8934   47.0811 H   0  0  0  0  0  0  0  0  0  0  0  0
   47.7582   28.8555   48.4097 H   0  0  0  0  0  0  0  0  0  0  0  0
   45.8894   33.0643   46.7850 H   0  0  0  0  0  0  0  0  0  0  0  0
   46.1941   31.6641   44.0739 H   0  0  0  0  0  0  0  0  0  0  0  0
   43.8700   36.9062   44.7395 H   0  0  0  0  0  0  0  0  0  0  0  0
   44.9857   37.0899   42.4880 H   0  0  0  0  0  0  0  0  0  0  0  0
   46.5466   35.2392   41.8081 H   0  0  0  0  0  0  0  0  0  0  0  0
  1  2  1  0
  2  3  1  0
  2  4  1  0
  3  4  1  0
  4  5  1  0
  5  6  1  0
  7  6  1  0
  8  7  1  0
  9  8  1  0
  9  5  1  0
 11 10  2  0
 11  1  1  0
 12 17  2  0
 13 12  1  0
 14 13  2  0
 14 15  1  0
 15 16  2  0
 16 17  1  0
 16 10  1  0
  1 18  1  0
  1 19  1  0
  2 20  1  1
  3 21  1  0
  3 22  1  0
  4 23  1  1
  6 24  1  0
  6 25  1  0
  7 26  1  0
  7 27  1  0
  8 28  1  0
  8 29  1  0
  9 30  1  0
  9 31  1  0
 10 32  1  0
 11 33  1  0
 12 34  1  0
 13 35  1  0
 14 36  1  0
M  ISO  8  18   8  19   8  20  13  21  13  22  13  23  13  24  13  25  13
M  ISO  8  26  13  27  13  28  13  29  13  30  13  31  13  34  14  35  14
M  ISO  1  36  14
M  END
>  <minimizedAffinity>  (1) 
-4.53460741

>  <minimizedRMSD>  (1) 
1.6144731

$$$$
