
     RDKit          3D

 42 44  0  0  0  0  0  0  0  0999 V2000
   47.7690   30.0970   44.9340 F   0  0  0  0  0  0  0  0  0  0  0  0
   47.5620   30.8590   46.0740 C   0  0  0  0  0  0  0  0  0  0  0  0
   46.9250   32.0730   45.9720 C   0  0  0  0  0  0  0  0  0  0  0  0
   46.7560   32.7770   47.1570 C   0  0  0  0  0  0  0  0  0  0  0  0
   47.2100   32.2630   48.3510 C   0  0  0  0  0  0  0  0  0  0  0  0
   47.8440   31.0360   48.3940 C   0  0  0  0  0  0  0  0  0  0  0  0
   48.0410   30.2870   47.2300 C   0  0  0  0  0  0  0  0  0  0  0  0
   46.7780   34.1180   42.9430 C   0  0  0  0  0  0  0  0  0  0  0  0
   45.6560   33.6410   42.2720 C   0  0  0  0  0  0  0  0  0  0  0  0
   44.9430   32.5930   42.8820 C   0  0  0  0  0  0  0  0  0  0  0  0
   45.3610   32.1020   44.0680 N   0  0  0  0  0  0  0  0  0  0  0  0
   46.4530   32.5930   44.6840 C   0  0  0  0  0  0  0  0  0  0  0  0
   47.1570   33.5930   44.1270 N   0  0  0  0  0  0  0  0  0  0  0  0
   45.2680   34.2290   40.9860 C   0  0  0  0  0  0  0  0  0  0  0  0
   44.9210   35.5600   41.1540 F   0  0  0  0  0  0  0  0  0  0  0  0
   46.3780   34.2080   40.1440 F   0  0  0  0  0  0  0  0  0  0  0  0
   44.2440   33.6220   40.3540 F   0  0  0  0  0  0  0  0  0  0  0  0
   47.4640   35.1200   42.3630 O   0  0  0  0  0  0  0  0  0  0  0  0
   48.8080   35.0800   41.8930 C   0  0  0  0  0  0  0  0  0  0  0  0
   49.6310   35.3340   42.9730 F   0  0  0  0  0  0  0  0  0  0  0  0
   49.0500   33.8600   41.3060 F   0  0  0  0  0  0  0  0  0  0  0  0
   49.0170   36.1290   41.0240 F   0  0  0  0  0  0  0  0  0  0  0  0
   48.7170   28.9660   47.2380 C   0  0  0  0  0  0  0  0  0  0  0  0
   49.7430   28.8840   48.2490 N   0  0  0  0  0  0  0  0  0  0  0  0
   49.9270   27.5260   48.7240 C   0  0  0  0  0  0  0  0  0  0  0  0
   51.3840   27.4330   49.1930 C   0  0  0  0  0  0  0  0  0  0  0  0
   51.9320   28.8300   48.8750 C   0  0  0  0  0  0  0  0  0  0  0  0
   51.0430   29.1620   47.6690 C   0  0  0  0  0  0  0  0  0  0  0  0
   46.2541   33.7557   47.1416 H   0  0  0  0  0  0  0  0  0  0  0  0
   47.0666   32.8348   49.2797 H   0  0  0  0  0  0  0  0  0  0  0  0
   48.1989   30.6428   49.3581 H   0  0  0  0  0  0  0  0  0  0  0  0
   44.0493   32.1757   42.3950 H   0  0  0  0  0  0  0  0  0  0  0  0
   47.9665   28.1853   47.4311 H   0  0  0  0  0  0  0  0  0  0  0  0
   49.1971   28.8268   46.2581 H   0  0  0  0  0  0  0  0  0  0  0  0
   49.2429   27.3180   49.5599 H   0  0  0  0  0  0  0  0  0  0  0  0
   49.7115   26.7914   47.9341 H   0  0  0  0  0  0  0  0  0  0  0  0
   51.4407   27.2208   50.2709 H   0  0  0  0  0  0  0  0  0  0  0  0
   51.9475   26.6227   48.7072 H   0  0  0  0  0  0  0  0  0  0  0  0
   51.7793   29.5331   49.7070 H   0  0  0  0  0  0  0  0  0  0  0  0
   53.0159   28.8856   48.6958 H   0  0  0  0  0  0  0  0  0  0  0  0
   51.2570   28.5102   46.8092 H   0  0  0  0  0  0  0  0  0  0  0  0
   51.1670   30.1755   47.2597 H   0  0  0  0  0  0  0  0  0  0  0  0
  1  2  1  0
  2  7  2  0
  3  2  1  0
  3  4  2  0
  4  5  1  0
  5  6  2  0
  7 23  1  0
  7  6  1  0
  8 13  2  0
  9 10  2  0
  9  8  1  0
 10 11  1  0
 11 12  2  0
 12  3  1  0
 13 12  1  0
 14 15  1  0
 14  9  1  0
 16 14  1  0
 17 14  1  0
 18  8  1  0
 19 18  1  0
 19 20  1  0
 21 19  1  0
 22 19  1  0
 23 24  1  0
 24 25  1  0
 25 26  1  0
 27 26  1  0
 28 24  1  0
 28 27  1  0
  4 29  1  0
  5 30  1  0
  6 31  1  0
 10 32  1  0
 23 33  1  0
 23 34  1  0
 25 35  1  0
 25 36  1  0
 26 37  1  0
 26 38  1  0
 27 39  1  0
 27 40  1  0
 28 41  1  0
 28 42  1  0
M  ISO  8  29  14  30  14  31  14  32  14  33   8  34   8  35  13  36  13
M  ISO  6  37  13  38  13  39  13  40  13  41  13  42  13
M  END
>  <minimizedAffinity>  (1) 
-5.46474218

>  <minimizedRMSD>  (1) 
1.3891288

$$$$
