
     RDKit          3D

 51 54  0  0  0  0  0  0  0  0999 V2000
   45.9950   32.1560   48.3040 C   0  0  0  0  0  0  0  0  0  0  0  0
   45.6000   31.3420   49.3220 C   0  0  0  0  0  0  0  0  0  0  0  0
   46.6820   30.6330   49.6830 N   0  0  0  0  0  0  0  0  0  0  0  0
   47.7340   30.9630   48.9420 C   0  0  0  0  0  0  0  0  0  0  0  0
   47.3020   31.9280   48.0660 N   0  0  0  0  0  0  0  0  0  0  0  0
   49.0850   30.5060   48.9440 N   0  0  0  0  0  0  0  0  0  0  0  0
   50.0460   31.2230   49.8150 C   0  0  0  0  0  0  0  0  0  0  0  0
   50.2540   30.3020   51.0110 C   0  0  0  0  0  0  0  0  0  0  0  0
   50.5130   28.8900   50.5290 C   0  0  0  0  0  0  0  0  0  0  0  0
   50.8930   28.9010   49.0670 C   0  0  0  0  0  0  0  0  0  0  0  0
   49.7410   29.4480   48.2480 C   0  0  0  0  0  0  0  0  0  0  0  0
   45.1590   33.1420   47.5760 C   0  0  0  0  0  0  0  0  0  0  0  0
   45.2030   34.3610   45.4320 C   0  0  0  0  0  0  0  0  0  0  0  0
   45.6710   33.4140   46.2250 C   0  0  0  0  0  0  0  0  0  0  0  0
   45.8320   34.5060   44.1070 C   0  0  0  0  0  0  0  0  0  0  0  0
   45.2180   35.3010   43.1150 C   0  0  0  0  0  0  0  0  0  0  0  0
   45.8850   35.3840   41.8930 C   0  0  0  0  0  0  0  0  0  0  0  0
   47.0410   34.7310   41.7070 N   0  0  0  0  0  0  0  0  0  0  0  0
   47.6030   33.9780   42.6780 C   0  0  0  0  0  0  0  0  0  0  0  0
   46.9950   33.8810   43.8460 N   0  0  0  0  0  0  0  0  0  0  0  0
   48.8240   33.3150   42.4180 N   0  0  0  0  0  0  0  0  0  0  0  0
   48.9350   31.8850   42.1740 C   0  0  0  0  0  0  0  0  0  0  0  0
   50.3820   31.6230   42.5290 C   0  0  0  0  0  0  0  0  0  0  0  0
   51.0540   32.8320   41.8720 C   0  0  0  0  0  0  0  0  0  0  0  0
   50.1210   33.9400   42.3540 C   0  0  0  0  0  0  0  0  0  0  0  0
   44.5937   31.2779   49.7616 H   0  0  0  0  0  0  0  0  0  0  0  0
   46.6945   29.9279   50.4337 H   0  0  0  0  0  0  0  0  0  0  0  0
   50.9959   31.3916   49.2866 H   0  0  0  0  0  0  0  0  0  0  0  0
   49.6735   32.2136   50.1151 H   0  0  0  0  0  0  0  0  0  0  0  0
   51.1167   30.6524   51.5967 H   0  0  0  0  0  0  0  0  0  0  0  0
   49.3517   30.3124   51.6400 H   0  0  0  0  0  0  0  0  0  0  0  0
   51.3339   28.4506   51.1148 H   0  0  0  0  0  0  0  0  0  0  0  0
   49.5986   28.2924   50.6584 H   0  0  0  0  0  0  0  0  0  0  0  0
   51.7790   29.5370   48.9235 H   0  0  0  0  0  0  0  0  0  0  0  0
   51.1199   27.8755   48.7401 H   0  0  0  0  0  0  0  0  0  0  0  0
   49.0193   28.6404   48.0556 H   0  0  0  0  0  0  0  0  0  0  0  0
   50.1365   29.8406   47.2996 H   0  0  0  0  0  0  0  0  0  0  0  0
   44.1356   32.7470   47.4942 H   0  0  0  0  0  0  0  0  0  0  0  0
   45.1799   34.0854   48.1414 H   0  0  0  0  0  0  0  0  0  0  0  0
   44.3770   35.0152   45.7478 H   0  0  0  0  0  0  0  0  0  0  0  0
   46.4957   32.7896   45.8510 H   0  0  0  0  0  0  0  0  0  0  0  0
   44.2678   35.8250   43.2956 H   0  0  0  0  0  0  0  0  0  0  0  0
   45.4605   35.9883   41.0777 H   0  0  0  0  0  0  0  0  0  0  0  0
   48.2537   31.3139   42.8219 H   0  0  0  0  0  0  0  0  0  0  0  0
   48.6656   31.5851   41.1505 H   0  0  0  0  0  0  0  0  0  0  0  0
   50.5377   31.6138   43.6179 H   0  0  0  0  0  0  0  0  0  0  0  0
   50.7663   30.6477   42.1957 H   0  0  0  0  0  0  0  0  0  0  0  0
   51.0604   32.7507   40.7750 H   0  0  0  0  0  0  0  0  0  0  0  0
   52.1145   32.9718   42.1284 H   0  0  0  0  0  0  0  0  0  0  0  0
   50.4276   34.3026   43.3462 H   0  0  0  0  0  0  0  0  0  0  0  0
   50.1317   34.8157   41.6884 H   0  0  0  0  0  0  0  0  0  0  0  0
  1  2  2  0
  2  3  1  0
  4  6  1  0
  4  3  1  0
  5  1  1  0
  5  4  2  0
  6  7  1  0
  7  8  1  0
  9  8  1  0
 10  9  1  0
 11  6  1  0
 11 10  1  0
 12  1  1  0
 13 14  2  0
 14 12  1  0
 15 13  1  0
 16 15  2  0
 17 16  1  0
 18 17  2  0
 18 19  1  0
 19 20  2  0
 20 15  1  0
 21 19  1  0
 22 21  1  0
 22 23  1  0
 24 25  1  0
 24 23  1  0
 25 21  1  0
  2 26  1  0
  3 27  1  0
  7 28  1  0
  7 29  1  0
  8 30  1  0
  8 31  1  0
  9 32  1  0
  9 33  1  0
 10 34  1  0
 10 35  1  0
 11 36  1  0
 11 37  1  0
 12 38  1  0
 12 39  1  0
 13 40  1  0
 14 41  1  0
 16 42  1  0
 17 43  1  0
 22 44  1  0
 22 45  1  0
 23 46  1  0
 23 47  1  0
 24 48  1  0
 24 49  1  0
 25 50  1  0
 25 51  1  0
M  ISO  8  26  14  27   9  28  13  29  13  30  13  31  13  32  13  33  13
M  ISO  8  34  13  35  13  36  13  37  13  38   8  39   8  42  14  43  14
M  ISO  8  44  13  45  13  46  13  47  13  48  13  49  13  50  13  51  13
M  END
>  <minimizedAffinity>  (1) 
-6.57103062

>  <minimizedRMSD>  (1) 
1.25934517

$$$$
