
     RDKit          3D

 29 30  0  0  0  0  0  0  0  0999 V2000
   44.8380   35.1910   45.0390 C   0  0  0  0  0  0  0  0  0  0  0  0
   45.7370   34.7840   44.0360 C   0  0  0  0  0  0  0  0  0  0  0  0
   46.5290   33.6640   44.3100 C   0  0  0  0  0  0  0  0  0  0  0  0
   46.4040   33.0330   45.4950 N   0  0  0  0  0  0  0  0  0  0  0  0
   45.5380   33.4500   46.4240 C   0  0  0  0  0  0  0  0  0  0  0  0
   44.7560   34.5180   46.2100 N   0  0  0  0  0  0  0  0  0  0  0  0
   45.7650   35.5830   42.7690 C   0  0  0  0  0  0  0  0  0  0  0  0
   45.2830   36.8280   43.1180 F   0  0  0  0  0  0  0  0  0  0  0  0
   44.9350   34.9510   41.8750 F   0  0  0  0  0  0  0  0  0  0  0  0
   47.0670   35.6140   42.3220 F   0  0  0  0  0  0  0  0  0  0  0  0
   45.3930   32.8150   47.6510 O   0  0  0  0  0  0  0  0  0  0  0  0
   46.4820   32.3150   48.3750 C   0  0  0  0  0  0  0  0  0  0  0  0
   46.4040   30.8770   48.5390 N   0  0  0  0  0  0  0  0  0  0  0  0
   45.0410   30.3980   48.4950 C   0  0  0  0  0  0  0  0  0  0  0  0
   45.1790   28.9940   47.9430 C   0  0  0  0  0  0  0  0  0  0  0  0
   46.1520   29.2830   46.7920 C   0  0  0  0  0  0  0  0  0  0  0  0
   47.1480   30.1600   47.5550 C   0  0  0  0  0  0  0  0  0  0  0  0
   44.1943   36.0666   44.8691 H   0  0  0  0  0  0  0  0  0  0  0  0
   47.2497   33.3001   43.5629 H   0  0  0  0  0  0  0  0  0  0  0  0
   47.4100   32.5625   47.8388 H   0  0  0  0  0  0  0  0  0  0  0  0
   46.4685   32.7746   49.3743 H   0  0  0  0  0  0  0  0  0  0  0  0
   44.5964   30.3833   49.5011 H   0  0  0  0  0  0  0  0  0  0  0  0
   44.3817   31.0351   47.8873 H   0  0  0  0  0  0  0  0  0  0  0  0
   45.6080   28.3008   48.6815 H   0  0  0  0  0  0  0  0  0  0  0  0
   44.2371   28.5044   47.6545 H   0  0  0  0  0  0  0  0  0  0  0  0
   45.6686   29.8261   45.9666 H   0  0  0  0  0  0  0  0  0  0  0  0
   46.5769   28.4004   46.2915 H   0  0  0  0  0  0  0  0  0  0  0  0
   47.9095   29.5321   48.0406 H   0  0  0  0  0  0  0  0  0  0  0  0
   47.6651   30.8511   46.8732 H   0  0  0  0  0  0  0  0  0  0  0  0
  1  6  2  0
  2  3  2  0
  2  1  1  0
  3  4  1  0
  4  5  2  0
  5 11  1  0
  6  5  1  0
  7  8  1  0
  7  2  1  0
  9  7  1  0
 10  7  1  0
 11 12  1  0
 12 13  1  0
 14 13  1  0
 15 14  1  0
 16 17  1  0
 16 15  1  0
 17 13  1  0
  1 18  1  0
  3 19  1  0
 12 20  1  0
 12 21  1  0
 14 22  1  0
 14 23  1  0
 15 24  1  0
 15 25  1  0
 16 26  1  0
 16 27  1  0
 17 28  1  0
 17 29  1  0
M  ISO  8  18  14  19  14  20   8  21   8  22  13  23  13  24  13  25  13
M  ISO  4  26  13  27  13  28  13  29  13
M  END
>  <minimizedAffinity>  (1) 
-4.74224424

>  <minimizedRMSD>  (1) 
1.24877882

$$$$
