
     RDKit          3D

 36 38  0  0  0  0  0  0  0  0999 V2000
   45.7390   33.8710   43.9320 C   0  0  0  0  0  0  0  0  0  0  0  0
   44.6810   33.9020   43.1070 C   0  0  0  0  0  0  0  0  0  0  0  0
   45.4010   34.6840   41.5850 S   0  0  0  0  0  0  0  0  0  0  0  0
   47.0720   34.8160   42.4180 C   0  0  0  0  0  0  0  0  0  0  0  0
   46.8350   34.3610   43.4330 N   0  0  0  0  0  0  0  0  0  0  0  0
   45.0760   33.4500   47.6280 C   0  0  0  0  0  0  0  0  0  0  0  0
   45.0980   34.0450   46.3440 C   0  0  0  0  0  0  0  0  0  0  0  0
   45.6740   33.3240   45.3070 C   0  0  0  0  0  0  0  0  0  0  0  0
   46.1760   32.0840   45.6210 N   0  0  0  0  0  0  0  0  0  0  0  0
   46.1310   31.5630   46.8510 C   0  0  0  0  0  0  0  0  0  0  0  0
   45.5790   32.2490   47.8590 N   0  0  0  0  0  0  0  0  0  0  0  0
   44.5270   35.3350   46.2280 N   0  0  0  0  0  0  0  0  0  0  0  0
   48.2620   35.4100   41.7170 C   0  0  0  0  0  0  0  0  0  0  0  0
   49.5430   34.8490   42.2970 C   0  0  0  0  0  0  0  0  0  0  0  0
   49.6160   33.4330   42.1320 N   0  0  0  0  0  0  0  0  0  0  0  0
   50.9960   33.0190   42.3120 C   0  0  0  0  0  0  0  0  0  0  0  0
   50.9840   31.6410   41.6850 C   0  0  0  0  0  0  0  0  0  0  0  0
   50.2620   31.9670   40.3710 C   0  0  0  0  0  0  0  0  0  0  0  0
   49.2010   32.9690   40.8420 C   0  0  0  0  0  0  0  0  0  0  0  0
   43.6530   33.5540   43.2862 H   0  0  0  0  0  0  0  0  0  0  0  0
   44.6247   34.0060   48.4630 H   0  0  0  0  0  0  0  0  0  0  0  0
   46.5507   30.5632   47.0362 H   0  0  0  0  0  0  0  0  0  0  0  0
   44.5167   35.8135   45.3160 H   0  0  0  0  0  0  0  0  0  0  0  0
   44.1218   35.7952   47.0556 H   0  0  0  0  0  0  0  0  0  0  0  0
   48.2522   36.5023   41.8463 H   0  0  0  0  0  0  0  0  0  0  0  0
   48.2115   35.1584   40.6473 H   0  0  0  0  0  0  0  0  0  0  0  0
   50.3998   35.3130   41.7864 H   0  0  0  0  0  0  0  0  0  0  0  0
   49.5610   35.0723   43.3739 H   0  0  0  0  0  0  0  0  0  0  0  0
   51.6891   33.6929   41.7871 H   0  0  0  0  0  0  0  0  0  0  0  0
   51.3344   33.0318   43.3586 H   0  0  0  0  0  0  0  0  0  0  0  0
   52.0013   31.2606   41.5108 H   0  0  0  0  0  0  0  0  0  0  0  0
   50.5155   30.8537   42.2938 H   0  0  0  0  0  0  0  0  0  0  0  0
   49.8003   31.0696   39.9334 H   0  0  0  0  0  0  0  0  0  0  0  0
   50.9231   32.3536   39.5813 H   0  0  0  0  0  0  0  0  0  0  0  0
   49.1372   33.8122   40.1384 H   0  0  0  0  0  0  0  0  0  0  0  0
   48.2077   32.4990   40.8916 H   0  0  0  0  0  0  0  0  0  0  0  0
  1  8  1  0
  2  1  2  0
  3  4  1  0
  3  2  1  0
  4  5  2  0
  5  1  1  0
  6 11  2  0
  7  6  1  0
  8  9  1  0
  8  7  2  0
  9 10  2  0
 10 11  1  0
 12  7  1  0
 13 14  1  0
 13  4  1  0
 15 14  1  0
 15 16  1  0
 17 16  1  0
 18 19  1  0
 18 17  1  0
 19 15  1  0
  2 20  1  0
  6 21  1  0
 10 22  1  0
 12 23  1  0
 12 24  1  0
 13 25  1  0
 13 26  1  0
 14 27  1  0
 14 28  1  0
 16 29  1  0
 16 30  1  0
 17 31  1  0
 17 32  1  0
 18 33  1  0
 18 34  1  0
 19 35  1  0
 19 36  1  0
M  ISO  8  20  14  21  14  22  14  25   8  26   8  27   8  28   8  29  13
M  ISO  7  30  13  31  13  32  13  33  13  34  13  35  13  36  13
M  END
>  <minimizedAffinity>  (1) 
-4.99043083

>  <minimizedRMSD>  (1) 
2.04337716

$$$$
