
     RDKit          3D

 29 30  0  0  0  0  0  0  0  0999 V2000
   44.8440   35.7890   43.9720 C   0  0  0  0  0  0  0  0  0  0  0  0
   44.3240   35.4460   42.7060 C   0  0  0  0  0  0  0  0  0  0  0  0
   44.3560   34.0910   42.3430 C   0  0  0  0  0  0  0  0  0  0  0  0
   44.8760   33.1930   43.2120 N   0  0  0  0  0  0  0  0  0  0  0  0
   45.3680   33.5570   44.4230 C   0  0  0  0  0  0  0  0  0  0  0  0
   45.3370   34.8410   44.7660 N   0  0  0  0  0  0  0  0  0  0  0  0
   45.8980   32.5730   45.2880 N   0  0  0  0  0  0  0  0  0  0  0  0
   46.4570   32.8430   46.6200 C   0  0  0  0  0  0  0  0  0  0  0  0
   47.1250   31.5630   47.0410 C   0  0  0  0  0  0  0  0  0  0  0  0
   47.3650   30.8800   45.6880 C   0  0  0  0  0  0  0  0  0  0  0  0
   45.9960   31.1480   45.0480 C   0  0  0  0  0  0  0  0  0  0  0  0
   44.8150   37.2010   44.3600 C   0  0  0  0  0  0  0  0  0  0  0  0
   45.4050   38.0830   43.5660 C   0  0  0  0  0  0  0  0  0  0  0  0
   45.4250   39.5320   43.8780 C   0  0  0  0  0  0  0  0  0  0  0  0
   43.9103   36.2098   42.0311 H   0  0  0  0  0  0  0  0  0  0  0  0
   43.9649   33.7640   41.3683 H   0  0  0  0  0  0  0  0  0  0  0  0
   47.1903   33.6614   46.5707 H   0  0  0  0  0  0  0  0  0  0  0  0
   45.6798   33.1524   47.3343 H   0  0  0  0  0  0  0  0  0  0  0  0
   48.0720   31.7582   47.5656 H   0  0  0  0  0  0  0  0  0  0  0  0
   46.5340   30.9613   47.7472 H   0  0  0  0  0  0  0  0  0  0  0  0
   48.1843   31.3518   45.1257 H   0  0  0  0  0  0  0  0  0  0  0  0
   47.6706   29.8243   45.7348 H   0  0  0  0  0  0  0  0  0  0  0  0
   45.1916   30.5905   45.5501 H   0  0  0  0  0  0  0  0  0  0  0  0
   45.9018   30.8417   43.9957 H   0  0  0  0  0  0  0  0  0  0  0  0
   44.3163   37.5212   45.2867 H   0  0  0  0  0  0  0  0  0  0  0  0
   45.8950   37.7288   42.6470 H   0  0  0  0  0  0  0  0  0  0  0  0
   45.4269   39.6722   44.9690 H   0  0  0  0  0  0  0  0  0  0  0  0
   46.3295   39.9872   43.4482 H   0  0  0  0  0  0  0  0  0  0  0  0
   44.5334   40.0119   43.4482 H   0  0  0  0  0  0  0  0  0  0  0  0
  1 12  1  0
  1  6  2  0
  2  1  1  0
  3  2  2  0
  3  4  1  0
  4  5  2  0
  5  6  1  0
  5  7  1  0
  7  8  1  0
  8  9  1  0
 10  9  1  0
 11  7  1  0
 11 10  1  0
 13 14  1  0
 13 12  2  0
  2 15  1  0
  3 16  1  0
  8 17  1  0
  8 18  1  0
  9 19  1  0
  9 20  1  0
 10 21  1  0
 10 22  1  0
 11 23  1  0
 11 24  1  0
 12 25  1  0
 13 26  1  0
 14 27  1  0
 14 28  1  0
 14 29  1  0
M  ISO  8  15  14  16  14  17  13  18  13  19  13  20  13  21  13  22  13
M  ISO  5  23  13  24  13  27   8  28   8  29   8
M  END
>  <minimizedAffinity>  (1) 
-3.58417869

>  <minimizedRMSD>  (1) 
1.06855035

$$$$
