
     RDKit          3D

 28 29  0  0  0  0  0  0  0  0999 V2000
   46.7000   34.7220   41.8950 C   0  0  0  0  0  0  0  0  0  0  0  0
   44.4950   35.9430   44.7070 C   0  0  0  0  0  0  0  0  0  0  0  0
   45.1320   35.8720   43.4660 C   0  0  0  0  0  0  0  0  0  0  0  0
   46.0160   34.8140   43.2230 C   0  0  0  0  0  0  0  0  0  0  0  0
   46.2030   33.9110   44.2170 N   0  0  0  0  0  0  0  0  0  0  0  0
   45.5720   34.0110   45.4010 C   0  0  0  0  0  0  0  0  0  0  0  0
   44.7250   35.0140   45.6510 N   0  0  0  0  0  0  0  0  0  0  0  0
   48.0460   35.3750   42.0010 C   0  0  0  0  0  0  0  0  0  0  0  0
   49.1080   34.5320   41.5060 N   0  0  0  0  0  0  0  0  0  0  0  0
   50.2160   34.4460   42.4350 C   0  0  0  0  0  0  0  0  0  0  0  0
   50.6760   32.9780   42.3340 C   0  0  0  0  0  0  0  0  0  0  0  0
   49.3190   32.3270   42.2370 C   0  0  0  0  0  0  0  0  0  0  0  0
   48.5990   33.2190   41.2620 C   0  0  0  0  0  0  0  0  0  0  0  0
   46.0978   35.2370   41.1320 H   0  0  0  0  0  0  0  0  0  0  0  0
   46.8170   33.6671   41.6060 H   0  0  0  0  0  0  0  0  0  0  0  0
   43.7976   36.7680   44.9141 H   0  0  0  0  0  0  0  0  0  0  0  0
   44.9427   36.6328   42.6944 H   0  0  0  0  0  0  0  0  0  0  0  0
   45.7566   33.2537   46.1771 H   0  0  0  0  0  0  0  0  0  0  0  0
   48.0334   36.3068   41.4166 H   0  0  0  0  0  0  0  0  0  0  0  0
   48.2412   35.5692   43.0660 H   0  0  0  0  0  0  0  0  0  0  0  0
   51.0258   35.1303   42.1418 H   0  0  0  0  0  0  0  0  0  0  0  0
   49.9324   34.7308   43.4589 H   0  0  0  0  0  0  0  0  0  0  0  0
   51.2884   32.7959   41.4386 H   0  0  0  0  0  0  0  0  0  0  0  0
   51.3206   32.6213   43.1509 H   0  0  0  0  0  0  0  0  0  0  0  0
   49.3976   31.2994   41.8524 H   0  0  0  0  0  0  0  0  0  0  0  0
   48.8072   32.2333   43.2062 H   0  0  0  0  0  0  0  0  0  0  0  0
   47.5139   33.1872   41.4394 H   0  0  0  0  0  0  0  0  0  0  0  0
   48.7604   32.9033   40.2207 H   0  0  0  0  0  0  0  0  0  0  0  0
  1  8  1  0
  1  4  1  0
  2  7  2  0
  3  2  1  0
  4  3  2  0
  4  5  1  0
  5  6  2  0
  6  7  1  0
  9  8  1  0
  9 10  1  0
 11 10  1  0
 12 11  1  0
 13  9  1  0
 13 12  1  0
  1 14  1  0
  1 15  1  0
  2 16  1  0
  3 17  1  0
  6 18  1  0
  8 19  1  0
  8 20  1  0
 10 21  1  0
 10 22  1  0
 11 23  1  0
 11 24  1  0
 12 25  1  0
 12 26  1  0
 13 27  1  0
 13 28  1  0
M  ISO  8  14   8  15   8  16  14  17  14  18  14  19   8  20   8  21  13
M  ISO  7  22  13  23  13  24  13  25  13  26  13  27  13  28  13
M  END
>  <minimizedAffinity>  (1) 
-4.17447567

>  <minimizedRMSD>  (1) 
1.46481335

$$$$
