
     RDKit          3D

 53 56  0  0  1  0  0  0  0  0999 V2000
   45.0150   34.7230   44.9730 C   0  0  0  0  0  0  0  0  0  0  0  0
   45.8830   34.5770   43.8550 C   0  0  0  0  0  0  0  0  0  0  0  0
   46.9250   33.6620   43.9420 C   0  0  0  0  0  0  0  0  0  0  0  0
   47.0510   32.9620   45.0990 N   0  0  0  0  0  0  0  0  0  0  0  0
   46.2420   33.0960   46.1420 C   0  0  0  0  0  0  0  0  0  0  0  0
   45.2500   33.9770   46.0380 N   0  0  0  0  0  0  0  0  0  0  0  0
   46.4480   32.3330   47.2870 N   0  0  0  0  0  0  0  0  0  0  0  0
   47.7070   32.4020   47.9960 C   0  0  0  0  0  0  0  0  0  0  0  0
   47.9290   31.2600   48.9350 C   0  0  0  0  0  0  0  0  0  0  0  0
   46.7750   30.7150   49.5620 N   0  0  0  0  0  0  0  0  0  0  0  0
   45.5700   31.4290   49.2480 C   0  0  0  0  0  0  0  0  0  0  0  0
   45.3640   31.4520   47.7700 C   0  0  2  0  0  0  0  0  0  0  0  0
   45.4690   30.0820   47.1450 C   0  0  0  0  0  0  0  0  0  0  0  0
   44.8610   29.1270   48.1410 C   0  0  0  0  0  0  0  0  0  0  0  0
   44.9810   27.8130   47.9770 C   0  0  0  0  0  0  0  0  0  0  0  0
   44.4250   26.7920   48.8980 C   0  0  0  0  0  0  0  0  0  0  0  0
   43.7520   25.7060   48.0980 C   0  0  2  0  0  0  0  0  0  0  0  0
   44.5810   24.7250   47.3410 C   0  0  0  0  0  0  0  0  0  0  0  0
   43.7600   25.7600   46.6270 C   0  0  1  0  0  0  0  0  0  0  0  0
   42.5110   25.5080   46.0140 N   0  0  0  0  0  0  0  0  0  0  0  0
   41.3340   25.8120   46.7410 C   0  0  0  0  0  0  0  0  0  0  0  0
   40.2700   25.0640   45.9550 C   0  0  0  0  0  0  0  0  0  0  0  0
   40.9850   24.1870   44.9560 C   0  0  0  0  0  0  0  0  0  0  0  0
   42.4040   24.1560   45.5240 C   0  0  0  0  0  0  0  0  0  0  0  0
   44.1757   35.4337   44.9514 H   0  0  0  0  0  0  0  0  0  0  0  0
   45.7327   35.1743   42.9436 H   0  0  0  0  0  0  0  0  0  0  0  0
   47.6221   33.5102   43.1047 H   0  0  0  0  0  0  0  0  0  0  0  0
   48.5221   32.4082   47.2574 H   0  0  0  0  0  0  0  0  0  0  0  0
   47.6852   33.3190   48.6031 H   0  0  0  0  0  0  0  0  0  0  0  0
   48.4133   30.4515   48.3678 H   0  0  0  0  0  0  0  0  0  0  0  0
   48.5352   31.6734   49.7546 H   0  0  0  0  0  0  0  0  0  0  0  0
   46.6661   29.7380   49.2546 H   0  0  0  0  0  0  0  0  0  0  0  0
   44.7149   30.9303   49.7278 H   0  0  0  0  0  0  0  0  0  0  0  0
   45.6537   32.4614   49.6182 H   0  0  0  0  0  0  0  0  0  0  0  0
   44.3561   31.8022   47.5028 H   0  0  0  0  0  0  0  0  0  0  0  0
   44.9135   30.0505   46.1961 H   0  0  0  0  0  0  0  0  0  0  0  0
   46.5130   29.8197   46.9187 H   0  0  0  0  0  0  0  0  0  0  0  0
   44.3138   29.5206   49.0103 H   0  0  0  0  0  0  0  0  0  0  0  0
   45.5326   27.4574   47.0943 H   0  0  0  0  0  0  0  0  0  0  0  0
   45.2387   26.3559   49.4961 H   0  0  0  0  0  0  0  0  0  0  0  0
   43.6899   27.2634   49.5669 H   0  0  0  0  0  0  0  0  0  0  0  0
   42.9639   25.6285   48.8614 H   0  0  0  0  0  0  0  0  0  0  0  0
   45.6782   24.8020   47.3539 H   0  0  0  0  0  0  0  0  0  0  0  0
   44.6625   23.6285   47.3070 H   0  0  0  0  0  0  0  0  0  0  0  0
   44.0248   26.4600   45.8209 H   0  0  0  0  0  0  0  0  0  0  0  0
   41.3980   25.4442   47.7757 H   0  0  0  0  0  0  0  0  0  0  0  0
   41.1382   26.8904   46.8340 H   0  0  0  0  0  0  0  0  0  0  0  0
   39.6652   24.4453   46.6343 H   0  0  0  0  0  0  0  0  0  0  0  0
   39.5960   25.7674   45.4442 H   0  0  0  0  0  0  0  0  0  0  0  0
   40.9664   24.6298   43.9492 H   0  0  0  0  0  0  0  0  0  0  0  0
   40.5328   23.1917   44.8339 H   0  0  0  0  0  0  0  0  0  0  0  0
   42.5024   23.4195   46.3351 H   0  0  0  0  0  0  0  0  0  0  0  0
   43.1830   23.8623   44.8051 H   0  0  0  0  0  0  0  0  0  0  0  0
  1  6  2  0
  2  3  2  0
  2  1  1  0
  3  4  1  0
  4  5  2  0
  5  7  1  0
  6  5  1  0
  7 12  1  0
  7  8  1  0
  8  9  1  0
  9 10  1  0
 11 10  1  0
 12 11  1  0
 13 12  1  0
 13 14  1  0
 15 14  2  0
 15 16  1  0
 17 16  1  0
 18 17  1  0
 19 18  1  0
 19 17  1  0
 20 19  1  0
 20 21  1  0
 22 21  1  0
 23 24  1  0
 23 22  1  0
 24 20  1  0
  1 25  1  0
  2 26  1  0
  3 27  1  0
  8 28  1  0
  8 29  1  0
  9 30  1  0
  9 31  1  0
 10 32  1  0
 11 33  1  0
 11 34  1  0
 12 35  1  1
 13 36  1  0
 13 37  1  0
 14 38  1  0
 15 39  1  0
 16 40  1  0
 16 41  1  0
 17 42  1  1
 18 43  1  0
 18 44  1  0
 19 45  1  1
 21 46  1  0
 21 47  1  0
 22 48  1  0
 22 49  1  0
 23 50  1  0
 23 51  1  0
 24 52  1  0
 24 53  1  0
M  ISO  8  25  14  26  14  27  14  28  13  29  13  30  13  31  13  32   5
M  ISO  8  33  13  34  13  35  13  36   8  37   8  40   8  41   8  42  13
M  ISO  8  43  13  44  13  45  13  46  13  47  13  48  13  49  13  50  13
M  ISO  3  51  13  52  13  53  13
M  END
>  <minimizedAffinity>  (1) 
-5.92092657

>  <minimizedRMSD>  (1) 
0.691891193

$$$$
