
     RDKit          3D

 38 40  0  0  1  0  0  0  0  0999 V2000
   46.6730   33.1890   43.0170 C   0  0  2  0  0  0  0  0  0  0  0  0
   45.9440   34.2030   42.2250 C   0  0  1  0  0  0  0  0  0  0  0  0
   45.6870   35.4870   42.9560 C   0  0  0  0  0  0  0  0  0  0  0  0
   44.9490   35.2430   44.2540 C   0  0  0  0  0  0  0  0  0  0  0  0
   45.4420   34.0400   45.0250 C   0  0  0  0  0  0  0  0  0  0  0  0
   46.7640   33.5640   44.4920 C   0  0  0  0  0  0  0  0  0  0  0  0
   48.0450   32.9520   42.5400 C   0  0  0  0  0  0  0  0  0  0  0  0
   48.9870   33.9450   42.8630 C   0  0  0  0  0  0  0  0  0  0  0  0
   50.3110   33.8240   42.4580 C   0  0  0  0  0  0  0  0  0  0  0  0
   50.6270   32.7080   41.7460 N   0  0  0  0  0  0  0  0  0  0  0  0
   49.7110   31.7560   41.4410 C   0  0  0  0  0  0  0  0  0  0  0  0
   48.4250   31.8830   41.8390 N   0  0  0  0  0  0  0  0  0  0  0  0
   46.4450   34.3080   40.9060 N   0  0  0  0  0  0  0  0  0  0  0  0
   46.7600   33.0820   40.2360 C   0  0  0  0  0  0  0  0  0  0  0  0
   48.0020   33.3130   39.4010 C   0  0  0  0  0  0  0  0  0  0  0  0
   48.3960   34.7410   39.6430 C   0  0  0  0  0  0  0  0  0  0  0  0
   47.7330   35.0370   40.9680 C   0  0  0  0  0  0  0  0  0  0  0  0
   46.0792   32.2719   42.8887 H   0  0  0  0  0  0  0  0  0  0  0  0
   44.9179   33.8314   42.0872 H   0  0  0  0  0  0  0  0  0  0  0  0
   46.6492   35.9723   43.1767 H   0  0  0  0  0  0  0  0  0  0  0  0
   45.0635   36.1306   42.3181 H   0  0  0  0  0  0  0  0  0  0  0  0
   45.0649   36.1328   44.8903 H   0  0  0  0  0  0  0  0  0  0  0  0
   43.8996   35.0440   43.9908 H   0  0  0  0  0  0  0  0  0  0  0  0
   45.5587   34.3144   46.0838 H   0  0  0  0  0  0  0  0  0  0  0  0
   44.7073   33.2286   44.9161 H   0  0  0  0  0  0  0  0  0  0  0  0
   47.0831   32.6813   45.0656 H   0  0  0  0  0  0  0  0  0  0  0  0
   47.4910   34.3832   44.5942 H   0  0  0  0  0  0  0  0  0  0  0  0
   48.6729   34.8261   43.4418 H   0  0  0  0  0  0  0  0  0  0  0  0
   51.0632   34.5893   42.7000 H   0  0  0  0  0  0  0  0  0  0  0  0
   50.0172   30.8711   40.8638 H   0  0  0  0  0  0  0  0  0  0  0  0
   46.9490   32.2899   40.9755 H   0  0  0  0  0  0  0  0  0  0  0  0
   45.9215   32.7687   39.5966 H   0  0  0  0  0  0  0  0  0  0  0  0
   47.7829   33.1512   38.3353 H   0  0  0  0  0  0  0  0  0  0  0  0
   48.8094   32.6177   39.6743 H   0  0  0  0  0  0  0  0  0  0  0  0
   49.4887   34.8467   39.7118 H   0  0  0  0  0  0  0  0  0  0  0  0
   48.0932   35.4246   38.8362 H   0  0  0  0  0  0  0  0  0  0  0  0
   47.5635   36.1175   41.0858 H   0  0  0  0  0  0  0  0  0  0  0  0
   48.3498   34.7267   41.8243 H   0  0  0  0  0  0  0  0  0  0  0  0
  1  6  1  0
  2  3  1  0
  2  1  1  0
  3  4  1  0
  4  5  1  0
  6  5  1  0
  7  8  2  0
  7  1  1  0
  9  8  1  0
 10  9  2  0
 11 10  1  0
 11 12  2  0
 12  7  1  0
 13 14  1  0
 13 17  1  0
 13  2  1  0
 15 16  1  0
 15 14  1  0
 16 17  1  0
  1 18  1  1
  2 19  1  6
  3 20  1  0
  3 21  1  0
  4 22  1  0
  4 23  1  0
  5 24  1  0
  5 25  1  0
  6 26  1  0
  6 27  1  0
  8 28  1  0
  9 29  1  0
 11 30  1  0
 14 31  1  0
 14 32  1  0
 15 33  1  0
 15 34  1  0
 16 35  1  0
 16 36  1  0
 17 37  1  0
 17 38  1  0
M  ISO  8  18  13  19  13  20  13  21  13  22  13  23  13  24  13  25  13
M  ISO  8  26  13  27  13  28  14  29  14  30  14  31  13  32  13  33  13
M  ISO  5  34  13  35  13  36  13  37  13  38  13
M  END
>  <minimizedAffinity>  (1) 
-4.55574083

>  <minimizedRMSD>  (1) 
1.7462939

$$$$
