
     RDKit          3D

 23 24  0  0  1  0  0  0  0  0999 V2000
   44.5010   35.8580   44.5480 C   0  0  0  0  0  0  0  0  0  0  0  0
   45.1550   35.8740   43.2810 C   0  0  0  0  0  0  0  0  0  0  0  0
   46.1600   34.9190   43.0420 C   0  0  0  0  0  0  0  0  0  0  0  0
   46.4630   34.0300   44.0210 N   0  0  0  0  0  0  0  0  0  0  0  0
   45.8140   34.0450   45.2250 C   0  0  0  0  0  0  0  0  0  0  0  0
   44.8520   34.9490   45.4730 N   0  0  0  0  0  0  0  0  0  0  0  0
   46.4200   32.7720   46.3080 S   0  0  0  0  0  0  0  0  0  0  0  0
   44.6950   31.0110   47.3850 N   0  0  0  0  0  0  0  0  0  0  0  0
   45.3830   30.1520   48.3620 C   0  0  0  0  0  0  0  0  0  0  0  0
   45.3620   31.0850   49.5800 C   0  0  0  0  0  0  0  0  0  0  0  0
   45.9800   32.3220   48.9160 C   0  0  0  0  0  0  0  0  0  0  0  0
   45.2530   32.3280   47.5910 C   0  0  1  0  0  0  0  0  0  0  0  0
   43.7095   36.5895   44.7680 H   0  0  0  0  0  0  0  0  0  0  0  0
   44.8815   36.6119   42.5125 H   0  0  0  0  0  0  0  0  0  0  0  0
   46.6906   34.8936   42.0787 H   0  0  0  0  0  0  0  0  0  0  0  0
   43.6797   31.0163   47.5585 H   0  0  0  0  0  0  0  0  0  0  0  0
   44.8300   29.2198   48.5497 H   0  0  0  0  0  0  0  0  0  0  0  0
   46.3806   29.8029   48.0572 H   0  0  0  0  0  0  0  0  0  0  0  0
   44.3406   31.2736   49.9422 H   0  0  0  0  0  0  0  0  0  0  0  0
   45.8752   30.7143   50.4795 H   0  0  0  0  0  0  0  0  0  0  0  0
   45.7757   33.2356   49.4936 H   0  0  0  0  0  0  0  0  0  0  0  0
   47.0765   32.2932   48.8327 H   0  0  0  0  0  0  0  0  0  0  0  0
   44.4329   33.0609   47.5718 H   0  0  0  0  0  0  0  0  0  0  0  0
  1  6  2  0
  2  1  1  0
  3  2  2  0
  3  4  1  0
  4  5  2  0
  5  6  1  0
  5  7  1  0
  8 12  1  0
  8  9  1  0
  9 10  1  0
 11 10  1  0
 12  7  1  0
 12 11  1  0
  1 13  1  0
  2 14  1  0
  3 15  1  0
  8 16  1  0
  9 17  1  0
  9 18  1  0
 10 19  1  0
 10 20  1  0
 11 21  1  0
 11 22  1  0
 12 23  1  1
M  ISO  8  13  14  14  14  15  14  16   5  17  13  18  13  19  13  20  13
M  ISO  3  21  13  22  13  23  13
M  END
>  <minimizedAffinity>  (1) 
-4.67611504

>  <minimizedRMSD>  (1) 
1.14445734

$$$$
