
     RDKit          3D

 23 24  0  0  1  0  0  0  0  0999 V2000
   43.7720   30.1820   42.9270 C   0  0  0  0  0  0  0  0  0  0  0  0
   43.6910   31.4980   42.4320 C   0  0  0  0  0  0  0  0  0  0  0  0
   42.5510   31.9500   41.7850 C   0  0  0  0  0  0  0  0  0  0  0  0
   41.5240   31.0540   41.6600 N   0  0  0  0  0  0  0  0  0  0  0  0
   41.6160   29.8080   42.1360 C   0  0  0  0  0  0  0  0  0  0  0  0
   42.7120   29.3350   42.7700 N   0  0  0  0  0  0  0  0  0  0  0  0
   45.0970   32.6030   42.6470 S   0  0  0  0  0  0  0  0  0  0  0  0
   44.7730   34.5440   44.5040 N   0  0  0  0  0  0  0  0  0  0  0  0
   44.6230   35.9690   44.5560 C   0  0  0  0  0  0  0  0  0  0  0  0
   45.2090   36.4670   43.2520 C   0  0  0  0  0  0  0  0  0  0  0  0
   45.1950   35.3060   42.3000 C   0  0  0  0  0  0  0  0  0  0  0  0
   44.5050   34.2460   43.1110 C   0  0  1  0  0  0  0  0  0  0  0  0
   44.6838   29.8382   43.4372 H   0  0  0  0  0  0  0  0  0  0  0  0
   42.4760   32.9749   41.3928 H   0  0  0  0  0  0  0  0  0  0  0  0
   40.7566   29.1340   42.0051 H   0  0  0  0  0  0  0  0  0  0  0  0
   45.7278   34.2612   44.7673 H   0  0  0  0  0  0  0  0  0  0  0  0
   43.5609   36.2443   44.6338 H   0  0  0  0  0  0  0  0  0  0  0  0
   45.1245   36.4078   45.4312 H   0  0  0  0  0  0  0  0  0  0  0  0
   44.5997   37.2914   42.8531 H   0  0  0  0  0  0  0  0  0  0  0  0
   46.2312   36.8464   43.3975 H   0  0  0  0  0  0  0  0  0  0  0  0
   46.2159   34.9999   42.0278 H   0  0  0  0  0  0  0  0  0  0  0  0
   44.7005   35.5238   41.3419 H   0  0  0  0  0  0  0  0  0  0  0  0
   43.4204   34.2439   42.9274 H   0  0  0  0  0  0  0  0  0  0  0  0
  2  7  1  0
  2  1  2  0
  3  2  1  0
  4  3  2  0
  4  5  1  0
  5  6  2  0
  6  1  1  0
  8  9  1  0
 10  9  1  0
 11 12  1  0
 11 10  1  0
 12  7  1  0
 12  8  1  0
  1 13  1  0
  3 14  1  0
  5 15  1  0
  8 16  1  0
  9 17  1  0
  9 18  1  0
 10 19  1  0
 10 20  1  0
 11 21  1  0
 11 22  1  0
 12 23  1  1
M  ISO  8  13  14  14  14  15  14  16   5  17  13  18  13  19  13  20  13
M  ISO  3  21  13  22  13  23  13
M  END
>  <minimizedAffinity>  (1) 
-2.8771143

>  <minimizedRMSD>  (1) 
4.96603537

$$$$
