
     RDKit          3D

 23 24  0  0  1  0  0  0  0  0999 V2000
   44.6630   36.2020   44.4940 C   0  0  0  0  0  0  0  0  0  0  0  0
   45.2650   36.1360   43.2260 C   0  0  0  0  0  0  0  0  0  0  0  0
   45.9360   34.9600   42.8690 C   0  0  0  0  0  0  0  0  0  0  0  0
   45.9670   33.9520   43.7650 N   0  0  0  0  0  0  0  0  0  0  0  0
   45.3800   34.0330   44.9840 C   0  0  0  0  0  0  0  0  0  0  0  0
   44.7270   35.1730   45.3350 N   0  0  0  0  0  0  0  0  0  0  0  0
   46.5680   34.7640   41.6590 O   0  0  0  0  0  0  0  0  0  0  0  0
   48.5870   34.9240   40.5360 N   0  0  0  0  0  0  0  0  0  0  0  0
   49.1200   36.0180   41.3670 C   0  0  0  0  0  0  0  0  0  0  0  0
   49.7750   35.1920   42.4620 C   0  0  0  0  0  0  0  0  0  0  0  0
   48.6350   34.2520   42.8150 C   0  0  0  0  0  0  0  0  0  0  0  0
   47.8360   34.1790   41.5320 C   0  0  1  0  0  0  0  0  0  0  0  0
   44.1316   37.1168   44.7954 H   0  0  0  0  0  0  0  0  0  0  0  0
   45.2105   36.9870   42.5311 H   0  0  0  0  0  0  0  0  0  0  0  0
   45.4313   33.1848   45.6826 H   0  0  0  0  0  0  0  0  0  0  0  0
   47.9767   35.2786   39.7859 H   0  0  0  0  0  0  0  0  0  0  0  0
   49.8514   36.6316   40.8206 H   0  0  0  0  0  0  0  0  0  0  0  0
   48.3781   36.7537   41.7109 H   0  0  0  0  0  0  0  0  0  0  0  0
   50.6527   34.6443   42.0882 H   0  0  0  0  0  0  0  0  0  0  0  0
   50.1665   35.7772   43.3071 H   0  0  0  0  0  0  0  0  0  0  0  0
   49.0157   33.2599   43.0994 H   0  0  0  0  0  0  0  0  0  0  0  0
   48.0410   34.5983   43.6736 H   0  0  0  0  0  0  0  0  0  0  0  0
   47.6844   33.1242   41.2593 H   0  0  0  0  0  0  0  0  0  0  0  0
  1  6  2  0
  2  1  1  0
  3  2  2  0
  3  4  1  0
  4  5  2  0
  5  6  1  0
  7  3  1  0
  8  9  1  0
  8 12  1  0
  9 10  1  0
 10 11  1  0
 12  7  1  0
 12 11  1  0
  1 13  1  0
  2 14  1  0
  5 15  1  0
  8 16  1  0
  9 17  1  0
  9 18  1  0
 10 19  1  0
 10 20  1  0
 11 21  1  0
 11 22  1  0
 12 23  1  6
M  ISO  8  13  14  14  14  15  14  16   5  17  13  18  13  19  13  20  13
M  ISO  3  21  13  22  13  23  13
M  END
>  <minimizedAffinity>  (1) 
-4.5831728

>  <minimizedRMSD>  (1) 
1.73732603

$$$$
