
     RDKit          3D

 29 30  0  0  1  0  0  0  0  0999 V2000
   45.6440   34.6060   44.3160 C   0  0  0  0  0  0  0  0  0  0  0  0
   45.2860   34.3610   45.6180 C   0  0  0  0  0  0  0  0  0  0  0  0
   45.9610   33.3270   46.2460 C   0  0  0  0  0  0  0  0  0  0  0  0
   46.8950   32.6580   45.5440 N   0  0  0  0  0  0  0  0  0  0  0  0
   47.2180   32.9260   44.2750 C   0  0  0  0  0  0  0  0  0  0  0  0
   46.5840   33.9260   43.6240 N   0  0  0  0  0  0  0  0  0  0  0  0
   44.1710   35.0240   42.5310 C   0  0  0  0  0  0  0  0  0  0  0  0
   44.1350   33.7730   42.6580 O   0  0  0  0  0  0  0  0  0  0  0  0
   45.0630   35.6390   43.4660 N   0  0  0  0  0  0  0  0  0  0  0  0
   43.4600   35.8030   41.6130 O   0  0  0  0  0  0  0  0  0  0  0  0
   41.2180   36.2900   41.3650 N   0  0  0  0  0  0  0  0  0  0  0  0
   40.0960   35.7500   40.6170 C   0  0  0  0  0  0  0  0  0  0  0  0
   40.7290   35.4510   39.2840 C   0  0  0  0  0  0  0  0  0  0  0  0
   42.2210   35.2800   39.5760 C   0  0  0  0  0  0  0  0  0  0  0  0
   42.2350   35.2750   41.0780 C   0  0  1  0  0  0  0  0  0  0  0  0
   44.2840   35.1730   46.1760 N   0  0  0  0  0  0  0  0  0  0  0  0
   45.7399   33.0598   47.2899 H   0  0  0  0  0  0  0  0  0  0  0  0
   47.9941   32.3369   43.7645 H   0  0  0  0  0  0  0  0  0  0  0  0
   45.2623   36.6476   43.5285 H   0  0  0  0  0  0  0  0  0  0  0  0
   41.4969   37.2184   41.0168 H   0  0  0  0  0  0  0  0  0  0  0  0
   39.7034   34.8366   41.0877 H   0  0  0  0  0  0  0  0  0  0  0  0
   39.2325   36.4289   40.5576 H   0  0  0  0  0  0  0  0  0  0  0  0
   40.5661   36.2841   38.5844 H   0  0  0  0  0  0  0  0  0  0  0  0
   40.2968   34.5541   38.8163 H   0  0  0  0  0  0  0  0  0  0  0  0
   42.6042   34.3332   39.1677 H   0  0  0  0  0  0  0  0  0  0  0  0
   42.8575   36.0554   39.1247 H   0  0  0  0  0  0  0  0  0  0  0  0
   42.0935   34.2643   41.4884 H   0  0  0  0  0  0  0  0  0  0  0  0
   43.9839   35.0246   47.1501 H   0  0  0  0  0  0  0  0  0  0  0  0
   43.8497   35.9166   45.6109 H   0  0  0  0  0  0  0  0  0  0  0  0
  1  2  2  0
  2 16  1  0
  2  3  1  0
  4  3  2  0
  5  4  1  0
  6  5  2  0
  6  1  1  0
  7  8  2  0
  7  9  1  0
  9  1  1  0
 10  7  1  0
 12 11  1  0
 13 14  1  0
 13 12  1  0
 14 15  1  0
 15 11  1  0
 15 10  1  0
  3 17  1  0
  5 18  1  0
  9 19  1  0
 11 20  1  0
 12 21  1  0
 12 22  1  0
 13 23  1  0
 13 24  1  0
 14 25  1  0
 14 26  1  0
 15 27  1  1
 16 28  1  0
 16 29  1  0
M  ISO  8  17  14  18  14  20   5  21  13  22  13  23  13  24  13  25  13
M  ISO  2  26  13  27  13
M  END
>  <minimizedAffinity>  (1) 
-5.31026745

>  <minimizedRMSD>  (1) 
0.483297378

$$$$
