
     RDKit          3D

 33 35  0  0  1  0  0  0  0  0999 V2000
   44.6960   33.0650   41.2230 Br  0  0  0  0  0  0  0  0  0  0  0  0
   46.3600   33.9910   40.9960 C   0  0  0  0  0  0  0  0  0  0  0  0
   46.8750   34.7510   42.0310 C   0  0  0  0  0  0  0  0  0  0  0  0
   48.0780   35.4260   41.8780 C   0  0  0  0  0  0  0  0  0  0  0  0
   48.7360   35.3170   40.6830 C   0  0  0  0  0  0  0  0  0  0  0  0
   48.2000   34.5560   39.6780 C   0  0  0  0  0  0  0  0  0  0  0  0
   47.0230   33.8820   39.7950 C   0  0  0  0  0  0  0  0  0  0  0  0
   45.6830   33.9280   45.3820 C   0  0  0  0  0  0  0  0  0  0  0  0
   44.7350   34.9440   45.6530 C   0  0  0  0  0  0  0  0  0  0  0  0
   44.5220   35.9080   44.6580 C   0  0  0  0  0  0  0  0  0  0  0  0
   45.2320   35.8070   43.5110 N   0  0  0  0  0  0  0  0  0  0  0  0
   46.1300   34.8290   43.2750 C   0  0  0  0  0  0  0  0  0  0  0  0
   46.3510   33.8860   44.2260 N   0  0  0  0  0  0  0  0  0  0  0  0
   47.1760   33.1490   37.4090 C   0  0  1  0  0  0  0  0  0  0  0  0
   46.4400   33.0670   38.7330 C   0  0  2  0  0  0  0  0  0  0  0  0
   45.1610   33.4150   38.3380 O   0  0  0  0  0  0  0  0  0  0  0  0
   44.9310   32.4590   37.3240 C   0  0  0  0  0  0  0  0  0  0  0  0
   46.2060   32.3450   36.5450 C   0  0  2  0  0  0  0  0  0  0  0  0
   47.1450   34.4460   36.8910 O   0  0  0  0  0  0  0  0  0  0  0  0
   46.6780   31.0260   36.5320 O   0  0  0  0  0  0  0  0  0  0  0  0
   48.4921   36.0332   42.6965 H   0  0  0  0  0  0  0  0  0  0  0  0
   49.6922   35.8388   40.5300 H   0  0  0  0  0  0  0  0  0  0  0  0
   48.7490   34.4859   38.7274 H   0  0  0  0  0  0  0  0  0  0  0  0
   45.8739   33.1552   46.1411 H   0  0  0  0  0  0  0  0  0  0  0  0
   44.1874   34.9756   46.6065 H   0  0  0  0  0  0  0  0  0  0  0  0
   43.7983   36.7232   44.8056 H   0  0  0  0  0  0  0  0  0  0  0  0
   48.2267   32.8288   37.4675 H   0  0  0  0  0  0  0  0  0  0  0  0
   46.4859   32.0836   39.2237 H   0  0  0  0  0  0  0  0  0  0  0  0
   44.6708   31.4878   37.7702 H   0  0  0  0  0  0  0  0  0  0  0  0
   44.0959   32.7622   36.6754 H   0  0  0  0  0  0  0  0  0  0  0  0
   46.0887   32.6737   35.5018 H   0  0  0  0  0  0  0  0  0  0  0  0
   47.1294   35.0984   37.6355 H   0  0  0  0  0  0  0  0  0  0  0  0
   46.7921   30.7072   37.4623 H   0  0  0  0  0  0  0  0  0  0  0  0
  2  1  1  0
  2  3  2  0
  3 12  1  0
  4  3  1  0
  5  4  2  0
  6  7  2  0
  6  5  1  0
  7  2  1  0
  8  9  2  0
 10  9  1  0
 11 10  2  0
 12 11  1  0
 12 13  2  0
 13  8  1  0
 14 19  1  0
 14 15  1  0
 15  7  1  0
 16 15  1  0
 17 16  1  0
 18 20  1  0
 18 17  1  0
 18 14  1  0
  4 21  1  0
  5 22  1  0
  6 23  1  0
  8 24  1  0
  9 25  1  0
 10 26  1  0
 14 27  1  1
 15 28  1  1
 17 29  1  0
 17 30  1  0
 18 31  1  6
 19 32  1  0
 20 33  1  0
M  ISO  8  21  14  22  14  23  14  24  14  25  14  26  14  27  13  28  13
M  ISO  5  29  13  30  13  31  13  32   3  33   3
M  END
>  <minimizedAffinity>  (1) 
-6.29619646

>  <minimizedRMSD>  (1) 
0.552249789

$$$$
