
     RDKit          3D

 49 52  0  0  1  0  0  0  0  0999 V2000
   44.7520   35.0220   45.2680 C   0  0  0  0  0  0  0  0  0  0  0  0
   45.5310   34.9180   44.1110 C   0  0  0  0  0  0  0  0  0  0  0  0
   46.5200   33.9420   44.0490 C   0  0  0  0  0  0  0  0  0  0  0  0
   46.6530   33.1430   45.1540 N   0  0  0  0  0  0  0  0  0  0  0  0
   45.8760   33.2780   46.2550 C   0  0  0  0  0  0  0  0  0  0  0  0
   44.9240   34.2200   46.3090 N   0  0  0  0  0  0  0  0  0  0  0  0
   47.3820   33.7210   42.9490 N   0  0  0  0  0  0  0  0  0  0  0  0
   46.9590   32.8940   41.8290 C   0  0  0  0  0  0  0  0  0  0  0  0
   48.1350   32.3810   41.0390 C   0  0  0  0  0  0  0  0  0  0  0  0
   49.0580   33.3590   40.6600 N   0  0  0  0  0  0  0  0  0  0  0  0
   49.3090   34.4030   41.5910 C   0  0  2  0  0  0  0  0  0  0  0  0
   48.6890   34.3120   42.9270 C   0  0  0  0  0  0  0  0  0  0  0  0
   48.8620   35.7100   40.9640 C   0  0  0  0  0  0  0  0  0  0  0  0
   49.6570   36.7590   41.4240 F   0  0  0  0  0  0  0  0  0  0  0  0
   47.5960   35.9520   41.4500 F   0  0  0  0  0  0  0  0  0  0  0  0
   48.9130   35.7100   39.5980 F   0  0  0  0  0  0  0  0  0  0  0  0
   46.0890   32.3780   47.3870 C   0  0  0  0  0  0  0  0  0  0  0  0
   45.0710   32.1790   48.2950 C   0  0  0  0  0  0  0  0  0  0  0  0
   45.2920   31.3180   49.3690 C   0  0  0  0  0  0  0  0  0  0  0  0
   46.5440   30.7300   49.4240 C   0  0  0  0  0  0  0  0  0  0  0  0
   47.5590   30.9200   48.5320 C   0  0  0  0  0  0  0  0  0  0  0  0
   47.3030   31.7670   47.4980 N   0  0  0  0  0  0  0  0  0  0  0  0
   49.3970   30.2770   50.0860 C   0  0  1  0  0  0  0  0  0  0  0  0
   48.8530   30.2660   48.6530 C   0  0  1  0  0  0  0  0  0  0  0  0
   48.8070   28.8900   48.4400 O   0  0  0  0  0  0  0  0  0  0  0  0
   50.0750   28.4420   48.7910 C   0  0  0  0  0  0  0  0  0  0  0  0
   50.5610   29.3220   49.9100 C   0  0  2  0  0  0  0  0  0  0  0  0
   49.8020   31.5320   50.4910 O   0  0  0  0  0  0  0  0  0  0  0  0
   50.8250   28.6050   51.0720 O   0  0  0  0  0  0  0  0  0  0  0  0
   43.9708   35.7950   45.3155 H   0  0  0  0  0  0  0  0  0  0  0  0
   45.3640   35.5980   43.2627 H   0  0  0  0  0  0  0  0  0  0  0  0
   46.3876   32.0368   42.2147 H   0  0  0  0  0  0  0  0  0  0  0  0
   46.3408   33.5118   41.1611 H   0  0  0  0  0  0  0  0  0  0  0  0
   48.6602   31.6345   41.6530 H   0  0  0  0  0  0  0  0  0  0  0  0
   47.7242   31.9653   40.1071 H   0  0  0  0  0  0  0  0  0  0  0  0
   49.9539   32.8858   40.4744 H   0  0  0  0  0  0  0  0  0  0  0  0
   50.3882   34.3239   41.7884 H   0  0  0  0  0  0  0  0  0  0  0  0
   49.3476   33.7081   43.5686 H   0  0  0  0  0  0  0  0  0  0  0  0
   48.5650   35.3465   43.2799 H   0  0  0  0  0  0  0  0  0  0  0  0
   44.1039   32.6892   48.1746 H   0  0  0  0  0  0  0  0  0  0  0  0
   44.5192   31.1182   50.1259 H   0  0  0  0  0  0  0  0  0  0  0  0
   46.7385   30.0468   50.2639 H   0  0  0  0  0  0  0  0  0  0  0  0
   48.6714   29.9971   50.8639 H   0  0  0  0  0  0  0  0  0  0  0  0
   49.4503   30.8249   47.9175 H   0  0  0  0  0  0  0  0  0  0  0  0
   50.0258   27.3960   49.1278 H   0  0  0  0  0  0  0  0  0  0  0  0
   50.7589   28.4890   47.9307 H   0  0  0  0  0  0  0  0  0  0  0  0
   51.5163   29.8209   49.6897 H   0  0  0  0  0  0  0  0  0  0  0  0
   49.8147   31.5714   51.4801 H   0  0  0  0  0  0  0  0  0  0  0  0
   50.6182   29.1667   51.8605 H   0  0  0  0  0  0  0  0  0  0  0  0
  1  6  2  0
  2  1  1  0
  3  2  2  0
  3  4  1  0
  4  5  2  0
  5  6  1  0
  5 17  1  0
  7  3  1  0
  8  7  1  0
  9  8  1  0
 10  9  1  0
 10 11  1  0
 11 12  1  0
 12  7  1  0
 13 14  1  0
 13 15  1  0
 13 11  1  0
 16 13  1  0
 17 22  1  0
 17 18  2  0
 18 19  1  0
 19 20  2  0
 21 20  1  0
 22 21  2  0
 23 28  1  0
 24 21  1  0
 24 23  1  0
 25 24  1  0
 25 26  1  0
 26 27  1  0
 27 23  1  0
 27 29  1  0
  1 30  1  0
  2 31  1  0
  8 32  1  0
  8 33  1  0
  9 34  1  0
  9 35  1  0
 10 36  1  0
 11 37  1  1
 12 38  1  0
 12 39  1  0
 18 40  1  0
 19 41  1  0
 20 42  1  0
 23 43  1  1
 24 44  1  6
 26 45  1  0
 26 46  1  0
 27 47  1  6
 28 48  1  0
 29 49  1  0
M  END
>  <minimizedAffinity>  (1) 
-7.54544878

>  <minimizedRMSD>  (1) 
0.357441068

$$$$
