
     RDKit          3D

 36 39  0  0  1  0  0  0  0  0999 V2000
   47.2460   31.3830   45.1760 C   0  0  0  0  0  0  0  0  0  0  0  0
   46.8660   32.7070   45.1410 C   0  0  0  0  0  0  0  0  0  0  0  0
   46.2370   33.3160   46.2160 C   0  0  0  0  0  0  0  0  0  0  0  0
   45.9650   32.6040   47.3820 C   0  0  0  0  0  0  0  0  0  0  0  0
   45.3910   32.8580   48.5800 N   0  0  0  0  0  0  0  0  0  0  0  0
   45.4200   31.7200   49.3230 C   0  0  0  0  0  0  0  0  0  0  0  0
   46.0180   30.7680   48.5690 N   0  0  0  0  0  0  0  0  0  0  0  0
   46.3600   31.2880   47.3730 C   0  0  0  0  0  0  0  0  0  0  0  0
   46.9860   30.6450   46.3300 C   0  0  0  0  0  0  0  0  0  0  0  0
   46.4950   35.1890   42.4490 C   0  0  0  0  0  0  0  0  0  0  0  0
   47.6780   35.0140   41.7220 C   0  0  0  0  0  0  0  0  0  0  0  0
   48.5950   34.0480   42.1570 C   0  0  0  0  0  0  0  0  0  0  0  0
   48.2590   33.3410   43.2740 N   0  0  0  0  0  0  0  0  0  0  0  0
   47.1130   33.5230   43.9630 C   0  0  0  0  0  0  0  0  0  0  0  0
   46.2340   34.4440   43.5530 N   0  0  0  0  0  0  0  0  0  0  0  0
   46.3900   28.4140   47.2020 C   0  0  2  0  0  0  0  0  0  0  0  0
   47.3770   29.2390   46.3950 C   0  0  2  0  0  0  0  0  0  0  0  0
   48.5510   29.0280   47.1160 O   0  0  0  0  0  0  0  0  0  0  0  0
   48.6070   27.6910   47.4170 C   0  0  0  0  0  0  0  0  0  0  0  0
   47.2010   27.1440   47.3790 C   0  0  1  0  0  0  0  0  0  0  0  0
   45.1910   28.1990   46.5450 O   0  0  0  0  0  0  0  0  0  0  0  0
   46.8620   26.4770   48.5510 O   0  0  0  0  0  0  0  0  0  0  0  0
   47.7438   30.9183   44.3121 H   0  0  0  0  0  0  0  0  0  0  0  0
   45.9489   34.3754   46.1473 H   0  0  0  0  0  0  0  0  0  0  0  0
   44.9979   33.7618   48.8791 H   0  0  0  0  0  0  0  0  0  0  0  0
   45.0309   31.5961   50.3444 H   0  0  0  0  0  0  0  0  0  0  0  0
   45.7646   35.9429   42.1202 H   0  0  0  0  0  0  0  0  0  0  0  0
   47.8835   35.6217   40.8284 H   0  0  0  0  0  0  0  0  0  0  0  0
   49.5401   33.8685   41.6235 H   0  0  0  0  0  0  0  0  0  0  0  0
   46.0554   28.8863   48.1374 H   0  0  0  0  0  0  0  0  0  0  0  0
   47.4565   28.9563   45.3349 H   0  0  0  0  0  0  0  0  0  0  0  0
   49.2310   27.1679   46.6774 H   0  0  0  0  0  0  0  0  0  0  0  0
   49.0476   27.5423   48.4139 H   0  0  0  0  0  0  0  0  0  0  0  0
   47.0406   26.3912   46.5932 H   0  0  0  0  0  0  0  0  0  0  0  0
   44.4690   28.0695   47.2099 H   0  0  0  0  0  0  0  0  0  0  0  0
   47.1380   27.0200   49.3314 H   0  0  0  0  0  0  0  0  0  0  0  0
  1  9  2  0
  2  1  1  0
  2  3  2  0
  3  4  1  0
  4  5  1  0
  5  6  1  0
  7  6  2  0
  8  4  2  0
  8  7  1  0
  9  8  1  0
 10 15  2  0
 11 12  2  0
 11 10  1  0
 12 13  1  0
 13 14  2  0
 14  2  1  0
 15 14  1  0
 16 21  1  0
 16 20  1  0
 17  9  1  0
 17 18  1  0
 17 16  1  0
 18 19  1  0
 20 19  1  0
 20 22  1  0
  1 23  1  0
  3 24  1  0
  5 25  1  0
  6 26  1  0
 10 27  1  0
 11 28  1  0
 12 29  1  0
 16 30  1  1
 17 31  1  6
 19 32  1  0
 19 33  1  0
 20 34  1  6
 21 35  1  0
 22 36  1  0
M  ISO  8  23  14  24  14  25   9  26  14  27  14  28  14  29  14  30  13
M  ISO  6  31  13  32  13  33  13  34  13  35   3  36   3
M  END
>  <minimizedAffinity>  (1) 
-5.834373

>  <minimizedRMSD>  (1) 
0.930889428

$$$$
