
     RDKit          3D

 51 54  0  0  1  0  0  0  0  0999 V2000
   46.1310   34.7850   44.0230 C   0  0  1  0  0  0  0  0  0  0  0  0
   44.8710   34.5190   44.5640 C   0  0  0  0  0  0  0  0  0  0  0  0
   45.9900   33.8930   45.2910 C   0  0  1  0  0  0  0  0  0  0  0  0
   45.8560   33.5770   41.8560 C   0  0  0  0  0  0  0  0  0  0  0  0
   46.7480   34.1380   42.8260 C   0  0  0  0  0  0  0  0  0  0  0  0
   48.0910   34.0650   42.6340 C   0  0  0  0  0  0  0  0  0  0  0  0
   48.5240   33.4400   41.4910 N   0  0  0  0  0  0  0  0  0  0  0  0
   47.6660   32.9120   40.5760 C   0  0  0  0  0  0  0  0  0  0  0  0
   46.3070   32.9670   40.7370 N   0  0  0  0  0  0  0  0  0  0  0  0
   47.9910   33.0270   38.1050 C   0  0  2  0  0  0  0  0  0  0  0  0
   48.2210   32.2540   39.3680 C   0  0  1  0  0  0  0  0  0  0  0  0
   49.5880   32.1550   39.5250 O   0  0  0  0  0  0  0  0  0  0  0  0
   50.0230   31.8240   38.2430 C   0  0  0  0  0  0  0  0  0  0  0  0
   49.2450   32.7390   37.3260 C   0  0  2  0  0  0  0  0  0  0  0  0
   47.8410   34.3960   38.3340 O   0  0  0  0  0  0  0  0  0  0  0  0
   49.9650   33.9120   37.1420 O   0  0  0  0  0  0  0  0  0  0  0  0
   46.2340   32.4330   45.1790 C   0  0  0  0  0  0  0  0  0  0  0  0
   45.8760   31.8520   46.4250 N   0  0  0  0  0  0  0  0  0  0  0  0
   46.1470   32.5760   47.5920 C   0  0  0  0  0  0  0  0  0  0  0  0
   47.5450   32.2430   48.1500 C   0  0  0  0  0  0  0  0  0  0  0  0
   47.4850   30.8200   48.6280 C   0  0  0  0  0  0  0  0  0  0  0  0
   47.1640   29.9780   47.4120 C   0  0  0  0  0  0  0  0  0  0  0  0
   46.0000   30.4680   46.5980 C   0  0  2  0  0  0  0  0  0  0  0  0
   46.0550   29.7310   45.2660 C   0  0  0  0  0  0  0  0  0  0  0  0
   46.5902   35.7328   43.7056 H   0  0  0  0  0  0  0  0  0  0  0  0
   44.3130   35.3362   45.0444 H   0  0  0  0  0  0  0  0  0  0  0  0
   43.9464   34.1114   44.1292 H   0  0  0  0  0  0  0  0  0  0  0  0
   46.3667   33.8824   46.3244 H   0  0  0  0  0  0  0  0  0  0  0  0
   44.7714   33.6445   42.0266 H   0  0  0  0  0  0  0  0  0  0  0  0
   48.7995   34.4877   43.3616 H   0  0  0  0  0  0  0  0  0  0  0  0
   47.0631   32.7388   37.5893 H   0  0  0  0  0  0  0  0  0  0  0  0
   47.7139   31.2823   39.2746 H   0  0  0  0  0  0  0  0  0  0  0  0
   51.1039   32.0014   38.1422 H   0  0  0  0  0  0  0  0  0  0  0  0
   49.8584   30.7619   38.0088 H   0  0  0  0  0  0  0  0  0  0  0  0
   49.0453   32.3083   36.3337 H   0  0  0  0  0  0  0  0  0  0  0  0
   47.8222   34.5674   39.3089 H   0  0  0  0  0  0  0  0  0  0  0  0
   50.2008   34.2962   38.0234 H   0  0  0  0  0  0  0  0  0  0  0  0
   45.6169   32.0082   44.3736 H   0  0  0  0  0  0  0  0  0  0  0  0
   47.2886   32.2298   44.9413 H   0  0  0  0  0  0  0  0  0  0  0  0
   46.0993   33.6513   47.3650 H   0  0  0  0  0  0  0  0  0  0  0  0
   45.3981   32.3029   48.3500 H   0  0  0  0  0  0  0  0  0  0  0  0
   48.3040   32.3472   47.3607 H   0  0  0  0  0  0  0  0  0  0  0  0
   47.8205   32.9260   48.9670 H   0  0  0  0  0  0  0  0  0  0  0  0
   48.4536   30.5200   49.0544 H   0  0  0  0  0  0  0  0  0  0  0  0
   46.7262   30.6934   49.4142 H   0  0  0  0  0  0  0  0  0  0  0  0
   48.0523   29.9603   46.7634 H   0  0  0  0  0  0  0  0  0  0  0  0
   46.8828   28.9834   47.7885 H   0  0  0  0  0  0  0  0  0  0  0  0
   45.0896   30.2431   47.1730 H   0  0  0  0  0  0  0  0  0  0  0  0
   46.1357   28.6493   45.4485 H   0  0  0  0  0  0  0  0  0  0  0  0
   45.1388   29.9389   44.6938 H   0  0  0  0  0  0  0  0  0  0  0  0
   46.9301   30.0726   44.6938 H   0  0  0  0  0  0  0  0  0  0  0  0
  1  2  1  0
  1  3  1  0
  2  3  1  0
  4  5  2  0
  5  1  1  0
  6  5  1  0
  7  6  2  0
  8  9  2  0
  8  7  1  0
  9  4  1  0
 10 15  1  0
 10 11  1  0
 11 12  1  0
 11  8  1  0
 13 12  1  0
 14 16  1  0
 14 10  1  0
 14 13  1  0
 17  3  1  0
 17 18  1  0
 18 23  1  0
 18 19  1  0
 19 20  1  0
 20 21  1  0
 22 21  1  0
 23 22  1  0
 24 23  1  0
  1 25  1  1
  2 26  1  0
  2 27  1  0
  3 28  1  1
  4 29  1  0
  6 30  1  0
 10 31  1  6
 11 32  1  6
 13 33  1  0
 13 34  1  0
 14 35  1  6
 15 36  1  0
 16 37  1  0
 17 38  1  0
 17 39  1  0
 19 40  1  0
 19 41  1  0
 20 42  1  0
 20 43  1  0
 21 44  1  0
 21 45  1  0
 22 46  1  0
 22 47  1  0
 23 48  1  1
 24 49  1  0
 24 50  1  0
 24 51  1  0
M  ISO  8  25  13  26  13  27  13  28  13  29  14  30  14  31  13  32  13
M  ISO  8  33  13  34  13  35  13  36   3  37   3  38   8  39   8  40  13
M  ISO  8  41  13  42  13  43  13  44  13  45  13  46  13  47  13  48  13
M  ISO  3  49   8  50   8  51   8
M  END
>  <minimizedAffinity>  (1) 
-5.14266157

>  <minimizedRMSD>  (1) 
2.32940769

$$$$
