
     RDKit          3D

 46 49  0  0  1  0  0  0  0  0999 V2000
   43.7150   32.3860   40.4280 C   0  0  1  0  0  0  0  0  0  0  0  0
   44.6160   31.4750   39.4900 C   0  0  0  0  0  0  0  0  0  0  0  0
   43.7740   30.9940   38.3390 C   0  0  0  0  0  0  0  0  0  0  0  0
   42.7330   29.9960   38.7890 C   0  0  0  0  0  0  0  0  0  0  0  0
   42.2860   30.3460   40.1760 C   0  0  0  0  0  0  0  0  0  0  0  0
   42.3540   31.8150   40.4650 C   0  0  2  0  0  0  0  0  0  0  0  0
   44.4270   32.3920   41.7440 C   0  0  0  0  0  0  0  0  0  0  0  0
   44.9200   33.4660   42.4410 C   0  0  0  0  0  0  0  0  0  0  0  0
   45.4950   33.1690   43.6800 C   0  0  0  0  0  0  0  0  0  0  0  0
   45.5380   31.8740   44.1270 N   0  0  0  0  0  0  0  0  0  0  0  0
   45.0360   30.8680   43.4010 C   0  0  0  0  0  0  0  0  0  0  0  0
   44.4780   31.1510   42.1970 N   0  0  0  0  0  0  0  0  0  0  0  0
   44.9620   34.8700   41.9230 C   0  0  0  0  0  0  0  0  0  0  0  0
   43.7040   35.6380   42.1360 C   0  0  0  0  0  0  0  0  0  0  0  0
   44.9480   35.9980   42.9300 C   0  0  0  0  0  0  0  0  0  0  0  0
   39.9440   32.1140   39.7520 C   0  0  1  0  0  0  0  0  0  0  0  0
   41.3250   32.6480   39.7650 C   0  0  1  0  0  0  0  0  0  0  0  0
   41.1460   33.8170   40.5440 O   0  0  0  0  0  0  0  0  0  0  0  0
   40.3180   33.4890   41.5920 C   0  0  0  0  0  0  0  0  0  0  0  0
   39.3450   32.4410   41.0900 C   0  0  1  0  0  0  0  0  0  0  0  0
   39.2320   32.8500   38.7780 O   0  0  0  0  0  0  0  0  0  0  0  0
   38.0810   33.0210   40.9590 O   0  0  0  0  0  0  0  0  0  0  0  0
   43.5833   33.4236   40.0875 H   0  0  0  0  0  0  0  0  0  0  0  0
   45.4654   32.0609   39.1089 H   0  0  0  0  0  0  0  0  0  0  0  0
   45.0031   30.6163   40.0582 H   0  0  0  0  0  0  0  0  0  0  0  0
   44.4275   30.5165   37.5940 H   0  0  0  0  0  0  0  0  0  0  0  0
   43.2540   31.8619   37.9075 H   0  0  0  0  0  0  0  0  0  0  0  0
   41.8719   30.0282   38.1053 H   0  0  0  0  0  0  0  0  0  0  0  0
   43.1628   28.9835   38.7824 H   0  0  0  0  0  0  0  0  0  0  0  0
   41.2454   30.0126   40.3026 H   0  0  0  0  0  0  0  0  0  0  0  0
   42.9691   29.8430   40.8763 H   0  0  0  0  0  0  0  0  0  0  0  0
   42.0614   31.8725   41.5238 H   0  0  0  0  0  0  0  0  0  0  0  0
   45.9141   33.9768   44.2979 H   0  0  0  0  0  0  0  0  0  0  0  0
   45.0749   29.8334   43.7726 H   0  0  0  0  0  0  0  0  0  0  0  0
   45.6137   34.6307   41.0697 H   0  0  0  0  0  0  0  0  0  0  0  0
   43.3365   36.3178   41.3532 H   0  0  0  0  0  0  0  0  0  0  0  0
   42.6680   35.3737   42.3947 H   0  0  0  0  0  0  0  0  0  0  0  0
   44.9996   35.7790   44.0067 H   0  0  0  0  0  0  0  0  0  0  0  0
   45.5379   36.9122   43.0922 H   0  0  0  0  0  0  0  0  0  0  0  0
   39.9145   31.0340   39.5453 H   0  0  0  0  0  0  0  0  0  0  0  0
   41.7042   32.7412   38.7366 H   0  0  0  0  0  0  0  0  0  0  0  0
   40.9097   33.0838   42.4261 H   0  0  0  0  0  0  0  0  0  0  0  0
   39.7795   34.3772   41.9542 H   0  0  0  0  0  0  0  0  0  0  0  0
   39.2105   31.5613   41.7366 H   0  0  0  0  0  0  0  0  0  0  0  0
   38.6185   33.4842   39.2269 H   0  0  0  0  0  0  0  0  0  0  0  0
   37.7028   33.1945   41.8573 H   0  0  0  0  0  0  0  0  0  0  0  0
  1  6  1  0
  1  7  1  0
  2  1  1  0
  3  4  1  0
  3  2  1  0
  4  5  1  0
  5  6  1  0
  7 12  2  0
  7  8  1  0
  8  9  2  0
  9 10  1  0
 11 10  2  0
 12 11  1  0
 13 14  1  0
 13  8  1  0
 13 15  1  0
 14 15  1  0
 16 21  1  0
 16 17  1  0
 16 20  1  0
 17  6  1  0
 17 18  1  0
 18 19  1  0
 20 22  1  0
 20 19  1  0
  1 23  1  6
  2 24  1  0
  2 25  1  0
  3 26  1  0
  3 27  1  0
  4 28  1  0
  4 29  1  0
  5 30  1  0
  5 31  1  0
  6 32  1  1
  9 33  1  0
 11 34  1  0
 13 35  1  0
 14 36  1  0
 14 37  1  0
 15 38  1  0
 15 39  1  0
 16 40  1  6
 17 41  1  6
 19 42  1  0
 19 43  1  0
 20 44  1  1
 21 45  1  0
 22 46  1  0
M  ISO  8  23  13  24  13  25  13  26  13  27  13  28  13  29  13  30  13
M  ISO  8  31  13  32  13  33  14  34  14  35  13  36  13  37  13  38  13
M  ISO  8  39  13  40  13  41  13  42  13  43  13  44  13  45   3  46   3
M  END
>  <minimizedAffinity>  (1) 
-4.26857185

>  <minimizedRMSD>  (1) 
4.47650242

$$$$
