
     RDKit          3D

 36 38  0  0  1  0  0  0  0  0999 V2000
   45.4220   30.0070   44.6140 Br  0  0  0  0  0  0  0  0  0  0  0  0
   45.9040   30.7750   46.3240 C   0  0  0  0  0  0  0  0  0  0  0  0
   46.6310   31.9330   46.2850 C   0  0  0  0  0  0  0  0  0  0  0  0
   46.9600   32.4550   47.5410 C   0  0  0  0  0  0  0  0  0  0  0  0
   46.5870   31.8650   48.7340 C   0  0  0  0  0  0  0  0  0  0  0  0
   45.8530   30.6970   48.6900 C   0  0  0  0  0  0  0  0  0  0  0  0
   45.4990   30.1330   47.4700 C   0  0  0  0  0  0  0  0  0  0  0  0
   45.5280   27.6550   47.6720 C   0  0  1  0  0  0  0  0  0  0  0  0
   44.7080   28.8750   47.4450 C   0  0  2  0  0  0  0  0  0  0  0  0
   43.9060   28.7220   46.3530 O   0  0  0  0  0  0  0  0  0  0  0  0
   44.0460   27.4470   45.8470 C   0  0  0  0  0  0  0  0  0  0  0  0
   45.3310   26.8810   46.3910 C   0  0  2  0  0  0  0  0  0  0  0  0
   46.8840   27.9300   47.8550 O   0  0  0  0  0  0  0  0  0  0  0  0
   45.2600   25.5060   46.6090 O   0  0  0  0  0  0  0  0  0  0  0  0
   47.0800   32.6440   45.0850 C   0  0  0  0  0  0  0  0  0  0  0  0
   44.5740   35.4060   45.2030 C   0  0  0  0  0  0  0  0  0  0  0  0
   44.7460   36.0050   43.9520 C   0  0  0  0  0  0  0  0  0  0  0  0
   45.6960   35.4640   43.1090 C   0  0  0  0  0  0  0  0  0  0  0  0
   46.4240   34.3870   43.5060 N   0  0  0  0  0  0  0  0  0  0  0  0
   46.2290   33.8200   44.7510 C   0  0  0  0  0  0  0  0  0  0  0  0
   45.3000   34.3550   45.5610 N   0  0  0  0  0  0  0  0  0  0  0  0
   47.5468   33.3845   47.5810 H   0  0  0  0  0  0  0  0  0  0  0  0
   46.8688   32.3162   49.6968 H   0  0  0  0  0  0  0  0  0  0  0  0
   45.5461   30.2091   49.6269 H   0  0  0  0  0  0  0  0  0  0  0  0
   45.2235   27.1248   48.5864 H   0  0  0  0  0  0  0  0  0  0  0  0
   44.0330   28.9922   48.3056 H   0  0  0  0  0  0  0  0  0  0  0  0
   43.1974   26.8225   46.1630 H   0  0  0  0  0  0  0  0  0  0  0  0
   44.0673   27.4675   44.7474 H   0  0  0  0  0  0  0  0  0  0  0  0
   46.1727   26.9874   45.6908 H   0  0  0  0  0  0  0  0  0  0  0  0
   47.0847   27.9707   48.8236 H   0  0  0  0  0  0  0  0  0  0  0  0
   45.2507   25.3263   47.5825 H   0  0  0  0  0  0  0  0  0  0  0  0
   48.1103   32.9926   45.2493 H   0  0  0  0  0  0  0  0  0  0  0  0
   47.0133   31.9404   44.2421 H   0  0  0  0  0  0  0  0  0  0  0  0
   43.8263   35.8117   45.9004 H   0  0  0  0  0  0  0  0  0  0  0  0
   44.1460   36.8761   43.6500 H   0  0  0  0  0  0  0  0  0  0  0  0
   45.8639   35.9048   42.1153 H   0  0  0  0  0  0  0  0  0  0  0  0
  1  2  1  0
  2  7  2  0
  3  2  1  0
  3  4  2  0
  4  5  1  0
  6  5  2  0
  7  6  1  0
  8 13  1  0
  9  7  1  0
  9  8  1  0
 10  9  1  0
 11 10  1  0
 11 12  1  0
 12 14  1  0
 12  8  1  0
 15  3  1  0
 16 21  2  0
 17 16  1  0
 18 19  1  0
 18 17  2  0
 19 20  2  0
 20 15  1  0
 20 21  1  0
  4 22  1  0
  5 23  1  0
  6 24  1  0
  8 25  1  1
  9 26  1  1
 11 27  1  0
 11 28  1  0
 12 29  1  6
 13 30  1  0
 14 31  1  0
 15 32  1  0
 15 33  1  0
 16 34  1  0
 17 35  1  0
 18 36  1  0
M  ISO  8  22  14  23  14  24  14  25  13  26  13  27  13  28  13  29  13
M  ISO  7  30   3  31   3  32   8  33   8  34  14  35  14  36  14
M  END
>  <minimizedAffinity>  (1) 
-5.36161995

>  <minimizedRMSD>  (1) 
1.5035789

$$$$
