
     RDKit          3D

 29 30  0  0  1  0  0  0  0  0999 V2000
   44.5960   35.6790   44.8090 C   0  0  0  0  0  0  0  0  0  0  0  0
   45.1740   35.7290   43.5290 C   0  0  0  0  0  0  0  0  0  0  0  0
   46.1330   34.7720   43.2280 C   0  0  0  0  0  0  0  0  0  0  0  0
   46.4750   33.8330   44.1670 N   0  0  0  0  0  0  0  0  0  0  0  0
   45.8960   33.8190   45.3890 C   0  0  0  0  0  0  0  0  0  0  0  0
   44.9650   34.7370   45.7000 N   0  0  0  0  0  0  0  0  0  0  0  0
   45.8930   33.1290   47.7680 C   0  0  2  0  0  0  0  0  0  0  0  0
   46.3280   32.7650   46.3440 C   0  0  1  0  0  0  0  0  0  0  0  0
   45.7150   31.5470   46.0950 O   0  0  0  0  0  0  0  0  0  0  0  0
   45.5860   30.8750   47.2800 C   0  0  0  0  0  0  0  0  0  0  0  0
   45.9890   31.7670   48.4170 C   0  0  2  0  0  0  0  0  0  0  0  0
   44.5570   33.5290   47.6640 O   0  0  0  0  0  0  0  0  0  0  0  0
   45.0980   31.7060   49.4850 O   0  0  0  0  0  0  0  0  0  0  0  0
   46.7040   34.8260   41.9550 O   0  0  0  0  0  0  0  0  0  0  0  0
   48.6090   33.1430   41.2160 O   0  0  0  0  0  0  0  0  0  0  0  0
   48.3900   34.5440   41.7760 P   0  0  0  0  0  0  0  0  0  0  0  0
   49.0210   35.7220   40.7770 O   0  0  0  0  0  0  0  0  0  0  0  0
   49.0730   34.6000   43.3280 O   0  0  0  0  0  0  0  0  0  0  0  0
   43.8315   36.4191   45.0879 H   0  0  0  0  0  0  0  0  0  0  0  0
   44.8787   36.4946   42.7964 H   0  0  0  0  0  0  0  0  0  0  0  0
   46.4531   33.9142   48.2969 H   0  0  0  0  0  0  0  0  0  0  0  0
   47.4196   32.6922   46.2292 H   0  0  0  0  0  0  0  0  0  0  0  0
   44.5387   30.5656   47.4122 H   0  0  0  0  0  0  0  0  0  0  0  0
   46.2360   29.9877   47.2668 H   0  0  0  0  0  0  0  0  0  0  0  0
   46.9691   31.5023   48.8405 H   0  0  0  0  0  0  0  0  0  0  0  0
   44.1752   33.6433   48.5703 H   0  0  0  0  0  0  0  0  0  0  0  0
   45.6012   31.7404   50.3369 H   0  0  0  0  0  0  0  0  0  0  0  0
   49.4097   36.4476   41.3270 H   0  0  0  0  0  0  0  0  0  0  0  0
   48.3549   34.5411   44.0069 H   0  0  0  0  0  0  0  0  0  0  0  0
  1  6  2  0
  2  1  1  0
  3  2  2  0
  3  4  1  0
  4  5  2  0
  5  6  1  0
  7 12  1  0
  7 11  1  0
  8  5  1  0
  8  7  1  0
  9  8  1  0
  9 10  1  0
 10 11  1  0
 11 13  1  0
 14  3  1  0
 15 16  2  0
 16 14  1  0
 16 18  1  0
 17 16  1  0
  1 19  1  0
  2 20  1  0
  7 21  1  1
  8 22  1  1
 10 23  1  0
 10 24  1  0
 11 25  1  1
 12 26  1  0
 13 27  1  0
 17 28  1  0
 18 29  1  0
M  ISO  8  19  14  20  14  21  13  22  13  23  13  24  13  25  13  26   3
M  ISO  3  27   3  28   3  29   3
M  END
>  <minimizedAffinity>  (1) 
-6.22208214

>  <minimizedRMSD>  (1) 
0.658486307

$$$$
