
     RDKit          3D

 30 32  0  0  1  0  0  0  0  0999 V2000
   41.4820   35.0450   40.3120 C   0  0  1  0  0  0  0  0  0  0  0  0
   42.8430   35.1570   40.9670 C   0  0  2  0  0  0  0  0  0  0  0  0
   42.6490   35.2530   39.4840 C   0  0  0  0  0  0  0  0  0  0  0  0
   40.8050   33.7440   40.4930 C   0  0  0  0  0  0  0  0  0  0  0  0
   40.8770   32.8350   39.4180 C   0  0  0  0  0  0  0  0  0  0  0  0
   40.2390   31.5810   39.5710 C   0  0  0  0  0  0  0  0  0  0  0  0
   39.5920   31.3450   40.7710 N   0  0  0  0  0  0  0  0  0  0  0  0
   39.5640   32.2640   41.7550 C   0  0  0  0  0  0  0  0  0  0  0  0
   40.1610   33.4460   41.6200 N   0  0  0  0  0  0  0  0  0  0  0  0
   44.8290   33.5910   40.8210 C   0  0  1  0  0  0  0  0  0  0  0  0
   43.5930   34.0190   41.5340 C   0  0  1  0  0  0  0  0  0  0  0  0
   44.0870   34.4110   42.7800 O   0  0  0  0  0  0  0  0  0  0  0  0
   45.1330   35.2920   42.4150 C   0  0  0  0  0  0  0  0  0  0  0  0
   45.8740   34.5490   41.3140 C   0  0  1  0  0  0  0  0  0  0  0  0
   45.1700   32.3130   41.2860 O   0  0  0  0  0  0  0  0  0  0  0  0
   46.9170   33.8670   41.9570 O   0  0  0  0  0  0  0  0  0  0  0  0
   40.5106   35.5609   40.3258 H   0  0  0  0  0  0  0  0  0  0  0  0
   43.2518   35.7709   41.7831 H   0  0  0  0  0  0  0  0  0  0  0  0
   43.0075   34.4412   38.8341 H   0  0  0  0  0  0  0  0  0  0  0  0
   42.9252   35.9959   38.7212 H   0  0  0  0  0  0  0  0  0  0  0  0
   41.4111   33.0917   38.4913 H   0  0  0  0  0  0  0  0  0  0  0  0
   40.2567   30.8267   38.7706 H   0  0  0  0  0  0  0  0  0  0  0  0
   39.0357   32.0326   42.6917 H   0  0  0  0  0  0  0  0  0  0  0  0
   44.7235   33.5775   39.7262 H   0  0  0  0  0  0  0  0  0  0  0  0
   42.8649   33.1950   41.5022 H   0  0  0  0  0  0  0  0  0  0  0  0
   44.7292   36.2442   42.0405 H   0  0  0  0  0  0  0  0  0  0  0  0
   45.7840   35.5500   43.2633 H   0  0  0  0  0  0  0  0  0  0  0  0
   46.2938   35.1564   40.4986 H   0  0  0  0  0  0  0  0  0  0  0  0
   45.1705   32.3113   42.2760 H   0  0  0  0  0  0  0  0  0  0  0  0
   46.8042   33.9407   42.9378 H   0  0  0  0  0  0  0  0  0  0  0  0
  1  4  1  0
  1  2  1  0
  2 11  1  0
  3  1  1  0
  3  2  1  0
  4  9  2  0
  5  6  2  0
  5  4  1  0
  6  7  1  0
  7  8  2  0
  9  8  1  0
 10 15  1  0
 10 14  1  0
 10 11  1  0
 11 12  1  0
 13 12  1  0
 14 16  1  0
 14 13  1  0
  1 17  1  1
  2 18  1  1
  3 19  1  0
  3 20  1  0
  5 21  1  0
  6 22  1  0
  8 23  1  0
 10 24  1  6
 11 25  1  1
 13 26  1  0
 13 27  1  0
 14 28  1  6
 15 29  1  0
 16 30  1  0
M  ISO  8  17  13  18  13  19  13  20  13  21  14  22  14  23  14  24  13
M  ISO  6  25  13  26  13  27  13  28  13  29   3  30   3
M  END
>  <minimizedAffinity>  (1) 
-3.6612699

>  <minimizedRMSD>  (1) 
6.62808895

$$$$
