
     RDKit          3D

 46 49  0  0  1  0  0  0  0  0999 V2000
   48.8840   32.0860   43.3380 O   0  0  0  0  0  0  0  0  0  0  0  0
   50.0120   32.3190   42.3400 P   0  0  2  0  0  0  0  0  0  0  0  0
   51.4170   31.5870   42.8060 O   0  0  0  0  0  0  0  0  0  0  0  0
   50.1120   33.9880   42.0930 O   0  0  0  0  0  0  0  0  0  0  0  0
   47.8770   34.4740   41.1740 C   0  0  1  0  0  0  0  0  0  0  0  0
   48.6300   35.7870   41.6370 C   0  0  0  0  0  0  0  0  0  0  0  0
   48.8500   34.5180   42.2920 C   0  0  2  0  0  0  0  0  0  0  0  0
   46.4160   34.5490   41.4590 C   0  0  0  0  0  0  0  0  0  0  0  0
   45.6470   34.3460   40.5320 O   0  0  0  0  0  0  0  0  0  0  0  0
   45.2830   36.0060   43.0810 C   0  0  0  0  0  0  0  0  0  0  0  0
   45.8500   34.8400   42.7310 C   0  0  0  0  0  0  0  0  0  0  0  0
   45.8730   33.8260   43.7460 C   0  0  0  0  0  0  0  0  0  0  0  0
   45.3500   34.0520   44.9710 N   0  0  0  0  0  0  0  0  0  0  0  0
   44.7900   35.2550   45.2600 C   0  0  0  0  0  0  0  0  0  0  0  0
   44.7630   36.1970   44.3340 N   0  0  0  0  0  0  0  0  0  0  0  0
   49.3970   31.6250   40.8680 O   0  0  0  0  0  0  0  0  0  0  0  0
   50.0660   31.6620   39.6640 C   0  0  0  0  0  0  0  0  0  0  0  0
   49.5690   31.9000   38.3950 C   0  0  0  0  0  0  0  0  0  0  0  0
   50.4230   31.8920   37.3030 C   0  0  0  0  0  0  0  0  0  0  0  0
   51.7500   31.6460   37.4940 N   0  0  0  0  0  0  0  0  0  0  0  0
   52.2170   31.4150   38.7490 C   0  0  0  0  0  0  0  0  0  0  0  0
   51.4050   31.4170   39.8370 N   0  0  0  0  0  0  0  0  0  0  0  0
   53.8650   29.6670   38.9640 C   0  0  2  0  0  0  0  0  0  0  0  0
   53.6860   31.1480   38.9210 C   0  0  1  0  0  0  0  0  0  0  0  0
   54.2870   31.6440   37.7760 O   0  0  0  0  0  0  0  0  0  0  0  0
   55.0400   30.6510   37.1940 C   0  0  0  0  0  0  0  0  0  0  0  0
   55.0430   29.4410   38.0680 C   0  0  1  0  0  0  0  0  0  0  0  0
   52.7730   28.9620   38.4490 O   0  0  0  0  0  0  0  0  0  0  0  0
   56.2250   29.4500   38.8370 O   0  0  0  0  0  0  0  0  0  0  0  0
   51.4642   31.5624   43.7946 H   0  0  0  0  0  0  0  0  0  0  0  0
   47.7689   33.8258   40.2919 H   0  0  0  0  0  0  0  0  0  0  0  0
   49.4149   36.2280   41.0049 H   0  0  0  0  0  0  0  0  0  0  0  0
   48.3290   36.7957   41.9564 H   0  0  0  0  0  0  0  0  0  0  0  0
   48.7702   34.1607   43.3293 H   0  0  0  0  0  0  0  0  0  0  0  0
   45.2351   36.8239   42.3470 H   0  0  0  0  0  0  0  0  0  0  0  0
   46.3242   32.8479   43.5229 H   0  0  0  0  0  0  0  0  0  0  0  0
   44.3628   35.4434   46.2560 H   0  0  0  0  0  0  0  0  0  0  0  0
   48.4960   32.0956   38.2525 H   0  0  0  0  0  0  0  0  0  0  0  0
   50.0335   32.0824   36.2921 H   0  0  0  0  0  0  0  0  0  0  0  0
   53.9838   29.3162   39.9998 H   0  0  0  0  0  0  0  0  0  0  0  0
   54.1078   31.6027   39.8295 H   0  0  0  0  0  0  0  0  0  0  0  0
   54.6103   30.3932   36.2148 H   0  0  0  0  0  0  0  0  0  0  0  0
   56.0725   31.0073   37.0633 H   0  0  0  0  0  0  0  0  0  0  0  0
   54.9944   28.4890   37.5190 H   0  0  0  0  0  0  0  0  0  0  0  0
   52.2264   28.6091   39.1952 H   0  0  0  0  0  0  0  0  0  0  0  0
   55.9926   29.4482   39.7993 H   0  0  0  0  0  0  0  0  0  0  0  0
  2  3  1  0
  2  1  2  0
  4  7  1  0
  4  2  1  0
  5  8  1  0
  5  6  1  0
  5  7  1  0
  6  7  1  0
  8 11  1  0
  9  8  2  0
 10 15  2  0
 11 10  1  0
 11 12  2  0
 12 13  1  0
 13 14  2  0
 15 14  1  0
 16  2  1  0
 17 22  1  0
 17 16  1  0
 18 17  2  0
 19 20  2  0
 19 18  1  0
 20 21  1  0
 21 22  2  0
 23 28  1  0
 24 21  1  0
 24 23  1  0
 25 24  1  0
 26 25  1  0
 26 27  1  0
 27 29  1  0
 27 23  1  0
  3 30  1  0
  5 31  1  6
  6 32  1  0
  6 33  1  0
  7 34  1  1
 10 35  1  0
 12 36  1  0
 14 37  1  0
 18 38  1  0
 19 39  1  0
 23 40  1  1
 24 41  1  1
 26 42  1  0
 26 43  1  0
 27 44  1  6
 28 45  1  0
 29 46  1  0
M  ISO  8  30   3  31  13  32  13  33  13  34  13  35  14  36  14  37  14
M  ISO  8  38  14  39  14  40  13  41  13  42  13  43  13  44  13  45   3
M  ISO  1  46   3
M  END
>  <minimizedAffinity>  (1) 
-5.54042435

>  <minimizedRMSD>  (1) 
1.08343124

$$$$
