
     RDKit          3D

 52 55  0  0  1  0  0  0  0  0999 V2000
   48.0320   33.3470   42.3720 C   0  0  1  0  0  0  0  0  0  0  0  0
   46.5650   33.6880   42.1350 C   0  0  2  0  0  0  0  0  0  0  0  0
   46.4130   34.6340   41.1640 O   0  0  0  0  0  0  0  0  0  0  0  0
   46.7380   34.0570   39.9730 C   0  0  0  0  0  0  0  0  0  0  0  0
   48.2200   33.8310   39.9150 C   0  0  2  0  0  0  0  0  0  0  0  0
   48.8310   33.1990   41.1510 C   0  0  2  0  0  0  0  0  0  0  0  0
   44.5920   35.7580   44.6230 C   0  0  0  0  0  0  0  0  0  0  0  0
   45.1610   35.3490   43.4120 C   0  0  0  0  0  0  0  0  0  0  0  0
   45.9420   34.1460   43.3840 C   0  0  0  0  0  0  0  0  0  0  0  0
   46.1020   33.4500   44.5310 N   0  0  0  0  0  0  0  0  0  0  0  0
   45.5250   33.8900   45.6970 C   0  0  0  0  0  0  0  0  0  0  0  0
   44.7790   35.0310   45.7390 N   0  0  0  0  0  0  0  0  0  0  0  0
   48.6190   34.1930   43.3020 O   0  0  0  0  0  0  0  0  0  0  0  0
   48.7720   35.1050   39.7030 O   0  0  0  0  0  0  0  0  0  0  0  0
   49.1870   31.8830   40.8410 O   0  0  0  0  0  0  0  0  0  0  0  0
   51.4060   32.4150   41.4300 N   0  0  0  0  0  0  0  0  0  0  0  0
   51.2390   31.6160   42.6600 C   0  0  0  0  0  0  0  0  0  0  0  0
   51.6670   30.2720   42.1410 C   0  0  0  0  0  0  0  0  0  0  0  0
   50.9370   30.2350   40.8130 C   0  0  0  0  0  0  0  0  0  0  0  0
   50.5050   31.6930   40.5570 C   0  0  1  0  0  0  0  0  0  0  0  0
   50.1340   31.4900   38.0380 C   0  0  1  0  0  0  0  0  0  0  0  0
   51.0010   31.9310   39.1640 C   0  0  2  0  0  0  0  0  0  0  0  0
   52.0420   30.9520   39.0380 O   0  0  0  0  0  0  0  0  0  0  0  0
   52.3930   31.1580   37.6840 C   0  0  0  0  0  0  0  0  0  0  0  0
   51.0590   30.8220   37.0500 C   0  0  2  0  0  0  0  0  0  0  0  0
   49.0260   30.7590   38.3440 O   0  0  0  0  0  0  0  0  0  0  0  0
   50.9750   31.3650   35.7690 O   0  0  0  0  0  0  0  0  0  0  0  0
   48.0242   32.3378   42.8097 H   0  0  0  0  0  0  0  0  0  0  0  0
   46.0645   32.7711   41.7902 H   0  0  0  0  0  0  0  0  0  0  0  0
   46.2161   33.0934   39.8778 H   0  0  0  0  0  0  0  0  0  0  0  0
   46.4357   34.7205   39.1494 H   0  0  0  0  0  0  0  0  0  0  0  0
   48.4376   33.1043   39.1184 H   0  0  0  0  0  0  0  0  0  0  0  0
   49.7412   33.7555   41.4191 H   0  0  0  0  0  0  0  0  0  0  0  0
   43.9895   36.6775   44.6625 H   0  0  0  0  0  0  0  0  0  0  0  0
   45.0119   35.9402   42.4964 H   0  0  0  0  0  0  0  0  0  0  0  0
   45.6680   33.3081   46.6194 H   0  0  0  0  0  0  0  0  0  0  0  0
   48.4020   33.8802   44.2159 H   0  0  0  0  0  0  0  0  0  0  0  0
   48.9577   35.5336   40.5759 H   0  0  0  0  0  0  0  0  0  0  0  0
   51.1115   33.3930   41.5633 H   0  0  0  0  0  0  0  0  0  0  0  0
   51.8921   31.9698   43.4713 H   0  0  0  0  0  0  0  0  0  0  0  0
   50.2343   31.6477   43.1068 H   0  0  0  0  0  0  0  0  0  0  0  0
   52.7573   30.2189   42.0053 H   0  0  0  0  0  0  0  0  0  0  0  0
   51.4367   29.4305   42.8110 H   0  0  0  0  0  0  0  0  0  0  0  0
   51.6057   29.8834   40.0135 H   0  0  0  0  0  0  0  0  0  0  0  0
   50.0796   29.5461   40.8308 H   0  0  0  0  0  0  0  0  0  0  0  0
   49.6383   32.3758   37.6141 H   0  0  0  0  0  0  0  0  0  0  0  0
   51.1800   33.0133   39.0826 H   0  0  0  0  0  0  0  0  0  0  0  0
   52.6945   32.1976   37.4880 H   0  0  0  0  0  0  0  0  0  0  0  0
   53.2534   30.5768   37.3208 H   0  0  0  0  0  0  0  0  0  0  0  0
   50.8486   29.7537   36.8938 H   0  0  0  0  0  0  0  0  0  0  0  0
   48.9326   30.6974   39.3277 H   0  0  0  0  0  0  0  0  0  0  0  0
   50.8240   32.3413   35.8337 H   0  0  0  0  0  0  0  0  0  0  0  0
  1 13  1  0
  2  1  1  0
  2  9  1  0
  3  2  1  0
  4  3  1  0
  5  4  1  0
  5  6  1  0
  6  1  1  0
  7 12  2  0
  8  7  1  0
  9  8  2  0
  9 10  1  0
 10 11  2  0
 11 12  1  0
 14  5  1  0
 15  6  1  0
 16 17  1  0
 18 17  1  0
 19 18  1  0
 20 19  1  0
 20 15  1  6
 20 16  1  0
 21 26  1  0
 21 22  1  0
 22 23  1  0
 22 20  1  0
 24 23  1  0
 25 27  1  0
 25 24  1  0
 25 21  1  0
  1 28  1  1
  2 29  1  6
  4 30  1  0
  4 31  1  0
  5 32  1  6
  6 33  1  1
  7 34  1  0
  8 35  1  0
 11 36  1  0
 13 37  1  0
 14 38  1  0
 16 39  1  0
 17 40  1  0
 17 41  1  0
 18 42  1  0
 18 43  1  0
 19 44  1  0
 19 45  1  0
 21 46  1  6
 22 47  1  6
 24 48  1  0
 24 49  1  0
 25 50  1  6
 26 51  1  0
 27 52  1  0
M  ISO  8  28  13  29  13  30  13  31  13  32  13  33  13  34  14  35  14
M  ISO  8  36  14  37   3  38   3  39   5  40  13  41  13  42  13  43  13
M  ISO  8  44  13  45  13  46  13  47  13  48  13  49  13  50  13  51   3
M  ISO  1  52   3
M  END
>  <minimizedAffinity>  (1) 
-5.97570944

>  <minimizedRMSD>  (1) 
1.049263

$$$$
