
     RDKit          3D

 48 51  0  0  1  0  0  0  0  0999 V2000
   46.6260   33.2450   44.6270 F   0  0  0  0  0  0  0  0  0  0  0  0
   47.3470   32.0990   44.5150 C   0  0  0  0  0  0  0  0  0  0  0  0
   48.1820   31.9610   43.4360 C   0  0  0  0  0  0  0  0  0  0  0  0
   48.9020   30.7970   43.3380 C   0  0  0  0  0  0  0  0  0  0  0  0
   48.7730   29.8210   44.3000 C   0  0  0  0  0  0  0  0  0  0  0  0
   47.9370   29.9590   45.3820 C   0  0  0  0  0  0  0  0  0  0  0  0
   47.2070   31.1390   45.4790 C   0  0  0  0  0  0  0  0  0  0  0  0
   46.3510   31.2460   46.6150 N   0  0  0  0  0  0  0  0  0  0  0  0
   45.2540   30.4240   47.0470 C   0  0  0  0  0  0  0  0  0  0  0  0
   45.6000   30.1580   48.5190 C   0  0  0  0  0  0  0  0  0  0  0  0
   46.4800   31.3230   48.8960 C   0  0  0  0  0  0  0  0  0  0  0  0
   46.3260   32.2250   47.6870 C   0  0  2  0  0  0  0  0  0  0  0  0
   45.1100   33.0810   47.7010 C   0  0  0  0  0  0  0  0  0  0  0  0
   48.8320   35.2260   41.9090 C   0  0  0  0  0  0  0  0  0  0  0  0
   48.4880   35.0210   40.5690 C   0  0  0  0  0  0  0  0  0  0  0  0
   48.0380   33.7500   40.2250 C   0  0  0  0  0  0  0  0  0  0  0  0
   47.9540   32.7880   41.1870 N   0  0  0  0  0  0  0  0  0  0  0  0
   48.2870   33.0210   42.4400 C   0  0  0  0  0  0  0  0  0  0  0  0
   48.7250   34.2320   42.8050 N   0  0  0  0  0  0  0  0  0  0  0  0
   48.2850   32.2320   38.3340 C   0  0  2  0  0  0  0  0  0  0  0  0
   47.6640   33.4990   38.8080 C   0  0  2  0  0  0  0  0  0  0  0  0
   48.0160   34.5360   37.9780 O   0  0  0  0  0  0  0  0  0  0  0  0
   48.8400   34.0670   36.9950 C   0  0  0  0  0  0  0  0  0  0  0  0
   49.2970   32.6850   37.3240 C   0  0  1  0  0  0  0  0  0  0  0  0
   47.3570   31.3520   37.7780 O   0  0  0  0  0  0  0  0  0  0  0  0
   50.6090   32.6620   37.7850 O   0  0  0  0  0  0  0  0  0  0  0  0
   49.5839   30.6435   42.4886 H   0  0  0  0  0  0  0  0  0  0  0  0
   49.3606   28.8966   44.1990 H   0  0  0  0  0  0  0  0  0  0  0  0
   47.8487   29.1678   46.1411 H   0  0  0  0  0  0  0  0  0  0  0  0
   44.2964   30.9572   46.9535 H   0  0  0  0  0  0  0  0  0  0  0  0
   45.1314   29.5070   46.4520 H   0  0  0  0  0  0  0  0  0  0  0  0
   44.6909   30.1368   49.1379 H   0  0  0  0  0  0  0  0  0  0  0  0
   46.0913   29.1858   48.6723 H   0  0  0  0  0  0  0  0  0  0  0  0
   46.1230   31.8156   49.8124 H   0  0  0  0  0  0  0  0  0  0  0  0
   47.5210   31.0445   49.1169 H   0  0  0  0  0  0  0  0  0  0  0  0
   47.1049   32.9980   47.6107 H   0  0  0  0  0  0  0  0  0  0  0  0
   44.8182   33.2864   48.7415 H   0  0  0  0  0  0  0  0  0  0  0  0
   45.3232   34.0293   47.1859 H   0  0  0  0  0  0  0  0  0  0  0  0
   44.2892   32.5604   47.1859 H   0  0  0  0  0  0  0  0  0  0  0  0
   49.1944   36.2129   42.2325 H   0  0  0  0  0  0  0  0  0  0  0  0
   48.5692   35.8255   39.8232 H   0  0  0  0  0  0  0  0  0  0  0  0
   48.7321   31.6596   39.1601 H   0  0  0  0  0  0  0  0  0  0  0  0
   46.5679   33.4133   38.7718 H   0  0  0  0  0  0  0  0  0  0  0  0
   49.7148   34.7282   36.9075 H   0  0  0  0  0  0  0  0  0  0  0  0
   48.2891   34.0467   36.0431 H   0  0  0  0  0  0  0  0  0  0  0  0
   49.3387   32.0119   36.4549 H   0  0  0  0  0  0  0  0  0  0  0  0
   46.8674   30.8877   38.5024 H   0  0  0  0  0  0  0  0  0  0  0  0
   50.6110   32.6620   38.7750 H   0  0  0  0  0  0  0  0  0  0  0  0
  2  1  1  0
  2  7  2  0
  3  2  1  0
  4  3  2  0
  4  5  1  0
  5  6  2  0
  6  7  1  0
  7  8  1  0
  8  9  1  0
  8 12  1  0
  9 10  1  0
 10 11  1  0
 12 13  1  0
 12 11  1  0
 14 19  2  0
 15 14  1  0
 16 15  2  0
 16 17  1  0
 17 18  2  0
 18 19  1  0
 18  3  1  0
 20 25  1  0
 20 21  1  0
 21 16  1  0
 22 21  1  0
 23 24  1  0
 23 22  1  0
 24 26  1  0
 24 20  1  0
  4 27  1  0
  5 28  1  0
  6 29  1  0
  9 30  1  0
  9 31  1  0
 10 32  1  0
 10 33  1  0
 11 34  1  0
 11 35  1  0
 12 36  1  6
 13 37  1  0
 13 38  1  0
 13 39  1  0
 14 40  1  0
 15 41  1  0
 20 42  1  1
 21 43  1  1
 23 44  1  0
 23 45  1  0
 24 46  1  6
 25 47  1  0
 26 48  1  0
M  ISO  8  27  14  28  14  29  14  30  13  31  13  32  13  33  13  34  13
M  ISO  8  35  13  36  13  37   8  38   8  39   8  40  14  41  14  42  13
M  ISO  6  43  13  44  13  45  13  46  13  47   3  48   3
M  END
>  <minimizedAffinity>  (1) 
-5.9714818

>  <minimizedRMSD>  (1) 
1.15384603

$$$$
