
     RDKit          3D

 52 55  0  0  1  0  0  0  0  0999 V2000
   41.9790   31.1870   42.3730 C   0  0  0  0  0  0  0  0  0  0  0  0
   41.3640   30.1520   41.8090 N   0  0  0  0  0  0  0  0  0  0  0  0
   41.5660   28.7730   41.9870 C   0  0  0  0  0  0  0  0  0  0  0  0
   40.3090   28.4660   42.8370 C   0  0  0  0  0  0  0  0  0  0  0  0
   39.0710   28.7420   42.1290 C   0  0  0  0  0  0  0  0  0  0  0  0
   39.0510   29.7190   41.0630 C   0  0  0  0  0  0  0  0  0  0  0  0
   40.2930   30.5370   40.8610 C   0  0  0  0  0  0  0  0  0  0  0  0
   40.3650   31.8090   39.6490 S   0  0  0  0  0  0  0  0  0  0  0  0
   38.4630   33.6060   40.2630 C   0  0  2  0  0  0  0  0  0  0  0  0
   38.7470   32.5090   39.2600 C   0  0  1  0  0  0  0  0  0  0  0  0
   38.8170   33.1390   38.0280 O   0  0  0  0  0  0  0  0  0  0  0  0
   39.6590   34.2330   38.3210 C   0  0  0  0  0  0  0  0  0  0  0  0
   39.0270   34.8270   39.5850 C   0  0  2  0  0  0  0  0  0  0  0  0
   39.1720   33.3420   41.4380 O   0  0  0  0  0  0  0  0  0  0  0  0
   40.0080   35.4440   40.3450 O   0  0  0  0  0  0  0  0  0  0  0  0
   43.4640   31.1070   42.3040 C   0  0  0  0  0  0  0  0  0  0  0  0
   43.9860   32.4530   42.0140 C   0  0  0  0  0  0  0  0  0  0  0  0
   43.1380   33.4570   41.6060 C   0  0  0  0  0  0  0  0  0  0  0  0
   43.6730   34.7060   41.3330 C   0  0  0  0  0  0  0  0  0  0  0  0
   45.0250   34.8780   41.4860 N   0  0  0  0  0  0  0  0  0  0  0  0
   45.8110   33.8830   41.8830 C   0  0  0  0  0  0  0  0  0  0  0  0
   45.2720   32.6910   42.1380 N   0  0  0  0  0  0  0  0  0  0  0  0
   47.2370   34.1650   42.0400 C   0  0  0  0  0  0  0  0  0  0  0  0
   48.0800   33.2380   42.6420 C   0  0  0  0  0  0  0  0  0  0  0  0
   49.4180   33.5040   42.7970 C   0  0  0  0  0  0  0  0  0  0  0  0
   49.8080   34.7400   42.3110 C   0  0  0  0  0  0  0  0  0  0  0  0
   49.0070   35.7030   41.7010 C   0  0  0  0  0  0  0  0  0  0  0  0
   47.7010   35.3540   41.5910 N   0  0  0  0  0  0  0  0  0  0  0  0
   41.6559   32.1051   41.8605 H   0  0  0  0  0  0  0  0  0  0  0  0
   41.7047   31.1842   43.4382 H   0  0  0  0  0  0  0  0  0  0  0  0
   41.5643   28.2270   41.0321 H   0  0  0  0  0  0  0  0  0  0  0  0
   42.5283   28.4847   42.4351 H   0  0  0  0  0  0  0  0  0  0  0  0
   40.3247   27.4022   43.1165 H   0  0  0  0  0  0  0  0  0  0  0  0
   40.3385   29.1200   43.7210 H   0  0  0  0  0  0  0  0  0  0  0  0
   38.7350   27.7895   41.6933 H   0  0  0  0  0  0  0  0  0  0  0  0
   38.4335   29.1969   42.9014 H   0  0  0  0  0  0  0  0  0  0  0  0
   38.1637   29.8567   40.4276 H   0  0  0  0  0  0  0  0  0  0  0  0
   37.4016   33.7084   40.5331 H   0  0  0  0  0  0  0  0  0  0  0  0
   37.9858   31.7150   39.2710 H   0  0  0  0  0  0  0  0  0  0  0  0
   40.6890   33.8984   38.5139 H   0  0  0  0  0  0  0  0  0  0  0  0
   39.7347   34.9548   37.4944 H   0  0  0  0  0  0  0  0  0  0  0  0
   38.2632   35.5982   39.4068 H   0  0  0  0  0  0  0  0  0  0  0  0
   38.6040   33.5535   42.2208 H   0  0  0  0  0  0  0  0  0  0  0  0
   39.8083   35.3184   41.3065 H   0  0  0  0  0  0  0  0  0  0  0  0
   43.8626   30.7527   43.2661 H   0  0  0  0  0  0  0  0  0  0  0  0
   43.7697   30.4037   41.5154 H   0  0  0  0  0  0  0  0  0  0  0  0
   42.0589   33.2723   41.4989 H   0  0  0  0  0  0  0  0  0  0  0  0
   43.0312   35.5361   41.0029 H   0  0  0  0  0  0  0  0  0  0  0  0
   47.6707   32.2811   42.9980 H   0  0  0  0  0  0  0  0  0  0  0  0
   50.1183   32.7972   43.2660 H   0  0  0  0  0  0  0  0  0  0  0  0
   50.8736   34.9909   42.4189 H   0  0  0  0  0  0  0  0  0  0  0  0
   49.4003   36.6645   41.3394 H   0  0  0  0  0  0  0  0  0  0  0  0
  2  3  1  0
  2  1  1  0
  3  4  1  0
  5  4  1  0
  6  5  1  0
  7  6  2  0
  7  2  1  0
  8  7  1  0
  9 14  1  0
 10  8  1  0
 10  9  1  0
 11 12  1  0
 11 10  1  0
 12 13  1  0
 13  9  1  0
 13 15  1  0
 16  1  1  0
 17 22  1  0
 17 16  1  0
 18 17  2  0
 19 20  2  0
 19 18  1  0
 20 21  1  0
 21 23  1  0
 21 22  2  0
 23 24  2  0
 24 25  1  0
 26 25  2  0
 27 26  1  0
 28 27  2  0
 28 23  1  0
  1 29  1  0
  1 30  1  0
  3 31  1  0
  3 32  1  0
  4 33  1  0
  4 34  1  0
  5 35  1  0
  5 36  1  0
  6 37  1  0
  9 38  1  1
 10 39  1  6
 12 40  1  0
 12 41  1  0
 13 42  1  6
 14 43  1  0
 15 44  1  0
 16 45  1  0
 16 46  1  0
 18 47  1  0
 19 48  1  0
 24 49  1  0
 25 50  1  0
 26 51  1  0
 27 52  1  0
M  ISO  8  29   8  30   8  31  13  32  13  33  13  34  13  35  13  36  13
M  ISO  8  37  13  38  13  39  13  40  13  41  13  42  13  43   3  44   3
M  ISO  8  45   8  46   8  47  14  48  14  49  14  50  14  51  14  52  14
M  END
>  <minimizedAffinity>  (1) 
-5.47219324

>  <minimizedRMSD>  (1) 
3.68167281

$$$$
