
     RDKit          3D

 48 51  0  0  1  0  0  0  0  0999 V2000
   40.5230   33.3370   41.3760 C   0  0  0  0  0  0  0  0  0  0  0  0
   41.8840   33.0770   41.4950 C   0  0  0  0  0  0  0  0  0  0  0  0
   42.3380   31.8250   41.8830 C   0  0  0  0  0  0  0  0  0  0  0  0
   41.4670   30.8190   42.1580 C   0  0  0  0  0  0  0  0  0  0  0  0
   40.1110   31.0650   42.0430 C   0  0  0  0  0  0  0  0  0  0  0  0
   39.6390   32.2820   41.6650 C   0  0  0  0  0  0  0  0  0  0  0  0
   39.4550   29.8630   42.3820 O   0  0  0  0  0  0  0  0  0  0  0  0
   40.3710   28.9970   42.9180 C   0  0  1  0  0  0  0  0  0  0  0  0
   41.6400   29.4890   42.5610 O   0  0  0  0  0  0  0  0  0  0  0  0
   40.2000   28.9140   44.3520 N   0  0  0  0  0  0  0  0  0  0  0  0
   42.3660   27.8960   44.9460 C   0  0  2  0  0  0  0  0  0  0  0  0
   40.8880   27.6970   44.7580 C   0  0  1  0  0  0  0  0  0  0  0  0
   40.4700   27.2490   45.9940 O   0  0  0  0  0  0  0  0  0  0  0  0
   41.3780   26.2800   46.3430 C   0  0  0  0  0  0  0  0  0  0  0  0
   42.7180   26.6410   45.7460 C   0  0  2  0  0  0  0  0  0  0  0  0
   42.7130   29.0590   45.5880 O   0  0  0  0  0  0  0  0  0  0  0  0
   43.7000   26.8940   46.6780 O   0  0  0  0  0  0  0  0  0  0  0  0
   42.9110   34.4960   41.1010 S   0  0  0  0  0  0  0  0  0  0  0  0
   44.5060   33.9100   40.4190 C   0  0  0  0  0  0  0  0  0  0  0  0
   44.4520   33.3230   39.2010 C   0  0  0  0  0  0  0  0  0  0  0  0
   45.6690   32.8810   38.7200 C   0  0  0  0  0  0  0  0  0  0  0  0
   46.8150   33.0200   39.3950 N   0  0  0  0  0  0  0  0  0  0  0  0
   46.8220   33.6150   40.6100 C   0  0  0  0  0  0  0  0  0  0  0  0
   45.6490   34.0450   41.0870 N   0  0  0  0  0  0  0  0  0  0  0  0
   45.7250   32.2260   37.4300 N   0  0  0  0  0  0  0  0  0  0  0  0
   43.3550   33.0410   38.2190 C   0  0  0  0  0  0  0  0  0  0  0  0
   47.9370   33.8140   41.3970 O   0  0  0  0  0  0  0  0  0  0  0  0
   48.5400   35.1030   41.3320 C   0  0  0  0  0  0  0  0  0  0  0  0
   49.7870   35.0910   41.8540 F   0  0  0  0  0  0  0  0  0  0  0  0
   48.5240   35.4830   39.9790 F   0  0  0  0  0  0  0  0  0  0  0  0
   47.7830   35.9840   42.0820 F   0  0  0  0  0  0  0  0  0  0  0  0
   40.1534   34.3264   41.0687 H   0  0  0  0  0  0  0  0  0  0  0  0
   43.4195   31.6438   41.9694 H   0  0  0  0  0  0  0  0  0  0  0  0
   38.5540   32.4437   41.5842 H   0  0  0  0  0  0  0  0  0  0  0  0
   40.2438   27.9738   42.5347 H   0  0  0  0  0  0  0  0  0  0  0  0
   40.6191   29.7346   44.8122 H   0  0  0  0  0  0  0  0  0  0  0  0
   42.9134   28.0119   43.9990 H   0  0  0  0  0  0  0  0  0  0  0  0
   40.6605   26.9919   43.9450 H   0  0  0  0  0  0  0  0  0  0  0  0
   41.4619   26.2275   47.4385 H   0  0  0  0  0  0  0  0  0  0  0  0
   41.0484   25.3011   45.9648 H   0  0  0  0  0  0  0  0  0  0  0  0
   43.1518   25.8195   45.1570 H   0  0  0  0  0  0  0  0  0  0  0  0
   42.6716   28.9203   46.5674 H   0  0  0  0  0  0  0  0  0  0  0  0
   43.3237   26.7970   47.5885 H   0  0  0  0  0  0  0  0  0  0  0  0
   46.6267   31.8920   37.0607 H   0  0  0  0  0  0  0  0  0  0  0  0
   44.8632   32.0940   36.8816 H   0  0  0  0  0  0  0  0  0  0  0  0
   42.4287   32.8029   38.7624 H   0  0  0  0  0  0  0  0  0  0  0  0
   43.1921   33.9265   37.5870 H   0  0  0  0  0  0  0  0  0  0  0  0
   43.6393   32.1867   37.5870 H   0  0  0  0  0  0  0  0  0  0  0  0
  1  2  2  0
  1  6  1  0
  2  3  1  0
  3  4  2  0
  4  9  1  0
  5  4  1  0
  5  7  1  0
  6  5  2  0
  7  8  1  0
  8 10  1  0
  9  8  1  0
 11 16  1  0
 11 15  1  0
 12 10  1  0
 12 11  1  0
 12 13  1  0
 13 14  1  0
 15 14  1  0
 15 17  1  0
 18  2  1  0
 19 24  1  0
 19 18  1  0
 20 19  2  0
 21 20  1  0
 21 22  2  0
 22 23  1  0
 23 24  2  0
 23 27  1  0
 25 21  1  0
 26 20  1  0
 28 27  1  0
 28 29  1  0
 28 31  1  0
 30 28  1  0
  1 32  1  0
  3 33  1  0
  6 34  1  0
  8 35  1  6
 10 36  1  0
 11 37  1  6
 12 38  1  6
 14 39  1  0
 14 40  1  0
 15 41  1  6
 16 42  1  0
 17 43  1  0
 25 44  1  0
 25 45  1  0
 26 46  1  0
 26 47  1  0
 26 48  1  0
M  ISO  8  32  14  33  14  34  14  35  13  36   5  37  13  38  13  39  13
M  ISO  7  40  13  41  13  42   3  43   3  46   8  47   8  48   8
M  END
>  <minimizedAffinity>  (1) 
-5.90290213

>  <minimizedRMSD>  (1) 
2.58185434

$$$$
