
     RDKit          3D

 41 43  0  0  1  0  0  0  0  0999 V2000
   44.5240   35.6120   44.7610 C   0  0  0  0  0  0  0  0  0  0  0  0
   45.1670   35.8650   43.5360 C   0  0  0  0  0  0  0  0  0  0  0  0
   46.2600   35.0770   43.2210 C   0  0  0  0  0  0  0  0  0  0  0  0
   46.6550   34.1210   44.0810 N   0  0  0  0  0  0  0  0  0  0  0  0
   46.0340   33.8900   45.2430 C   0  0  0  0  0  0  0  0  0  0  0  0
   44.9580   34.6460   45.5850 N   0  0  0  0  0  0  0  0  0  0  0  0
   45.3950   32.5390   47.2610 C   0  0  1  0  0  0  0  0  0  0  0  0
   46.4320   32.8650   46.2270 C   0  0  1  0  0  0  0  0  0  0  0  0
   46.5060   31.4880   45.5300 C   0  0  0  0  0  0  0  0  0  0  0  0
   46.2380   30.5520   46.4770 O   0  0  0  0  0  0  0  0  0  0  0  0
   45.9250   31.1710   47.6840 C   0  0  0  0  0  0  0  0  0  0  0  0
   45.2800   33.4450   48.2710 O   0  0  0  0  0  0  0  0  0  0  0  0
   46.8880   35.3320   42.0090 O   0  0  0  0  0  0  0  0  0  0  0  0
   46.6500   32.9440   40.8550 O   0  0  0  0  0  0  0  0  0  0  0  0
   47.6350   34.0620   41.1480 P   0  0  1  0  0  0  0  0  0  0  0  0
   48.3060   34.6700   39.7480 O   0  0  0  0  0  0  0  0  0  0  0  0
   48.8380   33.4380   42.1740 O   0  0  0  0  0  0  0  0  0  0  0  0
   50.8070   32.1930   42.3090 C   0  0  1  0  0  0  0  0  0  0  0  0
   49.4470   32.3260   41.6530 C   0  0  2  0  0  0  0  0  0  0  0  0
   49.8130   32.4400   40.3140 O   0  0  0  0  0  0  0  0  0  0  0  0
   50.5650   31.2520   40.1690 C   0  0  0  0  0  0  0  0  0  0  0  0
   51.5910   31.4260   41.2690 C   0  0  1  0  0  0  0  0  0  0  0  0
   51.3370   33.4750   42.4230 O   0  0  0  0  0  0  0  0  0  0  0  0
   52.6160   32.2060   40.7480 O   0  0  0  0  0  0  0  0  0  0  0  0
   43.6508   36.2161   45.0484 H   0  0  0  0  0  0  0  0  0  0  0  0
   44.8158   36.6559   42.8569 H   0  0  0  0  0  0  0  0  0  0  0  0
   44.3554   32.5535   46.9018 H   0  0  0  0  0  0  0  0  0  0  0  0
   47.3532   33.2825   46.6596 H   0  0  0  0  0  0  0  0  0  0  0  0
   45.7618   31.4325   44.7219 H   0  0  0  0  0  0  0  0  0  0  0  0
   47.4985   31.3248   45.0846 H   0  0  0  0  0  0  0  0  0  0  0  0
   46.8197   31.2748   48.3154 H   0  0  0  0  0  0  0  0  0  0  0  0
   45.2003   30.5987   48.2818 H   0  0  0  0  0  0  0  0  0  0  0  0
   45.3393   32.9778   49.1418 H   0  0  0  0  0  0  0  0  0  0  0  0
   49.0196   35.3166   39.9778 H   0  0  0  0  0  0  0  0  0  0  0  0
   50.8049   31.7150   43.2997 H   0  0  0  0  0  0  0  0  0  0  0  0
   48.7231   31.5115   41.8032 H   0  0  0  0  0  0  0  0  0  0  0  0
   49.9447   30.3584   40.3323 H   0  0  0  0  0  0  0  0  0  0  0  0
   50.9940   31.1054   39.1668 H   0  0  0  0  0  0  0  0  0  0  0  0
   52.0349   30.5025   41.6691 H   0  0  0  0  0  0  0  0  0  0  0  0
   51.4334   33.7083   43.3803 H   0  0  0  0  0  0  0  0  0  0  0  0
   53.1380   32.6032   41.4895 H   0  0  0  0  0  0  0  0  0  0  0  0
  1  6  2  0
  2  1  1  0
  3  2  2  0
  3  4  1  0
  4  5  2  0
  5  6  1  0
  5  8  1  0
  7 11  1  0
  7 12  1  0
  8  7  1  0
  9  8  1  0
  9 10  1  0
 10 11  1  0
 13  3  1  0
 15 14  2  0
 15 13  1  0
 15 17  1  0
 16 15  1  0
 18 23  1  0
 19 17  1  0
 19 18  1  0
 20 19  1  0
 21 20  1  0
 21 22  1  0
 22 24  1  0
 22 18  1  0
  1 25  1  0
  2 26  1  0
  7 27  1  6
  8 28  1  1
  9 29  1  0
  9 30  1  0
 11 31  1  0
 11 32  1  0
 12 33  1  0
 16 34  1  0
 18 35  1  1
 19 36  1  6
 21 37  1  0
 21 38  1  0
 22 39  1  1
 23 40  1  0
 24 41  1  0
M  ISO  8  25  14  26  14  27  13  28  13  29  13  30  13  31  13  32  13
M  ISO  8  33   3  34   3  35  13  36  13  37  13  38  13  39  13  40   3
M  ISO  1  41   3
M  END
>  <minimizedAffinity>  (1) 
-6.55677128

>  <minimizedRMSD>  (1) 
1.565431

$$$$
