
     RDKit          3D

 48 51  0  0  1  0  0  0  0  0999 V2000
   42.2600   34.1310   39.0540 C   0  0  1  0  0  0  0  0  0  0  0  0
   42.8140   35.0470   40.1500 C   0  0  1  0  0  0  0  0  0  0  0  0
   41.7370   35.7170   40.7640 O   0  0  0  0  0  0  0  0  0  0  0  0
   40.7100   36.0280   39.8710 C   0  0  0  0  0  0  0  0  0  0  0  0
   39.9790   34.7790   39.4220 C   0  0  2  0  0  0  0  0  0  0  0  0
   40.9510   33.5960   39.6070 C   0  0  1  0  0  0  0  0  0  0  0  0
   42.0240   34.8620   37.8910 O   0  0  0  0  0  0  0  0  0  0  0  0
   39.7910   34.8570   38.0390 O   0  0  0  0  0  0  0  0  0  0  0  0
   43.3010   34.1930   41.1470 O   0  0  0  0  0  0  0  0  0  0  0  0
   44.4460   34.3580   41.8200 C   0  0  0  0  0  0  0  0  0  0  0  0
   45.6610   34.4480   41.1480 C   0  0  0  0  0  0  0  0  0  0  0  0
   46.8210   34.6220   41.8840 C   0  0  0  0  0  0  0  0  0  0  0  0
   46.7450   34.7020   43.2670 N   0  0  0  0  0  0  0  0  0  0  0  0
   45.5490   34.6090   43.8800 C   0  0  0  0  0  0  0  0  0  0  0  0
   44.4060   34.4400   43.1730 N   0  0  0  0  0  0  0  0  0  0  0  0
   48.1600   34.7060   41.2090 C   0  0  0  0  0  0  0  0  0  0  0  0
   48.9980   35.9350   41.4800 C   0  0  0  0  0  0  0  0  0  0  0  0
   49.3670   34.5270   41.9720 C   0  0  0  0  0  0  0  0  0  0  0  0
   40.4910   32.4750   38.9510 O   0  0  0  0  0  0  0  0  0  0  0  0
   39.9320   31.9660   41.2400 C   0  0  2  0  0  0  0  0  0  0  0  0
   40.2320   31.4550   39.8560 C   0  0  2  0  0  0  0  0  0  0  0  0
   41.4550   30.8030   40.0450 O   0  0  0  0  0  0  0  0  0  0  0  0
   41.4200   30.1630   41.2600 C   0  0  0  0  0  0  0  0  0  0  0  0
   40.3110   30.7600   42.0910 C   0  0  1  0  0  0  0  0  0  0  0  0
   38.5540   32.1390   41.4580 O   0  0  0  0  0  0  0  0  0  0  0  0
   40.7340   31.1290   43.3630 O   0  0  0  0  0  0  0  0  0  0  0  0
   42.9620   33.3240   38.7971 H   0  0  0  0  0  0  0  0  0  0  0  0
   43.5565   35.7459   39.7374 H   0  0  0  0  0  0  0  0  0  0  0  0
   39.9964   36.7034   40.3656 H   0  0  0  0  0  0  0  0  0  0  0  0
   41.1511   36.5110   38.9866 H   0  0  0  0  0  0  0  0  0  0  0  0
   39.0346   34.6699   39.9753 H   0  0  0  0  0  0  0  0  0  0  0  0
   41.0618   33.2639   40.6498 H   0  0  0  0  0  0  0  0  0  0  0  0
   41.7288   35.7762   38.1301 H   0  0  0  0  0  0  0  0  0  0  0  0
   38.8937   35.2293   37.8484 H   0  0  0  0  0  0  0  0  0  0  0  0
   45.6995   34.3821   40.0507 H   0  0  0  0  0  0  0  0  0  0  0  0
   45.4996   34.6716   44.9771 H   0  0  0  0  0  0  0  0  0  0  0  0
   47.7695   34.2133   40.3064 H   0  0  0  0  0  0  0  0  0  0  0  0
   49.5693   36.4128   40.6704 H   0  0  0  0  0  0  0  0  0  0  0  0
   48.8412   36.9243   41.9346 H   0  0  0  0  0  0  0  0  0  0  0  0
   49.3064   34.2886   43.0441 H   0  0  0  0  0  0  0  0  0  0  0  0
   50.2534   33.8829   41.8749 H   0  0  0  0  0  0  0  0  0  0  0  0
   40.4375   32.9232   41.4355 H   0  0  0  0  0  0  0  0  0  0  0  0
   39.3923   30.8624   39.4639 H   0  0  0  0  0  0  0  0  0  0  0  0
   41.2315   29.0900   41.1076 H   0  0  0  0  0  0  0  0  0  0  0  0
   42.3832   30.2875   41.7765 H   0  0  0  0  0  0  0  0  0  0  0  0
   39.4818   30.0665   42.2948 H   0  0  0  0  0  0  0  0  0  0  0  0
   38.3741   32.1616   42.4313 H   0  0  0  0  0  0  0  0  0  0  0  0
   40.1909   30.6552   44.0417 H   0  0  0  0  0  0  0  0  0  0  0  0
  1  6  1  0
  1  2  1  0
  2  3  1  0
  2  9  1  0
  4  3  1  0
  5  6  1  0
  5  4  1  0
  7  1  1  0
  8  5  1  0
  9 10  1  0
 10 15  1  0
 11 10  2  0
 11 12  1  0
 12 13  2  0
 13 14  1  0
 15 14  2  0
 16 17  1  0
 16 12  1  0
 16 18  1  0
 17 18  1  0
 19  6  1  0
 20 25  1  0
 20 24  1  0
 21 19  1  0
 21 22  1  0
 21 20  1  0
 22 23  1  0
 23 24  1  0
 24 26  1  0
  1 27  1  6
  2 28  1  6
  4 29  1  0
  4 30  1  0
  5 31  1  1
  6 32  1  1
  7 33  1  0
  8 34  1  0
 11 35  1  0
 14 36  1  0
 16 37  1  0
 17 38  1  0
 17 39  1  0
 18 40  1  0
 18 41  1  0
 20 42  1  1
 21 43  1  6
 23 44  1  0
 23 45  1  0
 24 46  1  1
 25 47  1  0
 26 48  1  0
M  ISO  8  27  13  28  13  29  13  30  13  31  13  32  13  33   3  34   3
M  ISO  8  35  14  36  14  37  13  38  13  39  13  40  13  41  13  42  13
M  ISO  6  43  13  44  13  45  13  46  13  47   3  48   3
M  END
>  <minimizedAffinity>  (1) 
-6.4994812

>  <minimizedRMSD>  (1) 
1.58557785

$$$$
