
     RDKit          3D

 49 52  0  0  1  0  0  0  0  0999 V2000
   45.1810   35.5450   43.1380 C   0  0  0  0  0  0  0  0  0  0  0  0
   45.5500   34.2120   43.2150 C   0  0  0  0  0  0  0  0  0  0  0  0
   45.4550   33.5440   44.4100 C   0  0  0  0  0  0  0  0  0  0  0  0
   44.9810   34.2570   45.4920 N   0  0  0  0  0  0  0  0  0  0  0  0
   44.6260   35.5380   45.4100 C   0  0  0  0  0  0  0  0  0  0  0  0
   44.7320   36.1720   44.2230 N   0  0  0  0  0  0  0  0  0  0  0  0
   45.7910   32.1910   44.6540 C   0  0  0  0  0  0  0  0  0  0  0  0
   45.4550   31.1350   43.8020 C   0  0  0  0  0  0  0  0  0  0  0  0
   45.7200   29.8170   44.0680 C   0  0  0  0  0  0  0  0  0  0  0  0
   46.3540   29.4730   45.2380 C   0  0  0  0  0  0  0  0  0  0  0  0
   46.7110   30.5340   46.1260 C   0  0  0  0  0  0  0  0  0  0  0  0
   47.3410   30.2000   47.2890 C   0  0  0  0  0  0  0  0  0  0  0  0
   47.7140   31.1800   48.1870 C   0  0  0  0  0  0  0  0  0  0  0  0
   47.4400   32.5250   47.8920 C   0  0  0  0  0  0  0  0  0  0  0  0
   46.7880   32.8170   46.6810 C   0  0  0  0  0  0  0  0  0  0  0  0
   46.4270   31.8230   45.8120 C   0  0  0  0  0  0  0  0  0  0  0  0
   45.9990   33.6200   42.0680 O   0  0  0  0  0  0  0  0  0  0  0  0
   48.2020   32.4150   41.3290 O   0  0  0  0  0  0  0  0  0  0  0  0
   47.5770   33.7550   41.4670 P   0  0  1  0  0  0  0  0  0  0  0  0
   47.5860   34.4650   39.9320 O   0  0  0  0  0  0  0  0  0  0  0  0
   48.3060   34.2620   37.7080 C   0  0  2  0  0  0  0  0  0  0  0  0
   47.8900   33.5380   38.9450 C   0  0  2  0  0  0  0  0  0  0  0  0
   46.7650   32.7840   38.6270 O   0  0  0  0  0  0  0  0  0  0  0  0
   46.8940   32.4300   37.2860 C   0  0  0  0  0  0  0  0  0  0  0  0
   47.4480   33.6490   36.6130 C   0  0  2  0  0  0  0  0  0  0  0  0
   49.6490   33.9960   37.3940 O   0  0  0  0  0  0  0  0  0  0  0  0
   48.1930   33.2790   35.5080 O   0  0  0  0  0  0  0  0  0  0  0  0
   48.4570   34.7270   42.5160 O   0  0  0  0  0  0  0  0  0  0  0  0
   49.6730   35.3410   42.2560 C   0  0  0  0  0  0  0  0  0  0  0  0
   49.3730   36.4100   41.6970 O   0  0  0  0  0  0  0  0  0  0  0  0
   50.7690   34.5260   42.7210 N   0  0  0  0  0  0  0  0  0  0  0  0
   45.2589   36.0842   42.1824 H   0  0  0  0  0  0  0  0  0  0  0  0
   44.2520   36.0714   46.2963 H   0  0  0  0  0  0  0  0  0  0  0  0
   44.9454   31.3774   42.8578 H   0  0  0  0  0  0  0  0  0  0  0  0
   45.4267   29.0382   43.3487 H   0  0  0  0  0  0  0  0  0  0  0  0
   46.5775   28.4237   45.4808 H   0  0  0  0  0  0  0  0  0  0  0  0
   47.5530   29.1440   47.5125 H   0  0  0  0  0  0  0  0  0  0  0  0
   48.2212   30.9096   49.1249 H   0  0  0  0  0  0  0  0  0  0  0  0
   47.7270   33.3270   48.5880 H   0  0  0  0  0  0  0  0  0  0  0  0
   46.5639   33.8636   46.4273 H   0  0  0  0  0  0  0  0  0  0  0  0
   48.1920   35.3499   37.8241 H   0  0  0  0  0  0  0  0  0  0  0  0
   48.6924   32.8833   39.3159 H   0  0  0  0  0  0  0  0  0  0  0  0
   47.5839   31.5804   37.1753 H   0  0  0  0  0  0  0  0  0  0  0  0
   45.9348   32.1169   36.8479 H   0  0  0  0  0  0  0  0  0  0  0  0
   46.6906   34.3489   36.2304 H   0  0  0  0  0  0  0  0  0  0  0  0
   50.1692   33.8930   38.2300 H   0  0  0  0  0  0  0  0  0  0  0  0
   49.0386   32.8590   35.8057 H   0  0  0  0  0  0  0  0  0  0  0  0
   51.7393   34.8493   42.5987 H   0  0  0  0  0  0  0  0  0  0  0  0
   50.5812   33.6209   43.1753 H   0  0  0  0  0  0  0  0  0  0  0  0
  1  2  2  0
  1  6  1  0
  2  3  1  0
  3  7  1  0
  3  4  2  0
  5  4  1  0
  6  5  2  0
  7 16  2  0
  8  9  2  0
  8  7  1  0
  9 10  1  0
 10 11  2  0
 11 12  1  0
 12 13  2  0
 14 13  1  0
 15 14  2  0
 16 11  1  0
 16 15  1  0
 17  2  1  0
 19 18  2  0
 19 17  1  0
 19 28  1  0
 20 19  1  0
 21 26  1  0
 21 22  1  0
 22 20  1  0
 23 22  1  0
 24 23  1  0
 25 27  1  0
 25 24  1  0
 25 21  1  0
 29 28  1  0
 29 31  1  0
 30 29  2  0
  1 32  1  0
  5 33  1  0
  8 34  1  0
  9 35  1  0
 10 36  1  0
 12 37  1  0
 13 38  1  0
 14 39  1  0
 15 40  1  0
 21 41  1  1
 22 42  1  1
 24 43  1  0
 24 44  1  0
 25 45  1  6
 26 46  1  0
 27 47  1  0
 31 48  1  0
 31 49  1  0
M  ISO  8  32  14  33  14  34  14  35  14  36  14  37  14  38  14  39  14
M  ISO  8  40  14  41  13  42  13  43  13  44  13  45  13  46   3  47   3
M  END
>  <minimizedAffinity>  (1) 
-6.96488476

>  <minimizedRMSD>  (1) 
1.00055492

$$$$
