
     RDKit          3D

 27 28  0  0  1  0  0  0  0  0999 V2000
   44.5930   34.6470   41.2500 C   0  0  0  0  0  0  0  0  0  0  0  0
   44.4460   35.7390   43.4080 C   0  0  0  0  0  0  0  0  0  0  0  0
   44.7810   34.5870   42.7030 C   0  0  0  0  0  0  0  0  0  0  0  0
   45.2550   33.5100   43.4410 C   0  0  0  0  0  0  0  0  0  0  0  0
   45.3600   33.6390   44.7620 N   0  0  0  0  0  0  0  0  0  0  0  0
   45.0240   34.7770   45.4190 C   0  0  0  0  0  0  0  0  0  0  0  0
   44.5470   35.8900   44.7620 N   0  0  0  0  0  0  0  0  0  0  0  0
   43.3140   34.2700   40.8540 O   0  0  0  0  0  0  0  0  0  0  0  0
   42.3710   34.6500   38.6680 C   0  0  1  0  0  0  0  0  0  0  0  0
   42.7000   35.1850   40.0220 C   0  0  1  0  0  0  0  0  0  0  0  0
   41.5510   35.6430   40.6200 O   0  0  0  0  0  0  0  0  0  0  0  0
   40.5150   35.5450   39.7150 C   0  0  0  0  0  0  0  0  0  0  0  0
   41.1410   35.4750   38.3330 C   0  0  2  0  0  0  0  0  0  0  0  0
   43.3100   34.9380   37.6870 O   0  0  0  0  0  0  0  0  0  0  0  0
   40.3270   34.8950   37.3930 O   0  0  0  0  0  0  0  0  0  0  0  0
   44.7744   35.6789   40.9149 H   0  0  0  0  0  0  0  0  0  0  0  0
   45.3016   33.9387   40.7958 H   0  0  0  0  0  0  0  0  0  0  0  0
   44.0702   36.5957   42.8294 H   0  0  0  0  0  0  0  0  0  0  0  0
   45.5377   32.5701   42.9444 H   0  0  0  0  0  0  0  0  0  0  0  0
   45.1361   34.8124   46.5127 H   0  0  0  0  0  0  0  0  0  0  0  0
   42.2852   33.5535   38.6879 H   0  0  0  0  0  0  0  0  0  0  0  0
   43.4240   35.9986   39.8674 H   0  0  0  0  0  0  0  0  0  0  0  0
   39.9269   34.6361   39.9103 H   0  0  0  0  0  0  0  0  0  0  0  0
   39.8378   36.4080   39.7970 H   0  0  0  0  0  0  0  0  0  0  0  0
   41.3476   36.4474   37.8621 H   0  0  0  0  0  0  0  0  0  0  0  0
   44.1638   35.1999   38.1142 H   0  0  0  0  0  0  0  0  0  0  0  0
   39.6104   34.3844   37.8468 H   0  0  0  0  0  0  0  0  0  0  0  0
  1  3  1  0
  2  7  2  0
  3  2  1  0
  3  4  2  0
  4  5  1  0
  5  6  2  0
  7  6  1  0
  8  1  1  0
  9 14  1  0
  9 10  1  0
 10 11  1  0
 10  8  1  0
 12 11  1  0
 13 15  1  0
 13  9  1  0
 13 12  1  0
  1 16  1  0
  1 17  1  0
  2 18  1  0
  4 19  1  0
  6 20  1  0
  9 21  1  1
 10 22  1  6
 12 23  1  0
 12 24  1  0
 13 25  1  6
 14 26  1  0
 15 27  1  0
M  ISO  8  16   8  17   8  18  14  19  14  20  14  21  13  22  13  23  13
M  ISO  4  24  13  25  13  26   3  27   3
M  END
>  <minimizedAffinity>  (1) 
-4.64840794

>  <minimizedRMSD>  (1) 
0.897195518

$$$$
