
     RDKit          3D

 38 40  0  0  1  0  0  0  0  0999 V2000
   48.2200   34.5750   41.2350 C   0  0  1  0  0  0  0  0  0  0  0  0
   48.8620   35.9250   41.7500 C   0  0  0  0  0  0  0  0  0  0  0  0
   49.1290   34.6210   42.3760 C   0  0  2  0  0  0  0  0  0  0  0  0
   46.7450   34.5510   41.4480 C   0  0  0  0  0  0  0  0  0  0  0  0
   46.0380   34.3140   40.4740 O   0  0  0  0  0  0  0  0  0  0  0  0
   45.4050   35.9040   42.9870 C   0  0  0  0  0  0  0  0  0  0  0  0
   46.1050   34.7810   42.7000 C   0  0  0  0  0  0  0  0  0  0  0  0
   46.1890   33.7870   43.7160 C   0  0  0  0  0  0  0  0  0  0  0  0
   45.5920   33.9770   44.9070 N   0  0  0  0  0  0  0  0  0  0  0  0
   44.8930   35.1310   45.1550 C   0  0  0  0  0  0  0  0  0  0  0  0
   44.8130   36.0550   44.2100 N   0  0  0  0  0  0  0  0  0  0  0  0
   50.4500   34.2030   42.2390 O   0  0  0  0  0  0  0  0  0  0  0  0
   49.1330   32.0400   42.7530 O   0  0  0  0  0  0  0  0  0  0  0  0
   50.4020   32.5130   42.0640 P   0  0  2  0  0  0  0  0  0  0  0  0
   51.7550   31.7410   42.6420 O   0  0  0  0  0  0  0  0  0  0  0  0
   50.1430   32.1650   40.3920 O   0  0  0  0  0  0  0  0  0  0  0  0
   51.3970   31.3440   38.4980 C   0  0  2  0  0  0  0  0  0  0  0  0
   51.2580   31.4450   40.0010 C   0  0  2  0  0  0  0  0  0  0  0  0
   51.2180   30.1430   40.4810 O   0  0  0  0  0  0  0  0  0  0  0  0
   51.7360   29.3060   39.5300 C   0  0  0  0  0  0  0  0  0  0  0  0
   52.3280   30.1480   38.4180 C   0  0  1  0  0  0  0  0  0  0  0  0
   51.9430   32.4780   37.9370 O   0  0  0  0  0  0  0  0  0  0  0  0
   52.2410   29.5100   37.1860 O   0  0  0  0  0  0  0  0  0  0  0  0
   48.1917   33.9473   40.3321 H   0  0  0  0  0  0  0  0  0  0  0  0
   49.6415   36.4321   41.1624 H   0  0  0  0  0  0  0  0  0  0  0  0
   48.4909   36.9056   42.0829 H   0  0  0  0  0  0  0  0  0  0  0  0
   49.0176   34.1931   43.3832 H   0  0  0  0  0  0  0  0  0  0  0  0
   45.3122   36.6988   42.2323 H   0  0  0  0  0  0  0  0  0  0  0  0
   46.7457   32.8575   43.5261 H   0  0  0  0  0  0  0  0  0  0  0  0
   44.4044   35.2870   46.1281 H   0  0  0  0  0  0  0  0  0  0  0  0
   51.7417   31.7486   43.6319 H   0  0  0  0  0  0  0  0  0  0  0  0
   50.4504   31.2391   37.9475 H   0  0  0  0  0  0  0  0  0  0  0  0
   52.1100   32.0005   40.4199 H   0  0  0  0  0  0  0  0  0  0  0  0
   52.5203   28.6773   39.9768 H   0  0  0  0  0  0  0  0  0  0  0  0
   50.9444   28.6558   39.1292 H   0  0  0  0  0  0  0  0  0  0  0  0
   53.3995   30.3757   38.5181 H   0  0  0  0  0  0  0  0  0  0  0  0
   52.2386   33.0920   38.6552 H   0  0  0  0  0  0  0  0  0  0  0  0
   52.1086   28.5389   37.3259 H   0  0  0  0  0  0  0  0  0  0  0  0
  1  4  1  0
  1  2  1  0
  1  3  1  0
  2  3  1  0
  4  7  1  0
  5  4  2  0
  6 11  2  0
  7  6  1  0
  7  8  2  0
  8  9  1  0
  9 10  2  0
 11 10  1  0
 12  3  1  0
 14 12  1  0
 14 15  1  0
 14 13  2  0
 16 14  1  0
 17 22  1  0
 17 18  1  0
 18 16  1  0
 18 19  1  0
 20 19  1  0
 21 23  1  0
 21 17  1  0
 21 20  1  0
  1 24  1  6
  2 25  1  0
  2 26  1  0
  3 27  1  1
  6 28  1  0
  8 29  1  0
 10 30  1  0
 15 31  1  0
 17 32  1  6
 18 33  1  1
 20 34  1  0
 20 35  1  0
 21 36  1  1
 22 37  1  0
 23 38  1  0
M  ISO  8  24  13  25  13  26  13  27  13  28  14  29  14  30  14  31   3
M  ISO  7  32  13  33  13  34  13  35  13  36  13  37   3  38   3
M  END
>  <minimizedAffinity>  (1) 
-5.45558691

>  <minimizedRMSD>  (1) 
1.27422297

$$$$
