
     RDKit          3D

 47 49  0  0  1  0  0  0  0  0999 V2000
   43.8030   34.8870   40.8630 O   0  0  0  0  0  0  0  0  0  0  0  0
   42.5350   35.3690   40.8600 C   0  0  0  0  0  0  0  0  0  0  0  0
   41.9070   33.0350   40.5120 C   0  0  0  0  0  0  0  0  0  0  0  0
   41.4800   34.3040   40.9440 C   0  0  0  0  0  0  0  0  0  0  0  0
   40.2090   34.4390   41.3910 C   0  0  0  0  0  0  0  0  0  0  0  0
   39.4540   33.3310   41.3860 N   0  0  0  0  0  0  0  0  0  0  0  0
   39.8400   32.1390   40.9870 C   0  0  0  0  0  0  0  0  0  0  0  0
   41.1380   31.9430   40.5140 N   0  0  0  0  0  0  0  0  0  0  0  0
   39.2680   29.9720   42.1030 C   0  0  1  0  0  0  0  0  0  0  0  0
   38.9730   30.9260   40.9940 C   0  0  1  0  0  0  0  0  0  0  0  0
   37.6380   31.2690   41.2640 O   0  0  0  0  0  0  0  0  0  0  0  0
   37.0250   30.0530   41.4490 C   0  0  0  0  0  0  0  0  0  0  0  0
   38.0130   29.0910   42.0460 C   0  0  1  0  0  0  0  0  0  0  0  0
   40.3870   29.1820   41.8610 O   0  0  0  0  0  0  0  0  0  0  0  0
   38.2810   28.1100   41.0870 O   0  0  0  0  0  0  0  0  0  0  0  0
   44.7730   35.0330   41.8410 C   0  0  0  0  0  0  0  0  0  0  0  0
   44.3340   35.3430   43.0590 C   0  0  0  0  0  0  0  0  0  0  0  0
   45.2290   35.5440   44.2700 C   0  0  0  0  0  0  0  0  0  0  0  0
   44.9190   34.5420   45.1670 O   0  0  0  0  0  0  0  0  0  0  0  0
   45.5710   32.0800   44.3870 O   0  0  0  0  0  0  0  0  0  0  0  0
   46.0720   33.3130   45.1040 P   0  0  1  0  0  0  0  0  0  0  0  0
   47.4490   33.8560   44.2550 O   0  0  0  0  0  0  0  0  0  0  0  0
   46.5830   32.9100   46.6600 O   0  0  0  0  0  0  0  0  0  0  0  0
   45.5290   32.6710   47.5160 C   0  0  0  0  0  0  0  0  0  0  0  0
   45.8150   32.2320   48.9190 C   0  0  0  0  0  0  0  0  0  0  0  0
   45.3120   31.2270   47.8930 C   0  0  0  0  0  0  0  0  0  0  0  0
   42.4179   36.0415   41.7226 H   0  0  0  0  0  0  0  0  0  0  0  0
   42.3917   35.8858   39.8996 H   0  0  0  0  0  0  0  0  0  0  0  0
   42.9407   32.9358   40.1492 H   0  0  0  0  0  0  0  0  0  0  0  0
   39.8169   35.4058   41.7395 H   0  0  0  0  0  0  0  0  0  0  0  0
   39.4793   30.4752   43.0580 H   0  0  0  0  0  0  0  0  0  0  0  0
   39.1551   30.4811   40.0046 H   0  0  0  0  0  0  0  0  0  0  0  0
   36.1689   30.1716   42.1295 H   0  0  0  0  0  0  0  0  0  0  0  0
   36.6684   29.6666   40.4828 H   0  0  0  0  0  0  0  0  0  0  0  0
   37.6947   28.6278   42.9916 H   0  0  0  0  0  0  0  0  0  0  0  0
   40.7851   28.9009   42.7227 H   0  0  0  0  0  0  0  0  0  0  0  0
   38.5130   27.2607   41.5397 H   0  0  0  0  0  0  0  0  0  0  0  0
   45.8432   34.9006   41.6240 H   0  0  0  0  0  0  0  0  0  0  0  0
   43.2493   35.4617   43.1980 H   0  0  0  0  0  0  0  0  0  0  0  0
   46.2864   35.4740   43.9749 H   0  0  0  0  0  0  0  0  0  0  0  0
   45.0702   36.5364   44.7172 H   0  0  0  0  0  0  0  0  0  0  0  0
   48.1473   34.1314   44.9005 H   0  0  0  0  0  0  0  0  0  0  0  0
   44.9187   33.4812   47.0904 H   0  0  0  0  0  0  0  0  0  0  0  0
   46.8534   32.1789   49.2780 H   0  0  0  0  0  0  0  0  0  0  0  0
   45.4865   32.5551   49.9178 H   0  0  0  0  0  0  0  0  0  0  0  0
   44.2914   30.8237   47.9695 H   0  0  0  0  0  0  0  0  0  0  0  0
   45.6633   30.2574   47.5104 H   0  0  0  0  0  0  0  0  0  0  0  0
  1 16  1  0
  2  1  1  0
  2  4  1  0
  3  8  2  0
  3  4  1  0
  4  5  2  0
  6  5  1  0
  7  6  2  0
  8  7  1  0
  9 14  1  0
 10  7  1  0
 10 11  1  0
 10  9  1  0
 11 12  1  0
 12 13  1  0
 13 15  1  0
 13  9  1  0
 16 17  2  0
 17 18  1  0
 18 19  1  0
 21 20  2  0
 21 19  1  0
 21 23  1  0
 22 21  1  0
 23 24  1  0
 24 26  1  0
 24 25  1  0
 26 25  1  0
  2 27  1  0
  2 28  1  0
  3 29  1  0
  5 30  1  0
  9 31  1  1
 10 32  1  6
 12 33  1  0
 12 34  1  0
 13 35  1  1
 14 36  1  0
 15 37  1  0
 16 38  1  0
 17 39  1  0
 18 40  1  0
 18 41  1  0
 22 42  1  0
 24 43  1  0
 25 44  1  0
 25 45  1  0
 26 46  1  0
 26 47  1  0
M  ISO  8  27   8  28   8  29  14  30  14  31  13  32  13  33  13  34  13
M  ISO  8  35  13  36   3  37   3  40   8  41   8  42   3  43  13  44  13
M  ISO  3  45  13  46  13  47  13
M  END
>  <minimizedAffinity>  (1) 
-5.29263783

>  <minimizedRMSD>  (1) 
1.66208792

$$$$
