
     RDKit          3D

 28 29  0  0  0  0  0  0  0  0999 V2000
   45.3340   35.3940   43.5650 C   0  0  0  0  0  0  0  0  0  0  0  0
   46.4150   34.8510   42.8570 C   0  0  0  0  0  0  0  0  0  0  0  0
   47.1860   33.8250   43.4450 C   0  0  0  0  0  0  0  0  0  0  0  0
   46.8210   33.4260   44.6800 N   0  0  0  0  0  0  0  0  0  0  0  0
   45.7960   33.9450   45.3440 C   0  0  0  0  0  0  0  0  0  0  0  0
   45.0650   34.9180   44.7860 N   0  0  0  0  0  0  0  0  0  0  0  0
   44.5690   36.4230   42.9610 N   0  0  0  0  0  0  0  0  0  0  0  0
   45.3710   33.5450   46.6720 C   0  0  0  0  0  0  0  0  0  0  0  0
   44.4510   34.0870   47.3320 O   0  0  0  0  0  0  0  0  0  0  0  0
   45.9720   32.4640   47.3840 N   0  0  0  0  0  0  0  0  0  0  0  0
   45.1850   32.0350   48.5010 C   0  0  0  0  0  0  0  0  0  0  0  0
   45.7600   30.9500   49.3280 C   0  0  0  0  0  0  0  0  0  0  0  0
   47.1820   30.8540   49.3570 N   0  0  0  0  0  0  0  0  0  0  0  0
   47.8930   31.7630   48.5270 C   0  0  0  0  0  0  0  0  0  0  0  0
   47.2210   31.7600   47.1480 C   0  0  0  0  0  0  0  0  0  0  0  0
   46.6607   35.2215   41.8508 H   0  0  0  0  0  0  0  0  0  0  0  0
   48.0418   33.3736   42.9217 H   0  0  0  0  0  0  0  0  0  0  0  0
   44.8118   36.7595   42.0183 H   0  0  0  0  0  0  0  0  0  0  0  0
   43.7703   36.8343   43.4648 H   0  0  0  0  0  0  0  0  0  0  0  0
   45.0260   32.9060   49.1537 H   0  0  0  0  0  0  0  0  0  0  0  0
   44.2632   31.6184   48.0688 H   0  0  0  0  0  0  0  0  0  0  0  0
   45.4146   31.0996   50.3616 H   0  0  0  0  0  0  0  0  0  0  0  0
   45.4160   30.0158   48.8602 H   0  0  0  0  0  0  0  0  0  0  0  0
   47.4872   31.0116   50.3280 H   0  0  0  0  0  0  0  0  0  0  0  0
   47.8551   32.7735   48.9599 H   0  0  0  0  0  0  0  0  0  0  0  0
   48.9477   31.4624   48.4419 H   0  0  0  0  0  0  0  0  0  0  0  0
   47.0350   30.7324   46.8024 H   0  0  0  0  0  0  0  0  0  0  0  0
   47.8383   32.2280   46.3670 H   0  0  0  0  0  0  0  0  0  0  0  0
  1  6  2  0
  2  3  2  0
  2  1  1  0
  3  4  1  0
  4  5  2  0
  5  8  1  0
  6  5  1  0
  7  1  1  0
  8  9  2  0
  8 10  1  0
 10 11  1  0
 11 12  1  0
 12 13  1  0
 14 13  1  0
 15 10  1  0
 15 14  1  0
  2 16  1  0
  3 17  1  0
  7 18  1  0
  7 19  1  0
 11 20  1  0
 11 21  1  0
 12 22  1  0
 12 23  1  0
 13 24  1  0
 14 25  1  0
 14 26  1  0
 15 27  1  0
 15 28  1  0
M  ISO  8  16  14  17  14  20  13  21  13  22  13  23  13  24   5  25  13
M  ISO  3  26  13  27  13  28  13
M  END
>  <minimizedAffinity>  (1) 
-5.38371515

>  <minimizedRMSD>  (1) 
1.67445362

$$$$
