
     RDKit          3D

 44 47  0  0  1  0  0  0  0  0999 V2000
   48.0350   33.2200   43.1390 N   0  0  0  0  0  0  0  0  0  0  0  0
   49.1740   33.2510   42.3450 C   0  0  0  0  0  0  0  0  0  0  0  0
   50.3460   32.8410   42.5720 O   0  0  0  0  0  0  0  0  0  0  0  0
   46.3120   32.1060   44.5120 C   0  0  1  0  0  0  0  0  0  0  0  0
   46.4310   31.3360   43.3480 C   0  0  0  0  0  0  0  0  0  0  0  0
   47.6700   32.0910   43.9200 C   0  0  1  0  0  0  0  0  0  0  0  0
   45.0730   33.9650   43.1740 C   0  0  0  0  0  0  0  0  0  0  0  0
   45.5600   33.4400   44.4190 C   0  0  0  0  0  0  0  0  0  0  0  0
   45.3480   34.1950   45.5510 C   0  0  0  0  0  0  0  0  0  0  0  0
   44.7020   35.3760   45.4440 N   0  0  0  0  0  0  0  0  0  0  0  0
   44.2480   35.8620   44.2610 C   0  0  0  0  0  0  0  0  0  0  0  0
   44.4460   35.1230   43.0900 N   0  0  0  0  0  0  0  0  0  0  0  0
   49.0990   33.8550   40.9550 C   0  0  2  0  0  0  0  0  0  0  0  0
   48.5770   35.3400   40.8790 C   0  0  0  0  0  0  0  0  0  0  0  0
   47.8120   34.1830   40.3360 C   0  0  1  0  0  0  0  0  0  0  0  0
   47.7090   34.0550   38.8340 C   0  0  0  0  0  0  0  0  0  0  0  0
   48.4390   34.7080   38.1040 O   0  0  0  0  0  0  0  0  0  0  0  0
   46.7700   33.1800   38.2120 N   0  0  0  0  0  0  0  0  0  0  0  0
   45.5400   32.9500   38.9390 C   0  0  0  0  0  0  0  0  0  0  0  0
   44.3210   33.2590   38.0970 C   0  0  0  0  0  0  0  0  0  0  0  0
   44.3740   32.4660   36.9080 N   0  0  0  0  0  0  0  0  0  0  0  0
   45.5780   32.6140   36.1450 C   0  0  0  0  0  0  0  0  0  0  0  0
   46.8420   32.4790   36.9690 C   0  0  0  0  0  0  0  0  0  0  0  0
   47.4284   34.0521   43.1626 H   0  0  0  0  0  0  0  0  0  0  0  0
   45.9166   31.8666   45.5102 H   0  0  0  0  0  0  0  0  0  0  0  0
   45.9626   31.6760   42.4126 H   0  0  0  0  0  0  0  0  0  0  0  0
   46.2106   30.2926   43.0781 H   0  0  0  0  0  0  0  0  0  0  0  0
   48.6848   31.8671   44.2808 H   0  0  0  0  0  0  0  0  0  0  0  0
   45.2286   33.3796   42.2558 H   0  0  0  0  0  0  0  0  0  0  0  0
   45.7007   33.8403   46.5307 H   0  0  0  0  0  0  0  0  0  0  0  0
   43.7278   36.8305   44.2233 H   0  0  0  0  0  0  0  0  0  0  0  0
   49.9725   33.2766   40.6197 H   0  0  0  0  0  0  0  0  0  0  0  0
   48.2350   35.8585   41.7869 H   0  0  0  0  0  0  0  0  0  0  0  0
   48.9551   36.2965   40.4888 H   0  0  0  0  0  0  0  0  0  0  0  0
   46.7861   33.8201   40.4965 H   0  0  0  0  0  0  0  0  0  0  0  0
   45.5011   31.8948   39.2474 H   0  0  0  0  0  0  0  0  0  0  0  0
   45.5298   33.6188   39.8123 H   0  0  0  0  0  0  0  0  0  0  0  0
   43.4091   33.0178   38.6628 H   0  0  0  0  0  0  0  0  0  0  0  0
   44.3063   34.3274   37.8355 H   0  0  0  0  0  0  0  0  0  0  0  0
   44.2844   31.4760   37.1779 H   0  0  0  0  0  0  0  0  0  0  0  0
   45.5899   31.8416   35.3619 H   0  0  0  0  0  0  0  0  0  0  0  0
   45.5722   33.6327   35.7300 H   0  0  0  0  0  0  0  0  0  0  0  0
   47.0142   31.4125   37.1764 H   0  0  0  0  0  0  0  0  0  0  0  0
   47.6652   32.9196   36.3874 H   0  0  0  0  0  0  0  0  0  0  0  0
  1  6  1  0
  2  3  2  0
  2  1  1  0
  5  6  1  0
  5  4  1  0
  6  4  1  0
  7  8  2  0
  8  4  1  0
  8  9  1  0
 10  9  2  0
 11 10  1  0
 12  7  1  0
 12 11  2  0
 13  2  1  0
 14 13  1  0
 15 14  1  0
 15 13  1  0
 16 15  1  0
 17 16  2  0
 18 16  1  0
 18 19  1  0
 20 19  1  0
 21 20  1  0
 22 21  1  0
 22 23  1  0
 23 18  1  0
  1 24  1  0
  4 25  1  1
  5 26  1  0
  5 27  1  0
  6 28  1  1
  7 29  1  0
  9 30  1  0
 11 31  1  0
 13 32  1  6
 14 33  1  0
 14 34  1  0
 15 35  1  1
 19 36  1  0
 19 37  1  0
 20 38  1  0
 20 39  1  0
 21 40  1  0
 22 41  1  0
 22 42  1  0
 23 43  1  0
 23 44  1  0
M  ISO  8  25  13  26  13  27  13  28  13  29  14  30  14  31  14  32  13
M  ISO  8  33  13  34  13  35  13  36  13  37  13  38  13  39  13  40   5
M  ISO  4  41  13  42  13  43  13  44  13
M  END
>  <minimizedAffinity>  (1) 
-5.37419891

>  <minimizedRMSD>  (1) 
0.0972680449

$$$$
