
     RDKit          3D

 26 27  0  0  0  0  0  0  0  0999 V2000
   46.8840   34.8840   41.9670 C   0  0  0  0  0  0  0  0  0  0  0  0
   47.9650   35.4830   41.7640 O   0  0  0  0  0  0  0  0  0  0  0  0
   46.3600   34.1270   40.8790 N   0  0  0  0  0  0  0  0  0  0  0  0
   44.9990   33.6660   40.8740 C   0  0  0  0  0  0  0  0  0  0  0  0
   44.4540   33.5130   39.4830 C   0  0  0  0  0  0  0  0  0  0  0  0
   45.2430   32.6660   38.6400 N   0  0  0  0  0  0  0  0  0  0  0  0
   46.6190   32.5490   39.0340 C   0  0  0  0  0  0  0  0  0  0  0  0
   47.1460   33.7800   39.7300 C   0  0  0  0  0  0  0  0  0  0  0  0
   44.5600   36.0350   44.5880 C   0  0  0  0  0  0  0  0  0  0  0  0
   45.2850   35.9840   43.3900 C   0  0  0  0  0  0  0  0  0  0  0  0
   46.1500   34.9110   43.2080 C   0  0  0  0  0  0  0  0  0  0  0  0
   46.2480   33.9720   44.1910 N   0  0  0  0  0  0  0  0  0  0  0  0
   45.5250   34.0630   45.3330 C   0  0  0  0  0  0  0  0  0  0  0  0
   44.6740   35.1010   45.5350 N   0  0  0  0  0  0  0  0  0  0  0  0
   44.9540   32.6907   41.3808 H   0  0  0  0  0  0  0  0  0  0  0  0
   44.3872   34.4177   41.3942 H   0  0  0  0  0  0  0  0  0  0  0  0
   43.4423   33.0868   39.5525 H   0  0  0  0  0  0  0  0  0  0  0  0
   44.4607   34.5135   39.0259 H   0  0  0  0  0  0  0  0  0  0  0  0
   45.2135   33.0467   37.6834 H   0  0  0  0  0  0  0  0  0  0  0  0
   46.7150   31.6929   39.7180 H   0  0  0  0  0  0  0  0  0  0  0  0
   47.2108   32.4142   38.1166 H   0  0  0  0  0  0  0  0  0  0  0  0
   48.1806   33.5902   40.0519 H   0  0  0  0  0  0  0  0  0  0  0  0
   47.0971   34.6185   39.0197 H   0  0  0  0  0  0  0  0  0  0  0  0
   43.8711   36.8762   44.7544 H   0  0  0  0  0  0  0  0  0  0  0  0
   45.1739   36.7638   42.6222 H   0  0  0  0  0  0  0  0  0  0  0  0
   45.6288   33.2868   46.1055 H   0  0  0  0  0  0  0  0  0  0  0  0
  1 11  1  0
  2  1  2  0
  3  1  1  0
  4  3  1  0
  5  4  1  0
  6  7  1  0
  6  5  1  0
  7  8  1  0
  8  3  1  0
  9 14  2  0
 10  9  1  0
 11 10  2  0
 11 12  1  0
 12 13  2  0
 13 14  1  0
  4 15  1  0
  4 16  1  0
  5 17  1  0
  5 18  1  0
  6 19  1  0
  7 20  1  0
  7 21  1  0
  8 22  1  0
  8 23  1  0
  9 24  1  0
 10 25  1  0
 13 26  1  0
M  ISO  8  15  13  16  13  17  13  18  13  19   5  20  13  21  13  22  13
M  ISO  4  23  13  24  14  25  14  26  14
M  END
>  <minimizedAffinity>  (1) 
-4.23191309

>  <minimizedRMSD>  (1) 
0.176176295

$$$$
