
     RDKit          3D

 41 43  0  0  0  0  0  0  0  0999 V2000
   45.1870   34.3400   41.0100 C   0  0  0  0  0  0  0  0  0  0  0  0
   45.4600   34.9020   42.2480 C   0  0  0  0  0  0  0  0  0  0  0  0
   46.7870   35.1410   42.5970 C   0  0  0  0  0  0  0  0  0  0  0  0
   47.7850   34.8200   41.7160 C   0  0  0  0  0  0  0  0  0  0  0  0
   47.5370   34.2630   40.4820 C   0  0  0  0  0  0  0  0  0  0  0  0
   46.1980   34.0330   40.1580 C   0  0  0  0  0  0  0  0  0  0  0  0
   45.8900   32.1810   38.3380 C   0  0  0  0  0  0  0  0  0  0  0  0
   46.4480   31.2060   38.8270 O   0  0  0  0  0  0  0  0  0  0  0  0
   45.8060   33.4680   38.9230 N   0  0  0  0  0  0  0  0  0  0  0  0
   45.2740   31.9810   37.0680 N   0  0  0  0  0  0  0  0  0  0  0  0
   44.4900   30.7690   36.9340 C   0  0  0  0  0  0  0  0  0  0  0  0
   43.4440   30.9110   35.8600 C   0  0  0  0  0  0  0  0  0  0  0  0
   43.9190   31.4110   34.6110 N   0  0  0  0  0  0  0  0  0  0  0  0
   45.2930   31.8410   34.7110 C   0  0  0  0  0  0  0  0  0  0  0  0
   45.3260   32.8250   35.8890 C   0  0  0  0  0  0  0  0  0  0  0  0
   41.5270   34.7530   40.1930 C   0  0  0  0  0  0  0  0  0  0  0  0
   42.8560   35.0960   40.4700 C   0  0  0  0  0  0  0  0  0  0  0  0
   43.7780   34.1180   40.7100 C   0  0  0  0  0  0  0  0  0  0  0  0
   43.3290   32.8280   40.6620 N   0  0  0  0  0  0  0  0  0  0  0  0
   42.0530   32.4900   40.3960 C   0  0  0  0  0  0  0  0  0  0  0  0
   41.1430   33.4640   40.1580 N   0  0  0  0  0  0  0  0  0  0  0  0
   40.5230   35.8030   39.9320 C   0  0  0  0  0  0  0  0  0  0  0  0
   39.2920   35.1640   39.7190 F   0  0  0  0  0  0  0  0  0  0  0  0
   40.8560   36.3820   38.7160 F   0  0  0  0  0  0  0  0  0  0  0  0
   40.4110   36.7180   40.9440 F   0  0  0  0  0  0  0  0  0  0  0  0
   44.6440   35.1542   42.9412 H   0  0  0  0  0  0  0  0  0  0  0  0
   47.0316   35.5845   43.5735 H   0  0  0  0  0  0  0  0  0  0  0  0
   48.8278   35.0153   42.0065 H   0  0  0  0  0  0  0  0  0  0  0  0
   48.3515   34.0119   39.7867 H   0  0  0  0  0  0  0  0  0  0  0  0
   45.3525   34.1538   38.3025 H   0  0  0  0  0  0  0  0  0  0  0  0
   45.1596   29.9358   36.6744 H   0  0  0  0  0  0  0  0  0  0  0  0
   43.9821   30.5760   37.8905 H   0  0  0  0  0  0  0  0  0  0  0  0
   43.0011   29.9197   35.6833 H   0  0  0  0  0  0  0  0  0  0  0  0
   42.7237   31.6545   36.2321 H   0  0  0  0  0  0  0  0  0  0  0  0
   43.3363   32.2109   34.3256 H   0  0  0  0  0  0  0  0  0  0  0  0
   45.9519   30.9824   34.9078 H   0  0  0  0  0  0  0  0  0  0  0  0
   45.6456   32.3062   33.7786 H   0  0  0  0  0  0  0  0  0  0  0  0
   46.2529   33.4172   35.8752 H   0  0  0  0  0  0  0  0  0  0  0  0
   44.4971   33.5473   35.8544 H   0  0  0  0  0  0  0  0  0  0  0  0
   43.1573   36.1537   40.4943 H   0  0  0  0  0  0  0  0  0  0  0  0
   41.7526   31.4321   40.3723 H   0  0  0  0  0  0  0  0  0  0  0  0
  1  2  2  0
  2  3  1  0
  4  3  2  0
  5  4  1  0
  6  5  2  0
  6  1  1  0
  7  8  2  0
  7  9  1  0
  9  6  1  0
 10  7  1  0
 11 10  1  0
 12 11  1  0
 13 14  1  0
 13 12  1  0
 14 15  1  0
 15 10  1  0
 16 17  2  0
 17 18  1  0
 18  1  1  0
 19 18  2  0
 20 19  1  0
 21 16  1  0
 21 20  2  0
 22 16  1  0
 22 25  1  0
 23 22  1  0
 24 22  1  0
  2 26  1  0
  3 27  1  0
  4 28  1  0
  5 29  1  0
  9 30  1  0
 11 31  1  0
 11 32  1  0
 12 33  1  0
 12 34  1  0
 13 35  1  0
 14 36  1  0
 14 37  1  0
 15 38  1  0
 15 39  1  0
 17 40  1  0
 20 41  1  0
M  ISO  8  26  14  27  14  28  14  29  14  31  13  32  13  33  13  34  13
M  ISO  7  35   5  36  13  37  13  38  13  39  13  40  14  41  14
M  END
>  <minimizedAffinity>  (1) 
-6.52489281

>  <minimizedRMSD>  (1) 
0.544672012

$$$$
