
     RDKit          3D

 51 54  0  0  0  0  0  0  0  0999 V2000
   44.3160   34.3340   41.8250 C   0  0  0  0  0  0  0  0  0  0  0  0
   44.0490   33.1940   42.3570 O   0  0  0  0  0  0  0  0  0  0  0  0
   45.2840   35.0620   42.5660 N   0  0  0  0  0  0  0  0  0  0  0  0
   45.6560   34.3000   43.7400 C   0  0  0  0  0  0  0  0  0  0  0  0
   45.1970   34.5160   45.0050 C   0  0  0  0  0  0  0  0  0  0  0  0
   45.6600   33.6920   46.0010 C   0  0  0  0  0  0  0  0  0  0  0  0
   46.5360   32.7280   45.6610 N   0  0  0  0  0  0  0  0  0  0  0  0
   46.9730   32.5400   44.3910 C   0  0  0  0  0  0  0  0  0  0  0  0
   46.5320   33.3370   43.4000 N   0  0  0  0  0  0  0  0  0  0  0  0
   47.9020   31.4900   44.1250 N   0  0  0  0  0  0  0  0  0  0  0  0
   47.9700   30.2630   44.8710 C   0  0  0  0  0  0  0  0  0  0  0  0
   48.6550   29.2570   43.9350 C   0  0  0  0  0  0  0  0  0  0  0  0
   48.1690   29.3800   42.5920 N   0  0  0  0  0  0  0  0  0  0  0  0
   48.3690   30.6540   41.9770 C   0  0  0  0  0  0  0  0  0  0  0  0
   48.8610   31.6210   43.0440 C   0  0  0  0  0  0  0  0  0  0  0  0
   44.2690   35.5800   45.1940 N   0  0  0  0  0  0  0  0  0  0  0  0
   43.7610   34.8650   40.6560 O   0  0  0  0  0  0  0  0  0  0  0  0
   42.9620   32.2900   39.4000 Cl  0  0  0  0  0  0  0  0  0  0  0  0
   41.8960   33.5860   39.9020 C   0  0  0  0  0  0  0  0  0  0  0  0
   42.3690   34.7620   40.4840 C   0  0  0  0  0  0  0  0  0  0  0  0
   41.5020   35.7430   40.8580 C   0  0  0  0  0  0  0  0  0  0  0  0
   40.1330   35.6450   40.6910 C   0  0  0  0  0  0  0  0  0  0  0  0
   39.6310   34.4640   40.1030 C   0  0  0  0  0  0  0  0  0  0  0  0
   37.9070   34.2460   39.8490 Cl  0  0  0  0  0  0  0  0  0  0  0  0
   40.5410   33.4930   39.7380 C   0  0  0  0  0  0  0  0  0  0  0  0
   39.8800   31.3680   41.3010 F   0  0  0  0  0  0  0  0  0  0  0  0
   39.7080   31.2080   39.9440 C   0  0  0  0  0  0  0  0  0  0  0  0
   40.0340   32.2660   39.1290 C   0  0  0  0  0  0  0  0  0  0  0  0
   39.8460   32.0650   37.7540 C   0  0  0  0  0  0  0  0  0  0  0  0
   39.3580   30.8530   37.3020 C   0  0  0  0  0  0  0  0  0  0  0  0
   39.0470   29.8170   38.1960 C   0  0  0  0  0  0  0  0  0  0  0  0
   39.2210   29.9820   39.5630 C   0  0  0  0  0  0  0  0  0  0  0  0
   45.6616   35.9853   42.3093 H   0  0  0  0  0  0  0  0  0  0  0  0
   45.3263   33.8154   47.0419 H   0  0  0  0  0  0  0  0  0  0  0  0
   48.5623   30.4016   45.7875 H   0  0  0  0  0  0  0  0  0  0  0  0
   46.9737   29.9183   45.1850 H   0  0  0  0  0  0  0  0  0  0  0  0
   49.7393   29.4421   43.9420 H   0  0  0  0  0  0  0  0  0  0  0  0
   48.4310   28.2414   44.2934 H   0  0  0  0  0  0  0  0  0  0  0  0
   48.6463   28.6718   42.0162 H   0  0  0  0  0  0  0  0  0  0  0  0
   49.1190   30.5683   41.1769 H   0  0  0  0  0  0  0  0  0  0  0  0
   47.4283   31.0173   41.5375 H   0  0  0  0  0  0  0  0  0  0  0  0
   49.8699   31.3441   43.3839 H   0  0  0  0  0  0  0  0  0  0  0  0
   48.9319   32.6535   42.6713 H   0  0  0  0  0  0  0  0  0  0  0  0
   43.8968   35.7779   46.1338 H   0  0  0  0  0  0  0  0  0  0  0  0
   43.9702   36.1515   44.3909 H   0  0  0  0  0  0  0  0  0  0  0  0
   41.9101   36.6568   41.3146 H   0  0  0  0  0  0  0  0  0  0  0  0
   39.4603   36.4569   41.0046 H   0  0  0  0  0  0  0  0  0  0  0  0
   40.0853   32.8665   37.0396 H   0  0  0  0  0  0  0  0  0  0  0  0
   39.2110   30.6981   36.2229 H   0  0  0  0  0  0  0  0  0  0  0  0
   38.6607   28.8627   37.8087 H   0  0  0  0  0  0  0  0  0  0  0  0
   38.9860   29.1888   40.2880 H   0  0  0  0  0  0  0  0  0  0  0  0
  1  2  2  0
  1  3  1  0
  3  4  1  0
  4  5  2  0
  5 16  1  0
  5  6  1  0
  7  6  2  0
  8  7  1  0
  9  4  1  0
  9  8  2  0
 10  8  1  0
 10 11  1  0
 12 11  1  0
 13 12  1  0
 14 13  1  0
 14 15  1  0
 15 10  1  0
 17  1  1  0
 18 19  1  0
 19 20  2  0
 20 17  1  0
 20 21  1  0
 22 21  2  0
 23 22  1  0
 24 23  1  0
 25 19  1  0
 25 23  2  0
 27 26  1  0
 28 25  1  0
 28 27  2  0
 29 28  1  0
 30 29  2  0
 30 31  1  0
 31 32  2  0
 32 27  1  0
  3 33  1  0
  6 34  1  0
 11 35  1  0
 11 36  1  0
 12 37  1  0
 12 38  1  0
 13 39  1  0
 14 40  1  0
 14 41  1  0
 15 42  1  0
 15 43  1  0
 16 44  1  0
 16 45  1  0
 21 46  1  0
 22 47  1  0
 29 48  1  0
 30 49  1  0
 31 50  1  0
 32 51  1  0
M  ISO  8  34  14  35  13  36  13  37  13  38  13  39   5  40  13  41  13
M  ISO  8  42  13  43  13  46  14  47  14  48  14  49  14  50  14  51  14
M  END
>  <minimizedAffinity>  (1) 
-6.56326342

>  <minimizedRMSD>  (1) 
0.441873521

$$$$
