
     RDKit          3D

 50 54  0  0  1  0  0  0  0  0999 V2000
   47.5050   34.2070   43.0930 N   0  0  0  0  0  0  0  0  0  0  0  0
   48.8680   33.7170   42.8550 C   0  0  0  0  0  0  0  0  0  0  0  0
   49.4320   34.9830   42.2450 C   0  0  0  0  0  0  0  0  0  0  0  0
   48.4020   35.2610   41.1780 C   0  0  0  0  0  0  0  0  0  0  0  0
   47.0930   34.9400   41.8670 C   0  0  1  0  0  0  0  0  0  0  0  0
   44.8680   34.7340   45.6570 C   0  0  0  0  0  0  0  0  0  0  0  0
   45.6430   34.9620   44.5290 C   0  0  0  0  0  0  0  0  0  0  0  0
   46.6620   34.0770   44.2110 C   0  0  0  0  0  0  0  0  0  0  0  0
   46.8620   33.0120   45.0300 N   0  0  0  0  0  0  0  0  0  0  0  0
   46.1000   32.7920   46.1360 C   0  0  0  0  0  0  0  0  0  0  0  0
   45.1060   33.6570   46.4420 N   0  0  0  0  0  0  0  0  0  0  0  0
   46.3450   31.6630   46.9670 N   0  0  0  0  0  0  0  0  0  0  0  0
   45.2530   30.8510   47.4410 C   0  0  0  0  0  0  0  0  0  0  0  0
   45.4840   30.6280   48.9200 C   0  0  0  0  0  0  0  0  0  0  0  0
   46.5120   31.4810   49.4720 N   0  0  0  0  0  0  0  0  0  0  0  0
   47.7930   31.3600   48.8480 C   0  0  0  0  0  0  0  0  0  0  0  0
   47.7080   31.3330   47.3350 C   0  0  0  0  0  0  0  0  0  0  0  0
   46.2630   34.0080   41.1290 C   0  0  0  0  0  0  0  0  0  0  0  0
   46.7810   32.8810   40.5850 N   0  0  0  0  0  0  0  0  0  0  0  0
   46.0750   31.9700   39.8810 C   0  0  0  0  0  0  0  0  0  0  0  0
   44.7640   32.1860   39.7010 N   0  0  0  0  0  0  0  0  0  0  0  0
   44.2050   33.2750   40.2120 C   0  0  0  0  0  0  0  0  0  0  0  0
   42.8440   33.4430   39.9950 C   0  0  0  0  0  0  0  0  0  0  0  0
   42.2650   34.5840   40.5350 C   0  0  0  0  0  0  0  0  0  0  0  0
   42.9370   35.5590   41.2660 C   0  0  0  0  0  0  0  0  0  0  0  0
   44.2850   35.3070   41.4310 C   0  0  0  0  0  0  0  0  0  0  0  0
   44.9220   34.2230   40.9400 C   0  0  0  0  0  0  0  0  0  0  0  0
   49.3808   33.4373   43.7871 H   0  0  0  0  0  0  0  0  0  0  0  0
   48.9578   32.8031   42.2494 H   0  0  0  0  0  0  0  0  0  0  0  0
   49.4843   35.7992   42.9806 H   0  0  0  0  0  0  0  0  0  0  0  0
   50.4628   34.8908   41.8722 H   0  0  0  0  0  0  0  0  0  0  0  0
   48.5562   34.6127   40.3028 H   0  0  0  0  0  0  0  0  0  0  0  0
   48.4459   36.2911   40.7947 H   0  0  0  0  0  0  0  0  0  0  0  0
   46.5205   35.8687   42.0073 H   0  0  0  0  0  0  0  0  0  0  0  0
   44.0570   35.4311   45.9145 H   0  0  0  0  0  0  0  0  0  0  0  0
   45.4506   35.8379   43.8920 H   0  0  0  0  0  0  0  0  0  0  0  0
   44.2971   31.3712   47.2812 H   0  0  0  0  0  0  0  0  0  0  0  0
   45.2085   29.8944   46.8998 H   0  0  0  0  0  0  0  0  0  0  0  0
   44.5427   30.8247   49.4542 H   0  0  0  0  0  0  0  0  0  0  0  0
   45.8211   29.5883   49.0445 H   0  0  0  0  0  0  0  0  0  0  0  0
   46.2013   32.4585   49.3782 H   0  0  0  0  0  0  0  0  0  0  0  0
   48.4136   32.2165   49.1501 H   0  0  0  0  0  0  0  0  0  0  0  0
   48.2311   30.4046   49.1726 H   0  0  0  0  0  0  0  0  0  0  0  0
   47.9649   30.3303   46.9626 H   0  0  0  0  0  0  0  0  0  0  0  0
   48.4125   32.0544   46.8954 H   0  0  0  0  0  0  0  0  0  0  0  0
   46.5623   31.0751   39.4665 H   0  0  0  0  0  0  0  0  0  0  0  0
   42.2546   32.7100   39.4247 H   0  0  0  0  0  0  0  0  0  0  0  0
   41.1869   34.7289   40.3715 H   0  0  0  0  0  0  0  0  0  0  0  0
   42.4393   36.4504   41.6756 H   0  0  0  0  0  0  0  0  0  0  0  0
   44.8785   36.0378   42.0000 H   0  0  0  0  0  0  0  0  0  0  0  0
  1  8  1  0
  2  1  1  0
  3  2  1  0
  4  5  1  0
  4  3  1  0
  5  1  1  0
  6 11  2  0
  7  6  1  0
  8  7  2  0
  8  9  1  0
  9 10  2  0
 10 11  1  0
 10 12  1  0
 12 17  1  0
 12 13  1  0
 13 14  1  0
 14 15  1  0
 16 15  1  0
 17 16  1  0
 18  5  1  0
 19 18  2  0
 20 19  1  0
 21 20  2  0
 21 22  1  0
 22 27  2  0
 23 22  1  0
 23 24  2  0
 24 25  1  0
 25 26  2  0
 27 18  1  0
 27 26  1  0
  2 28  1  0
  2 29  1  0
  3 30  1  0
  3 31  1  0
  4 32  1  0
  4 33  1  0
  5 34  1  1
  6 35  1  0
  7 36  1  0
 13 37  1  0
 13 38  1  0
 14 39  1  0
 14 40  1  0
 15 41  1  0
 16 42  1  0
 16 43  1  0
 17 44  1  0
 17 45  1  0
 20 46  1  0
 23 47  1  0
 24 48  1  0
 25 49  1  0
 26 50  1  0
M  ISO  8  28  13  29  13  30  13  31  13  32  13  33  13  34  13  35  14
M  ISO  8  36  14  37  13  38  13  39  13  40  13  41   5  42  13  43  13
M  ISO  7  44  13  45  13  46  14  47  14  48  14  49  14  50  14
M  END
>  <minimizedAffinity>  (1) 
-7.27735853

>  <minimizedRMSD>  (1) 
1.15323222

$$$$
