
     RDKit          3D

 49 52  0  0  1  0  0  0  0  0999 V2000
   44.6190   35.3680   45.4790 C   0  0  0  0  0  0  0  0  0  0  0  0
   44.3640   35.9220   44.2080 C   0  0  0  0  0  0  0  0  0  0  0  0
   44.8490   35.2580   43.0580 C   0  0  0  0  0  0  0  0  0  0  0  0
   45.5430   34.1050   43.2610 N   0  0  0  0  0  0  0  0  0  0  0  0
   45.7720   33.5950   44.4960 C   0  0  0  0  0  0  0  0  0  0  0  0
   45.3080   34.2290   45.6130 N   0  0  0  0  0  0  0  0  0  0  0  0
   46.5110   32.3780   44.6000 N   0  0  0  0  0  0  0  0  0  0  0  0
   46.4700   31.7070   45.8960 C   0  0  0  0  0  0  0  0  0  0  0  0
   47.5150   30.6960   46.1210 C   0  0  0  0  0  0  0  0  0  0  0  0
   47.8360   29.9810   44.8370 C   0  0  0  0  0  0  0  0  0  0  0  0
   48.3760   31.0050   43.8880 C   0  0  0  0  0  0  0  0  0  0  0  0
   47.2440   31.8740   43.4660 C   0  0  2  0  0  0  0  0  0  0  0  0
   46.6270   31.8280   40.6630 F   0  0  0  0  0  0  0  0  0  0  0  0
   47.3530   32.8840   41.1270 C   0  0  0  0  0  0  0  0  0  0  0  0
   47.6530   32.9130   42.4890 C   0  0  0  0  0  0  0  0  0  0  0  0
   48.3940   34.0090   42.9140 C   0  0  0  0  0  0  0  0  0  0  0  0
   48.8190   35.0190   42.0800 C   0  0  0  0  0  0  0  0  0  0  0  0
   48.5030   34.9600   40.7360 C   0  0  0  0  0  0  0  0  0  0  0  0
   47.7690   33.8850   40.2780 C   0  0  0  0  0  0  0  0  0  0  0  0
   47.4540   33.8410   38.8890 N   0  0  0  0  0  0  0  0  0  0  0  0
   46.1920   33.2510   38.4530 C   0  0  0  0  0  0  0  0  0  0  0  0
   46.2270   33.1590   36.9220 C   0  0  0  0  0  0  0  0  0  0  0  0
   47.5210   32.5540   36.6060 N   0  0  0  0  0  0  0  0  0  0  0  0
   48.4500   33.6600   36.6220 C   0  0  0  0  0  0  0  0  0  0  0  0
   48.3920   34.3860   37.9270 C   0  0  0  0  0  0  0  0  0  0  0  0
   44.2447   35.8815   46.3769 H   0  0  0  0  0  0  0  0  0  0  0  0
   43.7951   36.8586   44.1123 H   0  0  0  0  0  0  0  0  0  0  0  0
   44.6738   35.6545   42.0470 H   0  0  0  0  0  0  0  0  0  0  0  0
   46.5675   32.4746   46.6779 H   0  0  0  0  0  0  0  0  0  0  0  0
   45.5141   31.1635   45.9237 H   0  0  0  0  0  0  0  0  0  0  0  0
   48.4227   31.1902   46.4977 H   0  0  0  0  0  0  0  0  0  0  0  0
   47.1513   29.9636   46.8567 H   0  0  0  0  0  0  0  0  0  0  0  0
   48.5888   29.1997   45.0179 H   0  0  0  0  0  0  0  0  0  0  0  0
   46.9393   29.4969   44.4229 H   0  0  0  0  0  0  0  0  0  0  0  0
   49.1462   31.6102   44.3886 H   0  0  0  0  0  0  0  0  0  0  0  0
   48.8328   30.5170   43.0144 H   0  0  0  0  0  0  0  0  0  0  0  0
   46.5323   31.2455   42.9106 H   0  0  0  0  0  0  0  0  0  0  0  0
   48.6568   34.0737   43.9802 H   0  0  0  0  0  0  0  0  0  0  0  0
   49.4026   35.8620   42.4785 H   0  0  0  0  0  0  0  0  0  0  0  0
   48.8294   35.7525   40.0465 H   0  0  0  0  0  0  0  0  0  0  0  0
   46.0780   32.2465   38.8866 H   0  0  0  0  0  0  0  0  0  0  0  0
   45.3430   33.8674   38.7835 H   0  0  0  0  0  0  0  0  0  0  0  0
   45.4051   32.5271   36.5542 H   0  0  0  0  0  0  0  0  0  0  0  0
   46.1055   34.1437   36.4471 H   0  0  0  0  0  0  0  0  0  0  0  0
   47.4985   32.1107   35.6766 H   0  0  0  0  0  0  0  0  0  0  0  0
   49.4694   33.2764   36.4682 H   0  0  0  0  0  0  0  0  0  0  0  0
   48.1776   34.3596   35.8181 H   0  0  0  0  0  0  0  0  0  0  0  0
   49.3956   34.3608   38.3766 H   0  0  0  0  0  0  0  0  0  0  0  0
   48.0421   35.4034   37.6981 H   0  0  0  0  0  0  0  0  0  0  0  0
  1  6  2  0
  2  1  1  0
  3  4  1  0
  3  2  2  0
  4  5  2  0
  5  7  1  0
  5  6  1  0
  7  8  1  0
  8  9  1  0
 10  9  1  0
 11 10  1  0
 12 11  1  0
 12  7  1  0
 13 14  1  0
 14 15  2  0
 15 16  1  0
 15 12  1  0
 17 16  2  0
 18 17  1  0
 19 18  2  0
 19 14  1  0
 20 19  1  0
 21 20  1  0
 22 21  1  0
 23 24  1  0
 23 22  1  0
 24 25  1  0
 25 20  1  0
  1 26  1  0
  2 27  1  0
  3 28  1  0
  8 29  1  0
  8 30  1  0
  9 31  1  0
  9 32  1  0
 10 33  1  0
 10 34  1  0
 11 35  1  0
 11 36  1  0
 12 37  1  6
 16 38  1  0
 17 39  1  0
 18 40  1  0
 21 41  1  0
 21 42  1  0
 22 43  1  0
 22 44  1  0
 23 45  1  0
 24 46  1  0
 24 47  1  0
 25 48  1  0
 25 49  1  0
M  ISO  8  26  14  27  14  28  14  29  13  30  13  31  13  32  13  33  13
M  ISO  8  34  13  35  13  36  13  37  13  38  14  39  14  40  14  41  13
M  ISO  8  42  13  43  13  44  13  45   5  46  13  47  13  48  13  49  13
M  END
>  <minimizedAffinity>  (1) 
-6.35452127

>  <minimizedRMSD>  (1) 
1.04036677

$$$$
