
     RDKit          3D

 46 49  0  0  1  0  0  0  0  0999 V2000
   49.4140   33.3400   41.4500 N   0  0  0  0  0  0  0  0  0  0  0  0
   50.6870   33.1270   42.1370 C   0  0  0  0  0  0  0  0  0  0  0  0
   51.3030   31.8070   41.8010 C   0  0  0  0  0  0  0  0  0  0  0  0
   50.4690   30.7210   42.4210 C   0  0  0  0  0  0  0  0  0  0  0  0
   49.0070   31.0550   42.2970 C   0  0  0  0  0  0  0  0  0  0  0  0
   48.7760   32.0700   41.2160 C   0  0  2  0  0  0  0  0  0  0  0  0
   48.8830   31.5720   39.8970 N   0  0  0  0  0  0  0  0  0  0  0  0
   48.0050   30.4720   39.6750 C   0  0  0  0  0  0  0  0  0  0  0  0
   47.1150   30.8000   38.4800 C   0  0  0  0  0  0  0  0  0  0  0  0
   48.0280   30.8280   37.3480 N   0  0  0  0  0  0  0  0  0  0  0  0
   48.7760   32.0520   37.4840 C   0  0  0  0  0  0  0  0  0  0  0  0
   49.0080   32.5240   38.8630 C   0  0  0  0  0  0  0  0  0  0  0  0
   47.2420   34.6300   41.9820 C   0  0  1  0  0  0  0  0  0  0  0  0
   48.3540   35.5610   41.7300 C   0  0  0  0  0  0  0  0  0  0  0  0
   48.6470   34.2120   42.2770 C   0  0  2  0  0  0  0  0  0  0  0  0
   45.5200   36.0430   43.1600 C   0  0  0  0  0  0  0  0  0  0  0  0
   46.3220   34.8860   43.1190 C   0  0  0  0  0  0  0  0  0  0  0  0
   46.2120   33.9800   44.1840 C   0  0  0  0  0  0  0  0  0  0  0  0
   45.3430   34.2640   45.1940 N   0  0  0  0  0  0  0  0  0  0  0  0
   44.5860   35.3950   45.1940 C   0  0  0  0  0  0  0  0  0  0  0  0
   44.6750   36.2890   44.1730 N   0  0  0  0  0  0  0  0  0  0  0  0
   51.3839   33.9264   41.8450 H   0  0  0  0  0  0  0  0  0  0  0  0
   50.4898   33.1389   43.2191 H   0  0  0  0  0  0  0  0  0  0  0  0
   51.3296   31.6770   40.7090 H   0  0  0  0  0  0  0  0  0  0  0  0
   52.3314   31.7609   42.1888 H   0  0  0  0  0  0  0  0  0  0  0  0
   50.6695   29.7699   41.9061 H   0  0  0  0  0  0  0  0  0  0  0  0
   50.7283   30.6327   43.4863 H   0  0  0  0  0  0  0  0  0  0  0  0
   48.4481   30.1389   42.0554 H   0  0  0  0  0  0  0  0  0  0  0  0
   48.6620   31.4767   43.2526 H   0  0  0  0  0  0  0  0  0  0  0  0
   47.7042   32.3040   41.2958 H   0  0  0  0  0  0  0  0  0  0  0  0
   48.5912   29.5655   39.4639 H   0  0  0  0  0  0  0  0  0  0  0  0
   47.3882   30.2944   40.5683 H   0  0  0  0  0  0  0  0  0  0  0  0
   46.3469   30.0248   38.3419 H   0  0  0  0  0  0  0  0  0  0  0  0
   46.5743   31.7495   38.6071 H   0  0  0  0  0  0  0  0  0  0  0  0
   47.5026   30.8242   36.4621 H   0  0  0  0  0  0  0  0  0  0  0  0
   49.7577   31.8996   37.0118 H   0  0  0  0  0  0  0  0  0  0  0  0
   48.1597   32.8282   37.0069 H   0  0  0  0  0  0  0  0  0  0  0  0
   48.2854   33.3286   39.0640 H   0  0  0  0  0  0  0  0  0  0  0  0
   50.0639   32.8316   38.8850 H   0  0  0  0  0  0  0  0  0  0  0  0
   46.4177   34.2273   41.3751 H   0  0  0  0  0  0  0  0  0  0  0  0
   48.6392   35.8069   40.6965 H   0  0  0  0  0  0  0  0  0  0  0  0
   48.5874   36.5896   42.0423 H   0  0  0  0  0  0  0  0  0  0  0  0
   49.1125   33.7641   43.1673 H   0  0  0  0  0  0  0  0  0  0  0  0
   45.5884   36.7680   42.3355 H   0  0  0  0  0  0  0  0  0  0  0  0
   46.8145   33.0599   44.2033 H   0  0  0  0  0  0  0  0  0  0  0  0
   43.8953   35.5880   46.0281 H   0  0  0  0  0  0  0  0  0  0  0  0
  1  2  1  0
  1 15  1  0
  3  2  1  0
  3  4  1  0
  5  4  1  0
  6  1  1  0
  6  5  1  0
  7 12  1  0
  7  6  1  0
  8  7  1  0
  9  8  1  0
 10 11  1  0
 10  9  1  0
 11 12  1  0
 13 15  1  0
 13 17  1  0
 14 13  1  0
 14 15  1  0
 16 21  2  0
 17 16  1  0
 17 18  2  0
 18 19  1  0
 19 20  2  0
 21 20  1  0
  2 22  1  0
  2 23  1  0
  3 24  1  0
  3 25  1  0
  4 26  1  0
  4 27  1  0
  5 28  1  0
  5 29  1  0
  6 30  1  1
  8 31  1  0
  8 32  1  0
  9 33  1  0
  9 34  1  0
 10 35  1  0
 11 36  1  0
 11 37  1  0
 12 38  1  0
 12 39  1  0
 13 40  1  6
 14 41  1  0
 14 42  1  0
 15 43  1  1
 16 44  1  0
 18 45  1  0
 20 46  1  0
M  ISO  8  22  13  23  13  24  13  25  13  26  13  27  13  28  13  29  13
M  ISO  8  30  13  31  13  32  13  33  13  34  13  35   5  36  13  37  13
M  ISO  8  38  13  39  13  40  13  41  13  42  13  43  13  44  14  45  14
M  ISO  1  46  14
M  END
>  <minimizedAffinity>  (1) 
-4.9027648

>  <minimizedRMSD>  (1) 
0.873089075

$$$$
