
     RDKit          3D

 40 43  0  0  0  0  0  0  0  0999 V2000
   46.1350   32.7280   47.0760 C   0  0  0  0  0  0  0  0  0  0  0  0
   45.0370   32.4340   47.8750 C   0  0  0  0  0  0  0  0  0  0  0  0
   45.1960   31.6000   48.9750 C   0  0  0  0  0  0  0  0  0  0  0  0
   46.4680   31.0920   49.2270 C   0  0  0  0  0  0  0  0  0  0  0  0
   47.5240   31.4270   48.3850 C   0  0  0  0  0  0  0  0  0  0  0  0
   47.3580   32.2450   47.3090 N   0  0  0  0  0  0  0  0  0  0  0  0
   48.8180   30.9000   48.6550 N   0  0  0  0  0  0  0  0  0  0  0  0
   49.6320   31.3990   49.7210 C   0  0  0  0  0  0  0  0  0  0  0  0
   50.6150   30.2820   50.0670 C   0  0  0  0  0  0  0  0  0  0  0  0
   49.8360   29.0410   50.1070 N   0  0  0  0  0  0  0  0  0  0  0  0
   49.5220   28.6250   48.7360 C   0  0  0  0  0  0  0  0  0  0  0  0
   49.3630   29.8310   47.8510 C   0  0  0  0  0  0  0  0  0  0  0  0
   44.7400   35.2840   44.7930 C   0  0  0  0  0  0  0  0  0  0  0  0
   45.5410   35.1720   43.6560 C   0  0  0  0  0  0  0  0  0  0  0  0
   46.5420   34.2260   43.7090 C   0  0  0  0  0  0  0  0  0  0  0  0
   46.7250   33.4440   44.8340 N   0  0  0  0  0  0  0  0  0  0  0  0
   45.9030   33.6030   45.9210 C   0  0  0  0  0  0  0  0  0  0  0  0
   44.9260   34.5140   45.8920 N   0  0  0  0  0  0  0  0  0  0  0  0
   47.4460   33.9940   42.5300 C   0  0  0  0  0  0  0  0  0  0  0  0
   47.9220   35.2930   41.8810 C   0  0  0  0  0  0  0  0  0  0  0  0
   48.8480   34.2890   42.6430 C   0  0  0  0  0  0  0  0  0  0  0  0
   44.0499   32.8580   47.6387 H   0  0  0  0  0  0  0  0  0  0  0  0
   44.3451   31.3492   49.6254 H   0  0  0  0  0  0  0  0  0  0  0  0
   46.6372   30.4287   50.0881 H   0  0  0  0  0  0  0  0  0  0  0  0
   50.1759   32.2983   49.3963 H   0  0  0  0  0  0  0  0  0  0  0  0
   49.0224   31.6800   50.5924 H   0  0  0  0  0  0  0  0  0  0  0  0
   51.3991   30.2141   49.2985 H   0  0  0  0  0  0  0  0  0  0  0  0
   51.1108   30.4721   51.0303 H   0  0  0  0  0  0  0  0  0  0  0  0
   50.3847   28.3046   50.5734 H   0  0  0  0  0  0  0  0  0  0  0  0
   50.3386   27.9967   48.3508 H   0  0  0  0  0  0  0  0  0  0  0  0
   48.5806   28.0561   48.7401 H   0  0  0  0  0  0  0  0  0  0  0  0
   48.6777   29.5993   47.0223 H   0  0  0  0  0  0  0  0  0  0  0  0
   50.3337   30.1264   47.4261 H   0  0  0  0  0  0  0  0  0  0  0  0
   43.9272   36.0252   44.7972 H   0  0  0  0  0  0  0  0  0  0  0  0
   45.3827   35.8023   42.7685 H   0  0  0  0  0  0  0  0  0  0  0  0
   46.9285   33.0813   42.1995 H   0  0  0  0  0  0  0  0  0  0  0  0
   47.9758   35.3880   40.7864 H   0  0  0  0  0  0  0  0  0  0  0  0
   47.6714   36.3622   41.9442 H   0  0  0  0  0  0  0  0  0  0  0  0
   49.2714   34.5681   43.6191 H   0  0  0  0  0  0  0  0  0  0  0  0
   49.7728   33.7491   42.3916 H   0  0  0  0  0  0  0  0  0  0  0  0
  1  6  1  0
  1  2  2  0
  2  3  1  0
  3  4  2  0
  5  7  1  0
  5  4  1  0
  6  5  2  0
  7  8  1  0
  8  9  1  0
  9 10  1  0
 11 10  1  0
 12  7  1  0
 12 11  1  0
 13 18  2  0
 14 15  2  0
 14 13  1  0
 15 16  1  0
 16 17  2  0
 17  1  1  0
 18 17  1  0
 19 21  1  0
 19 15  1  0
 20 19  1  0
 20 21  1  0
  2 22  1  0
  3 23  1  0
  4 24  1  0
  8 25  1  0
  8 26  1  0
  9 27  1  0
  9 28  1  0
 10 29  1  0
 11 30  1  0
 11 31  1  0
 12 32  1  0
 12 33  1  0
 13 34  1  0
 14 35  1  0
 19 36  1  0
 20 37  1  0
 20 38  1  0
 21 39  1  0
 21 40  1  0
M  ISO  8  22  14  23  14  24  14  25  13  26  13  27  13  28  13  29   5
M  ISO  8  30  13  31  13  32  13  33  13  34  14  35  14  36  13  37  13
M  ISO  3  38  13  39  13  40  13
M  END
>  <minimizedAffinity>  (1) 
-6.58828592

>  <minimizedRMSD>  (1) 
1.30651987

$$$$
