
     RDKit          3D

 41 43  0  0  1  0  0  0  0  0999 V2000
   48.2860   33.6430   42.6110 C   0  0  1  0  0  0  0  0  0  0  0  0
   46.8050   33.7370   42.3350 C   0  0  2  0  0  0  0  0  0  0  0  0
   46.5320   34.5980   41.2880 O   0  0  0  0  0  0  0  0  0  0  0  0
   46.9730   33.9700   40.1380 C   0  0  0  0  0  0  0  0  0  0  0  0
   48.4830   34.0060   40.1300 C   0  0  2  0  0  0  0  0  0  0  0  0
   49.1280   33.5260   41.3880 C   0  0  2  0  0  0  0  0  0  0  0  0
   44.5920   35.7410   44.6600 C   0  0  0  0  0  0  0  0  0  0  0  0
   45.2590   35.3570   43.4870 C   0  0  0  0  0  0  0  0  0  0  0  0
   46.0700   34.1870   43.5380 C   0  0  0  0  0  0  0  0  0  0  0  0
   46.1650   33.5000   44.6970 N   0  0  0  0  0  0  0  0  0  0  0  0
   45.4920   33.9180   45.8160 C   0  0  0  0  0  0  0  0  0  0  0  0
   44.7160   35.0290   45.7860 N   0  0  0  0  0  0  0  0  0  0  0  0
   48.7140   34.6610   43.4730 O   0  0  0  0  0  0  0  0  0  0  0  0
   48.8290   35.3390   39.8530 O   0  0  0  0  0  0  0  0  0  0  0  0
   49.6730   32.2410   41.2780 O   0  0  0  0  0  0  0  0  0  0  0  0
   51.9280   32.3880   41.1390 N   0  0  0  0  0  0  0  0  0  0  0  0
   50.8010   31.9930   41.9860 C   0  0  2  0  0  0  0  0  0  0  0  0
   50.9070   30.4700   42.1100 C   0  0  0  0  0  0  0  0  0  0  0  0
   52.2560   30.0210   41.8200 N   0  0  0  0  0  0  0  0  0  0  0  0
   52.5800   30.2100   40.4190 C   0  0  0  0  0  0  0  0  0  0  0  0
   51.8800   31.4820   39.9880 C   0  0  0  0  0  0  0  0  0  0  0  0
   48.4345   32.6868   43.1341 H   0  0  0  0  0  0  0  0  0  0  0  0
   46.4697   32.7271   42.0563 H   0  0  0  0  0  0  0  0  0  0  0  0
   46.6253   32.9264   40.1269 H   0  0  0  0  0  0  0  0  0  0  0  0
   46.5760   34.4823   39.2492 H   0  0  0  0  0  0  0  0  0  0  0  0
   48.8575   33.3026   39.3717 H   0  0  0  0  0  0  0  0  0  0  0  0
   49.9591   34.2336   41.5247 H   0  0  0  0  0  0  0  0  0  0  0  0
   43.9582   36.6400   44.6539 H   0  0  0  0  0  0  0  0  0  0  0  0
   45.1591   35.9396   42.5593 H   0  0  0  0  0  0  0  0  0  0  0  0
   45.5830   33.3444   46.7502 H   0  0  0  0  0  0  0  0  0  0  0  0
   48.5922   34.3714   44.4118 H   0  0  0  0  0  0  0  0  0  0  0  0
   48.9565   35.8303   40.7030 H   0  0  0  0  0  0  0  0  0  0  0  0
   51.8246   33.3661   40.8333 H   0  0  0  0  0  0  0  0  0  0  0  0
   50.7950   32.5087   42.9576 H   0  0  0  0  0  0  0  0  0  0  0  0
   50.6406   30.1724   43.1349 H   0  0  0  0  0  0  0  0  0  0  0  0
   50.2192   30.0090   41.3858 H   0  0  0  0  0  0  0  0  0  0  0  0
   52.9203   30.5592   42.3944 H   0  0  0  0  0  0  0  0  0  0  0  0
   53.6677   30.3115   40.2901 H   0  0  0  0  0  0  0  0  0  0  0  0
   52.2550   29.3505   39.8143 H   0  0  0  0  0  0  0  0  0  0  0  0
   52.3998   31.9303   39.1284 H   0  0  0  0  0  0  0  0  0  0  0  0
   50.8433   31.2828   39.6788 H   0  0  0  0  0  0  0  0  0  0  0  0
  1 13  1  0
  2  1  1  0
  2  9  1  0
  3  2  1  0
  4  3  1  0
  5  4  1  0
  5  6  1  0
  6  1  1  0
  7 12  2  0
  8  9  2  0
  8  7  1  0
  9 10  1  0
 10 11  2  0
 12 11  1  0
 14  5  1  0
 15  6  1  0
 16 17  1  0
 17 15  1  0
 17 18  1  0
 19 18  1  0
 20 19  1  0
 21 20  1  0
 21 16  1  0
  1 22  1  1
  2 23  1  6
  4 24  1  0
  4 25  1  0
  5 26  1  6
  6 27  1  1
  7 28  1  0
  8 29  1  0
 11 30  1  0
 13 31  1  0
 14 32  1  0
 16 33  1  0
 17 34  1  1
 18 35  1  0
 18 36  1  0
 19 37  1  0
 20 38  1  0
 20 39  1  0
 21 40  1  0
 21 41  1  0
M  ISO  8  22  13  23  13  24  13  25  13  26  13  27  13  28  14  29  14
M  ISO  8  30  14  31   3  32   3  33   5  34  13  35  13  36  13  37   5
M  ISO  4  38  13  39  13  40  13  41  13
M  END
>  <minimizedAffinity>  (1) 
-5.79190493

>  <minimizedRMSD>  (1) 
0.642277181

$$$$
