
     RDKit          3D

 39 41  0  0  1  0  0  0  0  0999 V2000
   46.9290   34.6430   42.2500 N   0  0  0  0  0  0  0  0  0  0  0  0
   48.3830   34.7140   42.3110 C   0  0  0  0  0  0  0  0  0  0  0  0
   48.7860   35.5090   41.0520 C   0  0  0  0  0  0  0  0  0  0  0  0
   48.4400   34.7300   39.8310 C   0  0  0  0  0  0  0  0  0  0  0  0
   47.1520   34.0120   39.8810 C   0  0  0  0  0  0  0  0  0  0  0  0
   46.2530   34.4060   41.0110 C   0  0  1  0  0  0  0  0  0  0  0  0
   44.4610   35.9300   44.7380 C   0  0  0  0  0  0  0  0  0  0  0  0
   45.2070   35.8400   43.5620 C   0  0  0  0  0  0  0  0  0  0  0  0
   46.1360   34.8050   43.4110 C   0  0  0  0  0  0  0  0  0  0  0  0
   46.2540   33.9360   44.4470 N   0  0  0  0  0  0  0  0  0  0  0  0
   45.5200   34.0430   45.5820 C   0  0  0  0  0  0  0  0  0  0  0  0
   44.6240   35.0480   45.7180 N   0  0  0  0  0  0  0  0  0  0  0  0
   45.1580   33.5300   41.2030 N   0  0  0  0  0  0  0  0  0  0  0  0
   43.9830   34.1120   41.7610 C   0  0  0  0  0  0  0  0  0  0  0  0
   42.8720   33.0840   41.5950 C   0  0  0  0  0  0  0  0  0  0  0  0
   43.1580   32.0290   42.5700 N   0  0  0  0  0  0  0  0  0  0  0  0
   44.5520   31.9130   42.8710 C   0  0  0  0  0  0  0  0  0  0  0  0
   45.4560   32.2350   41.7290 C   0  0  0  0  0  0  0  0  0  0  0  0
   48.7085   35.2378   43.2219 H   0  0  0  0  0  0  0  0  0  0  0  0
   48.8487   33.7179   42.3426 H   0  0  0  0  0  0  0  0  0  0  0  0
   48.2476   36.4681   41.0379 H   0  0  0  0  0  0  0  0  0  0  0  0
   49.8704   35.6927   41.0703 H   0  0  0  0  0  0  0  0  0  0  0  0
   49.2354   33.9885   39.6650 H   0  0  0  0  0  0  0  0  0  0  0  0
   48.3447   35.4662   39.0193 H   0  0  0  0  0  0  0  0  0  0  0  0
   46.6184   34.2018   38.9380 H   0  0  0  0  0  0  0  0  0  0  0  0
   47.3967   32.9511   40.0377 H   0  0  0  0  0  0  0  0  0  0  0  0
   45.8489   35.3735   40.6783 H   0  0  0  0  0  0  0  0  0  0  0  0
   43.7283   36.7420   44.8551 H   0  0  0  0  0  0  0  0  0  0  0  0
   45.0654   36.5782   42.7589 H   0  0  0  0  0  0  0  0  0  0  0  0
   45.6530   33.3121   46.3932 H   0  0  0  0  0  0  0  0  0  0  0  0
   44.1385   34.3350   42.8269 H   0  0  0  0  0  0  0  0  0  0  0  0
   43.7295   35.0571   41.2584 H   0  0  0  0  0  0  0  0  0  0  0  0
   41.8929   33.5411   41.8009 H   0  0  0  0  0  0  0  0  0  0  0  0
   42.8349   32.6889   40.5691 H   0  0  0  0  0  0  0  0  0  0  0  0
   42.6500   32.2397   43.4409 H   0  0  0  0  0  0  0  0  0  0  0  0
   44.7840   32.5999   43.6982 H   0  0  0  0  0  0  0  0  0  0  0  0
   44.7320   30.8585   43.1273 H   0  0  0  0  0  0  0  0  0  0  0  0
   45.3209   31.4832   40.9375 H   0  0  0  0  0  0  0  0  0  0  0  0
   46.4963   32.2275   42.0864 H   0  0  0  0  0  0  0  0  0  0  0  0
  1  2  1  0
  1  9  1  0
  3  2  1  0
  4  5  1  0
  4  3  1  0
  5  6  1  0
  6 13  1  0
  6  1  1  0
  7 12  2  0
  8  7  1  0
  9  8  2  0
  9 10  1  0
 10 11  2  0
 11 12  1  0
 13 18  1  0
 13 14  1  0
 15 14  1  0
 15 16  1  0
 16 17  1  0
 18 17  1  0
  2 19  1  0
  2 20  1  0
  3 21  1  0
  3 22  1  0
  4 23  1  0
  4 24  1  0
  5 25  1  0
  5 26  1  0
  6 27  1  6
  7 28  1  0
  8 29  1  0
 11 30  1  0
 14 31  1  0
 14 32  1  0
 15 33  1  0
 15 34  1  0
 16 35  1  0
 17 36  1  0
 17 37  1  0
 18 38  1  0
 18 39  1  0
M  ISO  8  19  13  20  13  21  13  22  13  23  13  24  13  25  13  26  13
M  ISO  8  27  13  28  14  29  14  30  14  31  13  32  13  33  13  34  13
M  ISO  5  35   5  36  13  37  13  38  13  39  13
M  END
>  <minimizedAffinity>  (1) 
-5.74369001

>  <minimizedRMSD>  (1) 
0.115258731

$$$$
