
     RDKit          3D

 34 36  0  0  0  0  0  0  0  0999 V2000
   48.1230   31.3130   44.0370 F   0  0  0  0  0  0  0  0  0  0  0  0
   47.6050   32.4990   43.6350 C   0  0  0  0  0  0  0  0  0  0  0  0
   46.6090   33.0720   44.4120 C   0  0  0  0  0  0  0  0  0  0  0  0
   46.0770   34.2640   44.0230 C   0  0  0  0  0  0  0  0  0  0  0  0
   46.5170   34.8940   42.8760 C   0  0  0  0  0  0  0  0  0  0  0  0
   47.4980   34.3530   42.0920 C   0  0  0  0  0  0  0  0  0  0  0  0
   48.0410   33.1370   42.4860 C   0  0  0  0  0  0  0  0  0  0  0  0
   45.5430   30.4280   46.7140 C   0  0  0  0  0  0  0  0  0  0  0  0
   45.2710   31.1320   47.9030 C   0  0  0  0  0  0  0  0  0  0  0  0
   45.4620   32.5110   47.8850 C   0  0  0  0  0  0  0  0  0  0  0  0
   45.8960   33.0960   46.7350 N   0  0  0  0  0  0  0  0  0  0  0  0
   46.1470   32.4050   45.6200 C   0  0  0  0  0  0  0  0  0  0  0  0
   45.9670   31.0680   45.6160 N   0  0  0  0  0  0  0  0  0  0  0  0
   49.0670   32.4610   41.7650 N   0  0  0  0  0  0  0  0  0  0  0  0
   50.4130   32.4850   42.2930 C   0  0  0  0  0  0  0  0  0  0  0  0
   51.4550   32.2540   41.2380 C   0  0  0  0  0  0  0  0  0  0  0  0
   50.9300   31.9420   39.9340 N   0  0  0  0  0  0  0  0  0  0  0  0
   49.8060   31.0520   39.9650 C   0  0  0  0  0  0  0  0  0  0  0  0
   48.6330   31.8040   40.5460 C   0  0  0  0  0  0  0  0  0  0  0  0
   45.2871   34.7304   44.6301 H   0  0  0  0  0  0  0  0  0  0  0  0
   46.0673   35.8550   42.5856 H   0  0  0  0  0  0  0  0  0  0  0  0
   47.8449   34.8630   41.1812 H   0  0  0  0  0  0  0  0  0  0  0  0
   45.4054   29.3370   46.6864 H   0  0  0  0  0  0  0  0  0  0  0  0
   44.9221   30.6138   48.8084 H   0  0  0  0  0  0  0  0  0  0  0  0
   45.2660   33.1160   48.7825 H   0  0  0  0  0  0  0  0  0  0  0  0
   50.5920   33.4671   42.7549 H   0  0  0  0  0  0  0  0  0  0  0  0
   50.4963   31.6687   43.0256 H   0  0  0  0  0  0  0  0  0  0  0  0
   52.0649   33.1655   41.1530 H   0  0  0  0  0  0  0  0  0  0  0  0
   52.0337   31.3754   41.5591 H   0  0  0  0  0  0  0  0  0  0  0  0
   51.6779   31.5026   39.3786 H   0  0  0  0  0  0  0  0  0  0  0  0
   49.5667   30.7169   38.9450 H   0  0  0  0  0  0  0  0  0  0  0  0
   50.0350   30.1676   40.5777 H   0  0  0  0  0  0  0  0  0  0  0  0
   48.2797   32.5556   39.8247 H   0  0  0  0  0  0  0  0  0  0  0  0
   47.8096   31.1082   40.7648 H   0  0  0  0  0  0  0  0  0  0  0  0
  2  1  1  0
  2  3  2  0
  3 12  1  0
  4  3  1  0
  5  4  2  0
  6  7  2  0
  6  5  1  0
  7  2  1  0
  8  9  2  0
 10  9  1  0
 11 10  2  0
 12 11  1  0
 13 12  2  0
 13  8  1  0
 14 15  1  0
 14  7  1  0
 16 15  1  0
 17 18  1  0
 17 16  1  0
 18 19  1  0
 19 14  1  0
  4 20  1  0
  5 21  1  0
  6 22  1  0
  8 23  1  0
  9 24  1  0
 10 25  1  0
 15 26  1  0
 15 27  1  0
 16 28  1  0
 16 29  1  0
 17 30  1  0
 18 31  1  0
 18 32  1  0
 19 33  1  0
 19 34  1  0
M  ISO  8  20  14  21  14  22  14  23  14  24  14  25  14  26  13  27  13
M  ISO  7  28  13  29  13  30   5  31  13  32  13  33  13  34  13
M  END
>  <minimizedAffinity>  (1) 
-4.65292978

>  <minimizedRMSD>  (1) 
7.81653357

$$$$
