
     RDKit          3D

 27 28  0  0  0  0  0  0  0  0999 V2000
   44.7000   35.2430   45.0600 C   0  0  0  0  0  0  0  0  0  0  0  0
   45.4090   35.2010   43.8690 C   0  0  0  0  0  0  0  0  0  0  0  0
   46.4180   34.2580   43.7310 C   0  0  0  0  0  0  0  0  0  0  0  0
   46.6640   33.4160   44.7750 N   0  0  0  0  0  0  0  0  0  0  0  0
   45.9470   33.4930   45.9160 C   0  0  0  0  0  0  0  0  0  0  0  0
   44.9580   34.3980   46.0870 N   0  0  0  0  0  0  0  0  0  0  0  0
   47.1500   34.2150   42.5010 N   0  0  0  0  0  0  0  0  0  0  0  0
   46.8110   33.4470   41.3110 C   0  0  0  0  0  0  0  0  0  0  0  0
   47.2650   34.1670   40.0820 C   0  0  0  0  0  0  0  0  0  0  0  0
   48.6960   34.4240   40.2140 N   0  0  0  0  0  0  0  0  0  0  0  0
   48.8150   35.4880   41.1900 C   0  0  0  0  0  0  0  0  0  0  0  0
   48.3300   35.0540   42.5390 C   0  0  0  0  0  0  0  0  0  0  0  0
   45.0400   36.1710   42.8210 C   0  0  0  0  0  0  0  0  0  0  0  0
   43.8997   35.9889   45.1750 H   0  0  0  0  0  0  0  0  0  0  0  0
   46.1756   32.7951   46.7349 H   0  0  0  0  0  0  0  0  0  0  0  0
   47.3049   32.4653   41.3598 H   0  0  0  0  0  0  0  0  0  0  0  0
   45.7195   33.3179   41.2674 H   0  0  0  0  0  0  0  0  0  0  0  0
   46.7220   35.1187   39.9846 H   0  0  0  0  0  0  0  0  0  0  0  0
   47.0663   33.5591   39.1870 H   0  0  0  0  0  0  0  0  0  0  0  0
   49.1838   33.5786   40.5431 H   0  0  0  0  0  0  0  0  0  0  0  0
   49.8715   35.7842   41.2685 H   0  0  0  0  0  0  0  0  0  0  0  0
   48.1946   36.3328   40.8562 H   0  0  0  0  0  0  0  0  0  0  0  0
   48.0958   35.9532   43.1277 H   0  0  0  0  0  0  0  0  0  0  0  0
   49.1339   34.4510   42.9864 H   0  0  0  0  0  0  0  0  0  0  0  0
   44.6863   37.1009   43.2902 H   0  0  0  0  0  0  0  0  0  0  0  0
   45.9187   36.3871   42.1956 H   0  0  0  0  0  0  0  0  0  0  0  0
   44.2398   35.7484   42.1956 H   0  0  0  0  0  0  0  0  0  0  0  0
  1  6  2  0
  2  1  1  0
  3  2  2  0
  3  4  1  0
  4  5  2  0
  5  6  1  0
  7 12  1  0
  7  3  1  0
  8  7  1  0
  9 10  1  0
  9  8  1  0
 10 11  1  0
 11 12  1  0
 13  2  1  0
  1 14  1  0
  5 15  1  0
  8 16  1  0
  8 17  1  0
  9 18  1  0
  9 19  1  0
 10 20  1  0
 11 21  1  0
 11 22  1  0
 12 23  1  0
 12 24  1  0
 13 25  1  0
 13 26  1  0
 13 27  1  0
M  ISO  8  14  14  15  14  16  13  17  13  18  13  19  13  20   5  21  13
M  ISO  6  22  13  23  13  24  13  25   8  26   8  27   8
M  END
>  <minimizedAffinity>  (1) 
-4.35597897

>  <minimizedRMSD>  (1) 
2.01395392

$$$$
