
     RDKit          3D

 37 39  0  0  0  0  0  0  0  0999 V2000
   46.0110   30.0140   44.4800 Br  0  0  0  0  0  0  0  0  0  0  0  0
   45.7730   30.6360   46.2890 C   0  0  0  0  0  0  0  0  0  0  0  0
   46.3150   31.8600   46.5920 C   0  0  0  0  0  0  0  0  0  0  0  0
   46.1210   32.2790   47.9180 C   0  0  0  0  0  0  0  0  0  0  0  0
   45.4420   31.5310   48.8550 C   0  0  0  0  0  0  0  0  0  0  0  0
   44.9300   30.3230   48.4820 C   0  0  0  0  0  0  0  0  0  0  0  0
   45.0840   29.8530   47.1970 C   0  0  0  0  0  0  0  0  0  0  0  0
   44.5380   28.5880   46.8420 N   0  0  0  0  0  0  0  0  0  0  0  0
   43.4140   28.3540   45.9670 C   0  0  0  0  0  0  0  0  0  0  0  0
   43.3680   26.9120   45.5900 C   0  0  0  0  0  0  0  0  0  0  0  0
   44.6340   26.3170   45.2800 N   0  0  0  0  0  0  0  0  0  0  0  0
   45.6870   26.6160   46.2140 C   0  0  0  0  0  0  0  0  0  0  0  0
   45.1630   27.3940   47.4070 C   0  0  0  0  0  0  0  0  0  0  0  0
   47.0540   32.7350   45.6750 C   0  0  0  0  0  0  0  0  0  0  0  0
   44.5100   35.4150   45.1470 C   0  0  0  0  0  0  0  0  0  0  0  0
   44.7550   35.7770   43.8290 C   0  0  0  0  0  0  0  0  0  0  0  0
   45.7590   35.1230   43.1440 C   0  0  0  0  0  0  0  0  0  0  0  0
   46.4650   34.1560   43.7810 N   0  0  0  0  0  0  0  0  0  0  0  0
   46.2120   33.8120   45.0830 C   0  0  0  0  0  0  0  0  0  0  0  0
   45.2270   34.4630   45.7310 N   0  0  0  0  0  0  0  0  0  0  0  0
   46.5314   33.2526   48.2239 H   0  0  0  0  0  0  0  0  0  0  0  0
   45.3154   31.9006   49.8833 H   0  0  0  0  0  0  0  0  0  0  0  0
   44.3855   29.7148   49.2193 H   0  0  0  0  0  0  0  0  0  0  0  0
   42.4830   28.6272   46.4853 H   0  0  0  0  0  0  0  0  0  0  0  0
   43.5225   28.9665   45.0597 H   0  0  0  0  0  0  0  0  0  0  0  0
   42.9282   26.3553   46.4307 H   0  0  0  0  0  0  0  0  0  0  0  0
   42.7739   26.8593   44.6657 H   0  0  0  0  0  0  0  0  0  0  0  0
   44.5097   25.2949   45.2539 H   0  0  0  0  0  0  0  0  0  0  0  0
   46.1302   25.6734   46.5678 H   0  0  0  0  0  0  0  0  0  0  0  0
   46.4401   27.2327   45.7016 H   0  0  0  0  0  0  0  0  0  0  0  0
   45.9885   27.6720   48.0788 H   0  0  0  0  0  0  0  0  0  0  0  0
   44.4535   26.8022   48.0039 H   0  0  0  0  0  0  0  0  0  0  0  0
   47.8811   33.2029   46.2291 H   0  0  0  0  0  0  0  0  0  0  0  0
   47.4137   32.1088   44.8453 H   0  0  0  0  0  0  0  0  0  0  0  0
   43.7142   35.9220   45.7124 H   0  0  0  0  0  0  0  0  0  0  0  0
   44.1630   36.5662   43.3424 H   0  0  0  0  0  0  0  0  0  0  0  0
   45.9829   35.3818   42.0986 H   0  0  0  0  0  0  0  0  0  0  0  0
  1  2  1  0
  2  3  2  0
  2  7  1  0
  3  4  1  0
  4  5  2  0
  6  5  1  0
  7  6  2  0
  8  7  1  0
  8 13  1  0
  9  8  1  0
 10  9  1  0
 11 10  1  0
 11 12  1  0
 12 13  1  0
 14  3  1  0
 15 20  2  0
 16 15  1  0
 17 18  1  0
 17 16  2  0
 18 19  2  0
 19 14  1  0
 19 20  1  0
  4 21  1  0
  5 22  1  0
  6 23  1  0
  9 24  1  0
  9 25  1  0
 10 26  1  0
 10 27  1  0
 11 28  1  0
 12 29  1  0
 12 30  1  0
 13 31  1  0
 13 32  1  0
 14 33  1  0
 14 34  1  0
 15 35  1  0
 16 36  1  0
 17 37  1  0
M  ISO  8  21  14  22  14  23  14  24  13  25  13  26  13  27  13  28   5
M  ISO  8  29  13  30  13  31  13  32  13  33   8  34   8  35  14  36  14
M  ISO  1  37  14
M  END
>  <minimizedAffinity>  (1) 
-4.85108042

>  <minimizedRMSD>  (1) 
0.880052269

$$$$
