
     RDKit          3D

 25 26  0  0  0  0  0  0  0  0999 V2000
   45.4960   34.2770   44.7420 C   0  0  0  0  0  0  0  0  0  0  0  0
   46.0470   33.5670   43.6770 C   0  0  0  0  0  0  0  0  0  0  0  0
   46.7870   32.4050   43.9880 C   0  0  0  0  0  0  0  0  0  0  0  0
   46.9100   32.0600   45.2860 N   0  0  0  0  0  0  0  0  0  0  0  0
   46.3640   32.7720   46.2810 C   0  0  0  0  0  0  0  0  0  0  0  0
   45.6430   33.8970   46.0200 N   0  0  0  0  0  0  0  0  0  0  0  0
   46.4850   32.4220   47.6560 N   0  0  0  0  0  0  0  0  0  0  0  0
   45.3550   32.1330   48.5180 C   0  0  0  0  0  0  0  0  0  0  0  0
   45.4500   30.7570   49.1280 C   0  0  0  0  0  0  0  0  0  0  0  0
   46.6740   30.0760   48.7530 N   0  0  0  0  0  0  0  0  0  0  0  0
   47.8290   30.9090   48.9740 C   0  0  0  0  0  0  0  0  0  0  0  0
   47.6950   32.3000   48.3980 C   0  0  0  0  0  0  0  0  0  0  0  0
   44.5670   35.7490   44.2530 S   0  0  0  0  0  0  0  0  0  0  0  0
   45.9111   33.8980   42.6368 H   0  0  0  0  0  0  0  0  0  0  0  0
   47.2495   31.7991   43.1949 H   0  0  0  0  0  0  0  0  0  0  0  0
   45.3243   32.8788   49.3260 H   0  0  0  0  0  0  0  0  0  0  0  0
   44.4413   32.1724   47.9068 H   0  0  0  0  0  0  0  0  0  0  0  0
   45.4186   30.8520   50.2234 H   0  0  0  0  0  0  0  0  0  0  0  0
   44.6038   30.1621   48.7538 H   0  0  0  0  0  0  0  0  0  0  0  0
   46.6265   29.8272   47.7546 H   0  0  0  0  0  0  0  0  0  0  0  0
   47.9915   30.9965   50.0584 H   0  0  0  0  0  0  0  0  0  0  0  0
   48.6745   30.4286   48.4599 H   0  0  0  0  0  0  0  0  0  0  0  0
   48.5483   32.4995   47.7331 H   0  0  0  0  0  0  0  0  0  0  0  0
   47.6783   33.0256   49.2246 H   0  0  0  0  0  0  0  0  0  0  0  0
   44.1459   36.4162   45.3730 H   0  0  0  0  0  0  0  0  0  0  0  0
  1  6  2  0
  2  3  2  0
  2  1  1  0
  3  4  1  0
  4  5  2  0
  5  7  1  0
  6  5  1  0
  7 12  1  0
  7  8  1  0
  8  9  1  0
 10 11  1  0
 10  9  1  0
 12 11  1  0
 13  1  1  0
  2 14  1  0
  3 15  1  0
  8 16  1  0
  8 17  1  0
  9 18  1  0
  9 19  1  0
 10 20  1  0
 11 21  1  0
 11 22  1  0
 12 23  1  0
 12 24  1  0
 13 25  1  0
M  ISO  8  14  14  15  14  16  13  17  13  18  13  19  13  20   5  21  13
M  ISO  4  22  13  23  13  24  13  25  11
M  END
>  <minimizedAffinity>  (1) 
-4.50974178

>  <minimizedRMSD>  (1) 
1.73514509

$$$$
