
     RDKit          3D

 44 47  0  0  0  0  0  0  0  0999 V2000
   44.6340   35.0650   45.2890 C   0  0  0  0  0  0  0  0  0  0  0  0
   45.1600   35.1270   44.0050 C   0  0  0  0  0  0  0  0  0  0  0  0
   46.2150   34.2970   43.6440 C   0  0  0  0  0  0  0  0  0  0  0  0
   46.6330   33.4760   44.6450 N   0  0  0  0  0  0  0  0  0  0  0  0
   46.1360   33.4150   45.8610 C   0  0  0  0  0  0  0  0  0  0  0  0
   45.1350   34.2180   46.1660 N   0  0  0  0  0  0  0  0  0  0  0  0
   46.8490   34.2420   42.3790 C   0  0  0  0  0  0  0  0  0  0  0  0
   47.8150   35.2010   42.1230 C   0  0  0  0  0  0  0  0  0  0  0  0
   48.5350   35.2970   40.9450 C   0  0  0  0  0  0  0  0  0  0  0  0
   48.3150   34.4130   39.9420 C   0  0  0  0  0  0  0  0  0  0  0  0
   47.3710   33.4360   40.1270 C   0  0  0  0  0  0  0  0  0  0  0  0
   47.0980   32.5150   39.1600 C   0  0  0  0  0  0  0  0  0  0  0  0
   46.1640   31.5230   39.3060 C   0  0  0  0  0  0  0  0  0  0  0  0
   45.4640   31.4740   40.5220 C   0  0  0  0  0  0  0  0  0  0  0  0
   45.7690   32.4270   41.4800 C   0  0  0  0  0  0  0  0  0  0  0  0
   46.6840   33.3900   41.3260 C   0  0  0  0  0  0  0  0  0  0  0  0
   44.9610   32.2370   42.6430 N   0  0  0  0  0  0  0  0  0  0  0  0
   46.7980   32.4100   46.7580 C   0  0  0  0  0  0  0  0  0  0  0  0
   45.8760   31.6420   47.4100 F   0  0  0  0  0  0  0  0  0  0  0  0
   47.6420   33.0560   47.6500 F   0  0  0  0  0  0  0  0  0  0  0  0
   47.6790   31.6240   45.9810 F   0  0  0  0  0  0  0  0  0  0  0  0
   44.6680   36.0370   42.9540 C   0  0  0  0  0  0  0  0  0  0  0  0
   43.3980   35.6070   42.2930 C   0  0  0  0  0  0  0  0  0  0  0  0
   43.6150   35.3190   40.8080 C   0  0  0  0  0  0  0  0  0  0  0  0
   42.8680   34.0980   40.3310 C   0  0  0  0  0  0  0  0  0  0  0  0
   42.3760   35.4370   39.9090 C   0  0  0  0  0  0  0  0  0  0  0  0
   43.7995   35.7226   45.5740 H   0  0  0  0  0  0  0  0  0  0  0  0
   48.0247   35.9385   42.9118 H   0  0  0  0  0  0  0  0  0  0  0  0
   49.2862   36.0913   40.8229 H   0  0  0  0  0  0  0  0  0  0  0  0
   48.8808   34.4777   39.0009 H   0  0  0  0  0  0  0  0  0  0  0  0
   47.6561   32.5709   38.2138 H   0  0  0  0  0  0  0  0  0  0  0  0
   45.9708   30.7954   38.5039 H   0  0  0  0  0  0  0  0  0  0  0  0
   44.6995   30.7052   40.7077 H   0  0  0  0  0  0  0  0  0  0  0  0
   45.0657   32.8667   43.4514 H   0  0  0  0  0  0  0  0  0  0  0  0
   44.2738   31.4704   42.6730 H   0  0  0  0  0  0  0  0  0  0  0  0
   44.4993   37.0244   43.4085 H   0  0  0  0  0  0  0  0  0  0  0  0
   45.4375   36.0451   42.1680 H   0  0  0  0  0  0  0  0  0  0  0  0
   43.0291   34.6948   42.7848 H   0  0  0  0  0  0  0  0  0  0  0  0
   42.6653   36.4222   42.3852 H   0  0  0  0  0  0  0  0  0  0  0  0
   44.6433   35.7063   40.7581 H   0  0  0  0  0  0  0  0  0  0  0  0
   43.3320   33.4293   39.5910 H   0  0  0  0  0  0  0  0  0  0  0  0
   42.4082   33.2340   40.8332 H   0  0  0  0  0  0  0  0  0  0  0  0
   42.4839   35.7583   38.8625 H   0  0  0  0  0  0  0  0  0  0  0  0
   41.4155   35.9693   39.9728 H   0  0  0  0  0  0  0  0  0  0  0  0
  1  6  2  0
  2  1  1  0
  3  2  2  0
  3  4  1  0
  4  5  2  0
  5  6  1  0
  5 18  1  0
  7  3  1  0
  8  7  2  0
  9  8  1  0
 10 11  1  0
 10  9  2  0
 11 16  2  0
 12 13  2  0
 12 11  1  0
 13 14  1  0
 14 15  2  0
 15 17  1  0
 16 15  1  0
 16  7  1  0
 18 19  1  0
 18 20  1  0
 21 18  1  0
 22  2  1  0
 23 22  1  0
 24 23  1  0
 25 24  1  0
 26 25  1  0
 26 24  1  0
  1 27  1  0
  8 28  1  0
  9 29  1  0
 10 30  1  0
 12 31  1  0
 13 32  1  0
 14 33  1  0
 17 34  1  0
 17 35  1  0
 22 36  1  0
 22 37  1  0
 23 38  1  0
 23 39  1  0
 24 40  1  0
 25 41  1  0
 25 42  1  0
 26 43  1  0
 26 44  1  0
M  ISO  8  27  14  28  14  29  14  30  14  31  14  32  14  33  14  36   8
M  ISO  8  37   8  38   8  39   8  40  13  41  13  42  13  43  13  44  13
M  END
>  <minimizedAffinity>  (1) 
-6.15611744

>  <minimizedRMSD>  (1) 
1.15053844

$$$$
