
     RDKit          3D

 21 22  0  0  0  0  0  0  0  0999 V2000
   44.9050   35.1420   44.1320 C   0  0  0  0  0  0  0  0  0  0  0  0
   45.6820   35.3970   42.9990 C   0  0  0  0  0  0  0  0  0  0  0  0
   46.8800   34.6780   42.8690 C   0  0  0  0  0  0  0  0  0  0  0  0
   47.2230   33.7810   43.8350 N   0  0  0  0  0  0  0  0  0  0  0  0
   46.4320   33.5760   44.9110 C   0  0  0  0  0  0  0  0  0  0  0  0
   45.2920   34.2540   45.0430 N   0  0  0  0  0  0  0  0  0  0  0  0
   43.6890   35.8490   44.2970 N   0  0  0  0  0  0  0  0  0  0  0  0
   47.6610   34.9630   41.6880 C   0  0  0  0  0  0  0  0  0  0  0  0
   48.6230   35.7660   41.6400 O   0  0  0  0  0  0  0  0  0  0  0  0
   47.3470   34.2850   40.4010 C   0  0  0  0  0  0  0  0  0  0  0  0
   48.2170   33.2660   39.7970 C   0  0  0  0  0  0  0  0  0  0  0  0
   48.3530   34.6570   39.3000 C   0  0  0  0  0  0  0  0  0  0  0  0
   45.3680   36.1300   42.2413 H   0  0  0  0  0  0  0  0  0  0  0  0
   46.7295   32.8478   45.6799 H   0  0  0  0  0  0  0  0  0  0  0  0
   43.3926   36.5361   43.5892 H   0  0  0  0  0  0  0  0  0  0  0  0
   43.1010   35.6761   45.1248 H   0  0  0  0  0  0  0  0  0  0  0  0
   46.2644   34.2818   40.5959 H   0  0  0  0  0  0  0  0  0  0  0  0
   49.0272   32.8218   40.3939 H   0  0  0  0  0  0  0  0  0  0  0  0
   48.0306   32.2979   39.3091 H   0  0  0  0  0  0  0  0  0  0  0  0
   49.2483   35.2481   39.5430 H   0  0  0  0  0  0  0  0  0  0  0  0
   48.3008   35.1522   38.3192 H   0  0  0  0  0  0  0  0  0  0  0  0
  1  7  1  0
  1  6  2  0
  2  1  1  0
  3  2  2  0
  3  4  1  0
  4  5  2  0
  5  6  1  0
  8  3  1  0
  9  8  2  0
 10  8  1  0
 11 10  1  0
 12 11  1  0
 12 10  1  0
  2 13  1  0
  5 14  1  0
  7 15  1  0
  7 16  1  0
 10 17  1  0
 11 18  1  0
 11 19  1  0
 12 20  1  0
 12 21  1  0
M  ISO  7  13  14  14  14  17  13  18  13  19  13  20  13  21  13
M  END
>  <minimizedAffinity>  (1) 
-4.45292187

>  <minimizedRMSD>  (1) 
0.146714762

$$$$
