
     RDKit          3D

 46 49  0  0  1  0  0  0  0  0999 V2000
   47.5990   34.4190   42.3180 N   0  0  0  0  0  0  0  0  0  0  0  0
   47.6650   34.5770   40.8770 C   0  0  0  0  0  0  0  0  0  0  0  0
   48.2480   33.2420   40.5200 C   0  0  2  0  0  0  0  0  0  0  0  0
   49.3960   33.1150   41.5040 C   0  0  0  0  0  0  0  0  0  0  0  0
   48.8620   33.8470   42.7070 C   0  0  0  0  0  0  0  0  0  0  0  0
   44.7020   36.0070   44.0370 C   0  0  0  0  0  0  0  0  0  0  0  0
   45.6840   35.7820   43.0800 C   0  0  0  0  0  0  0  0  0  0  0  0
   46.5760   34.7270   43.2310 C   0  0  0  0  0  0  0  0  0  0  0  0
   46.4290   33.9600   44.3340 N   0  0  0  0  0  0  0  0  0  0  0  0
   45.4970   34.1530   45.2690 C   0  0  0  0  0  0  0  0  0  0  0  0
   44.6270   35.1940   45.1090 N   0  0  0  0  0  0  0  0  0  0  0  0
   48.8020   33.1940   39.2020 N   0  0  0  0  0  0  0  0  0  0  0  0
   48.9860   32.2120   36.9280 C   0  0  0  0  0  0  0  0  0  0  0  0
   48.2580   32.8490   37.9510 C   0  0  0  0  0  0  0  0  0  0  0  0
   46.9620   33.1080   37.6260 C   0  0  0  0  0  0  0  0  0  0  0  0
   46.3380   32.8100   36.4340 C   0  0  0  0  0  0  0  0  0  0  0  0
   47.0790   32.1880   35.4580 C   0  0  0  0  0  0  0  0  0  0  0  0
   48.4070   31.8960   35.7260 C   0  0  0  0  0  0  0  0  0  0  0  0
   49.5240   32.0060   33.5550 C   0  0  0  0  0  0  0  0  0  0  0  0
   49.2570   33.2550   33.4770 O   0  0  0  0  0  0  0  0  0  0  0  0
   49.1550   31.2460   34.6870 N   0  0  0  0  0  0  0  0  0  0  0  0
   50.2290   31.4140   32.4140 C   0  0  0  0  0  0  0  0  0  0  0  0
   49.5240   31.4860   31.0660 C   0  0  0  0  0  0  0  0  0  0  0  0
   49.7400   30.1790   31.7620 C   0  0  0  0  0  0  0  0  0  0  0  0
   51.4760   31.6500   37.4020 N   0  0  0  0  0  0  0  0  0  0  0  0
   50.3730   31.9010   37.1950 C   0  0  0  0  0  0  0  0  0  0  0  0
   46.6697   34.7244   40.4324 H   0  0  0  0  0  0  0  0  0  0  0  0
   48.2321   35.4504   40.5227 H   0  0  0  0  0  0  0  0  0  0  0  0
   47.4796   32.4556   40.5554 H   0  0  0  0  0  0  0  0  0  0  0  0
   49.6062   32.0611   41.7386 H   0  0  0  0  0  0  0  0  0  0  0  0
   50.3483   33.5170   41.1277 H   0  0  0  0  0  0  0  0  0  0  0  0
   49.5609   34.6412   43.0082 H   0  0  0  0  0  0  0  0  0  0  0  0
   48.7406   33.1659   43.5622 H   0  0  0  0  0  0  0  0  0  0  0  0
   43.9932   36.8401   43.9207 H   0  0  0  0  0  0  0  0  0  0  0  0
   45.7555   36.4400   42.2014 H   0  0  0  0  0  0  0  0  0  0  0  0
   45.4309   33.4915   46.1454 H   0  0  0  0  0  0  0  0  0  0  0  0
   49.7947   33.4655   39.1606 H   0  0  0  0  0  0  0  0  0  0  0  0
   46.3504   33.6059   38.3928 H   0  0  0  0  0  0  0  0  0  0  0  0
   45.2801   33.0621   36.2689 H   0  0  0  0  0  0  0  0  0  0  0  0
   46.6293   31.9284   34.4883 H   0  0  0  0  0  0  0  0  0  0  0  0
   49.4154   30.2525   34.7650 H   0  0  0  0  0  0  0  0  0  0  0  0
   51.2031   31.7072   32.8325 H   0  0  0  0  0  0  0  0  0  0  0  0
   50.0924   31.7293   30.1562 H   0  0  0  0  0  0  0  0  0  0  0  0
   48.6554   32.0265   30.6617 H   0  0  0  0  0  0  0  0  0  0  0  0
   48.8816   29.6398   32.1889 H   0  0  0  0  0  0  0  0  0  0  0  0
   50.2059   29.2242   31.4769 H   0  0  0  0  0  0  0  0  0  0  0  0
  1  5  1  0
  1  8  1  0
  2  1  1  0
  3  2  1  0
  3  4  1  0
  4  5  1  0
  6 11  2  0
  7  8  2  0
  7  6  1  0
  8  9  1  0
  9 10  2  0
 11 10  1  0
 12  3  1  0
 13 26  1  0
 13 14  2  0
 14 12  1  0
 15 14  1  0
 16 15  2  0
 17 18  2  0
 17 16  1  0
 18 13  1  0
 19 21  1  0
 20 19  2  0
 21 18  1  0
 22 19  1  0
 23 24  1  0
 23 22  1  0
 24 22  1  0
 26 25  3  0
  2 27  1  0
  2 28  1  0
  3 29  1  6
  4 30  1  0
  4 31  1  0
  5 32  1  0
  5 33  1  0
  6 34  1  0
  7 35  1  0
 10 36  1  0
 12 37  1  0
 15 38  1  0
 16 39  1  0
 17 40  1  0
 21 41  1  0
 22 42  1  0
 23 43  1  0
 23 44  1  0
 24 45  1  0
 24 46  1  0
M  ISO  8  27  13  28  13  29  13  30  13  31  13  32  13  33  13  34  14
M  ISO  8  35  14  36  14  38  14  39  14  40  14  42  13  43  13  44  13
M  ISO  2  45  13  46  13
M  END
>  <minimizedAffinity>  (1) 
-5.377388

>  <minimizedRMSD>  (1) 
0.264497846

$$$$
