
     RDKit          3D

 32 33  0  0  0  0  0  0  0  0999 V2000
   44.8870   36.1670   43.1800 C   0  0  0  0  0  0  0  0  0  0  0  0
   45.0900   34.7370   45.1530 C   0  0  0  0  0  0  0  0  0  0  0  0
   45.5310   35.0720   43.8810 C   0  0  0  0  0  0  0  0  0  0  0  0
   46.5630   34.3260   43.3600 C   0  0  0  0  0  0  0  0  0  0  0  0
   47.1040   33.3010   44.1030 N   0  0  0  0  0  0  0  0  0  0  0  0
   46.6580   33.0130   45.3300 C   0  0  0  0  0  0  0  0  0  0  0  0
   45.6210   33.7380   45.8670 N   0  0  0  0  0  0  0  0  0  0  0  0
   46.9970   34.6950   42.0050 C   0  0  0  0  0  0  0  0  0  0  0  0
   47.8970   33.7440   41.5430 F   0  0  0  0  0  0  0  0  0  0  0  0
   47.6890   35.8710   42.1350 F   0  0  0  0  0  0  0  0  0  0  0  0
   45.9690   34.6960   41.1330 F   0  0  0  0  0  0  0  0  0  0  0  0
   44.8070   37.3500   44.0320 N   0  0  0  0  0  0  0  0  0  0  0  0
   45.7850   38.2840   43.5280 C   0  0  0  0  0  0  0  0  0  0  0  0
   45.3560   39.7180   43.6890 C   0  0  0  0  0  0  0  0  0  0  0  0
   45.3100   40.0960   45.4700 S   0  0  0  0  0  0  0  0  0  0  0  0
   44.0980   41.4130   45.7010 C   0  0  0  0  0  0  0  0  0  0  0  0
   44.3940   42.8120   45.3540 C   0  0  0  0  0  0  0  0  0  0  0  0
   44.4170   42.4470   46.7780 C   0  0  0  0  0  0  0  0  0  0  0  0
   45.4684   36.4101   42.2784 H   0  0  0  0  0  0  0  0  0  0  0  0
   43.8671   35.8596   42.9054 H   0  0  0  0  0  0  0  0  0  0  0  0
   44.2671   35.3187   45.5941 H   0  0  0  0  0  0  0  0  0  0  0  0
   47.1194   32.1986   45.9078 H   0  0  0  0  0  0  0  0  0  0  0  0
   43.8638   37.7610   43.9827 H   0  0  0  0  0  0  0  0  0  0  0  0
   45.9454   38.0827   42.4586 H   0  0  0  0  0  0  0  0  0  0  0  0
   46.7076   38.1458   44.1109 H   0  0  0  0  0  0  0  0  0  0  0  0
   46.0745   40.3813   43.1852 H   0  0  0  0  0  0  0  0  0  0  0  0
   44.3637   39.8724   43.2401 H   0  0  0  0  0  0  0  0  0  0  0  0
   43.2757   40.7301   45.4413 H   0  0  0  0  0  0  0  0  0  0  0  0
   45.3358   43.0565   44.8410 H   0  0  0  0  0  0  0  0  0  0  0  0
   43.8655   43.5817   44.7724 H   0  0  0  0  0  0  0  0  0  0  0  0
   43.6259   42.8043   47.4537 H   0  0  0  0  0  0  0  0  0  0  0  0
   45.1466   42.5275   47.5973 H   0  0  0  0  0  0  0  0  0  0  0  0
  1  3  1  0
  1 12  1  0
  2  7  2  0
  3  2  1  0
  4  3  2  0
  4  5  1  0
  5  6  2  0
  6  7  1  0
  8 10  1  0
  8  4  1  0
  9  8  1  0
 11  8  1  0
 13 14  1  0
 13 12  1  0
 14 15  1  0
 15 16  1  0
 16 18  1  0
 17 16  1  0
 17 18  1  0
  1 19  1  0
  1 20  1  0
  2 21  1  0
  6 22  1  0
 12 23  1  0
 13 24  1  0
 13 25  1  0
 14 26  1  0
 14 27  1  0
 16 28  1  0
 17 29  1  0
 17 30  1  0
 18 31  1  0
 18 32  1  0
M  ISO  8  19   8  20   8  21  14  22  14  23   5  24   8  25   8  26   8
M  ISO  6  27   8  28  13  29  13  30  13  31  13  32  13
M  END
>  <minimizedAffinity>  (1) 
-3.81576443

>  <minimizedRMSD>  (1) 
1.20952308

$$$$
