
     RDKit          3D

 21 22  0  0  0  0  0  0  0  0999 V2000
   44.2680   35.7580   44.2100 C   0  0  0  0  0  0  0  0  0  0  0  0
   44.3930   34.9350   43.1010 C   0  0  0  0  0  0  0  0  0  0  0  0
   45.0070   33.7110   43.2220 C   0  0  0  0  0  0  0  0  0  0  0  0
   45.4760   33.3440   44.4410 N   0  0  0  0  0  0  0  0  0  0  0  0
   45.3410   34.1620   45.5060 C   0  0  0  0  0  0  0  0  0  0  0  0
   44.7530   35.3410   45.3990 N   0  0  0  0  0  0  0  0  0  0  0  0
   43.7560   35.4580   41.4910 S   0  0  0  0  0  0  0  0  0  0  0  0
   42.1010   34.8350   41.2670 C   0  0  0  0  0  0  0  0  0  0  0  0
   41.3130   35.4230   40.1520 C   0  0  0  0  0  0  0  0  0  0  0  0
   39.9020   35.0550   39.8900 C   0  0  0  0  0  0  0  0  0  0  0  0
   40.2090   36.3750   40.6230 C   0  0  0  0  0  0  0  0  0  0  0  0
   43.7792   36.7395   44.1220 H   0  0  0  0  0  0  0  0  0  0  0  0
   45.1153   33.0460   42.3525 H   0  0  0  0  0  0  0  0  0  0  0  0
   45.7286   33.8407   46.4840 H   0  0  0  0  0  0  0  0  0  0  0  0
   42.1735   33.7519   41.0893 H   0  0  0  0  0  0  0  0  0  0  0  0
   41.5598   35.1143   42.1830 H   0  0  0  0  0  0  0  0  0  0  0  0
   42.1842   35.4402   39.4807 H   0  0  0  0  0  0  0  0  0  0  0  0
   39.5121   35.0776   38.8617 H   0  0  0  0  0  0  0  0  0  0  0  0
   39.2792   34.1756   40.1105 H   0  0  0  0  0  0  0  0  0  0  0  0
   39.9857   36.4812   41.6949 H   0  0  0  0  0  0  0  0  0  0  0  0
   39.9642   37.4373   40.4760 H   0  0  0  0  0  0  0  0  0  0  0  0
  1  6  2  0
  2  3  2  0
  2  1  1  0
  3  4  1  0
  4  5  2  0
  6  5  1  0
  7  2  1  0
  8  7  1  0
  9 11  1  0
  9  8  1  0
 10  9  1  0
 10 11  1  0
  1 12  1  0
  3 13  1  0
  5 14  1  0
  8 15  1  0
  8 16  1  0
  9 17  1  0
 10 18  1  0
 10 19  1  0
 11 20  1  0
 11 21  1  0
M  ISO  8  12  14  13  14  14  14  15   8  16   8  17  13  18  13  19  13
M  ISO  2  20  13  21  13
M  END
>  <minimizedAffinity>  (1) 
-3.76885772

>  <minimizedRMSD>  (1) 
2.50552368

$$$$
