
     RDKit          3D

 45 49  0  0  0  0  0  0  0  0999 V2000
   48.9170   30.0270   48.2030 S   0  0  0  0  0  0  0  0  0  0  0  0
   49.8340   30.3000   49.6340 C   0  0  0  0  0  0  0  0  0  0  0  0
   50.0390   31.5610   50.1270 N   0  0  0  0  0  0  0  0  0  0  0  0
   50.7670   31.8270   51.2040 C   0  0  0  0  0  0  0  0  0  0  0  0
   51.3290   30.7920   51.8360 N   0  0  0  0  0  0  0  0  0  0  0  0
   51.1810   29.5210   51.4230 C   0  0  0  0  0  0  0  0  0  0  0  0
   51.7700   28.4610   52.0900 C   0  0  0  0  0  0  0  0  0  0  0  0
   51.6000   27.1720   51.6450 C   0  0  0  0  0  0  0  0  0  0  0  0
   50.8450   26.9270   50.5390 C   0  0  0  0  0  0  0  0  0  0  0  0
   50.2370   27.9680   49.8430 C   0  0  0  0  0  0  0  0  0  0  0  0
   50.4100   29.2440   50.2870 C   0  0  0  0  0  0  0  0  0  0  0  0
   49.4260   27.5880   48.6760 C   0  0  0  0  0  0  0  0  0  0  0  0
   49.2020   26.0550   48.6540 C   0  0  0  0  0  0  0  0  0  0  0  0
   48.4990   25.5690   47.3960 C   0  0  0  0  0  0  0  0  0  0  0  0
   47.8880   25.4430   48.7560 C   0  0  0  0  0  0  0  0  0  0  0  0
   46.1260   32.6170   46.9810 C   0  0  0  0  0  0  0  0  0  0  0  0
   47.2580   31.8220   47.0640 C   0  0  0  0  0  0  0  0  0  0  0  0
   47.4510   30.9850   48.1410 C   0  0  0  0  0  0  0  0  0  0  0  0
   46.5210   30.9200   49.1530 C   0  0  0  0  0  0  0  0  0  0  0  0
   45.3950   31.6840   49.1100 C   0  0  0  0  0  0  0  0  0  0  0  0
   45.2150   32.5160   48.0320 C   0  0  0  0  0  0  0  0  0  0  0  0
   44.7250   35.3120   44.9560 C   0  0  0  0  0  0  0  0  0  0  0  0
   45.4720   35.2290   43.7460 C   0  0  0  0  0  0  0  0  0  0  0  0
   46.4460   34.2470   43.6430 C   0  0  0  0  0  0  0  0  0  0  0  0
   46.6750   33.3870   44.6830 N   0  0  0  0  0  0  0  0  0  0  0  0
   45.9280   33.5060   45.8330 C   0  0  0  0  0  0  0  0  0  0  0  0
   44.9680   34.4560   45.9640 N   0  0  0  0  0  0  0  0  0  0  0  0
   50.9026   32.8581   51.5624 H   0  0  0  0  0  0  0  0  0  0  0  0
   52.3802   28.6522   52.9851 H   0  0  0  0  0  0  0  0  0  0  0  0
   52.0742   26.3378   52.1827 H   0  0  0  0  0  0  0  0  0  0  0  0
   50.7136   25.8920   50.1905 H   0  0  0  0  0  0  0  0  0  0  0  0
   48.4520   28.0965   48.7297 H   0  0  0  0  0  0  0  0  0  0  0  0
   49.9560   27.8857   47.7593 H   0  0  0  0  0  0  0  0  0  0  0  0
   50.1281   25.8665   49.2169 H   0  0  0  0  0  0  0  0  0  0  0  0
   48.0963   26.2902   46.6695 H   0  0  0  0  0  0  0  0  0  0  0  0
   48.7389   24.8842   46.5693 H   0  0  0  0  0  0  0  0  0  0  0  0
   47.7847   24.4493   49.2163 H   0  0  0  0  0  0  0  0  0  0  0  0
   46.9300   25.7559   49.1968 H   0  0  0  0  0  0  0  0  0  0  0  0
   48.0099   31.8597   46.2620 H   0  0  0  0  0  0  0  0  0  0  0  0
   46.6889   30.2444   50.0047 H   0  0  0  0  0  0  0  0  0  0  0  0
   44.6492   31.6363   49.9171 H   0  0  0  0  0  0  0  0  0  0  0  0
   44.3059   33.1342   47.9959 H   0  0  0  0  0  0  0  0  0  0  0  0
   43.9455   36.0802   45.0663 H   0  0  0  0  0  0  0  0  0  0  0  0
   45.2815   35.9249   42.9157 H   0  0  0  0  0  0  0  0  0  0  0  0
   47.0380   34.1588   42.7201 H   0  0  0  0  0  0  0  0  0  0  0  0
  1  2  1  0
  2  3  2  0
  2 11  1  0
  3  4  1  0
  4  5  2  0
  6  5  1  0
  6  7  2  0
  8  7  1  0
  9  8  2  0
 10 11  2  0
 10  9  1  0
 11  6  1  0
 12 10  1  0
 13 12  1  0
 13 15  1  0
 14 13  1  0
 14 15  1  0
 16 17  2  0
 16 21  1  0
 17 18  1  0
 18  1  1  0
 18 19  2  0
 20 19  1  0
 21 20  2  0
 22 27  2  0
 23 22  1  0
 24 23  2  0
 24 25  1  0
 25 26  2  0
 26 27  1  0
 26 16  1  0
  4 28  1  0
  7 29  1  0
  8 30  1  0
  9 31  1  0
 12 32  1  0
 12 33  1  0
 13 34  1  0
 14 35  1  0
 14 36  1  0
 15 37  1  0
 15 38  1  0
 17 39  1  0
 19 40  1  0
 20 41  1  0
 21 42  1  0
 22 43  1  0
 23 44  1  0
 24 45  1  0
M  ISO  8  28  14  29  14  30  14  31  14  32   8  33   8  34  13  35  13
M  ISO  8  36  13  37  13  38  13  39  14  40  14  41  14  42  14  43  14
M  ISO  2  44  14  45  14
M  END
>  <minimizedAffinity>  (1) 
-6.43004179

>  <minimizedRMSD>  (1) 
0.551601231

$$$$
