
     RDKit          3D

 31 33  0  0  1  0  0  0  0  0999 V2000
   44.7100   33.0080   41.1980 Br  0  0  0  0  0  0  0  0  0  0  0  0
   46.3570   33.9560   41.0050 C   0  0  0  0  0  0  0  0  0  0  0  0
   46.8560   34.7670   41.9890 C   0  0  0  0  0  0  0  0  0  0  0  0
   48.0530   35.4320   41.7450 C   0  0  0  0  0  0  0  0  0  0  0  0
   48.7440   35.2960   40.5480 C   0  0  0  0  0  0  0  0  0  0  0  0
   48.2360   34.4690   39.5480 C   0  0  0  0  0  0  0  0  0  0  0  0
   47.0420   33.8240   39.8250 C   0  0  0  0  0  0  0  0  0  0  0  0
   44.4930   35.9050   44.7140 C   0  0  0  0  0  0  0  0  0  0  0  0
   45.1930   35.8560   43.4930 C   0  0  0  0  0  0  0  0  0  0  0  0
   46.1060   34.8650   43.2340 C   0  0  0  0  0  0  0  0  0  0  0  0
   46.2700   33.9520   44.2490 N   0  0  0  0  0  0  0  0  0  0  0  0
   45.6010   34.0070   45.4040 C   0  0  0  0  0  0  0  0  0  0  0  0
   44.7270   34.9680   45.6360 N   0  0  0  0  0  0  0  0  0  0  0  0
   46.5600   32.9470   38.7870 C   0  0  0  0  0  0  0  0  0  0  0  0
   45.7640   33.3840   37.8690 O   0  0  0  0  0  0  0  0  0  0  0  0
   46.8240   31.5190   38.5450 C   0  0  0  0  0  0  0  0  0  0  0  0
   47.8350   30.7720   39.4020 C   0  0  0  0  0  0  0  0  0  0  0  0
   48.1700   31.0730   37.9870 C   0  0  0  0  0  0  0  0  0  0  0  0
   48.4660   36.0873   42.5260 H   0  0  0  0  0  0  0  0  0  0  0  0
   49.6878   35.8385   40.3900 H   0  0  0  0  0  0  0  0  0  0  0  0
   48.7564   34.3354   38.5882 H   0  0  0  0  0  0  0  0  0  0  0  0
   43.7628   36.7050   44.9057 H   0  0  0  0  0  0  0  0  0  0  0  0
   45.0041   36.6274   42.7319 H   0  0  0  0  0  0  0  0  0  0  0  0
   45.7812   33.2406   46.1722 H   0  0  0  0  0  0  0  0  0  0  0  0
   47.4258   33.2110   38.1619 H   0  0  0  0  0  0  0  0  0  0  0  0
   44.9789   33.8150   38.2908 H   0  0  0  0  0  0  0  0  0  0  0  0
   45.7696   31.3755   38.2665 H   0  0  0  0  0  0  0  0  0  0  0  0
   48.3602   31.2980   40.2128 H   0  0  0  0  0  0  0  0  0  0  0  0
   47.8049   29.8563   40.0108 H   0  0  0  0  0  0  0  0  0  0  0  0
   48.2145   30.2583   37.2492 H   0  0  0  0  0  0  0  0  0  0  0  0
   49.0041   31.5809   37.4808 H   0  0  0  0  0  0  0  0  0  0  0  0
  2  1  1  0
  2  3  2  0
  3 10  1  0
  4  3  1  0
  5  4  2  0
  6  7  2  0
  6  5  1  0
  7  2  1  0
  8 13  2  0
  9  8  1  0
 10  9  2  0
 10 11  1  0
 11 12  2  0
 12 13  1  0
 14 15  1  0
 14  7  1  0
 16 14  1  0
 16 17  1  0
 18 16  1  0
 18 17  1  0
  4 19  1  0
  5 20  1  0
  6 21  1  0
  8 22  1  0
  9 23  1  0
 12 24  1  0
 14 25  1  0
 15 26  1  0
 16 27  1  0
 17 28  1  0
 17 29  1  0
 18 30  1  0
 18 31  1  0
M  ISO  8  19  14  20  14  21  14  22  14  23  14  24  14  25   8  26   3
M  ISO  5  27  13  28  13  29  13  30  13  31  13
M  END
>  <minimizedAffinity>  (1) 
-5.01468754

>  <minimizedRMSD>  (1) 
0.817279398

$$$$
