
     RDKit          3D

 34 36  0  0  1  0  0  0  0  0999 V2000
   48.2150   33.6160   42.5860 C   0  0  1  0  0  0  0  0  0  0  0  0
   46.7350   33.7440   42.3240 C   0  0  2  0  0  0  0  0  0  0  0  0
   46.4700   34.6300   41.2950 O   0  0  0  0  0  0  0  0  0  0  0  0
   46.8940   34.0100   40.1310 C   0  0  0  0  0  0  0  0  0  0  0  0
   48.4050   34.0310   40.1120 C   0  0  2  0  0  0  0  0  0  0  0  0
   49.0480   33.5230   41.3560 C   0  0  2  0  0  0  0  0  0  0  0  0
   44.5780   35.7440   44.7150 C   0  0  0  0  0  0  0  0  0  0  0  0
   45.2220   35.3640   43.5260 C   0  0  0  0  0  0  0  0  0  0  0  0
   46.0230   34.1870   43.5390 C   0  0  0  0  0  0  0  0  0  0  0  0
   46.1340   33.4830   44.6930 N   0  0  0  0  0  0  0  0  0  0  0  0
   45.4840   33.8970   45.8270 C   0  0  0  0  0  0  0  0  0  0  0  0
   44.7170   35.0190   45.8290 N   0  0  0  0  0  0  0  0  0  0  0  0
   48.6780   34.5880   43.4820 O   0  0  0  0  0  0  0  0  0  0  0  0
   48.7630   35.3580   39.8470 O   0  0  0  0  0  0  0  0  0  0  0  0
   49.5910   32.2340   41.1940 O   0  0  0  0  0  0  0  0  0  0  0  0
   50.9030   32.1570   41.6460 C   0  0  0  0  0  0  0  0  0  0  0  0
   51.5400   30.8510   41.9200 C   0  0  0  0  0  0  0  0  0  0  0  0
   51.8680   31.4930   40.6470 C   0  0  0  0  0  0  0  0  0  0  0  0
   48.3390   32.6396   43.0772 H   0  0  0  0  0  0  0  0  0  0  0  0
   46.3768   32.7466   42.0292 H   0  0  0  0  0  0  0  0  0  0  0  0
   46.5352   32.9704   40.1102 H   0  0  0  0  0  0  0  0  0  0  0  0
   46.4943   34.5360   39.2515 H   0  0  0  0  0  0  0  0  0  0  0  0
   48.7708   33.3366   39.3412 H   0  0  0  0  0  0  0  0  0  0  0  0
   49.8780   34.2246   41.5256 H   0  0  0  0  0  0  0  0  0  0  0  0
   43.9522   36.6485   44.7294 H   0  0  0  0  0  0  0  0  0  0  0  0
   45.1104   35.9604   42.6085 H   0  0  0  0  0  0  0  0  0  0  0  0
   45.5851   33.3104   46.7520 H   0  0  0  0  0  0  0  0  0  0  0  0
   48.5303   34.2780   44.4105 H   0  0  0  0  0  0  0  0  0  0  0  0
   48.8934   35.8415   40.7010 H   0  0  0  0  0  0  0  0  0  0  0  0
   50.8191   33.0865   42.2283 H   0  0  0  0  0  0  0  0  0  0  0  0
   52.3090   30.7777   42.7031 H   0  0  0  0  0  0  0  0  0  0  0  0
   51.1507   29.8587   42.1916 H   0  0  0  0  0  0  0  0  0  0  0  0
   51.4864   31.0764   39.7032 H   0  0  0  0  0  0  0  0  0  0  0  0
   52.7949   31.7918   40.1356 H   0  0  0  0  0  0  0  0  0  0  0  0
  1 13  1  0
  2  1  1  0
  2  9  1  0
  3  2  1  0
  4  3  1  0
  5  4  1  0
  5  6  1  0
  6  1  1  0
  7 12  2  0
  8  9  2  0
  8  7  1  0
  9 10  1  0
 10 11  2  0
 11 12  1  0
 14  5  1  0
 15  6  1  0
 15 16  1  0
 16 17  1  0
 18 16  1  0
 18 17  1  0
  1 19  1  1
  2 20  1  6
  4 21  1  0
  4 22  1  0
  5 23  1  6
  6 24  1  1
  7 25  1  0
  8 26  1  0
 11 27  1  0
 13 28  1  0
 14 29  1  0
 16 30  1  0
 17 31  1  0
 17 32  1  0
 18 33  1  0
 18 34  1  0
M  ISO  8  19  13  20  13  21  13  22  13  23  13  24  13  25  14  26  14
M  ISO  8  27  14  28   3  29   3  30  13  31  13  32  13  33  13  34  13
M  END
>  <minimizedAffinity>  (1) 
-5.12640572

>  <minimizedRMSD>  (1) 
0.248563752

$$$$
