
     RDKit          3D

 23 24  0  0  0  0  0  0  0  0999 V2000
   45.2640   35.8400   43.4140 C   0  0  0  0  0  0  0  0  0  0  0  0
   46.0610   34.6790   43.3520 C   0  0  0  0  0  0  0  0  0  0  0  0
   46.0720   33.8580   44.4740 C   0  0  0  0  0  0  0  0  0  0  0  0
   45.3220   34.1990   45.5760 N   0  0  0  0  0  0  0  0  0  0  0  0
   44.5750   35.3250   45.5810 C   0  0  0  0  0  0  0  0  0  0  0  0
   44.5420   36.1410   44.5140 N   0  0  0  0  0  0  0  0  0  0  0  0
   46.9020   32.6480   44.3850 C   0  0  0  0  0  0  0  0  0  0  0  0
   47.0400   32.0920   45.6420 F   0  0  0  0  0  0  0  0  0  0  0  0
   48.1680   33.0840   44.0030 F   0  0  0  0  0  0  0  0  0  0  0  0
   46.3920   31.7080   43.5560 F   0  0  0  0  0  0  0  0  0  0  0  0
   46.8410   34.3460   42.1480 C   0  0  0  0  0  0  0  0  0  0  0  0
   47.7230   35.4650   41.6940 C   0  0  0  0  0  0  0  0  0  0  0  0
   49.2010   35.3680   41.7950 C   0  0  0  0  0  0  0  0  0  0  0  0
   48.6090   35.1270   40.4610 C   0  0  0  0  0  0  0  0  0  0  0  0
   45.2297   36.5157   42.5467 H   0  0  0  0  0  0  0  0  0  0  0  0
   43.9840   35.5779   46.4736 H   0  0  0  0  0  0  0  0  0  0  0  0
   47.4704   33.4714   42.3691 H   0  0  0  0  0  0  0  0  0  0  0  0
   46.1247   34.1429   41.3382 H   0  0  0  0  0  0  0  0  0  0  0  0
   46.9983   36.2311   42.0069 H   0  0  0  0  0  0  0  0  0  0  0  0
   49.7921   36.2795   41.9675 H   0  0  0  0  0  0  0  0  0  0  0  0
   49.8803   34.7895   42.4384 H   0  0  0  0  0  0  0  0  0  0  0  0
   48.6003   34.1135   40.0336 H   0  0  0  0  0  0  0  0  0  0  0  0
   48.7459   35.5448   39.4527 H   0  0  0  0  0  0  0  0  0  0  0  0
  1  6  2  0
  2  1  1  0
  2  3  2  0
  3  4  1  0
  4  5  2  0
  6  5  1  0
  7  3  1  0
  7  8  1  0
  9  7  1  0
 10  7  1  0
 11  2  1  0
 12 13  1  0
 12 11  1  0
 14 12  1  0
 14 13  1  0
  1 15  1  0
  5 16  1  0
 11 17  1  0
 11 18  1  0
 12 19  1  0
 13 20  1  0
 13 21  1  0
 14 22  1  0
 14 23  1  0
M  ISO  8  15  14  16  14  17   8  18   8  19  13  20  13  21  13  22  13
M  ISO  1  23  13
M  END
>  <minimizedAffinity>  (1) 
-4.47552252

>  <minimizedRMSD>  (1) 
3.84379482

$$$$
