
     RDKit          3D

 28 30  0  0  1  0  0  0  0  0999 V2000
   46.2540   32.1310   44.4400 C   0  0  1  0  0  0  0  0  0  0  0  0
   46.5920   31.5000   43.1990 C   0  0  0  0  0  0  0  0  0  0  0  0
   47.6980   32.1330   44.0060 C   0  0  1  0  0  0  0  0  0  0  0  0
   45.0370   34.0270   43.1930 C   0  0  0  0  0  0  0  0  0  0  0  0
   45.5300   33.4680   44.4040 C   0  0  0  0  0  0  0  0  0  0  0  0
   45.3460   34.1650   45.5700 C   0  0  0  0  0  0  0  0  0  0  0  0
   44.7020   35.3570   45.5280 N   0  0  0  0  0  0  0  0  0  0  0  0
   44.2310   35.8940   44.3850 C   0  0  0  0  0  0  0  0  0  0  0  0
   44.4040   35.2100   43.1910 N   0  0  0  0  0  0  0  0  0  0  0  0
   48.2130   33.3880   43.5600 N   0  0  0  0  0  0  0  0  0  0  0  0
   49.2390   33.4930   42.6180 C   0  0  0  0  0  0  0  0  0  0  0  0
   50.3680   32.8970   42.6010 O   0  0  0  0  0  0  0  0  0  0  0  0
   49.1470   34.3910   41.4010 C   0  0  0  0  0  0  0  0  0  0  0  0
   49.1190   35.9120   41.6660 C   0  0  0  0  0  0  0  0  0  0  0  0
   47.9120   35.1740   41.1580 C   0  0  0  0  0  0  0  0  0  0  0  0
   45.7087   31.7967   45.3349 H   0  0  0  0  0  0  0  0  0  0  0  0
   46.2776   31.9592   42.2502 H   0  0  0  0  0  0  0  0  0  0  0  0
   46.4261   30.4980   42.7765 H   0  0  0  0  0  0  0  0  0  0  0  0
   48.6645   31.8003   44.4125 H   0  0  0  0  0  0  0  0  0  0  0  0
   45.1762   33.4833   42.2470 H   0  0  0  0  0  0  0  0  0  0  0  0
   45.7153   33.7631   46.5251 H   0  0  0  0  0  0  0  0  0  0  0  0
   43.7145   36.8651   44.3991 H   0  0  0  0  0  0  0  0  0  0  0  0
   47.8108   34.2525   43.9495 H   0  0  0  0  0  0  0  0  0  0  0  0
   49.7429   33.6971   40.7898 H   0  0  0  0  0  0  0  0  0  0  0  0
   49.1415   36.2963   42.6965 H   0  0  0  0  0  0  0  0  0  0  0  0
   49.7083   36.7805   41.3367 H   0  0  0  0  0  0  0  0  0  0  0  0
   47.5677   35.3399   40.1265 H   0  0  0  0  0  0  0  0  0  0  0  0
   46.8707   35.0846   41.5010 H   0  0  0  0  0  0  0  0  0  0  0  0
  2  3  1  0
  2  1  1  0
  3  1  1  0
  4  5  2  0
  5  1  1  0
  5  6  1  0
  7  6  2  0
  8  7  1  0
  9  4  1  0
  9  8  2  0
 10  3  1  0
 11 10  1  0
 12 11  2  0
 13 14  1  0
 13 11  1  0
 15 13  1  0
 15 14  1  0
  1 16  1  1
  2 17  1  0
  2 18  1  0
  3 19  1  1
  4 20  1  0
  6 21  1  0
  8 22  1  0
 10 23  1  0
 13 24  1  0
 14 25  1  0
 14 26  1  0
 15 27  1  0
 15 28  1  0
M  ISO  8  16  13  17  13  18  13  19  13  20  14  21  14  22  14  24  13
M  ISO  4  25  13  26  13  27  13  28  13
M  END
>  <minimizedAffinity>  (1) 
-4.3805995

>  <minimizedRMSD>  (1) 
2.09126425

$$$$
