
     RDKit          3D

 23 24  0  0  0  0  0  0  0  0999 V2000
   45.6960   34.4900   44.3670 C   0  0  0  0  0  0  0  0  0  0  0  0
   45.3010   34.2940   45.6760 C   0  0  0  0  0  0  0  0  0  0  0  0
   45.9370   33.2680   46.3630 C   0  0  0  0  0  0  0  0  0  0  0  0
   46.8720   32.5550   45.7180 N   0  0  0  0  0  0  0  0  0  0  0  0
   47.2320   32.7710   44.4470 C   0  0  0  0  0  0  0  0  0  0  0  0
   46.6360   33.7610   43.7430 N   0  0  0  0  0  0  0  0  0  0  0  0
   44.3030   34.8760   42.5200 C   0  0  0  0  0  0  0  0  0  0  0  0
   44.2530   33.6050   42.6960 O   0  0  0  0  0  0  0  0  0  0  0  0
   45.1590   35.5040   43.4770 N   0  0  0  0  0  0  0  0  0  0  0  0
   43.5860   35.6570   41.4760 C   0  0  0  0  0  0  0  0  0  0  0  0
   42.9960   34.9660   40.3040 C   0  0  0  0  0  0  0  0  0  0  0  0
   42.0900   35.4890   41.3530 C   0  0  0  0  0  0  0  0  0  0  0  0
   44.2920   35.1570   46.1840 N   0  0  0  0  0  0  0  0  0  0  0  0
   45.6804   33.0459   47.4093 H   0  0  0  0  0  0  0  0  0  0  0  0
   48.0074   32.1477   43.9778 H   0  0  0  0  0  0  0  0  0  0  0  0
   45.3621   36.5125   43.5272 H   0  0  0  0  0  0  0  0  0  0  0  0
   44.2798   36.5006   41.6062 H   0  0  0  0  0  0  0  0  0  0  0  0
   43.1270   33.8801   40.1868 H   0  0  0  0  0  0  0  0  0  0  0  0
   43.0700   35.0976   39.2144 H   0  0  0  0  0  0  0  0  0  0  0  0
   41.4521   36.3610   41.1463 H   0  0  0  0  0  0  0  0  0  0  0  0
   41.2973   35.0617   41.9847 H   0  0  0  0  0  0  0  0  0  0  0  0
   43.9639   35.0504   47.1545 H   0  0  0  0  0  0  0  0  0  0  0  0
   43.8891   35.8889   45.5816 H   0  0  0  0  0  0  0  0  0  0  0  0
  1  2  2  0
  2 13  1  0
  2  3  1  0
  4  3  2  0
  5  4  1  0
  6  1  1  0
  6  5  2  0
  7  8  2  0
  7  9  1  0
  9  1  1  0
 10  7  1  0
 11 12  1  0
 11 10  1  0
 12 10  1  0
  3 14  1  0
  5 15  1  0
  9 16  1  0
 10 17  1  0
 11 18  1  0
 11 19  1  0
 12 20  1  0
 12 21  1  0
 13 22  1  0
 13 23  1  0
M  ISO  7  14  14  15  14  17  13  18  13  19  13  20  13  21  13
M  END
>  <minimizedAffinity>  (1) 
-4.45297861

>  <minimizedRMSD>  (1) 
0.956410289

$$$$
