
     RDKit          3D

 30 32  0  0  1  0  0  0  0  0999 V2000
   46.3230   32.2280   44.1690 C   0  0  1  0  0  0  0  0  0  0  0  0
   46.5400   31.6870   42.8020 C   0  0  0  0  0  0  0  0  0  0  0  0
   47.6880   32.2740   43.6140 C   0  0  1  0  0  0  0  0  0  0  0  0
   44.4140   35.3260   43.1710 C   0  0  0  0  0  0  0  0  0  0  0  0
   45.1010   34.1090   43.0520 C   0  0  0  0  0  0  0  0  0  0  0  0
   45.5780   33.5180   44.2300 C   0  0  0  0  0  0  0  0  0  0  0  0
   45.3640   34.1330   45.4280 N   0  0  0  0  0  0  0  0  0  0  0  0
   44.6950   35.3080   45.5060 C   0  0  0  0  0  0  0  0  0  0  0  0
   44.2200   35.9040   44.3760 N   0  0  0  0  0  0  0  0  0  0  0  0
   48.2230   33.4760   43.3580 O   0  0  0  0  0  0  0  0  0  0  0  0
   50.5990   32.4550   42.7690 O   0  0  0  0  0  0  0  0  0  0  0  0
   49.6130   33.5670   42.4900 P   0  0  2  0  0  0  0  0  0  0  0  0
   50.4630   35.0120   42.6890 O   0  0  0  0  0  0  0  0  0  0  0  0
   49.2540   33.4410   40.8460 O   0  0  0  0  0  0  0  0  0  0  0  0
   48.2840   34.3230   40.4280 C   0  0  0  0  0  0  0  0  0  0  0  0
   46.9970   33.8390   39.8580 C   0  0  0  0  0  0  0  0  0  0  0  0
   48.0810   34.3770   38.9110 C   0  0  0  0  0  0  0  0  0  0  0  0
   45.8974   31.8320   45.1028 H   0  0  0  0  0  0  0  0  0  0  0  0
   46.1501   32.2249   41.9253 H   0  0  0  0  0  0  0  0  0  0  0  0
   46.3446   30.7304   42.2954 H   0  0  0  0  0  0  0  0  0  0  0  0
   48.6862   31.8995   43.8849 H   0  0  0  0  0  0  0  0  0  0  0  0
   44.0264   35.8183   42.2669 H   0  0  0  0  0  0  0  0  0  0  0  0
   45.2594   33.6363   42.0714 H   0  0  0  0  0  0  0  0  0  0  0  0
   44.5344   35.7831   46.4850 H   0  0  0  0  0  0  0  0  0  0  0  0
   50.5734   35.1996   43.6548 H   0  0  0  0  0  0  0  0  0  0  0  0
   48.5061   35.0302   41.2407 H   0  0  0  0  0  0  0  0  0  0  0  0
   46.7631   32.7642   39.8684 H   0  0  0  0  0  0  0  0  0  0  0  0
   45.9369   34.0747   40.0328 H   0  0  0  0  0  0  0  0  0  0  0  0
   48.6331   33.6908   38.2520 H   0  0  0  0  0  0  0  0  0  0  0  0
   48.1356   35.1544   38.1347 H   0  0  0  0  0  0  0  0  0  0  0  0
  1  6  1  0
  2  3  1  0
  2  1  1  0
  3  1  1  0
  4  9  2  0
  5  4  1  0
  5  6  2  0
  6  7  1  0
  7  8  2  0
  9  8  1  0
 10  3  1  0
 12 13  1  0
 12 11  2  0
 12 10  1  0
 14 12  1  0
 15 14  1  0
 16 15  1  0
 17 16  1  0
 17 15  1  0
  1 18  1  1
  2 19  1  0
  2 20  1  0
  3 21  1  1
  4 22  1  0
  5 23  1  0
  8 24  1  0
 13 25  1  0
 15 26  1  0
 16 27  1  0
 16 28  1  0
 17 29  1  0
 17 30  1  0
M  ISO  8  18  13  19  13  20  13  21  13  22  14  23  14  24  14  25   3
M  ISO  5  26  13  27  13  28  13  29  13  30  13
M  END
>  <minimizedAffinity>  (1) 
-4.27793789

>  <minimizedRMSD>  (1) 
3.8164978

$$$$
