
     RDKit          3D

 24 26  0  0  0  0  0  0  0  0999 V2000
   46.1910   33.0290   45.6960 C   0  0  0  0  0  0  0  0  0  0  0  0
   47.0660   32.0090   45.2950 C   0  0  0  0  0  0  0  0  0  0  0  0
   47.1930   31.1580   46.3710 C   0  0  0  0  0  0  0  0  0  0  0  0
   46.4220   31.6470   47.3820 N   0  0  0  0  0  0  0  0  0  0  0  0
   45.8250   32.7800   46.9530 N   0  0  0  0  0  0  0  0  0  0  0  0
   44.4960   36.0300   44.4520 C   0  0  0  0  0  0  0  0  0  0  0  0
   45.0980   36.1950   43.1720 C   0  0  0  0  0  0  0  0  0  0  0  0
   46.0740   35.2820   42.7440 C   0  0  0  0  0  0  0  0  0  0  0  0
   46.3600   34.2970   43.6220 N   0  0  0  0  0  0  0  0  0  0  0  0
   45.8050   34.1320   44.8220 C   0  0  0  0  0  0  0  0  0  0  0  0
   44.8610   35.0030   45.2500 N   0  0  0  0  0  0  0  0  0  0  0  0
   46.3000   31.0250   48.6710 C   0  0  0  0  0  0  0  0  0  0  0  0
   45.2180   31.3170   49.6180 C   0  0  0  0  0  0  0  0  0  0  0  0
   45.1000   30.1090   48.8050 C   0  0  0  0  0  0  0  0  0  0  0  0
   47.5546   31.9083   44.3146 H   0  0  0  0  0  0  0  0  0  0  0  0
   47.8074   30.2463   46.4073 H   0  0  0  0  0  0  0  0  0  0  0  0
   43.7301   36.7423   44.7925 H   0  0  0  0  0  0  0  0  0  0  0  0
   44.8001   37.0321   42.5235 H   0  0  0  0  0  0  0  0  0  0  0  0
   46.5695   35.3629   41.7653 H   0  0  0  0  0  0  0  0  0  0  0  0
   47.3928   31.0041   48.7947 H   0  0  0  0  0  0  0  0  0  0  0  0
   45.4032   31.2287   50.6987 H   0  0  0  0  0  0  0  0  0  0  0  0
   44.5685   32.1878   49.7908 H   0  0  0  0  0  0  0  0  0  0  0  0
   44.3527   30.0557   47.9996 H   0  0  0  0  0  0  0  0  0  0  0  0
   44.9504   29.0386   49.0095 H   0  0  0  0  0  0  0  0  0  0  0  0
  1  5  2  0
  2  1  1  0
  2  3  2  0
  3  4  1  0
  4 12  1  0
  5  4  1  0
  6 11  2  0
  7  6  1  0
  8  7  2  0
  8  9  1  0
  9 10  2  0
 10 11  1  0
 10  1  1  0
 12 14  1  0
 12 13  1  0
 14 13  1  0
  2 15  1  0
  3 16  1  0
  6 17  1  0
  7 18  1  0
  8 19  1  0
 12 20  1  0
 13 21  1  0
 13 22  1  0
 14 23  1  0
 14 24  1  0
M  ISO  8  15  14  16  14  17  14  18  14  19  14  20  13  21  13  22  13
M  ISO  2  23  13  24  13
M  END
>  <minimizedAffinity>  (1) 
-4.81038094

>  <minimizedRMSD>  (1) 
1.43582308

$$$$
