
     RDKit          3D

 31 32  0  0  0  0  0  0  0  0999 V2000
   44.8780   35.9360   43.1080 C   0  0  0  0  0  0  0  0  0  0  0  0
   45.2030   34.4500   45.0360 C   0  0  0  0  0  0  0  0  0  0  0  0
   45.6030   34.8760   43.7770 C   0  0  0  0  0  0  0  0  0  0  0  0
   46.7100   34.2230   43.2390 C   0  0  0  0  0  0  0  0  0  0  0  0
   47.3390   33.2280   43.9410 N   0  0  0  0  0  0  0  0  0  0  0  0
   46.9040   32.8610   45.1580 C   0  0  0  0  0  0  0  0  0  0  0  0
   45.8260   33.4700   45.7210 N   0  0  0  0  0  0  0  0  0  0  0  0
   47.1190   34.6880   41.9050 C   0  0  0  0  0  0  0  0  0  0  0  0
   48.0500   33.8080   41.3810 F   0  0  0  0  0  0  0  0  0  0  0  0
   47.7290   35.8910   42.0600 F   0  0  0  0  0  0  0  0  0  0  0  0
   46.0750   34.6860   41.0250 F   0  0  0  0  0  0  0  0  0  0  0  0
   44.7060   37.0790   44.0170 N   0  0  0  0  0  0  0  0  0  0  0  0
   45.6980   38.0550   43.6160 C   0  0  0  0  0  0  0  0  0  0  0  0
   45.1920   39.4760   43.7320 C   0  0  0  0  0  0  0  0  0  0  0  0
   45.6390   40.1570   44.9840 C   0  0  0  0  0  0  0  0  0  0  0  0
   44.9880   40.0100   46.2850 C   0  0  0  0  0  0  0  0  0  0  0  0
   44.6210   41.2280   45.4700 C   0  0  0  0  0  0  0  0  0  0  0  0
   45.4413   36.2584   42.2199 H   0  0  0  0  0  0  0  0  0  0  0  0
   43.8883   35.5622   42.8066 H   0  0  0  0  0  0  0  0  0  0  0  0
   44.3323   34.9374   45.4990 H   0  0  0  0  0  0  0  0  0  0  0  0
   47.4245   32.0605   45.7042 H   0  0  0  0  0  0  0  0  0  0  0  0
   43.7584   37.4718   43.9240 H   0  0  0  0  0  0  0  0  0  0  0  0
   45.9776   37.8644   42.5693 H   0  0  0  0  0  0  0  0  0  0  0  0
   46.5609   37.9512   44.2902 H   0  0  0  0  0  0  0  0  0  0  0  0
   45.5615   40.0506   42.8699 H   0  0  0  0  0  0  0  0  0  0  0  0
   44.0932   39.4318   43.7572 H   0  0  0  0  0  0  0  0  0  0  0  0
   46.6991   40.0569   44.7082 H   0  0  0  0  0  0  0  0  0  0  0  0
   44.2446   39.2125   46.4313 H   0  0  0  0  0  0  0  0  0  0  0  0
   45.3622   39.8664   47.3094 H   0  0  0  0  0  0  0  0  0  0  0  0
   44.9648   42.2276   45.7742 H   0  0  0  0  0  0  0  0  0  0  0  0
   43.6939   41.6770   45.0842 H   0  0  0  0  0  0  0  0  0  0  0  0
  1  3  1  0
  1 12  1  0
  2  7  2  0
  3  2  1  0
  4  3  2  0
  4  5  1  0
  5  6  2  0
  6  7  1  0
  8 10  1  0
  8  4  1  0
  9  8  1  0
 11  8  1  0
 13 14  1  0
 13 12  1  0
 14 15  1  0
 15 17  1  0
 15 16  1  0
 17 16  1  0
  1 18  1  0
  1 19  1  0
  2 20  1  0
  6 21  1  0
 12 22  1  0
 13 23  1  0
 13 24  1  0
 14 25  1  0
 14 26  1  0
 15 27  1  0
 16 28  1  0
 16 29  1  0
 17 30  1  0
 17 31  1  0
M  ISO  8  18   8  19   8  20  14  21  14  22   5  23   8  24   8  25   8
M  ISO  6  26   8  27  13  28  13  29  13  30  13  31  13
M  END
>  <minimizedAffinity>  (1) 
-3.99668241

>  <minimizedRMSD>  (1) 
0.770179451

$$$$
