
     RDKit          3D

 27 28  0  0  0  0  0  0  0  0999 V2000
   44.4620   34.9830   43.0700 C   0  0  0  0  0  0  0  0  0  0  0  0
   45.0200   33.7350   43.3180 C   0  0  0  0  0  0  0  0  0  0  0  0
   45.3890   33.4320   44.6360 C   0  0  0  0  0  0  0  0  0  0  0  0
   45.1860   34.3610   45.5980 N   0  0  0  0  0  0  0  0  0  0  0  0
   44.6430   35.5570   45.3210 C   0  0  0  0  0  0  0  0  0  0  0  0
   44.2810   35.8660   44.0480 N   0  0  0  0  0  0  0  0  0  0  0  0
   42.7620   35.3020   41.2720 C   0  0  0  0  0  0  0  0  0  0  0  0
   42.1560   34.2180   41.5290 O   0  0  0  0  0  0  0  0  0  0  0  0
   43.9390   35.7780   42.0080 N   0  0  0  0  0  0  0  0  0  0  0  0
   45.1660   32.8950   42.2420 O   0  0  0  0  0  0  0  0  0  0  0  0
   46.6790   31.8650   40.3310 O   0  0  0  0  0  0  0  0  0  0  0  0
   46.4090   33.1310   41.0790 P   0  0  1  0  0  0  0  0  0  0  0  0
   45.9190   34.2820   39.9390 O   0  0  0  0  0  0  0  0  0  0  0  0
   47.8280   33.6740   41.8120 O   0  0  0  0  0  0  0  0  0  0  0  0
   48.0060   35.0370   41.7600 C   0  0  0  0  0  0  0  0  0  0  0  0
   48.9120   35.6340   40.7480 C   0  0  0  0  0  0  0  0  0  0  0  0
   49.3870   35.5200   42.1560 C   0  0  0  0  0  0  0  0  0  0  0  0
   45.8351   32.4574   44.8832 H   0  0  0  0  0  0  0  0  0  0  0  0
   44.4905   36.2896   46.1273 H   0  0  0  0  0  0  0  0  0  0  0  0
   42.3823   35.9231   40.4473 H   0  0  0  0  0  0  0  0  0  0  0  0
   44.3815   36.6746   41.7607 H   0  0  0  0  0  0  0  0  0  0  0  0
   45.5772   35.0849   40.4066 H   0  0  0  0  0  0  0  0  0  0  0  0
   46.9634   35.2390   42.0468 H   0  0  0  0  0  0  0  0  0  0  0  0
   49.3556   34.9973   39.9684 H   0  0  0  0  0  0  0  0  0  0  0  0
   48.8248   36.4621   40.0292 H   0  0  0  0  0  0  0  0  0  0  0  0
   49.5001   36.4219   42.7755 H   0  0  0  0  0  0  0  0  0  0  0  0
   50.2599   35.0726   42.6539 H   0  0  0  0  0  0  0  0  0  0  0  0
  1  2  2  0
  1  6  1  0
  2  3  1  0
  3  4  2  0
  5  4  1  0
  6  5  2  0
  7  8  2  0
  7  9  1  0
  9  1  1  0
 10  2  1  0
 12 11  2  0
 12 14  1  0
 12 10  1  0
 13 12  1  0
 15 14  1  0
 15 17  1  0
 16 15  1  0
 16 17  1  0
  3 18  1  0
  5 19  1  0
  7 20  1  0
  9 21  1  0
 13 22  1  0
 15 23  1  0
 16 24  1  0
 16 25  1  0
 17 26  1  0
 17 27  1  0
M  ISO  8  18  14  19  14  20   6  22   3  23  13  24  13  25  13  26  13
M  ISO  1  27  13
M  END
>  <minimizedAffinity>  (1) 
-4.50668812

>  <minimizedRMSD>  (1) 
2.70302248

$$$$
