
     RDKit          3D

 22 23  0  0  0  0  0  0  0  0999 V2000
   44.5160   35.9800   44.5010 C   0  0  0  0  0  0  0  0  0  0  0  0
   45.2350   35.8540   43.2790 C   0  0  0  0  0  0  0  0  0  0  0  0
   46.1500   34.8020   43.2050 C   0  0  0  0  0  0  0  0  0  0  0  0
   46.2950   33.9800   44.2830 N   0  0  0  0  0  0  0  0  0  0  0  0
   45.5870   34.1380   45.4300 C   0  0  0  0  0  0  0  0  0  0  0  0
   44.6920   35.1480   45.5340 N   0  0  0  0  0  0  0  0  0  0  0  0
   46.8750   34.6880   41.9510 C   0  0  0  0  0  0  0  0  0  0  0  0
   47.6600   33.5310   41.9700 F   0  0  0  0  0  0  0  0  0  0  0  0
   47.7980   35.7450   41.9340 F   0  0  0  0  0  0  0  0  0  0  0  0
   46.0990   34.6560   40.8510 F   0  0  0  0  0  0  0  0  0  0  0  0
   45.7710   33.2380   46.5620 C   0  0  0  0  0  0  0  0  0  0  0  0
   44.9450   33.1850   47.5000 O   0  0  0  0  0  0  0  0  0  0  0  0
   46.9640   32.3510   46.6220 C   0  0  0  0  0  0  0  0  0  0  0  0
   47.5160   32.0790   47.9710 C   0  0  0  0  0  0  0  0  0  0  0  0
   46.8730   30.9640   47.1530 C   0  0  0  0  0  0  0  0  0  0  0  0
   43.7848   36.7958   44.6003 H   0  0  0  0  0  0  0  0  0  0  0  0
   45.0784   36.5471   42.4393 H   0  0  0  0  0  0  0  0  0  0  0  0
   47.3443   32.7536   45.6716 H   0  0  0  0  0  0  0  0  0  0  0  0
   48.6038   32.0870   48.1342 H   0  0  0  0  0  0  0  0  0  0  0  0
   47.3649   32.4979   48.9768 H   0  0  0  0  0  0  0  0  0  0  0  0
   45.8992   30.5495   47.4527 H   0  0  0  0  0  0  0  0  0  0  0  0
   47.1844   29.9687   46.8033 H   0  0  0  0  0  0  0  0  0  0  0  0
  1  6  2  0
  2  1  1  0
  3  2  2  0
  3  4  1  0
  4  5  2  0
  5  6  1  0
  5 11  1  0
  7  8  1  0
  7  3  1  0
  9  7  1  0
 10  7  1  0
 11 13  1  0
 11 12  2  0
 13 15  1  0
 13 14  1  0
 15 14  1  0
  1 16  1  0
  2 17  1  0
 13 18  1  0
 14 19  1  0
 14 20  1  0
 15 21  1  0
 15 22  1  0
M  ISO  7  16  14  17  14  18  13  19  13  20  13  21  13  22  13
M  END
>  <minimizedAffinity>  (1) 
-4.93275499

>  <minimizedRMSD>  (1) 
0.679127038

$$$$
