
     RDKit          3D

 38 41  0  0  0  0  0  0  0  0999 V2000
   46.2530   34.7400   41.8660 C   0  0  0  0  0  0  0  0  0  0  0  0
   47.4600   35.0830   41.7410 O   0  0  0  0  0  0  0  0  0  0  0  0
   45.3850   34.1980   40.7630 C   0  0  0  0  0  0  0  0  0  0  0  0
   44.0520   34.4130   40.5830 C   0  0  0  0  0  0  0  0  0  0  0  0
   43.7210   33.7250   39.4680 N   0  0  0  0  0  0  0  0  0  0  0  0
   44.8020   33.1190   38.9910 C   0  0  0  0  0  0  0  0  0  0  0  0
   45.8400   33.4070   39.7900 N   0  0  0  0  0  0  0  0  0  0  0  0
   44.9730   32.2880   37.8550 N   0  0  0  0  0  0  0  0  0  0  0  0
   42.4120   33.6200   38.8350 C   0  0  0  0  0  0  0  0  0  0  0  0
   41.8500   35.0230   38.7620 C   0  0  0  0  0  0  0  0  0  0  0  0
   40.4910   35.2690   39.3310 C   0  0  0  0  0  0  0  0  0  0  0  0
   40.7340   35.3230   37.8620 C   0  0  0  0  0  0  0  0  0  0  0  0
   45.0750   36.0950   43.5330 C   0  0  0  0  0  0  0  0  0  0  0  0
   45.7140   34.8970   43.1630 C   0  0  0  0  0  0  0  0  0  0  0  0
   45.7440   33.9390   44.1840 C   0  0  0  0  0  0  0  0  0  0  0  0
   45.2220   34.1360   45.3860 N   0  0  0  0  0  0  0  0  0  0  0  0
   44.6180   35.3160   45.6830 C   0  0  0  0  0  0  0  0  0  0  0  0
   44.5520   36.2780   44.7550 N   0  0  0  0  0  0  0  0  0  0  0  0
   46.3770   32.6920   43.8960 C   0  0  0  0  0  0  0  0  0  0  0  0
   47.6390   32.2000   43.9550 C   0  0  0  0  0  0  0  0  0  0  0  0
   47.9620   30.9740   43.6210 C   0  0  0  0  0  0  0  0  0  0  0  0
   46.9450   30.2080   43.2040 C   0  0  0  0  0  0  0  0  0  0  0  0
   45.4750   31.2750   43.2910 S   0  0  0  0  0  0  0  0  0  0  0  0
   43.3849   35.0195   41.2131 H   0  0  0  0  0  0  0  0  0  0  0  0
   45.9015   31.8997   37.6360 H   0  0  0  0  0  0  0  0  0  0  0  0
   44.1687   32.0726   37.2487 H   0  0  0  0  0  0  0  0  0  0  0  0
   42.5127   33.1989   37.8238 H   0  0  0  0  0  0  0  0  0  0  0  0
   41.7474   32.9571   39.4085 H   0  0  0  0  0  0  0  0  0  0  0  0
   42.8524   35.4529   38.9048 H   0  0  0  0  0  0  0  0  0  0  0  0
   39.9149   34.4392   39.7664 H   0  0  0  0  0  0  0  0  0  0  0  0
   40.0663   35.9516   40.0818 H   0  0  0  0  0  0  0  0  0  0  0  0
   40.6986   36.2884   37.3358 H   0  0  0  0  0  0  0  0  0  0  0  0
   40.2916   34.8261   36.9860 H   0  0  0  0  0  0  0  0  0  0  0  0
   45.0019   36.9083   42.7960 H   0  0  0  0  0  0  0  0  0  0  0  0
   44.1854   35.4799   46.6810 H   0  0  0  0  0  0  0  0  0  0  0  0
   48.4394   32.8691   44.3038 H   0  0  0  0  0  0  0  0  0  0  0  0
   48.9951   30.6007   43.6791 H   0  0  0  0  0  0  0  0  0  0  0  0
   46.9896   29.1582   42.8786 H   0  0  0  0  0  0  0  0  0  0  0  0
  1 14  1  0
  2  1  2  0
  3  1  1  0
  4  3  2  0
  5  4  1  0
  6  5  1  0
  6  7  2  0
  7  3  1  0
  8  6  1  0
  9  5  1  0
 10  9  1  0
 10 11  1  0
 12 10  1  0
 12 11  1  0
 13 18  2  0
 14 13  1  0
 14 15  2  0
 15 16  1  0
 16 17  2  0
 18 17  1  0
 19 20  2  0
 19 15  1  0
 21 20  1  0
 22 23  1  0
 22 21  2  0
 23 19  1  0
  4 24  1  0
  8 25  1  0
  8 26  1  0
  9 27  1  0
  9 28  1  0
 10 29  1  0
 11 30  1  0
 11 31  1  0
 12 32  1  0
 12 33  1  0
 13 34  1  0
 17 35  1  0
 20 36  1  0
 21 37  1  0
 22 38  1  0
M  ISO  8  24  14  27   8  28   8  29  13  30  13  31  13  32  13  33  13
M  ISO  5  34  14  35  14  36  14  37  14  38  14
M  END
>  <minimizedAffinity>  (1) 
-5.20807791

>  <minimizedRMSD>  (1) 
0.70125252

$$$$
