
     RDKit          3D

 31 34  0  0  0  0  0  0  0  0999 V2000
   48.1270   33.0510   40.2440 C   0  0  0  0  0  0  0  0  0  0  0  0
   49.4480   32.7630   40.5990 C   0  0  0  0  0  0  0  0  0  0  0  0
   49.8230   32.9100   41.9470 C   0  0  0  0  0  0  0  0  0  0  0  0
   48.8690   33.3250   42.8240 N   0  0  0  0  0  0  0  0  0  0  0  0
   47.5980   33.5920   42.4350 C   0  0  0  0  0  0  0  0  0  0  0  0
   47.2270   33.4580   41.1620 N   0  0  0  0  0  0  0  0  0  0  0  0
   46.6700   34.0190   43.4330 N   0  0  0  0  0  0  0  0  0  0  0  0
   45.7860   35.0390   43.3110 C   0  0  0  0  0  0  0  0  0  0  0  0
   45.0820   35.1310   44.4750 N   0  0  0  0  0  0  0  0  0  0  0  0
   45.5470   34.1720   45.2790 C   0  0  0  0  0  0  0  0  0  0  0  0
   45.2420   33.7650   46.5670 C   0  0  0  0  0  0  0  0  0  0  0  0
   45.8660   32.7520   47.1650 N   0  0  0  0  0  0  0  0  0  0  0  0
   46.8380   32.0600   46.5480 C   0  0  0  0  0  0  0  0  0  0  0  0
   47.1330   32.4550   45.2980 N   0  0  0  0  0  0  0  0  0  0  0  0
   46.5440   33.4600   44.6490 C   0  0  0  0  0  0  0  0  0  0  0  0
   44.2330   34.4250   47.3160 N   0  0  0  0  0  0  0  0  0  0  0  0
   47.7130   32.8400   38.4940 S   0  0  0  0  0  0  0  0  0  0  0  0
   45.9190   32.9850   38.3290 C   0  0  0  0  0  0  0  0  0  0  0  0
   45.3230   33.0980   36.9730 C   0  0  0  0  0  0  0  0  0  0  0  0
   45.1140   31.8540   37.8180 C   0  0  0  0  0  0  0  0  0  0  0  0
   50.1754   32.4301   39.8440 H   0  0  0  0  0  0  0  0  0  0  0  0
   50.8497   32.6973   42.2797 H   0  0  0  0  0  0  0  0  0  0  0  0
   45.6586   35.6809   42.4268 H   0  0  0  0  0  0  0  0  0  0  0  0
   47.3595   31.2229   47.0352 H   0  0  0  0  0  0  0  0  0  0  0  0
   44.0151   34.1131   48.2732 H   0  0  0  0  0  0  0  0  0  0  0  0
   43.7187   35.2158   46.9024 H   0  0  0  0  0  0  0  0  0  0  0  0
   45.8819   33.5898   39.2471 H   0  0  0  0  0  0  0  0  0  0  0  0
   45.9662   33.0590   36.0815 H   0  0  0  0  0  0  0  0  0  0  0  0
   44.6665   33.8184   36.4631 H   0  0  0  0  0  0  0  0  0  0  0  0
   44.1254   31.6406   38.2506 H   0  0  0  0  0  0  0  0  0  0  0  0
   45.2822   30.7762   37.6767 H   0  0  0  0  0  0  0  0  0  0  0  0
  1  2  2  0
  1  6  1  0
  2  3  1  0
  3  4  2  0
  5  4  1  0
  5  7  1  0
  6  5  2  0
  7 15  1  0
  8  7  1  0
  8  9  2  0
  9 10  1  0
 10 11  2  0
 11 12  1  0
 11 16  1  0
 13 12  2  0
 14 13  1  0
 15 10  1  0
 15 14  2  0
 17  1  1  0
 18 17  1  0
 19 20  1  0
 19 18  1  0
 20 18  1  0
  2 21  1  0
  3 22  1  0
  8 23  1  0
 13 24  1  0
 16 25  1  0
 16 26  1  0
 18 27  1  0
 19 28  1  0
 19 29  1  0
 20 30  1  0
 20 31  1  0
M  ISO  8  21  14  22  14  23  14  24  14  27  13  28  13  29  13  30  13
M  ISO  1  31  13
M  END
>  <minimizedAffinity>  (1) 
-5.19509315

>  <minimizedRMSD>  (1) 
0.535050571

$$$$
