
     RDKit          3D

 28 30  0  0  0  0  0  0  0  0999 V2000
   46.0360   32.7160   47.0020 C   0  0  0  0  0  0  0  0  0  0  0  0
   47.2450   32.1090   47.2840 C   0  0  0  0  0  0  0  0  0  0  0  0
   47.3890   31.2990   48.4020 C   0  0  0  0  0  0  0  0  0  0  0  0
   46.3310   31.0720   49.2710 C   0  0  0  0  0  0  0  0  0  0  0  0
   45.1230   31.6700   49.0020 C   0  0  0  0  0  0  0  0  0  0  0  0
   45.0010   32.4720   47.8840 C   0  0  0  0  0  0  0  0  0  0  0  0
   44.7220   35.3620   44.8680 C   0  0  0  0  0  0  0  0  0  0  0  0
   45.4660   35.2580   43.7010 C   0  0  0  0  0  0  0  0  0  0  0  0
   46.4450   34.2560   43.6420 C   0  0  0  0  0  0  0  0  0  0  0  0
   46.6470   33.4140   44.7130 N   0  0  0  0  0  0  0  0  0  0  0  0
   45.8830   33.5710   45.8280 C   0  0  0  0  0  0  0  0  0  0  0  0
   44.9370   34.5320   45.8960 N   0  0  0  0  0  0  0  0  0  0  0  0
   48.9740   30.5770   48.7050 S   0  0  0  0  0  0  0  0  0  0  0  0
   49.9320   31.8420   49.6230 C   0  0  0  0  0  0  0  0  0  0  0  0
   50.6340   31.4840   50.8740 C   0  0  0  0  0  0  0  0  0  0  0  0
   51.4160   31.6380   49.5810 C   0  0  0  0  0  0  0  0  0  0  0  0
   48.1031   32.2696   46.6148 H   0  0  0  0  0  0  0  0  0  0  0  0
   46.4562   30.4286   50.1544 H   0  0  0  0  0  0  0  0  0  0  0  0
   44.2631   31.5117   49.6695 H   0  0  0  0  0  0  0  0  0  0  0  0
   44.0266   32.9421   47.6851 H   0  0  0  0  0  0  0  0  0  0  0  0
   43.9454   36.1367   44.9493 H   0  0  0  0  0  0  0  0  0  0  0  0
   45.2938   35.9371   42.8530 H   0  0  0  0  0  0  0  0  0  0  0  0
   47.0558   34.1416   42.7343 H   0  0  0  0  0  0  0  0  0  0  0  0
   49.2217   32.6471   49.3838 H   0  0  0  0  0  0  0  0  0  0  0  0
   50.7442   32.2292   51.6756 H   0  0  0  0  0  0  0  0  0  0  0  0
   50.5250   30.6899   51.6274 H   0  0  0  0  0  0  0  0  0  0  0  0
   51.8394   30.7542   49.0815 H   0  0  0  0  0  0  0  0  0  0  0  0
   52.2816   32.2320   49.2525 H   0  0  0  0  0  0  0  0  0  0  0  0
  1  2  2  0
  1  6  1  0
  2  3  1  0
  3 13  1  0
  3  4  2  0
  5  4  1  0
  6  5  2  0
  7 12  2  0
  8  7  1  0
  9  8  2  0
  9 10  1  0
 10 11  2  0
 11 12  1  0
 11  1  1  0
 13 14  1  0
 14 15  1  0
 16 14  1  0
 16 15  1  0
  2 17  1  0
  4 18  1  0
  5 19  1  0
  6 20  1  0
  7 21  1  0
  8 22  1  0
  9 23  1  0
 14 24  1  0
 15 25  1  0
 15 26  1  0
 16 27  1  0
 16 28  1  0
M  ISO  8  17  14  18  14  19  14  20  14  21  14  22  14  23  14  24  13
M  ISO  4  25  13  26  13  27  13  28  13
M  END
>  <minimizedAffinity>  (1) 
-5.18288803

>  <minimizedRMSD>  (1) 
0.623729885

$$$$
