
     RDKit          3D

 42 44  0  0  1  0  0  0  0  0999 V2000
   45.9710   33.7690   41.9830 C   0  0  1  0  0  0  0  0  0  0  0  0
   45.0290   34.4720   41.0320 C   0  0  0  0  0  0  0  0  0  0  0  0
   45.1120   33.5760   39.8240 C   0  0  0  0  0  0  0  0  0  0  0  0
   46.4700   32.9030   39.8870 C   0  0  0  0  0  0  0  0  0  0  0  0
   47.1840   33.5450   41.0760 C   0  0  1  0  0  0  0  0  0  0  0  0
   47.9040   34.8090   40.7660 C   0  0  0  0  0  0  0  0  0  0  0  0
   49.2880   34.8370   41.3040 C   0  0  0  0  0  0  0  0  0  0  0  0
   49.6840   35.3200   42.6340 C   0  0  0  0  0  0  0  0  0  0  0  0
   49.8980   33.8580   42.1970 C   0  0  0  0  0  0  0  0  0  0  0  0
   46.2970   34.5530   43.0840 O   0  0  0  0  0  0  0  0  0  0  0  0
   44.7850   34.9880   45.1510 O   0  0  0  0  0  0  0  0  0  0  0  0
   45.5870   33.9190   44.4720 P   0  0  1  0  0  0  0  0  0  0  0  0
   44.6460   32.5730   44.0940 O   0  0  0  0  0  0  0  0  0  0  0  0
   46.7990   33.3510   45.4920 O   0  0  0  0  0  0  0  0  0  0  0  0
   46.7240   32.0080   45.5690 C   0  0  0  0  0  0  0  0  0  0  0  0
   45.8590   31.8980   49.1880 C   0  0  0  0  0  0  0  0  0  0  0  0
   46.3580   32.3510   47.9570 C   0  0  0  0  0  0  0  0  0  0  0  0
   46.1990   31.5360   46.8620 C   0  0  0  0  0  0  0  0  0  0  0  0
   45.5680   30.3380   47.0310 N   0  0  0  0  0  0  0  0  0  0  0  0
   45.0980   29.9240   48.2160 C   0  0  0  0  0  0  0  0  0  0  0  0
   45.2460   30.7030   49.2810 N   0  0  0  0  0  0  0  0  0  0  0  0
   45.5526   32.8543   42.4282 H   0  0  0  0  0  0  0  0  0  0  0  0
   44.0060   34.5128   41.4343 H   0  0  0  0  0  0  0  0  0  0  0  0
   45.2877   35.5226   40.8340 H   0  0  0  0  0  0  0  0  0  0  0  0
   45.0234   34.1698   38.9023 H   0  0  0  0  0  0  0  0  0  0  0  0
   44.2983   32.8358   39.8180 H   0  0  0  0  0  0  0  0  0  0  0  0
   46.3564   31.8203   40.0447 H   0  0  0  0  0  0  0  0  0  0  0  0
   47.0348   33.0311   38.9518 H   0  0  0  0  0  0  0  0  0  0  0  0
   48.0016   32.9376   41.4915 H   0  0  0  0  0  0  0  0  0  0  0  0
   47.9505   34.9267   39.6733 H   0  0  0  0  0  0  0  0  0  0  0  0
   47.3489   35.6291   41.2448 H   0  0  0  0  0  0  0  0  0  0  0  0
   49.5056   35.1589   40.2749 H   0  0  0  0  0  0  0  0  0  0  0  0
   50.5430   35.9979   42.7460 H   0  0  0  0  0  0  0  0  0  0  0  0
   49.1834   35.8291   43.4708 H   0  0  0  0  0  0  0  0  0  0  0  0
   49.2892   33.0539   42.6361 H   0  0  0  0  0  0  0  0  0  0  0  0
   50.7557   33.1714   42.1425 H   0  0  0  0  0  0  0  0  0  0  0  0
   44.3418   32.1379   44.9296 H   0  0  0  0  0  0  0  0  0  0  0  0
   46.0616   31.6471   44.7684 H   0  0  0  0  0  0  0  0  0  0  0  0
   47.7456   31.6139   45.4640 H   0  0  0  0  0  0  0  0  0  0  0  0
   45.9697   32.5250   50.0850 H   0  0  0  0  0  0  0  0  0  0  0  0
   46.8598   33.3261   47.8715 H   0  0  0  0  0  0  0  0  0  0  0  0
   44.5952   28.9497   48.3052 H   0  0  0  0  0  0  0  0  0  0  0  0
  1 10  1  0
  2  1  1  0
  3  4  1  0
  3  2  1  0
  4  5  1  0
  5  1  1  0
  6  5  1  0
  6  7  1  0
  7  9  1  0
  7  8  1  0
  9  8  1  0
 10 12  1  0
 12 11  2  0
 12 14  1  0
 13 12  1  0
 14 15  1  0
 15 18  1  0
 16 21  2  0
 17 16  1  0
 18 19  1  0
 18 17  2  0
 19 20  2  0
 20 21  1  0
  1 22  1  1
  2 23  1  0
  2 24  1  0
  3 25  1  0
  3 26  1  0
  4 27  1  0
  4 28  1  0
  5 29  1  1
  6 30  1  0
  6 31  1  0
  7 32  1  0
  8 33  1  0
  8 34  1  0
  9 35  1  0
  9 36  1  0
 13 37  1  0
 15 38  1  0
 15 39  1  0
 16 40  1  0
 17 41  1  0
 20 42  1  0
M  ISO  8  22  13  23  13  24  13  25  13  26  13  27  13  28  13  29  13
M  ISO  8  30   8  31   8  32  13  33  13  34  13  35  13  36  13  37   3
M  ISO  5  38   8  39   8  40  14  41  14  42  14
M  END
>  <minimizedAffinity>  (1) 
-4.99998426

>  <minimizedRMSD>  (1) 
1.20241904

$$$$
