
     RDKit          3D

 32 34  0  0  0  0  0  0  0  0999 V2000
   47.0130   32.5820   45.4660 C   0  0  0  0  0  0  0  0  0  0  0  0
   47.3940   32.6990   44.1370 C   0  0  0  0  0  0  0  0  0  0  0  0
   47.6510   31.5420   43.4430 C   0  0  0  0  0  0  0  0  0  0  0  0
   47.5520   30.2690   43.9940 C   0  0  0  0  0  0  0  0  0  0  0  0
   47.1730   30.1830   45.3150 C   0  0  0  0  0  0  0  0  0  0  0  0
   46.9090   31.3210   46.0340 C   0  0  0  0  0  0  0  0  0  0  0  0
   47.5310   34.0100   43.4540 C   0  0  0  0  0  0  0  0  0  0  0  0
   44.2270   35.7000   43.3100 C   0  0  0  0  0  0  0  0  0  0  0  0
   43.8270   35.4260   42.0110 C   0  0  0  0  0  0  0  0  0  0  0  0
   44.6900   34.6710   41.2120 C   0  0  0  0  0  0  0  0  0  0  0  0
   45.8740   34.2360   41.7210 N   0  0  0  0  0  0  0  0  0  0  0  0
   46.2240   34.5350   43.0140 C   0  0  0  0  0  0  0  0  0  0  0  0
   45.3900   35.2560   43.7620 N   0  0  0  0  0  0  0  0  0  0  0  0
   46.7500   33.7170   46.1870 O   0  0  0  0  0  0  0  0  0  0  0  0
   46.5330   31.2340   47.3470 O   0  0  0  0  0  0  0  0  0  0  0  0
   45.2770   30.9940   47.8790 C   0  0  0  0  0  0  0  0  0  0  0  0
   45.1600   31.2750   49.3950 C   0  0  0  0  0  0  0  0  0  0  0  0
   45.0360   29.9120   48.8730 C   0  0  0  0  0  0  0  0  0  0  0  0
   47.9531   31.6273   42.3887 H   0  0  0  0  0  0  0  0  0  0  0  0
   47.7674   29.3688   43.3997 H   0  0  0  0  0  0  0  0  0  0  0  0
   47.0816   29.1978   45.7956 H   0  0  0  0  0  0  0  0  0  0  0  0
   47.9879   34.7287   44.1502 H   0  0  0  0  0  0  0  0  0  0  0  0
   48.1613   33.8688   42.5636 H   0  0  0  0  0  0  0  0  0  0  0  0
   43.5739   36.2902   43.9697 H   0  0  0  0  0  0  0  0  0  0  0  0
   42.8643   35.7901   41.6230 H   0  0  0  0  0  0  0  0  0  0  0  0
   44.4128   34.4294   40.1753 H   0  0  0  0  0  0  0  0  0  0  0  0
   46.8315   34.6057   45.7584 H   0  0  0  0  0  0  0  0  0  0  0  0
   44.7787   31.2707   46.9382 H   0  0  0  0  0  0  0  0  0  0  0  0
   46.0495   31.5662   49.9729 H   0  0  0  0  0  0  0  0  0  0  0  0
   44.5405   31.9316   50.0236 H   0  0  0  0  0  0  0  0  0  0  0  0
   44.0579   29.4094   48.8993 H   0  0  0  0  0  0  0  0  0  0  0  0
   45.5440   28.9632   49.1002 H   0  0  0  0  0  0  0  0  0  0  0  0
  1  6  2  0
  1 14  1  0
  2  1  1  0
  3  4  1  0
  3  2  2  0
  4  5  2  0
  5  6  1  0
  6 15  1  0
  7  2  1  0
  8 13  2  0
  9  8  1  0
 10 11  1  0
 10  9  2  0
 11 12  2  0
 12  7  1  0
 12 13  1  0
 15 16  1  0
 16 18  1  0
 16 17  1  0
 18 17  1  0
  3 19  1  0
  4 20  1  0
  5 21  1  0
  7 22  1  0
  7 23  1  0
  8 24  1  0
  9 25  1  0
 10 26  1  0
 14 27  1  0
 16 28  1  0
 17 29  1  0
 17 30  1  0
 18 31  1  0
 18 32  1  0
M  ISO  8  19  14  20  14  21  14  22   8  23   8  24  14  25  14  26  14
M  ISO  6  27   3  28  13  29  13  30  13  31  13  32  13
M  END
>  <minimizedAffinity>  (1) 
-4.69219065

>  <minimizedRMSD>  (1) 
2.68298316

$$$$
