
     RDKit          3D

 41 44  0  0  1  0  0  0  0  0999 V2000
   44.5140   34.2770   42.8830 C   0  0  0  0  0  0  0  0  0  0  0  0
   44.2890   35.5760   43.4030 C   0  0  0  0  0  0  0  0  0  0  0  0
   44.6710   35.7930   44.7290 C   0  0  0  0  0  0  0  0  0  0  0  0
   45.2230   34.7620   45.4180 N   0  0  0  0  0  0  0  0  0  0  0  0
   45.4190   33.5220   44.8650 C   0  0  0  0  0  0  0  0  0  0  0  0
   45.0640   33.3350   43.6440 N   0  0  0  0  0  0  0  0  0  0  0  0
   46.0190   32.4620   45.6940 C   0  0  1  0  0  0  0  0  0  0  0  0
   46.9450   32.8570   46.8260 C   0  0  0  0  0  0  0  0  0  0  0  0
   45.5340   32.4190   47.1000 C   0  0  1  0  0  0  0  0  0  0  0  0
   44.7330   33.5110   47.6240 N   0  0  0  0  0  0  0  0  0  0  0  0
   44.1090   34.0650   41.5180 C   0  0  0  0  0  0  0  0  0  0  0  0
   44.9310   33.6980   40.6020 O   0  0  0  0  0  0  0  0  0  0  0  0
   41.7450   33.3060   41.3190 C   0  0  0  0  0  0  0  0  0  0  0  0
   42.6800   34.3130   41.3050 C   0  0  0  0  0  0  0  0  0  0  0  0
   42.2540   35.6220   41.0810 C   0  0  0  0  0  0  0  0  0  0  0  0
   40.9210   35.9320   40.8740 C   0  0  0  0  0  0  0  0  0  0  0  0
   39.9830   34.9280   40.8880 C   0  0  0  0  0  0  0  0  0  0  0  0
   40.4060   33.6450   41.1080 C   0  0  0  0  0  0  0  0  0  0  0  0
   42.1570   31.7020   41.5430 S   0  0  0  0  0  0  0  0  0  0  0  0
   41.7560   31.0220   40.2490 O   0  0  0  0  0  0  0  0  0  0  0  0
   41.3540   31.0960   42.6960 O   0  0  0  0  0  0  0  0  0  0  0  0
   43.6090   30.9000   41.6620 C   0  0  0  0  0  0  0  0  0  0  0  0
   44.0990   30.0640   42.8640 C   0  0  0  0  0  0  0  0  0  0  0  0
   43.3800   29.3440   41.8150 C   0  0  0  0  0  0  0  0  0  0  0  0
   43.8368   36.3724   42.7938 H   0  0  0  0  0  0  0  0  0  0  0  0
   44.5280   36.7752   45.2031 H   0  0  0  0  0  0  0  0  0  0  0  0
   46.1095   31.7558   44.8555 H   0  0  0  0  0  0  0  0  0  0  0  0
   47.7887   32.2073   47.1020 H   0  0  0  0  0  0  0  0  0  0  0  0
   47.5515   33.7419   47.0691 H   0  0  0  0  0  0  0  0  0  0  0  0
   45.0104   31.6319   47.6625 H   0  0  0  0  0  0  0  0  0  0  0  0
   44.7509   33.4866   48.6536 H   0  0  0  0  0  0  0  0  0  0  0  0
   45.1181   34.4079   47.2951 H   0  0  0  0  0  0  0  0  0  0  0  0
   42.9988   36.4314   41.0685 H   0  0  0  0  0  0  0  0  0  0  0  0
   40.6149   36.9741   40.6996 H   0  0  0  0  0  0  0  0  0  0  0  0
   38.9178   35.1500   40.7263 H   0  0  0  0  0  0  0  0  0  0  0  0
   39.6550   32.8414   41.1192 H   0  0  0  0  0  0  0  0  0  0  0  0
   44.1255   31.6695   41.0695 H   0  0  0  0  0  0  0  0  0  0  0  0
   45.1769   29.8898   42.9976 H   0  0  0  0  0  0  0  0  0  0  0  0
   43.9640   30.1507   43.9522 H   0  0  0  0  0  0  0  0  0  0  0  0
   42.3696   28.9559   42.0111 H   0  0  0  0  0  0  0  0  0  0  0  0
   43.6000   28.4655   41.1906 H   0  0  0  0  0  0  0  0  0  0  0  0
  1  2  2  0
  1  6  1  0
  2  3  1  0
  3  4  2  0
  5  4  1  0
  5  7  1  0
  6  5  2  0
  7  8  1  0
  7  9  1  0
  8  9  1  0
  9 10  1  0
 11  1  1  0
 12 11  2  0
 13 19  1  0
 14 13  1  0
 14 11  1  0
 15 14  2  0
 16 17  2  0
 16 15  1  0
 17 18  1  0
 18 13  2  0
 19 22  1  0
 19 21  2  0
 20 19  2  0
 22 24  1  0
 22 23  1  0
 24 23  1  0
  2 25  1  0
  3 26  1  0
  7 27  1  6
  8 28  1  0
  8 29  1  0
  9 30  1  1
 10 31  1  0
 10 32  1  0
 15 33  1  0
 16 34  1  0
 17 35  1  0
 18 36  1  0
 22 37  1  0
 23 38  1  0
 23 39  1  0
 24 40  1  0
 24 41  1  0
M  ISO  8  25  14  26  14  27  13  28  13  29  13  30  13  31   5  32   5
M  ISO  8  33  14  34  14  35  14  36  14  37  13  38  13  39  13  40  13
M  ISO  1  41  13
M  END
>  <minimizedAffinity>  (1) 
-5.63909721

>  <minimizedRMSD>  (1) 
0.312193304

$$$$
