
     RDKit          3D

 43 46  0  0  1  0  0  0  0  0999 V2000
   47.0910   34.8520   42.0070 C   0  0  2  0  0  0  0  0  0  0  0  0
   46.3430   34.2470   40.8140 C   0  0  0  0  0  0  0  0  0  0  0  0
   47.5600   34.0870   39.8750 C   0  0  0  0  0  0  0  0  0  0  0  0
   48.6890   33.6920   40.7750 C   0  0  1  0  0  0  0  0  0  0  0  0
   48.1620   33.8070   42.1740 C   0  0  0  0  0  0  0  0  0  0  0  0
   44.5150   35.9550   44.5240 C   0  0  0  0  0  0  0  0  0  0  0  0
   45.2630   35.9550   43.3500 C   0  0  0  0  0  0  0  0  0  0  0  0
   46.2080   34.9480   43.2060 C   0  0  0  0  0  0  0  0  0  0  0  0
   46.3830   33.9930   44.2020 N   0  0  0  0  0  0  0  0  0  0  0  0
   45.6250   34.0400   45.3320 C   0  0  0  0  0  0  0  0  0  0  0  0
   44.6950   35.0230   45.4820 N   0  0  0  0  0  0  0  0  0  0  0  0
   49.1650   32.2680   40.5900 C   0  0  2  0  0  0  0  0  0  0  0  0
   49.9880   31.7220   41.6590 C   0  0  0  0  0  0  0  0  0  0  0  0
   50.5630   31.9580   40.2970 C   0  0  1  0  0  0  0  0  0  0  0  0
   50.8260   30.8140   39.5040 O   0  0  0  0  0  0  0  0  0  0  0  0
   51.1610   30.3120   36.9680 O   0  0  0  0  0  0  0  0  0  0  0  0
   51.4710   31.3300   38.0390 P   0  0  1  0  0  0  0  0  0  0  0  0
   50.7300   32.8050   37.5680 O   0  0  0  0  0  0  0  0  0  0  0  0
   53.1050   31.6020   38.0550 O   0  0  0  0  0  0  0  0  0  0  0  0
   53.8670   30.5330   37.6120 C   0  0  0  0  0  0  0  0  0  0  0  0
   55.0140   29.9850   38.3580 C   0  0  0  0  0  0  0  0  0  0  0  0
   55.2270   30.7810   37.0570 C   0  0  0  0  0  0  0  0  0  0  0  0
   47.4604   35.8791   41.8706 H   0  0  0  0  0  0  0  0  0  0  0  0
   45.8733   33.2830   41.0591 H   0  0  0  0  0  0  0  0  0  0  0  0
   45.4970   34.8304   40.4215 H   0  0  0  0  0  0  0  0  0  0  0  0
   47.7841   35.0361   39.3662 H   0  0  0  0  0  0  0  0  0  0  0  0
   47.3795   33.3432   39.0849 H   0  0  0  0  0  0  0  0  0  0  0  0
   49.5462   34.3429   40.5480 H   0  0  0  0  0  0  0  0  0  0  0  0
   48.9440   34.1412   42.8717 H   0  0  0  0  0  0  0  0  0  0  0  0
   47.8002   32.8578   42.5962 H   0  0  0  0  0  0  0  0  0  0  0  0
   43.7560   36.7369   44.6745 H   0  0  0  0  0  0  0  0  0  0  0  0
   45.1123   36.7179   42.5720 H   0  0  0  0  0  0  0  0  0  0  0  0
   45.7635   33.2863   46.1211 H   0  0  0  0  0  0  0  0  0  0  0  0
   48.2291   31.9935   40.0812 H   0  0  0  0  0  0  0  0  0  0  0  0
   50.2898   32.3591   42.5034 H   0  0  0  0  0  0  0  0  0  0  0  0
   49.9160   30.8600   42.3385 H   0  0  0  0  0  0  0  0  0  0  0  0
   51.4187   32.5160   39.8892 H   0  0  0  0  0  0  0  0  0  0  0  0
   50.4726   33.3174   38.3750 H   0  0  0  0  0  0  0  0  0  0  0  0
   52.9387   30.0724   37.2432 H   0  0  0  0  0  0  0  0  0  0  0  0
   55.3026   30.4211   39.3257 H   0  0  0  0  0  0  0  0  0  0  0  0
   55.3065   28.9894   38.7230 H   0  0  0  0  0  0  0  0  0  0  0  0
   55.5541   30.2687   36.1402 H   0  0  0  0  0  0  0  0  0  0  0  0
   55.8081   31.6668   36.7610 H   0  0  0  0  0  0  0  0  0  0  0  0
  1  5  1  0
  1  8  1  0
  2  1  1  0
  3  4  1  0
  3  2  1  0
  4  5  1  0
  6 11  2  0
  7  6  1  0
  8  7  2  0
  8  9  1  0
  9 10  2  0
 10 11  1  0
 12  4  1  0
 12 13  1  0
 14 12  1  0
 14 13  1  0
 15 14  1  0
 17 16  2  0
 17 19  1  0
 17 15  1  0
 18 17  1  0
 20 19  1  0
 20 21  1  0
 22 20  1  0
 22 21  1  0
  1 23  1  6
  2 24  1  0
  2 25  1  0
  3 26  1  0
  3 27  1  0
  4 28  1  1
  5 29  1  0
  5 30  1  0
  6 31  1  0
  7 32  1  0
 10 33  1  0
 12 34  1  6
 13 35  1  0
 13 36  1  0
 14 37  1  1
 18 38  1  0
 20 39  1  0
 21 40  1  0
 21 41  1  0
 22 42  1  0
 22 43  1  0
M  ISO  8  23  13  24  13  25  13  26  13  27  13  28  13  29  13  30  13
M  ISO  8  31  14  32  14  33  14  34  13  35  13  36  13  37  13  38   3
M  ISO  5  39  13  40  13  41  13  42  13  43  13
M  END
>  <minimizedAffinity>  (1) 
-5.16072035

>  <minimizedRMSD>  (1) 
0.585832179

$$$$
