
     RDKit          3D

 32 34  0  0  1  0  0  0  0  0999 V2000
   46.9020   34.6020   42.3030 N   0  0  0  0  0  0  0  0  0  0  0  0
   48.3470   34.6590   42.3510 C   0  0  0  0  0  0  0  0  0  0  0  0
   48.7190   35.4720   41.0910 C   0  0  0  0  0  0  0  0  0  0  0  0
   48.3560   34.7130   39.8560 C   0  0  0  0  0  0  0  0  0  0  0  0
   47.0720   33.9580   39.9400 C   0  0  0  0  0  0  0  0  0  0  0  0
   46.1820   34.3540   41.0770 C   0  0  1  0  0  0  0  0  0  0  0  0
   44.4730   35.9240   44.8310 C   0  0  0  0  0  0  0  0  0  0  0  0
   45.1950   35.8470   43.6340 C   0  0  0  0  0  0  0  0  0  0  0  0
   46.1050   34.7930   43.4750 C   0  0  0  0  0  0  0  0  0  0  0  0
   46.2080   33.9260   44.5150 N   0  0  0  0  0  0  0  0  0  0  0  0
   45.5000   34.0190   45.6650 C   0  0  0  0  0  0  0  0  0  0  0  0
   44.6280   35.0360   45.8050 N   0  0  0  0  0  0  0  0  0  0  0  0
   45.1480   33.3110   41.3770 C   0  0  0  0  0  0  0  0  0  0  0  0
   44.5860   32.4440   40.3190 C   0  0  0  0  0  0  0  0  0  0  0  0
   43.7220   33.4620   41.0280 C   0  0  0  0  0  0  0  0  0  0  0  0
   48.6901   35.1690   43.2632 H   0  0  0  0  0  0  0  0  0  0  0  0
   48.8142   33.6633   42.3713 H   0  0  0  0  0  0  0  0  0  0  0  0
   48.1745   36.4277   41.1024 H   0  0  0  0  0  0  0  0  0  0  0  0
   49.8036   35.6552   41.0916 H   0  0  0  0  0  0  0  0  0  0  0  0
   49.1622   33.9946   39.6466 H   0  0  0  0  0  0  0  0  0  0  0  0
   48.2236   35.4612   39.0606 H   0  0  0  0  0  0  0  0  0  0  0  0
   46.5198   34.1173   39.0021 H   0  0  0  0  0  0  0  0  0  0  0  0
   47.3430   32.9059   40.1119 H   0  0  0  0  0  0  0  0  0  0  0  0
   45.7058   35.2845   40.7345 H   0  0  0  0  0  0  0  0  0  0  0  0
   43.7550   36.7460   44.9684 H   0  0  0  0  0  0  0  0  0  0  0  0
   45.0519   36.5940   42.8393 H   0  0  0  0  0  0  0  0  0  0  0  0
   45.6340   33.2796   46.4683 H   0  0  0  0  0  0  0  0  0  0  0  0
   45.6858   33.1375   42.3208 H   0  0  0  0  0  0  0  0  0  0  0  0
   44.4395   31.3698   40.5050 H   0  0  0  0  0  0  0  0  0  0  0  0
   44.8374   32.2248   39.2708 H   0  0  0  0  0  0  0  0  0  0  0  0
   43.3765   34.3598   40.4946 H   0  0  0  0  0  0  0  0  0  0  0  0
   42.7735   33.4306   41.5841 H   0  0  0  0  0  0  0  0  0  0  0  0
  1  2  1  0
  1  9  1  0
  3  2  1  0
  4  5  1  0
  4  3  1  0
  5  6  1  0
  6 13  1  0
  6  1  1  0
  7 12  2  0
  8  7  1  0
  9  8  2  0
  9 10  1  0
 10 11  2  0
 11 12  1  0
 14 15  1  0
 14 13  1  0
 15 13  1  0
  2 16  1  0
  2 17  1  0
  3 18  1  0
  3 19  1  0
  4 20  1  0
  4 21  1  0
  5 22  1  0
  5 23  1  0
  6 24  1  6
  7 25  1  0
  8 26  1  0
 11 27  1  0
 13 28  1  0
 14 29  1  0
 14 30  1  0
 15 31  1  0
 15 32  1  0
M  ISO  8  16  13  17  13  18  13  19  13  20  13  21  13  22  13  23  13
M  ISO  8  24  13  25  14  26  14  27  14  28  13  29  13  30  13  31  13
M  ISO  1  32  13
M  END
>  <minimizedAffinity>  (1) 
-4.86235619

>  <minimizedRMSD>  (1) 
0.825536013

$$$$
