
     RDKit          3D

 39 41  0  0  1  0  0  0  0  0999 V2000
   46.6550   31.5890   45.0150 C   0  0  2  0  0  0  0  0  0  0  0  0
   46.0430   30.5360   44.0750 C   0  0  0  0  0  0  0  0  0  0  0  0
   46.2660   29.2150   44.8230 C   0  0  0  0  0  0  0  0  0  0  0  0
   45.2710   29.2710   45.9650 C   0  0  0  0  0  0  0  0  0  0  0  0
   45.6260   30.3710   46.9040 C   0  0  0  0  0  0  0  0  0  0  0  0
   45.8940   31.7040   46.2850 C   0  0  1  0  0  0  0  0  0  0  0  0
   47.9140   34.3450   42.7910 C   0  0  0  0  0  0  0  0  0  0  0  0
   47.9170   33.1250   43.4890 C   0  0  0  0  0  0  0  0  0  0  0  0
   46.7720   32.8150   44.2450 C   0  0  0  0  0  0  0  0  0  0  0  0
   45.7490   33.7100   44.2480 N   0  0  0  0  0  0  0  0  0  0  0  0
   45.7720   34.8620   43.5760 C   0  0  0  0  0  0  0  0  0  0  0  0
   46.8690   35.1850   42.8380 N   0  0  0  0  0  0  0  0  0  0  0  0
   49.1350   34.6600   41.9930 C   0  0  0  0  0  0  0  0  0  0  0  0
   49.6150   33.5390   41.3420 F   0  0  0  0  0  0  0  0  0  0  0  0
   48.8320   35.6870   41.1000 F   0  0  0  0  0  0  0  0  0  0  0  0
   50.1170   35.1830   42.8260 F   0  0  0  0  0  0  0  0  0  0  0  0
   44.6280   35.8130   43.6140 C   0  0  0  0  0  0  0  0  0  0  0  0
   43.6970   35.5180   42.6680 F   0  0  0  0  0  0  0  0  0  0  0  0
   45.1020   37.1340   43.4530 F   0  0  0  0  0  0  0  0  0  0  0  0
   44.0400   35.8310   44.8540 F   0  0  0  0  0  0  0  0  0  0  0  0
   46.7180   32.5410   47.2440 C   0  0  0  0  0  0  0  0  0  0  0  0
   47.7240   31.9110   48.1220 C   0  0  0  0  0  0  0  0  0  0  0  0
   46.3630   32.3340   48.6920 C   0  0  0  0  0  0  0  0  0  0  0  0
   47.6590   31.3021   45.3610 H   0  0  0  0  0  0  0  0  0  0  0  0
   46.5585   30.5294   43.1033 H   0  0  0  0  0  0  0  0  0  0  0  0
   44.9834   30.7271   43.8497 H   0  0  0  0  0  0  0  0  0  0  0  0
   46.0622   28.3550   44.1681 H   0  0  0  0  0  0  0  0  0  0  0  0
   47.3030   29.0930   45.1691 H   0  0  0  0  0  0  0  0  0  0  0  0
   44.2637   29.4495   45.5607 H   0  0  0  0  0  0  0  0  0  0  0  0
   45.2941   28.3146   46.5079 H   0  0  0  0  0  0  0  0  0  0  0  0
   44.7923   30.4907   47.6116 H   0  0  0  0  0  0  0  0  0  0  0  0
   46.5745   30.0662   47.3703 H   0  0  0  0  0  0  0  0  0  0  0  0
   44.9198   32.1683   46.0721 H   0  0  0  0  0  0  0  0  0  0  0  0
   48.7780   32.4418   43.4459 H   0  0  0  0  0  0  0  0  0  0  0  0
   46.7921   33.3863   46.5441 H   0  0  0  0  0  0  0  0  0  0  0  0
   47.9643   30.8438   48.0061 H   0  0  0  0  0  0  0  0  0  0  0  0
   48.7734   32.1193   48.3776 H   0  0  0  0  0  0  0  0  0  0  0  0
   46.2898   33.1939   49.3741 H   0  0  0  0  0  0  0  0  0  0  0  0
   45.5494   31.8380   49.2416 H   0  0  0  0  0  0  0  0  0  0  0  0
  1  6  1  0
  2  3  1  0
  2  1  1  0
  3  4  1  0
  4  5  1  0
  6  5  1  0
  6 21  1  0
  7 12  2  0
  7  8  1  0
  8  9  2  0
  9 10  1  0
  9  1  1  0
 11 17  1  0
 11 10  2  0
 12 11  1  0
 13  7  1  0
 13 16  1  0
 14 13  1  0
 15 13  1  0
 17 20  1  0
 18 17  1  0
 19 17  1  0
 21 22  1  0
 21 23  1  0
 22 23  1  0
  1 24  1  1
  2 25  1  0
  2 26  1  0
  3 27  1  0
  3 28  1  0
  4 29  1  0
  4 30  1  0
  5 31  1  0
  5 32  1  0
  6 33  1  6
  8 34  1  0
 21 35  1  0
 22 36  1  0
 22 37  1  0
 23 38  1  0
 23 39  1  0
M  ISO  8  24  13  25  13  26  13  27  13  28  13  29  13  30  13  31  13
M  ISO  8  32  13  33  13  34  14  35  13  36  13  37  13  38  13  39  13
M  END
>  <minimizedAffinity>  (1) 
-6.15588856

>  <minimizedRMSD>  (1) 
1.08071899

$$$$
