
     RDKit          3D

 25 27  0  0  0  0  0  0  0  0999 V2000
   44.6080   35.3720   44.7470 C   0  0  0  0  0  0  0  0  0  0  0  0
   44.7480   34.8290   43.4670 C   0  0  0  0  0  0  0  0  0  0  0  0
   45.3230   33.5610   43.3340 C   0  0  0  0  0  0  0  0  0  0  0  0
   45.7220   32.9090   44.4790 N   0  0  0  0  0  0  0  0  0  0  0  0
   45.5670   33.4710   45.6920 C   0  0  0  0  0  0  0  0  0  0  0  0
   45.0150   34.6940   45.8440 N   0  0  0  0  0  0  0  0  0  0  0  0
   46.0000   32.7580   46.8880 C   0  0  0  0  0  0  0  0  0  0  0  0
   47.2380   32.1900   46.9770 C   0  0  0  0  0  0  0  0  0  0  0  0
   47.6710   31.5090   48.0990 C   0  0  0  0  0  0  0  0  0  0  0  0
   46.7850   31.4240   49.1440 N   0  0  0  0  0  0  0  0  0  0  0  0
   45.5770   31.9860   49.0350 C   0  0  0  0  0  0  0  0  0  0  0  0
   45.1300   32.6590   47.9480 N   0  0  0  0  0  0  0  0  0  0  0  0
   44.2890   35.6010   42.2800 C   0  0  0  0  0  0  0  0  0  0  0  0
   44.1400   34.9570   40.9800 C   0  0  0  0  0  0  0  0  0  0  0  0
   42.9090   35.3390   41.7590 C   0  0  0  0  0  0  0  0  0  0  0  0
   44.1585   36.3691   44.8644 H   0  0  0  0  0  0  0  0  0  0  0  0
   45.4525   33.0986   42.3443 H   0  0  0  0  0  0  0  0  0  0  0  0
   47.9204   32.2781   46.1188 H   0  0  0  0  0  0  0  0  0  0  0  0
   48.6732   31.0587   48.1518 H   0  0  0  0  0  0  0  0  0  0  0  0
   44.8945   31.8950   49.8929 H   0  0  0  0  0  0  0  0  0  0  0  0
   44.8458   36.4851   42.6240 H   0  0  0  0  0  0  0  0  0  0  0  0
   44.4055   33.8963   40.8602 H   0  0  0  0  0  0  0  0  0  0  0  0
   44.5098   35.1670   39.9655 H   0  0  0  0  0  0  0  0  0  0  0  0
   42.2752   36.1725   41.4221 H   0  0  0  0  0  0  0  0  0  0  0  0
   42.0135   34.8159   42.1256 H   0  0  0  0  0  0  0  0  0  0  0  0
  1  6  2  0
  2  1  1  0
  3  2  2  0
  3  4  1  0
  4  5  2  0
  5  6  1  0
  5  7  1  0
  7  8  2  0
  7 12  1  0
  8  9  1  0
  9 10  2  0
 11 10  1  0
 12 11  2  0
 13  2  1  0
 14 15  1  0
 14 13  1  0
 15 13  1  0
  1 16  1  0
  3 17  1  0
  8 18  1  0
  9 19  1  0
 11 20  1  0
 13 21  1  0
 14 22  1  0
 14 23  1  0
 15 24  1  0
 15 25  1  0
M  ISO  8  16  14  17  14  18  14  19  14  20  14  21  13  22  13  23  13
M  ISO  2  24  13  25  13
M  END
>  <minimizedAffinity>  (1) 
-4.81370401

>  <minimizedRMSD>  (1) 
0.932853818

$$$$
