
     RDKit          3D

 34 36  0  0  0  0  0  0  0  0999 V2000
   44.3810   34.8370   42.0200 C   0  0  0  0  0  0  0  0  0  0  0  0
   44.1980   33.6090   42.3540 O   0  0  0  0  0  0  0  0  0  0  0  0
   45.3120   35.5180   42.8630 N   0  0  0  0  0  0  0  0  0  0  0  0
   45.7740   34.5860   43.8840 C   0  0  0  0  0  0  0  0  0  0  0  0
   45.2570   34.5300   45.1460 C   0  0  0  0  0  0  0  0  0  0  0  0
   45.8200   33.5780   45.9860 C   0  0  0  0  0  0  0  0  0  0  0  0
   46.8100   32.8020   45.5010 N   0  0  0  0  0  0  0  0  0  0  0  0
   47.2840   32.8960   44.2480 C   0  0  0  0  0  0  0  0  0  0  0  0
   46.7530   33.8170   43.4060 N   0  0  0  0  0  0  0  0  0  0  0  0
   44.2280   35.4140   45.4840 N   0  0  0  0  0  0  0  0  0  0  0  0
   43.7580   35.5010   40.9450 O   0  0  0  0  0  0  0  0  0  0  0  0
   43.5930   33.7040   38.6010 Cl  0  0  0  0  0  0  0  0  0  0  0  0
   42.2480   34.3290   39.5510 C   0  0  0  0  0  0  0  0  0  0  0  0
   42.4500   35.1800   40.6450 C   0  0  0  0  0  0  0  0  0  0  0  0
   41.3750   35.6370   41.3380 C   0  0  0  0  0  0  0  0  0  0  0  0
   40.0630   35.3130   41.0340 C   0  0  0  0  0  0  0  0  0  0  0  0
   39.8520   34.4580   39.9390 C   0  0  0  0  0  0  0  0  0  0  0  0
   38.2210   33.9940   39.4960 Cl  0  0  0  0  0  0  0  0  0  0  0  0
   40.9390   34.0020   39.2430 C   0  0  0  0  0  0  0  0  0  0  0  0
   40.8240   33.0860   38.0780 C   0  0  0  0  0  0  0  0  0  0  0  0
   40.0750   31.7680   38.3310 C   0  0  0  0  0  0  0  0  0  0  0  0
   41.5530   31.8340   37.9320 C   0  0  0  0  0  0  0  0  0  0  0  0
   45.6065   36.5002   42.7658 H   0  0  0  0  0  0  0  0  0  0  0  0
   45.4670   33.4601   47.0211 H   0  0  0  0  0  0  0  0  0  0  0  0
   48.0938   32.2335   43.9085 H   0  0  0  0  0  0  0  0  0  0  0  0
   43.8204   35.3924   46.4297 H   0  0  0  0  0  0  0  0  0  0  0  0
   43.8775   36.0869   44.7873 H   0  0  0  0  0  0  0  0  0  0  0  0
   41.5573   36.3051   42.1927 H   0  0  0  0  0  0  0  0  0  0  0  0
   39.2228   35.7078   41.6241 H   0  0  0  0  0  0  0  0  0  0  0  0
   40.7524   33.9556   37.4082 H   0  0  0  0  0  0  0  0  0  0  0  0
   39.7838   31.4774   39.3512 H   0  0  0  0  0  0  0  0  0  0  0  0
   39.1667   31.2810   37.9466 H   0  0  0  0  0  0  0  0  0  0  0  0
   41.8628   31.4974   36.9317 H   0  0  0  0  0  0  0  0  0  0  0  0
   42.4823   31.4330   38.3629 H   0  0  0  0  0  0  0  0  0  0  0  0
  1  2  2  0
  1  3  1  0
  3  4  1  0
  4  5  2  0
  5 10  1  0
  5  6  1  0
  7  6  2  0
  8  7  1  0
  9  4  1  0
  9  8  2  0
 11  1  1  0
 12 13  1  0
 13 14  2  0
 14 11  1  0
 14 15  1  0
 16 15  2  0
 17 16  1  0
 18 17  1  0
 19 13  1  0
 19 17  2  0
 20 21  1  0
 20 19  1  0
 22 20  1  0
 22 21  1  0
  3 23  1  0
  6 24  1  0
  8 25  1  0
 10 26  1  0
 10 27  1  0
 15 28  1  0
 16 29  1  0
 20 30  1  0
 21 31  1  0
 21 32  1  0
 22 33  1  0
 22 34  1  0
M  ISO  8  24  14  25  14  28  14  29  14  30  13  31  13  32  13  33  13
M  ISO  1  34  13
M  END
>  <minimizedAffinity>  (1) 
-6.13859606

>  <minimizedRMSD>  (1) 
0.100916676

$$$$
