
     RDKit          3D

 38 40  0  0  0  0  0  0  0  0999 V2000
   46.5320   32.0280   47.4420 C   0  0  0  0  0  0  0  0  0  0  0  0
   45.1220   34.6000   45.1740 C   0  0  0  0  0  0  0  0  0  0  0  0
   45.9790   34.4920   44.0420 C   0  0  0  0  0  0  0  0  0  0  0  0
   46.9720   33.5510   44.1340 C   0  0  0  0  0  0  0  0  0  0  0  0
   47.0430   32.8280   45.2720 N   0  0  0  0  0  0  0  0  0  0  0  0
   46.2430   32.9350   46.3230 C   0  0  0  0  0  0  0  0  0  0  0  0
   45.2840   33.8240   46.2650 N   0  0  0  0  0  0  0  0  0  0  0  0
   47.8770   33.4020   43.0030 C   0  0  0  0  0  0  0  0  0  0  0  0
   48.7810   32.3630   43.2260 F   0  0  0  0  0  0  0  0  0  0  0  0
   48.7000   34.5440   43.0110 F   0  0  0  0  0  0  0  0  0  0  0  0
   47.2410   33.2230   41.8250 F   0  0  0  0  0  0  0  0  0  0  0  0
   45.7240   35.3840   42.8820 C   0  0  0  0  0  0  0  0  0  0  0  0
   45.0730   36.7180   43.0980 C   0  0  0  0  0  0  0  0  0  0  0  0
   44.3430   35.6070   42.3990 C   0  0  0  0  0  0  0  0  0  0  0  0
   45.2810   31.4690   48.0910 C   0  0  0  0  0  0  0  0  0  0  0  0
   45.0750   30.0560   47.7610 C   0  0  0  0  0  0  0  0  0  0  0  0
   45.0680   29.4410   46.5500 C   0  0  0  0  0  0  0  0  0  0  0  0
   44.8320   28.1080   46.7810 C   0  0  0  0  0  0  0  0  0  0  0  0
   44.7010   27.9350   48.0930 N   0  0  0  0  0  0  0  0  0  0  0  0
   44.8490   29.1150   48.6690 N   0  0  0  0  0  0  0  0  0  0  0  0
   44.4380   26.6850   48.8220 C   0  0  0  0  0  0  0  0  0  0  0  0
   44.0990   26.9620   50.1500 F   0  0  0  0  0  0  0  0  0  0  0  0
   45.5300   25.8470   48.7070 F   0  0  0  0  0  0  0  0  0  0  0  0
   43.3450   26.0680   48.2390 F   0  0  0  0  0  0  0  0  0  0  0  0
   44.7420   27.0740   45.7550 C   0  0  0  0  0  0  0  0  0  0  0  0
   43.6870   26.8110   45.1160 O   0  0  0  0  0  0  0  0  0  0  0  0
   47.1040   32.5804   48.2020 H   0  0  0  0  0  0  0  0  0  0  0  0
   47.1003   31.1776   47.0373 H   0  0  0  0  0  0  0  0  0  0  0  0
   44.3053   35.3367   45.1582 H   0  0  0  0  0  0  0  0  0  0  0  0
   46.6584   35.0405   42.4141 H   0  0  0  0  0  0  0  0  0  0  0  0
   44.7702   37.0278   44.1091 H   0  0  0  0  0  0  0  0  0  0  0  0
   45.3264   37.7612   42.8582 H   0  0  0  0  0  0  0  0  0  0  0  0
   44.1434   35.6753   41.3194 H   0  0  0  0  0  0  0  0  0  0  0  0
   43.3783   35.0995   42.5468 H   0  0  0  0  0  0  0  0  0  0  0  0
   45.3724   31.5689   49.1826 H   0  0  0  0  0  0  0  0  0  0  0  0
   44.4187   32.0358   47.7100 H   0  0  0  0  0  0  0  0  0  0  0  0
   45.2219   29.9192   45.5714 H   0  0  0  0  0  0  0  0  0  0  0  0
   45.6460   26.4907   45.5259 H   0  0  0  0  0  0  0  0  0  0  0  0
  1 15  1  0
  2  7  2  0
  3  4  2  0
  3  2  1  0
  4  5  1  0
  5  6  2  0
  6  1  1  0
  7  6  1  0
  8 10  1  0
  8  9  1  0
  8  4  1  0
 11  8  1  0
 12 13  1  0
 12  3  1  0
 14 12  1  0
 14 13  1  0
 16 15  1  0
 16 20  2  0
 17 18  2  0
 17 16  1  0
 18 19  1  0
 19 20  1  0
 19 21  1  0
 21 22  1  0
 23 21  1  0
 24 21  1  0
 25 18  1  0
 26 25  2  0
  1 27  1  0
  1 28  1  0
  2 29  1  0
 12 30  1  0
 13 31  1  0
 13 32  1  0
 14 33  1  0
 14 34  1  0
 15 35  1  0
 15 36  1  0
 17 37  1  0
 25 38  1  0
M  ISO  8  27   8  28   8  29  14  30  13  31  13  32  13  33  13  34  13
M  ISO  4  35   8  36   8  37  14  38   6
M  END
>  <minimizedAffinity>  (1) 
-5.42844725

>  <minimizedRMSD>  (1) 
1.40926659

$$$$
