
     RDKit          3D

 32 33  0  0  0  0  0  0  0  0999 V2000
   43.5790   35.5240   41.7460 C   0  0  0  0  0  0  0  0  0  0  0  0
   43.3190   35.7020   43.1710 N   0  0  0  0  0  0  0  0  0  0  0  0
   44.7490   35.9510   44.0930 S   0  0  0  0  0  0  0  0  0  0  0  0
   45.9460   35.3480   43.4450 O   0  0  0  0  0  0  0  0  0  0  0  0
   44.9190   37.4590   44.1800 O   0  0  0  0  0  0  0  0  0  0  0  0
   44.5470   35.3850   45.6350 O   0  0  0  0  0  0  0  0  0  0  0  0
   45.2300   34.2070   45.8710 C   0  0  0  0  0  0  0  0  0  0  0  0
   43.4210   33.7750   41.3980 S   0  0  0  0  0  0  0  0  0  0  0  0
   41.1050   32.3590   40.8510 C   0  0  0  0  0  0  0  0  0  0  0  0
   41.8500   33.4770   40.5530 C   0  0  0  0  0  0  0  0  0  0  0  0
   41.4170   34.4130   39.5930 C   0  0  0  0  0  0  0  0  0  0  0  0
   40.2300   34.1350   38.9940 N   0  0  0  0  0  0  0  0  0  0  0  0
   39.5250   33.0340   39.3070 C   0  0  0  0  0  0  0  0  0  0  0  0
   39.9340   32.1510   40.2120 N   0  0  0  0  0  0  0  0  0  0  0  0
   38.2270   32.8010   38.6000 C   0  0  0  0  0  0  0  0  0  0  0  0
   38.0530   33.5270   37.3010 C   0  0  0  0  0  0  0  0  0  0  0  0
   38.2940   32.0620   37.2620 C   0  0  0  0  0  0  0  0  0  0  0  0
   42.8474   36.0942   41.1546 H   0  0  0  0  0  0  0  0  0  0  0  0
   44.5834   35.8870   41.4824 H   0  0  0  0  0  0  0  0  0  0  0  0
   42.7045   36.5197   43.2923 H   0  0  0  0  0  0  0  0  0  0  0  0
   46.5742   35.0316   44.1417 H   0  0  0  0  0  0  0  0  0  0  0  0
   44.9499   37.7333   45.1307 H   0  0  0  0  0  0  0  0  0  0  0  0
   45.3224   34.0477   46.9555 H   0  0  0  0  0  0  0  0  0  0  0  0
   44.6786   33.3673   45.4227 H   0  0  0  0  0  0  0  0  0  0  0  0
   46.2326   34.2683   45.4227 H   0  0  0  0  0  0  0  0  0  0  0  0
   41.4608   31.6404   41.6040 H   0  0  0  0  0  0  0  0  0  0  0  0
   42.0023   35.3107   39.3447 H   0  0  0  0  0  0  0  0  0  0  0  0
   37.6462   32.6861   39.5270 H   0  0  0  0  0  0  0  0  0  0  0  0
   37.0647   33.9245   37.0267 H   0  0  0  0  0  0  0  0  0  0  0  0
   38.5395   34.3976   36.8370 H   0  0  0  0  0  0  0  0  0  0  0  0
   37.4841   31.3778   36.9691 H   0  0  0  0  0  0  0  0  0  0  0  0
   39.0254   31.4043   36.7696 H   0  0  0  0  0  0  0  0  0  0  0  0
  1  2  1  0
  2  3  1  0
  3  5  1  0
  3  6  1  0
  4  3  1  0
  6  7  1  0
  8  1  1  0
 10  9  2  0
 10  8  1  0
 11 10  1  0
 12 13  1  0
 12 11  2  0
 13 14  2  0
 14  9  1  0
 15 13  1  0
 16 15  1  0
 17 16  1  0
 17 15  1  0
  1 18  1  0
  1 19  1  0
  2 20  1  0
  4 21  1  0
  5 22  1  0
  7 23  1  0
  7 24  1  0
  7 25  1  0
  9 26  1  0
 11 27  1  0
 15 28  1  0
 16 29  1  0
 16 30  1  0
 17 31  1  0
 17 32  1  0
M  ISO  8  18   8  19   8  20   5  21   3  22   3  23   8  24   8  25   8
M  ISO  7  26  14  27  14  28  13  29  13  30  13  31  13  32  13
M  END
>  <minimizedAffinity>  (1) 
-4.82142448

>  <minimizedRMSD>  (1) 
1.10365725

$$$$
