
     RDKit          3D

 34 36  0  0  1  0  0  0  0  0999 V2000
   47.5970   33.4540   43.2310 N   0  0  0  0  0  0  0  0  0  0  0  0
   47.2360   32.5610   42.1370 C   0  0  0  0  0  0  0  0  0  0  0  0
   48.4490   32.1560   41.3330 C   0  0  0  0  0  0  0  0  0  0  0  0
   49.2450   33.2450   40.8910 N   0  0  0  0  0  0  0  0  0  0  0  0
   49.3850   34.3290   41.7900 C   0  0  2  0  0  0  0  0  0  0  0  0
   48.8190   34.2080   43.1480 C   0  0  0  0  0  0  0  0  0  0  0  0
   44.9610   34.5280   45.6570 C   0  0  0  0  0  0  0  0  0  0  0  0
   45.7120   34.5100   44.4690 C   0  0  0  0  0  0  0  0  0  0  0  0
   46.7580   33.5850   44.3690 C   0  0  0  0  0  0  0  0  0  0  0  0
   46.9690   32.7680   45.4320 N   0  0  0  0  0  0  0  0  0  0  0  0
   46.2240   32.8150   46.5590 C   0  0  0  0  0  0  0  0  0  0  0  0
   45.2080   33.7110   46.6660 N   0  0  0  0  0  0  0  0  0  0  0  0
   46.5140   31.8890   47.6860 C   0  0  0  0  0  0  0  0  0  0  0  0
   45.5500   30.7580   47.9890 C   0  0  0  0  0  0  0  0  0  0  0  0
   45.5990   31.9550   48.8780 C   0  0  0  0  0  0  0  0  0  0  0  0
   48.7490   35.5600   41.1530 C   0  0  0  0  0  0  0  0  0  0  0  0
   49.5440   36.6870   41.4020 F   0  0  0  0  0  0  0  0  0  0  0  0
   47.5680   35.7810   41.8350 F   0  0  0  0  0  0  0  0  0  0  0  0
   48.5830   35.4530   39.8100 F   0  0  0  0  0  0  0  0  0  0  0  0
   46.7644   31.6583   42.5526 H   0  0  0  0  0  0  0  0  0  0  0  0
   46.5409   33.0931   41.4708 H   0  0  0  0  0  0  0  0  0  0  0  0
   49.0751   31.5028   41.9587 H   0  0  0  0  0  0  0  0  0  0  0  0
   48.0752   31.6511   40.4300 H   0  0  0  0  0  0  0  0  0  0  0  0
   50.1875   32.8822   40.6887 H   0  0  0  0  0  0  0  0  0  0  0  0
   50.4721   34.3782   41.9508 H   0  0  0  0  0  0  0  0  0  0  0  0
   49.5674   33.7169   43.7873 H   0  0  0  0  0  0  0  0  0  0  0  0
   48.5727   35.2302   43.4712 H   0  0  0  0  0  0  0  0  0  0  0  0
   44.1361   35.2497   45.7505 H   0  0  0  0  0  0  0  0  0  0  0  0
   45.4850   35.2010   43.6438 H   0  0  0  0  0  0  0  0  0  0  0  0
   47.5981   31.9487   47.5094 H   0  0  0  0  0  0  0  0  0  0  0  0
   44.6777   30.5901   47.3402 H   0  0  0  0  0  0  0  0  0  0  0  0
   45.6468   29.6727   48.1396 H   0  0  0  0  0  0  0  0  0  0  0  0
   46.0143   31.8669   49.8928 H   0  0  0  0  0  0  0  0  0  0  0  0
   44.8546   32.6785   49.2419 H   0  0  0  0  0  0  0  0  0  0  0  0
  1  9  1  0
  2  1  1  0
  3  2  1  0
  4  3  1  0
  4  5  1  0
  5  6  1  0
  6  1  1  0
  7 12  2  0
  8  7  1  0
  9  8  2  0
  9 10  1  0
 10 11  2  0
 11 12  1  0
 11 13  1  0
 13 14  1  0
 13 15  1  0
 14 15  1  0
 16 17  1  0
 16  5  1  0
 16 18  1  0
 19 16  1  0
  2 20  1  0
  2 21  1  0
  3 22  1  0
  3 23  1  0
  4 24  1  0
  5 25  1  1
  6 26  1  0
  6 27  1  0
  7 28  1  0
  8 29  1  0
 13 30  1  0
 14 31  1  0
 14 32  1  0
 15 33  1  0
 15 34  1  0
M  ISO  8  20  13  21  13  22  13  23  13  24   5  25  13  26  13  27  13
M  ISO  7  28  14  29  14  30  13  31  13  32  13  33  13  34  13
M  END
>  <minimizedAffinity>  (1) 
-5.8207922

>  <minimizedRMSD>  (1) 
0.301328421

$$$$
