
     RDKit          3D

 41 43  0  0  0  0  0  0  0  0999 V2000
   43.7060   35.2290   40.9290 C   0  0  0  0  0  0  0  0  0  0  0  0
   43.8010   35.5590   42.2120 C   0  0  0  0  0  0  0  0  0  0  0  0
   45.0700   35.5580   43.0390 C   0  0  0  0  0  0  0  0  0  0  0  0
   44.8690   34.6960   44.0990 O   0  0  0  0  0  0  0  0  0  0  0  0
   45.7230   32.5610   42.7570 O   0  0  0  0  0  0  0  0  0  0  0  0
   45.9200   33.3790   44.0090 P   0  0  1  0  0  0  0  0  0  0  0  0
   47.5370   33.9190   43.9970 O   0  0  0  0  0  0  0  0  0  0  0  0
   45.7320   32.4050   45.3750 O   0  0  0  0  0  0  0  0  0  0  0  0
   46.0660   33.0640   46.5410 C   0  0  0  0  0  0  0  0  0  0  0  0
   47.0160   32.4170   47.4980 C   0  0  0  0  0  0  0  0  0  0  0  0
   45.5370   32.4300   47.8070 C   0  0  0  0  0  0  0  0  0  0  0  0
   42.4430   35.3000   40.3710 O   0  0  0  0  0  0  0  0  0  0  0  0
   41.2610   35.5870   40.9880 C   0  0  0  0  0  0  0  0  0  0  0  0
   40.5100   33.4060   41.8080 C   0  0  0  0  0  0  0  0  0  0  0  0
   40.2730   34.4630   40.8940 C   0  0  0  0  0  0  0  0  0  0  0  0
   39.2030   34.3430   40.0600 C   0  0  0  0  0  0  0  0  0  0  0  0
   38.4650   33.2510   40.1640 N   0  0  0  0  0  0  0  0  0  0  0  0
   38.6850   32.2620   41.0180 C   0  0  0  0  0  0  0  0  0  0  0  0
   39.7510   32.3060   41.8990 N   0  0  0  0  0  0  0  0  0  0  0  0
   37.7820   31.0780   41.0420 C   0  0  0  0  0  0  0  0  0  0  0  0
   38.4290   29.7110   41.0830 C   0  0  0  0  0  0  0  0  0  0  0  0
   37.7150   30.1690   39.8700 C   0  0  0  0  0  0  0  0  0  0  0  0
   44.5831   34.9167   40.3432 H   0  0  0  0  0  0  0  0  0  0  0  0
   42.8734   35.8606   42.7205 H   0  0  0  0  0  0  0  0  0  0  0  0
   45.9170   35.2124   42.4282 H   0  0  0  0  0  0  0  0  0  0  0  0
   45.3005   36.5713   43.3996 H   0  0  0  0  0  0  0  0  0  0  0  0
   47.8562   34.0256   44.9280 H   0  0  0  0  0  0  0  0  0  0  0  0
   46.0337   34.0568   46.0685 H   0  0  0  0  0  0  0  0  0  0  0  0
   47.5118   31.4735   47.2260 H   0  0  0  0  0  0  0  0  0  0  0  0
   47.9225   32.7416   48.0299 H   0  0  0  0  0  0  0  0  0  0  0  0
   45.1485   33.0613   48.6197 H   0  0  0  0  0  0  0  0  0  0  0  0
   44.7807   31.6666   48.0421 H   0  0  0  0  0  0  0  0  0  0  0  0
   41.4592   35.7938   42.0501 H   0  0  0  0  0  0  0  0  0  0  0  0
   40.8231   36.4586   40.4795 H   0  0  0  0  0  0  0  0  0  0  0  0
   41.3719   33.4946   42.4857 H   0  0  0  0  0  0  0  0  0  0  0  0
   38.9616   35.1263   39.3264 H   0  0  0  0  0  0  0  0  0  0  0  0
   37.0320   31.6247   41.6324 H   0  0  0  0  0  0  0  0  0  0  0  0
   39.5251   29.6192   41.0761 H   0  0  0  0  0  0  0  0  0  0  0  0
   38.3619   28.8348   41.7446 H   0  0  0  0  0  0  0  0  0  0  0  0
   36.7569   29.7054   39.5924 H   0  0  0  0  0  0  0  0  0  0  0  0
   37.9841   30.2619   38.8075 H   0  0  0  0  0  0  0  0  0  0  0  0
  1  2  2  0
  2  3  1  0
  3  4  1  0
  6  5  2  0
  6  4  1  0
  6  8  1  0
  7  6  1  0
  8  9  1  0
  9 10  1  0
  9 11  1  0
 10 11  1  0
 12  1  1  0
 12 13  1  0
 14 19  2  0
 15 13  1  0
 15 14  1  0
 16 17  1  0
 16 15  2  0
 17 18  2  0
 18 20  1  0
 18 19  1  0
 20 21  1  0
 22 20  1  0
 22 21  1  0
  1 23  1  0
  2 24  1  0
  3 25  1  0
  3 26  1  0
  7 27  1  0
  9 28  1  0
 10 29  1  0
 10 30  1  0
 11 31  1  0
 11 32  1  0
 13 33  1  0
 13 34  1  0
 14 35  1  0
 16 36  1  0
 20 37  1  0
 21 38  1  0
 21 39  1  0
 22 40  1  0
 22 41  1  0
M  ISO  8  25   8  26   8  27   3  28  13  29  13  30  13  31  13  32  13
M  ISO  8  33   8  34   8  35  14  36  14  37  13  38  13  39  13  40  13
M  ISO  1  41  13
M  END
>  <minimizedAffinity>  (1) 
-4.85434961

>  <minimizedRMSD>  (1) 
0.584928811

$$$$
