
     RDKit          3D

 41 44  0  0  1  0  0  0  0  0999 V2000
   49.0690   33.3950   40.9240 N   0  0  0  0  0  0  0  0  0  0  0  0
   50.1420   32.6210   41.5050 C   0  0  0  0  0  0  0  0  0  0  0  0
   50.4360   31.3590   40.7500 C   0  0  0  0  0  0  0  0  0  0  0  0
   49.2460   30.4120   40.9260 C   0  0  0  0  0  0  0  0  0  0  0  0
   47.9540   31.1850   40.9190 C   0  0  0  0  0  0  0  0  0  0  0  0
   48.1690   32.5180   40.2330 C   0  0  2  0  0  0  0  0  0  0  0  0
   47.1630   34.8600   41.8770 C   0  0  1  0  0  0  0  0  0  0  0  0
   48.4330   35.6220   41.8180 C   0  0  0  0  0  0  0  0  0  0  0  0
   48.4670   34.1550   41.9630 C   0  0  2  0  0  0  0  0  0  0  0  0
   45.4320   36.0630   43.2260 C   0  0  0  0  0  0  0  0  0  0  0  0
   46.3070   34.9850   43.0560 C   0  0  0  0  0  0  0  0  0  0  0  0
   46.3220   34.0040   44.0740 C   0  0  0  0  0  0  0  0  0  0  0  0
   45.5010   34.1590   45.1360 N   0  0  0  0  0  0  0  0  0  0  0  0
   44.6720   35.2040   45.2710 C   0  0  0  0  0  0  0  0  0  0  0  0
   44.6280   36.1710   44.3120 N   0  0  0  0  0  0  0  0  0  0  0  0
   48.5290   32.3090   38.8550 N   0  0  0  0  0  0  0  0  0  0  0  0
   47.7420   33.1720   38.0210 C   0  0  0  0  0  0  0  0  0  0  0  0
   48.5390   34.3090   37.3750 C   0  0  0  0  0  0  0  0  0  0  0  0
   47.8590   33.2400   36.5610 C   0  0  0  0  0  0  0  0  0  0  0  0
   51.0514   33.2397   41.5193 H   0  0  0  0  0  0  0  0  0  0  0  0
   49.8243   32.3300   42.5171 H   0  0  0  0  0  0  0  0  0  0  0  0
   51.3479   30.8900   41.1481 H   0  0  0  0  0  0  0  0  0  0  0  0
   50.5929   31.5802   39.6840 H   0  0  0  0  0  0  0  0  0  0  0  0
   49.2372   29.6840   40.1014 H   0  0  0  0  0  0  0  0  0  0  0  0
   49.3445   29.8908   41.8896 H   0  0  0  0  0  0  0  0  0  0  0  0
   47.1869   30.6127   40.3768 H   0  0  0  0  0  0  0  0  0  0  0  0
   47.6212   31.3538   41.9538 H   0  0  0  0  0  0  0  0  0  0  0  0
   47.2106   33.0571   40.2623 H   0  0  0  0  0  0  0  0  0  0  0  0
   46.2725   34.7634   41.2385 H   0  0  0  0  0  0  0  0  0  0  0  0
   48.7505   36.0880   40.8735 H   0  0  0  0  0  0  0  0  0  0  0  0
   48.8576   36.4674   42.3792 H   0  0  0  0  0  0  0  0  0  0  0  0
   48.8492   33.4069   42.6731 H   0  0  0  0  0  0  0  0  0  0  0  0
   45.3952   36.8468   42.4551 H   0  0  0  0  0  0  0  0  0  0  0  0
   46.9887   33.1320   44.0029 H   0  0  0  0  0  0  0  0  0  0  0  0
   44.0259   35.2809   46.1579 H   0  0  0  0  0  0  0  0  0  0  0  0
   49.5281   32.5225   38.7246 H   0  0  0  0  0  0  0  0  0  0  0  0
   46.8604   33.0281   38.6630 H   0  0  0  0  0  0  0  0  0  0  0  0
   48.1470   35.3368   37.3817 H   0  0  0  0  0  0  0  0  0  0  0  0
   49.5607   34.7074   37.4616 H   0  0  0  0  0  0  0  0  0  0  0  0
   46.9768   33.4954   35.9555 H   0  0  0  0  0  0  0  0  0  0  0  0
   48.1971   32.5361   35.7862 H   0  0  0  0  0  0  0  0  0  0  0  0
  1  2  1  0
  1  9  1  0
  3  4  1  0
  3  2  1  0
  5  4  1  0
  6  5  1  0
  6  1  1  0
  7  9  1  0
  7 11  1  0
  8  7  1  0
  8  9  1  0
 10 15  2  0
 11 10  1  0
 11 12  2  0
 12 13  1  0
 13 14  2  0
 15 14  1  0
 16  6  1  0
 17 16  1  0
 18 17  1  0
 19 18  1  0
 19 17  1  0
  2 20  1  0
  2 21  1  0
  3 22  1  0
  3 23  1  0
  4 24  1  0
  4 25  1  0
  5 26  1  0
  5 27  1  0
  6 28  1  6
  7 29  1  6
  8 30  1  0
  8 31  1  0
  9 32  1  1
 10 33  1  0
 12 34  1  0
 14 35  1  0
 16 36  1  0
 17 37  1  0
 18 38  1  0
 18 39  1  0
 19 40  1  0
 19 41  1  0
M  ISO  8  20  13  21  13  22  13  23  13  24  13  25  13  26  13  27  13
M  ISO  8  28  13  29  13  30  13  31  13  32  13  33  14  34  14  35  14
M  ISO  6  36   5  37  13  38  13  39  13  40  13  41  13
M  END
>  <minimizedAffinity>  (1) 
-4.75954962

>  <minimizedRMSD>  (1) 
2.18524551

$$$$
