
     RDKit          3D

 44 48  0  0  1  0  0  0  0  0999 V2000
   47.4720   32.5350   44.3300 C   0  0  0  0  0  0  0  0  0  0  0  0
   46.7600   33.4920   43.6140 C   0  0  0  0  0  0  0  0  0  0  0  0
   45.7200   34.2300   44.1570 C   0  0  0  0  0  0  0  0  0  0  0  0
   45.3650   34.0080   45.4900 C   0  0  0  0  0  0  0  0  0  0  0  0
   44.4370   34.5210   46.3310 N   0  0  0  0  0  0  0  0  0  0  0  0
   44.5490   33.9190   47.5350 C   0  0  0  0  0  0  0  0  0  0  0  0
   45.5490   33.0400   47.4190 N   0  0  0  0  0  0  0  0  0  0  0  0
   46.0750   33.0650   46.1790 C   0  0  0  0  0  0  0  0  0  0  0  0
   47.1180   32.3100   45.6690 C   0  0  0  0  0  0  0  0  0  0  0  0
   46.9810   33.1200   39.9680 C   0  0  0  0  0  0  0  0  0  0  0  0
   47.8030   34.1800   39.6020 C   0  0  0  0  0  0  0  0  0  0  0  0
   48.2770   35.0170   40.6060 C   0  0  0  0  0  0  0  0  0  0  0  0
   47.9270   34.7780   41.9130 N   0  0  0  0  0  0  0  0  0  0  0  0
   47.1230   33.7310   42.2180 C   0  0  0  0  0  0  0  0  0  0  0  0
   46.6330   32.8860   41.2710 N   0  0  0  0  0  0  0  0  0  0  0  0
   44.8340   35.4390   43.2190 S   0  0  0  0  0  0  0  0  0  0  0  0
   42.3460   35.1740   42.4130 N   0  0  0  0  0  0  0  0  0  0  0  0
   43.6620   34.7150   42.0290 C   0  0  1  0  0  0  0  0  0  0  0  0
   44.0600   35.3050   40.6690 C   0  0  0  0  0  0  0  0  0  0  0  0
   43.0410   35.2380   39.7390 O   0  0  0  0  0  0  0  0  0  0  0  0
   41.9460   34.4880   40.1010 C   0  0  0  0  0  0  0  0  0  0  0  0
   41.3760   35.0520   41.3680 C   0  0  1  0  0  0  0  0  0  0  0  0
   40.1040   34.3790   41.8110 C   0  0  0  0  0  0  0  0  0  0  0  0
   39.1780   33.7350   40.8620 C   0  0  0  0  0  0  0  0  0  0  0  0
   39.9330   32.9280   41.8860 C   0  0  0  0  0  0  0  0  0  0  0  0
   48.2901   31.9701   43.8593 H   0  0  0  0  0  0  0  0  0  0  0  0
   43.7541   35.2538   46.0912 H   0  0  0  0  0  0  0  0  0  0  0  0
   43.9400   34.1131   48.4303 H   0  0  0  0  0  0  0  0  0  0  0  0
   47.6452   31.5673   46.2859 H   0  0  0  0  0  0  0  0  0  0  0  0
   46.5982   32.4481   39.1856 H   0  0  0  0  0  0  0  0  0  0  0  0
   48.0705   34.3514   38.5489 H   0  0  0  0  0  0  0  0  0  0  0  0
   48.9292   35.8666   40.3551 H   0  0  0  0  0  0  0  0  0  0  0  0
   42.0286   34.6182   43.2200 H   0  0  0  0  0  0  0  0  0  0  0  0
   43.6692   33.6155   41.9957 H   0  0  0  0  0  0  0  0  0  0  0  0
   44.3378   36.3598   40.8110 H   0  0  0  0  0  0  0  0  0  0  0  0
   44.9012   34.7106   40.2829 H   0  0  0  0  0  0  0  0  0  0  0  0
   41.1891   34.5291   39.3039 H   0  0  0  0  0  0  0  0  0  0  0  0
   42.2435   33.4406   40.2570 H   0  0  0  0  0  0  0  0  0  0  0  0
   41.0787   36.0810   41.1177 H   0  0  0  0  0  0  0  0  0  0  0  0
   40.0213   35.1930   42.5462 H   0  0  0  0  0  0  0  0  0  0  0  0
   38.0924   33.8806   40.9630 H   0  0  0  0  0  0  0  0  0  0  0  0
   39.0679   33.7090   39.7678 H   0  0  0  0  0  0  0  0  0  0  0  0
   40.7476   32.2597   41.5700 H   0  0  0  0  0  0  0  0  0  0  0  0
   39.6566   32.2142   42.6760 H   0  0  0  0  0  0  0  0  0  0  0  0
  1  9  2  0
  2  3  2  0
  2  1  1  0
  3  4  1  0
  4  8  2  0
  4  5  1  0
  5  6  1  0
  7  6  2  0
  8  7  1  0
  9  8  1  0
 10 15  2  0
 11 10  1  0
 11 12  2  0
 12 13  1  0
 13 14  2  0
 14  2  1  0
 15 14  1  0
 16  3  1  0
 18 17  1  0
 18 16  1  0
 19 18  1  0
 20 21  1  0
 20 19  1  0
 21 22  1  0
 22 23  1  0
 22 17  1  0
 23 25  1  0
 24 23  1  0
 24 25  1  0
  1 26  1  0
  5 27  1  0
  6 28  1  0
  9 29  1  0
 10 30  1  0
 11 31  1  0
 12 32  1  0
 17 33  1  0
 18 34  1  6
 19 35  1  0
 19 36  1  0
 21 37  1  0
 21 38  1  0
 22 39  1  6
 23 40  1  0
 24 41  1  0
 24 42  1  0
 25 43  1  0
 25 44  1  0
M  ISO  8  26  14  27   9  28  14  29  14  30  14  31  14  32  14  33   5
M  ISO  8  34  13  35  13  36  13  37  13  38  13  39  13  40  13  41  13
M  ISO  3  42  13  43  13  44  13
M  END
>  <minimizedAffinity>  (1) 
-5.99065018

>  <minimizedRMSD>  (1) 
0.568399072

$$$$
