
     RDKit          3D

 29 31  0  0  0  0  0  0  0  0999 V2000
   45.1470   33.3670   41.1080 F   0  0  0  0  0  0  0  0  0  0  0  0
   46.3260   33.9960   40.9590 C   0  0  0  0  0  0  0  0  0  0  0  0
   46.8320   34.7480   41.9950 C   0  0  0  0  0  0  0  0  0  0  0  0
   48.0360   35.4240   41.9160 C   0  0  0  0  0  0  0  0  0  0  0  0
   48.7890   35.3550   40.7480 C   0  0  0  0  0  0  0  0  0  0  0  0
   48.2430   34.5870   39.7310 C   0  0  0  0  0  0  0  0  0  0  0  0
   47.0520   33.9100   39.7880 C   0  0  0  0  0  0  0  0  0  0  0  0
   45.4830   33.9970   45.3360 C   0  0  0  0  0  0  0  0  0  0  0  0
   44.6550   35.1190   45.5750 C   0  0  0  0  0  0  0  0  0  0  0  0
   44.5670   36.1240   44.5830 C   0  0  0  0  0  0  0  0  0  0  0  0
   45.3020   35.9340   43.4500 N   0  0  0  0  0  0  0  0  0  0  0  0
   46.0770   34.8580   43.2570 C   0  0  0  0  0  0  0  0  0  0  0  0
   46.1620   33.9050   44.1910 N   0  0  0  0  0  0  0  0  0  0  0  0
   45.5700   32.9870   46.3300 N   0  0  0  0  0  0  0  0  0  0  0  0
   46.5390   33.1110   38.6570 C   0  0  0  0  0  0  0  0  0  0  0  0
   47.4190   32.1870   37.9090 C   0  0  0  0  0  0  0  0  0  0  0  0
   46.9290   33.4630   37.2920 C   0  0  0  0  0  0  0  0  0  0  0  0
   48.3964   36.0132   42.7721 H   0  0  0  0  0  0  0  0  0  0  0  0
   49.7524   35.8746   40.6389 H   0  0  0  0  0  0  0  0  0  0  0  0
   48.8163   34.5143   38.7950 H   0  0  0  0  0  0  0  0  0  0  0  0
   44.0901   35.2084   46.5146 H   0  0  0  0  0  0  0  0  0  0  0  0
   43.9365   37.0151   44.7189 H   0  0  0  0  0  0  0  0  0  0  0  0
   46.1672   32.1622   46.1753 H   0  0  0  0  0  0  0  0  0  0  0  0
   45.0359   33.0790   47.2059 H   0  0  0  0  0  0  0  0  0  0  0  0
   45.5840   32.9870   39.1887 H   0  0  0  0  0  0  0  0  0  0  0  0
   48.4766   32.0796   38.1918 H   0  0  0  0  0  0  0  0  0  0  0  0
   47.3883   31.1215   37.6373 H   0  0  0  0  0  0  0  0  0  0  0  0
   47.6286   34.2935   37.1164 H   0  0  0  0  0  0  0  0  0  0  0  0
   46.3879   33.7246   36.3707 H   0  0  0  0  0  0  0  0  0  0  0  0
  2  1  1  0
  2  3  2  0
  3 12  1  0
  4  3  1  0
  5  4  2  0
  6  7  2  0
  6  5  1  0
  7  2  1  0
  8  9  2  0
  8 14  1  0
 10  9  1  0
 11 10  2  0
 12 11  1  0
 12 13  2  0
 13  8  1  0
 15  7  1  0
 16 15  1  0
 17 16  1  0
 17 15  1  0
  4 18  1  0
  5 19  1  0
  6 20  1  0
  9 21  1  0
 10 22  1  0
 14 23  1  0
 14 24  1  0
 15 25  1  0
 16 26  1  0
 16 27  1  0
 17 28  1  0
 17 29  1  0
M  ISO  8  18  14  19  14  20  14  21  14  22  14  25  13  26  13  27  13
M  ISO  2  28  13  29  13
M  END
>  <minimizedAffinity>  (1) 
-5.68580627

>  <minimizedRMSD>  (1) 
0.254477561

$$$$
