
     RDKit          3D

 23 24  0  0  0  0  0  0  0  0999 V2000
   46.7220   34.8710   42.6680 C   0  0  0  0  0  0  0  0  0  0  0  0
   47.1810   33.8330   43.5060 C   0  0  0  0  0  0  0  0  0  0  0  0
   46.4830   33.5790   44.6990 C   0  0  0  0  0  0  0  0  0  0  0  0
   45.4070   34.3440   44.9840 N   0  0  0  0  0  0  0  0  0  0  0  0
   44.9970   35.3310   44.1570 C   0  0  0  0  0  0  0  0  0  0  0  0
   45.6420   35.6000   43.0070 N   0  0  0  0  0  0  0  0  0  0  0  0
   46.9850   32.4790   45.5670 C   0  0  0  0  0  0  0  0  0  0  0  0
   46.9600   32.5830   47.0400 C   0  0  0  0  0  0  0  0  0  0  0  0
   46.0340   31.6180   46.3140 C   0  0  0  0  0  0  0  0  0  0  0  0
   48.2970   33.1280   43.0900 O   0  0  0  0  0  0  0  0  0  0  0  0
   50.8190   33.0200   42.3000 O   0  0  0  0  0  0  0  0  0  0  0  0
   49.6400   33.9260   42.3750 P   0  0  0  0  0  0  0  0  0  0  0  0
   49.2620   34.4330   40.7920 O   0  0  0  0  0  0  0  0  0  0  0  0
   50.0550   35.3030   43.2730 O   0  0  0  0  0  0  0  0  0  0  0  0
   47.2517   35.0869   41.7284 H   0  0  0  0  0  0  0  0  0  0  0  0
   44.1150   35.9288   44.4304 H   0  0  0  0  0  0  0  0  0  0  0  0
   47.7823   32.2951   44.8318 H   0  0  0  0  0  0  0  0  0  0  0  0
   47.8016   32.1983   47.6348 H   0  0  0  0  0  0  0  0  0  0  0  0
   46.8255   33.4003   47.7638 H   0  0  0  0  0  0  0  0  0  0  0  0
   44.9533   31.8176   46.2676 H   0  0  0  0  0  0  0  0  0  0  0  0
   45.8278   30.5388   46.3668 H   0  0  0  0  0  0  0  0  0  0  0  0
   48.6707   35.2260   40.8318 H   0  0  0  0  0  0  0  0  0  0  0  0
   49.9931   35.0977   44.2395 H   0  0  0  0  0  0  0  0  0  0  0  0
  1  6  2  0
  1  2  1  0
  2  3  2  0
  3  4  1  0
  3  7  1  0
  5  4  2  0
  6  5  1  0
  7  9  1  0
  7  8  1  0
  9  8  1  0
 10  2  1  0
 11 12  2  0
 12 10  1  0
 12 14  1  0
 13 12  1  0
  1 15  1  0
  5 16  1  0
  7 17  1  0
  8 18  1  0
  8 19  1  0
  9 20  1  0
  9 21  1  0
 13 22  1  0
 14 23  1  0
M  ISO  8  15  14  16  14  17  13  18  13  19  13  20  13  21  13  22   3
M  ISO  1  23   3
M  END
>  <minimizedAffinity>  (1) 
-4.84402323

>  <minimizedRMSD>  (1) 
1.07844424

$$$$
