
     RDKit          3D

 23 24  0  0  0  0  0  0  0  0999 V2000
   47.8530   34.7800   42.4600 C   0  0  0  0  0  0  0  0  0  0  0  0
   48.0470   33.5800   43.1680 C   0  0  0  0  0  0  0  0  0  0  0  0
   47.0350   33.1840   44.0640 C   0  0  0  0  0  0  0  0  0  0  0  0
   45.9390   33.9770   44.1890 N   0  0  0  0  0  0  0  0  0  0  0  0
   45.7840   35.1200   43.4970 C   0  0  0  0  0  0  0  0  0  0  0  0
   46.7380   35.5180   42.6360 N   0  0  0  0  0  0  0  0  0  0  0  0
   48.9320   35.1900   41.5140 C   0  0  0  0  0  0  0  0  0  0  0  0
   48.5610   35.0090   40.2070 F   0  0  0  0  0  0  0  0  0  0  0  0
   49.2780   36.5130   41.7760 F   0  0  0  0  0  0  0  0  0  0  0  0
   50.0940   34.4530   41.8070 F   0  0  0  0  0  0  0  0  0  0  0  0
   44.5710   35.9560   43.6650 C   0  0  0  0  0  0  0  0  0  0  0  0
   43.6310   35.6690   42.7030 F   0  0  0  0  0  0  0  0  0  0  0  0
   44.9070   37.3180   43.6310 F   0  0  0  0  0  0  0  0  0  0  0  0
   43.9880   35.7650   44.9080 F   0  0  0  0  0  0  0  0  0  0  0  0
   47.2180   31.9390   44.8090 C   0  0  0  0  0  0  0  0  0  0  0  0
   46.1370   31.2310   45.5160 C   0  0  0  0  0  0  0  0  0  0  0  0
   47.0470   32.1370   46.3240 C   0  0  0  0  0  0  0  0  0  0  0  0
   48.9543   32.9742   43.0273 H   0  0  0  0  0  0  0  0  0  0  0  0
   47.9537   31.5603   44.0842 H   0  0  0  0  0  0  0  0  0  0  0  0
   45.0906   31.5233   45.3438 H   0  0  0  0  0  0  0  0  0  0  0  0
   45.8367   30.1759   45.5976 H   0  0  0  0  0  0  0  0  0  0  0  0
   47.7768   31.7088   47.0269 H   0  0  0  0  0  0  0  0  0  0  0  0
   46.9126   32.9945   46.9998 H   0  0  0  0  0  0  0  0  0  0  0  0
  1  6  2  0
  1  2  1  0
  2  3  2  0
  3  4  1  0
  3 15  1  0
  5 11  1  0
  5  4  2  0
  6  5  1  0
  7  9  1  0
  7 10  1  0
  7  1  1  0
  8  7  1  0
 11 14  1  0
 12 11  1  0
 13 11  1  0
 15 16  1  0
 15 17  1  0
 16 17  1  0
  2 18  1  0
 15 19  1  0
 16 20  1  0
 16 21  1  0
 17 22  1  0
 17 23  1  0
M  ISO  6  18  14  19  13  20  13  21  13  22  13  23  13
M  END
>  <minimizedAffinity>  (1) 
-5.30683565

>  <minimizedRMSD>  (1) 
0.885781527

$$$$
