
     RDKit          3D

 37 39  0  0  0  0  0  0  0  0999 V2000
   44.5060   35.7860   44.6960 C   0  0  0  0  0  0  0  0  0  0  0  0
   45.1100   35.7310   43.4270 C   0  0  0  0  0  0  0  0  0  0  0  0
   46.0980   34.7550   43.2480 C   0  0  0  0  0  0  0  0  0  0  0  0
   46.4200   33.9220   44.2950 N   0  0  0  0  0  0  0  0  0  0  0  0
   45.8000   34.0330   45.4850 C   0  0  0  0  0  0  0  0  0  0  0  0
   44.8330   34.9630   45.7140 N   0  0  0  0  0  0  0  0  0  0  0  0
   46.7280   34.6710   41.9760 N   0  0  0  0  0  0  0  0  0  0  0  0
   47.9400   35.2230   41.8220 C   0  0  0  0  0  0  0  0  0  0  0  0
   48.5710   35.1520   40.5920 C   0  0  0  0  0  0  0  0  0  0  0  0
   47.9110   34.5090   39.5720 C   0  0  0  0  0  0  0  0  0  0  0  0
   48.5010   34.4510   38.4440 O   0  0  0  0  0  0  0  0  0  0  0  0
   46.6940   33.9500   39.7070 N   0  0  0  0  0  0  0  0  0  0  0  0
   46.1330   34.0560   40.9360 C   0  0  0  0  0  0  0  0  0  0  0  0
   45.0080   33.5710   41.1680 O   0  0  0  0  0  0  0  0  0  0  0  0
   46.3360   33.0160   46.4360 C   0  0  0  0  0  0  0  0  0  0  0  0
   45.3160   32.6900   47.5070 C   0  0  0  0  0  0  0  0  0  0  0  0
   45.3290   30.3550   48.2550 C   0  0  0  0  0  0  0  0  0  0  0  0
   46.0470   30.7760   49.2040 O   0  0  0  0  0  0  0  0  0  0  0  0
   44.8690   31.3270   47.3440 N   0  0  0  0  0  0  0  0  0  0  0  0
   45.0420   28.9070   48.1910 C   0  0  0  0  0  0  0  0  0  0  0  0
   46.0200   28.0560   47.3560 C   0  0  0  0  0  0  0  0  0  0  0  0
   44.6400   28.2780   46.9110 C   0  0  0  0  0  0  0  0  0  0  0  0
   43.7246   36.5409   44.8679 H   0  0  0  0  0  0  0  0  0  0  0  0
   44.8215   36.4183   42.6180 H   0  0  0  0  0  0  0  0  0  0  0  0
   48.4296   35.7288   42.6672 H   0  0  0  0  0  0  0  0  0  0  0  0
   49.5659   35.5947   40.4363 H   0  0  0  0  0  0  0  0  0  0  0  0
   46.2200   33.4728   38.9270 H   0  0  0  0  0  0  0  0  0  0  0  0
   46.5823   32.0985   45.8815 H   0  0  0  0  0  0  0  0  0  0  0  0
   47.2356   33.4250   46.9191 H   0  0  0  0  0  0  0  0  0  0  0  0
   45.7749   32.8096   48.4995 H   0  0  0  0  0  0  0  0  0  0  0  0
   44.4574   33.3717   47.4166 H   0  0  0  0  0  0  0  0  0  0  0  0
   44.2284   31.0707   46.5792 H   0  0  0  0  0  0  0  0  0  0  0  0
   44.6255   28.9043   49.2091 H   0  0  0  0  0  0  0  0  0  0  0  0
   46.8559   28.5353   46.8254 H   0  0  0  0  0  0  0  0  0  0  0  0
   46.6506   27.1748   47.5449 H   0  0  0  0  0  0  0  0  0  0  0  0
   44.4499   28.9121   46.0325 H   0  0  0  0  0  0  0  0  0  0  0  0
   43.8187   27.6066   46.6198 H   0  0  0  0  0  0  0  0  0  0  0  0
  1  6  2  0
  2  1  1  0
  3  2  2  0
  3  4  1  0
  4  5  2  0
  5  6  1  0
  5 15  1  0
  7  3  1  0
  8  7  1  0
  9  8  2  0
 10 12  1  0
 10  9  1  0
 11 10  2  0
 12 13  1  0
 13 14  2  0
 13  7  1  0
 15 16  1  0
 17 18  2  0
 19 16  1  0
 19 17  1  0
 20 17  1  0
 21 20  1  0
 22 21  1  0
 22 20  1  0
  1 23  1  0
  2 24  1  0
  8 25  1  0
  9 26  1  0
 12 27  1  0
 15 28  1  0
 15 29  1  0
 16 30  1  0
 16 31  1  0
 19 32  1  0
 20 33  1  0
 21 34  1  0
 21 35  1  0
 22 36  1  0
 22 37  1  0
M  ISO  8  23  14  24  14  25  14  26  14  27   9  28   8  29   8  30   8
M  ISO  6  31   8  33  13  34  13  35  13  36  13  37  13
M  END
>  <minimizedAffinity>  (1) 
-6.13906622

>  <minimizedRMSD>  (1) 
0.522595942

$$$$
