
     RDKit          3D

 27 29  0  0  0  0  0  0  0  0999 V2000
   44.5660   35.8790   44.6140 C   0  0  0  0  0  0  0  0  0  0  0  0
   45.2280   35.8570   43.3810 C   0  0  0  0  0  0  0  0  0  0  0  0
   46.1480   34.8350   43.2040 C   0  0  0  0  0  0  0  0  0  0  0  0
   46.3760   33.9090   44.2040 N   0  0  0  0  0  0  0  0  0  0  0  0
   45.6900   33.9860   45.3910 C   0  0  0  0  0  0  0  0  0  0  0  0
   44.7990   34.9620   45.5880 N   0  0  0  0  0  0  0  0  0  0  0  0
   45.9680   32.9560   46.3970 C   0  0  0  0  0  0  0  0  0  0  0  0
   45.2370   33.0160   47.5770 C   0  0  0  0  0  0  0  0  0  0  0  0
   45.4490   32.0570   48.5580 C   0  0  0  0  0  0  0  0  0  0  0  0
   46.3930   31.0730   48.3040 C   0  0  0  0  0  0  0  0  0  0  0  0
   47.0890   31.0690   47.1050 C   0  0  0  0  0  0  0  0  0  0  0  0
   46.8790   32.0110   46.1460 N   0  0  0  0  0  0  0  0  0  0  0  0
   48.3010   29.7770   46.8210 S   0  0  0  0  0  0  0  0  0  0  0  0
   46.8910   34.6900   41.9140 C   0  0  0  0  0  0  0  0  0  0  0  0
   48.2490   35.3950   41.9240 C   0  0  0  0  0  0  0  0  0  0  0  0
   48.0510   33.8440   41.8580 C   0  0  0  0  0  0  0  0  0  0  0  0
   43.8267   36.6716   44.8017 H   0  0  0  0  0  0  0  0  0  0  0  0
   45.0303   36.6054   42.5995 H   0  0  0  0  0  0  0  0  0  0  0  0
   44.4976   33.8155   47.7323 H   0  0  0  0  0  0  0  0  0  0  0  0
   44.8879   32.0767   49.5039 H   0  0  0  0  0  0  0  0  0  0  0  0
   46.5898   30.2942   49.0555 H   0  0  0  0  0  0  0  0  0  0  0  0
   48.7494   29.2990   48.0241 H   0  0  0  0  0  0  0  0  0  0  0  0
   45.9870   34.7135   41.2877 H   0  0  0  0  0  0  0  0  0  0  0  0
   48.5984   35.9554   41.0443 H   0  0  0  0  0  0  0  0  0  0  0  0
   48.7785   36.1115   42.5691 H   0  0  0  0  0  0  0  0  0  0  0  0
   48.3162   33.2214   42.7252 H   0  0  0  0  0  0  0  0  0  0  0  0
   48.3950   33.0509   41.1778 H   0  0  0  0  0  0  0  0  0  0  0  0
  1  6  2  0
  2  1  1  0
  3  2  2  0
  3  4  1  0
  4  5  2  0
  5  6  1  0
  5  7  1  0
  7  8  2  0
  8  9  1  0
 10  9  2  0
 11 10  1  0
 12  7  1  0
 12 11  2  0
 13 11  1  0
 14 15  1  0
 14  3  1  0
 16 14  1  0
 16 15  1  0
  1 17  1  0
  2 18  1  0
  8 19  1  0
  9 20  1  0
 10 21  1  0
 13 22  1  0
 14 23  1  0
 15 24  1  0
 15 25  1  0
 16 26  1  0
 16 27  1  0
M  ISO  8  17  14  18  14  19  14  20  14  21  14  22  11  23  13  24  13
M  ISO  3  25  13  26  13  27  13
M  END
>  <minimizedAffinity>  (1) 
-5.38986111

>  <minimizedRMSD>  (1) 
0.247489244

$$$$
