
     RDKit          3D

 17 17  0  0  0  0  0  0  0  0999 V2000
   45.4070   35.9460   43.0760 C   0  0  0  0  0  0  0  0  0  0  0  0
   46.2390   34.8290   42.9960 C   0  0  0  0  0  0  0  0  0  0  0  0
   46.2500   33.9630   44.0900 C   0  0  0  0  0  0  0  0  0  0  0  0
   45.4710   34.2370   45.1540 N   0  0  0  0  0  0  0  0  0  0  0  0
   44.6710   35.3330   45.2050 C   0  0  0  0  0  0  0  0  0  0  0  0
   44.6410   36.1890   44.1610 N   0  0  0  0  0  0  0  0  0  0  0  0
   47.0270   34.6350   41.8040 C   0  0  0  0  0  0  0  0  0  0  0  0
   48.2890   35.4840   41.9180 C   0  0  0  0  0  0  0  0  0  0  0  0
   49.6980   34.4880   42.4660 S   0  0  0  0  0  0  0  0  0  0  0  0
   45.3741   36.6491   42.2307 H   0  0  0  0  0  0  0  0  0  0  0  0
   46.8876   33.0667   44.0835 H   0  0  0  0  0  0  0  0  0  0  0  0
   44.0500   35.5228   46.0929 H   0  0  0  0  0  0  0  0  0  0  0  0
   46.4485   34.9458   40.9215 H   0  0  0  0  0  0  0  0  0  0  0  0
   47.2940   33.5734   41.6960 H   0  0  0  0  0  0  0  0  0  0  0  0
   48.5184   35.9203   40.9346 H   0  0  0  0  0  0  0  0  0  0  0  0
   48.1112   36.2758   42.6606 H   0  0  0  0  0  0  0  0  0  0  0  0
   49.7341   34.4624   43.8353 H   0  0  0  0  0  0  0  0  0  0  0  0
  1  6  2  0
  2  1  1  0
  2  3  2  0
  3  4  1  0
  4  5  2  0
  6  5  1  0
  7  8  1  0
  7  2  1  0
  8  9  1  0
  1 10  1  0
  3 11  1  0
  5 12  1  0
  7 13  1  0
  7 14  1  0
  8 15  1  0
  8 16  1  0
  9 17  1  0
M  ISO  8  10  14  11  14  12  14  13   8  14   8  15   8  16   8  17  11
M  END
>  <minimizedAffinity>  (1) 
-3.34449959

>  <minimizedRMSD>  (1) 
1.45090997

$$$$
