
     RDKit          3D

 21 22  0  0  0  0  0  0  0  0999 V2000
   45.0220   36.0920   43.4840 Cl  0  0  0  0  0  0  0  0  0  0  0  0
   45.6700   34.7080   44.3080 C   0  0  0  0  0  0  0  0  0  0  0  0
   46.6360   33.9540   43.7200 C   0  0  0  0  0  0  0  0  0  0  0  0
   47.0830   32.8720   44.4640 C   0  0  0  0  0  0  0  0  0  0  0  0
   46.6300   32.5170   45.7170 C   0  0  0  0  0  0  0  0  0  0  0  0
   45.6410   33.3230   46.2710 C   0  0  0  0  0  0  0  0  0  0  0  0
   45.0800   32.8540   47.8660 Cl  0  0  0  0  0  0  0  0  0  0  0  0
   45.1670   34.4060   45.5760 C   0  0  0  0  0  0  0  0  0  0  0  0
   48.7750   35.4010   41.1410 C   0  0  0  0  0  0  0  0  0  0  0  0
   48.2490   34.8460   39.9540 C   0  0  0  0  0  0  0  0  0  0  0  0
   47.1540   33.9730   40.0540 C   0  0  0  0  0  0  0  0  0  0  0  0
   46.6650   33.7130   41.2940 N   0  0  0  0  0  0  0  0  0  0  0  0
   47.1760   34.2470   42.4050 C   0  0  0  0  0  0  0  0  0  0  0  0
   48.2400   35.0990   42.3360 N   0  0  0  0  0  0  0  0  0  0  0  0
   47.2830   31.0970   46.5790 S   0  0  0  0  0  0  0  0  0  0  0  0
   47.8663   32.2430   44.0158 H   0  0  0  0  0  0  0  0  0  0  0  0
   44.3859   35.0409   46.0196 H   0  0  0  0  0  0  0  0  0  0  0  0
   49.6322   36.0882   41.0868 H   0  0  0  0  0  0  0  0  0  0  0  0
   48.6864   35.0916   38.9750 H   0  0  0  0  0  0  0  0  0  0  0  0
   46.7076   33.5154   39.1589 H   0  0  0  0  0  0  0  0  0  0  0  0
   47.1894   31.3004   47.9306 H   0  0  0  0  0  0  0  0  0  0  0  0
  1  2  1  0
  2  8  2  0
  3  2  1  0
  3  4  2  0
  4  5  1  0
  5  6  2  0
  5 15  1  0
  6  7  1  0
  8  6  1  0
  9 14  2  0
 10 11  2  0
 10  9  1  0
 11 12  1  0
 12 13  2  0
 13  3  1  0
 14 13  1  0
  4 16  1  0
  8 17  1  0
  9 18  1  0
 10 19  1  0
 11 20  1  0
 15 21  1  0
M  ISO  6  16  14  17  14  18  14  19  14  20  14  21  11
M  END
>  <minimizedAffinity>  (1) 
-4.88605165

>  <minimizedRMSD>  (1) 
0.162960827

$$$$
