
     RDKit          3D

 24 25  0  0  1  0  0  0  0  0999 V2000
   46.9910   34.8070   41.9890 C   0  0  2  0  0  0  0  0  0  0  0  0
   46.3200   34.2030   40.8020 C   0  0  0  0  0  0  0  0  0  0  0  0
   47.5260   34.0140   39.8820 C   0  0  0  0  0  0  0  0  0  0  0  0
   48.6900   33.7700   40.7990 C   0  0  1  0  0  0  0  0  0  0  0  0
   48.1280   33.8080   42.2150 C   0  0  0  0  0  0  0  0  0  0  0  0
   44.5060   36.0160   44.5460 C   0  0  0  0  0  0  0  0  0  0  0  0
   45.2330   35.9930   43.3610 C   0  0  0  0  0  0  0  0  0  0  0  0
   46.1530   34.9650   43.1870 C   0  0  0  0  0  0  0  0  0  0  0  0
   46.2840   34.0410   44.1910 N   0  0  0  0  0  0  0  0  0  0  0  0
   45.5640   34.0900   45.3280 C   0  0  0  0  0  0  0  0  0  0  0  0
   44.6780   35.0680   45.5120 N   0  0  0  0  0  0  0  0  0  0  0  0
   49.3550   32.1160   40.5160 S   0  0  0  0  0  0  0  0  0  0  0  0
   47.2944   35.8485   41.8066 H   0  0  0  0  0  0  0  0  0  0  0  0
   45.8404   33.2442   41.0483 H   0  0  0  0  0  0  0  0  0  0  0  0
   45.5027   34.8039   40.3765 H   0  0  0  0  0  0  0  0  0  0  0  0
   47.6946   34.9173   39.2774 H   0  0  0  0  0  0  0  0  0  0  0  0
   47.3778   33.1824   39.1774 H   0  0  0  0  0  0  0  0  0  0  0  0
   49.4824   34.5149   40.6337 H   0  0  0  0  0  0  0  0  0  0  0  0
   48.8652   34.1786   42.9424 H   0  0  0  0  0  0  0  0  0  0  0  0
   47.8296   32.8356   42.6338 H   0  0  0  0  0  0  0  0  0  0  0  0
   43.7729   36.8197   44.7089 H   0  0  0  0  0  0  0  0  0  0  0  0
   45.0854   36.7615   42.5879 H   0  0  0  0  0  0  0  0  0  0  0  0
   45.7072   33.3235   46.1039 H   0  0  0  0  0  0  0  0  0  0  0  0
   49.5988   31.5096   41.7201 H   0  0  0  0  0  0  0  0  0  0  0  0
  1  5  1  0
  1  8  1  0
  2  1  1  0
  3  4  1  0
  3  2  1  0
  4  5  1  0
  6 11  2  0
  7  6  1  0
  8  7  2  0
  8  9  1  0
  9 10  2  0
 10 11  1  0
 12  4  1  0
  1 13  1  6
  2 14  1  0
  2 15  1  0
  3 16  1  0
  3 17  1  0
  4 18  1  1
  5 19  1  0
  5 20  1  0
  6 21  1  0
  7 22  1  0
 10 23  1  0
 12 24  1  0
M  ISO  8  13  13  14  13  15  13  16  13  17  13  18  13  19  13  20  13
M  ISO  4  21  14  22  14  23  14  24  11
M  END
>  <minimizedAffinity>  (1) 
-4.25660372

>  <minimizedRMSD>  (1) 
1.07169557

$$$$
