
     RDKit          3D

 40 42  0  0  1  0  0  0  0  0999 V2000
   47.3170   33.6470   42.8390 C   0  0  0  0  0  0  0  0  0  0  0  0
   48.4220   33.4370   43.4250 O   0  0  0  0  0  0  0  0  0  0  0  0
   47.0160   33.1340   41.5490 N   0  0  0  0  0  0  0  0  0  0  0  0
   45.7910   32.4980   41.0430 C   0  0  0  0  0  0  0  0  0  0  0  0
   45.3410   33.1730   39.7680 C   0  0  0  0  0  0  0  0  0  0  0  0
   46.3860   33.0120   38.6940 C   0  0  0  0  0  0  0  0  0  0  0  0
   47.6650   32.4690   39.3060 C   0  0  0  0  0  0  0  0  0  0  0  0
   48.0310   33.2190   40.5360 C   0  0  2  0  0  0  0  0  0  0  0  0
   45.9570   35.6750   42.9310 C   0  0  0  0  0  0  0  0  0  0  0  0
   46.3290   34.4440   43.5170 C   0  0  0  0  0  0  0  0  0  0  0  0
   45.7450   34.0410   44.7080 C   0  0  0  0  0  0  0  0  0  0  0  0
   44.8280   34.8490   45.2740 N   0  0  0  0  0  0  0  0  0  0  0  0
   44.4570   36.0430   44.7200 C   0  0  0  0  0  0  0  0  0  0  0  0
   45.0320   36.4290   43.5580 N   0  0  0  0  0  0  0  0  0  0  0  0
   46.1520   32.7690   45.2810 C   0  0  0  0  0  0  0  0  0  0  0  0
   45.7750   31.6010   44.7030 C   0  0  0  0  0  0  0  0  0  0  0  0
   46.1840   30.4130   45.2800 C   0  0  0  0  0  0  0  0  0  0  0  0
   46.9630   30.3590   46.4280 C   0  0  0  0  0  0  0  0  0  0  0  0
   47.3190   31.5870   46.9780 C   0  0  0  0  0  0  0  0  0  0  0  0
   46.9070   32.7130   46.3940 N   0  0  0  0  0  0  0  0  0  0  0  0
   49.4020   32.8230   41.0080 C   0  0  0  0  0  0  0  0  0  0  0  0
   49.7130   31.0560   40.8550 S   0  0  0  0  0  0  0  0  0  0  0  0
   45.9902   31.4353   40.8407 H   0  0  0  0  0  0  0  0  0  0  0  0
   44.9980   32.5941   41.7992 H   0  0  0  0  0  0  0  0  0  0  0  0
   44.3990   32.7172   39.4290 H   0  0  0  0  0  0  0  0  0  0  0  0
   45.1917   34.2450   39.9641 H   0  0  0  0  0  0  0  0  0  0  0  0
   46.5879   33.9888   38.2302 H   0  0  0  0  0  0  0  0  0  0  0  0
   46.0198   32.3105   37.9299 H   0  0  0  0  0  0  0  0  0  0  0  0
   47.5190   31.4092   39.5617 H   0  0  0  0  0  0  0  0  0  0  0  0
   48.4778   32.5819   38.5735 H   0  0  0  0  0  0  0  0  0  0  0  0
   48.0836   34.2894   40.2880 H   0  0  0  0  0  0  0  0  0  0  0  0
   46.4110   36.0096   41.9866 H   0  0  0  0  0  0  0  0  0  0  0  0
   43.7046   36.6781   45.2105 H   0  0  0  0  0  0  0  0  0  0  0  0
   45.1563   31.5992   43.7935 H   0  0  0  0  0  0  0  0  0  0  0  0
   45.8783   29.4676   44.8081 H   0  0  0  0  0  0  0  0  0  0  0  0
   47.2792   29.4050   46.8751 H   0  0  0  0  0  0  0  0  0  0  0  0
   47.9358   31.6285   47.8879 H   0  0  0  0  0  0  0  0  0  0  0  0
   50.1492   33.3640   40.4089 H   0  0  0  0  0  0  0  0  0  0  0  0
   49.4700   33.0787   42.0757 H   0  0  0  0  0  0  0  0  0  0  0  0
   49.8109   30.4998   42.1032 H   0  0  0  0  0  0  0  0  0  0  0  0
  1  2  2  0
  1 10  1  0
  3  1  1  0
  4  3  1  0
  5  4  1  0
  6  7  1  0
  6  5  1  0
  7  8  1  0
  8 21  1  0
  8  3  1  0
  9 10  2  0
  9 14  1  0
 10 11  1  0
 11 12  2  0
 11 15  1  0
 13 12  1  0
 14 13  2  0
 15 20  2  0
 16 17  2  0
 16 15  1  0
 17 18  1  0
 18 19  2  0
 20 19  1  0
 22 21  1  0
  4 23  1  0
  4 24  1  0
  5 25  1  0
  5 26  1  0
  6 27  1  0
  6 28  1  0
  7 29  1  0
  7 30  1  0
  8 31  1  6
  9 32  1  0
 13 33  1  0
 16 34  1  0
 17 35  1  0
 18 36  1  0
 19 37  1  0
 21 38  1  0
 21 39  1  0
 22 40  1  0
M  ISO  8  23  13  24  13  25  13  26  13  27  13  28  13  29  13  30  13
M  ISO  8  31  13  32  14  33  14  34  14  35  14  36  14  37  14  38   8
M  ISO  2  39   8  40  11
M  END
>  <minimizedAffinity>  (1) 
-4.77265024

>  <minimizedRMSD>  (1) 
0.175498575

$$$$
