
     RDKit          3D

 24 25  0  0  0  0  0  0  0  0999 V2000
   46.2670   34.2770   41.3130 C   0  0  0  0  0  0  0  0  0  0  0  0
   47.5440   34.7000   41.0190 C   0  0  0  0  0  0  0  0  0  0  0  0
   48.0960   34.3940   39.7930 C   0  0  0  0  0  0  0  0  0  0  0  0
   47.3410   33.6660   38.8940 C   0  0  0  0  0  0  0  0  0  0  0  0
   46.0730   33.2290   39.1460 C   0  0  0  0  0  0  0  0  0  0  0  0
   45.5660   33.5690   40.4070 C   0  0  0  0  0  0  0  0  0  0  0  0
   44.6400   36.0740   44.2150 C   0  0  0  0  0  0  0  0  0  0  0  0
   45.0830   35.8350   42.9050 C   0  0  0  0  0  0  0  0  0  0  0  0
   45.7570   34.6390   42.6350 C   0  0  0  0  0  0  0  0  0  0  0  0
   45.9300   33.8050   43.6610 N   0  0  0  0  0  0  0  0  0  0  0  0
   45.5020   34.0370   44.9230 C   0  0  0  0  0  0  0  0  0  0  0  0
   44.8550   35.1770   45.1980 N   0  0  0  0  0  0  0  0  0  0  0  0
   48.3390   35.4820   42.0070 C   0  0  0  0  0  0  0  0  0  0  0  0
   49.8580   34.6270   42.5080 S   0  0  0  0  0  0  0  0  0  0  0  0
   49.1142   34.7221   39.5367 H   0  0  0  0  0  0  0  0  0  0  0  0
   47.7878   33.4245   37.9183 H   0  0  0  0  0  0  0  0  0  0  0  0
   45.4912   32.6517   38.4123 H   0  0  0  0  0  0  0  0  0  0  0  0
   44.5487   33.2427   40.6690 H   0  0  0  0  0  0  0  0  0  0  0  0
   44.1082   37.0094   44.4436 H   0  0  0  0  0  0  0  0  0  0  0  0
   44.9043   36.5718   42.1080 H   0  0  0  0  0  0  0  0  0  0  0  0
   45.6836   33.2965   45.7159 H   0  0  0  0  0  0  0  0  0  0  0  0
   48.6102   36.4481   41.5562 H   0  0  0  0  0  0  0  0  0  0  0  0
   47.7183   35.6151   42.9054 H   0  0  0  0  0  0  0  0  0  0  0  0
   49.9295   34.5867   43.8755 H   0  0  0  0  0  0  0  0  0  0  0  0
  1  9  1  0
  2  1  2  0
  2 13  1  0
  3  2  1  0
  4  5  1  0
  4  3  2  0
  5  6  2  0
  6  1  1  0
  7 12  2  0
  8  7  1  0
  9  8  2  0
  9 10  1  0
 10 11  2  0
 11 12  1  0
 13 14  1  0
  3 15  1  0
  4 16  1  0
  5 17  1  0
  6 18  1  0
  7 19  1  0
  8 20  1  0
 11 21  1  0
 13 22  1  0
 13 23  1  0
 14 24  1  0
M  ISO  8  15  14  16  14  17  14  18  14  19  14  20  14  21  14  22   8
M  ISO  2  23   8  24  11
M  END
>  <minimizedAffinity>  (1) 
-4.68601322

>  <minimizedRMSD>  (1) 
0.978639603

$$$$
