
     RDKit          3D

 27 28  0  0  0  0  0  0  0  0999 V2000
   44.5110   35.8640   44.8630 C   0  0  0  0  0  0  0  0  0  0  0  0
   45.1360   35.8030   43.5900 C   0  0  0  0  0  0  0  0  0  0  0  0
   46.0120   34.7350   43.3740 C   0  0  0  0  0  0  0  0  0  0  0  0
   46.2240   33.8150   44.3770 N   0  0  0  0  0  0  0  0  0  0  0  0
   45.6040   33.9250   45.5620 C   0  0  0  0  0  0  0  0  0  0  0  0
   44.7430   34.9410   45.8270 N   0  0  0  0  0  0  0  0  0  0  0  0
   46.6490   34.6540   42.1080 N   0  0  0  0  0  0  0  0  0  0  0  0
   47.8810   35.1560   41.9710 C   0  0  0  0  0  0  0  0  0  0  0  0
   48.5110   35.0810   40.7410 C   0  0  0  0  0  0  0  0  0  0  0  0
   47.8360   34.4900   39.7120 C   0  0  0  0  0  0  0  0  0  0  0  0
   48.4190   34.4200   38.5720 O   0  0  0  0  0  0  0  0  0  0  0  0
   46.5930   33.9740   39.8180 N   0  0  0  0  0  0  0  0  0  0  0  0
   46.0390   34.0800   41.0380 C   0  0  0  0  0  0  0  0  0  0  0  0
   44.8860   33.6350   41.2570 O   0  0  0  0  0  0  0  0  0  0  0  0
   45.9890   32.8270   46.4680 C   0  0  0  0  0  0  0  0  0  0  0  0
   45.1880   32.8600   47.7670 C   0  0  0  0  0  0  0  0  0  0  0  0
   45.2490   31.3040   48.6650 S   0  0  0  0  0  0  0  0  0  0  0  0
   43.8145   36.6889   45.0739 H   0  0  0  0  0  0  0  0  0  0  0  0
   44.9411   36.5572   42.8134 H   0  0  0  0  0  0  0  0  0  0  0  0
   48.3886   35.6239   42.8274 H   0  0  0  0  0  0  0  0  0  0  0  0
   49.5240   35.4850   40.5970 H   0  0  0  0  0  0  0  0  0  0  0  0
   46.1064   33.5328   39.0246 H   0  0  0  0  0  0  0  0  0  0  0  0
   45.8082   31.8672   45.9619 H   0  0  0  0  0  0  0  0  0  0  0  0
   47.0535   32.9461   46.7183 H   0  0  0  0  0  0  0  0  0  0  0  0
   45.5957   33.6532   48.4109 H   0  0  0  0  0  0  0  0  0  0  0  0
   44.1369   33.0479   47.5024 H   0  0  0  0  0  0  0  0  0  0  0  0
   45.2392   31.5535   50.0121 H   0  0  0  0  0  0  0  0  0  0  0  0
  1  6  2  0
  2  1  1  0
  3  2  2  0
  3  4  1  0
  4  5  2  0
  5  6  1  0
  5 15  1  0
  7  3  1  0
  8  7  1  0
  9  8  2  0
 10 12  1  0
 10  9  1  0
 11 10  2  0
 12 13  1  0
 13 14  2  0
 13  7  1  0
 15 16  1  0
 16 17  1  0
  1 18  1  0
  2 19  1  0
  8 20  1  0
  9 21  1  0
 12 22  1  0
 15 23  1  0
 15 24  1  0
 16 25  1  0
 16 26  1  0
 17 27  1  0
M  ISO  8  18  14  19  14  20  14  21  14  22   9  23   8  24   8  25   8
M  ISO  2  26   8  27  11
M  END
>  <minimizedAffinity>  (1) 
-5.46357679

>  <minimizedRMSD>  (1) 
0.613200843

$$$$
