
     RDKit          3D

 17 17  0  0  0  0  0  0  0  0999 V2000
   46.2530   33.5710   44.5260 C   0  0  0  0  0  0  0  0  0  0  0  0
   46.5170   34.3090   43.3490 C   0  0  0  0  0  0  0  0  0  0  0  0
   47.5270   33.8180   42.5160 C   0  0  0  0  0  0  0  0  0  0  0  0
   48.1910   32.6850   42.8670 N   0  0  0  0  0  0  0  0  0  0  0  0
   47.8980   32.0190   44.0050 C   0  0  0  0  0  0  0  0  0  0  0  0
   46.9400   32.4550   44.8270 N   0  0  0  0  0  0  0  0  0  0  0  0
   47.7830   34.6020   41.2970 C   0  0  0  0  0  0  0  0  0  0  0  0
   48.8390   34.0250   40.6190 F   0  0  0  0  0  0  0  0  0  0  0  0
   48.2480   35.8450   41.7360 F   0  0  0  0  0  0  0  0  0  0  0  0
   46.7220   34.7040   40.4800 F   0  0  0  0  0  0  0  0  0  0  0  0
   45.7560   35.5380   43.0120 C   0  0  0  0  0  0  0  0  0  0  0  0
   44.5850   35.8590   44.3680 S   0  0  0  0  0  0  0  0  0  0  0  0
   45.4664   33.9184   45.2121 H   0  0  0  0  0  0  0  0  0  0  0  0
   48.4559   31.1054   44.2581 H   0  0  0  0  0  0  0  0  0  0  0  0
   46.4463   36.3877   42.9051 H   0  0  0  0  0  0  0  0  0  0  0  0
   45.2166   35.4068   42.0624 H   0  0  0  0  0  0  0  0  0  0  0  0
   45.2192   35.6851   45.5698 H   0  0  0  0  0  0  0  0  0  0  0  0
  1  6  2  0
  2  1  1  0
  3  4  1  0
  3  2  2  0
  4  5  2  0
  5  6  1  0
  7  9  1  0
  7  3  1  0
  8  7  1  0
 10  7  1  0
 11  2  1  0
 11 12  1  0
  1 13  1  0
  5 14  1  0
 11 15  1  0
 11 16  1  0
 12 17  1  0
M  ISO  5  13  14  14  14  15   8  16   8  17  11
M  END
>  <minimizedAffinity>  (1) 
-3.43102574

>  <minimizedRMSD>  (1) 
1.66673732

$$$$
