
     RDKit          3D

 37 39  0  0  1  0  0  0  0  0999 V2000
   46.0400   35.9140   42.8420 C   0  0  0  0  0  0  0  0  0  0  0  0
   46.6280   34.6850   43.2270 C   0  0  0  0  0  0  0  0  0  0  0  0
   46.0390   34.0760   44.3040 C   0  0  0  0  0  0  0  0  0  0  0  0
   44.9740   34.6040   44.9580 N   0  0  0  0  0  0  0  0  0  0  0  0
   44.4440   35.7950   44.5460 C   0  0  0  0  0  0  0  0  0  0  0  0
   44.9920   36.4360   43.4840 N   0  0  0  0  0  0  0  0  0  0  0  0
   46.5280   32.8550   44.7540 C   0  0  0  0  0  0  0  0  0  0  0  0
   46.8720   31.6880   44.1710 C   0  0  0  0  0  0  0  0  0  0  0  0
   47.3090   30.6080   44.7880 C   0  0  0  0  0  0  0  0  0  0  0  0
   47.4140   30.7150   46.1450 C   0  0  0  0  0  0  0  0  0  0  0  0
   46.8500   32.4380   46.4420 S   0  0  0  0  0  0  0  0  0  0  0  0
   47.7310   34.1920   42.4920 C   0  0  0  0  0  0  0  0  0  0  0  0
   48.8640   34.4370   43.1070 O   0  0  0  0  0  0  0  0  0  0  0  0
   47.6530   33.4780   41.1470 C   0  0  0  0  0  0  0  0  0  0  0  0
   48.0750   34.4230   40.0460 C   0  0  0  0  0  0  0  0  0  0  0  0
   47.8230   33.9080   38.6910 C   0  0  0  0  0  0  0  0  0  0  0  0
   46.5770   33.1510   38.4400 C   0  0  0  0  0  0  0  0  0  0  0  0
   46.1370   32.3170   39.6370 C   0  0  0  0  0  0  0  0  0  0  0  0
   46.1600   33.2810   40.7880 C   0  0  0  0  0  0  0  0  0  0  0  0
   46.4613   36.4580   41.9838 H   0  0  0  0  0  0  0  0  0  0  0  0
   43.5807   36.2295   45.0713 H   0  0  0  0  0  0  0  0  0  0  0  0
   46.7790   31.6323   43.0764 H   0  0  0  0  0  0  0  0  0  0  0  0
   47.5705   29.6861   44.2478 H   0  0  0  0  0  0  0  0  0  0  0  0
   47.7501   29.9626   46.8736 H   0  0  0  0  0  0  0  0  0  0  0  0
   47.6526   33.2300   43.0196 H   0  0  0  0  0  0  0  0  0  0  0  0
   48.7214   34.4062   44.0862 H   0  0  0  0  0  0  0  0  0  0  0  0
   48.2550   32.5603   41.2215 H   0  0  0  0  0  0  0  0  0  0  0  0
   47.5211   35.3656   40.1671 H   0  0  0  0  0  0  0  0  0  0  0  0
   49.1626   34.5581   40.1398 H   0  0  0  0  0  0  0  0  0  0  0  0
   47.8191   34.7728   38.0113 H   0  0  0  0  0  0  0  0  0  0  0  0
   48.6218   33.1684   38.5331 H   0  0  0  0  0  0  0  0  0  0  0  0
   45.7761   33.8646   38.1963 H   0  0  0  0  0  0  0  0  0  0  0  0
   46.7746   32.4571   37.6097 H   0  0  0  0  0  0  0  0  0  0  0  0
   45.1236   31.9180   39.4828 H   0  0  0  0  0  0  0  0  0  0  0  0
   46.7874   31.4459   39.8047 H   0  0  0  0  0  0  0  0  0  0  0  0
   45.7077   34.2394   40.4934 H   0  0  0  0  0  0  0  0  0  0  0  0
   45.5855   32.9001   41.6452 H   0  0  0  0  0  0  0  0  0  0  0  0
  1  2  2  0
  1  6  1  0
  2  3  1  0
  3  7  1  0
  3  4  2  0
  5  4  1  0
  6  5  2  0
  7 11  1  0
  8  7  2  0
  8  9  1  0
  9 10  2  0
 10 11  1  0
 12 13  1  0
 12  2  1  0
 14 12  1  0
 15 14  1  0
 16 15  1  0
 17 16  1  0
 17 18  1  0
 18 19  1  0
 19 14  1  0
  1 20  1  0
  5 21  1  0
  8 22  1  0
  9 23  1  0
 10 24  1  0
 12 25  1  0
 13 26  1  0
 14 27  1  0
 15 28  1  0
 15 29  1  0
 16 30  1  0
 16 31  1  0
 17 32  1  0
 17 33  1  0
 18 34  1  0
 18 35  1  0
 19 36  1  0
 19 37  1  0
M  ISO  8  20  14  21  14  22  14  23  14  24  14  25   8  26   3  27  13
M  ISO  8  28  13  29  13  30  13  31  13  32  13  33  13  34  13  35  13
M  ISO  2  36  13  37  13
M  END
>  <minimizedAffinity>  (1) 
-4.65594482

>  <minimizedRMSD>  (1) 
1.52505887

$$$$
