
     RDKit          3D

 38 40  0  0  0  0  0  0  0  0999 V2000
   46.5240   34.1020   41.0030 C   0  0  0  0  0  0  0  0  0  0  0  0
   46.9800   34.8670   42.0630 C   0  0  0  0  0  0  0  0  0  0  0  0
   48.1590   35.5380   41.8870 C   0  0  0  0  0  0  0  0  0  0  0  0
   48.8720   35.4600   40.7010 C   0  0  0  0  0  0  0  0  0  0  0  0
   48.4090   34.7020   39.6670 C   0  0  0  0  0  0  0  0  0  0  0  0
   47.2160   34.0040   39.8010 C   0  0  0  0  0  0  0  0  0  0  0  0
   44.5130   35.9220   44.7170 C   0  0  0  0  0  0  0  0  0  0  0  0
   45.2720   35.9040   43.5410 C   0  0  0  0  0  0  0  0  0  0  0  0
   46.1930   34.9040   43.2640 C   0  0  0  0  0  0  0  0  0  0  0  0
   46.2910   33.9520   44.2320 N   0  0  0  0  0  0  0  0  0  0  0  0
   45.5700   33.9540   45.3700 C   0  0  0  0  0  0  0  0  0  0  0  0
   44.6880   34.9330   45.6080 N   0  0  0  0  0  0  0  0  0  0  0  0
   45.3220   33.4010   41.1440 O   0  0  0  0  0  0  0  0  0  0  0  0
   46.6710   33.2130   38.8110 O   0  0  0  0  0  0  0  0  0  0  0  0
   46.8040   33.3640   37.4480 C   0  0  0  0  0  0  0  0  0  0  0  0
   45.4180   33.2480   36.8340 C   0  0  0  0  0  0  0  0  0  0  0  0
   45.2790   32.0710   35.9200 C   0  0  0  0  0  0  0  0  0  0  0  0
   46.3710   31.9830   34.8940 C   0  0  0  0  0  0  0  0  0  0  0  0
   47.7430   32.2050   35.4510 C   0  0  0  0  0  0  0  0  0  0  0  0
   47.6660   32.2190   36.9470 C   0  0  0  0  0  0  0  0  0  0  0  0
   48.5515   36.1557   42.7082 H   0  0  0  0  0  0  0  0  0  0  0  0
   49.8168   36.0129   40.5935 H   0  0  0  0  0  0  0  0  0  0  0  0
   48.9793   34.6433   38.7282 H   0  0  0  0  0  0  0  0  0  0  0  0
   43.7894   36.7284   44.9069 H   0  0  0  0  0  0  0  0  0  0  0  0
   45.1330   36.7131   42.8089 H   0  0  0  0  0  0  0  0  0  0  0  0
   45.7064   33.1484   46.1065 H   0  0  0  0  0  0  0  0  0  0  0  0
   44.9804   32.8489   40.3967 H   0  0  0  0  0  0  0  0  0  0  0  0
   47.2571   34.3313   37.1852 H   0  0  0  0  0  0  0  0  0  0  0  0
   44.6822   33.1500   37.6458 H   0  0  0  0  0  0  0  0  0  0  0  0
   45.2482   34.1531   36.2324 H   0  0  0  0  0  0  0  0  0  0  0  0
   45.2957   31.1538   36.5270 H   0  0  0  0  0  0  0  0  0  0  0  0
   44.3304   32.1914   35.3762 H   0  0  0  0  0  0  0  0  0  0  0  0
   46.1831   32.7433   34.1215 H   0  0  0  0  0  0  0  0  0  0  0  0
   46.3505   30.9596   34.4913 H   0  0  0  0  0  0  0  0  0  0  0  0
   48.4096   31.3935   35.1237 H   0  0  0  0  0  0  0  0  0  0  0  0
   48.1394   33.1657   35.0904 H   0  0  0  0  0  0  0  0  0  0  0  0
   47.2334   31.2682   37.2918 H   0  0  0  0  0  0  0  0  0  0  0  0
   48.6831   32.3526   37.3442 H   0  0  0  0  0  0  0  0  0  0  0  0
  1 13  1  0
  1  2  2  0
  2  9  1  0
  3  2  1  0
  4  3  2  0
  5  6  2  0
  5  4  1  0
  6  1  1  0
  7 12  2  0
  8  7  1  0
  9  8  2  0
  9 10  1  0
 10 11  2  0
 11 12  1  0
 14  6  1  0
 15 14  1  0
 16 15  1  0
 17 16  1  0
 18 19  1  0
 18 17  1  0
 19 20  1  0
 20 15  1  0
  3 21  1  0
  4 22  1  0
  5 23  1  0
  7 24  1  0
  8 25  1  0
 11 26  1  0
 13 27  1  0
 15 28  1  0
 16 29  1  0
 16 30  1  0
 17 31  1  0
 17 32  1  0
 18 33  1  0
 18 34  1  0
 19 35  1  0
 19 36  1  0
 20 37  1  0
 20 38  1  0
M  ISO  8  21  14  22  14  23  14  24  14  25  14  26  14  27   3  28  13
M  ISO  8  29  13  30  13  31  13  32  13  33  13  34  13  35  13  36  13
M  ISO  2  37  13  38  13
M  END
>  <minimizedAffinity>  (1) 
-5.65222263

>  <minimizedRMSD>  (1) 
0.741902053

$$$$
