
     RDKit          3D

 37 39  0  0  1  0  0  0  0  0999 V2000
   48.3240   33.0170   41.7000 O   0  0  0  0  0  0  0  0  0  0  0  0
   47.3620   34.0850   41.2340 P   0  0  2  0  0  0  0  0  0  0  0  0
   45.7930   33.7670   41.8770 O   0  0  0  0  0  0  0  0  0  0  0  0
   44.4130   35.8610   44.4780 C   0  0  0  0  0  0  0  0  0  0  0  0
   44.7680   35.3870   43.1990 C   0  0  0  0  0  0  0  0  0  0  0  0
   45.4700   34.1820   43.1260 C   0  0  0  0  0  0  0  0  0  0  0  0
   45.7800   33.5190   44.2590 N   0  0  0  0  0  0  0  0  0  0  0  0
   45.4270   33.9970   45.4740 C   0  0  0  0  0  0  0  0  0  0  0  0
   44.7490   35.1590   45.5920 N   0  0  0  0  0  0  0  0  0  0  0  0
   47.1400   34.0920   39.5910 O   0  0  0  0  0  0  0  0  0  0  0  0
   47.9140   33.6620   38.5870 C   0  0  0  0  0  0  0  0  0  0  0  0
   48.0140   34.4910   37.6090 O   0  0  0  0  0  0  0  0  0  0  0  0
   48.7500   33.0520   37.6420 C   0  0  0  0  0  0  0  0  0  0  0  0
   48.0310   32.5570   36.4070 C   0  0  0  0  0  0  0  0  0  0  0  0
   47.4580   31.1720   36.6100 C   0  0  0  0  0  0  0  0  0  0  0  0
   48.6430   30.2380   36.5310 C   0  0  0  0  0  0  0  0  0  0  0  0
   49.7210   30.6970   37.4160 C   0  0  0  0  0  0  0  0  0  0  0  0
   49.5870   31.8830   38.2350 C   0  0  0  0  0  0  0  0  0  0  0  0
   47.8140   35.5500   41.8490 O   0  0  0  0  0  0  0  0  0  0  0  0
   49.0910   35.8870   41.4390 C   0  0  0  0  0  0  0  0  0  0  0  0
   49.4950   37.1210   41.9410 F   0  0  0  0  0  0  0  0  0  0  0  0
   49.9610   34.8950   41.7570 F   0  0  0  0  0  0  0  0  0  0  0  0
   49.0430   36.0260   40.0600 F   0  0  0  0  0  0  0  0  0  0  0  0
   43.8596   36.8067   44.5752 H   0  0  0  0  0  0  0  0  0  0  0  0
   44.5015   35.9466   42.2902 H   0  0  0  0  0  0  0  0  0  0  0  0
   45.6958   33.4315   46.3784 H   0  0  0  0  0  0  0  0  0  0  0  0
   47.0370   33.2024   38.1078 H   0  0  0  0  0  0  0  0  0  0  0  0
   48.7418   32.5292   35.5679 H   0  0  0  0  0  0  0  0  0  0  0  0
   47.1987   33.2447   36.1963 H   0  0  0  0  0  0  0  0  0  0  0  0
   46.9718   31.0960   37.5938 H   0  0  0  0  0  0  0  0  0  0  0  0
   46.6923   30.9295   35.8584 H   0  0  0  0  0  0  0  0  0  0  0  0
   48.3292   29.2289   36.8363 H   0  0  0  0  0  0  0  0  0  0  0  0
   49.0152   30.2231   35.4960 H   0  0  0  0  0  0  0  0  0  0  0  0
   49.9266   29.8666   38.1075 H   0  0  0  0  0  0  0  0  0  0  0  0
   50.4977   30.9983   36.6977 H   0  0  0  0  0  0  0  0  0  0  0  0
   50.5987   32.2657   38.4350 H   0  0  0  0  0  0  0  0  0  0  0  0
   49.0339   31.5561   39.1278 H   0  0  0  0  0  0  0  0  0  0  0  0
  2  1  2  0
  2 19  1  0
  2  3  1  0
  3  6  1  0
  4  9  2  0
  5  4  1  0
  6  5  2  0
  6  7  1  0
  7  8  2  0
  8  9  1  0
 10  2  1  0
 11 10  1  0
 12 13  1  0
 12 11  1  0
 13 18  1  0
 13 11  1  0
 14 15  1  0
 14 13  1  0
 16 15  1  0
 16 17  1  0
 17 18  1  0
 20 22  1  0
 20 19  1  0
 20 21  1  0
 23 20  1  0
  4 24  1  0
  5 25  1  0
  8 26  1  0
 11 27  1  0
 14 28  1  0
 14 29  1  0
 15 30  1  0
 15 31  1  0
 16 32  1  0
 16 33  1  0
 17 34  1  0
 17 35  1  0
 18 36  1  0
 18 37  1  0
M  ISO  8  24  14  25  14  26  14  27  13  28  13  29  13  30  13  31  13
M  ISO  6  32  13  33  13  34  13  35  13  36  13  37  13
M  END
>  <minimizedAffinity>  (1) 
-5.25932884

>  <minimizedRMSD>  (1) 
2.28815794

$$$$
