
     RDKit          3D

 42 43  0  0  0  0  0  0  0  0999 V2000
   43.7210   33.9880   40.9690 S   0  0  0  0  0  0  0  0  0  0  0  0
   41.5450   32.3240   41.3390 C   0  0  0  0  0  0  0  0  0  0  0  0
   42.0590   33.3780   40.6020 C   0  0  0  0  0  0  0  0  0  0  0  0
   41.3170   33.9670   39.5870 C   0  0  0  0  0  0  0  0  0  0  0  0
   40.0780   33.4660   39.3540 N   0  0  0  0  0  0  0  0  0  0  0  0
   39.6100   32.4380   40.0920 C   0  0  0  0  0  0  0  0  0  0  0  0
   40.3040   31.8550   41.0740 N   0  0  0  0  0  0  0  0  0  0  0  0
   38.3300   31.9180   39.8540 O   0  0  0  0  0  0  0  0  0  0  0  0
   38.2460   30.9340   38.8330 C   0  0  0  0  0  0  0  0  0  0  0  0
   38.6760   31.5830   37.5340 C   0  0  0  0  0  0  0  0  0  0  0  0
   38.5860   30.5680   36.4150 C   0  0  0  0  0  0  0  0  0  0  0  0
   39.4030   29.3320   36.7310 C   0  0  0  0  0  0  0  0  0  0  0  0
   38.9160   28.7220   38.0420 C   0  0  0  0  0  0  0  0  0  0  0  0
   39.0910   29.7340   39.1290 C   0  0  0  0  0  0  0  0  0  0  0  0
   43.6150   35.6500   41.6110 C   0  0  0  0  0  0  0  0  0  0  0  0
   43.3720   35.5560   43.0430 N   0  0  0  0  0  0  0  0  0  0  0  0
   44.7890   35.8650   43.9570 S   0  0  0  0  0  0  0  0  0  0  0  0
   46.0260   35.3540   43.2830 O   0  0  0  0  0  0  0  0  0  0  0  0
   44.8840   37.3780   44.0800 O   0  0  0  0  0  0  0  0  0  0  0  0
   44.6250   35.2420   45.4950 O   0  0  0  0  0  0  0  0  0  0  0  0
   45.3790   34.1080   45.6830 C   0  0  0  0  0  0  0  0  0  0  0  0
   42.1458   31.8682   42.1398 H   0  0  0  0  0  0  0  0  0  0  0  0
   41.7169   34.8046   38.9966 H   0  0  0  0  0  0  0  0  0  0  0  0
   37.2105   30.5691   38.7660 H   0  0  0  0  0  0  0  0  0  0  0  0
   38.0156   32.4343   37.3121 H   0  0  0  0  0  0  0  0  0  0  0  0
   39.7123   31.9402   37.6255 H   0  0  0  0  0  0  0  0  0  0  0  0
   38.9653   31.0216   35.4875 H   0  0  0  0  0  0  0  0  0  0  0  0
   37.5336   30.2700   36.2982 H   0  0  0  0  0  0  0  0  0  0  0  0
   39.2868   28.5983   35.9197 H   0  0  0  0  0  0  0  0  0  0  0  0
   40.4635   29.6080   36.8266 H   0  0  0  0  0  0  0  0  0  0  0  0
   37.8533   28.4521   37.9537 H   0  0  0  0  0  0  0  0  0  0  0  0
   39.4940   27.8153   38.2740 H   0  0  0  0  0  0  0  0  0  0  0  0
   40.1478   30.0341   39.1842 H   0  0  0  0  0  0  0  0  0  0  0  0
   38.7838   29.2968   40.0905 H   0  0  0  0  0  0  0  0  0  0  0  0
   44.5584   36.1843   41.4253 H   0  0  0  0  0  0  0  0  0  0  0  0
   42.8020   36.2028   41.1175 H   0  0  0  0  0  0  0  0  0  0  0  0
   42.6515   36.2443   43.3038 H   0  0  0  0  0  0  0  0  0  0  0  0
   46.6864   35.0812   43.9682 H   0  0  0  0  0  0  0  0  0  0  0  0
   44.8999   37.6309   45.0370 H   0  0  0  0  0  0  0  0  0  0  0  0
   45.5016   33.9236   46.7605 H   0  0  0  0  0  0  0  0  0  0  0  0
   44.8715   33.2492   45.2195 H   0  0  0  0  0  0  0  0  0  0  0  0
   46.3673   34.2438   45.2195 H   0  0  0  0  0  0  0  0  0  0  0  0
  1 15  1  0
  3  1  1  0
  3  2  2  0
  4  3  1  0
  5  4  2  0
  5  6  1  0
  6  7  2  0
  7  2  1  0
  8  6  1  0
  9 14  1  0
  9  8  1  0
 10  9  1  0
 11 12  1  0
 11 10  1  0
 12 13  1  0
 13 14  1  0
 15 16  1  0
 16 17  1  0
 17 19  1  0
 17 20  1  0
 18 17  1  0
 20 21  1  0
  2 22  1  0
  4 23  1  0
  9 24  1  0
 10 25  1  0
 10 26  1  0
 11 27  1  0
 11 28  1  0
 12 29  1  0
 12 30  1  0
 13 31  1  0
 13 32  1  0
 14 33  1  0
 14 34  1  0
 15 35  1  0
 15 36  1  0
 16 37  1  0
 18 38  1  0
 19 39  1  0
 21 40  1  0
 21 41  1  0
 21 42  1  0
M  ISO  8  22  14  23  14  24  13  25  13  26  13  27  13  28  13  29  13
M  ISO  8  30  13  31  13  32  13  33  13  34  13  35   8  36   8  37   5
M  ISO  5  38   3  39   3  40   8  41   8  42   8
M  END
>  <minimizedAffinity>  (1) 
-4.75457144

>  <minimizedRMSD>  (1) 
3.02219653

$$$$
