
     RDKit          3D

 33 34  0  0  1  0  0  0  0  0999 V2000
   47.0510   32.0960   48.2960 O   0  0  0  0  0  0  0  0  0  0  0  0
   45.9700   32.3650   47.2380 P   0  0  1  0  0  0  0  0  0  0  0  0
   44.6970   33.2590   47.8510 O   0  0  0  0  0  0  0  0  0  0  0  0
   46.7330   33.1940   45.9680 O   0  0  0  0  0  0  0  0  0  0  0  0
   44.4760   35.6300   44.7290 C   0  0  0  0  0  0  0  0  0  0  0  0
   44.8510   35.8090   43.3800 C   0  0  0  0  0  0  0  0  0  0  0  0
   45.9370   35.0320   42.9210 C   0  0  0  0  0  0  0  0  0  0  0  0
   46.5310   34.1810   43.8080 N   0  0  0  0  0  0  0  0  0  0  0  0
   46.1290   34.0550   45.0770 C   0  0  0  0  0  0  0  0  0  0  0  0
   45.1110   34.7730   45.5370 N   0  0  0  0  0  0  0  0  0  0  0  0
   45.3990   30.8630   46.7570 O   0  0  0  0  0  0  0  0  0  0  0  0
   45.9080   29.9140   47.6150 C   0  0  0  0  0  0  0  0  0  0  0  0
   44.9790   28.7320   47.6160 C   0  0  1  0  0  0  0  0  0  0  0  0
   44.2110   28.7080   46.3280 C   0  0  0  0  0  0  0  0  0  0  0  0
   43.4490   27.4730   46.0490 C   0  0  0  0  0  0  0  0  0  0  0  0
   43.5590   26.3400   46.9900 C   0  0  0  0  0  0  0  0  0  0  0  0
   44.6780   26.3760   47.9730 C   0  0  0  0  0  0  0  0  0  0  0  0
   45.7290   27.4140   47.6590 C   0  0  0  0  0  0  0  0  0  0  0  0
   44.7258   33.2388   48.8404 H   0  0  0  0  0  0  0  0  0  0  0  0
   43.6342   36.2141   45.1291 H   0  0  0  0  0  0  0  0  0  0  0  0
   44.3253   36.5161   42.7215 H   0  0  0  0  0  0  0  0  0  0  0  0
   46.2927   35.1098   41.8830 H   0  0  0  0  0  0  0  0  0  0  0  0
   46.9064   29.6021   47.2747 H   0  0  0  0  0  0  0  0  0  0  0  0
   45.9951   30.3285   48.6302 H   0  0  0  0  0  0  0  0  0  0  0  0
   44.3379   28.8373   48.5037 H   0  0  0  0  0  0  0  0  0  0  0  0
   43.4985   29.5459   46.3458 H   0  0  0  0  0  0  0  0  0  0  0  0
   44.9669   28.7754   45.5317 H   0  0  0  0  0  0  0  0  0  0  0  0
   42.8110   27.3988   45.1560 H   0  0  0  0  0  0  0  0  0  0  0  0
   42.8443   25.5041   46.9661 H   0  0  0  0  0  0  0  0  0  0  0  0
   44.2602   26.5945   48.9669 H   0  0  0  0  0  0  0  0  0  0  0  0
   45.1733   25.3946   47.9322 H   0  0  0  0  0  0  0  0  0  0  0  0
   46.2001   27.2054   46.6871 H   0  0  0  0  0  0  0  0  0  0  0  0
   46.5370   27.4227   48.4054 H   0  0  0  0  0  0  0  0  0  0  0  0
  2  3  1  0
  2  1  2  0
  4  2  1  0
  5 10  2  0
  6  5  1  0
  7  6  2  0
  7  8  1  0
  8  9  2  0
  9 10  1  0
  9  4  1  0
 11  2  1  0
 11 12  1  0
 13 12  1  0
 13 18  1  0
 14 13  1  0
 15 14  1  0
 15 16  2  0
 16 17  1  0
 18 17  1  0
  3 19  1  0
  5 20  1  0
  6 21  1  0
  7 22  1  0
 12 23  1  0
 12 24  1  0
 13 25  1  1
 14 26  1  0
 14 27  1  0
 15 28  1  0
 16 29  1  0
 17 30  1  0
 17 31  1  0
 18 32  1  0
 18 33  1  0
M  ISO  8  19   3  20  14  21  14  22  14  23   8  24   8  25  13  26  13
M  ISO  7  27  13  28  13  29  13  30  13  31  13  32  13  33  13
M  END
>  <minimizedAffinity>  (1) 
-4.88760185

>  <minimizedRMSD>  (1) 
0.434399009

$$$$
