
     RDKit          3D

 43 45  0  0  1  0  0  0  0  0999 V2000
   44.7650   34.3700   41.5710 N   0  0  0  0  0  0  0  0  0  0  0  0
   45.9310   33.8770   40.8740 C   0  0  1  0  0  0  0  0  0  0  0  0
   45.7200   33.7830   39.3950 C   0  0  0  0  0  0  0  0  0  0  0  0
   44.4610   33.3460   38.9610 N   0  0  0  0  0  0  0  0  0  0  0  0
   43.3540   33.5910   39.7700 C   0  0  0  0  0  0  0  0  0  0  0  0
   43.6500   34.7240   40.7570 C   0  0  0  0  0  0  0  0  0  0  0  0
   44.4350   35.6280   43.5750 C   0  0  0  0  0  0  0  0  0  0  0  0
   44.8510   34.4510   42.9790 C   0  0  0  0  0  0  0  0  0  0  0  0
   45.3260   33.4250   43.8280 C   0  0  0  0  0  0  0  0  0  0  0  0
   45.3580   33.6270   45.1660 N   0  0  0  0  0  0  0  0  0  0  0  0
   44.9450   34.7860   45.7010 C   0  0  0  0  0  0  0  0  0  0  0  0
   44.4930   35.7640   44.9250 N   0  0  0  0  0  0  0  0  0  0  0  0
   47.0420   34.8720   41.0940 C   0  0  0  0  0  0  0  0  0  0  0  0
   48.4180   34.3120   40.9960 C   0  0  0  0  0  0  0  0  0  0  0  0
   49.3670   35.2400   41.7080 C   0  0  0  0  0  0  0  0  0  0  0  0
   50.3000   34.5960   42.6630 C   0  0  0  0  0  0  0  0  0  0  0  0
   50.8100   33.2450   42.3190 C   0  0  0  0  0  0  0  0  0  0  0  0
   49.9660   32.4870   41.3370 C   0  0  0  0  0  0  0  0  0  0  0  0
   48.5290   32.9100   41.5580 C   0  0  0  0  0  0  0  0  0  0  0  0
   46.1569   32.8718   41.2594 H   0  0  0  0  0  0  0  0  0  0  0  0
   45.8889   34.7838   38.9709 H   0  0  0  0  0  0  0  0  0  0  0  0
   46.4252   33.0112   39.0530 H   0  0  0  0  0  0  0  0  0  0  0  0
   44.2794   33.7976   38.0533 H   0  0  0  0  0  0  0  0  0  0  0  0
   42.4999   33.8756   39.1380 H   0  0  0  0  0  0  0  0  0  0  0  0
   43.1192   32.6781   40.3370 H   0  0  0  0  0  0  0  0  0  0  0  0
   43.8809   35.6439   40.1998 H   0  0  0  0  0  0  0  0  0  0  0  0
   42.7701   34.8913   41.3956 H   0  0  0  0  0  0  0  0  0  0  0  0
   44.0570   36.4543   42.9551 H   0  0  0  0  0  0  0  0  0  0  0  0
   45.6672   32.4691   43.4040 H   0  0  0  0  0  0  0  0  0  0  0  0
   44.9811   34.9271   46.7913 H   0  0  0  0  0  0  0  0  0  0  0  0
   46.9426   35.6665   40.3397 H   0  0  0  0  0  0  0  0  0  0  0  0
   46.9304   35.2333   42.1270 H   0  0  0  0  0  0  0  0  0  0  0  0
   48.6769   34.2340   39.9298 H   0  0  0  0  0  0  0  0  0  0  0  0
   49.9676   35.7588   40.9464 H   0  0  0  0  0  0  0  0  0  0  0  0
   48.7360   35.9098   42.3106 H   0  0  0  0  0  0  0  0  0  0  0  0
   51.1710   35.2592   42.7705 H   0  0  0  0  0  0  0  0  0  0  0  0
   49.7061   34.4465   43.5767 H   0  0  0  0  0  0  0  0  0  0  0  0
   51.8166   33.3578   41.8901 H   0  0  0  0  0  0  0  0  0  0  0  0
   50.7996   32.6624   43.2520 H   0  0  0  0  0  0  0  0  0  0  0  0
   50.0704   31.4052   41.5070 H   0  0  0  0  0  0  0  0  0  0  0  0
   50.2810   32.7018   40.3052 H   0  0  0  0  0  0  0  0  0  0  0  0
   48.2904   32.9082   42.6318 H   0  0  0  0  0  0  0  0  0  0  0  0
   47.8253   32.2214   41.0676 H   0  0  0  0  0  0  0  0  0  0  0  0
  1  8  1  0
  2 13  1  0
  2  1  1  0
  3  2  1  0
  4  3  1  0
  4  5  1  0
  5  6  1  0
  6  1  1  0
  7 12  2  0
  8  7  1  0
  8  9  2  0
  9 10  1  0
 10 11  2  0
 12 11  1  0
 14 13  1  0
 14 19  1  0
 14 15  1  0
 15 16  1  0
 17 16  1  0
 18 19  1  0
 18 17  1  0
  2 20  1  1
  3 21  1  0
  3 22  1  0
  4 23  1  0
  5 24  1  0
  5 25  1  0
  6 26  1  0
  6 27  1  0
  7 28  1  0
  9 29  1  0
 11 30  1  0
 13 31  1  0
 13 32  1  0
 14 33  1  0
 15 34  1  0
 15 35  1  0
 16 36  1  0
 16 37  1  0
 17 38  1  0
 17 39  1  0
 18 40  1  0
 18 41  1  0
 19 42  1  0
 19 43  1  0
M  ISO  8  20  13  21  13  22  13  23   5  24  13  25  13  26  13  27  13
M  ISO  8  28  14  29  14  30  14  31   8  32   8  33  13  34  13  35  13
M  ISO  8  36  13  37  13  38  13  39  13  40  13  41  13  42  13  43  13
M  END
>  <minimizedAffinity>  (1) 
-5.07582998

>  <minimizedRMSD>  (1) 
1.4672097

$$$$
