
     RDKit          3D

 44 46  0  0  1  0  0  0  0  0999 V2000
   44.6110   35.5680   44.6560 C   0  0  0  0  0  0  0  0  0  0  0  0
   45.2190   35.6830   43.3940 C   0  0  0  0  0  0  0  0  0  0  0  0
   46.2830   34.8240   43.1230 C   0  0  0  0  0  0  0  0  0  0  0  0
   46.6820   33.9340   44.0640 N   0  0  0  0  0  0  0  0  0  0  0  0
   46.0810   33.8500   45.2560 C   0  0  0  0  0  0  0  0  0  0  0  0
   45.0410   34.6700   45.5570 N   0  0  0  0  0  0  0  0  0  0  0  0
   45.3830   32.5720   47.2990 C   0  0  1  0  0  0  0  0  0  0  0  0
   46.4690   32.9150   46.3240 C   0  0  1  0  0  0  0  0  0  0  0  0
   46.7200   31.5190   45.7370 C   0  0  0  0  0  0  0  0  0  0  0  0
   46.4010   30.6130   46.6970 O   0  0  0  0  0  0  0  0  0  0  0  0
   45.9630   31.2650   47.8380 C   0  0  0  0  0  0  0  0  0  0  0  0
   45.1550   33.5240   48.2500 O   0  0  0  0  0  0  0  0  0  0  0  0
   46.8680   34.9520   41.8750 O   0  0  0  0  0  0  0  0  0  0  0  0
   49.0700   36.0370   40.8510 O   0  0  0  0  0  0  0  0  0  0  0  0
   48.5730   34.8940   41.7180 P   0  0  1  0  0  0  0  0  0  0  0  0
   49.2490   34.9130   43.2450 O   0  0  0  0  0  0  0  0  0  0  0  0
   48.9180   33.4210   40.9320 O   0  0  0  0  0  0  0  0  0  0  0  0
   49.3700   32.4710   41.8450 C   0  0  0  0  0  0  0  0  0  0  0  0
   48.5860   31.2020   41.6590 C   0  0  0  0  0  0  0  0  0  0  0  0
   49.4230   30.0310   41.2140 C   0  0  0  0  0  0  0  0  0  0  0  0
   50.6020   29.7820   42.0970 C   0  0  0  0  0  0  0  0  0  0  0  0
   51.2150   31.0680   42.6000 C   0  0  0  0  0  0  0  0  0  0  0  0
   50.8390   32.1660   41.6320 C   0  0  0  0  0  0  0  0  0  0  0  0
   43.7670   36.2260   44.9104 H   0  0  0  0  0  0  0  0  0  0  0  0
   44.8708   36.4179   42.6533 H   0  0  0  0  0  0  0  0  0  0  0  0
   44.3735   32.4955   46.8689 H   0  0  0  0  0  0  0  0  0  0  0  0
   47.3176   33.4325   46.7952 H   0  0  0  0  0  0  0  0  0  0  0  0
   46.0886   31.3649   44.8495 H   0  0  0  0  0  0  0  0  0  0  0  0
   47.7710   31.4086   45.4317 H   0  0  0  0  0  0  0  0  0  0  0  0
   46.7993   31.4596   48.5256 H   0  0  0  0  0  0  0  0  0  0  0  0
   45.2337   30.6774   48.4150 H   0  0  0  0  0  0  0  0  0  0  0  0
   45.2514   33.1217   49.1494 H   0  0  0  0  0  0  0  0  0  0  0  0
   48.5295   34.8928   43.9247 H   0  0  0  0  0  0  0  0  0  0  0  0
   49.2338   32.8722   42.8601 H   0  0  0  0  0  0  0  0  0  0  0  0
   48.1103   30.9445   42.6168 H   0  0  0  0  0  0  0  0  0  0  0  0
   47.8516   31.3925   40.8626 H   0  0  0  0  0  0  0  0  0  0  0  0
   48.7914   29.1304   41.2117 H   0  0  0  0  0  0  0  0  0  0  0  0
   49.8091   30.2670   40.2114 H   0  0  0  0  0  0  0  0  0  0  0  0
   50.2786   29.1815   42.9601 H   0  0  0  0  0  0  0  0  0  0  0  0
   51.3630   29.2518   41.5056 H   0  0  0  0  0  0  0  0  0  0  0  0
   50.8253   31.3020   43.6017 H   0  0  0  0  0  0  0  0  0  0  0  0
   52.3087   30.9725   42.6681 H   0  0  0  0  0  0  0  0  0  0  0  0
   51.0077   31.8304   40.5981 H   0  0  0  0  0  0  0  0  0  0  0  0
   51.4519   33.0632   41.8036 H   0  0  0  0  0  0  0  0  0  0  0  0
  1  6  2  0
  2  1  1  0
  3  2  2  0
  3  4  1  0
  4  5  2  0
  5  6  1  0
  5  8  1  0
  7 11  1  0
  7 12  1  0
  8  7  1  0
  9  8  1  0
  9 10  1  0
 10 11  1  0
 13  3  1  0
 15 14  2  0
 15 13  1  0
 15 16  1  0
 17 15  1  0
 17 18  1  0
 19 18  1  0
 20 19  1  0
 20 21  1  0
 21 22  1  0
 23 18  1  0
 23 22  1  0
  1 24  1  0
  2 25  1  0
  7 26  1  6
  8 27  1  1
  9 28  1  0
  9 29  1  0
 11 30  1  0
 11 31  1  0
 12 32  1  0
 16 33  1  0
 18 34  1  0
 19 35  1  0
 19 36  1  0
 20 37  1  0
 20 38  1  0
 21 39  1  0
 21 40  1  0
 22 41  1  0
 22 42  1  0
 23 43  1  0
 23 44  1  0
M  ISO  8  24  14  25  14  26  13  27  13  28  13  29  13  30  13  31  13
M  ISO  8  32   3  33   3  34  13  35  13  36  13  37  13  38  13  39  13
M  ISO  5  40  13  41  13  42  13  43  13  44  13
M  END
>  <minimizedAffinity>  (1) 
-5.93732929

>  <minimizedRMSD>  (1) 
2.07613754

$$$$
