
     RDKit          3D

 38 39  0  0  0  0  0  0  0  0999 V2000
   46.9200   34.3530   42.0820 C   0  0  0  0  0  0  0  0  0  0  0  0
   45.5530   34.1640   41.8960 C   0  0  0  0  0  0  0  0  0  0  0  0
   44.7860   33.7970   43.0180 C   0  0  0  0  0  0  0  0  0  0  0  0
   45.4250   33.6560   44.1910 N   0  0  0  0  0  0  0  0  0  0  0  0
   46.7550   33.8460   44.3480 C   0  0  0  0  0  0  0  0  0  0  0  0
   47.4840   34.1930   43.2840 N   0  0  0  0  0  0  0  0  0  0  0  0
   47.7780   34.7360   40.9520 C   0  0  0  0  0  0  0  0  0  0  0  0
   48.8690   35.6450   41.4380 C   0  0  0  0  0  0  0  0  0  0  0  0
   45.0610   34.3530   40.6080 O   0  0  0  0  0  0  0  0  0  0  0  0
   43.6960   33.8310   38.4250 O   0  0  0  0  0  0  0  0  0  0  0  0
   43.7490   33.5530   39.9260 P   0  0  1  0  0  0  0  0  0  0  0  0
   43.9440   31.8850   40.1520 O   0  0  0  0  0  0  0  0  0  0  0  0
   42.2620   34.0020   40.6250 O   0  0  0  0  0  0  0  0  0  0  0  0
   41.2160   33.5800   39.7690 C   0  0  0  0  0  0  0  0  0  0  0  0
   40.5070   32.4650   40.4260 C   0  0  0  0  0  0  0  0  0  0  0  0
   39.2060   32.8330   41.0860 C   0  0  0  0  0  0  0  0  0  0  0  0
   38.3600   33.4710   39.9920 C   0  0  0  0  0  0  0  0  0  0  0  0
   38.9910   34.8120   39.7390 C   0  0  0  0  0  0  0  0  0  0  0  0
   40.4330   34.7670   39.3710 C   0  0  0  0  0  0  0  0  0  0  0  0
   43.7015   33.6315   42.9369 H   0  0  0  0  0  0  0  0  0  0  0  0
   47.2272   33.7172   45.3331 H   0  0  0  0  0  0  0  0  0  0  0  0
   47.1753   35.2588   40.1947 H   0  0  0  0  0  0  0  0  0  0  0  0
   48.2233   33.8338   40.5074 H   0  0  0  0  0  0  0  0  0  0  0  0
   48.8775   35.6521   42.5379 H   0  0  0  0  0  0  0  0  0  0  0  0
   49.8394   35.2845   41.0661 H   0  0  0  0  0  0  0  0  0  0  0  0
   48.6896   36.6646   41.0661 H   0  0  0  0  0  0  0  0  0  0  0  0
   43.9675   31.6838   41.1211 H   0  0  0  0  0  0  0  0  0  0  0  0
   41.5500   33.1548   38.8110 H   0  0  0  0  0  0  0  0  0  0  0  0
   40.2976   31.6992   39.6646 H   0  0  0  0  0  0  0  0  0  0  0  0
   41.1693   32.1146   41.2313 H   0  0  0  0  0  0  0  0  0  0  0  0
   38.7086   31.9354   41.4821 H   0  0  0  0  0  0  0  0  0  0  0  0
   39.3582   33.5163   41.9345 H   0  0  0  0  0  0  0  0  0  0  0  0
   38.3810   32.8563   39.0800 H   0  0  0  0  0  0  0  0  0  0  0  0
   37.3046   33.5620   40.2882 H   0  0  0  0  0  0  0  0  0  0  0  0
   38.4437   35.2976   38.9176 H   0  0  0  0  0  0  0  0  0  0  0  0
   38.9320   35.3647   40.6882 H   0  0  0  0  0  0  0  0  0  0  0  0
   40.4930   34.8455   38.2754 H   0  0  0  0  0  0  0  0  0  0  0  0
   40.8854   35.5952   39.9362 H   0  0  0  0  0  0  0  0  0  0  0  0
  1  6  2  0
  2  1  1  0
  2  3  2  0
  3  4  1  0
  4  5  2  0
  6  5  1  0
  7  8  1  0
  7  1  1  0
  9  2  1  0
 11 10  2  0
 11 12  1  0
 11  9  1  0
 11 13  1  0
 14 15  1  0
 14 13  1  0
 15 16  1  0
 17 16  1  0
 18 17  1  0
 19 18  1  0
 19 14  1  0
  3 20  1  0
  5 21  1  0
  7 22  1  0
  7 23  1  0
  8 24  1  0
  8 25  1  0
  8 26  1  0
 12 27  1  0
 14 28  1  0
 15 29  1  0
 15 30  1  0
 16 31  1  0
 16 32  1  0
 17 33  1  0
 17 34  1  0
 18 35  1  0
 18 36  1  0
 19 37  1  0
 19 38  1  0
M  ISO  8  20  14  21  14  22   8  23   8  24   8  25   8  26   8  27   3
M  ISO  8  28  13  29  13  30  13  31  13  32  13  33  13  34  13  35  13
M  ISO  3  36  13  37  13  38  13
M  END
>  <minimizedAffinity>  (1) 
-4.92064428

>  <minimizedRMSD>  (1) 
2.01348495

$$$$
