
     RDKit          3D

 38 40  0  0  1  0  0  0  0  0999 V2000
   46.3610   35.0120   42.1010 C   0  0  1  0  0  0  0  0  0  0  0  0
   47.8860   35.2750   41.9390 C   0  0  0  0  0  0  0  0  0  0  0  0
   47.0750   34.0910   41.3200 C   0  0  2  0  0  0  0  0  0  0  0  0
   44.7970   34.9620   45.5120 C   0  0  0  0  0  0  0  0  0  0  0  0
   45.0730   35.3930   44.1830 C   0  0  0  0  0  0  0  0  0  0  0  0
   46.0310   34.6840   43.5370 C   0  0  0  0  0  0  0  0  0  0  0  0
   46.6880   33.6260   44.1300 N   0  0  0  0  0  0  0  0  0  0  0  0
   46.3970   33.2460   45.3990 C   0  0  0  0  0  0  0  0  0  0  0  0
   45.4420   33.9250   46.0900 N   0  0  0  0  0  0  0  0  0  0  0  0
   44.4180   36.4920   43.5770 N   0  0  0  0  0  0  0  0  0  0  0  0
   46.9400   34.0430   39.8120 C   0  0  0  0  0  0  0  0  0  0  0  0
   48.2470   33.5540   39.2160 C   0  0  0  0  0  0  0  0  0  0  0  0
   48.4790   32.1120   39.4900 C   0  0  0  0  0  0  0  0  0  0  0  0
   49.1800   31.3140   38.4610 C   0  0  0  0  0  0  0  0  0  0  0  0
   49.9560   32.2280   37.5340 C   0  0  0  0  0  0  0  0  0  0  0  0
   48.8720   33.0190   36.8260 C   0  0  0  0  0  0  0  0  0  0  0  0
   48.3450   34.0140   37.8190 C   0  0  0  0  0  0  0  0  0  0  0  0
   45.4178   35.5353   41.8853 H   0  0  0  0  0  0  0  0  0  0  0  0
   48.2559   36.0988   41.3108 H   0  0  0  0  0  0  0  0  0  0  0  0
   48.7627   35.4090   42.5897 H   0  0  0  0  0  0  0  0  0  0  0  0
   47.1379   32.9933   41.3539 H   0  0  0  0  0  0  0  0  0  0  0  0
   44.0281   35.4946   46.0910 H   0  0  0  0  0  0  0  0  0  0  0  0
   46.9259   32.4005   45.8630 H   0  0  0  0  0  0  0  0  0  0  0  0
   44.6540   36.7639   42.6120 H   0  0  0  0  0  0  0  0  0  0  0  0
   43.7055   37.0197   44.1011 H   0  0  0  0  0  0  0  0  0  0  0  0
   46.1279   33.3543   39.5359 H   0  0  0  0  0  0  0  0  0  0  0  0
   46.7076   35.0468   39.4268 H   0  0  0  0  0  0  0  0  0  0  0  0
   49.1130   34.0096   39.7184 H   0  0  0  0  0  0  0  0  0  0  0  0
   49.0710   32.0458   40.4148 H   0  0  0  0  0  0  0  0  0  0  0  0
   47.4704   31.6754   39.5365 H   0  0  0  0  0  0  0  0  0  0  0  0
   49.8757   30.6176   38.9519 H   0  0  0  0  0  0  0  0  0  0  0  0
   48.4389   30.7508   37.8748 H   0  0  0  0  0  0  0  0  0  0  0  0
   50.6199   32.8944   38.1042 H   0  0  0  0  0  0  0  0  0  0  0  0
   50.6085   31.6791   36.8391 H   0  0  0  0  0  0  0  0  0  0  0  0
   49.2920   33.5405   35.9533 H   0  0  0  0  0  0  0  0  0  0  0  0
   48.0706   32.3571   36.4660 H   0  0  0  0  0  0  0  0  0  0  0  0
   49.0100   34.8901   37.8006 H   0  0  0  0  0  0  0  0  0  0  0  0
   47.3112   34.2215   37.5056 H   0  0  0  0  0  0  0  0  0  0  0  0
  1  6  1  0
  2  1  1  0
  3  2  1  0
  3  1  1  0
  4  9  2  0
  5  4  1  0
  6  7  1  0
  6  5  2  0
  7  8  2  0
  8  9  1  0
 10  5  1  0
 11  3  1  0
 12 13  1  0
 12 11  1  0
 14 13  1  0
 15 14  1  0
 16 15  1  0
 16 17  1  0
 17 12  1  0
  1 18  1  6
  2 19  1  0
  2 20  1  0
  3 21  1  1
  4 22  1  0
  8 23  1  0
 10 24  1  0
 10 25  1  0
 11 26  1  0
 11 27  1  0
 12 28  1  0
 13 29  1  0
 13 30  1  0
 14 31  1  0
 14 32  1  0
 15 33  1  0
 15 34  1  0
 16 35  1  0
 16 36  1  0
 17 37  1  0
 17 38  1  0
M  ISO  8  18  13  19  13  20  13  21  13  22  14  23  14  26   8  27   8
M  ISO  8  28  13  29  13  30  13  31  13  32  13  33  13  34  13  35  13
M  ISO  3  36  13  37  13  38  13
M  END
>  <minimizedAffinity>  (1) 
-4.88278532

>  <minimizedRMSD>  (1) 
0.872357666

$$$$
