
     RDKit          3D

 55 58  0  0  0  0  0  0  0  0999 V2000
   42.0130   33.4170   41.1400 C   0  0  0  0  0  0  0  0  0  0  0  0
   40.9720   33.8620   40.4350 N   0  0  0  0  0  0  0  0  0  0  0  0
   40.2070   35.0450   40.6420 C   0  0  0  0  0  0  0  0  0  0  0  0
   40.7490   35.8810   39.4840 C   0  0  0  0  0  0  0  0  0  0  0  0
   40.5320   35.2910   38.1750 C   0  0  0  0  0  0  0  0  0  0  0  0
   40.3490   33.8610   38.0650 C   0  0  0  0  0  0  0  0  0  0  0  0
   40.5980   33.0040   39.2820 C   0  0  0  0  0  0  0  0  0  0  0  0
   40.4910   31.2800   39.2620 S   0  0  0  0  0  0  0  0  0  0  0  0
   39.0020   30.4920   39.7880 C   0  0  0  0  0  0  0  0  0  0  0  0
   38.1760   31.2170   40.8060 C   0  0  0  0  0  0  0  0  0  0  0  0
   37.1190   30.2580   41.3250 C   0  0  0  0  0  0  0  0  0  0  0  0
   36.7010   29.2370   40.2860 C   0  0  0  0  0  0  0  0  0  0  0  0
   37.8610   28.3430   39.8940 C   0  0  0  0  0  0  0  0  0  0  0  0
   39.1670   29.0590   40.2660 C   0  0  0  0  0  0  0  0  0  0  0  0
   43.3110   33.5470   40.4260 C   0  0  0  0  0  0  0  0  0  0  0  0
   44.2490   34.2740   41.2970 C   0  0  0  0  0  0  0  0  0  0  0  0
   43.8170   35.3310   42.0610 C   0  0  0  0  0  0  0  0  0  0  0  0
   44.7370   35.9950   42.8560 C   0  0  0  0  0  0  0  0  0  0  0  0
   46.0370   35.5590   42.8390 N   0  0  0  0  0  0  0  0  0  0  0  0
   46.4180   34.5320   42.0890 C   0  0  0  0  0  0  0  0  0  0  0  0
   45.5110   33.9120   41.3320 N   0  0  0  0  0  0  0  0  0  0  0  0
   47.8190   34.1210   42.1610 C   0  0  0  0  0  0  0  0  0  0  0  0
   48.1660   32.7810   42.0140 C   0  0  0  0  0  0  0  0  0  0  0  0
   49.4870   32.3980   42.0940 C   0  0  0  0  0  0  0  0  0  0  0  0
   50.3650   33.4250   42.3210 C   0  0  0  0  0  0  0  0  0  0  0  0
   50.0750   34.7830   42.4750 C   0  0  0  0  0  0  0  0  0  0  0  0
   48.7500   35.0680   42.3810 N   0  0  0  0  0  0  0  0  0  0  0  0
   42.0712   33.9920   42.0760 H   0  0  0  0  0  0  0  0  0  0  0  0
   41.8480   32.3443   41.3194 H   0  0  0  0  0  0  0  0  0  0  0  0
   39.1267   34.8601   40.5479 H   0  0  0  0  0  0  0  0  0  0  0  0
   40.2978   35.5004   41.6392 H   0  0  0  0  0  0  0  0  0  0  0  0
   40.2550   36.8636   39.5063 H   0  0  0  0  0  0  0  0  0  0  0  0
   41.8378   35.9499   39.6246 H   0  0  0  0  0  0  0  0  0  0  0  0
   39.6313   35.7630   37.7556 H   0  0  0  0  0  0  0  0  0  0  0  0
   41.4793   35.4738   37.6465 H   0  0  0  0  0  0  0  0  0  0  0  0
   40.0347   33.4070   37.1137 H   0  0  0  0  0  0  0  0  0  0  0  0
   38.4531   30.5092   38.8349 H   0  0  0  0  0  0  0  0  0  0  0  0
   38.8159   31.5514   41.6359 H   0  0  0  0  0  0  0  0  0  0  0  0
   37.7007   32.0995   40.3529 H   0  0  0  0  0  0  0  0  0  0  0  0
   37.5236   29.7265   42.1990 H   0  0  0  0  0  0  0  0  0  0  0  0
   36.2302   30.8506   41.5876 H   0  0  0  0  0  0  0  0  0  0  0  0
   35.8932   28.6152   40.6994 H   0  0  0  0  0  0  0  0  0  0  0  0
   36.3586   29.7744   39.3894 H   0  0  0  0  0  0  0  0  0  0  0  0
   37.8357   28.1541   38.8106 H   0  0  0  0  0  0  0  0  0  0  0  0
   37.7928   27.3799   40.4211 H   0  0  0  0  0  0  0  0  0  0  0  0
   40.0218   28.5831   39.7631 H   0  0  0  0  0  0  0  0  0  0  0  0
   39.3614   29.0121   41.3477 H   0  0  0  0  0  0  0  0  0  0  0  0
   43.7122   32.5481   40.1996 H   0  0  0  0  0  0  0  0  0  0  0  0
   43.1702   34.0938   39.4820 H   0  0  0  0  0  0  0  0  0  0  0  0
   42.7625   35.6436   42.0419 H   0  0  0  0  0  0  0  0  0  0  0  0
   44.4336   36.8468   43.4824 H   0  0  0  0  0  0  0  0  0  0  0  0
   47.3851   32.0275   41.8339 H   0  0  0  0  0  0  0  0  0  0  0  0
   49.8106   31.3524   41.9845 H   0  0  0  0  0  0  0  0  0  0  0  0
   51.4269   33.1466   42.3904 H   0  0  0  0  0  0  0  0  0  0  0  0
   50.8451   35.5476   42.6550 H   0  0  0  0  0  0  0  0  0  0  0  0
  2  3  1  0
  2  1  1  0
  4  3  1  0
  5  4  1  0
  6  5  1  0
  6  7  2  0
  7  2  1  0
  8  7  1  0
  8  9  1  0
  9 14  1  0
  9 10  1  0
 10 11  1  0
 12 11  1  0
 13 14  1  0
 13 12  1  0
 15  1  1  0
 15 16  1  0
 16 21  1  0
 16 17  2  0
 17 18  1  0
 19 18  2  0
 20 22  1  0
 20 19  1  0
 21 20  2  0
 22 27  2  0
 23 24  2  0
 23 22  1  0
 24 25  1  0
 25 26  2  0
 27 26  1  0
  1 28  1  0
  1 29  1  0
  3 30  1  0
  3 31  1  0
  4 32  1  0
  4 33  1  0
  5 34  1  0
  5 35  1  0
  6 36  1  0
  9 37  1  0
 10 38  1  0
 10 39  1  0
 11 40  1  0
 11 41  1  0
 12 42  1  0
 12 43  1  0
 13 44  1  0
 13 45  1  0
 14 46  1  0
 14 47  1  0
 15 48  1  0
 15 49  1  0
 17 50  1  0
 18 51  1  0
 23 52  1  0
 24 53  1  0
 25 54  1  0
 26 55  1  0
M  ISO  8  28   8  29   8  30  13  31  13  32  13  33  13  34  13  35  13
M  ISO  8  36  13  37  13  38  13  39  13  40  13  41  13  42  13  43  13
M  ISO  8  44  13  45  13  46  13  47  13  48   8  49   8  50  14  51  14
M  ISO  4  52  14  53  14  54  14  55  14
M  END
>  <minimizedAffinity>  (1) 
-6.03776264

>  <minimizedRMSD>  (1) 
4.58027744

$$$$
