
     RDKit          3D

 39 41  0  0  1  0  0  0  0  0999 V2000
   47.5310   35.2880   41.8600 C   0  0  0  0  0  0  0  0  0  0  0  0
   48.8830   34.7370   41.5490 C   0  0  1  0  0  0  0  0  0  0  0  0
   49.9930   35.0620   42.4970 C   0  0  0  0  0  0  0  0  0  0  0  0
   49.4050   33.7000   42.4500 C   0  0  2  0  0  0  0  0  0  0  0  0
   50.3070   32.7110   41.7010 C   0  0  0  0  0  0  0  0  0  0  0  0
   50.5870   31.4680   42.4960 C   0  0  0  0  0  0  0  0  0  0  0  0
   51.6690   30.7250   41.7640 C   0  0  0  0  0  0  0  0  0  0  0  0
   51.2510   30.3430   40.3620 C   0  0  0  0  0  0  0  0  0  0  0  0
   50.6080   31.4570   39.6140 C   0  0  0  0  0  0  0  0  0  0  0  0
   49.6310   32.2540   40.4110 C   0  0  0  0  0  0  0  0  0  0  0  0
   46.6780   34.0930   42.2560 C   0  0  0  0  0  0  0  0  0  0  0  0
   44.5020   35.9000   44.7120 C   0  0  0  0  0  0  0  0  0  0  0  0
   45.1530   35.5790   43.5040 C   0  0  0  0  0  0  0  0  0  0  0  0
   45.9280   34.4470   43.4930 C   0  0  0  0  0  0  0  0  0  0  0  0
   46.0360   33.6920   44.6230 N   0  0  0  0  0  0  0  0  0  0  0  0
   45.4150   34.0110   45.7470 C   0  0  0  0  0  0  0  0  0  0  0  0
   44.6470   35.1120   45.8080 N   0  0  0  0  0  0  0  0  0  0  0  0
   47.1070   35.7849   40.9750 H   0  0  0  0  0  0  0  0  0  0  0  0
   47.5744   36.0385   42.6631 H   0  0  0  0  0  0  0  0  0  0  0  0
   48.7398   34.8260   40.4620 H   0  0  0  0  0  0  0  0  0  0  0  0
   51.0102   35.2380   42.1171 H   0  0  0  0  0  0  0  0  0  0  0  0
   50.1584   35.8169   43.2798 H   0  0  0  0  0  0  0  0  0  0  0  0
   48.9672   33.0189   43.1946 H   0  0  0  0  0  0  0  0  0  0  0  0
   51.2475   33.2481   41.5088 H   0  0  0  0  0  0  0  0  0  0  0  0
   50.9266   31.7332   43.5081 H   0  0  0  0  0  0  0  0  0  0  0  0
   49.6822   30.8510   42.5995 H   0  0  0  0  0  0  0  0  0  0  0  0
   52.5614   31.3655   41.7055 H   0  0  0  0  0  0  0  0  0  0  0  0
   51.8772   29.7983   42.3188 H   0  0  0  0  0  0  0  0  0  0  0  0
   52.1444   30.0202   39.8073 H   0  0  0  0  0  0  0  0  0  0  0  0
   50.5056   29.5392   40.4525 H   0  0  0  0  0  0  0  0  0  0  0  0
   51.3987   32.1356   39.2615 H   0  0  0  0  0  0  0  0  0  0  0  0
   50.0397   30.9957   38.7929 H   0  0  0  0  0  0  0  0  0  0  0  0
   49.3091   33.1315   39.8311 H   0  0  0  0  0  0  0  0  0  0  0  0
   48.7505   31.6385   40.6476 H   0  0  0  0  0  0  0  0  0  0  0  0
   45.9714   33.8553   41.4471 H   0  0  0  0  0  0  0  0  0  0  0  0
   47.3147   33.2142   42.4357 H   0  0  0  0  0  0  0  0  0  0  0  0
   43.8698   36.7984   44.7675 H   0  0  0  0  0  0  0  0  0  0  0  0
   45.0444   36.2088   42.6087 H   0  0  0  0  0  0  0  0  0  0  0  0
   45.5279   33.3722   46.6353 H   0  0  0  0  0  0  0  0  0  0  0  0
  1 11  1  0
  2  1  1  0
  2  4  1  0
  2  3  1  0
  4  3  1  0
  5  4  1  0
  5  6  1  0
  7  6  1  0
  8  7  1  0
  9  8  1  0
  9 10  1  0
 10  5  1  0
 11 14  1  0
 12 17  2  0
 13 12  1  0
 14 13  2  0
 14 15  1  0
 15 16  2  0
 16 17  1  0
  1 18  1  0
  1 19  1  0
  2 20  1  6
  3 21  1  0
  3 22  1  0
  4 23  1  1
  5 24  1  0
  6 25  1  0
  6 26  1  0
  7 27  1  0
  7 28  1  0
  8 29  1  0
  8 30  1  0
  9 31  1  0
  9 32  1  0
 10 33  1  0
 10 34  1  0
 11 35  1  0
 11 36  1  0
 12 37  1  0
 13 38  1  0
 16 39  1  0
M  ISO  8  18   8  19   8  20  13  21  13  22  13  23  13  24  13  25  13
M  ISO  8  26  13  27  13  28  13  29  13  30  13  31  13  32  13  33  13
M  ISO  6  34  13  35   8  36   8  37  14  38  14  39  14
M  END
>  <minimizedAffinity>  (1) 
-4.78448868

>  <minimizedRMSD>  (1) 
1.19726443

$$$$
