
     RDKit          3D

 30 31  0  0  1  0  0  0  0  0999 V2000
   46.6210   34.7410   41.6740 C   0  0  0  0  0  0  0  0  0  0  0  0
   45.1750   36.0100   43.2360 C   0  0  0  0  0  0  0  0  0  0  0  0
   45.9790   34.8810   42.9800 C   0  0  0  0  0  0  0  0  0  0  0  0
   46.1050   33.9560   44.0200 C   0  0  0  0  0  0  0  0  0  0  0  0
   45.4610   34.1940   45.1880 N   0  0  0  0  0  0  0  0  0  0  0  0
   44.7060   35.2860   45.3830 C   0  0  0  0  0  0  0  0  0  0  0  0
   44.5630   36.1970   44.4010 N   0  0  0  0  0  0  0  0  0  0  0  0
   47.9950   35.3650   41.7610 C   0  0  0  0  0  0  0  0  0  0  0  0
   49.0110   34.3140   41.4550 C   0  0  2  0  0  0  0  0  0  0  0  0
   48.4170   32.9920   41.0780 C   0  0  0  0  0  0  0  0  0  0  0  0
   49.5150   32.1110   40.5480 C   0  0  0  0  0  0  0  0  0  0  0  0
   50.8280   32.2490   41.1880 C   0  0  0  0  0  0  0  0  0  0  0  0
   51.0050   33.1650   42.3320 C   0  0  0  0  0  0  0  0  0  0  0  0
   49.8230   34.0230   42.6860 C   0  0  0  0  0  0  0  0  0  0  0  0
   46.0244   35.2569   40.9073 H   0  0  0  0  0  0  0  0  0  0  0  0
   46.6998   33.6790   41.3982 H   0  0  0  0  0  0  0  0  0  0  0  0
   45.0496   36.7628   42.4438 H   0  0  0  0  0  0  0  0  0  0  0  0
   46.7164   33.0505   43.8925 H   0  0  0  0  0  0  0  0  0  0  0  0
   44.2017   35.4379   46.3487 H   0  0  0  0  0  0  0  0  0  0  0  0
   48.0775   36.1847   41.0321 H   0  0  0  0  0  0  0  0  0  0  0  0
   48.1627   35.7700   42.7699 H   0  0  0  0  0  0  0  0  0  0  0  0
   49.5947   34.7193   40.6153 H   0  0  0  0  0  0  0  0  0  0  0  0
   47.9601   32.5244   41.9626 H   0  0  0  0  0  0  0  0  0  0  0  0
   47.6413   33.1316   40.3106 H   0  0  0  0  0  0  0  0  0  0  0  0
   49.3428   31.4016   39.7251 H   0  0  0  0  0  0  0  0  0  0  0  0
   51.6837   31.6677   40.8140 H   0  0  0  0  0  0  0  0  0  0  0  0
   51.2534   32.5561   43.2138 H   0  0  0  0  0  0  0  0  0  0  0  0
   51.7960   33.8660   42.0273 H   0  0  0  0  0  0  0  0  0  0  0  0
   50.1772   34.9693   43.1207 H   0  0  0  0  0  0  0  0  0  0  0  0
   49.1951   33.4893   43.4146 H   0  0  0  0  0  0  0  0  0  0  0  0
  1  8  1  0
  1  3  1  0
  2  7  2  0
  3  2  1  0
  3  4  2  0
  4  5  1  0
  5  6  2  0
  7  6  1  0
  9  8  1  0
  9 14  1  0
 10  9  1  0
 11 10  1  0
 11 12  2  0
 12 13  1  0
 13 14  1  0
  1 15  1  0
  1 16  1  0
  2 17  1  0
  4 18  1  0
  6 19  1  0
  8 20  1  0
  8 21  1  0
  9 22  1  6
 10 23  1  0
 10 24  1  0
 11 25  1  0
 12 26  1  0
 13 27  1  0
 13 28  1  0
 14 29  1  0
 14 30  1  0
M  ISO  8  15   8  16   8  17  14  18  14  19  14  20   8  21   8  22  13
M  ISO  8  23  13  24  13  25  13  26  13  27  13  28  13  29  13  30  13
M  END
>  <minimizedAffinity>  (1) 
-4.67917728

>  <minimizedRMSD>  (1) 
2.59149265

$$$$
