
     RDKit          3D

 42 44  0  0  1  0  0  0  0  0999 V2000
   44.0840   33.9240   40.1690 C   0  0  2  0  0  0  0  0  0  0  0  0
   44.0210   33.3250   38.7900 C   0  0  0  0  0  0  0  0  0  0  0  0
   44.5970   31.9450   38.7430 C   0  0  0  0  0  0  0  0  0  0  0  0
   46.0000   31.8730   39.2720 C   0  0  0  0  0  0  0  0  0  0  0  0
   46.2410   32.7750   40.4480 C   0  0  0  0  0  0  0  0  0  0  0  0
   44.9330   33.1630   41.1250 C   0  0  1  0  0  0  0  0  0  0  0  0
   42.7270   34.0880   40.7180 C   0  0  0  0  0  0  0  0  0  0  0  0
   42.3010   35.4070   40.9640 C   0  0  0  0  0  0  0  0  0  0  0  0
   41.0040   35.5910   41.4530 C   0  0  0  0  0  0  0  0  0  0  0  0
   40.2320   34.4790   41.6620 N   0  0  0  0  0  0  0  0  0  0  0  0
   40.6760   33.2210   41.4150 C   0  0  0  0  0  0  0  0  0  0  0  0
   41.9130   33.0450   40.9480 N   0  0  0  0  0  0  0  0  0  0  0  0
   45.1380   33.7330   42.4680 C   0  0  0  0  0  0  0  0  0  0  0  0
   45.7480   32.8080   43.4750 C   0  0  0  0  0  0  0  0  0  0  0  0
   46.9800   33.4580   44.1510 C   0  0  0  0  0  0  0  0  0  0  0  0
   47.8360   33.9370   42.9910 C   0  0  0  0  0  0  0  0  0  0  0  0
   47.1810   35.1920   42.4220 C   0  0  0  0  0  0  0  0  0  0  0  0
   45.6940   35.1260   42.5470 C   0  0  0  0  0  0  0  0  0  0  0  0
   44.5664   34.9051   40.0475 H   0  0  0  0  0  0  0  0  0  0  0  0
   42.9690   33.2802   38.4716 H   0  0  0  0  0  0  0  0  0  0  0  0
   44.6172   33.9613   38.1194 H   0  0  0  0  0  0  0  0  0  0  0  0
   43.9612   31.2798   39.3458 H   0  0  0  0  0  0  0  0  0  0  0  0
   44.6291   31.6393   37.6868 H   0  0  0  0  0  0  0  0  0  0  0  0
   46.2038   30.8368   39.5798 H   0  0  0  0  0  0  0  0  0  0  0  0
   46.6689   32.2062   38.4648 H   0  0  0  0  0  0  0  0  0  0  0  0
   46.8797   32.2525   41.1754 H   0  0  0  0  0  0  0  0  0  0  0  0
   46.7308   33.6917   40.0878 H   0  0  0  0  0  0  0  0  0  0  0  0
   44.3396   32.2694   41.3686 H   0  0  0  0  0  0  0  0  0  0  0  0
   42.9656   36.2635   40.7779 H   0  0  0  0  0  0  0  0  0  0  0  0
   40.6154   36.5983   41.6635 H   0  0  0  0  0  0  0  0  0  0  0  0
   40.0227   32.3552   41.5980 H   0  0  0  0  0  0  0  0  0  0  0  0
   44.0891   33.8599   42.7742 H   0  0  0  0  0  0  0  0  0  0  0  0
   44.9992   32.5700   44.2448 H   0  0  0  0  0  0  0  0  0  0  0  0
   46.0738   31.8932   42.9583 H   0  0  0  0  0  0  0  0  0  0  0  0
   46.6755   34.3033   44.7855 H   0  0  0  0  0  0  0  0  0  0  0  0
   47.5167   32.7580   44.8082 H   0  0  0  0  0  0  0  0  0  0  0  0
   48.8507   34.1712   43.3452 H   0  0  0  0  0  0  0  0  0  0  0  0
   47.9121   33.1570   42.2191 H   0  0  0  0  0  0  0  0  0  0  0  0
   47.4484   35.2865   41.3592 H   0  0  0  0  0  0  0  0  0  0  0  0
   47.5412   36.0624   42.9900 H   0  0  0  0  0  0  0  0  0  0  0  0
   45.2514   35.7221   41.7354 H   0  0  0  0  0  0  0  0  0  0  0  0
   45.4397   35.5153   43.5439 H   0  0  0  0  0  0  0  0  0  0  0  0
  1  7  1  0
  1  6  1  0
  2  1  1  0
  3  2  1  0
  3  4  1  0
  4  5  1  0
  5  6  1  0
  6 13  1  0
  7 12  1  0
  7  8  2  0
  8  9  1  0
  9 10  2  0
 11 10  1  0
 12 11  2  0
 13 18  1  0
 13 14  1  0
 14 15  1  0
 16 15  1  0
 17 18  1  0
 17 16  1  0
  1 19  1  6
  2 20  1  0
  2 21  1  0
  3 22  1  0
  3 23  1  0
  4 24  1  0
  4 25  1  0
  5 26  1  0
  5 27  1  0
  6 28  1  1
  8 29  1  0
  9 30  1  0
 11 31  1  0
 13 32  1  0
 14 33  1  0
 14 34  1  0
 15 35  1  0
 15 36  1  0
 16 37  1  0
 16 38  1  0
 17 39  1  0
 17 40  1  0
 18 41  1  0
 18 42  1  0
M  ISO  8  19  13  20  13  21  13  22  13  23  13  24  13  25  13  26  13
M  ISO  8  27  13  28  13  29  14  30  14  31  14  32  13  33  13  34  13
M  ISO  8  35  13  36  13  37  13  38  13  39  13  40  13  41  13  42  13
M  END
>  <minimizedAffinity>  (1) 
-4.32093716

>  <minimizedRMSD>  (1) 
6.05252647

$$$$
