
     RDKit          3D

 45 48  0  0  0  0  0  0  0  0999 V2000
   46.6340   33.7380   41.1370 C   0  0  0  0  0  0  0  0  0  0  0  0
   46.9660   34.7190   42.0490 C   0  0  0  0  0  0  0  0  0  0  0  0
   48.0080   35.5260   41.7330 C   0  0  0  0  0  0  0  0  0  0  0  0
   48.7160   35.3870   40.5530 C   0  0  0  0  0  0  0  0  0  0  0  0
   48.3760   34.4080   39.6550 C   0  0  0  0  0  0  0  0  0  0  0  0
   47.3070   33.5500   39.9390 C   0  0  0  0  0  0  0  0  0  0  0  0
   44.5250   35.8820   44.6860 C   0  0  0  0  0  0  0  0  0  0  0  0
   45.2660   35.8070   43.5050 C   0  0  0  0  0  0  0  0  0  0  0  0
   46.1890   34.8140   43.2640 C   0  0  0  0  0  0  0  0  0  0  0  0
   46.3200   33.9080   44.2710 N   0  0  0  0  0  0  0  0  0  0  0  0
   45.6170   33.9550   45.4220 C   0  0  0  0  0  0  0  0  0  0  0  0
   44.7170   34.9470   45.6270 N   0  0  0  0  0  0  0  0  0  0  0  0
   45.5670   32.8750   41.4120 O   0  0  0  0  0  0  0  0  0  0  0  0
   46.9110   32.5500   39.0910 O   0  0  0  0  0  0  0  0  0  0  0  0
   47.1220   32.5160   37.7660 C   0  0  0  0  0  0  0  0  0  0  0  0
   46.2190   32.4340   36.7280 C   0  0  0  0  0  0  0  0  0  0  0  0
   46.6570   32.4140   35.4500 C   0  0  0  0  0  0  0  0  0  0  0  0
   48.0620   32.4820   35.2490 C   0  0  0  0  0  0  0  0  0  0  0  0
   48.7260   32.5730   36.9350 S   0  0  0  0  0  0  0  0  0  0  0  0
   48.9980   32.4920   34.1080 C   0  0  0  0  0  0  0  0  0  0  0  0
   48.2460   32.7750   32.8250 C   0  0  0  0  0  0  0  0  0  0  0  0
   49.2730   32.8830   31.6970 C   0  0  0  0  0  0  0  0  0  0  0  0
   49.9890   31.5410   31.5850 C   0  0  0  0  0  0  0  0  0  0  0  0
   50.7600   31.3520   32.8500 C   0  0  0  0  0  0  0  0  0  0  0  0
   49.8070   31.2040   33.9950 C   0  0  0  0  0  0  0  0  0  0  0  0
   48.3003   36.3178   42.4384 H   0  0  0  0  0  0  0  0  0  0  0  0
   49.5548   36.0642   40.3341 H   0  0  0  0  0  0  0  0  0  0  0  0
   48.9399   34.2976   38.7170 H   0  0  0  0  0  0  0  0  0  0  0  0
   43.7978   36.6926   44.8412 H   0  0  0  0  0  0  0  0  0  0  0  0
   45.1055   36.5745   42.7336 H   0  0  0  0  0  0  0  0  0  0  0  0
   45.7747   33.1876   46.1942 H   0  0  0  0  0  0  0  0  0  0  0  0
   45.3220   32.1684   40.7633 H   0  0  0  0  0  0  0  0  0  0  0  0
   45.1408   32.3848   36.9402 H   0  0  0  0  0  0  0  0  0  0  0  0
   45.9576   32.3481   34.6035 H   0  0  0  0  0  0  0  0  0  0  0  0
   49.7257   33.2970   34.2879 H   0  0  0  0  0  0  0  0  0  0  0  0
   47.5432   31.9554   32.6143 H   0  0  0  0  0  0  0  0  0  0  0  0
   47.6719   33.7091   32.9135 H   0  0  0  0  0  0  0  0  0  0  0  0
   48.7646   33.1156   30.7497 H   0  0  0  0  0  0  0  0  0  0  0  0
   49.9943   33.6855   31.9110 H   0  0  0  0  0  0  0  0  0  0  0  0
   49.2555   30.7301   31.4646 H   0  0  0  0  0  0  0  0  0  0  0  0
   50.6570   31.5236   30.7112 H   0  0  0  0  0  0  0  0  0  0  0  0
   51.3809   30.4475   32.7699 H   0  0  0  0  0  0  0  0  0  0  0  0
   51.4067   32.2253   33.0204 H   0  0  0  0  0  0  0  0  0  0  0  0
   49.1323   30.3549   33.8111 H   0  0  0  0  0  0  0  0  0  0  0  0
   50.3587   31.0175   34.9282 H   0  0  0  0  0  0  0  0  0  0  0  0
  1 13  1  0
  1  2  2  0
  2  9  1  0
  3  2  1  0
  4  3  2  0
  5  6  2  0
  5  4  1  0
  6  1  1  0
  7 12  2  0
  8  7  1  0
  9  8  2  0
  9 10  1  0
 10 11  2  0
 11 12  1  0
 14  6  1  0
 15 14  1  0
 16 15  2  0
 17 16  1  0
 18 17  2  0
 18 19  1  0
 19 15  1  0
 20 18  1  0
 21 20  1  0
 22 21  1  0
 23 22  1  0
 23 24  1  0
 24 25  1  0
 25 20  1  0
  3 26  1  0
  4 27  1  0
  5 28  1  0
  7 29  1  0
  8 30  1  0
 11 31  1  0
 13 32  1  0
 16 33  1  0
 17 34  1  0
 20 35  1  0
 21 36  1  0
 21 37  1  0
 22 38  1  0
 22 39  1  0
 23 40  1  0
 23 41  1  0
 24 42  1  0
 24 43  1  0
 25 44  1  0
 25 45  1  0
M  ISO  8  26  14  27  14  28  14  29  14  30  14  31  14  32   3  33  14
M  ISO  8  34  14  35  13  36  13  37  13  38  13  39  13  40  13  41  13
M  ISO  4  42  13  43  13  44  13  45  13
M  END
>  <minimizedAffinity>  (1) 
-6.53181648

>  <minimizedRMSD>  (1) 
1.28279603

$$$$
