
     RDKit          3D

 36 38  0  0  1  0  0  0  0  0999 V2000
   44.5330   34.9580   43.4800 C   0  0  1  0  0  0  0  0  0  0  0  0
   45.1340   36.3290   43.1060 C   0  0  0  0  0  0  0  0  0  0  0  0
   44.6330   35.3560   42.0760 C   0  0  2  0  0  0  0  0  0  0  0  0
   45.5130   34.0200   44.0960 C   0  0  0  0  0  0  0  0  0  0  0  0
   46.5440   33.4750   43.2870 C   0  0  0  0  0  0  0  0  0  0  0  0
   47.4530   32.6150   43.8850 C   0  0  0  0  0  0  0  0  0  0  0  0
   47.3080   32.3440   45.2050 N   0  0  0  0  0  0  0  0  0  0  0  0
   46.3100   32.8840   45.9460 C   0  0  0  0  0  0  0  0  0  0  0  0
   45.4100   33.7270   45.3790 N   0  0  0  0  0  0  0  0  0  0  0  0
   46.3360   32.4590   47.3840 C   0  0  0  0  0  0  0  0  0  0  0  0
   45.2980   33.0130   48.0960 F   0  0  0  0  0  0  0  0  0  0  0  0
   47.5360   32.8660   47.9730 F   0  0  0  0  0  0  0  0  0  0  0  0
   46.3350   31.0710   47.4410 F   0  0  0  0  0  0  0  0  0  0  0  0
   43.4250   35.6460   41.2440 C   0  0  0  0  0  0  0  0  0  0  0  0
   42.2030   35.5170   42.1160 C   0  0  0  0  0  0  0  0  0  0  0  0
   41.0200   34.8960   41.4200 C   0  0  0  0  0  0  0  0  0  0  0  0
   40.8940   35.3090   39.9840 C   0  0  0  0  0  0  0  0  0  0  0  0
   42.1810   35.1320   39.2130 C   0  0  0  0  0  0  0  0  0  0  0  0
   43.3120   34.6700   40.1140 C   0  0  0  0  0  0  0  0  0  0  0  0
   43.6958   34.5595   44.0719 H   0  0  0  0  0  0  0  0  0  0  0  0
   44.5790   37.2558   43.3133 H   0  0  0  0  0  0  0  0  0  0  0  0
   46.0765   36.8615   43.3014 H   0  0  0  0  0  0  0  0  0  0  0  0
   45.0776   34.8898   41.1844 H   0  0  0  0  0  0  0  0  0  0  0  0
   46.6197   33.7269   42.2189 H   0  0  0  0  0  0  0  0  0  0  0  0
   48.2705   32.1645   43.3030 H   0  0  0  0  0  0  0  0  0  0  0  0
   43.5106   36.6612   40.8292 H   0  0  0  0  0  0  0  0  0  0  0  0
   42.4612   34.8927   42.9841 H   0  0  0  0  0  0  0  0  0  0  0  0
   41.9060   36.5366   42.4028 H   0  0  0  0  0  0  0  0  0  0  0  0
   41.1255   33.8018   41.4608 H   0  0  0  0  0  0  0  0  0  0  0  0
   40.1156   35.2444   41.9402 H   0  0  0  0  0  0  0  0  0  0  0  0
   40.1121   34.6981   39.5091 H   0  0  0  0  0  0  0  0  0  0  0  0
   40.6398   36.3791   39.9664 H   0  0  0  0  0  0  0  0  0  0  0  0
   42.0242   34.3822   38.4236 H   0  0  0  0  0  0  0  0  0  0  0  0
   42.4601   36.1042   38.7808 H   0  0  0  0  0  0  0  0  0  0  0  0
   43.0913   33.6666   40.5069 H   0  0  0  0  0  0  0  0  0  0  0  0
   44.2562   34.6224   39.5516 H   0  0  0  0  0  0  0  0  0  0  0  0
  1  4  1  0
  2  1  1  0
  3  2  1  0
  3  1  1  0
  4  9  2  0
  5  6  2  0
  5  4  1  0
  6  7  1  0
  7  8  2  0
  8 10  1  0
  9  8  1  0
 10 13  1  0
 10 12  1  0
 10 11  1  0
 14  3  1  0
 14 15  1  0
 16 15  1  0
 17 16  1  0
 18 17  1  0
 18 19  1  0
 19 14  1  0
  1 20  1  1
  2 21  1  0
  2 22  1  0
  3 23  1  6
  5 24  1  0
  6 25  1  0
 14 26  1  0
 15 27  1  0
 15 28  1  0
 16 29  1  0
 16 30  1  0
 17 31  1  0
 17 32  1  0
 18 33  1  0
 18 34  1  0
 19 35  1  0
 19 36  1  0
M  ISO  8  20  13  21  13  22  13  23  13  24  14  25  14  26  13  27  13
M  ISO  8  28  13  29  13  30  13  31  13  32  13  33  13  34  13  35  13
M  ISO  1  36  13
M  END
>  <minimizedAffinity>  (1) 
-5.3817687

>  <minimizedRMSD>  (1) 
1.08423448

$$$$
