
     RDKit          3D

 28 29  0  0  0  0  0  0  0  0999 V2000
   45.9640   33.4440   45.9200 C   0  0  0  0  0  0  0  0  0  0  0  0
   44.9540   34.4090   46.0870 C   0  0  0  0  0  0  0  0  0  0  0  0
   44.7090   35.2710   45.0310 C   0  0  0  0  0  0  0  0  0  0  0  0
   45.4530   35.1350   43.9040 N   0  0  0  0  0  0  0  0  0  0  0  0
   46.4120   34.2030   43.7750 C   0  0  0  0  0  0  0  0  0  0  0  0
   46.6730   33.3420   44.7980 N   0  0  0  0  0  0  0  0  0  0  0  0
   47.1550   34.1510   42.5030 C   0  0  0  0  0  0  0  0  0  0  0  0
   46.4010   33.4550   41.4000 C   0  0  0  0  0  0  0  0  0  0  0  0
   46.8270   33.9440   40.0390 C   0  0  0  0  0  0  0  0  0  0  0  0
   48.2760   34.3410   39.9850 C   0  0  0  0  0  0  0  0  0  0  0  0
   48.6920   35.3090   41.0660 C   0  0  0  0  0  0  0  0  0  0  0  0
   47.4720   35.5530   41.9620 C   0  0  0  0  0  0  0  0  0  0  0  0
   44.2740   34.4010   47.3440 N   0  0  0  0  0  0  0  0  0  0  0  0
   46.1754   32.7490   46.7460 H   0  0  0  0  0  0  0  0  0  0  0  0
   43.9316   36.0458   45.1038 H   0  0  0  0  0  0  0  0  0  0  0  0
   48.0691   33.5942   42.7566 H   0  0  0  0  0  0  0  0  0  0  0  0
   46.5908   32.3735   41.4658 H   0  0  0  0  0  0  0  0  0  0  0  0
   45.3305   33.6755   41.5241 H   0  0  0  0  0  0  0  0  0  0  0  0
   46.6563   33.1397   39.3082 H   0  0  0  0  0  0  0  0  0  0  0  0
   46.2314   34.8399   39.8098 H   0  0  0  0  0  0  0  0  0  0  0  0
   48.8869   33.4315   40.0824 H   0  0  0  0  0  0  0  0  0  0  0  0
   48.4278   34.8549   39.0244 H   0  0  0  0  0  0  0  0  0  0  0  0
   49.5132   34.8796   41.6587 H   0  0  0  0  0  0  0  0  0  0  0  0
   49.0436   36.2535   40.6253 H   0  0  0  0  0  0  0  0  0  0  0  0
   47.7148   36.2470   42.7802 H   0  0  0  0  0  0  0  0  0  0  0  0
   46.6272   36.0130   41.4284 H   0  0  0  0  0  0  0  0  0  0  0  0
   43.5242   35.0827   47.5283 H   0  0  0  0  0  0  0  0  0  0  0  0
   44.5337   33.7135   48.0657 H   0  0  0  0  0  0  0  0  0  0  0  0
  1  2  2  0
  2 13  1  0
  3  2  1  0
  4  3  2  0
  5  4  1  0
  5  6  2  0
  6  1  1  0
  7  5  1  0
  8  7  1  0
  9  8  1  0
 10  9  1  0
 10 11  1  0
 11 12  1  0
 12  7  1  0
  1 14  1  0
  3 15  1  0
  7 16  1  0
  8 17  1  0
  8 18  1  0
  9 19  1  0
  9 20  1  0
 10 21  1  0
 10 22  1  0
 11 23  1  0
 11 24  1  0
 12 25  1  0
 12 26  1  0
 13 27  1  0
 13 28  1  0
M  ISO  8  14  14  15  14  16  13  17  13  18  13  19  13  20  13  21  13
M  ISO  5  22  13  23  13  24  13  25  13  26  13
M  END
>  <minimizedAffinity>  (1) 
-5.11781454

>  <minimizedRMSD>  (1) 
5.65111113

$$$$
