
     RDKit          3D

 28 29  0  0  0  0  0  0  0  0999 V2000
   44.0440   34.7780   41.2040 C   0  0  0  0  0  0  0  0  0  0  0  0
   45.2950   34.2390   40.8630 C   0  0  0  0  0  0  0  0  0  0  0  0
   46.3950   34.5720   41.6470 C   0  0  0  0  0  0  0  0  0  0  0  0
   46.1940   35.4070   42.7080 N   0  0  0  0  0  0  0  0  0  0  0  0
   44.9750   35.9160   43.0180 C   0  0  0  0  0  0  0  0  0  0  0  0
   43.9100   35.5950   42.2600 N   0  0  0  0  0  0  0  0  0  0  0  0
   47.7400   34.0260   41.3270 C   0  0  0  0  0  0  0  0  0  0  0  0
   48.1780   33.0310   42.3610 C   0  0  0  0  0  0  0  0  0  0  0  0
   49.6600   32.8280   42.4320 C   0  0  0  0  0  0  0  0  0  0  0  0
   50.4550   34.0960   42.3910 C   0  0  0  0  0  0  0  0  0  0  0  0
   49.4980   35.2900   42.4920 C   0  0  0  0  0  0  0  0  0  0  0  0
   48.6700   35.2040   41.2030 C   0  0  0  0  0  0  0  0  0  0  0  0
   45.4210   33.3690   39.7330 C   0  0  0  0  0  0  0  0  0  0  0  0
   44.4860   33.3190   38.9090 O   0  0  0  0  0  0  0  0  0  0  0  0
   43.1616   34.5270   40.5970 H   0  0  0  0  0  0  0  0  0  0  0  0
   44.8580   36.5861   43.8825 H   0  0  0  0  0  0  0  0  0  0  0  0
   47.7347   33.4659   40.3803 H   0  0  0  0  0  0  0  0  0  0  0  0
   47.8307   33.3806   43.3444 H   0  0  0  0  0  0  0  0  0  0  0  0
   47.7410   32.0637   42.0724 H   0  0  0  0  0  0  0  0  0  0  0  0
   49.8921   32.3054   43.3717 H   0  0  0  0  0  0  0  0  0  0  0  0
   49.9430   32.2481   41.5411 H   0  0  0  0  0  0  0  0  0  0  0  0
   51.1602   34.1164   43.2350 H   0  0  0  0  0  0  0  0  0  0  0  0
   51.0184   34.1506   41.4478 H   0  0  0  0  0  0  0  0  0  0  0  0
   48.8532   35.2017   43.3788 H   0  0  0  0  0  0  0  0  0  0  0  0
   50.0245   36.2501   42.5966 H   0  0  0  0  0  0  0  0  0  0  0  0
   49.3367   35.0643   40.3393 H   0  0  0  0  0  0  0  0  0  0  0  0
   48.0963   36.1306   41.0540 H   0  0  0  0  0  0  0  0  0  0  0  0
   46.3244   32.7569   39.5943 H   0  0  0  0  0  0  0  0  0  0  0  0
  1  6  2  0
  2  1  1  0
  2  3  2  0
  3  4  1  0
  4  5  2  0
  6  5  1  0
  7  3  1  0
  7  8  1  0
  8  9  1  0
 10  9  1  0
 10 11  1  0
 12  7  1  0
 12 11  1  0
 13  2  1  0
 14 13  2  0
  1 15  1  0
  5 16  1  0
  7 17  1  0
  8 18  1  0
  8 19  1  0
  9 20  1  0
  9 21  1  0
 10 22  1  0
 10 23  1  0
 11 24  1  0
 11 25  1  0
 12 26  1  0
 12 27  1  0
 13 28  1  0
M  ISO  8  15  14  16  14  17  13  18  13  19  13  20  13  21  13  22  13
M  ISO  6  23  13  24  13  25  13  26  13  27  13  28   6
M  END
>  <minimizedAffinity>  (1) 
-4.41248512

>  <minimizedRMSD>  (1) 
2.85655046

$$$$
