
     RDKit          3D

 51 54  0  0  1  0  0  0  0  0999 V2000
   44.5680   35.5580   44.5820 C   0  0  0  0  0  0  0  0  0  0  0  0
   45.2490   35.5830   43.3430 C   0  0  0  0  0  0  0  0  0  0  0  0
   46.3440   34.7030   43.1720 C   0  0  0  0  0  0  0  0  0  0  0  0
   46.6880   33.8810   44.2000 N   0  0  0  0  0  0  0  0  0  0  0  0
   46.0150   33.8870   45.3640 C   0  0  0  0  0  0  0  0  0  0  0  0
   44.9510   34.7260   45.5620 N   0  0  0  0  0  0  0  0  0  0  0  0
   46.4410   32.9660   46.4560 C   0  0  2  0  0  0  0  0  0  0  0  0
   46.9710   31.7410   45.7640 C   0  0  0  0  0  0  0  0  0  0  0  0
   46.0980   30.5540   45.7810 C   0  0  0  0  0  0  0  0  0  0  0  0
   45.7800   30.2870   47.2460 C   0  0  0  0  0  0  0  0  0  0  0  0
   44.9990   31.3650   47.8440 C   0  0  0  0  0  0  0  0  0  0  0  0
   45.3760   32.7350   47.4060 C   0  0  0  0  0  0  0  0  0  0  0  0
   44.6880   33.8760   47.9180 N   0  0  0  0  0  0  0  0  0  0  0  0
   47.0620   34.7020   41.9120 C   0  0  0  0  0  0  0  0  0  0  0  0
   48.1770   35.4720   41.8090 C   0  0  0  0  0  0  0  0  0  0  0  0
   48.8470   35.4470   40.5740 C   0  0  0  0  0  0  0  0  0  0  0  0
   48.3070   34.6440   39.5920 C   0  0  0  0  0  0  0  0  0  0  0  0
   47.1870   33.8740   39.7020 C   0  0  0  0  0  0  0  0  0  0  0  0
   46.5820   33.9360   40.9140 N   0  0  0  0  0  0  0  0  0  0  0  0
   46.6350   33.0200   38.6190 C   0  0  0  0  0  0  0  0  0  0  0  0
   47.1850   31.6200   38.6640 C   0  0  0  0  0  0  0  0  0  0  0  0
   47.2060   31.0800   37.2510 C   0  0  0  0  0  0  0  0  0  0  0  0
   48.3150   31.7570   36.4630 C   0  0  0  0  0  0  0  0  0  0  0  0
   48.3390   33.2320   36.8100 C   0  0  0  0  0  0  0  0  0  0  0  0
   46.9510   33.5920   37.2470 C   0  0  0  0  0  0  0  0  0  0  0  0
   43.7124   36.2300   44.7444 H   0  0  0  0  0  0  0  0  0  0  0  0
   44.9376   36.2647   42.5378 H   0  0  0  0  0  0  0  0  0  0  0  0
   47.2342   33.3884   47.0903 H   0  0  0  0  0  0  0  0  0  0  0  0
   47.9199   31.4665   46.2480 H   0  0  0  0  0  0  0  0  0  0  0  0
   47.0667   32.0203   44.7044 H   0  0  0  0  0  0  0  0  0  0  0  0
   45.1732   30.7518   45.2192 H   0  0  0  0  0  0  0  0  0  0  0  0
   46.5867   29.6880   45.3108 H   0  0  0  0  0  0  0  0  0  0  0  0
   45.2069   29.3510   47.3196 H   0  0  0  0  0  0  0  0  0  0  0  0
   46.7325   30.2161   47.7917 H   0  0  0  0  0  0  0  0  0  0  0  0
   44.1905   31.1777   48.5660 H   0  0  0  0  0  0  0  0  0  0  0  0
   43.9230   33.7543   48.5969 H   0  0  0  0  0  0  0  0  0  0  0  0
   44.9565   34.8210   47.6086 H   0  0  0  0  0  0  0  0  0  0  0  0
   48.5367   36.0837   42.6495 H   0  0  0  0  0  0  0  0  0  0  0  0
   49.7575   36.0390   40.3994 H   0  0  0  0  0  0  0  0  0  0  0  0
   48.8310   34.6223   38.6250 H   0  0  0  0  0  0  0  0  0  0  0  0
   45.5478   32.9959   38.7846 H   0  0  0  0  0  0  0  0  0  0  0  0
   48.2057   31.6330   39.0738 H   0  0  0  0  0  0  0  0  0  0  0  0
   46.5586   30.9840   39.3067 H   0  0  0  0  0  0  0  0  0  0  0  0
   47.3848   29.9949   37.2764 H   0  0  0  0  0  0  0  0  0  0  0  0
   46.2387   31.2826   36.7681 H   0  0  0  0  0  0  0  0  0  0  0  0
   48.1292   31.6348   35.3857 H   0  0  0  0  0  0  0  0  0  0  0  0
   49.2829   31.3002   36.7171 H   0  0  0  0  0  0  0  0  0  0  0  0
   49.0538   33.4186   37.6250 H   0  0  0  0  0  0  0  0  0  0  0  0
   48.6526   33.8375   35.9468 H   0  0  0  0  0  0  0  0  0  0  0  0
   46.8613   34.6876   37.2869 H   0  0  0  0  0  0  0  0  0  0  0  0
   46.2395   33.1678   36.5232 H   0  0  0  0  0  0  0  0  0  0  0  0
  1  6  2  0
  2  1  1  0
  3  2  2  0
  3  4  1  0
  4  5  2  0
  5  6  1  0
  5  7  1  0
  7 12  1  0
  8  9  1  0
  8  7  1  0
  9 10  1  0
 10 11  1  0
 12 11  2  0
 12 13  1  0
 14  3  1  0
 15 14  2  0
 16 15  1  0
 17 18  1  0
 17 16  2  0
 18 19  2  0
 19 14  1  0
 20 21  1  0
 20 18  1  0
 22 21  1  0
 23 24  1  0
 23 22  1  0
 24 25  1  0
 25 20  1  0
  1 26  1  0
  2 27  1  0
  7 28  1  1
  8 29  1  0
  8 30  1  0
  9 31  1  0
  9 32  1  0
 10 33  1  0
 10 34  1  0
 11 35  1  0
 13 36  1  0
 13 37  1  0
 15 38  1  0
 16 39  1  0
 17 40  1  0
 20 41  1  0
 21 42  1  0
 21 43  1  0
 22 44  1  0
 22 45  1  0
 23 46  1  0
 23 47  1  0
 24 48  1  0
 24 49  1  0
 25 50  1  0
 25 51  1  0
M  ISO  8  26  14  27  14  28  13  29  13  30  13  31  13  32  13  33  13
M  ISO  8  34  13  35  13  38  14  39  14  40  14  41  13  42  13  43  13
M  ISO  8  44  13  45  13  46  13  47  13  48  13  49  13  50  13  51  13
M  END
>  <minimizedAffinity>  (1) 
-7.41336441

>  <minimizedRMSD>  (1) 
0.262082964

$$$$
