
     RDKit          3D

 39 41  0  0  0  0  0  0  0  0999 V2000
   47.3690   31.7440   44.7890 Cl  0  0  0  0  0  0  0  0  0  0  0  0
   46.6190   31.8930   46.3640 C   0  0  0  0  0  0  0  0  0  0  0  0
   45.8100   32.9760   46.5890 C   0  0  0  0  0  0  0  0  0  0  0  0
   45.2270   33.1050   47.8030 C   0  0  0  0  0  0  0  0  0  0  0  0
   45.4580   32.1460   48.7840 C   0  0  0  0  0  0  0  0  0  0  0  0
   46.2700   31.0690   48.5420 C   0  0  0  0  0  0  0  0  0  0  0  0
   46.8950   30.9010   47.2910 C   0  0  0  0  0  0  0  0  0  0  0  0
   44.5360   35.8450   44.7040 C   0  0  0  0  0  0  0  0  0  0  0  0
   45.2340   35.7880   43.4780 C   0  0  0  0  0  0  0  0  0  0  0  0
   46.1550   34.7210   43.3400 C   0  0  0  0  0  0  0  0  0  0  0  0
   46.2940   33.8530   44.3730 N   0  0  0  0  0  0  0  0  0  0  0  0
   45.5980   33.9580   45.5220 C   0  0  0  0  0  0  0  0  0  0  0  0
   44.7190   34.9610   45.6780 N   0  0  0  0  0  0  0  0  0  0  0  0
   46.8610   34.6900   42.0600 C   0  0  0  0  0  0  0  0  0  0  0  0
   47.6580   33.5600   42.0280 F   0  0  0  0  0  0  0  0  0  0  0  0
   47.7260   35.7610   42.0540 F   0  0  0  0  0  0  0  0  0  0  0  0
   46.0140   34.6500   40.9770 F   0  0  0  0  0  0  0  0  0  0  0  0
   47.7510   29.7270   47.0600 C   0  0  0  0  0  0  0  0  0  0  0  0
   46.9370   28.4670   47.2010 C   0  0  0  0  0  0  0  0  0  0  0  0
   47.7130   27.2010   47.1560 C   0  0  0  0  0  0  0  0  0  0  0  0
   49.1600   27.3010   47.4790 C   0  0  0  0  0  0  0  0  0  0  0  0
   49.4620   28.4690   48.3880 C   0  0  0  0  0  0  0  0  0  0  0  0
   49.0330   29.7840   47.7850 C   0  0  0  0  0  0  0  0  0  0  0  0
   44.5733   33.9643   48.0134 H   0  0  0  0  0  0  0  0  0  0  0  0
   44.9813   32.2540   49.7695 H   0  0  0  0  0  0  0  0  0  0  0  0
   46.4360   30.3255   49.3356 H   0  0  0  0  0  0  0  0  0  0  0  0
   43.8096   36.6563   44.8590 H   0  0  0  0  0  0  0  0  0  0  0  0
   45.0724   36.5268   42.6792 H   0  0  0  0  0  0  0  0  0  0  0  0
   48.1049   29.7264   46.0185 H   0  0  0  0  0  0  0  0  0  0  0  0
   46.4107   28.5088   48.1660 H   0  0  0  0  0  0  0  0  0  0  0  0
   46.2632   28.4416   46.3319 H   0  0  0  0  0  0  0  0  0  0  0  0
   47.2573   26.5034   47.8741 H   0  0  0  0  0  0  0  0  0  0  0  0
   47.6698   26.8690   46.1082 H   0  0  0  0  0  0  0  0  0  0  0  0
   49.4767   26.3730   47.9775 H   0  0  0  0  0  0  0  0  0  0  0  0
   49.7065   27.4559   46.5370 H   0  0  0  0  0  0  0  0  0  0  0  0
   48.9294   28.3247   49.3396 H   0  0  0  0  0  0  0  0  0  0  0  0
   50.5506   28.5060   48.5412 H   0  0  0  0  0  0  0  0  0  0  0  0
   49.8127   30.1116   47.0816 H   0  0  0  0  0  0  0  0  0  0  0  0
   48.8920   30.4841   48.6216 H   0  0  0  0  0  0  0  0  0  0  0  0
  1  2  1  0
  2  3  2  0
  2  7  1  0
  3  4  1  0
  4  5  2  0
  6  5  1  0
  7  6  2  0
  8 13  2  0
  9  8  1  0
 10  9  2  0
 10 11  1  0
 11 12  2  0
 12 13  1  0
 12  3  1  0
 14 10  1  0
 15 14  1  0
 16 14  1  0
 17 14  1  0
 18 19  1  0
 18  7  1  0
 18 23  1  0
 20 19  1  0
 20 21  1  0
 21 22  1  0
 23 22  1  0
  4 24  1  0
  5 25  1  0
  6 26  1  0
  8 27  1  0
  9 28  1  0
 18 29  1  0
 19 30  1  0
 19 31  1  0
 20 32  1  0
 20 33  1  0
 21 34  1  0
 21 35  1  0
 22 36  1  0
 22 37  1  0
 23 38  1  0
 23 39  1  0
M  ISO  8  24  14  25  14  26  14  27  14  28  14  29  13  30  13  31  13
M  ISO  8  32  13  33  13  34  13  35  13  36  13  37  13  38  13  39  13
M  END
>  <minimizedAffinity>  (1) 
-6.15389872

>  <minimizedRMSD>  (1) 
1.22169638

$$$$
