
     RDKit          3D

 32 33  0  0  0  0  0  0  0  0999 V2000
   46.5800   34.7710   41.7740 C   0  0  0  0  0  0  0  0  0  0  0  0
   44.5150   36.0530   44.6490 C   0  0  0  0  0  0  0  0  0  0  0  0
   45.1240   35.9480   43.3900 C   0  0  0  0  0  0  0  0  0  0  0  0
   45.9450   34.8660   43.1130 C   0  0  0  0  0  0  0  0  0  0  0  0
   46.1130   33.9500   44.1060 N   0  0  0  0  0  0  0  0  0  0  0  0
   45.5200   34.0720   45.3070 C   0  0  0  0  0  0  0  0  0  0  0  0
   44.7300   35.1010   45.5890 N   0  0  0  0  0  0  0  0  0  0  0  0
   47.9840   35.3070   41.8670 C   0  0  0  0  0  0  0  0  0  0  0  0
   49.0420   34.3580   41.3790 C   0  0  0  0  0  0  0  0  0  0  0  0
   50.1460   34.3390   42.3970 C   0  0  0  0  0  0  0  0  0  0  0  0
   50.7030   32.9580   42.6340 C   0  0  0  0  0  0  0  0  0  0  0  0
   50.8910   32.3360   41.2520 C   0  0  0  0  0  0  0  0  0  0  0  0
   49.5200   32.0080   40.7340 C   0  0  0  0  0  0  0  0  0  0  0  0
   48.4630   32.9910   41.0900 C   0  0  0  0  0  0  0  0  0  0  0  0
   46.0044   35.3644   41.0483 H   0  0  0  0  0  0  0  0  0  0  0  0
   46.6001   33.7225   41.4420 H   0  0  0  0  0  0  0  0  0  0  0  0
   43.8620   36.9092   44.8737 H   0  0  0  0  0  0  0  0  0  0  0  0
   44.9510   36.7204   42.6262 H   0  0  0  0  0  0  0  0  0  0  0  0
   45.6935   33.3018   46.0729 H   0  0  0  0  0  0  0  0  0  0  0  0
   48.0422   36.2264   41.2659 H   0  0  0  0  0  0  0  0  0  0  0  0
   48.1848   35.4805   42.9345 H   0  0  0  0  0  0  0  0  0  0  0  0
   49.4584   34.6953   40.4184 H   0  0  0  0  0  0  0  0  0  0  0  0
   50.9597   34.9897   42.0443 H   0  0  0  0  0  0  0  0  0  0  0  0
   49.7227   34.6917   43.3491 H   0  0  0  0  0  0  0  0  0  0  0  0
   51.6674   33.0200   43.1594 H   0  0  0  0  0  0  0  0  0  0  0  0
   50.0289   32.3539   43.2590 H   0  0  0  0  0  0  0  0  0  0  0  0
   51.3890   33.0502   40.5798 H   0  0  0  0  0  0  0  0  0  0  0  0
   51.5185   31.4342   41.3069 H   0  0  0  0  0  0  0  0  0  0  0  0
   49.2266   31.0289   41.1406 H   0  0  0  0  0  0  0  0  0  0  0  0
   49.5946   32.0200   39.6366 H   0  0  0  0  0  0  0  0  0  0  0  0
   47.7564   33.0737   40.2510 H   0  0  0  0  0  0  0  0  0  0  0  0
   47.9569   32.6347   41.9993 H   0  0  0  0  0  0  0  0  0  0  0  0
  1  8  1  0
  1  4  1  0
  2  7  2  0
  3  2  1  0
  4  3  2  0
  4  5  1  0
  5  6  2  0
  6  7  1  0
  9  8  1  0
  9 10  1  0
 10 11  1  0
 12 11  1  0
 13 14  1  0
 13 12  1  0
 14  9  1  0
  1 15  1  0
  1 16  1  0
  2 17  1  0
  3 18  1  0
  6 19  1  0
  8 20  1  0
  8 21  1  0
  9 22  1  0
 10 23  1  0
 10 24  1  0
 11 25  1  0
 11 26  1  0
 12 27  1  0
 12 28  1  0
 13 29  1  0
 13 30  1  0
 14 31  1  0
 14 32  1  0
M  ISO  8  15   8  16   8  17  14  18  14  19  14  20   8  21   8  22  13
M  ISO  8  23  13  24  13  25  13  26  13  27  13  28  13  29  13  30  13
M  ISO  2  31  13  32  13
M  END
>  <minimizedAffinity>  (1) 
-4.63314629

>  <minimizedRMSD>  (1) 
2.79342914

$$$$
