
     RDKit          3D

 34 36  0  0  1  0  0  0  0  0999 V2000
   44.7010   33.0700   41.1550 Br  0  0  0  0  0  0  0  0  0  0  0  0
   46.3820   33.9770   40.9220 C   0  0  0  0  0  0  0  0  0  0  0  0
   46.8850   34.7620   41.9280 C   0  0  0  0  0  0  0  0  0  0  0  0
   48.0980   35.4160   41.7570 C   0  0  0  0  0  0  0  0  0  0  0  0
   48.7790   35.2690   40.5860 C   0  0  0  0  0  0  0  0  0  0  0  0
   48.2260   34.4640   39.6000 C   0  0  0  0  0  0  0  0  0  0  0  0
   47.0490   33.8110   39.7260 C   0  0  0  0  0  0  0  0  0  0  0  0
   45.6220   34.0600   45.2830 C   0  0  0  0  0  0  0  0  0  0  0  0
   44.6990   35.1050   45.5190 C   0  0  0  0  0  0  0  0  0  0  0  0
   44.5360   36.0380   44.4980 C   0  0  0  0  0  0  0  0  0  0  0  0
   45.2530   35.9050   43.3470 N   0  0  0  0  0  0  0  0  0  0  0  0
   46.1280   34.8910   43.1600 C   0  0  0  0  0  0  0  0  0  0  0  0
   46.3040   33.9700   44.1390 N   0  0  0  0  0  0  0  0  0  0  0  0
   46.5030   32.9500   38.6130 C   0  0  2  0  0  0  0  0  0  0  0  0
   46.9660   31.5340   38.7590 C   0  0  0  0  0  0  0  0  0  0  0  0
   47.3800   30.8060   37.5500 C   0  0  0  0  0  0  0  0  0  0  0  0
   47.1690   31.5050   36.2360 C   0  0  0  0  0  0  0  0  0  0  0  0
   47.7470   32.9110   36.4330 C   0  0  0  0  0  0  0  0  0  0  0  0
   46.7140   33.5960   37.2970 C   0  0  0  0  0  0  0  0  0  0  0  0
   48.5057   36.0474   42.5602 H   0  0  0  0  0  0  0  0  0  0  0  0
   49.7424   35.7754   40.4263 H   0  0  0  0  0  0  0  0  0  0  0  0
   48.7802   34.3501   38.6567 H   0  0  0  0  0  0  0  0  0  0  0  0
   45.7823   33.3010   46.0629 H   0  0  0  0  0  0  0  0  0  0  0  0
   44.1376   35.1774   46.4622 H   0  0  0  0  0  0  0  0  0  0  0  0
   43.8338   36.8759   44.6198 H   0  0  0  0  0  0  0  0  0  0  0  0
   45.4084   32.8684   38.6851 H   0  0  0  0  0  0  0  0  0  0  0  0
   46.9959   31.0498   39.7463 H   0  0  0  0  0  0  0  0  0  0  0  0
   47.8220   29.8002   37.6046 H   0  0  0  0  0  0  0  0  0  0  0  0
   46.0970   31.5586   35.9951 H   0  0  0  0  0  0  0  0  0  0  0  0
   47.6542   30.9732   35.4042 H   0  0  0  0  0  0  0  0  0  0  0  0
   48.7209   32.8684   36.9427 H   0  0  0  0  0  0  0  0  0  0  0  0
   47.9306   33.4368   35.4844 H   0  0  0  0  0  0  0  0  0  0  0  0
   47.0397   34.6325   37.4691 H   0  0  0  0  0  0  0  0  0  0  0  0
   45.7577   33.5358   36.7567 H   0  0  0  0  0  0  0  0  0  0  0  0
  2  1  1  0
  2  3  2  0
  3 12  1  0
  4  3  1  0
  5  4  2  0
  6  7  2  0
  6  5  1  0
  7  2  1  0
  8  9  2  0
 10  9  1  0
 11 10  2  0
 12 11  1  0
 12 13  2  0
 13  8  1  0
 14 15  1  0
 14  7  1  0
 16 15  2  0
 17 18  1  0
 17 16  1  0
 18 19  1  0
 19 14  1  0
  4 20  1  0
  5 21  1  0
  6 22  1  0
  8 23  1  0
  9 24  1  0
 10 25  1  0
 14 26  1  1
 15 27  1  0
 16 28  1  0
 17 29  1  0
 17 30  1  0
 18 31  1  0
 18 32  1  0
 19 33  1  0
 19 34  1  0
M  ISO  8  20  14  21  14  22  14  23  14  24  14  25  14  26  13  27  13
M  ISO  7  28  13  29  13  30  13  31  13  32  13  33  13  34  13
M  END
>  <minimizedAffinity>  (1) 
-5.58372498

>  <minimizedRMSD>  (1) 
0.312588274

$$$$
