
     RDKit          3D

 49 52  0  0  1  0  0  0  0  0999 V2000
   43.3910   34.4730   40.7590 C   0  0  0  0  0  0  0  0  0  0  0  0
   43.3240   35.7330   40.5220 O   0  0  0  0  0  0  0  0  0  0  0  0
   42.0360   34.1030   40.3940 N   0  0  0  0  0  0  0  0  0  0  0  0
   41.6870   34.3830   39.0190 C   0  0  0  0  0  0  0  0  0  0  0  0
   40.8580   35.6840   39.0910 C   0  0  0  0  0  0  0  0  0  0  0  0
   40.0370   35.6000   40.3760 C   0  0  0  0  0  0  0  0  0  0  0  0
   39.7230   34.1480   40.7590 C   0  0  0  0  0  0  0  0  0  0  0  0
   41.0170   33.5060   41.2220 C   0  0  1  0  0  0  0  0  0  0  0  0
   40.9660   32.0310   41.2670 C   0  0  1  0  0  0  0  0  0  0  0  0
   41.9190   31.3160   42.1430 C   0  0  0  0  0  0  0  0  0  0  0  0
   41.9290   29.8680   41.7220 C   0  0  0  0  0  0  0  0  0  0  0  0
   40.6270   29.2760   41.3710 C   0  0  0  0  0  0  0  0  0  0  0  0
   39.4010   30.0740   41.5220 C   0  0  0  0  0  0  0  0  0  0  0  0
   39.6020   31.5500   41.7290 C   0  0  0  0  0  0  0  0  0  0  0  0
   44.4720   33.7890   41.2170 O   0  0  0  0  0  0  0  0  0  0  0  0
   45.7960   34.1220   41.0680 C   0  0  0  0  0  0  0  0  0  0  0  0
   46.4230   34.7500   42.1630 C   0  0  0  0  0  0  0  0  0  0  0  0
   47.7770   35.0830   41.9880 C   0  0  0  0  0  0  0  0  0  0  0  0
   48.3890   34.7840   40.8000 N   0  0  0  0  0  0  0  0  0  0  0  0
   47.7310   34.1850   39.8030 C   0  0  0  0  0  0  0  0  0  0  0  0
   46.4390   33.8560   39.9380 N   0  0  0  0  0  0  0  0  0  0  0  0
   45.6860   35.0200   43.3720 C   0  0  0  0  0  0  0  0  0  0  0  0
   45.0540   36.2440   43.5940 C   0  0  0  0  0  0  0  0  0  0  0  0
   44.4800   36.0830   44.8400 C   0  0  0  0  0  0  0  0  0  0  0  0
   44.7480   34.8480   45.3310 N   0  0  0  0  0  0  0  0  0  0  0  0
   45.4740   34.2360   44.4240 N   0  0  0  0  0  0  0  0  0  0  0  0
   41.0889   33.5632   38.5944 H   0  0  0  0  0  0  0  0  0  0  0  0
   42.5722   34.4848   38.3739 H   0  0  0  0  0  0  0  0  0  0  0  0
   41.5243   36.5587   39.1215 H   0  0  0  0  0  0  0  0  0  0  0  0
   40.2095   35.7936   38.2093 H   0  0  0  0  0  0  0  0  0  0  0  0
   40.6056   36.0685   41.1928 H   0  0  0  0  0  0  0  0  0  0  0  0
   39.0838   36.1222   40.2068 H   0  0  0  0  0  0  0  0  0  0  0  0
   38.9817   34.1262   41.5714 H   0  0  0  0  0  0  0  0  0  0  0  0
   39.3072   33.6027   39.8989 H   0  0  0  0  0  0  0  0  0  0  0  0
   41.2426   33.7076   42.2796 H   0  0  0  0  0  0  0  0  0  0  0  0
   41.2296   31.7923   40.2261 H   0  0  0  0  0  0  0  0  0  0  0  0
   42.9254   31.7457   42.0317 H   0  0  0  0  0  0  0  0  0  0  0  0
   41.6187   31.4092   43.1971 H   0  0  0  0  0  0  0  0  0  0  0  0
   42.8604   29.2843   41.6793 H   0  0  0  0  0  0  0  0  0  0  0  0
   40.5718   28.2427   40.9980 H   0  0  0  0  0  0  0  0  0  0  0  0
   38.7969   29.9399   40.6125 H   0  0  0  0  0  0  0  0  0  0  0  0
   38.9168   29.7070   42.4390 H   0  0  0  0  0  0  0  0  0  0  0  0
   39.4963   31.7717   42.8012 H   0  0  0  0  0  0  0  0  0  0  0  0
   38.8456   32.0739   41.1262 H   0  0  0  0  0  0  0  0  0  0  0  0
   48.3380   35.5774   42.7948 H   0  0  0  0  0  0  0  0  0  0  0  0
   48.2550   33.9598   38.8624 H   0  0  0  0  0  0  0  0  0  0  0  0
   45.0209   37.1246   42.9356 H   0  0  0  0  0  0  0  0  0  0  0  0
   43.8880   36.8498   45.3612 H   0  0  0  0  0  0  0  0  0  0  0  0
   44.4423   34.4652   46.2370 H   0  0  0  0  0  0  0  0  0  0  0  0
  1 15  1  0
  2  1  2  0
  3  1  1  0
  3  8  1  0
  4  5  1  0
  4  3  1  0
  5  6  1  0
  6  7  1  0
  7  8  1  0
  8  9  1  0
  9 14  1  0
  9 10  1  0
 11 10  1  0
 12 13  1  0
 12 11  2  0
 13 14  1  0
 16 15  1  0
 16 17  1  0
 17 22  1  0
 18 17  2  0
 19 18  1  0
 20 21  1  0
 20 19  2  0
 21 16  2  0
 22 23  1  0
 22 26  2  0
 23 24  2  0
 24 25  1  0
 26 25  1  0
  4 27  1  0
  4 28  1  0
  5 29  1  0
  5 30  1  0
  6 31  1  0
  6 32  1  0
  7 33  1  0
  7 34  1  0
  8 35  1  1
  9 36  1  6
 10 37  1  0
 10 38  1  0
 11 39  1  0
 12 40  1  0
 13 41  1  0
 13 42  1  0
 14 43  1  0
 14 44  1  0
 18 45  1  0
 20 46  1  0
 23 47  1  0
 24 48  1  0
 25 49  1  0
M  ISO  8  27  13  28  13  29  13  30  13  31  13  32  13  33  13  34  13
M  ISO  8  35  13  36  13  37  13  38  13  39  13  40  13  41  13  42  13
M  ISO  7  43  13  44  13  45  14  46  14  47  14  48  14  49   9
M  END
>  <minimizedAffinity>  (1) 
-6.75421906

>  <minimizedRMSD>  (1) 
0.691198766

$$$$
