
     RDKit          3D

 40 42  0  0  0  0  0  0  0  0999 V2000
   46.7490   34.8130   42.0850 N   0  0  0  0  0  0  0  0  0  0  0  0
   47.9560   35.5130   42.0380 C   0  0  0  0  0  0  0  0  0  0  0  0
   48.9070   35.0500   40.9610 C   0  0  0  0  0  0  0  0  0  0  0  0
   48.5970   33.9790   40.1570 N   0  0  0  0  0  0  0  0  0  0  0  0
   47.3120   33.4360   40.1770 C   0  0  0  0  0  0  0  0  0  0  0  0
   46.3120   34.2430   40.8460 C   0  0  0  0  0  0  0  0  0  0  0  0
   45.1790   35.9690   43.4190 C   0  0  0  0  0  0  0  0  0  0  0  0
   45.9900   34.8060   43.2960 C   0  0  0  0  0  0  0  0  0  0  0  0
   46.0920   33.8900   44.3100 C   0  0  0  0  0  0  0  0  0  0  0  0
   45.4050   34.1120   45.4590 N   0  0  0  0  0  0  0  0  0  0  0  0
   44.6220   35.2320   45.5920 C   0  0  0  0  0  0  0  0  0  0  0  0
   44.5050   36.1440   44.5980 N   0  0  0  0  0  0  0  0  0  0  0  0
   46.8010   32.5970   44.1910 C   0  0  0  0  0  0  0  0  0  0  0  0
   45.8780   31.6010   43.4000 C   0  0  0  0  0  0  0  0  0  0  0  0
   46.7530   30.4050   43.1810 C   0  0  0  0  0  0  0  0  0  0  0  0
   47.0950   29.7140   44.4480 C   0  0  0  0  0  0  0  0  0  0  0  0
   47.5710   30.6160   45.5450 C   0  0  0  0  0  0  0  0  0  0  0  0
   46.9980   31.9860   45.5220 C   0  0  0  0  0  0  0  0  0  0  0  0
   47.7304   36.5754   41.8635 H   0  0  0  0  0  0  0  0  0  0  0  0
   48.4599   35.3323   42.9989 H   0  0  0  0  0  0  0  0  0  0  0  0
   49.0640   35.9087   40.2917 H   0  0  0  0  0  0  0  0  0  0  0  0
   49.7659   34.6786   41.5392 H   0  0  0  0  0  0  0  0  0  0  0  0
   49.2440   33.2193   40.4124 H   0  0  0  0  0  0  0  0  0  0  0  0
   46.9890   33.2876   39.1360 H   0  0  0  0  0  0  0  0  0  0  0  0
   47.3845   32.5010   40.7519 H   0  0  0  0  0  0  0  0  0  0  0  0
   46.0234   35.0630   40.1720 H   0  0  0  0  0  0  0  0  0  0  0  0
   45.4737   33.5723   41.0854 H   0  0  0  0  0  0  0  0  0  0  0  0
   45.0969   36.6983   42.5996 H   0  0  0  0  0  0  0  0  0  0  0  0
   44.0744   35.3929   46.5324 H   0  0  0  0  0  0  0  0  0  0  0  0
   47.7670   32.7764   43.6964 H   0  0  0  0  0  0  0  0  0  0  0  0
   44.9901   31.3345   43.9921 H   0  0  0  0  0  0  0  0  0  0  0  0
   45.4960   32.0278   42.4609 H   0  0  0  0  0  0  0  0  0  0  0  0
   46.2259   29.6974   42.5240 H   0  0  0  0  0  0  0  0  0  0  0  0
   47.6915   30.7552   42.7265 H   0  0  0  0  0  0  0  0  0  0  0  0
   46.1976   29.1865   44.8035 H   0  0  0  0  0  0  0  0  0  0  0  0
   47.9316   29.0382   44.2169 H   0  0  0  0  0  0  0  0  0  0  0  0
   47.3081   30.1519   46.5070 H   0  0  0  0  0  0  0  0  0  0  0  0
   48.6550   30.7329   45.3993 H   0  0  0  0  0  0  0  0  0  0  0  0
   47.6732   32.6401   46.0932 H   0  0  0  0  0  0  0  0  0  0  0  0
   45.9889   31.8862   45.9483 H   0  0  0  0  0  0  0  0  0  0  0  0
  1  8  1  0
  2  1  1  0
  3  2  1  0
  4  5  1  0
  4  3  1  0
  5  6  1  0
  6  1  1  0
  7 12  2  0
  8  7  1  0
  8  9  2  0
  9 10  1  0
 10 11  2  0
 12 11  1  0
 13  9  1  0
 13 18  1  0
 14 13  1  0
 15 14  1  0
 15 16  1  0
 16 17  1  0
 18 17  1  0
  2 19  1  0
  2 20  1  0
  3 21  1  0
  3 22  1  0
  4 23  1  0
  5 24  1  0
  5 25  1  0
  6 26  1  0
  6 27  1  0
  7 28  1  0
 11 29  1  0
 13 30  1  0
 14 31  1  0
 14 32  1  0
 15 33  1  0
 15 34  1  0
 16 35  1  0
 16 36  1  0
 17 37  1  0
 17 38  1  0
 18 39  1  0
 18 40  1  0
M  ISO  8  19  13  20  13  21  13  22  13  23   5  24  13  25  13  26  13
M  ISO  8  27  13  28  14  29  14  30  13  31  13  32  13  33  13  34  13
M  ISO  6  35  13  36  13  37  13  38  13  39  13  40  13
M  END
>  <minimizedAffinity>  (1) 
-4.63652897

>  <minimizedRMSD>  (1) 
3.39476013

$$$$
