
     RDKit          3D

 33 35  0  0  0  0  0  0  0  0999 V2000
   44.5610   35.8910   44.3710 C   0  0  0  0  0  0  0  0  0  0  0  0
   45.2690   35.8560   43.1570 C   0  0  0  0  0  0  0  0  0  0  0  0
   46.2400   34.8690   43.0620 C   0  0  0  0  0  0  0  0  0  0  0  0
   46.4600   34.0060   44.1080 N   0  0  0  0  0  0  0  0  0  0  0  0
   45.7400   34.0860   45.2610 C   0  0  0  0  0  0  0  0  0  0  0  0
   44.7940   35.0340   45.3790 N   0  0  0  0  0  0  0  0  0  0  0  0
   47.0540   34.7070   41.8090 C   0  0  0  0  0  0  0  0  0  0  0  0
   48.3460   35.4940   41.8500 C   0  0  0  0  0  0  0  0  0  0  0  0
   48.2940   33.9440   41.8780 C   0  0  0  0  0  0  0  0  0  0  0  0
   46.1440   33.0550   46.2550 C   0  0  0  0  0  0  0  0  0  0  0  0
   46.2460   31.6720   45.6650 C   0  0  0  0  0  0  0  0  0  0  0  0
   47.1810   30.8760   46.5840 C   0  0  0  0  0  0  0  0  0  0  0  0
   46.7070   31.0550   47.9890 C   0  0  0  0  0  0  0  0  0  0  0  0
   45.3040   31.6410   48.0760 C   0  0  0  0  0  0  0  0  0  0  0  0
   45.2350   33.0120   47.4590 C   0  0  0  0  0  0  0  0  0  0  0  0
   43.7805   36.6551   44.5015 H   0  0  0  0  0  0  0  0  0  0  0  0
   45.0672   36.5625   42.3384 H   0  0  0  0  0  0  0  0  0  0  0  0
   46.1892   34.6294   41.1336 H   0  0  0  0  0  0  0  0  0  0  0  0
   48.7054   36.0249   40.9561 H   0  0  0  0  0  0  0  0  0  0  0  0
   48.7752   36.2878   42.4791 H   0  0  0  0  0  0  0  0  0  0  0  0
   48.5550   33.4023   42.7991 H   0  0  0  0  0  0  0  0  0  0  0  0
   48.7458   33.1414   41.2766 H   0  0  0  0  0  0  0  0  0  0  0  0
   47.1464   33.3700   46.5805 H   0  0  0  0  0  0  0  0  0  0  0  0
   45.2534   31.1991   45.6306 H   0  0  0  0  0  0  0  0  0  0  0  0
   46.6326   31.7055   44.6357 H   0  0  0  0  0  0  0  0  0  0  0  0
   47.1527   29.8102   46.3131 H   0  0  0  0  0  0  0  0  0  0  0  0
   48.2158   31.2345   46.4805 H   0  0  0  0  0  0  0  0  0  0  0  0
   46.7081   30.0740   48.4865 H   0  0  0  0  0  0  0  0  0  0  0  0
   47.3901   31.7654   48.4777 H   0  0  0  0  0  0  0  0  0  0  0  0
   44.6062   30.9759   47.5461 H   0  0  0  0  0  0  0  0  0  0  0  0
   45.0340   31.7289   49.1387 H   0  0  0  0  0  0  0  0  0  0  0  0
   45.5598   33.7638   48.1934 H   0  0  0  0  0  0  0  0  0  0  0  0
   44.2014   33.2301   47.1524 H   0  0  0  0  0  0  0  0  0  0  0  0
  1  6  2  0
  2  1  1  0
  3  2  2  0
  3  4  1  0
  4  5  2  0
  5  6  1  0
  5 10  1  0
  7  8  1  0
  7  9  1  0
  7  3  1  0
  8  9  1  0
 10 15  1  0
 11 10  1  0
 11 12  1  0
 12 13  1  0
 13 14  1  0
 15 14  1  0
  1 16  1  0
  2 17  1  0
  7 18  1  0
  8 19  1  0
  8 20  1  0
  9 21  1  0
  9 22  1  0
 10 23  1  0
 11 24  1  0
 11 25  1  0
 12 26  1  0
 12 27  1  0
 13 28  1  0
 13 29  1  0
 14 30  1  0
 14 31  1  0
 15 32  1  0
 15 33  1  0
M  ISO  8  16  14  17  14  18  13  19  13  20  13  21  13  22  13  23  13
M  ISO  8  24  13  25  13  26  13  27  13  28  13  29  13  30  13  31  13
M  ISO  2  32  13  33  13
M  END
>  <minimizedAffinity>  (1) 
-5.23948526

>  <minimizedRMSD>  (1) 
0.223768339

$$$$
