
     RDKit          3D

 45 48  0  0  0  0  0  0  0  0999 V2000
   41.5630   34.1120   38.8740 C   0  0  0  0  0  0  0  0  0  0  0  0
   40.4510   34.1070   38.0480 C   0  0  0  0  0  0  0  0  0  0  0  0
   39.1980   34.4070   38.5610 C   0  0  0  0  0  0  0  0  0  0  0  0
   39.0300   34.7130   39.8900 C   0  0  0  0  0  0  0  0  0  0  0  0
   40.1350   34.7160   40.7000 C   0  0  0  0  0  0  0  0  0  0  0  0
   41.4030   34.4210   40.2200 C   0  0  0  0  0  0  0  0  0  0  0  0
   42.5680   34.4320   41.1130 C   0  0  0  0  0  0  0  0  0  0  0  0
   43.2320   35.5590   41.4940 C   0  0  0  0  0  0  0  0  0  0  0  0
   44.3400   35.5290   42.3480 C   0  0  0  0  0  0  0  0  0  0  0  0
   44.7680   34.3520   42.8120 N   0  0  0  0  0  0  0  0  0  0  0  0
   44.1020   33.2370   42.4270 C   0  0  0  0  0  0  0  0  0  0  0  0
   43.0380   33.2620   41.6080 N   0  0  0  0  0  0  0  0  0  0  0  0
   43.1930   33.7450   38.3210 S   0  0  0  0  0  0  0  0  0  0  0  0
   44.3130   31.2620   38.8140 C   0  0  0  0  0  0  0  0  0  0  0  0
   43.3800   31.9980   38.0560 C   0  0  0  0  0  0  0  0  0  0  0  0
   42.6290   31.3260   37.1160 C   0  0  0  0  0  0  0  0  0  0  0  0
   42.8310   29.9850   36.9720 N   0  0  0  0  0  0  0  0  0  0  0  0
   43.7320   29.3130   37.7140 C   0  0  0  0  0  0  0  0  0  0  0  0
   44.4700   29.9240   38.6240 N   0  0  0  0  0  0  0  0  0  0  0  0
   43.9160   27.8470   37.5190 C   0  0  0  0  0  0  0  0  0  0  0  0
   43.0460   27.4000   36.3760 C   0  0  0  0  0  0  0  0  0  0  0  0
   43.3760   26.0150   35.8930 C   0  0  0  0  0  0  0  0  0  0  0  0
   44.8340   26.0570   35.4530 C   0  0  0  0  0  0  0  0  0  0  0  0
   45.6420   26.1980   36.7330 C   0  0  0  0  0  0  0  0  0  0  0  0
   45.3690   27.5430   37.3170 C   0  0  0  0  0  0  0  0  0  0  0  0
   40.5623   33.8641   36.9809 H   0  0  0  0  0  0  0  0  0  0  0  0
   38.3241   34.3999   37.8929 H   0  0  0  0  0  0  0  0  0  0  0  0
   38.0342   34.9494   40.2931 H   0  0  0  0  0  0  0  0  0  0  0  0
   40.0130   34.9602   41.7656 H   0  0  0  0  0  0  0  0  0  0  0  0
   42.8832   36.5311   41.1152 H   0  0  0  0  0  0  0  0  0  0  0  0
   44.8508   36.4606   42.6329 H   0  0  0  0  0  0  0  0  0  0  0  0
   44.4496   32.2637   42.8036 H   0  0  0  0  0  0  0  0  0  0  0  0
   44.9233   31.7771   39.5705 H   0  0  0  0  0  0  0  0  0  0  0  0
   41.8880   31.8560   36.4996 H   0  0  0  0  0  0  0  0  0  0  0  0
   43.6033   27.2828   38.4100 H   0  0  0  0  0  0  0  0  0  0  0  0
   41.9971   27.4151   36.7072 H   0  0  0  0  0  0  0  0  0  0  0  0
   43.2223   28.0911   35.5386 H   0  0  0  0  0  0  0  0  0  0  0  0
   43.2434   25.2856   36.7057 H   0  0  0  0  0  0  0  0  0  0  0  0
   42.7159   25.7093   35.0678 H   0  0  0  0  0  0  0  0  0  0  0  0
   45.1040   25.1285   34.9286 H   0  0  0  0  0  0  0  0  0  0  0  0
   45.0258   26.8865   34.7565 H   0  0  0  0  0  0  0  0  0  0  0  0
   45.3456   25.4158   37.4474 H   0  0  0  0  0  0  0  0  0  0  0  0
   46.7151   26.0912   36.5160 H   0  0  0  0  0  0  0  0  0  0  0  0
   45.8719   27.6025   38.2935 H   0  0  0  0  0  0  0  0  0  0  0  0
   45.7466   28.2814   36.5943 H   0  0  0  0  0  0  0  0  0  0  0  0
  1  6  2  0
  2  3  2  0
  2  1  1  0
  3  4  1  0
  4  5  2  0
  6  5  1  0
  6  7  1  0
  7  8  2  0
  7 12  1  0
  8  9  1  0
  9 10  2  0
 11 10  1  0
 12 11  2  0
 13  1  1  0
 15 13  1  0
 15 14  2  0
 16 15  1  0
 17 16  2  0
 17 18  1  0
 18 19  2  0
 19 14  1  0
 20 18  1  0
 21 20  1  0
 22 21  1  0
 23 22  1  0
 23 24  1  0
 24 25  1  0
 25 20  1  0
  2 26  1  0
  3 27  1  0
  4 28  1  0
  5 29  1  0
  8 30  1  0
  9 31  1  0
 11 32  1  0
 14 33  1  0
 16 34  1  0
 20 35  1  0
 21 36  1  0
 21 37  1  0
 22 38  1  0
 22 39  1  0
 23 40  1  0
 23 41  1  0
 24 42  1  0
 24 43  1  0
 25 44  1  0
 25 45  1  0
M  ISO  8  26  14  27  14  28  14  29  14  30  14  31  14  32  14  33  14
M  ISO  8  34  14  35  13  36  13  37  13  38  13  39  13  40  13  41  13
M  ISO  4  42  13  43  13  44  13  45  13
M  END
>  <minimizedAffinity>  (1) 
-4.11129284

>  <minimizedRMSD>  (1) 
6.13086605

$$$$
