
     RDKit          3D

 29 30  0  0  0  0  0  0  0  0999 V2000
   44.1200   34.8720   41.3810 C   0  0  0  0  0  0  0  0  0  0  0  0
   45.4740   34.5160   41.4340 C   0  0  0  0  0  0  0  0  0  0  0  0
   46.1840   34.8060   42.6150 C   0  0  0  0  0  0  0  0  0  0  0  0
   45.5030   35.4100   43.6170 N   0  0  0  0  0  0  0  0  0  0  0  0
   44.1940   35.7370   43.5260 C   0  0  0  0  0  0  0  0  0  0  0  0
   43.4970   35.4710   42.4100 N   0  0  0  0  0  0  0  0  0  0  0  0
   47.5970   34.4480   42.6990 C   0  0  0  0  0  0  0  0  0  0  0  0
   48.4700   35.3090   41.7890 C   0  0  0  0  0  0  0  0  0  0  0  0
   49.8570   35.1950   42.4330 C   0  0  0  0  0  0  0  0  0  0  0  0
   50.3380   33.7780   42.2460 C   0  0  0  0  0  0  0  0  0  0  0  0
   49.3460   32.7280   42.5690 C   0  0  0  0  0  0  0  0  0  0  0  0
   47.9110   33.0260   42.3750 C   0  0  0  0  0  0  0  0  0  0  0  0
   43.3770   34.5570   40.1190 C   0  0  0  0  0  0  0  0  0  0  0  0
   45.9663   34.0260   40.5810 H   0  0  0  0  0  0  0  0  0  0  0  0
   43.6950   36.2262   44.3755 H   0  0  0  0  0  0  0  0  0  0  0  0
   47.8233   34.6238   43.7610 H   0  0  0  0  0  0  0  0  0  0  0  0
   48.1228   36.3527   41.7801 H   0  0  0  0  0  0  0  0  0  0  0  0
   48.4521   34.9850   40.7379 H   0  0  0  0  0  0  0  0  0  0  0  0
   50.5537   35.8937   41.9468 H   0  0  0  0  0  0  0  0  0  0  0  0
   49.8051   35.4447   43.5030 H   0  0  0  0  0  0  0  0  0  0  0  0
   50.6333   33.6550   41.1936 H   0  0  0  0  0  0  0  0  0  0  0  0
   51.1685   33.6416   42.9542 H   0  0  0  0  0  0  0  0  0  0  0  0
   49.5831   31.8546   41.9437 H   0  0  0  0  0  0  0  0  0  0  0  0
   49.4465   32.5895   43.6556 H   0  0  0  0  0  0  0  0  0  0  0  0
   47.6447   32.8317   41.3255 H   0  0  0  0  0  0  0  0  0  0  0  0
   47.3311   32.3824   43.0529 H   0  0  0  0  0  0  0  0  0  0  0  0
   42.3907   34.1389   40.3688 H   0  0  0  0  0  0  0  0  0  0  0  0
   43.2468   35.4773   39.5307 H   0  0  0  0  0  0  0  0  0  0  0  0
   43.9479   33.8235   39.5307 H   0  0  0  0  0  0  0  0  0  0  0  0
  1  2  2  0
  1  6  1  0
  2  3  1  0
  3  7  1  0
  3  4  2  0
  5  4  1  0
  6  5  2  0
  8  9  1  0
  8  7  1  0
 10  9  1  0
 10 11  1  0
 12 11  1  0
 12  7  1  0
 13  1  1  0
  2 14  1  0
  5 15  1  0
  7 16  1  0
  8 17  1  0
  8 18  1  0
  9 19  1  0
  9 20  1  0
 10 21  1  0
 10 22  1  0
 11 23  1  0
 11 24  1  0
 12 25  1  0
 12 26  1  0
 13 27  1  0
 13 28  1  0
 13 29  1  0
M  ISO  8  14  14  15  14  16  13  17  13  18  13  19  13  20  13  21  13
M  ISO  8  22  13  23  13  24  13  25  13  26  13  27   8  28   8  29   8
M  END
>  <minimizedAffinity>  (1) 
-4.50674772

>  <minimizedRMSD>  (1) 
3.23101068

$$$$
