
     RDKit          3D

 43 46  0  0  1  0  0  0  0  0999 V2000
   47.4650   33.2660   43.6370 N   0  0  0  0  0  0  0  0  0  0  0  0
   48.6530   33.3660   42.8240 C   0  0  0  0  0  0  0  0  0  0  0  0
   48.5810   32.0510   42.1180 C   0  0  2  0  0  0  0  0  0  0  0  0
   48.3370   31.1020   43.2670 C   0  0  0  0  0  0  0  0  0  0  0  0
   47.4740   31.9180   44.1930 C   0  0  0  0  0  0  0  0  0  0  0  0
   44.9990   36.0400   43.4130 C   0  0  0  0  0  0  0  0  0  0  0  0
   46.0210   35.1720   43.0440 C   0  0  0  0  0  0  0  0  0  0  0  0
   46.4450   34.1850   43.9180 C   0  0  0  0  0  0  0  0  0  0  0  0
   45.8130   34.1180   45.1300 N   0  0  0  0  0  0  0  0  0  0  0  0
   44.8290   34.9480   45.4920 C   0  0  0  0  0  0  0  0  0  0  0  0
   44.4150   35.9110   44.6400 N   0  0  0  0  0  0  0  0  0  0  0  0
   49.8290   31.6810   41.4890 N   0  0  0  0  0  0  0  0  0  0  0  0
   51.3870   31.1200   39.6220 C   0  0  0  0  0  0  0  0  0  0  0  0
   50.1970   31.6500   40.1150 C   0  0  0  0  0  0  0  0  0  0  0  0
   49.3640   32.1630   39.1330 C   0  0  0  0  0  0  0  0  0  0  0  0
   49.6480   32.1680   37.7850 C   0  0  0  0  0  0  0  0  0  0  0  0
   50.8320   31.6350   37.3470 C   0  0  0  0  0  0  0  0  0  0  0  0
   51.6760   31.1210   38.2910 C   0  0  0  0  0  0  0  0  0  0  0  0
   52.9570   30.5350   37.8970 C   0  0  0  0  0  0  0  0  0  0  0  0
   54.1370   31.2420   37.7830 C   0  0  0  0  0  0  0  0  0  0  0  0
   55.3390   30.6770   37.4090 C   0  0  0  0  0  0  0  0  0  0  0  0
   55.3920   29.3620   37.1360 N   0  0  0  0  0  0  0  0  0  0  0  0
   54.2570   28.6520   37.2400 C   0  0  0  0  0  0  0  0  0  0  0  0
   53.1110   29.2240   37.6020 N   0  0  0  0  0  0  0  0  0  0  0  0
   53.0450   30.1260   41.3820 N   0  0  0  0  0  0  0  0  0  0  0  0
   52.3170   30.5620   40.5950 C   0  0  0  0  0  0  0  0  0  0  0  0
   48.6001   34.2117   42.1225 H   0  0  0  0  0  0  0  0  0  0  0  0
   49.5853   33.5490   43.3783 H   0  0  0  0  0  0  0  0  0  0  0  0
   47.8279   32.0554   41.3163 H   0  0  0  0  0  0  0  0  0  0  0  0
   47.8109   30.1970   42.9291 H   0  0  0  0  0  0  0  0  0  0  0  0
   49.2627   30.7404   43.7385 H   0  0  0  0  0  0  0  0  0  0  0  0
   47.8990   31.9243   45.2076 H   0  0  0  0  0  0  0  0  0  0  0  0
   46.4579   31.5041   44.2717 H   0  0  0  0  0  0  0  0  0  0  0  0
   44.6633   36.8258   42.7203 H   0  0  0  0  0  0  0  0  0  0  0  0
   46.4937   35.2697   42.0556 H   0  0  0  0  0  0  0  0  0  0  0  0
   44.3580   34.8468   46.4809 H   0  0  0  0  0  0  0  0  0  0  0  0
   50.5723   31.3931   42.1414 H   0  0  0  0  0  0  0  0  0  0  0  0
   48.4059   32.5980   39.4536 H   0  0  0  0  0  0  0  0  0  0  0  0
   48.9318   32.5954   37.0677 H   0  0  0  0  0  0  0  0  0  0  0  0
   51.0926   31.6214   36.2784 H   0  0  0  0  0  0  0  0  0  0  0  0
   54.1180   32.3195   38.0033 H   0  0  0  0  0  0  0  0  0  0  0  0
   56.2449   31.2966   37.3350 H   0  0  0  0  0  0  0  0  0  0  0  0
   54.2747   27.5741   37.0212 H   0  0  0  0  0  0  0  0  0  0  0  0
  1  8  1  0
  1  5  1  0
  2  1  1  0
  3  2  1  0
  3  4  1  0
  4  5  1  0
  6 11  2  0
  7  6  1  0
  7  8  2  0
  8  9  1  0
  9 10  2  0
 11 10  1  0
 12  3  1  0
 13 14  2  0
 13 26  1  0
 14 12  1  0
 15 14  1  0
 16 15  2  0
 17 16  1  0
 17 18  2  0
 18 13  1  0
 19 18  1  0
 20 19  2  0
 21 20  1  0
 22 23  1  0
 22 21  2  0
 23 24  2  0
 24 19  1  0
 26 25  3  0
  2 27  1  0
  2 28  1  0
  3 29  1  6
  4 30  1  0
  4 31  1  0
  5 32  1  0
  5 33  1  0
  6 34  1  0
  7 35  1  0
 10 36  1  0
 12 37  1  0
 15 38  1  0
 16 39  1  0
 17 40  1  0
 20 41  1  0
 21 42  1  0
 23 43  1  0
M  ISO  8  27  13  28  13  29  13  30  13  31  13  32  13  33  13  34  14
M  ISO  8  35  14  36  14  38  14  39  14  40  14  41  14  42  14  43  14
M  END
>  <minimizedAffinity>  (1) 
-4.7613039

>  <minimizedRMSD>  (1) 
2.85384774

$$$$
