
     RDKit          3D

 44 47  0  0  1  0  0  0  0  0999 V2000
   44.5130   35.5110   45.1380 C   0  0  0  0  0  0  0  0  0  0  0  0
   45.1640   35.5030   43.8920 C   0  0  0  0  0  0  0  0  0  0  0  0
   46.0830   34.5460   43.6330 C   0  0  0  0  0  0  0  0  0  0  0  0
   46.3220   33.6350   44.6110 N   0  0  0  0  0  0  0  0  0  0  0  0
   45.7040   33.6490   45.7820 C   0  0  0  0  0  0  0  0  0  0  0  0
   44.7960   34.5800   46.0610 N   0  0  0  0  0  0  0  0  0  0  0  0
   46.0340   32.6370   46.7490 N   0  0  0  0  0  0  0  0  0  0  0  0
   45.2940   32.3900   47.9350 C   0  0  0  0  0  0  0  0  0  0  0  0
   46.3680   32.0410   48.9490 C   0  0  0  0  0  0  0  0  0  0  0  0
   47.6520   31.9470   48.1820 C   0  0  0  0  0  0  0  0  0  0  0  0
   47.1600   31.7320   46.7510 C   0  0  1  0  0  0  0  0  0  0  0  0
   44.8130   36.5300   42.9480 N   0  0  0  0  0  0  0  0  0  0  0  0
   46.6580   30.0390   46.5610 S   0  0  0  0  0  0  0  0  0  0  0  0
   45.6000   30.5610   43.4380 O   0  0  0  0  0  0  0  0  0  0  0  0
   44.9840   30.0010   44.3600 C   0  0  0  0  0  0  0  0  0  0  0  0
   45.1030   29.7490   45.8220 C   0  0  1  0  0  0  0  0  0  0  0  0
   44.5840   28.3370   45.9220 C   0  0  0  0  0  0  0  0  0  0  0  0
   43.2570   28.5460   45.1900 C   0  0  0  0  0  0  0  0  0  0  0  0
   43.7380   29.3420   44.0590 N   0  0  0  0  0  0  0  0  0  0  0  0
   42.9710   29.3850   42.8420 C   0  0  0  0  0  0  0  0  0  0  0  0
   43.1440   28.6450   41.7120 C   0  0  0  0  0  0  0  0  0  0  0  0
   42.2620   28.8810   40.6730 C   0  0  0  0  0  0  0  0  0  0  0  0
   41.2730   29.7900   40.7450 N   0  0  0  0  0  0  0  0  0  0  0  0
   41.1170   30.5120   41.8730 C   0  0  0  0  0  0  0  0  0  0  0  0
   41.9600   30.2990   42.8900 N   0  0  0  0  0  0  0  0  0  0  0  0
   43.7653   36.2873   45.3577 H   0  0  0  0  0  0  0  0  0  0  0  0
   46.6146   34.5070   42.6708 H   0  0  0  0  0  0  0  0  0  0  0  0
   44.7354   33.2855   48.2448 H   0  0  0  0  0  0  0  0  0  0  0  0
   44.5404   31.5977   47.8155 H   0  0  0  0  0  0  0  0  0  0  0  0
   46.4384   32.8266   49.7157 H   0  0  0  0  0  0  0  0  0  0  0  0
   46.1398   31.0973   49.4660 H   0  0  0  0  0  0  0  0  0  0  0  0
   48.2362   32.8751   48.2674 H   0  0  0  0  0  0  0  0  0  0  0  0
   48.3233   31.1532   48.5415 H   0  0  0  0  0  0  0  0  0  0  0  0
   47.8831   31.9138   45.9422 H   0  0  0  0  0  0  0  0  0  0  0  0
   45.2680   36.5578   42.0244 H   0  0  0  0  0  0  0  0  0  0  0  0
   44.1067   37.2376   43.1957 H   0  0  0  0  0  0  0  0  0  0  0  0
   44.5370   30.4785   46.4199 H   0  0  0  0  0  0  0  0  0  0  0  0
   45.2354   27.6161   45.4062 H   0  0  0  0  0  0  0  0  0  0  0  0
   44.5149   27.9187   46.9370 H   0  0  0  0  0  0  0  0  0  0  0  0
   42.8120   27.5942   44.8641 H   0  0  0  0  0  0  0  0  0  0  0  0
   42.4572   29.0091   45.7865 H   0  0  0  0  0  0  0  0  0  0  0  0
   43.9457   27.8964   41.6296 H   0  0  0  0  0  0  0  0  0  0  0  0
   42.3743   28.2993   39.7462 H   0  0  0  0  0  0  0  0  0  0  0  0
   40.3144   31.2597   41.9553 H   0  0  0  0  0  0  0  0  0  0  0  0
  1  6  2  0
  2  1  1  0
  3  2  2  0
  3  4  1  0
  4  5  2  0
  5  6  1  0
  5  7  1  0
  7 11  1  0
  7  8  1  0
  8  9  1  0
 10  9  1  0
 11 10  1  0
 12  2  1  0
 13 11  1  0
 14 15  2  0
 15 16  1  0
 16 17  1  0
 16 13  1  0
 18 17  1  0
 19 15  1  0
 19 18  1  0
 20 25  1  0
 20 19  1  0
 21 20  2  0
 22 23  2  0
 22 21  1  0
 23 24  1  0
 24 25  2  0
  1 26  1  0
  3 27  1  0
  8 28  1  0
  8 29  1  0
  9 30  1  0
  9 31  1  0
 10 32  1  0
 10 33  1  0
 11 34  1  6
 12 35  1  0
 12 36  1  0
 16 37  1  1
 17 38  1  0
 17 39  1  0
 18 40  1  0
 18 41  1  0
 21 42  1  0
 22 43  1  0
 24 44  1  0
M  ISO  8  26  14  27  14  28  13  29  13  30  13  31  13  32  13  33  13
M  ISO  8  34  13  37  13  38  13  39  13  40  13  41  13  42  14  43  14
M  ISO  1  44  14
M  END
>  <minimizedAffinity>  (1) 
-5.34131527

>  <minimizedRMSD>  (1) 
0.643487692

$$$$
