
     RDKit          3D

 43 46  0  0  1  0  0  0  0  0999 V2000
   42.8380   34.2680   38.9940 C   0  0  1  0  0  0  0  0  0  0  0  0
   43.0480   35.1400   40.2310 C   0  0  1  0  0  0  0  0  0  0  0  0
   41.8020   35.6430   40.6520 O   0  0  0  0  0  0  0  0  0  0  0  0
   40.9300   35.9040   39.5940 C   0  0  0  0  0  0  0  0  0  0  0  0
   40.4650   34.6110   38.9450 C   0  0  2  0  0  0  0  0  0  0  0  0
   41.5260   33.5420   39.2470 C   0  0  1  0  0  0  0  0  0  0  0  0
   42.7340   35.0560   37.8490 O   0  0  0  0  0  0  0  0  0  0  0  0
   40.5260   34.7890   37.5580 O   0  0  0  0  0  0  0  0  0  0  0  0
   43.4410   34.2790   41.2570 O   0  0  0  0  0  0  0  0  0  0  0  0
   44.5960   34.3510   41.9280 C   0  0  0  0  0  0  0  0  0  0  0  0
   45.8050   34.5080   41.2570 C   0  0  0  0  0  0  0  0  0  0  0  0
   46.9750   34.5810   41.9970 C   0  0  0  0  0  0  0  0  0  0  0  0
   46.9090   34.4980   43.3720 N   0  0  0  0  0  0  0  0  0  0  0  0
   45.7260   34.3460   43.9900 C   0  0  0  0  0  0  0  0  0  0  0  0
   44.5730   34.2730   43.2810 N   0  0  0  0  0  0  0  0  0  0  0  0
   48.3100   34.7290   41.3260 C   0  0  0  0  0  0  0  0  0  0  0  0
   49.0580   36.0270   41.5250 C   0  0  0  0  0  0  0  0  0  0  0  0
   49.5180   34.6840   42.1090 C   0  0  0  0  0  0  0  0  0  0  0  0
   41.3520   32.4340   38.4420 O   0  0  0  0  0  0  0  0  0  0  0  0
   40.3470   31.5130   38.6570 C   0  0  0  0  0  0  0  0  0  0  0  0
   39.7220   31.0550   37.5160 C   0  0  0  0  0  0  0  0  0  0  0  0
   38.6820   30.1190   37.5200 C   0  0  0  0  0  0  0  0  0  0  0  0
   38.2750   29.6430   38.7260 N   0  0  0  0  0  0  0  0  0  0  0  0
   38.8990   30.1040   39.8310 C   0  0  0  0  0  0  0  0  0  0  0  0
   39.9040   31.0050   39.8430 N   0  0  0  0  0  0  0  0  0  0  0  0
   43.6779   33.5765   38.8318 H   0  0  0  0  0  0  0  0  0  0  0  0
   43.7658   35.9446   40.0135 H   0  0  0  0  0  0  0  0  0  0  0  0
   40.0550   36.4512   39.9747 H   0  0  0  0  0  0  0  0  0  0  0  0
   41.4603   36.5052   38.8408 H   0  0  0  0  0  0  0  0  0  0  0  0
   39.4601   34.3385   39.2998 H   0  0  0  0  0  0  0  0  0  0  0  0
   41.4762   33.1410   40.2701 H   0  0  0  0  0  0  0  0  0  0  0  0
   42.6091   36.0027   38.1102 H   0  0  0  0  0  0  0  0  0  0  0  0
   40.8402   35.7059   37.3565 H   0  0  0  0  0  0  0  0  0  0  0  0
   45.8318   34.5730   40.1592 H   0  0  0  0  0  0  0  0  0  0  0  0
   45.6925   34.2798   45.0875 H   0  0  0  0  0  0  0  0  0  0  0  0
   47.9632   34.1603   40.4506 H   0  0  0  0  0  0  0  0  0  0  0  0
   49.6048   36.4913   40.6911 H   0  0  0  0  0  0  0  0  0  0  0  0
   48.8273   37.0296   41.9143 H   0  0  0  0  0  0  0  0  0  0  0  0
   49.4610   34.5106   43.1937 H   0  0  0  0  0  0  0  0  0  0  0  0
   50.4483   34.0990   42.0605 H   0  0  0  0  0  0  0  0  0  0  0  0
   40.0609   31.4485   36.5463 H   0  0  0  0  0  0  0  0  0  0  0  0
   38.2125   29.7818   36.5841 H   0  0  0  0  0  0  0  0  0  0  0  0
   38.5604   29.7130   40.8018 H   0  0  0  0  0  0  0  0  0  0  0  0
  1  6  1  0
  1  2  1  0
  2  3  1  0
  2  9  1  0
  4  3  1  0
  5  6  1  0
  5  4  1  0
  7  1  1  0
  8  5  1  0
  9 10  1  0
 10 15  1  0
 11 10  2  0
 11 12  1  0
 12 13  2  0
 13 14  1  0
 15 14  2  0
 16 17  1  0
 16 12  1  0
 16 18  1  0
 17 18  1  0
 19 20  1  0
 19  6  1  0
 20 25  2  0
 21 22  2  0
 21 20  1  0
 22 23  1  0
 23 24  2  0
 24 25  1  0
  1 26  1  6
  2 27  1  6
  4 28  1  0
  4 29  1  0
  5 30  1  1
  6 31  1  1
  7 32  1  0
  8 33  1  0
 11 34  1  0
 14 35  1  0
 16 36  1  0
 17 37  1  0
 17 38  1  0
 18 39  1  0
 18 40  1  0
 21 41  1  0
 22 42  1  0
 24 43  1  0
M  ISO  8  26  13  27  13  28  13  29  13  30  13  31  13  32   3  33   3
M  ISO  8  34  14  35  14  36  13  37  13  38  13  39  13  40  13  41  14
M  ISO  2  42  14  43  14
M  END
>  <minimizedAffinity>  (1) 
-6.03964233

>  <minimizedRMSD>  (1) 
1.40022624

$$$$
