
     RDKit          3D

 35 37  0  0  0  0  0  0  0  0999 V2000
   43.1300   32.2060   39.5480 Cl  0  0  0  0  0  0  0  0  0  0  0  0
   42.0390   33.5060   40.0020 C   0  0  0  0  0  0  0  0  0  0  0  0
   42.4870   34.6990   40.5620 C   0  0  0  0  0  0  0  0  0  0  0  0
   41.5890   35.6740   40.8950 C   0  0  0  0  0  0  0  0  0  0  0  0
   40.2310   35.5530   40.7090 C   0  0  0  0  0  0  0  0  0  0  0  0
   39.7590   34.3660   40.1510 C   0  0  0  0  0  0  0  0  0  0  0  0
   38.0390   34.1200   39.8740 Cl  0  0  0  0  0  0  0  0  0  0  0  0
   40.6690   33.3910   39.8180 C   0  0  0  0  0  0  0  0  0  0  0  0
   40.2010   32.1400   39.2310 C   0  0  0  0  0  0  0  0  0  0  0  0
   40.0160   31.9810   37.8740 C   0  0  0  0  0  0  0  0  0  0  0  0
   39.5760   30.8240   37.2620 C   0  0  0  0  0  0  0  0  0  0  0  0
   39.3190   29.7920   38.1180 N   0  0  0  0  0  0  0  0  0  0  0  0
   39.4860   29.9070   39.4560 C   0  0  0  0  0  0  0  0  0  0  0  0
   39.9240   31.0680   40.0270 N   0  0  0  0  0  0  0  0  0  0  0  0
   43.8580   34.8130   40.7470 O   0  0  0  0  0  0  0  0  0  0  0  0
   44.4180   34.3490   41.9430 C   0  0  0  0  0  0  0  0  0  0  0  0
   44.0770   33.2750   42.5630 O   0  0  0  0  0  0  0  0  0  0  0  0
   45.4580   35.0610   42.6010 N   0  0  0  0  0  0  0  0  0  0  0  0
   45.8100   34.3490   43.8230 C   0  0  0  0  0  0  0  0  0  0  0  0
   45.1960   34.5350   45.0440 C   0  0  0  0  0  0  0  0  0  0  0  0
   45.6680   33.7670   46.0890 C   0  0  0  0  0  0  0  0  0  0  0  0
   46.6770   32.9080   45.8450 N   0  0  0  0  0  0  0  0  0  0  0  0
   47.2500   32.7570   44.6360 C   0  0  0  0  0  0  0  0  0  0  0  0
   46.8110   33.4960   43.5830 N   0  0  0  0  0  0  0  0  0  0  0  0
   44.1510   35.4810   45.1150 N   0  0  0  0  0  0  0  0  0  0  0  0
   41.9727   36.6060   41.3356 H   0  0  0  0  0  0  0  0  0  0  0  0
   39.5428   36.3636   40.9905 H   0  0  0  0  0  0  0  0  0  0  0  0
   40.2362   32.8437   37.2280 H   0  0  0  0  0  0  0  0  0  0  0  0
   39.4433   30.7406   36.1732 H   0  0  0  0  0  0  0  0  0  0  0  0
   39.2634   29.0436   40.1001 H   0  0  0  0  0  0  0  0  0  0  0  0
   45.8907   35.9348   42.2692 H   0  0  0  0  0  0  0  0  0  0  0  0
   45.2318   33.8539   47.0951 H   0  0  0  0  0  0  0  0  0  0  0  0
   48.0711   32.0376   44.5008 H   0  0  0  0  0  0  0  0  0  0  0  0
   43.6677   35.6484   46.0091 H   0  0  0  0  0  0  0  0  0  0  0  0
   43.8716   36.0040   44.2728 H   0  0  0  0  0  0  0  0  0  0  0  0
  1  2  1  0
  2  3  2  0
  3 15  1  0
  3  4  1  0
  5  4  2  0
  6  5  1  0
  7  6  1  0
  8  2  1  0
  8  6  2  0
  9  8  1  0
  9 14  1  0
 10  9  2  0
 11 10  1  0
 11 12  2  0
 12 13  1  0
 13 14  2  0
 15 16  1  0
 16 17  2  0
 16 18  1  0
 18 19  1  0
 19 20  2  0
 20 25  1  0
 20 21  1  0
 22 21  2  0
 23 22  1  0
 24 19  1  0
 24 23  2  0
  4 26  1  0
  5 27  1  0
 10 28  1  0
 11 29  1  0
 13 30  1  0
 18 31  1  0
 21 32  1  0
 23 33  1  0
 25 34  1  0
 25 35  1  0
M  ISO  7  26  14  27  14  28  14  29  14  30  14  32  14  33  14
M  END
>  <minimizedAffinity>  (1) 
-5.86825323

>  <minimizedRMSD>  (1) 
1.34977484

$$$$
