
     RDKit          3D

 29 31  0  0  0  0  0  0  0  0999 V2000
   44.9860   34.6240   41.4060 C   0  0  0  0  0  0  0  0  0  0  0  0
   45.7040   35.1330   42.4890 C   0  0  0  0  0  0  0  0  0  0  0  0
   47.1060   35.1010   42.4280 C   0  0  0  0  0  0  0  0  0  0  0  0
   47.6920   34.5790   41.3250 N   0  0  0  0  0  0  0  0  0  0  0  0
   46.9640   34.0930   40.2930 C   0  0  0  0  0  0  0  0  0  0  0  0
   45.6090   34.1090   40.3200 N   0  0  0  0  0  0  0  0  0  0  0  0
   47.6470   33.5430   39.1290 C   0  0  0  0  0  0  0  0  0  0  0  0
   47.7540   32.1890   38.9550 C   0  0  0  0  0  0  0  0  0  0  0  0
   48.4210   31.7170   37.8200 C   0  0  0  0  0  0  0  0  0  0  0  0
   48.9530   32.5760   36.9070 N   0  0  0  0  0  0  0  0  0  0  0  0
   48.8090   33.8960   37.1440 C   0  0  0  0  0  0  0  0  0  0  0  0
   48.1720   34.4170   38.2280 N   0  0  0  0  0  0  0  0  0  0  0  0
   43.2070   34.7000   41.5600 S   0  0  0  0  0  0  0  0  0  0  0  0
   40.7060   36.0210   40.0650 Cl  0  0  0  0  0  0  0  0  0  0  0  0
   41.2890   34.4580   39.4950 C   0  0  0  0  0  0  0  0  0  0  0  0
   42.3570   33.9710   40.1890 C   0  0  0  0  0  0  0  0  0  0  0  0
   42.8710   32.7320   39.7850 C   0  0  0  0  0  0  0  0  0  0  0  0
   42.2800   32.0670   38.7170 C   0  0  0  0  0  0  0  0  0  0  0  0
   41.2030   32.5650   38.0220 C   0  0  0  0  0  0  0  0  0  0  0  0
   40.7090   33.8000   38.4420 C   0  0  0  0  0  0  0  0  0  0  0  0
   39.3380   34.5450   37.6400 Cl  0  0  0  0  0  0  0  0  0  0  0  0
   45.1857   35.5478   43.3661 H   0  0  0  0  0  0  0  0  0  0  0  0
   47.7144   35.4911   43.2573 H   0  0  0  0  0  0  0  0  0  0  0  0
   47.3263   31.4904   39.6892 H   0  0  0  0  0  0  0  0  0  0  0  0
   48.5176   30.6327   37.6620 H   0  0  0  0  0  0  0  0  0  0  0  0
   49.2349   34.5983   36.4123 H   0  0  0  0  0  0  0  0  0  0  0  0
   43.7326   32.2903   40.3071 H   0  0  0  0  0  0  0  0  0  0  0  0
   42.6942   31.0944   38.4128 H   0  0  0  0  0  0  0  0  0  0  0  0
   40.7547   32.0183   37.1793 H   0  0  0  0  0  0  0  0  0  0  0  0
  1 13  1  0
  1  2  2  0
  3  2  1  0
  4  3  2  0
  5  6  2  0
  5  4  1  0
  6  1  1  0
  7  5  1  0
  8  7  2  0
  9  8  1  0
 10 11  1  0
 10  9  2  0
 11 12  2  0
 12  7  1  0
 15 14  1  0
 15 16  2  0
 16 13  1  0
 17 16  1  0
 18 17  2  0
 19 20  2  0
 19 18  1  0
 20 15  1  0
 21 20  1  0
  2 22  1  0
  3 23  1  0
  8 24  1  0
  9 25  1  0
 11 26  1  0
 17 27  1  0
 18 28  1  0
 19 29  1  0
M  ISO  8  22  14  23  14  24  14  25  14  26  14  27  14  28  14  29  14
M  END
>  <minimizedAffinity>  (1) 
-5.09806347

>  <minimizedRMSD>  (1) 
6.50792408

$$$$
