
     RDKit          3D

 41 44  0  0  1  0  0  0  0  0999 V2000
   48.9130   32.0100   43.0890 O   0  0  0  0  0  0  0  0  0  0  0  0
   50.1310   32.3220   42.2340 P   0  0  2  0  0  0  0  0  0  0  0  0
   51.5010   31.6030   42.8120 O   0  0  0  0  0  0  0  0  0  0  0  0
   50.2060   34.0050   42.0830 O   0  0  0  0  0  0  0  0  0  0  0  0
   47.9760   34.5080   41.1600 C   0  0  1  0  0  0  0  0  0  0  0  0
   48.6980   35.8020   41.7090 C   0  0  0  0  0  0  0  0  0  0  0  0
   48.9330   34.5010   42.2930 C   0  0  2  0  0  0  0  0  0  0  0  0
   46.5090   34.5430   41.4340 C   0  0  0  0  0  0  0  0  0  0  0  0
   45.7550   34.3100   40.4990 O   0  0  0  0  0  0  0  0  0  0  0  0
   45.3210   35.9800   43.0290 C   0  0  0  0  0  0  0  0  0  0  0  0
   45.9240   34.8260   42.6970 C   0  0  0  0  0  0  0  0  0  0  0  0
   45.9630   33.8200   43.7190 C   0  0  0  0  0  0  0  0  0  0  0  0
   45.4190   34.0440   44.9370 N   0  0  0  0  0  0  0  0  0  0  0  0
   44.8240   35.2320   45.2090 C   0  0  0  0  0  0  0  0  0  0  0  0
   44.7790   36.1650   44.2780 N   0  0  0  0  0  0  0  0  0  0  0  0
   49.7030   31.6920   40.6700 O   0  0  0  0  0  0  0  0  0  0  0  0
   50.6100   31.5010   39.6450 C   0  0  0  0  0  0  0  0  0  0  0  0
   50.4810   31.8050   38.2940 C   0  0  0  0  0  0  0  0  0  0  0  0
   51.5100   31.5340   37.4350 C   0  0  0  0  0  0  0  0  0  0  0  0
   52.6610   30.9680   37.9030 N   0  0  0  0  0  0  0  0  0  0  0  0
   52.7770   30.6760   39.2140 C   0  0  0  0  0  0  0  0  0  0  0  0
   51.7550   30.9390   40.0960 N   0  0  0  0  0  0  0  0  0  0  0  0
   54.0320   30.0710   39.6550 C   0  0  0  0  0  0  0  0  0  0  0  0
   55.0120   29.6460   38.7830 C   0  0  0  0  0  0  0  0  0  0  0  0
   56.2040   29.0720   39.1820 C   0  0  0  0  0  0  0  0  0  0  0  0
   56.3610   28.9460   40.5320 N   0  0  0  0  0  0  0  0  0  0  0  0
   55.3980   29.3630   41.3890 C   0  0  0  0  0  0  0  0  0  0  0  0
   54.2330   29.9260   40.9550 N   0  0  0  0  0  0  0  0  0  0  0  0
   51.4855   31.6111   43.8018 H   0  0  0  0  0  0  0  0  0  0  0  0
   47.8911   33.9124   40.2391 H   0  0  0  0  0  0  0  0  0  0  0  0
   49.4830   36.2927   41.1149 H   0  0  0  0  0  0  0  0  0  0  0  0
   48.3742   36.7848   42.0822 H   0  0  0  0  0  0  0  0  0  0  0  0
   48.8462   34.0818   43.3063 H   0  0  0  0  0  0  0  0  0  0  0  0
   45.2602   36.7907   42.2880 H   0  0  0  0  0  0  0  0  0  0  0  0
   46.4423   32.8524   43.5091 H   0  0  0  0  0  0  0  0  0  0  0  0
   44.3820   35.4161   46.1993 H   0  0  0  0  0  0  0  0  0  0  0  0
   49.5540   32.2621   37.9175 H   0  0  0  0  0  0  0  0  0  0  0  0
   51.4103   31.7723   36.3658 H   0  0  0  0  0  0  0  0  0  0  0  0
   54.8342   29.7715   37.7047 H   0  0  0  0  0  0  0  0  0  0  0  0
   56.9696   28.7411   38.4648 H   0  0  0  0  0  0  0  0  0  0  0  0
   55.5605   29.2438   42.4704 H   0  0  0  0  0  0  0  0  0  0  0  0
  2  3  1  0
  2  1  2  0
  4  2  1  0
  4  7  1  0
  5  8  1  0
  5  6  1  0
  5  7  1  0
  6  7  1  0
  8 11  1  0
  9  8  2  0
 10 15  2  0
 11 10  1  0
 11 12  2  0
 12 13  1  0
 13 14  2  0
 15 14  1  0
 16  2  1  0
 17 22  1  0
 17 16  1  0
 18 17  2  0
 19 20  2  0
 19 18  1  0
 20 21  1  0
 21 23  1  0
 21 22  2  0
 23 28  2  0
 24 25  2  0
 24 23  1  0
 25 26  1  0
 26 27  2  0
 28 27  1  0
  3 29  1  0
  5 30  1  6
  6 31  1  0
  6 32  1  0
  7 33  1  1
 10 34  1  0
 12 35  1  0
 14 36  1  0
 18 37  1  0
 19 38  1  0
 24 39  1  0
 25 40  1  0
 27 41  1  0
M  ISO  8  29   3  30  13  31  13  32  13  33  13  34  14  35  14  36  14
M  ISO  5  37  14  38  14  39  14  40  14  41  14
M  END
>  <minimizedAffinity>  (1) 
-5.25834513

>  <minimizedRMSD>  (1) 
0.829770505

$$$$
