
     RDKit          3D

 41 44  0  0  0  0  0  0  0  0999 V2000
   45.1150   33.9710   40.7320 C   0  0  0  0  0  0  0  0  0  0  0  0
   44.0770   33.6300   39.9170 C   0  0  0  0  0  0  0  0  0  0  0  0
   44.3790   33.1080   38.7000 C   0  0  0  0  0  0  0  0  0  0  0  0
   45.6590   32.9050   38.2430 C   0  0  0  0  0  0  0  0  0  0  0  0
   46.6870   33.2560   39.0820 C   0  0  0  0  0  0  0  0  0  0  0  0
   46.4350   33.7890   40.3280 C   0  0  0  0  0  0  0  0  0  0  0  0
   40.8000   35.2890   40.7970 C   0  0  0  0  0  0  0  0  0  0  0  0
   42.0980   35.1020   40.2920 C   0  0  0  0  0  0  0  0  0  0  0  0
   42.7410   33.8560   40.4270 C   0  0  0  0  0  0  0  0  0  0  0  0
   42.0150   32.9050   41.0640 N   0  0  0  0  0  0  0  0  0  0  0  0
   40.7920   33.0940   41.5370 C   0  0  0  0  0  0  0  0  0  0  0  0
   40.1800   34.2770   41.4080 N   0  0  0  0  0  0  0  0  0  0  0  0
   40.2040   36.5530   40.6360 N   0  0  0  0  0  0  0  0  0  0  0  0
   47.5910   34.1280   41.1420 C   0  0  0  0  0  0  0  0  0  0  0  0
   48.1330   35.3740   40.9260 C   0  0  0  0  0  0  0  0  0  0  0  0
   49.2420   35.8670   41.6130 C   0  0  0  0  0  0  0  0  0  0  0  0
   49.8160   35.0460   42.5600 C   0  0  0  0  0  0  0  0  0  0  0  0
   49.2910   33.7930   42.7940 C   0  0  0  0  0  0  0  0  0  0  0  0
   48.1890   33.3280   42.0980 C   0  0  0  0  0  0  0  0  0  0  0  0
   47.5770   32.0080   42.2930 C   0  0  0  0  0  0  0  0  0  0  0  0
   46.8510   31.9510   43.4870 C   0  0  0  0  0  0  0  0  0  0  0  0
   46.1820   30.7870   43.8780 C   0  0  0  0  0  0  0  0  0  0  0  0
   46.2360   29.6920   43.0880 N   0  0  0  0  0  0  0  0  0  0  0  0
   46.9510   29.8200   41.9550 C   0  0  0  0  0  0  0  0  0  0  0  0
   47.6160   30.9170   41.5290 N   0  0  0  0  0  0  0  0  0  0  0  0
   44.7070   34.9770   43.1040 N   0  0  0  0  0  0  0  0  0  0  0  0
   44.8970   34.5320   42.0460 C   0  0  0  0  0  0  0  0  0  0  0  0
   43.5458   32.8300   38.0379 H   0  0  0  0  0  0  0  0  0  0  0  0
   45.8515   32.4793   37.2471 H   0  0  0  0  0  0  0  0  0  0  0  0
   47.7272   33.1098   38.7553 H   0  0  0  0  0  0  0  0  0  0  0  0
   42.6144   35.9327   39.7888 H   0  0  0  0  0  0  0  0  0  0  0  0
   40.2724   32.2669   42.0428 H   0  0  0  0  0  0  0  0  0  0  0  0
   40.7173   37.3073   40.1581 H   0  0  0  0  0  0  0  0  0  0  0  0
   39.2543   36.7242   40.9960 H   0  0  0  0  0  0  0  0  0  0  0  0
   47.6646   36.0186   40.1676 H   0  0  0  0  0  0  0  0  0  0  0  0
   49.6426   36.8706   41.4075 H   0  0  0  0  0  0  0  0  0  0  0  0
   50.6924   35.3905   43.1286 H   0  0  0  0  0  0  0  0  0  0  0  0
   49.7591   33.1476   43.5518 H   0  0  0  0  0  0  0  0  0  0  0  0
   46.8053   32.8407   44.1322 H   0  0  0  0  0  0  0  0  0  0  0  0
   45.6163   30.7629   44.8211 H   0  0  0  0  0  0  0  0  0  0  0  0
   46.9996   28.9346   41.3041 H   0  0  0  0  0  0  0  0  0  0  0  0
  1 27  1  0
  2  9  1  0
  2  1  2  0
  3  2  1  0
  4  3  2  0
  4  5  1  0
  5  6  2  0
  6  1  1  0
  6 14  1  0
  7 12  2  0
  8  9  2  0
  8  7  1  0
  9 10  1  0
 10 11  2  0
 12 11  1  0
 13  7  1  0
 14 19  1  0
 15 14  2  0
 15 16  1  0
 16 17  2  0
 17 18  1  0
 19 20  1  0
 19 18  2  0
 20 21  2  0
 21 22  1  0
 23 22  2  0
 24 23  1  0
 25 24  2  0
 25 20  1  0
 27 26  3  0
  3 28  1  0
  4 29  1  0
  5 30  1  0
  8 31  1  0
 11 32  1  0
 13 33  1  0
 13 34  1  0
 15 35  1  0
 16 36  1  0
 17 37  1  0
 18 38  1  0
 21 39  1  0
 22 40  1  0
 24 41  1  0
M  ISO  8  28  14  29  14  30  14  31  14  32  14  35  14  36  14  37  14
M  ISO  4  38  14  39  14  40  14  41  14
M  END
>  <minimizedAffinity>  (1) 
-6.02550697

>  <minimizedRMSD>  (1) 
0.287109256

$$$$
