
     RDKit          3D

 25 27  0  0  0  0  0  0  0  0999 V2000
   46.0510   32.9180   45.9770 C   0  0  0  0  0  0  0  0  0  0  0  0
   45.6770   32.6860   47.3310 C   0  0  0  0  0  0  0  0  0  0  0  0
   46.1520   31.5670   47.9390 C   0  0  0  0  0  0  0  0  0  0  0  0
   46.9910   30.6860   47.2110 C   0  0  0  0  0  0  0  0  0  0  0  0
   47.1130   31.4880   45.5750 S   0  0  0  0  0  0  0  0  0  0  0  0
   44.4620   36.0340   44.7440 C   0  0  0  0  0  0  0  0  0  0  0  0
   45.0390   36.0950   43.4490 C   0  0  0  0  0  0  0  0  0  0  0  0
   45.9300   35.0870   43.0630 C   0  0  0  0  0  0  0  0  0  0  0  0
   46.1930   34.0910   43.9700 N   0  0  0  0  0  0  0  0  0  0  0  0
   45.6170   34.0760   45.1940 C   0  0  0  0  0  0  0  0  0  0  0  0
   44.7520   35.0450   45.5840 N   0  0  0  0  0  0  0  0  0  0  0  0
   47.6210   29.4980   47.5300 C   0  0  0  0  0  0  0  0  0  0  0  0
   47.0370   28.2960   47.1910 C   0  0  0  0  0  0  0  0  0  0  0  0
   47.7210   27.1250   47.5380 C   0  0  0  0  0  0  0  0  0  0  0  0
   48.9130   27.2120   48.1850 N   0  0  0  0  0  0  0  0  0  0  0  0
   49.4550   28.4020   48.4990 C   0  0  0  0  0  0  0  0  0  0  0  0
   48.8010   29.5530   48.1690 N   0  0  0  0  0  0  0  0  0  0  0  0
   45.0243   33.3900   47.8680 H   0  0  0  0  0  0  0  0  0  0  0  0
   45.8884   31.3474   48.9841 H   0  0  0  0  0  0  0  0  0  0  0  0
   43.7608   36.8207   45.0592 H   0  0  0  0  0  0  0  0  0  0  0  0
   44.7910   36.9179   42.7624 H   0  0  0  0  0  0  0  0  0  0  0  0
   46.4020   35.0928   42.0694 H   0  0  0  0  0  0  0  0  0  0  0  0
   46.0702   28.2586   46.6677 H   0  0  0  0  0  0  0  0  0  0  0  0
   47.2967   26.1412   47.2887 H   0  0  0  0  0  0  0  0  0  0  0  0
   50.4226   28.4472   49.0203 H   0  0  0  0  0  0  0  0  0  0  0  0
  1  2  2  0
  2  3  1  0
  4 12  1  0
  4  3  2  0
  5  1  1  0
  5  4  1  0
  6 11  2  0
  7  6  1  0
  8  7  2  0
  8  9  1  0
  9 10  2  0
 10 11  1  0
 10  1  1  0
 12 17  1  0
 13 12  2  0
 13 14  1  0
 14 15  2  0
 15 16  1  0
 17 16  2  0
  2 18  1  0
  3 19  1  0
  6 20  1  0
  7 21  1  0
  8 22  1  0
 13 23  1  0
 14 24  1  0
 16 25  1  0
M  ISO  8  18  14  19  14  20  14  21  14  22  14  23  14  24  14  25  14
M  END
>  <minimizedAffinity>  (1) 
-4.54635239

>  <minimizedRMSD>  (1) 
1.43269742

$$$$
