
     RDKit          3D

 34 36  0  0  0  0  0  0  0  0999 V2000
   46.2130   34.0560   40.9940 C   0  0  0  0  0  0  0  0  0  0  0  0
   47.0220   33.9960   39.8590 C   0  0  0  0  0  0  0  0  0  0  0  0
   48.2650   34.5830   39.7200 C   0  0  0  0  0  0  0  0  0  0  0  0
   48.7130   35.2850   40.8320 C   0  0  0  0  0  0  0  0  0  0  0  0
   47.9320   35.3550   41.9610 C   0  0  0  0  0  0  0  0  0  0  0  0
   46.6980   34.7650   42.0830 C   0  0  0  0  0  0  0  0  0  0  0  0
   45.9700   34.9030   43.3480 C   0  0  0  0  0  0  0  0  0  0  0  0
   46.1290   33.9720   44.3470 C   0  0  0  0  0  0  0  0  0  0  0  0
   45.4910   34.0200   45.5670 C   0  0  0  0  0  0  0  0  0  0  0  0
   44.6410   35.0580   45.8090 N   0  0  0  0  0  0  0  0  0  0  0  0
   44.5000   35.9700   44.8040 C   0  0  0  0  0  0  0  0  0  0  0  0
   45.1350   35.8850   43.6400 N   0  0  0  0  0  0  0  0  0  0  0  0
   44.8920   33.4380   41.1010 C   0  0  0  0  0  0  0  0  0  0  0  0
   44.0260   33.7390   39.8720 C   0  0  0  0  0  0  0  0  0  0  0  0
   41.2030   35.5200   41.6640 C   0  0  0  0  0  0  0  0  0  0  0  0
   42.5310   35.2170   41.2630 C   0  0  0  0  0  0  0  0  0  0  0  0
   42.6890   34.1640   40.3780 C   0  0  0  0  0  0  0  0  0  0  0  0
   41.5500   33.5000   39.9580 N   0  0  0  0  0  0  0  0  0  0  0  0
   40.3290   33.8210   40.3620 C   0  0  0  0  0  0  0  0  0  0  0  0
   40.1500   34.8350   41.2180 N   0  0  0  0  0  0  0  0  0  0  0  0
   46.6358   33.4309   38.9979 H   0  0  0  0  0  0  0  0  0  0  0  0
   48.8567   34.5005   38.7964 H   0  0  0  0  0  0  0  0  0  0  0  0
   49.6926   35.7848   40.8090 H   0  0  0  0  0  0  0  0  0  0  0  0
   48.3202   35.9196   42.8215 H   0  0  0  0  0  0  0  0  0  0  0  0
   46.8127   33.1309   44.1593 H   0  0  0  0  0  0  0  0  0  0  0  0
   45.6627   33.2419   46.3253 H   0  0  0  0  0  0  0  0  0  0  0  0
   43.8237   36.8222   44.9663 H   0  0  0  0  0  0  0  0  0  0  0  0
   45.0141   32.3487   41.1934 H   0  0  0  0  0  0  0  0  0  0  0  0
   44.3887   33.8538   41.9863 H   0  0  0  0  0  0  0  0  0  0  0  0
   43.9259   32.8375   39.2497 H   0  0  0  0  0  0  0  0  0  0  0  0
   44.4811   34.5260   39.2527 H   0  0  0  0  0  0  0  0  0  0  0  0
   41.0373   36.3492   42.3675 H   0  0  0  0  0  0  0  0  0  0  0  0
   43.3919   35.7906   41.6370 H   0  0  0  0  0  0  0  0  0  0  0  0
   39.4616   33.2536   39.9936 H   0  0  0  0  0  0  0  0  0  0  0  0
  1 13  1  0
  1  6  1  0
  2  1  2  0
  3  2  1  0
  3  4  2  0
  4  5  1  0
  5  6  2  0
  6  7  1  0
  7 12  1  0
  7  8  2  0
  8  9  1  0
  9 10  2  0
 11 10  1  0
 12 11  2  0
 14 17  1  0
 14 13  1  0
 16 15  2  0
 17 16  1  0
 18 19  1  0
 18 17  2  0
 19 20  2  0
 20 15  1  0
  2 21  1  0
  3 22  1  0
  4 23  1  0
  5 24  1  0
  8 25  1  0
  9 26  1  0
 11 27  1  0
 13 28  1  0
 13 29  1  0
 14 30  1  0
 14 31  1  0
 15 32  1  0
 16 33  1  0
 19 34  1  0
M  ISO  8  21  14  22  14  23  14  24  14  25  14  26  14  27  14  28   8
M  ISO  6  29   8  30   8  31   8  32  14  33  14  34  14
M  END
>  <minimizedAffinity>  (1) 
-6.06559372

>  <minimizedRMSD>  (1) 
1.09946728

$$$$
