
     RDKit          3D

 39 41  0  0  0  0  0  0  0  0999 V2000
   46.8380   33.7310   44.4250 C   0  0  0  0  0  0  0  0  0  0  0  0
   44.4160   35.6640   42.3560 C   0  0  0  0  0  0  0  0  0  0  0  0
   43.6280   34.6100   41.8050 C   0  0  0  0  0  0  0  0  0  0  0  0
   43.9680   33.3460   42.1710 C   0  0  0  0  0  0  0  0  0  0  0  0
   45.0110   33.1860   43.0140 N   0  0  0  0  0  0  0  0  0  0  0  0
   45.7460   34.1640   43.5270 C   0  0  0  0  0  0  0  0  0  0  0  0
   45.4330   35.4070   43.1850 N   0  0  0  0  0  0  0  0  0  0  0  0
   42.5700   35.0560   40.8960 C   0  0  0  0  0  0  0  0  0  0  0  0
   41.3860   35.5510   41.3900 C   0  0  0  0  0  0  0  0  0  0  0  0
   40.3190   35.9860   40.6390 C   0  0  0  0  0  0  0  0  0  0  0  0
   40.4250   35.9300   39.2880 N   0  0  0  0  0  0  0  0  0  0  0  0
   41.5860   35.4440   38.7720 C   0  0  0  0  0  0  0  0  0  0  0  0
   42.5590   35.0490   39.5760 N   0  0  0  0  0  0  0  0  0  0  0  0
   43.1670   32.2580   41.6160 C   0  0  0  0  0  0  0  0  0  0  0  0
   43.6010   31.0280   42.1530 F   0  0  0  0  0  0  0  0  0  0  0  0
   43.5300   32.1480   40.2680 F   0  0  0  0  0  0  0  0  0  0  0  0
   41.8400   32.3870   41.8240 F   0  0  0  0  0  0  0  0  0  0  0  0
   46.3200   33.2860   45.7770 C   0  0  0  0  0  0  0  0  0  0  0  0
   46.3000   31.8300   45.9080 C   0  0  0  0  0  0  0  0  0  0  0  0
   46.8560   30.8770   45.0960 C   0  0  0  0  0  0  0  0  0  0  0  0
   46.5590   29.6580   45.6460 C   0  0  0  0  0  0  0  0  0  0  0  0
   45.8520   29.8620   46.7520 N   0  0  0  0  0  0  0  0  0  0  0  0
   45.7040   31.1740   46.8960 N   0  0  0  0  0  0  0  0  0  0  0  0
   45.3060   28.8610   47.6810 C   0  0  0  0  0  0  0  0  0  0  0  0
   44.8250   29.4910   48.8350 F   0  0  0  0  0  0  0  0  0  0  0  0
   46.2700   27.9220   47.9600 F   0  0  0  0  0  0  0  0  0  0  0  0
   44.2330   28.2450   47.0650 F   0  0  0  0  0  0  0  0  0  0  0  0
   46.9570   28.3670   45.1010 C   0  0  0  0  0  0  0  0  0  0  0  0
   46.1800   27.6150   44.4450 O   0  0  0  0  0  0  0  0  0  0  0  0
   47.5324   34.5716   44.5702 H   0  0  0  0  0  0  0  0  0  0  0  0
   47.3427   32.8734   43.9562 H   0  0  0  0  0  0  0  0  0  0  0  0
   44.1827   36.7066   42.0941 H   0  0  0  0  0  0  0  0  0  0  0  0
   41.2830   35.6038   42.4839 H   0  0  0  0  0  0  0  0  0  0  0  0
   39.4065   36.3681   41.1199 H   0  0  0  0  0  0  0  0  0  0  0  0
   41.7161   35.3793   37.6816 H   0  0  0  0  0  0  0  0  0  0  0  0
   46.9697   33.7034   46.5603 H   0  0  0  0  0  0  0  0  0  0  0  0
   45.2866   33.6488   45.8792 H   0  0  0  0  0  0  0  0  0  0  0  0
   47.4320   31.0566   44.1763 H   0  0  0  0  0  0  0  0  0  0  0  0
   47.9897   28.0277   45.2692 H   0  0  0  0  0  0  0  0  0  0  0  0
  1 18  1  0
  2  7  2  0
  3  4  2  0
  3  2  1  0
  4  5  1  0
  5  6  2  0
  6  1  1  0
  7  6  1  0
  8  9  2  0
  8  3  1  0
 10  9  1  0
 11 10  2  0
 12 11  1  0
 12 13  2  0
 13  8  1  0
 14 17  1  0
 14 15  1  0
 14  4  1  0
 16 14  1  0
 18 19  1  0
 19 23  2  0
 20 21  2  0
 20 19  1  0
 21 22  1  0
 22 23  1  0
 22 24  1  0
 24 26  1  0
 24 25  1  0
 27 24  1  0
 28 21  1  0
 29 28  2  0
  1 30  1  0
  1 31  1  0
  2 32  1  0
  9 33  1  0
 10 34  1  0
 12 35  1  0
 18 36  1  0
 18 37  1  0
 20 38  1  0
 28 39  1  0
M  ISO  8  30   8  31   8  32  14  33  14  34  14  35  14  36   8  37   8
M  ISO  2  38  14  39   6
M  END
>  <minimizedAffinity>  (1) 
-5.21028709

>  <minimizedRMSD>  (1) 
2.9651587

$$$$
