
     RDKit          3D

 46 50  0  0  0  0  0  0  0  0999 V2000
   47.4910   31.8900   47.7640 C   0  0  0  0  0  0  0  0  0  0  0  0
   46.9390   30.6150   47.8110 C   0  0  0  0  0  0  0  0  0  0  0  0
   45.9020   30.3640   46.9570 C   0  0  0  0  0  0  0  0  0  0  0  0
   45.4690   31.3170   46.1230 N   0  0  0  0  0  0  0  0  0  0  0  0
   45.9930   32.5380   46.0630 C   0  0  0  0  0  0  0  0  0  0  0  0
   47.0130   32.7940   46.9090 N   0  0  0  0  0  0  0  0  0  0  0  0
   45.2670   29.1340   46.9450 N   0  0  0  0  0  0  0  0  0  0  0  0
   44.0180   28.8300   46.2170 C   0  0  0  0  0  0  0  0  0  0  0  0
   43.8630   27.3320   46.3000 C   0  0  0  0  0  0  0  0  0  0  0  0
   44.5750   26.9870   47.5800 C   0  0  0  0  0  0  0  0  0  0  0  0
   45.7060   27.9560   47.6350 C   0  0  0  0  0  0  0  0  0  0  0  0
   45.6900   33.6980   45.2210 C   0  0  0  0  0  0  0  0  0  0  0  0
   44.9150   34.7360   45.6510 N   0  0  0  0  0  0  0  0  0  0  0  0
   44.6230   35.8160   44.9400 C   0  0  0  0  0  0  0  0  0  0  0  0
   45.1160   35.9400   43.6830 N   0  0  0  0  0  0  0  0  0  0  0  0
   45.8980   34.9750   43.1480 C   0  0  0  0  0  0  0  0  0  0  0  0
   46.3670   35.1140   41.8750 C   0  0  0  0  0  0  0  0  0  0  0  0
   47.1420   34.1360   41.3140 C   0  0  0  0  0  0  0  0  0  0  0  0
   47.4250   33.0130   42.0830 C   0  0  0  0  0  0  0  0  0  0  0  0
   46.9160   32.9380   43.3680 C   0  0  0  0  0  0  0  0  0  0  0  0
   46.1470   33.8940   43.9490 C   0  0  0  0  0  0  0  0  0  0  0  0
   47.3590   31.6280   43.8430 C   0  0  0  0  0  0  0  0  0  0  0  0
   46.4970   30.6220   43.3420 C   0  0  0  0  0  0  0  0  0  0  0  0
   46.6080   29.2440   43.5640 C   0  0  0  0  0  0  0  0  0  0  0  0
   47.6610   28.8620   44.3460 N   0  0  0  0  0  0  0  0  0  0  0  0
   48.4800   29.8440   44.8180 C   0  0  0  0  0  0  0  0  0  0  0  0
   48.3530   31.1430   44.5930 N   0  0  0  0  0  0  0  0  0  0  0  0
   47.5060   29.6620   48.6430 N   0  0  0  0  0  0  0  0  0  0  0  0
   48.3233   32.1532   48.4333 H   0  0  0  0  0  0  0  0  0  0  0  0
   44.0955   29.1517   45.1680 H   0  0  0  0  0  0  0  0  0  0  0  0
   43.1536   29.3561   46.6484 H   0  0  0  0  0  0  0  0  0  0  0  0
   42.8018   27.0467   46.3489 H   0  0  0  0  0  0  0  0  0  0  0  0
   44.2687   26.8056   45.4235 H   0  0  0  0  0  0  0  0  0  0  0  0
   43.9080   27.1148   48.4453 H   0  0  0  0  0  0  0  0  0  0  0  0
   44.9121   25.9403   47.6085 H   0  0  0  0  0  0  0  0  0  0  0  0
   46.5927   27.5337   47.1396 H   0  0  0  0  0  0  0  0  0  0  0  0
   45.9840   28.1843   48.6745 H   0  0  0  0  0  0  0  0  0  0  0  0
   43.9860   36.6051   45.3662 H   0  0  0  0  0  0  0  0  0  0  0  0
   46.1210   36.0167   41.2965 H   0  0  0  0  0  0  0  0  0  0  0  0
   47.5282   34.2350   40.2888 H   0  0  0  0  0  0  0  0  0  0  0  0
   48.0427   32.1982   41.6774 H   0  0  0  0  0  0  0  0  0  0  0  0
   45.6566   30.9566   42.7161 H   0  0  0  0  0  0  0  0  0  0  0  0
   45.8974   28.5200   43.1387 H   0  0  0  0  0  0  0  0  0  0  0  0
   49.3265   29.5277   45.4451 H   0  0  0  0  0  0  0  0  0  0  0  0
   47.1066   28.7136   48.6870 H   0  0  0  0  0  0  0  0  0  0  0  0
   48.3267   29.9023   49.2171 H   0  0  0  0  0  0  0  0  0  0  0  0
  1  2  2  0
  2 28  1  0
  3  2  1  0
  4  3  2  0
  5  4  1  0
  5  6  2  0
  6  1  1  0
  7  3  1  0
  7 11  1  0
  8  9  1  0
  8  7  1  0
  9 10  1  0
 10 11  1  0
 12 13  2  0
 12  5  1  0
 14 13  1  0
 15 14  2  0
 16 15  1  0
 16 21  2  0
 17 16  1  0
 18 17  2  0
 18 19  1  0
 19 20  2  0
 20 22  1  0
 20 21  1  0
 21 12  1  0
 22 27  2  0
 23 24  2  0
 23 22  1  0
 24 25  1  0
 25 26  2  0
 27 26  1  0
  1 29  1  0
  8 30  1  0
  8 31  1  0
  9 32  1  0
  9 33  1  0
 10 34  1  0
 10 35  1  0
 11 36  1  0
 11 37  1  0
 14 38  1  0
 17 39  1  0
 18 40  1  0
 19 41  1  0
 23 42  1  0
 24 43  1  0
 26 44  1  0
 28 45  1  0
 28 46  1  0
M  ISO  8  29  14  30  13  31  13  32  13  33  13  34  13  35  13  36  13
M  ISO  8  37  13  38  14  39  14  40  14  41  14  42  14  43  14  44  14
M  END
>  <minimizedAffinity>  (1) 
-6.11540556

>  <minimizedRMSD>  (1) 
0.921702206

$$$$
