
     RDKit          3D

 27 28  0  0  0  0  0  0  0  0999 V2000
   45.9530   32.5040   47.7200 O   0  0  0  0  0  0  0  0  0  0  0  0
   45.3450   34.5890   44.8400 C   0  0  0  0  0  0  0  0  0  0  0  0
   46.2610   34.0580   43.9240 C   0  0  0  0  0  0  0  0  0  0  0  0
   47.0600   32.9910   44.3450 C   0  0  0  0  0  0  0  0  0  0  0  0
   46.8990   32.5410   45.5980 N   0  0  0  0  0  0  0  0  0  0  0  0
   45.9940   33.0870   46.4600 C   0  0  0  0  0  0  0  0  0  0  0  0
   45.2140   34.1220   46.0640 N   0  0  0  0  0  0  0  0  0  0  0  0
   44.4960   35.7380   44.3640 C   0  0  0  0  0  0  0  0  0  0  0  0
   45.0800   30.8270   49.4750 O   0  0  0  0  0  0  0  0  0  0  0  0
   45.5940   30.8830   48.0390 P   0  0  1  0  0  0  0  0  0  0  0  0
   44.3440   30.2700   47.0740 O   0  0  0  0  0  0  0  0  0  0  0  0
   46.9470   29.9140   47.8070 O   0  0  0  0  0  0  0  0  0  0  0  0
   48.1780   30.3040   48.3190 C   0  0  0  0  0  0  0  0  0  0  0  0
   48.4870   31.3560   49.1560 C   0  0  0  0  0  0  0  0  0  0  0  0
   49.7900   31.5650   49.5450 C   0  0  0  0  0  0  0  0  0  0  0  0
   50.7410   30.7220   49.0900 N   0  0  0  0  0  0  0  0  0  0  0  0
   50.4770   29.6870   48.2730 C   0  0  0  0  0  0  0  0  0  0  0  0
   49.2060   29.5040   47.9080 N   0  0  0  0  0  0  0  0  0  0  0  0
   46.3491   34.4669   42.9066 H   0  0  0  0  0  0  0  0  0  0  0  0
   47.7982   32.5345   43.6692 H   0  0  0  0  0  0  0  0  0  0  0  0
   44.0945   36.2814   45.2320 H   0  0  0  0  0  0  0  0  0  0  0  0
   45.1090   36.4197   43.7561 H   0  0  0  0  0  0  0  0  0  0  0  0
   43.6643   35.3522   43.7561 H   0  0  0  0  0  0  0  0  0  0  0  0
   43.6231   29.9165   47.6531 H   0  0  0  0  0  0  0  0  0  0  0  0
   47.6919   32.0275   49.5123 H   0  0  0  0  0  0  0  0  0  0  0  0
   50.0509   32.4001   50.2117 H   0  0  0  0  0  0  0  0  0  0  0  0
   51.2759   29.0184   47.9198 H   0  0  0  0  0  0  0  0  0  0  0  0
  1 10  1  0
  2  7  2  0
  3  4  2  0
  3  2  1  0
  4  5  1  0
  5  6  2  0
  6  1  1  0
  7  6  1  0
  8  2  1  0
 10  9  2  0
 11 10  1  0
 12 10  1  0
 12 13  1  0
 13 14  2  0
 14 15  1  0
 16 15  2  0
 17 16  1  0
 18 17  2  0
 18 13  1  0
  3 19  1  0
  4 20  1  0
  8 21  1  0
  8 22  1  0
  8 23  1  0
 11 24  1  0
 14 25  1  0
 15 26  1  0
 17 27  1  0
M  ISO  8  19  14  20  14  21   8  22   8  23   8  24   3  25  14  26  14
M  ISO  1  27  14
M  END
>  <minimizedAffinity>  (1) 
-4.8379364

>  <minimizedRMSD>  (1) 
1.38232231

$$$$
