
     RDKit          3D

 42 45  0  0  1  0  0  0  0  0999 V2000
   42.6750   34.8720   40.2550 C   0  0  0  0  0  0  0  0  0  0  0  0
   42.5420   35.1870   38.9230 C   0  0  0  0  0  0  0  0  0  0  0  0
   41.3390   35.0810   38.2440 C   0  0  0  0  0  0  0  0  0  0  0  0
   40.2710   34.6440   38.9540 N   0  0  0  0  0  0  0  0  0  0  0  0
   40.3950   34.3320   40.2650 C   0  0  0  0  0  0  0  0  0  0  0  0
   41.5690   34.4390   40.9170 N   0  0  0  0  0  0  0  0  0  0  0  0
   43.9700   34.6570   42.3550 C   0  0  1  0  0  0  0  0  0  0  0  0
   44.1770   36.1500   41.9290 C   0  0  0  0  0  0  0  0  0  0  0  0
   44.0080   34.9820   40.9610 C   0  0  2  0  0  0  0  0  0  0  0  0
   45.1020   34.0920   43.1180 C   0  0  0  0  0  0  0  0  0  0  0  0
   46.3400   33.9760   42.4490 C   0  0  0  0  0  0  0  0  0  0  0  0
   47.4230   33.4500   43.1470 C   0  0  0  0  0  0  0  0  0  0  0  0
   47.2260   33.0760   44.4380 N   0  0  0  0  0  0  0  0  0  0  0  0
   46.0320   33.2010   45.0450 C   0  0  0  0  0  0  0  0  0  0  0  0
   45.0050   33.7080   44.3590 N   0  0  0  0  0  0  0  0  0  0  0  0
   46.0350   32.7360   46.4650 C   0  0  0  0  0  0  0  0  0  0  0  0
   45.0700   33.3970   47.2080 F   0  0  0  0  0  0  0  0  0  0  0  0
   47.2680   33.0740   47.0620 F   0  0  0  0  0  0  0  0  0  0  0  0
   45.9280   31.3740   46.5140 F   0  0  0  0  0  0  0  0  0  0  0  0
   39.2440   33.8490   41.0460 C   0  0  0  0  0  0  0  0  0  0  0  0
   38.5140   32.7270   40.3570 C   0  0  0  0  0  0  0  0  0  0  0  0
   38.4820   31.4540   41.0510 C   0  0  0  0  0  0  0  0  0  0  0  0
   37.5110   30.4970   41.2330 C   0  0  0  0  0  0  0  0  0  0  0  0
   37.6370   29.3290   41.9470 C   0  0  0  0  0  0  0  0  0  0  0  0
   38.8260   29.1100   42.5210 N   0  0  0  0  0  0  0  0  0  0  0  0
   39.8300   30.0200   42.3790 C   0  0  0  0  0  0  0  0  0  0  0  0
   39.6480   31.1280   41.6770 N   0  0  0  0  0  0  0  0  0  0  0  0
   43.4280   35.5379   38.3735 H   0  0  0  0  0  0  0  0  0  0  0  0
   41.2549   35.3396   37.1781 H   0  0  0  0  0  0  0  0  0  0  0  0
   43.2548   34.0401   42.9188 H   0  0  0  0  0  0  0  0  0  0  0  0
   43.3746   36.8903   42.0636 H   0  0  0  0  0  0  0  0  0  0  0  0
   44.9158   36.9443   42.1113 H   0  0  0  0  0  0  0  0  0  0  0  0
   44.6055   34.6331   40.1059 H   0  0  0  0  0  0  0  0  0  0  0  0
   46.4459   34.2938   41.4012 H   0  0  0  0  0  0  0  0  0  0  0  0
   48.4074   33.3406   42.6685 H   0  0  0  0  0  0  0  0  0  0  0  0
   39.6044   33.4898   42.0212 H   0  0  0  0  0  0  0  0  0  0  0  0
   38.5405   34.6869   41.1603 H   0  0  0  0  0  0  0  0  0  0  0  0
   37.4738   33.0499   40.2028 H   0  0  0  0  0  0  0  0  0  0  0  0
   39.0761   32.5395   39.4302 H   0  0  0  0  0  0  0  0  0  0  0  0
   36.5359   30.6851   40.7598 H   0  0  0  0  0  0  0  0  0  0  0  0
   36.8065   28.6139   42.0413 H   0  0  0  0  0  0  0  0  0  0  0  0
   40.8044   29.8319   42.8536 H   0  0  0  0  0  0  0  0  0  0  0  0
  1  6  1  0
  1  9  1  0
  2  1  2  0
  3  2  1  0
  3  4  2  0
  4  5  1  0
  5  6  2  0
  5 20  1  0
  7 10  1  0
  8  7  1  0
  9  8  1  0
  9  7  1  0
 10 15  1  0
 11 10  2  0
 11 12  1  0
 12 13  2  0
 13 14  1  0
 14 16  1  0
 15 14  2  0
 16 19  1  0
 16 18  1  0
 16 17  1  0
 21 20  1  0
 21 22  1  0
 22 23  2  0
 22 27  1  0
 23 24  1  0
 24 25  2  0
 26 25  1  0
 27 26  2  0
  2 28  1  0
  3 29  1  0
  7 30  1  1
  8 31  1  0
  8 32  1  0
  9 33  1  6
 11 34  1  0
 12 35  1  0
 20 36  1  0
 20 37  1  0
 21 38  1  0
 21 39  1  0
 23 40  1  0
 24 41  1  0
 26 42  1  0
M  ISO  8  28  14  29  14  30  13  31  13  32  13  33  13  34  14  35  14
M  ISO  7  36   8  37   8  38   8  39   8  40  14  41  14  42  14
M  END
>  <minimizedAffinity>  (1) 
-6.05286121

>  <minimizedRMSD>  (1) 
1.65786242

$$$$
