
     RDKit          3D

 21 22  0  0  0  0  0  0  0  0999 V2000
   47.5980   34.9670   42.3190 C   0  0  0  0  0  0  0  0  0  0  0  0
   47.8080   33.9760   43.2980 C   0  0  0  0  0  0  0  0  0  0  0  0
   46.7530   33.6580   44.1550 C   0  0  0  0  0  0  0  0  0  0  0  0
   45.5830   34.3100   44.0060 N   0  0  0  0  0  0  0  0  0  0  0  0
   45.3940   35.2620   43.0590 C   0  0  0  0  0  0  0  0  0  0  0  0
   46.4030   35.5840   42.2210 N   0  0  0  0  0  0  0  0  0  0  0  0
   46.9210   32.6540   45.1690 C   0  0  0  0  0  0  0  0  0  0  0  0
   46.6060   32.9430   46.4800 C   0  0  0  0  0  0  0  0  0  0  0  0
   46.7830   31.9430   47.4390 C   0  0  0  0  0  0  0  0  0  0  0  0
   47.2540   30.7090   47.0950 N   0  0  0  0  0  0  0  0  0  0  0  0
   47.5440   30.4790   45.8090 C   0  0  0  0  0  0  0  0  0  0  0  0
   47.3820   31.4320   44.8650 N   0  0  0  0  0  0  0  0  0  0  0  0
   48.7460   35.2870   41.4160 C   0  0  0  0  0  0  0  0  0  0  0  0
   48.3970   35.2000   40.0970 F   0  0  0  0  0  0  0  0  0  0  0  0
   49.2000   36.5600   41.7590 F   0  0  0  0  0  0  0  0  0  0  0  0
   49.8120   34.4180   41.7140 F   0  0  0  0  0  0  0  0  0  0  0  0
   48.7786   33.4658   43.3849 H   0  0  0  0  0  0  0  0  0  0  0  0
   44.4222   35.7703   42.9736 H   0  0  0  0  0  0  0  0  0  0  0  0
   46.2252   33.9354   46.7632 H   0  0  0  0  0  0  0  0  0  0  0  0
   46.5384   32.1538   48.4905 H   0  0  0  0  0  0  0  0  0  0  0  0
   47.9236   29.4898   45.5132 H   0  0  0  0  0  0  0  0  0  0  0  0
  1  2  2  0
  2  3  1  0
  3  7  1  0
  4  3  2  0
  5  4  1  0
  6  1  1  0
  6  5  2  0
  7  8  2  0
  8  9  1  0
 10  9  2  0
 11 10  1  0
 12  7  1  0
 12 11  2  0
 13 16  1  0
 13 15  1  0
 13  1  1  0
 14 13  1  0
  2 17  1  0
  5 18  1  0
  8 19  1  0
  9 20  1  0
 11 21  1  0
M  ISO  5  17  14  18  14  19  14  20  14  21  14
M  END
>  <minimizedAffinity>  (1) 
-4.98194122

>  <minimizedRMSD>  (1) 
0.464744598

$$$$
