
     RDKit          3D

 44 47  0  0  1  0  0  0  0  0999 V2000
   44.1530   33.0600   40.8720 C   0  0  0  0  0  0  0  0  0  0  0  0
   44.0730   32.0810   41.6630 O   0  0  0  0  0  0  0  0  0  0  0  0
   43.0180   33.7370   40.2960 N   0  0  0  0  0  0  0  0  0  0  0  0
   42.7470   35.1580   40.1270 C   0  0  0  0  0  0  0  0  0  0  0  0
   42.3670   35.4130   38.6620 C   0  0  0  0  0  0  0  0  0  0  0  0
   41.0810   34.6840   38.3390 C   0  0  0  0  0  0  0  0  0  0  0  0
   40.7680   33.6940   39.4250 C   0  0  0  0  0  0  0  0  0  0  0  0
   41.9750   32.8700   39.7980 C   0  0  2  0  0  0  0  0  0  0  0  0
   45.9820   33.2020   39.2470 C   0  0  0  0  0  0  0  0  0  0  0  0
   45.4720   33.5320   40.5230 C   0  0  0  0  0  0  0  0  0  0  0  0
   46.2430   34.2830   41.3820 C   0  0  0  0  0  0  0  0  0  0  0  0
   47.4670   34.6800   40.9690 N   0  0  0  0  0  0  0  0  0  0  0  0
   47.9680   34.3710   39.7470 C   0  0  0  0  0  0  0  0  0  0  0  0
   47.2120   33.6340   38.9070 N   0  0  0  0  0  0  0  0  0  0  0  0
   45.7110   34.6130   42.6880 C   0  0  0  0  0  0  0  0  0  0  0  0
   45.0290   35.7800   42.8710 C   0  0  0  0  0  0  0  0  0  0  0  0
   44.5290   36.0750   44.1230 C   0  0  0  0  0  0  0  0  0  0  0  0
   44.6880   35.2340   45.2140 C   0  0  0  0  0  0  0  0  0  0  0  0
   45.3930   34.0580   44.9680 C   0  0  0  0  0  0  0  0  0  0  0  0
   45.8650   33.8030   43.7360 N   0  0  0  0  0  0  0  0  0  0  0  0
   41.6040   31.7770   40.7230 C   0  0  0  0  0  0  0  0  0  0  0  0
   41.8480   30.4360   40.5360 C   0  0  0  0  0  0  0  0  0  0  0  0
   41.4870   29.4530   41.4230 C   0  0  0  0  0  0  0  0  0  0  0  0
   40.8510   29.7960   42.5560 N   0  0  0  0  0  0  0  0  0  0  0  0
   40.5940   31.1090   42.7750 C   0  0  0  0  0  0  0  0  0  0  0  0
   40.9570   32.0470   41.8920 N   0  0  0  0  0  0  0  0  0  0  0  0
   41.9162   35.4574   40.7829 H   0  0  0  0  0  0  0  0  0  0  0  0
   43.6390   35.7448   40.3915 H   0  0  0  0  0  0  0  0  0  0  0  0
   42.2265   36.4922   38.5024 H   0  0  0  0  0  0  0  0  0  0  0  0
   43.1704   35.0463   38.0062 H   0  0  0  0  0  0  0  0  0  0  0  0
   40.2594   35.4111   38.2604 H   0  0  0  0  0  0  0  0  0  0  0  0
   41.1973   34.1499   37.3844 H   0  0  0  0  0  0  0  0  0  0  0  0
   40.4209   34.2397   40.3148 H   0  0  0  0  0  0  0  0  0  0  0  0
   39.9908   33.0113   39.0511 H   0  0  0  0  0  0  0  0  0  0  0  0
   42.3807   32.3679   38.9073 H   0  0  0  0  0  0  0  0  0  0  0  0
   45.3851   32.6028   38.5436 H   0  0  0  0  0  0  0  0  0  0  0  0
   48.9693   34.7140   39.4472 H   0  0  0  0  0  0  0  0  0  0  0  0
   44.8797   36.4761   42.0325 H   0  0  0  0  0  0  0  0  0  0  0  0
   43.9804   37.0183   44.2615 H   0  0  0  0  0  0  0  0  0  0  0  0
   44.2843   35.4791   46.2075 H   0  0  0  0  0  0  0  0  0  0  0  0
   45.5633   33.3382   45.7822 H   0  0  0  0  0  0  0  0  0  0  0  0
   42.3666   30.1317   39.6149 H   0  0  0  0  0  0  0  0  0  0  0  0
   41.7152   28.3984   41.2094 H   0  0  0  0  0  0  0  0  0  0  0  0
   40.0763   31.4097   43.6978 H   0  0  0  0  0  0  0  0  0  0  0  0
  1  2  2  0
  3  1  1  0
  4  3  1  0
  5  4  1  0
  6  5  1  0
  6  7  1  0
  7  8  1  0
  8  3  1  0
  8 21  1  0
  9 10  2  0
 10  1  1  0
 10 11  1  0
 11 15  1  0
 12 11  2  0
 13 12  1  0
 14  9  1  0
 14 13  2  0
 15 16  2  0
 15 20  1  0
 16 17  1  0
 17 18  2  0
 19 18  1  0
 20 19  2  0
 21 26  1  0
 22 21  2  0
 22 23  1  0
 23 24  2  0
 24 25  1  0
 26 25  2  0
  4 27  1  0
  4 28  1  0
  5 29  1  0
  5 30  1  0
  6 31  1  0
  6 32  1  0
  7 33  1  0
  7 34  1  0
  8 35  1  6
  9 36  1  0
 13 37  1  0
 16 38  1  0
 17 39  1  0
 18 40  1  0
 19 41  1  0
 22 42  1  0
 23 43  1  0
 25 44  1  0
M  ISO  8  27  13  28  13  29  13  30  13  31  13  32  13  33  13  34  13
M  ISO  8  35  13  36  14  37  14  38  14  39  14  40  14  41  14  42  14
M  ISO  2  43  14  44  14
M  END
>  <minimizedAffinity>  (1) 
-6.08391142

>  <minimizedRMSD>  (1) 
6.34335279

$$$$
