
     RDKit          3D

 28 30  0  0  0  0  0  0  0  0999 V2000
   44.7820   32.9080   41.2180 Br  0  0  0  0  0  0  0  0  0  0  0  0
   46.4000   33.9140   41.0030 C   0  0  0  0  0  0  0  0  0  0  0  0
   46.9090   34.7500   41.9840 C   0  0  0  0  0  0  0  0  0  0  0  0
   48.0690   35.4320   41.7380 C   0  0  0  0  0  0  0  0  0  0  0  0
   48.7490   35.3120   40.5410 C   0  0  0  0  0  0  0  0  0  0  0  0
   48.2600   34.4850   39.5510 C   0  0  0  0  0  0  0  0  0  0  0  0
   47.0950   33.8060   39.8100 C   0  0  0  0  0  0  0  0  0  0  0  0
   44.4980   35.8940   44.6830 C   0  0  0  0  0  0  0  0  0  0  0  0
   45.2170   35.8280   43.4840 C   0  0  0  0  0  0  0  0  0  0  0  0
   46.1500   34.8370   43.2300 C   0  0  0  0  0  0  0  0  0  0  0  0
   46.3090   33.9340   44.2440 N   0  0  0  0  0  0  0  0  0  0  0  0
   45.6150   33.9990   45.3960 C   0  0  0  0  0  0  0  0  0  0  0  0
   44.7220   34.9710   45.6070 N   0  0  0  0  0  0  0  0  0  0  0  0
   46.5460   32.9210   38.7890 C   0  0  0  0  0  0  0  0  0  0  0  0
   46.9380   31.6180   38.5880 C   0  0  0  0  0  0  0  0  0  0  0  0
   46.4200   30.7810   37.6220 C   0  0  0  0  0  0  0  0  0  0  0  0
   45.4570   31.2630   36.8100 N   0  0  0  0  0  0  0  0  0  0  0  0
   45.0480   32.5540   36.9870 C   0  0  0  0  0  0  0  0  0  0  0  0
   45.5780   33.3260   37.9330 N   0  0  0  0  0  0  0  0  0  0  0  0
   48.4727   36.0960   42.5165 H   0  0  0  0  0  0  0  0  0  0  0  0
   49.6795   35.8755   40.3777 H   0  0  0  0  0  0  0  0  0  0  0  0
   48.7838   34.3737   38.5901 H   0  0  0  0  0  0  0  0  0  0  0  0
   43.7632   36.6944   44.8545 H   0  0  0  0  0  0  0  0  0  0  0  0
   45.0339   36.5923   42.7144 H   0  0  0  0  0  0  0  0  0  0  0  0
   45.7854   33.2412   46.1749 H   0  0  0  0  0  0  0  0  0  0  0  0
   47.7218   31.2141   39.2457 H   0  0  0  0  0  0  0  0  0  0  0  0
   46.7826   29.7478   37.5166 H   0  0  0  0  0  0  0  0  0  0  0  0
   44.2639   32.9646   36.3339 H   0  0  0  0  0  0  0  0  0  0  0  0
  2  1  1  0
  2  3  2  0
  3 10  1  0
  4  3  1  0
  5  4  2  0
  6  7  2  0
  6  5  1  0
  7  2  1  0
  8 13  2  0
  9  8  1  0
 10  9  2  0
 10 11  1  0
 11 12  2  0
 12 13  1  0
 14  7  1  0
 15 14  2  0
 16 15  1  0
 17 18  1  0
 17 16  2  0
 18 19  2  0
 19 14  1  0
  4 20  1  0
  5 21  1  0
  6 22  1  0
  8 23  1  0
  9 24  1  0
 12 25  1  0
 15 26  1  0
 16 27  1  0
 18 28  1  0
M  ISO  8  20  14  21  14  22  14  23  14  24  14  25  14  26  14  27  14
M  ISO  1  28  14
M  END
>  <minimizedAffinity>  (1) 
-5.45676565

>  <minimizedRMSD>  (1) 
0.291144729

$$$$
