
     RDKit          3D

 34 36  0  0  0  0  0  0  0  0999 V2000
   46.3360   31.6660   46.1930 C   0  0  0  0  0  0  0  0  0  0  0  0
   47.0600   32.2370   47.3630 C   0  0  0  0  0  0  0  0  0  0  0  0
   47.1970   31.2910   48.4310 C   0  0  0  0  0  0  0  0  0  0  0  0
   45.9780   30.4590   48.8120 C   0  0  0  0  0  0  0  0  0  0  0  0
   44.9570   30.3430   47.6990 C   0  0  0  0  0  0  0  0  0  0  0  0
   45.6790   30.3730   46.3520 C   0  0  0  0  0  0  0  0  0  0  0  0
   47.1000   31.7490   44.9600 C   0  0  0  0  0  0  0  0  0  0  0  0
   46.8000   32.8770   44.2200 C   0  0  0  0  0  0  0  0  0  0  0  0
   47.4280   32.9430   42.9720 C   0  0  0  0  0  0  0  0  0  0  0  0
   48.2600   31.9360   42.5920 N   0  0  0  0  0  0  0  0  0  0  0  0
   48.5280   30.8610   43.3500 C   0  0  0  0  0  0  0  0  0  0  0  0
   47.9420   30.7710   44.5410 N   0  0  0  0  0  0  0  0  0  0  0  0
   46.0320   34.1000   44.2420 C   0  0  0  0  0  0  0  0  0  0  0  0
   45.9330   35.0090   43.1940 C   0  0  0  0  0  0  0  0  0  0  0  0
   45.1480   36.1380   43.1470 C   0  0  0  0  0  0  0  0  0  0  0  0
   44.4300   36.3130   44.2670 N   0  0  0  0  0  0  0  0  0  0  0  0
   44.4650   35.4890   45.3180 C   0  0  0  0  0  0  0  0  0  0  0  0
   45.2480   34.4040   45.3080 N   0  0  0  0  0  0  0  0  0  0  0  0
   45.4762   32.3485   46.1230 H   0  0  0  0  0  0  0  0  0  0  0  0
   48.0627   32.5528   47.0391 H   0  0  0  0  0  0  0  0  0  0  0  0
   46.4736   33.0880   47.7397 H   0  0  0  0  0  0  0  0  0  0  0  0
   47.9953   30.5899   48.1463 H   0  0  0  0  0  0  0  0  0  0  0  0
   47.3969   31.9077   49.3197 H   0  0  0  0  0  0  0  0  0  0  0  0
   46.3165   29.4477   49.0814 H   0  0  0  0  0  0  0  0  0  0  0  0
   45.4856   30.9703   49.6523 H   0  0  0  0  0  0  0  0  0  0  0  0
   44.4071   29.3958   47.8010 H   0  0  0  0  0  0  0  0  0  0  0  0
   44.2480   31.1820   47.7579 H   0  0  0  0  0  0  0  0  0  0  0  0
   44.9511   30.2270   45.5403 H   0  0  0  0  0  0  0  0  0  0  0  0
   46.4284   29.5686   46.3144 H   0  0  0  0  0  0  0  0  0  0  0  0
   47.2511   33.7997   42.3051 H   0  0  0  0  0  0  0  0  0  0  0  0
   49.2130   30.0764   42.9963 H   0  0  0  0  0  0  0  0  0  0  0  0
   46.5492   34.8029   42.3064 H   0  0  0  0  0  0  0  0  0  0  0  0
   45.1129   36.8218   42.2861 H   0  0  0  0  0  0  0  0  0  0  0  0
   43.8441   35.7046   46.2001 H   0  0  0  0  0  0  0  0  0  0  0  0
  1  6  1  0
  1  2  1  0
  2  3  1  0
  3  4  1  0
  5  4  1  0
  6  5  1  0
  7  1  1  0
  8 13  1  0
  8  7  1  0
  9  8  2  0
 10  9  1  0
 10 11  2  0
 11 12  1  0
 12  7  2  0
 13 18  1  0
 14 13  2  0
 15 14  1  0
 15 16  2  0
 16 17  1  0
 18 17  2  0
  1 19  1  0
  2 20  1  0
  2 21  1  0
  3 22  1  0
  3 23  1  0
  4 24  1  0
  4 25  1  0
  5 26  1  0
  5 27  1  0
  6 28  1  0
  6 29  1  0
  9 30  1  0
 11 31  1  0
 14 32  1  0
 15 33  1  0
 17 34  1  0
M  ISO  8  19  13  20  13  21  13  22  13  23  13  24  13  25  13  26  13
M  ISO  8  27  13  28  13  29  13  30  14  31  14  32  14  33  14  34  14
M  END
>  <minimizedAffinity>  (1) 
-5.00292683

>  <minimizedRMSD>  (1) 
5.27674103

$$$$
