
     RDKit          3D

 43 46  0  0  1  0  0  0  0  0999 V2000
   47.8060   32.8460   41.6830 C   0  0  1  0  0  0  0  0  0  0  0  0
   47.3990   32.1480   40.4460 C   0  0  0  0  0  0  0  0  0  0  0  0
   48.4000   32.5850   39.3760 C   0  0  0  0  0  0  0  0  0  0  0  0
   48.1210   34.0480   39.0880 C   0  0  0  0  0  0  0  0  0  0  0  0
   48.1420   34.9240   40.3010 C   0  0  0  0  0  0  0  0  0  0  0  0
   47.6700   34.3500   41.5660 C   0  0  1  0  0  0  0  0  0  0  0  0
   45.4400   31.0480   44.0160 C   0  0  0  0  0  0  0  0  0  0  0  0
   46.0840   31.5250   42.8760 C   0  0  0  0  0  0  0  0  0  0  0  0
   47.1800   32.3750   42.9120 C   0  0  0  0  0  0  0  0  0  0  0  0
   47.6010   32.7280   44.1380 N   0  0  0  0  0  0  0  0  0  0  0  0
   46.9860   32.2740   45.2570 C   0  0  0  0  0  0  0  0  0  0  0  0
   45.9390   31.4610   45.2140 N   0  0  0  0  0  0  0  0  0  0  0  0
   46.3110   34.7940   41.9300 C   0  0  0  0  0  0  0  0  0  0  0  0
   45.9410   35.5080   43.0750 C   0  0  0  0  0  0  0  0  0  0  0  0
   44.5820   35.8330   43.1780 C   0  0  0  0  0  0  0  0  0  0  0  0
   43.7390   35.4310   42.1660 C   0  0  0  0  0  0  0  0  0  0  0  0
   44.1190   34.7310   41.0490 C   0  0  0  0  0  0  0  0  0  0  0  0
   45.4330   34.4180   40.9520 N   0  0  0  0  0  0  0  0  0  0  0  0
   43.1250   34.3590   40.0380 C   0  0  0  0  0  0  0  0  0  0  0  0
   43.1710   33.1650   39.3810 C   0  0  0  0  0  0  0  0  0  0  0  0
   42.1600   32.9770   38.4630 C   0  0  0  0  0  0  0  0  0  0  0  0
   41.1850   33.8640   38.1970 N   0  0  0  0  0  0  0  0  0  0  0  0
   41.1840   35.0410   38.8800 C   0  0  0  0  0  0  0  0  0  0  0  0
   42.1630   35.2680   39.7960 N   0  0  0  0  0  0  0  0  0  0  0  0
   48.8696   32.5819   41.7783 H   0  0  0  0  0  0  0  0  0  0  0  0
   47.4416   31.0581   40.5888 H   0  0  0  0  0  0  0  0  0  0  0  0
   46.3659   32.3960   40.1610 H   0  0  0  0  0  0  0  0  0  0  0  0
   49.4284   32.4611   39.7461 H   0  0  0  0  0  0  0  0  0  0  0  0
   48.2964   31.9762   38.4657 H   0  0  0  0  0  0  0  0  0  0  0  0
   48.8839   34.4133   38.3848 H   0  0  0  0  0  0  0  0  0  0  0  0
   47.1027   34.1016   38.6755 H   0  0  0  0  0  0  0  0  0  0  0  0
   49.1822   35.2469   40.4548 H   0  0  0  0  0  0  0  0  0  0  0  0
   47.4249   35.7272   40.0759 H   0  0  0  0  0  0  0  0  0  0  0  0
   48.3708   34.7636   42.3061 H   0  0  0  0  0  0  0  0  0  0  0  0
   44.5738   30.3731   43.9516 H   0  0  0  0  0  0  0  0  0  0  0  0
   45.7024   31.2103   41.8935 H   0  0  0  0  0  0  0  0  0  0  0  0
   47.3696   32.5917   46.2378 H   0  0  0  0  0  0  0  0  0  0  0  0
   46.6711   35.7960   43.8457 H   0  0  0  0  0  0  0  0  0  0  0  0
   44.1990   36.3938   44.0434 H   0  0  0  0  0  0  0  0  0  0  0  0
   42.6747   35.6923   42.2609 H   0  0  0  0  0  0  0  0  0  0  0  0
   43.9515   32.4129   39.5683 H   0  0  0  0  0  0  0  0  0  0  0  0
   42.1501   32.0289   37.9054 H   0  0  0  0  0  0  0  0  0  0  0  0
   40.4052   35.7953   38.6944 H   0  0  0  0  0  0  0  0  0  0  0  0
  1  9  1  0
  2  1  1  0
  3  2  1  0
  4  3  1  0
  4  5  1  0
  5  6  1  0
  6  1  1  0
  6 13  1  0
  7 12  2  0
  8  9  2  0
  8  7  1  0
  9 10  1  0
 10 11  2  0
 12 11  1  0
 13 14  2  0
 14 15  1  0
 16 15  2  0
 17 16  1  0
 18 17  2  0
 18 13  1  0
 19 17  1  0
 20 19  2  0
 21 20  1  0
 22 21  2  0
 22 23  1  0
 23 24  2  0
 24 19  1  0
  1 25  1  1
  2 26  1  0
  2 27  1  0
  3 28  1  0
  3 29  1  0
  4 30  1  0
  4 31  1  0
  5 32  1  0
  5 33  1  0
  6 34  1  1
  7 35  1  0
  8 36  1  0
 11 37  1  0
 14 38  1  0
 15 39  1  0
 16 40  1  0
 20 41  1  0
 21 42  1  0
 23 43  1  0
M  ISO  8  25  13  26  13  27  13  28  13  29  13  30  13  31  13  32  13
M  ISO  8  33  13  34  13  35  14  36  14  37  14  38  14  39  14  40  14
M  ISO  3  41  14  42  14  43  14
M  END
>  <minimizedAffinity>  (1) 
-5.61158752

>  <minimizedRMSD>  (1) 
0.382414252

$$$$
