
     RDKit          3D

 19 20  0  0  0  0  0  0  0  0999 V2000
   44.8720   35.0580   44.5660 C   0  0  0  0  0  0  0  0  0  0  0  0
   45.7550   34.9680   43.4740 C   0  0  0  0  0  0  0  0  0  0  0  0
   46.8290   34.0740   43.5960 C   0  0  0  0  0  0  0  0  0  0  0  0
   46.9590   33.3500   44.7500 N   0  0  0  0  0  0  0  0  0  0  0  0
   46.0790   33.4810   45.7630 C   0  0  0  0  0  0  0  0  0  0  0  0
   45.0520   34.3270   45.6640 N   0  0  0  0  0  0  0  0  0  0  0  0
   46.2840   32.6740   46.9620 C   0  0  0  0  0  0  0  0  0  0  0  0
   45.2800   32.6150   47.9060 C   0  0  0  0  0  0  0  0  0  0  0  0
   45.5810   31.8170   49.0080 C   0  0  0  0  0  0  0  0  0  0  0  0
   46.7280   31.1420   49.1940 N   0  0  0  0  0  0  0  0  0  0  0  0
   47.6660   31.2440   48.2340 C   0  0  0  0  0  0  0  0  0  0  0  0
   47.4390   32.0060   47.1300 N   0  0  0  0  0  0  0  0  0  0  0  0
   43.8200   35.9300   44.4550 O   0  0  0  0  0  0  0  0  0  0  0  0
   45.6096   35.5714   42.5658 H   0  0  0  0  0  0  0  0  0  0  0  0
   47.5547   33.9568   42.7777 H   0  0  0  0  0  0  0  0  0  0  0  0
   44.3254   33.1509   47.7983 H   0  0  0  0  0  0  0  0  0  0  0  0
   44.8145   31.7324   49.7924 H   0  0  0  0  0  0  0  0  0  0  0  0
   48.6208   30.7086   48.3426 H   0  0  0  0  0  0  0  0  0  0  0  0
   43.7048   36.4641   43.6294 H   0  0  0  0  0  0  0  0  0  0  0  0
  1  6  2  0
  2  3  2  0
  2  1  1  0
  3  4  1  0
  4  5  2  0
  5  7  1  0
  6  5  1  0
  7 12  1  0
  7  8  2  0
  8  9  1  0
  9 10  2  0
 11 10  1  0
 12 11  2  0
 13  1  1  0
  2 14  1  0
  3 15  1  0
  8 16  1  0
  9 17  1  0
 11 18  1  0
 13 19  1  0
M  ISO  6  14  14  15  14  16  14  17  14  18  14  19   3
M  END
>  <minimizedAffinity>  (1) 
-4.97132301

>  <minimizedRMSD>  (1) 
1.50731015

$$$$
