
     RDKit          3D

 39 42  0  0  1  0  0  0  0  0999 V2000
   39.8220   33.4140   42.2480 N   0  0  0  0  0  0  0  0  0  0  0  0
   40.0050   34.5750   41.3720 C   0  0  2  0  0  0  0  0  0  0  0  0
   39.0620   34.5870   40.2280 C   0  0  0  0  0  0  0  0  0  0  0  0
   38.0240   33.5780   40.3440 N   0  0  0  0  0  0  0  0  0  0  0  0
   38.4770   32.2730   40.6640 C   0  0  0  0  0  0  0  0  0  0  0  0
   39.8380   32.2580   41.3200 C   0  0  2  0  0  0  0  0  0  0  0  0
   43.5530   34.4800   40.7470 C   0  0  0  0  0  0  0  0  0  0  0  0
   42.9840   34.5560   39.4680 C   0  0  0  0  0  0  0  0  0  0  0  0
   41.6060   34.6070   39.5660 C   0  0  0  0  0  0  0  0  0  0  0  0
   41.3680   34.5590   40.8740 N   0  0  0  0  0  0  0  0  0  0  0  0
   42.5000   34.4850   41.5640 N   0  0  0  0  0  0  0  0  0  0  0  0
   47.2540   33.8300   40.6100 C   0  0  0  0  0  0  0  0  0  0  0  0
   45.8790   33.7750   40.2010 C   0  0  0  0  0  0  0  0  0  0  0  0
   44.9890   34.4270   41.0180 C   0  0  0  0  0  0  0  0  0  0  0  0
   45.4320   35.0720   42.1360 N   0  0  0  0  0  0  0  0  0  0  0  0
   46.7370   35.0970   42.4830 C   0  0  0  0  0  0  0  0  0  0  0  0
   47.6190   34.4750   41.7110 N   0  0  0  0  0  0  0  0  0  0  0  0
   40.0310   31.0060   42.0630 C   0  0  0  0  0  0  0  0  0  0  0  0
   41.1430   30.7830   42.8190 C   0  0  0  0  0  0  0  0  0  0  0  0
   41.2370   29.5740   43.4820 C   0  0  0  0  0  0  0  0  0  0  0  0
   40.2750   28.6450   43.3920 N   0  0  0  0  0  0  0  0  0  0  0  0
   39.1820   28.9080   42.6250 C   0  0  0  0  0  0  0  0  0  0  0  0
   39.0570   30.0820   41.9630 N   0  0  0  0  0  0  0  0  0  0  0  0
   40.5901   33.3459   42.9308 H   0  0  0  0  0  0  0  0  0  0  0  0
   39.8017   35.4812   41.9615 H   0  0  0  0  0  0  0  0  0  0  0  0
   39.6288   34.4035   39.3033 H   0  0  0  0  0  0  0  0  0  0  0  0
   38.5686   35.5700   40.2157 H   0  0  0  0  0  0  0  0  0  0  0  0
   37.3709   33.8775   41.0820 H   0  0  0  0  0  0  0  0  0  0  0  0
   37.7530   31.8106   41.3510 H   0  0  0  0  0  0  0  0  0  0  0  0
   38.5643   31.7170   39.7189 H   0  0  0  0  0  0  0  0  0  0  0  0
   40.6565   32.3239   40.5880 H   0  0  0  0  0  0  0  0  0  0  0  0
   43.5506   34.5726   38.5253 H   0  0  0  0  0  0  0  0  0  0  0  0
   40.8730   34.6724   38.7484 H   0  0  0  0  0  0  0  0  0  0  0  0
   48.0192   33.3283   39.9995 H   0  0  0  0  0  0  0  0  0  0  0  0
   45.5592   33.2448   39.2918 H   0  0  0  0  0  0  0  0  0  0  0  0
   47.0636   35.6247   43.3913 H   0  0  0  0  0  0  0  0  0  0  0  0
   41.9380   31.5390   42.8987 H   0  0  0  0  0  0  0  0  0  0  0  0
   42.1240   29.3689   44.0994 H   0  0  0  0  0  0  0  0  0  0  0  0
   38.3862   28.1532   42.5416 H   0  0  0  0  0  0  0  0  0  0  0  0
  2  1  1  0
  3  4  1  0
  3  2  1  0
  4  5  1  0
  5  6  1  0
  6 18  1  0
  6  1  1  0
  7 14  1  0
  7 11  2  0
  8  9  2  0
  8  7  1  0
  9 10  1  0
 10  2  1  0
 10 11  1  0
 12 17  2  0
 13 12  1  0
 13 14  2  0
 14 15  1  0
 15 16  2  0
 17 16  1  0
 18 19  2  0
 19 20  1  0
 21 20  2  0
 22 21  1  0
 23 18  1  0
 23 22  2  0
  1 24  1  0
  2 25  1  1
  3 26  1  0
  3 27  1  0
  4 28  1  0
  5 29  1  0
  5 30  1  0
  6 31  1  6
  8 32  1  0
  9 33  1  0
 12 34  1  0
 13 35  1  0
 16 36  1  0
 19 37  1  0
 20 38  1  0
 22 39  1  0
M  ISO  8  24   5  25  13  26  13  27  13  28   5  29  13  30  13  31  13
M  ISO  8  32  14  33  14  34  14  35  14  36  14  37  14  38  14  39  14
M  END
>  <minimizedAffinity>  (1) 
-6.17490864

>  <minimizedRMSD>  (1) 
5.32331371

$$$$
