
     RDKit          3D

 34 36  0  0  1  0  0  0  0  0999 V2000
   46.1080   33.8360   43.0320 C   0  0  2  0  0  0  0  0  0  0  0  0
   45.4310   34.9620   42.3560 C   0  0  2  0  0  0  0  0  0  0  0  0
   45.2670   36.1710   43.2220 C   0  0  0  0  0  0  0  0  0  0  0  0
   44.5950   35.8680   44.5510 C   0  0  0  0  0  0  0  0  0  0  0  0
   45.0280   34.5650   45.1630 C   0  0  0  0  0  0  0  0  0  0  0  0
   46.2960   34.0420   44.5280 C   0  0  0  0  0  0  0  0  0  0  0  0
   47.4400   33.5610   42.4590 C   0  0  0  0  0  0  0  0  0  0  0  0
   48.4900   34.3760   42.9250 C   0  0  0  0  0  0  0  0  0  0  0  0
   49.7960   34.2060   42.4520 C   0  0  0  0  0  0  0  0  0  0  0  0
   49.9710   33.2080   41.5200 N   0  0  0  0  0  0  0  0  0  0  0  0
   48.9420   32.4370   41.0870 C   0  0  0  0  0  0  0  0  0  0  0  0
   47.6820   32.6110   41.5540 N   0  0  0  0  0  0  0  0  0  0  0  0
   44.1480   34.5530   41.7270 C   0  0  0  0  0  0  0  0  0  0  0  0
   43.4420   35.4890   40.9600 C   0  0  0  0  0  0  0  0  0  0  0  0
   42.2450   35.0300   40.4010 C   0  0  0  0  0  0  0  0  0  0  0  0
   41.7330   33.7960   40.5380 N   0  0  0  0  0  0  0  0  0  0  0  0
   42.4600   32.9300   41.2930 C   0  0  0  0  0  0  0  0  0  0  0  0
   43.6190   33.3220   41.8530 N   0  0  0  0  0  0  0  0  0  0  0  0
   45.4293   32.9861   42.8679 H   0  0  0  0  0  0  0  0  0  0  0  0
   46.1109   35.2648   41.5460 H   0  0  0  0  0  0  0  0  0  0  0  0
   46.2619   36.5955   43.4219 H   0  0  0  0  0  0  0  0  0  0  0  0
   44.6186   36.8757   42.6807 H   0  0  0  0  0  0  0  0  0  0  0  0
   44.8349   36.6789   45.2545 H   0  0  0  0  0  0  0  0  0  0  0  0
   43.5155   35.7885   44.3550 H   0  0  0  0  0  0  0  0  0  0  0  0
   45.2045   34.7175   46.2380 H   0  0  0  0  0  0  0  0  0  0  0  0
   44.2308   33.8260   44.9949 H   0  0  0  0  0  0  0  0  0  0  0  0
   46.5624   33.0815   44.9933 H   0  0  0  0  0  0  0  0  0  0  0  0
   47.0975   34.7792   44.6837 H   0  0  0  0  0  0  0  0  0  0  0  0
   48.2806   35.1568   43.6710 H   0  0  0  0  0  0  0  0  0  0  0  0
   50.6306   34.8307   42.8029 H   0  0  0  0  0  0  0  0  0  0  0  0
   49.1350   31.6530   40.3400 H   0  0  0  0  0  0  0  0  0  0  0  0
   43.8049   36.5162   40.8077 H   0  0  0  0  0  0  0  0  0  0  0  0
   41.6705   35.7449   39.7937 H   0  0  0  0  0  0  0  0  0  0  0  0
   42.0985   31.9026   41.4470 H   0  0  0  0  0  0  0  0  0  0  0  0
  1  6  1  0
  2  1  1  0
  2  3  1  0
  3  4  1  0
  4  5  1  0
  6  5  1  0
  7  8  2  0
  7  1  1  0
  9  8  1  0
 10  9  2  0
 11 10  1  0
 11 12  2  0
 12  7  1  0
 13 18  1  0
 13  2  1  0
 14 13  2  0
 15 16  2  0
 15 14  1  0
 16 17  1  0
 17 18  2  0
  1 19  1  1
  2 20  1  6
  3 21  1  0
  3 22  1  0
  4 23  1  0
  4 24  1  0
  5 25  1  0
  5 26  1  0
  6 27  1  0
  6 28  1  0
  8 29  1  0
  9 30  1  0
 11 31  1  0
 14 32  1  0
 15 33  1  0
 17 34  1  0
M  ISO  8  19  13  20  13  21  13  22  13  23  13  24  13  25  13  26  13
M  ISO  8  27  13  28  13  29  14  30  14  31  14  32  14  33  14  34  14
M  END
>  <minimizedAffinity>  (1) 
-5.12941313

>  <minimizedRMSD>  (1) 
2.40140986

$$$$
