
     RDKit          3D

 35 37  0  0  0  0  0  0  0  0999 V2000
   45.2450   34.3930   40.9620 C   0  0  0  0  0  0  0  0  0  0  0  0
   45.4480   35.0350   42.1790 C   0  0  0  0  0  0  0  0  0  0  0  0
   46.7570   35.3010   42.5770 C   0  0  0  0  0  0  0  0  0  0  0  0
   47.8050   34.9210   41.7580 C   0  0  0  0  0  0  0  0  0  0  0  0
   47.6200   34.2860   40.5530 C   0  0  0  0  0  0  0  0  0  0  0  0
   46.2980   34.0360   40.1840 C   0  0  0  0  0  0  0  0  0  0  0  0
   41.6010   34.7470   40.0610 C   0  0  0  0  0  0  0  0  0  0  0  0
   42.9160   35.1220   40.3920 C   0  0  0  0  0  0  0  0  0  0  0  0
   43.8490   34.1470   40.6110 C   0  0  0  0  0  0  0  0  0  0  0  0
   43.4460   32.8550   40.4930 N   0  0  0  0  0  0  0  0  0  0  0  0
   42.1830   32.4960   40.1750 C   0  0  0  0  0  0  0  0  0  0  0  0
   41.2550   33.4520   39.9580 N   0  0  0  0  0  0  0  0  0  0  0  0
   40.5760   35.7800   39.8190 C   0  0  0  0  0  0  0  0  0  0  0  0
   39.3590   35.1250   39.5670 F   0  0  0  0  0  0  0  0  0  0  0  0
   40.9000   36.3880   38.6050 F   0  0  0  0  0  0  0  0  0  0  0  0
   40.4410   36.6770   40.8330 F   0  0  0  0  0  0  0  0  0  0  0  0
   46.2680   32.1420   38.3660 C   0  0  0  0  0  0  0  0  0  0  0  0
   46.9780   31.2620   38.8860 O   0  0  0  0  0  0  0  0  0  0  0  0
   45.9670   33.4010   38.9680 N   0  0  0  0  0  0  0  0  0  0  0  0
   45.6710   31.9340   37.0470 C   0  0  0  0  0  0  0  0  0  0  0  0
   44.5350   31.1590   36.9500 C   0  0  0  0  0  0  0  0  0  0  0  0
   43.9360   30.9380   35.7080 C   0  0  0  0  0  0  0  0  0  0  0  0
   44.4500   31.4750   34.5660 N   0  0  0  0  0  0  0  0  0  0  0  0
   45.5590   32.2230   34.7060 C   0  0  0  0  0  0  0  0  0  0  0  0
   46.1440   32.4430   35.8950 N   0  0  0  0  0  0  0  0  0  0  0  0
   44.5965   35.3256   42.8118 H   0  0  0  0  0  0  0  0  0  0  0  0
   46.9547   35.8081   43.5329 H   0  0  0  0  0  0  0  0  0  0  0  0
   48.8326   35.1367   42.0858 H   0  0  0  0  0  0  0  0  0  0  0  0
   48.4667   33.9915   39.9155 H   0  0  0  0  0  0  0  0  0  0  0  0
   43.1895   36.1843   40.4734 H   0  0  0  0  0  0  0  0  0  0  0  0
   41.9129   31.4328   40.0935 H   0  0  0  0  0  0  0  0  0  0  0  0
   45.3639   33.9859   38.3722 H   0  0  0  0  0  0  0  0  0  0  0  0
   44.0982   30.7125   37.8554 H   0  0  0  0  0  0  0  0  0  0  0  0
   43.0298   30.3171   35.6504 H   0  0  0  0  0  0  0  0  0  0  0  0
   46.0063   32.6741   33.8080 H   0  0  0  0  0  0  0  0  0  0  0  0
  1  2  2  0
  2  3  1  0
  4  3  2  0
  5  4  1  0
  6  5  2  0
  6  1  1  0
  7  8  2  0
  8  9  1  0
  9  1  1  0
 10  9  2  0
 11 10  1  0
 12  7  1  0
 12 11  2  0
 13  7  1  0
 13 16  1  0
 14 13  1  0
 15 13  1  0
 17 18  2  0
 17 19  1  0
 19  6  1  0
 20 17  1  0
 21 20  2  0
 22 21  1  0
 23 24  1  0
 23 22  2  0
 24 25  2  0
 25 20  1  0
  2 26  1  0
  3 27  1  0
  4 28  1  0
  5 29  1  0
  8 30  1  0
 11 31  1  0
 19 32  1  0
 21 33  1  0
 22 34  1  0
 24 35  1  0
M  ISO  8  26  14  27  14  28  14  29  14  30  14  31  14  33  14  34  14
M  ISO  1  35  14
M  END
>  <minimizedAffinity>  (1) 
-5.96073341

>  <minimizedRMSD>  (1) 
0.767480612

$$$$
