
     RDKit          3D

 29 31  0  0  1  0  0  0  0  0999 V2000
   46.5600   34.8010   43.1200 C   0  0  0  0  0  0  0  0  0  0  0  0
   45.5380   35.7850   43.2770 C   0  0  0  0  0  0  0  0  0  0  0  0
   44.7000   35.6440   44.3920 C   0  0  0  0  0  0  0  0  0  0  0  0
   44.9120   34.6000   45.2310 N   0  0  0  0  0  0  0  0  0  0  0  0
   45.9160   33.6920   45.0120 C   0  0  0  0  0  0  0  0  0  0  0  0
   46.7420   33.7650   43.9830 N   0  0  0  0  0  0  0  0  0  0  0  0
   46.0910   32.5780   45.9920 C   0  0  1  0  0  0  0  0  0  0  0  0
   46.8210   32.8460   47.2880 C   0  0  0  0  0  0  0  0  0  0  0  0
   45.3230   32.7310   47.2450 C   0  0  1  0  0  0  0  0  0  0  0  0
   44.6760   34.0180   47.5350 N   0  0  0  0  0  0  0  0  0  0  0  0
   47.4030   34.9900   41.9670 C   0  0  0  0  0  0  0  0  0  0  0  0
   48.4500   35.7260   41.9730 O   0  0  0  0  0  0  0  0  0  0  0  0
   47.0900   34.3310   40.7020 C   0  0  0  0  0  0  0  0  0  0  0  0
   48.0020   34.3160   39.6690 C   0  0  0  0  0  0  0  0  0  0  0  0
   47.6670   33.6850   38.4990 C   0  0  0  0  0  0  0  0  0  0  0  0
   46.4650   33.1050   38.4020 N   0  0  0  0  0  0  0  0  0  0  0  0
   45.5530   33.0990   39.3870 C   0  0  0  0  0  0  0  0  0  0  0  0
   45.9020   33.7240   40.5260 N   0  0  0  0  0  0  0  0  0  0  0  0
   45.4144   36.6106   42.5607 H   0  0  0  0  0  0  0  0  0  0  0  0
   43.8897   36.3632   44.5818 H   0  0  0  0  0  0  0  0  0  0  0  0
   46.2057   31.8130   45.2099 H   0  0  0  0  0  0  0  0  0  0  0  0
   47.4237   32.0547   47.7577 H   0  0  0  0  0  0  0  0  0  0  0  0
   47.5411   33.5981   47.6428 H   0  0  0  0  0  0  0  0  0  0  0  0
   44.5366   32.1106   47.6996 H   0  0  0  0  0  0  0  0  0  0  0  0
   44.6109   34.1475   48.5548 H   0  0  0  0  0  0  0  0  0  0  0  0
   45.2332   34.7821   47.1268 H   0  0  0  0  0  0  0  0  0  0  0  0
   48.9823   34.8022   39.7814 H   0  0  0  0  0  0  0  0  0  0  0  0
   48.3729   33.6560   37.6559 H   0  0  0  0  0  0  0  0  0  0  0  0
   44.5746   32.6102   39.2693 H   0  0  0  0  0  0  0  0  0  0  0  0
  1  2  2  0
  1  6  1  0
  2  3  1  0
  3  4  2  0
  5  4  1  0
  5  7  1  0
  6  5  2  0
  7  9  1  0
  7  8  1  0
  9  8  1  0
  9 10  1  0
 11 12  2  0
 11  1  1  0
 13 11  1  0
 14 13  2  0
 15 14  1  0
 16 15  2  0
 16 17  1  0
 17 18  2  0
 18 13  1  0
  2 19  1  0
  3 20  1  0
  7 21  1  6
  8 22  1  0
  8 23  1  0
  9 24  1  1
 10 25  1  0
 10 26  1  0
 14 27  1  0
 15 28  1  0
 17 29  1  0
M  ISO  8  19  14  20  14  21  13  22  13  23  13  24  13  25   5  26   5
M  ISO  3  27  14  28  14  29  14
M  END
>  <minimizedAffinity>  (1) 
-5.62193298

>  <minimizedRMSD>  (1) 
1.05972266

$$$$
