
     RDKit          3D

 21 22  0  0  0  0  0  0  0  0999 V2000
   46.0830   34.1670   41.0180 C   0  0  0  0  0  0  0  0  0  0  0  0
   46.6220   34.8280   42.1190 C   0  0  0  0  0  0  0  0  0  0  0  0
   47.9440   35.2670   42.0110 C   0  0  0  0  0  0  0  0  0  0  0  0
   48.6150   35.0250   40.8550 N   0  0  0  0  0  0  0  0  0  0  0  0
   48.0570   34.3860   39.8280 C   0  0  0  0  0  0  0  0  0  0  0  0
   46.7800   33.9490   39.8980 N   0  0  0  0  0  0  0  0  0  0  0  0
   45.8140   35.0370   43.3140 C   0  0  0  0  0  0  0  0  0  0  0  0
   45.0660   36.1850   43.5220 C   0  0  0  0  0  0  0  0  0  0  0  0
   44.4700   35.9780   44.7450 C   0  0  0  0  0  0  0  0  0  0  0  0
   44.8370   34.7700   45.2500 N   0  0  0  0  0  0  0  0  0  0  0  0
   45.6420   34.2320   44.3700 N   0  0  0  0  0  0  0  0  0  0  0  0
   44.7680   33.7300   41.1240 O   0  0  0  0  0  0  0  0  0  0  0  0
   43.6960   34.2950   40.4680 C   0  0  0  0  0  0  0  0  0  0  0  0
   43.2730   35.4920   40.5440 O   0  0  0  0  0  0  0  0  0  0  0  0
   42.6790   33.9680   39.5520 O   0  0  0  0  0  0  0  0  0  0  0  0
   48.4305   35.7967   42.8433 H   0  0  0  0  0  0  0  0  0  0  0  0
   48.6420   34.2121   38.9128 H   0  0  0  0  0  0  0  0  0  0  0  0
   44.9707   37.0597   42.8619 H   0  0  0  0  0  0  0  0  0  0  0  0
   43.7934   36.6882   45.2429 H   0  0  0  0  0  0  0  0  0  0  0  0
   44.5402   34.3600   46.1471 H   0  0  0  0  0  0  0  0  0  0  0  0
   42.6171   33.0494   39.1882 H   0  0  0  0  0  0  0  0  0  0  0  0
  1 12  1  0
  1  2  2  0
  2  7  1  0
  3  2  1  0
  4  3  2  0
  5  6  2  0
  5  4  1  0
  6  1  1  0
  7  8  1  0
  7 11  2  0
  8  9  2  0
  9 10  1  0
 11 10  1  0
 13 14  2  0
 13 12  1  0
 15 13  1  0
  3 16  1  0
  5 17  1  0
  8 18  1  0
  9 19  1  0
 10 20  1  0
 15 21  1  0
M  ISO  6  16  14  17  14  18  14  19  14  20   9  21   3
M  END
>  <minimizedAffinity>  (1) 
-4.50683594

>  <minimizedRMSD>  (1) 
0.0710875988

$$$$
