
     RDKit          3D

 20 20  0  0  0  0  0  0  0  0999 V2000
   44.5440   35.6540   45.0280 C   0  0  0  0  0  0  0  0  0  0  0  0
   45.1210   35.6760   43.7340 C   0  0  0  0  0  0  0  0  0  0  0  0
   46.0100   34.6410   43.4300 C   0  0  0  0  0  0  0  0  0  0  0  0
   46.2690   33.6840   44.3700 N   0  0  0  0  0  0  0  0  0  0  0  0
   45.6750   33.7280   45.5960 C   0  0  0  0  0  0  0  0  0  0  0  0
   44.8250   34.6940   45.9260 N   0  0  0  0  0  0  0  0  0  0  0  0
   46.5910   34.6900   42.0880 C   0  0  0  0  0  0  0  0  0  0  0  0
   47.3420   33.5340   41.8830 F   0  0  0  0  0  0  0  0  0  0  0  0
   47.5330   35.7310   42.1210 F   0  0  0  0  0  0  0  0  0  0  0  0
   45.6920   34.8090   41.0980 F   0  0  0  0  0  0  0  0  0  0  0  0
   46.1500   32.5850   46.4210 C   0  0  0  0  0  0  0  0  0  0  0  0
   45.8020   32.7150   47.8610 C   0  0  0  0  0  0  0  0  0  0  0  0
   44.4150   32.4800   47.9900 O   0  0  0  0  0  0  0  0  0  0  0  0
   43.8403   36.4518   45.3080 H   0  0  0  0  0  0  0  0  0  0  0  0
   44.8819   36.4660   43.0069 H   0  0  0  0  0  0  0  0  0  0  0  0
   45.6946   31.6616   46.0336 H   0  0  0  0  0  0  0  0  0  0  0  0
   47.2476   32.5664   46.3512 H   0  0  0  0  0  0  0  0  0  0  0  0
   46.3638   31.9755   48.4505 H   0  0  0  0  0  0  0  0  0  0  0  0
   46.0590   33.7187   48.2306 H   0  0  0  0  0  0  0  0  0  0  0  0
   44.1750   32.4393   48.9496 H   0  0  0  0  0  0  0  0  0  0  0  0
  1  6  2  0
  2  1  1  0
  3  2  2  0
  3  4  1  0
  4  5  2  0
  5  6  1  0
  5 11  1  0
  7  9  1  0
  7  3  1  0
  8  7  1  0
 10  7  1  0
 11 12  1  0
 12 13  1  0
  1 14  1  0
  2 15  1  0
 11 16  1  0
 11 17  1  0
 12 18  1  0
 12 19  1  0
 13 20  1  0
M  ISO  7  14  14  15  14  16   8  17   8  18   8  19   8  20   3
M  END
>  <minimizedAffinity>  (1) 
-4.47734785

>  <minimizedRMSD>  (1) 
0.397198856

$$$$
