
     RDKit          3D

 21 22  0  0  0  0  0  0  0  0999 V2000
   45.4780   32.5790   41.3350 Cl  0  0  0  0  0  0  0  0  0  0  0  0
   46.7930   33.7160   41.1800 C   0  0  0  0  0  0  0  0  0  0  0  0
   47.3130   34.3380   42.2820 C   0  0  0  0  0  0  0  0  0  0  0  0
   48.3720   35.2580   42.1840 C   0  0  0  0  0  0  0  0  0  0  0  0
   48.8450   35.4860   40.9110 C   0  0  0  0  0  0  0  0  0  0  0  0
   48.3170   34.8550   39.8040 C   0  0  0  0  0  0  0  0  0  0  0  0
   47.2950   33.9710   39.9220 C   0  0  0  0  0  0  0  0  0  0  0  0
   46.7380   32.7520   45.5540 C   0  0  0  0  0  0  0  0  0  0  0  0
   45.6810   33.5230   46.0790 C   0  0  0  0  0  0  0  0  0  0  0  0
   45.1850   34.5640   45.3110 C   0  0  0  0  0  0  0  0  0  0  0  0
   45.7380   34.7940   44.0940 N   0  0  0  0  0  0  0  0  0  0  0  0
   46.7560   34.0430   43.6030 C   0  0  0  0  0  0  0  0  0  0  0  0
   47.2430   33.0290   44.3410 N   0  0  0  0  0  0  0  0  0  0  0  0
   44.1410   35.3370   45.8100 O   0  0  0  0  0  0  0  0  0  0  0  0
   48.7945   35.7621   43.0657 H   0  0  0  0  0  0  0  0  0  0  0  0
   49.6732   36.1965   40.7721 H   0  0  0  0  0  0  0  0  0  0  0  0
   48.7317   35.0723   38.8086 H   0  0  0  0  0  0  0  0  0  0  0  0
   46.8774   33.4703   39.0361 H   0  0  0  0  0  0  0  0  0  0  0  0
   47.1514   31.9188   46.1413 H   0  0  0  0  0  0  0  0  0  0  0  0
   45.2612   33.3040   47.0719 H   0  0  0  0  0  0  0  0  0  0  0  0
   43.7770   36.0839   45.2718 H   0  0  0  0  0  0  0  0  0  0  0  0
  2  1  1  0
  2  3  2  0
  3 12  1  0
  4  3  1  0
  5  4  2  0
  6  7  2  0
  6  5  1  0
  7  2  1  0
  8  9  2  0
 10 14  1  0
 10  9  1  0
 11 10  2  0
 12 11  1  0
 12 13  2  0
 13  8  1  0
  4 15  1  0
  5 16  1  0
  6 17  1  0
  7 18  1  0
  8 19  1  0
  9 20  1  0
 14 21  1  0
M  ISO  7  15  14  16  14  17  14  18  14  19  14  20  14  21   3
M  END
>  <minimizedAffinity>  (1) 
-5.17937565

>  <minimizedRMSD>  (1) 
1.24999928

$$$$
