
     RDKit          3D

 15 15  0  0  0  0  0  0  0  0999 V2000
   44.5120   36.0490   44.5930 C   0  0  0  0  0  0  0  0  0  0  0  0
   45.2040   36.0220   43.3600 C   0  0  0  0  0  0  0  0  0  0  0  0
   46.1020   34.9630   43.1250 C   0  0  0  0  0  0  0  0  0  0  0  0
   46.2680   34.0130   44.0830 N   0  0  0  0  0  0  0  0  0  0  0  0
   45.5810   34.0790   45.2550 C   0  0  0  0  0  0  0  0  0  0  0  0
   44.7230   35.0730   45.5060 N   0  0  0  0  0  0  0  0  0  0  0  0
   46.2940   34.2090   40.7740 C   0  0  0  0  0  0  0  0  0  0  0  0
   45.1590   33.6700   40.9590 O   0  0  0  0  0  0  0  0  0  0  0  0
   46.8220   34.8810   41.9140 N   0  0  0  0  0  0  0  0  0  0  0  0
   46.8700   34.0850   39.5190 O   0  0  0  0  0  0  0  0  0  0  0  0
   43.8034   36.8621   44.8094 H   0  0  0  0  0  0  0  0  0  0  0  0
   45.0452   36.8065   42.6054 H   0  0  0  0  0  0  0  0  0  0  0  0
   45.7348   33.2971   46.0132 H   0  0  0  0  0  0  0  0  0  0  0  0
   47.7527   35.3180   41.8527 H   0  0  0  0  0  0  0  0  0  0  0  0
   47.7540   34.4921   39.3377 H   0  0  0  0  0  0  0  0  0  0  0  0
  1  6  2  0
  2  1  1  0
  3  2  2  0
  3  4  1  0
  4  5  2  0
  5  6  1  0
  7  8  2  0
  7  9  1  0
  9  3  1  0
 10  7  1  0
  1 11  1  0
  2 12  1  0
  5 13  1  0
  9 14  1  0
 10 15  1  0
M  ISO  4  11  14  12  14  13  14  15   3
M  END
>  <minimizedAffinity>  (1) 
-3.63006163

>  <minimizedRMSD>  (1) 
0.0657214448

$$$$
