
     RDKit          3D

 43 46  0  0  1  0  0  0  0  0999 V2000
   48.0460   33.1400   43.3200 N   0  0  0  0  0  0  0  0  0  0  0  0
   49.1810   33.1140   42.5120 C   0  0  0  0  0  0  0  0  0  0  0  0
   50.3110   32.5990   42.7030 O   0  0  0  0  0  0  0  0  0  0  0  0
   46.2000   32.0600   44.5510 C   0  0  1  0  0  0  0  0  0  0  0  0
   46.3760   31.3080   43.3810 C   0  0  0  0  0  0  0  0  0  0  0  0
   47.5930   32.0150   44.0570 C   0  0  1  0  0  0  0  0  0  0  0  0
   45.0160   33.9300   43.1690 C   0  0  0  0  0  0  0  0  0  0  0  0
   45.4900   33.4210   44.4240 C   0  0  0  0  0  0  0  0  0  0  0  0
   45.3130   34.2120   45.5400 C   0  0  0  0  0  0  0  0  0  0  0  0
   44.7100   35.4110   45.4060 N   0  0  0  0  0  0  0  0  0  0  0  0
   44.2670   35.8820   44.2090 C   0  0  0  0  0  0  0  0  0  0  0  0
   44.4310   35.1050   43.0610 N   0  0  0  0  0  0  0  0  0  0  0  0
   49.1370   33.7930   41.1560 C   0  0  2  0  0  0  0  0  0  0  0  0
   48.7060   35.3080   41.1460 C   0  0  0  0  0  0  0  0  0  0  0  0
   47.8700   34.2240   40.5560 C   0  0  1  0  0  0  0  0  0  0  0  0
   47.7540   34.1690   39.0500 C   0  0  0  0  0  0  0  0  0  0  0  0
   48.5700   34.7650   38.3540 O   0  0  0  0  0  0  0  0  0  0  0  0
   46.6860   33.4210   38.4130 N   0  0  0  0  0  0  0  0  0  0  0  0
   46.8510   33.1570   36.9930 C   0  0  0  0  0  0  0  0  0  0  0  0
   45.4870   32.8650   36.4240 C   0  0  0  0  0  0  0  0  0  0  0  0
   44.6970   32.0670   37.2470 O   0  0  0  0  0  0  0  0  0  0  0  0
   44.3590   32.7510   38.4180 C   0  0  0  0  0  0  0  0  0  0  0  0
   45.5730   33.0100   39.2470 C   0  0  0  0  0  0  0  0  0  0  0  0
   47.5104   34.0174   43.3854 H   0  0  0  0  0  0  0  0  0  0  0  0
   45.7321   31.8157   45.5161 H   0  0  0  0  0  0  0  0  0  0  0  0
   45.9850   31.6802   42.4226 H   0  0  0  0  0  0  0  0  0  0  0  0
   46.1443   30.2776   43.0735 H   0  0  0  0  0  0  0  0  0  0  0  0
   48.5714   31.7566   44.4883 H   0  0  0  0  0  0  0  0  0  0  0  0
   45.1458   33.3170   42.2649 H   0  0  0  0  0  0  0  0  0  0  0  0
   45.6591   33.8695   46.5264 H   0  0  0  0  0  0  0  0  0  0  0  0
   43.7831   36.8679   44.1463 H   0  0  0  0  0  0  0  0  0  0  0  0
   49.9763   33.1811   40.7938 H   0  0  0  0  0  0  0  0  0  0  0  0
   48.3976   35.8065   42.0768 H   0  0  0  0  0  0  0  0  0  0  0  0
   49.1412   36.2556   40.7958 H   0  0  0  0  0  0  0  0  0  0  0  0
   46.8245   33.9161   40.7045 H   0  0  0  0  0  0  0  0  0  0  0  0
   47.2847   34.0370   36.4955 H   0  0  0  0  0  0  0  0  0  0  0  0
   47.5273   32.3041   36.8340 H   0  0  0  0  0  0  0  0  0  0  0  0
   44.9661   33.8203   36.2627 H   0  0  0  0  0  0  0  0  0  0  0  0
   45.6413   32.3082   35.4880 H   0  0  0  0  0  0  0  0  0  0  0  0
   43.8911   33.7107   38.1533 H   0  0  0  0  0  0  0  0  0  0  0  0
   43.6592   32.1326   38.9993 H   0  0  0  0  0  0  0  0  0  0  0  0
   45.8456   32.0902   39.7851 H   0  0  0  0  0  0  0  0  0  0  0  0
   45.3485   33.8173   39.9597 H   0  0  0  0  0  0  0  0  0  0  0  0
  1  6  1  0
  2  3  2  0
  2  1  1  0
  5  6  1  0
  5  4  1  0
  6  4  1  0
  7  8  2  0
  8  4  1  0
  8  9  1  0
 10  9  2  0
 11 10  1  0
 12  7  1  0
 12 11  2  0
 13  2  1  0
 14 13  1  0
 15 14  1  0
 15 13  1  0
 16 15  1  0
 17 16  2  0
 18 16  1  0
 18 23  1  0
 19 18  1  0
 20 19  1  0
 20 21  1  0
 21 22  1  0
 22 23  1  0
  1 24  1  0
  4 25  1  1
  5 26  1  0
  5 27  1  0
  6 28  1  1
  7 29  1  0
  9 30  1  0
 11 31  1  0
 13 32  1  6
 14 33  1  0
 14 34  1  0
 15 35  1  1
 19 36  1  0
 19 37  1  0
 20 38  1  0
 20 39  1  0
 22 40  1  0
 22 41  1  0
 23 42  1  0
 23 43  1  0
M  ISO  8  25  13  26  13  27  13  28  13  29  14  30  14  31  14  32  13
M  ISO  8  33  13  34  13  35  13  36  13  37  13  38  13  39  13  40  13
M  ISO  3  41  13  42  13  43  13
M  END
>  <minimizedAffinity>  (1) 
-5.15407848

>  <minimizedRMSD>  (1) 
0.244912416

$$$$
