
     RDKit          3D

 41 44  0  0  1  0  0  0  0  0999 V2000
   45.9010   34.5530   41.6540 C   0  0  0  0  0  0  0  0  0  0  0  0
   47.1210   34.8010   41.3910 O   0  0  0  0  0  0  0  0  0  0  0  0
   44.8990   34.0800   40.6430 C   0  0  0  0  0  0  0  0  0  0  0  0
   43.5230   34.0860   40.8090 C   0  0  0  0  0  0  0  0  0  0  0  0
   43.0230   33.5810   39.6650 N   0  0  0  0  0  0  0  0  0  0  0  0
   44.0510   33.2830   38.8420 C   0  0  0  0  0  0  0  0  0  0  0  0
   45.2210   33.5930   39.4480 N   0  0  0  0  0  0  0  0  0  0  0  0
   44.0650   32.7310   37.5250 N   0  0  0  0  0  0  0  0  0  0  0  0
   41.2380   34.0960   38.1080 N   0  0  0  0  0  0  0  0  0  0  0  0
   41.6520   33.3710   39.3170 C   0  0  2  0  0  0  0  0  0  0  0  0
   40.6850   33.6820   40.4170 C   0  0  0  0  0  0  0  0  0  0  0  0
   39.8820   34.7660   40.0710 O   0  0  0  0  0  0  0  0  0  0  0  0
   39.0650   34.4670   38.9840 C   0  0  0  0  0  0  0  0  0  0  0  0
   39.8370   33.6780   37.9320 C   0  0  0  0  0  0  0  0  0  0  0  0
   44.9130   35.9640   43.4010 C   0  0  0  0  0  0  0  0  0  0  0  0
   45.5170   34.7540   43.0060 C   0  0  0  0  0  0  0  0  0  0  0  0
   45.6830   33.8420   44.0240 C   0  0  0  0  0  0  0  0  0  0  0  0
   45.3020   34.0780   45.2930 N   0  0  0  0  0  0  0  0  0  0  0  0
   44.7240   35.2670   45.6130 C   0  0  0  0  0  0  0  0  0  0  0  0
   44.5350   36.1960   44.6690 N   0  0  0  0  0  0  0  0  0  0  0  0
   46.2840   32.5960   43.7180 C   0  0  0  0  0  0  0  0  0  0  0  0
   47.5590   32.1170   43.7080 C   0  0  0  0  0  0  0  0  0  0  0  0
   47.8270   30.8740   43.3700 C   0  0  0  0  0  0  0  0  0  0  0  0
   46.7980   30.0670   43.0300 C   0  0  0  0  0  0  0  0  0  0  0  0
   45.3590   31.1670   43.2060 S   0  0  0  0  0  0  0  0  0  0  0  0
   42.9590   34.4302   41.6885 H   0  0  0  0  0  0  0  0  0  0  0  0
   43.1789   32.4925   37.0571 H   0  0  0  0  0  0  0  0  0  0  0  0
   44.9612   32.5714   37.0430 H   0  0  0  0  0  0  0  0  0  0  0  0
   41.3055   35.1145   38.2461 H   0  0  0  0  0  0  0  0  0  0  0  0
   41.6123   32.2897   39.1191 H   0  0  0  0  0  0  0  0  0  0  0  0
   40.0483   32.8034   40.5979 H   0  0  0  0  0  0  0  0  0  0  0  0
   41.2507   33.9351   41.3258 H   0  0  0  0  0  0  0  0  0  0  0  0
   38.2094   33.8680   39.3291 H   0  0  0  0  0  0  0  0  0  0  0  0
   38.7149   35.4080   38.5347 H   0  0  0  0  0  0  0  0  0  0  0  0
   39.4815   33.9272   36.9213 H   0  0  0  0  0  0  0  0  0  0  0  0
   39.7082   32.5917   38.0476 H   0  0  0  0  0  0  0  0  0  0  0  0
   44.7452   36.7455   42.6452 H   0  0  0  0  0  0  0  0  0  0  0  0
   44.4117   35.4649   46.6490 H   0  0  0  0  0  0  0  0  0  0  0  0
   48.3854   32.7862   43.9896 H   0  0  0  0  0  0  0  0  0  0  0  0
   48.8620   30.5014   43.3644 H   0  0  0  0  0  0  0  0  0  0  0  0
   46.8237   29.0108   42.7238 H   0  0  0  0  0  0  0  0  0  0  0  0
  1 16  1  0
  2  1  2  0
  3  4  2  0
  3  1  1  0
  5  4  1  0
  6  7  2  0
  6  5  1  0
  7  3  1  0
  8  6  1  0
  9 10  1  0
 10  5  1  0
 10 11  1  0
 12 11  1  0
 13 12  1  0
 14  9  1  0
 14 13  1  0
 15 20  2  0
 16 15  1  0
 16 17  2  0
 17 18  1  0
 18 19  2  0
 20 19  1  0
 21 17  1  0
 22 21  2  0
 23 22  1  0
 24 25  1  0
 24 23  2  0
 25 21  1  0
  4 26  1  0
  8 27  1  0
  8 28  1  0
  9 29  1  0
 10 30  1  6
 11 31  1  0
 11 32  1  0
 13 33  1  0
 13 34  1  0
 14 35  1  0
 14 36  1  0
 15 37  1  0
 19 38  1  0
 22 39  1  0
 23 40  1  0
 24 41  1  0
M  ISO  8  26  14  29   5  30  13  31  13  32  13  33  13  34  13  35  13
M  ISO  6  36  13  37  14  38  14  39  14  40  14  41  14
M  END
>  <minimizedAffinity>  (1) 
-5.62160397

>  <minimizedRMSD>  (1) 
1.10763216

$$$$
