
     RDKit          3D

 48 52  0  0  1  0  0  0  0  0999 V2000
   47.1350   32.6590   44.4200 C   0  0  0  0  0  0  0  0  0  0  0  0
   47.1320   31.8990   45.5800 C   0  0  0  0  0  0  0  0  0  0  0  0
   46.3500   32.1960   46.6930 C   0  0  0  0  0  0  0  0  0  0  0  0
   45.5200   33.3060   46.6650 C   0  0  0  0  0  0  0  0  0  0  0  0
   45.4960   34.0720   45.5450 C   0  0  0  0  0  0  0  0  0  0  0  0
   44.6820   35.1830   45.4810 C   0  0  0  0  0  0  0  0  0  0  0  0
   44.6030   36.0020   44.3920 C   0  0  0  0  0  0  0  0  0  0  0  0
   45.4040   35.6590   43.3080 C   0  0  0  0  0  0  0  0  0  0  0  0
   46.2240   34.5400   43.3750 C   0  0  0  0  0  0  0  0  0  0  0  0
   46.2900   33.7360   44.4690 C   0  0  0  0  0  0  0  0  0  0  0  0
   46.8870   34.4430   42.1090 N   0  0  0  0  0  0  0  0  0  0  0  0
   48.0660   34.9280   41.4320 C   0  0  0  0  0  0  0  0  0  0  0  0
   48.7010   33.7120   40.7440 C   0  0  0  0  0  0  0  0  0  0  0  0
   47.8950   33.2740   39.6980 O   0  0  0  0  0  0  0  0  0  0  0  0
   46.5830   33.7270   39.8340 C   0  0  0  0  0  0  0  0  0  0  0  0
   46.1370   33.5250   41.2330 C   0  0  0  0  0  0  0  0  0  0  0  0
   47.9650   32.2700   43.3660 N   0  0  0  0  0  0  0  0  0  0  0  0
   50.0020   30.9120   42.7040 C   0  0  1  0  0  0  0  0  0  0  0  0
   48.7800   30.2400   42.1100 C   0  0  0  0  0  0  0  0  0  0  0  0
   48.7280   31.0560   43.3950 C   0  0  2  0  0  0  0  0  0  0  0  0
   51.8170   28.6030   44.9740 C   0  0  0  0  0  0  0  0  0  0  0  0
   53.0870   28.5100   44.3270 C   0  0  0  0  0  0  0  0  0  0  0  0
   53.2780   29.2370   43.1240 C   0  0  0  0  0  0  0  0  0  0  0  0
   52.2770   29.9780   42.6400 N   0  0  0  0  0  0  0  0  0  0  0  0
   51.0800   30.0440   43.2790 C   0  0  0  0  0  0  0  0  0  0  0  0
   50.8450   29.3570   44.4470 N   0  0  0  0  0  0  0  0  0  0  0  0
   47.7829   31.0133   45.6231 H   0  0  0  0  0  0  0  0  0  0  0  0
   46.3904   31.5557   47.5865 H   0  0  0  0  0  0  0  0  0  0  0  0
   44.8937   33.5606   47.5327 H   0  0  0  0  0  0  0  0  0  0  0  0
   44.0613   35.4228   46.3569 H   0  0  0  0  0  0  0  0  0  0  0  0
   43.9439   36.8825   44.3728 H   0  0  0  0  0  0  0  0  0  0  0  0
   45.3881   36.2746   42.3966 H   0  0  0  0  0  0  0  0  0  0  0  0
   47.7907   35.6871   40.6850 H   0  0  0  0  0  0  0  0  0  0  0  0
   48.7665   35.3979   42.1380 H   0  0  0  0  0  0  0  0  0  0  0  0
   49.6881   33.9933   40.3484 H   0  0  0  0  0  0  0  0  0  0  0  0
   48.8070   32.9000   41.4785 H   0  0  0  0  0  0  0  0  0  0  0  0
   46.5362   34.7973   39.5844 H   0  0  0  0  0  0  0  0  0  0  0  0
   45.9268   33.1646   39.1534 H   0  0  0  0  0  0  0  0  0  0  0  0
   45.0603   33.7362   41.3117 H   0  0  0  0  0  0  0  0  0  0  0  0
   46.3220   32.4842   41.5372 H   0  0  0  0  0  0  0  0  0  0  0  0
   48.0315   32.8777   42.5370 H   0  0  0  0  0  0  0  0  0  0  0  0
   50.7509   31.6313   42.3409 H   0  0  0  0  0  0  0  0  0  0  0  0
   48.3255   30.6262   41.1857 H   0  0  0  0  0  0  0  0  0  0  0  0
   48.5046   29.2192   41.8066 H   0  0  0  0  0  0  0  0  0  0  0  0
   48.4333   30.8903   44.4417 H   0  0  0  0  0  0  0  0  0  0  0  0
   51.6371   28.0526   45.9093 H   0  0  0  0  0  0  0  0  0  0  0  0
   53.8935   27.8926   44.7493 H   0  0  0  0  0  0  0  0  0  0  0  0
   54.2411   29.1912   42.5946 H   0  0  0  0  0  0  0  0  0  0  0  0
  1 10  1  0
  1  2  2  0
  2  3  1  0
  4  3  2  0
  5  4  1  0
  6  5  2  0
  7  6  1  0
  8  9  1  0
  8  7  2  0
  9 10  2  0
 10  5  1  0
 11  9  1  0
 12 11  1  0
 13 12  1  0
 14 15  1  0
 14 13  1  0
 15 16  1  0
 16 11  1  0
 17 20  1  0
 17  1  1  0
 18 25  1  0
 18 20  1  0
 19 18  1  0
 19 20  1  0
 22 21  2  0
 23 22  1  0
 24 23  2  0
 24 25  1  0
 25 26  2  0
 26 21  1  0
  2 27  1  0
  3 28  1  0
  4 29  1  0
  6 30  1  0
  7 31  1  0
  8 32  1  0
 12 33  1  0
 12 34  1  0
 13 35  1  0
 13 36  1  0
 15 37  1  0
 15 38  1  0
 16 39  1  0
 16 40  1  0
 17 41  1  0
 18 42  1  6
 19 43  1  0
 19 44  1  0
 20 45  1  1
 21 46  1  0
 22 47  1  0
 23 48  1  0
M  ISO  8  27  14  28  14  29  14  30  14  31  14  32  14  33  13  34  13
M  ISO  8  35  13  36  13  37  13  38  13  39  13  40  13  42  13  43  13
M  ISO  5  44  13  45  13  46  14  47  14  48  14
M  END
>  <minimizedAffinity>  (1) 
-5.26987553

>  <minimizedRMSD>  (1) 
2.56980133

$$$$
