
     RDKit          3D

 48 50  0  0  1  0  0  0  0  0999 V2000
   48.4820   32.9400   43.0380 C   0  0  1  0  0  0  0  0  0  0  0  0
   49.4820   32.5990   41.9480 C   0  0  0  0  0  0  0  0  0  0  0  0
   50.4960   33.7070   42.1150 C   0  0  0  0  0  0  0  0  0  0  0  0
   49.7440   34.8740   42.6950 C   0  0  0  0  0  0  0  0  0  0  0  0
   48.2960   34.4230   42.7830 C   0  0  1  0  0  0  0  0  0  0  0  0
   47.5320   34.7040   41.5240 C   0  0  0  0  0  0  0  0  0  0  0  0
   46.1430   34.6290   41.6150 N   0  0  0  0  0  0  0  0  0  0  0  0
   45.4800   35.3650   42.5990 C   0  0  0  0  0  0  0  0  0  0  0  0
   43.9990   35.5030   42.4690 C   0  0  0  0  0  0  0  0  0  0  0  0
   43.6790   35.6040   41.1170 O   0  0  0  0  0  0  0  0  0  0  0  0
   43.9420   34.3220   40.5840 C   0  0  0  0  0  0  0  0  0  0  0  0
   45.4250   34.1280   40.4990 C   0  0  0  0  0  0  0  0  0  0  0  0
   47.3000   32.2290   42.9100 O   0  0  0  0  0  0  0  0  0  0  0  0
   46.7940   33.1360   45.2790 O   0  0  0  0  0  0  0  0  0  0  0  0
   46.6920   31.8860   44.4400 P   0  0  1  0  0  0  0  0  0  0  0  0
   45.1200   31.2970   44.3470 O   0  0  0  0  0  0  0  0  0  0  0  0
   47.6130   30.6610   45.1330 O   0  0  0  0  0  0  0  0  0  0  0  0
   46.7920   29.8280   45.8220 C   0  0  0  0  0  0  0  0  0  0  0  0
   47.0010   31.1630   49.2840 C   0  0  0  0  0  0  0  0  0  0  0  0
   47.3840   30.6490   48.0360 C   0  0  0  0  0  0  0  0  0  0  0  0
   46.3910   30.3660   47.1280 C   0  0  0  0  0  0  0  0  0  0  0  0
   45.0980   30.5980   47.4870 N   0  0  0  0  0  0  0  0  0  0  0  0
   44.7540   31.0910   48.6900 C   0  0  0  0  0  0  0  0  0  0  0  0
   45.7070   31.3690   49.5790 N   0  0  0  0  0  0  0  0  0  0  0  0
   48.8123   32.6899   44.0570 H   0  0  0  0  0  0  0  0  0  0  0  0
   49.0162   32.6269   40.9519 H   0  0  0  0  0  0  0  0  0  0  0  0
   49.9053   31.5868   42.0273 H   0  0  0  0  0  0  0  0  0  0  0  0
   51.2979   33.3913   42.7986 H   0  0  0  0  0  0  0  0  0  0  0  0
   50.9683   33.9685   41.1566 H   0  0  0  0  0  0  0  0  0  0  0  0
   50.1306   35.1215   43.6946 H   0  0  0  0  0  0  0  0  0  0  0  0
   49.8525   35.7767   42.0759 H   0  0  0  0  0  0  0  0  0  0  0  0
   47.7012   34.9417   43.5493 H   0  0  0  0  0  0  0  0  0  0  0  0
   47.8579   33.9776   40.7650 H   0  0  0  0  0  0  0  0  0  0  0  0
   47.7535   35.7521   41.2741 H   0  0  0  0  0  0  0  0  0  0  0  0
   45.6833   34.8821   43.5662 H   0  0  0  0  0  0  0  0  0  0  0  0
   45.8693   36.3887   42.4966 H   0  0  0  0  0  0  0  0  0  0  0  0
   43.5052   34.6205   42.9018 H   0  0  0  0  0  0  0  0  0  0  0  0
   43.6569   36.4010   43.0042 H   0  0  0  0  0  0  0  0  0  0  0  0
   43.5057   33.5531   41.2386 H   0  0  0  0  0  0  0  0  0  0  0  0
   43.4963   34.2358   39.5820 H   0  0  0  0  0  0  0  0  0  0  0  0
   45.6274   33.0501   40.4145 H   0  0  0  0  0  0  0  0  0  0  0  0
   45.7679   34.6967   39.6221 H   0  0  0  0  0  0  0  0  0  0  0  0
   44.7631   31.1633   45.2607 H   0  0  0  0  0  0  0  0  0  0  0  0
   45.8866   29.6535   45.2222 H   0  0  0  0  0  0  0  0  0  0  0  0
   47.3486   28.8975   46.0071 H   0  0  0  0  0  0  0  0  0  0  0  0
   47.7718   31.4008   50.0319 H   0  0  0  0  0  0  0  0  0  0  0  0
   48.4429   30.4782   47.7922 H   0  0  0  0  0  0  0  0  0  0  0  0
   43.6962   31.2631   48.9378 H   0  0  0  0  0  0  0  0  0  0  0  0
  2  3  1  0
  2  1  1  0
  3  4  1  0
  4  5  1  0
  5  1  1  0
  6  7  1  0
  6  5  1  0
  7  8  1  0
  9  8  1  0
 10  9  1  0
 11 10  1  0
 12 11  1  0
 12  7  1  0
 13  1  1  0
 13 15  1  0
 15 17  1  0
 15 14  2  0
 16 15  1  0
 17 18  1  0
 18 21  1  0
 19 24  2  0
 20 19  1  0
 21 22  1  0
 21 20  2  0
 22 23  2  0
 23 24  1  0
  1 25  1  1
  2 26  1  0
  2 27  1  0
  3 28  1  0
  3 29  1  0
  4 30  1  0
  4 31  1  0
  5 32  1  1
  6 33  1  0
  6 34  1  0
  8 35  1  0
  8 36  1  0
  9 37  1  0
  9 38  1  0
 11 39  1  0
 11 40  1  0
 12 41  1  0
 12 42  1  0
 16 43  1  0
 18 44  1  0
 18 45  1  0
 19 46  1  0
 20 47  1  0
 23 48  1  0
M  ISO  8  25  13  26  13  27  13  28  13  29  13  30  13  31  13  32  13
M  ISO  8  33   8  34   8  35  13  36  13  37  13  38  13  39  13  40  13
M  ISO  8  41  13  42  13  43   3  44   8  45   8  46  14  47  14  48  14
M  END
>  <minimizedAffinity>  (1) 
-5.07367659

>  <minimizedRMSD>  (1) 
3.24631763

$$$$
