
     RDKit          3D

 53 57  0  0  1  0  0  0  0  0999 V2000
   46.0460   32.3590   46.0960 C   0  0  0  0  0  0  0  0  0  0  0  0
   45.5870   33.0100   47.2380 C   0  0  0  0  0  0  0  0  0  0  0  0
   45.8060   32.5230   48.5320 C   0  0  0  0  0  0  0  0  0  0  0  0
   46.4970   31.3610   48.7320 C   0  0  0  0  0  0  0  0  0  0  0  0
   46.9670   30.6760   47.5910 C   0  0  0  0  0  0  0  0  0  0  0  0
   47.5960   29.4990   47.8280 C   0  0  0  0  0  0  0  0  0  0  0  0
   48.0060   28.7560   46.7160 C   0  0  0  0  0  0  0  0  0  0  0  0
   47.7300   29.2760   45.4000 C   0  0  0  0  0  0  0  0  0  0  0  0
   47.0800   30.4880   45.3320 C   0  0  0  0  0  0  0  0  0  0  0  0
   46.6880   31.2440   46.3460 C   0  0  0  0  0  0  0  0  0  0  0  0
   45.4120   29.7460   43.8810 C   0  0  0  0  0  0  0  0  0  0  0  0
   46.7490   30.3040   43.9370 C   0  0  0  0  0  0  0  0  0  0  0  0
   47.2930   30.3390   42.7220 C   0  0  0  0  0  0  0  0  0  0  0  0
   46.6890   29.9030   41.5550 C   0  0  0  0  0  0  0  0  0  0  0  0
   45.4260   29.3760   41.5340 C   0  0  0  0  0  0  0  0  0  0  0  0
   44.7730   29.2970   42.7360 C   0  0  0  0  0  0  0  0  0  0  0  0
   44.5290   29.5660   44.9790 O   0  0  0  0  0  0  0  0  0  0  0  0
   43.5210   28.7510   42.6560 O   0  0  0  0  0  0  0  0  0  0  0  0
   41.7100   29.4340   43.8930 N   0  0  0  0  0  0  0  0  0  0  0  0
   42.3620   29.4710   42.5720 C   0  0  1  0  0  0  0  0  0  0  0  0
   42.5880   30.9580   42.3110 C   0  0  0  0  0  0  0  0  0  0  0  0
   41.3590   31.5250   42.0790 O   0  0  0  0  0  0  0  0  0  0  0  0
   40.2730   30.7940   42.4900 C   0  0  0  0  0  0  0  0  0  0  0  0
   40.4270   30.0750   43.7900 C   0  0  0  0  0  0  0  0  0  0  0  0
   45.2870   34.0170   42.8400 C   0  0  0  0  0  0  0  0  0  0  0  0
   46.5780   34.4760   42.4960 C   0  0  0  0  0  0  0  0  0  0  0  0
   47.5930   34.1640   43.3760 C   0  0  0  0  0  0  0  0  0  0  0  0
   47.2230   33.4680   44.4490 N   0  0  0  0  0  0  0  0  0  0  0  0
   46.0220   33.0230   44.8040 C   0  0  0  0  0  0  0  0  0  0  0  0
   45.0770   33.3210   43.9610 N   0  0  0  0  0  0  0  0  0  0  0  0
   48.9450   34.5010   43.1260 N   0  0  0  0  0  0  0  0  0  0  0  0
   45.0271   33.9492   47.1180 H   0  0  0  0  0  0  0  0  0  0  0  0
   45.4179   33.0813   49.3967 H   0  0  0  0  0  0  0  0  0  0  0  0
   46.6802   30.9738   49.7452 H   0  0  0  0  0  0  0  0  0  0  0  0
   47.7767   29.1426   48.8529 H   0  0  0  0  0  0  0  0  0  0  0  0
   48.5276   27.7959   46.8429 H   0  0  0  0  0  0  0  0  0  0  0  0
   48.0251   28.7297   44.4920 H   0  0  0  0  0  0  0  0  0  0  0  0
   48.3100   30.7498   42.6384 H   0  0  0  0  0  0  0  0  0  0  0  0
   47.2450   29.9831   40.6092 H   0  0  0  0  0  0  0  0  0  0  0  0
   44.9587   29.0331   40.5991 H   0  0  0  0  0  0  0  0  0  0  0  0
   43.6318   29.1736   44.8335 H   0  0  0  0  0  0  0  0  0  0  0  0
   41.5862   28.4560   44.1915 H   0  0  0  0  0  0  0  0  0  0  0  0
   41.7826   29.0289   41.7481 H   0  0  0  0  0  0  0  0  0  0  0  0
   43.0588   31.4265   43.1879 H   0  0  0  0  0  0  0  0  0  0  0  0
   43.2529   31.1043   41.4470 H   0  0  0  0  0  0  0  0  0  0  0  0
   39.4194   31.4815   42.5837 H   0  0  0  0  0  0  0  0  0  0  0  0
   40.1356   30.0106   41.7301 H   0  0  0  0  0  0  0  0  0  0  0  0
   40.3225   30.7982   44.6122 H   0  0  0  0  0  0  0  0  0  0  0  0
   39.6496   29.2988   43.8475 H   0  0  0  0  0  0  0  0  0  0  0  0
   44.4400   34.2364   42.1734 H   0  0  0  0  0  0  0  0  0  0  0  0
   46.7635   35.0508   41.5766 H   0  0  0  0  0  0  0  0  0  0  0  0
   49.6733   34.2495   43.8096 H   0  0  0  0  0  0  0  0  0  0  0  0
   49.2004   34.9977   42.2605 H   0  0  0  0  0  0  0  0  0  0  0  0
  1 10  1  0
  1  2  2  0
  2  3  1  0
  3  4  2  0
  5  6  2  0
  5  4  1  0
  7  6  1  0
  8  7  2  0
  9  8  1  0
  9 10  2  0
 10  5  1  0
 11 12  2  0
 11 17  1  0
 12  9  1  0
 13 12  1  0
 14 13  2  0
 15 14  1  0
 15 16  2  0
 16 11  1  0
 18 16  1  0
 20 18  1  0
 20 19  1  0
 21 20  1  0
 22 21  1  0
 22 23  1  0
 23 24  1  0
 24 19  1  0
 25 30  2  0
 26 25  1  0
 26 27  2  0
 27 28  1  0
 28 29  2  0
 29  1  1  0
 30 29  1  0
 31 27  1  0
  2 32  1  0
  3 33  1  0
  4 34  1  0
  6 35  1  0
  7 36  1  0
  8 37  1  0
 13 38  1  0
 14 39  1  0
 15 40  1  0
 17 41  1  0
 19 42  1  0
 20 43  1  6
 21 44  1  0
 21 45  1  0
 23 46  1  0
 23 47  1  0
 24 48  1  0
 24 49  1  0
 25 50  1  0
 26 51  1  0
 31 52  1  0
 31 53  1  0
M  ISO  8  32  14  33  14  34  14  35  14  36  14  37  14  38  14  39  14
M  ISO  8  40  14  41   3  42   5  43  13  44  13  45  13  46  13  47  13
M  ISO  4  48  13  49  13  50  14  51  14
M  END
>  <minimizedAffinity>  (1) 
-5.64520884

>  <minimizedRMSD>  (1) 
1.79165769

$$$$
