
     RDKit          3D

 36 38  0  0  0  0  0  0  0  0999 V2000
   44.9610   34.6470   45.0230 C   0  0  0  0  0  0  0  0  0  0  0  0
   45.5230   34.8740   43.7590 C   0  0  0  0  0  0  0  0  0  0  0  0
   46.6920   34.1830   43.4780 C   0  0  0  0  0  0  0  0  0  0  0  0
   47.2140   33.3430   44.4260 N   0  0  0  0  0  0  0  0  0  0  0  0
   46.6240   33.1680   45.6250 C   0  0  0  0  0  0  0  0  0  0  0  0
   45.4840   33.8230   45.9370 N   0  0  0  0  0  0  0  0  0  0  0  0
   47.3270   34.3720   42.1800 C   0  0  0  0  0  0  0  0  0  0  0  0
   48.1650   35.3880   41.7730 C   0  0  0  0  0  0  0  0  0  0  0  0
   48.6630   35.3840   40.4850 C   0  0  0  0  0  0  0  0  0  0  0  0
   48.3290   34.3780   39.6110 C   0  0  0  0  0  0  0  0  0  0  0  0
   47.4900   33.3540   40.0040 C   0  0  0  0  0  0  0  0  0  0  0  0
   46.9830   33.3470   41.2980 C   0  0  0  0  0  0  0  0  0  0  0  0
   44.8800   35.7950   42.8300 C   0  0  0  0  0  0  0  0  0  0  0  0
   44.2530   35.0400   41.7660 N   0  0  0  0  0  0  0  0  0  0  0  0
   43.3050   35.8740   41.0450 C   0  0  0  0  0  0  0  0  0  0  0  0
   42.6060   35.0560   39.9880 C   0  0  0  0  0  0  0  0  0  0  0  0
   41.9870   33.9270   40.5170 O   0  0  0  0  0  0  0  0  0  0  0  0
   42.9830   33.1340   41.1180 C   0  0  0  0  0  0  0  0  0  0  0  0
   43.4810   33.9290   42.3060 C   0  0  0  0  0  0  0  0  0  0  0  0
   44.0329   35.1793   45.2786 H   0  0  0  0  0  0  0  0  0  0  0  0
   47.0758   32.4838   46.3583 H   0  0  0  0  0  0  0  0  0  0  0  0
   48.4350   36.1959   42.4690 H   0  0  0  0  0  0  0  0  0  0  0  0
   49.3324   36.1926   40.1562 H   0  0  0  0  0  0  0  0  0  0  0  0
   48.7338   34.3883   38.5883 H   0  0  0  0  0  0  0  0  0  0  0  0
   47.2255   32.5516   39.2996 H   0  0  0  0  0  0  0  0  0  0  0  0
   46.3139   32.5375   41.6252 H   0  0  0  0  0  0  0  0  0  0  0  0
   44.1175   36.3820   43.3629 H   0  0  0  0  0  0  0  0  0  0  0  0
   45.6325   36.4757   42.4053 H   0  0  0  0  0  0  0  0  0  0  0  0
   42.5605   36.2734   41.7494 H   0  0  0  0  0  0  0  0  0  0  0  0
   43.8435   36.7043   40.5647 H   0  0  0  0  0  0  0  0  0  0  0  0
   43.3472   34.7357   39.2410 H   0  0  0  0  0  0  0  0  0  0  0  0
   41.8262   35.6864   39.5357 H   0  0  0  0  0  0  0  0  0  0  0  0
   42.5604   32.1740   41.4494 H   0  0  0  0  0  0  0  0  0  0  0  0
   43.7968   32.9038   40.4147 H   0  0  0  0  0  0  0  0  0  0  0  0
   44.1174   33.2991   42.9449 H   0  0  0  0  0  0  0  0  0  0  0  0
   42.6443   34.2887   42.9228 H   0  0  0  0  0  0  0  0  0  0  0  0
  1  6  2  0
  2  1  1  0
  3  2  2  0
  3  4  1  0
  4  5  2  0
  5  6  1  0
  7  3  1  0
  8  7  2  0
  9  8  1  0
 10 11  1  0
 10  9  2  0
 11 12  2  0
 12  7  1  0
 13  2  1  0
 14 19  1  0
 14 13  1  0
 15 14  1  0
 16 17  1  0
 16 15  1  0
 17 18  1  0
 18 19  1  0
  1 20  1  0
  5 21  1  0
  8 22  1  0
  9 23  1  0
 10 24  1  0
 11 25  1  0
 12 26  1  0
 13 27  1  0
 13 28  1  0
 15 29  1  0
 15 30  1  0
 16 31  1  0
 16 32  1  0
 18 33  1  0
 18 34  1  0
 19 35  1  0
 19 36  1  0
M  ISO  8  20  14  21  14  22  14  23  14  24  14  25  14  26  14  27   8
M  ISO  8  28   8  29  13  30  13  31  13  32  13  33  13  34  13  35  13
M  ISO  1  36  13
M  END
>  <minimizedAffinity>  (1) 
-5.02092171

>  <minimizedRMSD>  (1) 
0.836382031

$$$$
