
     RDKit          3D

 51 54  0  0  1  0  0  0  0  0999 V2000
   45.7390   35.3760   43.5130 C   0  0  1  0  0  0  0  0  0  0  0  0
   44.6410   34.9310   44.2490 C   0  0  0  0  0  0  0  0  0  0  0  0
   45.9380   34.4190   44.7250 C   0  0  1  0  0  0  0  0  0  0  0  0
   45.2230   34.2190   41.3590 C   0  0  0  0  0  0  0  0  0  0  0  0
   46.1980   34.8650   42.1860 C   0  0  0  0  0  0  0  0  0  0  0  0
   47.4780   34.9880   41.7530 C   0  0  0  0  0  0  0  0  0  0  0  0
   47.7730   34.4720   40.5120 N   0  0  0  0  0  0  0  0  0  0  0  0
   46.8450   33.8660   39.7420 C   0  0  0  0  0  0  0  0  0  0  0  0
   45.5360   33.7200   40.1430 N   0  0  0  0  0  0  0  0  0  0  0  0
   47.2470   33.3650   38.4760 N   0  0  0  0  0  0  0  0  0  0  0  0
   48.3210   34.0340   37.7870 C   0  0  0  0  0  0  0  0  0  0  0  0
   49.2610   33.0100   37.1700 C   0  0  0  0  0  0  0  0  0  0  0  0
   48.5470   32.0020   36.5280 O   0  0  0  0  0  0  0  0  0  0  0  0
   47.7560   31.3030   37.4320 C   0  0  0  0  0  0  0  0  0  0  0  0
   46.6060   32.2120   37.8760 C   0  0  0  0  0  0  0  0  0  0  0  0
   46.3230   33.0080   44.4780 C   0  0  0  0  0  0  0  0  0  0  0  0
   45.8350   32.2420   45.5710 N   0  0  0  0  0  0  0  0  0  0  0  0
   45.9220   32.8010   46.8530 C   0  0  0  0  0  0  0  0  0  0  0  0
   47.2470   32.4380   47.5500 C   0  0  0  0  0  0  0  0  0  0  0  0
   47.1920   30.9500   47.8070 C   0  0  0  0  0  0  0  0  0  0  0  0
   47.0860   30.2910   46.4570 C   0  0  0  0  0  0  0  0  0  0  0  0
   46.0130   30.8510   45.5650 C   0  0  2  0  0  0  0  0  0  0  0  0
   46.2910   30.3170   44.1670 C   0  0  0  0  0  0  0  0  0  0  0  0
   46.0182   36.3871   43.1817 H   0  0  0  0  0  0  0  0  0  0  0  0
   44.0899   35.6502   44.8727 H   0  0  0  0  0  0  0  0  0  0  0  0
   43.7059   34.4297   43.9585 H   0  0  0  0  0  0  0  0  0  0  0  0
   46.4972   34.4109   45.6722 H   0  0  0  0  0  0  0  0  0  0  0  0
   44.1896   34.1265   41.7244 H   0  0  0  0  0  0  0  0  0  0  0  0
   48.2468   35.4791   42.3676 H   0  0  0  0  0  0  0  0  0  0  0  0
   47.9037   34.6704   36.9928 H   0  0  0  0  0  0  0  0  0  0  0  0
   48.8809   34.6517   38.5046 H   0  0  0  0  0  0  0  0  0  0  0  0
   49.9108   33.5127   36.4385 H   0  0  0  0  0  0  0  0  0  0  0  0
   49.8626   32.5577   37.9722 H   0  0  0  0  0  0  0  0  0  0  0  0
   47.3510   30.4007   36.9504 H   0  0  0  0  0  0  0  0  0  0  0  0
   48.3560   31.0016   38.3033 H   0  0  0  0  0  0  0  0  0  0  0  0
   45.9971   32.5149   37.0114 H   0  0  0  0  0  0  0  0  0  0  0  0
   45.9275   31.7055   38.5782 H   0  0  0  0  0  0  0  0  0  0  0  0
   45.8734   32.6535   43.5388 H   0  0  0  0  0  0  0  0  0  0  0  0
   47.4151   32.9109   44.3897 H   0  0  0  0  0  0  0  0  0  0  0  0
   45.8528   33.8956   46.7690 H   0  0  0  0  0  0  0  0  0  0  0  0
   45.0970   32.3964   47.4577 H   0  0  0  0  0  0  0  0  0  0  0  0
   48.0998   32.6817   46.8993 H   0  0  0  0  0  0  0  0  0  0  0  0
   47.3767   33.0026   48.4851 H   0  0  0  0  0  0  0  0  0  0  0  0
   48.1058   30.6185   48.3219 H   0  0  0  0  0  0  0  0  0  0  0  0
   46.3381   30.6866   48.4484 H   0  0  0  0  0  0  0  0  0  0  0  0
   48.0521   30.4052   45.9435 H   0  0  0  0  0  0  0  0  0  0  0  0
   46.8161   29.2413   46.6449 H   0  0  0  0  0  0  0  0  0  0  0  0
   45.0467   30.5136   45.9680 H   0  0  0  0  0  0  0  0  0  0  0  0
   46.7978   29.3435   44.2404 H   0  0  0  0  0  0  0  0  0  0  0  0
   45.3414   30.1961   43.6251 H   0  0  0  0  0  0  0  0  0  0  0  0
   46.9347   31.0255   43.6251 H   0  0  0  0  0  0  0  0  0  0  0  0
  1  2  1  0
  1  3  1  0
  2  3  1  0
  4  5  2  0
  5  1  1  0
  6  5  1  0
  7  6  2  0
  8  9  2  0
  8  7  1  0
  9  4  1  0
 10  8  1  0
 11 10  1  0
 12 11  1  0
 13 12  1  0
 13 14  1  0
 14 15  1  0
 15 10  1  0
 16  3  1  0
 16 17  1  0
 17 18  1  0
 18 19  1  0
 19 20  1  0
 21 20  1  0
 22 17  1  0
 22 21  1  0
 23 22  1  0
  1 24  1  1
  2 25  1  0
  2 26  1  0
  3 27  1  1
  4 28  1  0
  6 29  1  0
 11 30  1  0
 11 31  1  0
 12 32  1  0
 12 33  1  0
 14 34  1  0
 14 35  1  0
 15 36  1  0
 15 37  1  0
 16 38  1  0
 16 39  1  0
 18 40  1  0
 18 41  1  0
 19 42  1  0
 19 43  1  0
 20 44  1  0
 20 45  1  0
 21 46  1  0
 21 47  1  0
 22 48  1  1
 23 49  1  0
 23 50  1  0
 23 51  1  0
M  ISO  8  24  13  25  13  26  13  27  13  28  14  29  14  30  13  31  13
M  ISO  8  32  13  33  13  34  13  35  13  36  13  37  13  38   8  39   8
M  ISO  8  40  13  41  13  42  13  43  13  44  13  45  13  46  13  47  13
M  ISO  4  48  13  49   8  50   8  51   8
M  END
>  <minimizedAffinity>  (1) 
-4.95634842

>  <minimizedRMSD>  (1) 
2.41365647

$$$$
