
     RDKit          3D

 46 48  0  0  1  0  0  0  0  0999 V2000
   47.8490   33.9350   41.9740 N   0  0  0  0  0  0  0  0  0  0  0  0
   47.8470   34.9220   40.9620 C   0  0  0  0  0  0  0  0  0  0  0  0
   49.0520   35.7210   41.2900 C   0  0  0  0  0  0  0  0  0  0  0  0
   49.7350   35.0900   42.4990 C   0  0  0  0  0  0  0  0  0  0  0  0
   49.1340   33.6770   42.4810 C   0  0  2  0  0  0  0  0  0  0  0  0
   46.6640   33.3680   42.3750 C   0  0  0  0  0  0  0  0  0  0  0  0
   44.5860   35.7980   44.4050 C   0  0  0  0  0  0  0  0  0  0  0  0
   45.2420   35.2360   43.2660 C   0  0  0  0  0  0  0  0  0  0  0  0
   45.9730   34.0610   43.4420 C   0  0  0  0  0  0  0  0  0  0  0  0
   46.0120   33.5330   44.6850 N   0  0  0  0  0  0  0  0  0  0  0  0
   45.3730   34.0890   45.7730 C   0  0  0  0  0  0  0  0  0  0  0  0
   44.6680   35.2120   45.6270 N   0  0  0  0  0  0  0  0  0  0  0  0
   49.8220   32.9730   41.4840 O   0  0  0  0  0  0  0  0  0  0  0  0
   49.3670   30.6510   42.6890 O   0  0  0  0  0  0  0  0  0  0  0  0
   50.3870   31.4870   41.9540 P   0  0  2  0  0  0  0  0  0  0  0  0
   51.6890   31.7270   43.0130 O   0  0  0  0  0  0  0  0  0  0  0  0
   51.0200   30.6140   40.6210 O   0  0  0  0  0  0  0  0  0  0  0  0
   53.1570   31.2460   39.6670 C   0  0  2  0  0  0  0  0  0  0  0  0
   51.6850   31.5420   39.8180 C   0  0  1  0  0  0  0  0  0  0  0  0
   51.0520   31.7220   38.5960 O   0  0  0  0  0  0  0  0  0  0  0  0
   51.2070   30.6390   37.7400 C   0  0  0  0  0  0  0  0  0  0  0  0
   52.6280   30.2370   37.5040 C   0  0  1  0  0  0  0  0  0  0  0  0
   53.4530   30.0990   38.7410 C   0  0  1  0  0  0  0  0  0  0  0  0
   53.6110   30.8320   40.9410 O   0  0  0  0  0  0  0  0  0  0  0  0
   52.5930   28.9590   36.9020 O   0  0  0  0  0  0  0  0  0  0  0  0
   54.7960   30.2460   38.3330 O   0  0  0  0  0  0  0  0  0  0  0  0
   47.1314   35.0620   40.1384 H   0  0  0  0  0  0  0  0  0  0  0  0
   49.3953   36.6172   40.7524 H   0  0  0  0  0  0  0  0  0  0  0  0
   50.8278   35.0643   42.3762 H   0  0  0  0  0  0  0  0  0  0  0  0
   49.5763   35.6350   43.4413 H   0  0  0  0  0  0  0  0  0  0  0  0
   49.1628   33.1347   43.4376 H   0  0  0  0  0  0  0  0  0  0  0  0
   45.9933   33.3318   41.5039 H   0  0  0  0  0  0  0  0  0  0  0  0
   46.9229   32.3768   42.7756 H   0  0  0  0  0  0  0  0  0  0  0  0
   44.0032   36.7237   44.2891 H   0  0  0  0  0  0  0  0  0  0  0  0
   45.1723   35.7164   42.2789 H   0  0  0  0  0  0  0  0  0  0  0  0
   45.4444   33.6075   46.7594 H   0  0  0  0  0  0  0  0  0  0  0  0
   51.3691   31.6680   43.9480 H   0  0  0  0  0  0  0  0  0  0  0  0
   53.6378   32.1489   39.2626 H   0  0  0  0  0  0  0  0  0  0  0  0
   51.6286   32.5029   40.3504 H   0  0  0  0  0  0  0  0  0  0  0  0
   50.6735   29.7796   38.1723 H   0  0  0  0  0  0  0  0  0  0  0  0
   50.8021   30.9486   36.7652 H   0  0  0  0  0  0  0  0  0  0  0  0
   53.0876   31.0290   36.8945 H   0  0  0  0  0  0  0  0  0  0  0  0
   53.2510   29.1408   39.2420 H   0  0  0  0  0  0  0  0  0  0  0  0
   53.0957   31.3019   41.6437 H   0  0  0  0  0  0  0  0  0  0  0  0
   52.5739   28.2631   37.6059 H   0  0  0  0  0  0  0  0  0  0  0  0
   55.3783   30.3097   39.1311 H   0  0  0  0  0  0  0  0  0  0  0  0
  1  6  1  0
  1  5  1  0
  2  3  2  0
  2  1  1  0
  3  4  1  0
  5  4  1  0
  6  9  1  0
  7 12  2  0
  8  9  2  0
  8  7  1  0
  9 10  1  0
 10 11  2  0
 12 11  1  0
 13 15  1  0
 13  5  1  0
 15 14  2  0
 15 16  1  0
 17 15  1  0
 18 19  1  0
 18 24  1  0
 19 17  1  0
 20 19  1  0
 21 20  1  0
 22 25  1  0
 22 21  1  0
 22 23  1  0
 23 26  1  0
 23 18  1  0
  2 27  1  0
  3 28  1  0
  4 29  1  0
  4 30  1  0
  5 31  1  1
  6 32  1  0
  6 33  1  0
  7 34  1  0
  8 35  1  0
 11 36  1  0
 16 37  1  0
 18 38  1  6
 19 39  1  1
 21 40  1  0
 21 41  1  0
 22 42  1  6
 23 43  1  1
 24 44  1  0
 25 45  1  0
 26 46  1  0
M  ISO  8  27  13  28  13  29  13  30  13  31  13  32   8  33   8  34  14
M  ISO  8  35  14  36  14  37   3  38  13  39  13  40  13  41  13  42  13
M  ISO  4  43  13  44   3  45   3  46   3
M  END
>  <minimizedAffinity>  (1) 
-5.46569204

>  <minimizedRMSD>  (1) 
1.10075212

$$$$
