
     RDKit          3D

 54 56  0  0  1  0  0  0  0  0999 V2000
   42.4600   31.8680   42.5800 N   0  0  0  0  0  0  0  0  0  0  0  0
   43.1640   32.5950   41.5760 C   0  0  0  0  0  0  0  0  0  0  0  0
   43.5560   35.0570   41.7200 C   0  0  0  0  0  0  0  0  0  0  0  0
   43.9230   33.7740   42.0740 C   0  0  0  0  0  0  0  0  0  0  0  0
   45.0170   33.6110   42.9050 C   0  0  0  0  0  0  0  0  0  0  0  0
   45.7110   34.6970   43.3590 C   0  0  0  0  0  0  0  0  0  0  0  0
   45.3540   35.9800   43.0140 C   0  0  0  0  0  0  0  0  0  0  0  0
   44.2590   36.0990   42.1840 C   0  0  0  0  0  0  0  0  0  0  0  0
   40.0900   35.6230   40.3250 C   0  0  0  0  0  0  0  0  0  0  0  0
   41.1370   35.5470   41.2600 C   0  0  0  0  0  0  0  0  0  0  0  0
   42.3950   35.1700   40.8420 C   0  0  0  0  0  0  0  0  0  0  0  0
   42.5510   34.8870   39.5170 N   0  0  0  0  0  0  0  0  0  0  0  0
   41.5330   34.9640   38.6250 C   0  0  0  0  0  0  0  0  0  0  0  0
   40.3140   35.3320   39.0430 N   0  0  0  0  0  0  0  0  0  0  0  0
   40.7950   31.6670   42.2080 S   0  0  0  0  0  0  0  0  0  0  0  0
   39.9780   32.7900   42.7800 O   0  0  0  0  0  0  0  0  0  0  0  0
   40.2910   30.3440   42.6880 O   0  0  0  0  0  0  0  0  0  0  0  0
   40.6730   31.7070   40.5330 O   0  0  0  0  0  0  0  0  0  0  0  0
   39.3450   31.9630   40.1940 C   0  0  0  0  0  0  0  0  0  0  0  0
   38.9770   31.0850   39.0060 C   0  0  0  0  0  0  0  0  0  0  0  0
   37.6360   30.0340   40.8290 C   0  0  2  0  0  0  0  0  0  0  0  0
   37.7160   30.3390   39.3750 C   0  0  2  0  0  0  0  0  0  0  0  0
   37.6740   29.2150   38.5560 O   0  0  0  0  0  0  0  0  0  0  0  0
   36.7440   28.2770   38.9290 C   0  0  0  0  0  0  0  0  0  0  0  0
   37.0750   27.6530   40.2630 C   0  0  1  0  0  0  0  0  0  0  0  0
   37.7960   28.5780   41.1840 C   0  0  2  0  0  0  0  0  0  0  0  0
   36.4090   30.4900   41.3740 O   0  0  0  0  0  0  0  0  0  0  0  0
   35.9380   27.1510   40.8960 O   0  0  0  0  0  0  0  0  0  0  0  0
   37.2580   28.4560   42.4860 O   0  0  0  0  0  0  0  0  0  0  0  0
   42.8909   30.9374   42.6762 H   0  0  0  0  0  0  0  0  0  0  0  0
   42.4331   32.9476   40.8334 H   0  0  0  0  0  0  0  0  0  0  0  0
   43.9089   31.9021   41.1578 H   0  0  0  0  0  0  0  0  0  0  0  0
   45.3305   32.5995   43.2025 H   0  0  0  0  0  0  0  0  0  0  0  0
   46.5781   34.5413   44.0178 H   0  0  0  0  0  0  0  0  0  0  0  0
   45.9082   36.8577   43.3780 H   0  0  0  0  0  0  0  0  0  0  0  0
   43.9440   37.1097   41.8851 H   0  0  0  0  0  0  0  0  0  0  0  0
   39.0835   35.9233   40.6517 H   0  0  0  0  0  0  0  0  0  0  0  0
   40.9535   35.7867   42.3178 H   0  0  0  0  0  0  0  0  0  0  0  0
   41.7064   34.7260   37.5651 H   0  0  0  0  0  0  0  0  0  0  0  0
   40.0076   32.7493   43.7687 H   0  0  0  0  0  0  0  0  0  0  0  0
   40.2864   30.3320   43.6779 H   0  0  0  0  0  0  0  0  0  0  0  0
   38.6914   31.7277   41.0469 H   0  0  0  0  0  0  0  0  0  0  0  0
   39.2180   33.0244   39.9345 H   0  0  0  0  0  0  0  0  0  0  0  0
   38.7996   31.7085   38.1173 H   0  0  0  0  0  0  0  0  0  0  0  0
   39.7913   30.3834   38.7721 H   0  0  0  0  0  0  0  0  0  0  0  0
   38.4937   30.5683   41.2635 H   0  0  0  0  0  0  0  0  0  0  0  0
   36.8224   30.9570   39.2031 H   0  0  0  0  0  0  0  0  0  0  0  0
   35.7588   28.7614   38.9980 H   0  0  0  0  0  0  0  0  0  0  0  0
   36.7426   27.4794   38.1714 H   0  0  0  0  0  0  0  0  0  0  0  0
   37.7557   26.8206   40.0311 H   0  0  0  0  0  0  0  0  0  0  0  0
   38.8562   28.2944   41.1101 H   0  0  0  0  0  0  0  0  0  0  0  0
   36.4597   30.4711   42.3625 H   0  0  0  0  0  0  0  0  0  0  0  0
   36.0565   27.2033   41.8775 H   0  0  0  0  0  0  0  0  0  0  0  0
   37.9706   28.6176   43.1540 H   0  0  0  0  0  0  0  0  0  0  0  0
  2  4  1  0
  2  1  1  0
  3  4  1  0
  3  8  2  0
  4  5  2  0
  5  6  1  0
  7  6  2  0
  8  7  1  0
  9 10  2  0
 11 10  1  0
 11  3  1  0
 12 11  2  0
 13 14  2  0
 13 12  1  0
 14  9  1  0
 15  1  1  0
 15 17  1  0
 15 16  1  0
 18 15  1  0
 19 18  1  0
 20 19  1  0
 21 26  1  0
 21 27  1  0
 22 20  1  0
 22 21  1  0
 23 24  1  0
 23 22  1  0
 24 25  1  0
 25 28  1  0
 25 26  1  0
 26 29  1  0
  1 30  1  0
  2 31  1  0
  2 32  1  0
  5 33  1  0
  6 34  1  0
  7 35  1  0
  8 36  1  0
  9 37  1  0
 10 38  1  0
 13 39  1  0
 16 40  1  0
 17 41  1  0
 19 42  1  0
 19 43  1  0
 20 44  1  0
 20 45  1  0
 21 46  1  1
 22 47  1  6
 24 48  1  0
 24 49  1  0
 25 50  1  6
 26 51  1  1
 27 52  1  0
 28 53  1  0
 29 54  1  0
M  ISO  8  30   5  31   8  32   8  33  14  34  14  35  14  36  14  37  14
M  ISO  8  38  14  39  14  40   3  41   3  42   8  43   8  44   8  45   8
M  ISO  8  46  13  47  13  48  13  49  13  50  13  51  13  52   3  53   3
M  ISO  1  54   3
M  END
>  <minimizedAffinity>  (1) 
-6.30988312

>  <minimizedRMSD>  (1) 
2.84561038

$$$$
