
     RDKit          3D

 51 54  0  0  1  0  0  0  0  0999 V2000
   42.2200   33.1080   40.9760 C   0  0  0  0  0  0  0  0  0  0  0  0
   42.8030   34.2950   41.3830 C   0  0  0  0  0  0  0  0  0  0  0  0
   41.9870   35.4000   41.5930 C   0  0  0  0  0  0  0  0  0  0  0  0
   40.6240   35.3350   41.4040 C   0  0  0  0  0  0  0  0  0  0  0  0
   40.0370   34.1670   41.0000 C   0  0  0  0  0  0  0  0  0  0  0  0
   40.8390   33.0830   40.7940 C   0  0  0  0  0  0  0  0  0  0  0  0
   43.1430   31.7620   40.6140 S   0  0  0  0  0  0  0  0  0  0  0  0
   42.1790   30.6700   40.3030 O   0  0  0  0  0  0  0  0  0  0  0  0
   43.9280   31.4080   41.9320 O   0  0  0  0  0  0  0  0  0  0  0  0
   44.0480   31.6330   38.1940 C   0  0  2  0  0  0  0  0  0  0  0  0
   44.3890   31.3210   39.6480 C   0  0  1  0  0  0  0  0  0  0  0  0
   45.6200   32.0190   39.7920 O   0  0  0  0  0  0  0  0  0  0  0  0
   46.5560   31.6630   38.8540 C   0  0  0  0  0  0  0  0  0  0  0  0
   46.3100   32.5900   37.6740 C   0  0  1  0  0  0  0  0  0  0  0  0
   44.8110   32.7710   37.5880 C   0  0  2  0  0  0  0  0  0  0  0  0
   42.6860   32.0060   38.0750 O   0  0  0  0  0  0  0  0  0  0  0  0
   46.8570   33.8450   37.9390 O   0  0  0  0  0  0  0  0  0  0  0  0
   44.4100   33.9740   38.1240 O   0  0  0  0  0  0  0  0  0  0  0  0
   44.2490   34.4380   41.6050 C   0  0  0  0  0  0  0  0  0  0  0  0
   45.1190   34.4940   40.6770 O   0  0  0  0  0  0  0  0  0  0  0  0
   44.5950   34.5120   42.9910 C   0  0  0  0  0  0  0  0  0  0  0  0
   44.2940   35.7440   43.6510 C   0  0  0  0  0  0  0  0  0  0  0  0
   44.6060   35.8270   45.0100 C   0  0  0  0  0  0  0  0  0  0  0  0
   45.1700   34.7440   45.6080 N   0  0  0  0  0  0  0  0  0  0  0  0
   45.4390   33.5830   44.9270 C   0  0  0  0  0  0  0  0  0  0  0  0
   45.1450   33.5320   43.6830 N   0  0  0  0  0  0  0  0  0  0  0  0
   46.0320   32.4500   45.6650 C   0  0  1  0  0  0  0  0  0  0  0  0
   46.9730   32.7360   46.8120 C   0  0  0  0  0  0  0  0  0  0  0  0
   45.5630   32.3050   47.0660 C   0  0  1  0  0  0  0  0  0  0  0  0
   44.7740   33.3570   47.6820 N   0  0  0  0  0  0  0  0  0  0  0  0
   42.4398   36.3484   41.9176 H   0  0  0  0  0  0  0  0  0  0  0  0
   40.0043   36.2269   41.5788 H   0  0  0  0  0  0  0  0  0  0  0  0
   38.9497   34.1039   40.8458 H   0  0  0  0  0  0  0  0  0  0  0  0
   40.3720   32.1420   40.4678 H   0  0  0  0  0  0  0  0  0  0  0  0
   44.3073   30.7034   37.6663 H   0  0  0  0  0  0  0  0  0  0  0  0
   44.5192   30.2668   39.9340 H   0  0  0  0  0  0  0  0  0  0  0  0
   47.5724   31.8043   39.2503 H   0  0  0  0  0  0  0  0  0  0  0  0
   46.4710   30.6038   38.5696 H   0  0  0  0  0  0  0  0  0  0  0  0
   46.7516   32.1758   36.7556 H   0  0  0  0  0  0  0  0  0  0  0  0
   44.5705   32.7779   36.5146 H   0  0  0  0  0  0  0  0  0  0  0  0
   42.2933   32.1136   38.9774 H   0  0  0  0  0  0  0  0  0  0  0  0
   46.9156   33.9794   38.9181 H   0  0  0  0  0  0  0  0  0  0  0  0
   44.4288   33.9176   39.1122 H   0  0  0  0  0  0  0  0  0  0  0  0
   43.8375   36.5880   43.1131 H   0  0  0  0  0  0  0  0  0  0  0  0
   44.4008   36.7443   45.5813 H   0  0  0  0  0  0  0  0  0  0  0  0
   46.1024   31.8121   44.7716 H   0  0  0  0  0  0  0  0  0  0  0  0
   47.8069   32.0513   47.0261 H   0  0  0  0  0  0  0  0  0  0  0  0
   47.5982   33.5879   47.1177 H   0  0  0  0  0  0  0  0  0  0  0  0
   45.0350   31.4852   47.5750 H   0  0  0  0  0  0  0  0  0  0  0  0
   44.8346   33.2762   48.7070 H   0  0  0  0  0  0  0  0  0  0  0  0
   45.1367   34.2751   47.3879 H   0  0  0  0  0  0  0  0  0  0  0  0
  1  2  1  0
  2  3  2  0
  2 19  1  0
  4  3  1  0
  5  4  2  0
  6  1  2  0
  6  5  1  0
  7  1  1  0
  7  9  2  0
  8  7  2  0
 10 16  1  0
 10 11  1  0
 11 12  1  0
 11  7  1  0
 13 12  1  0
 14 17  1  0
 14 13  1  0
 15 14  1  0
 15 18  1  0
 15 10  1  0
 19 21  1  0
 20 19  2  0
 21 22  2  0
 21 26  1  0
 22 23  1  0
 23 24  2  0
 25 24  1  0
 25 27  1  0
 26 25  2  0
 27 28  1  0
 27 29  1  0
 28 29  1  0
 29 30  1  0
  3 31  1  0
  4 32  1  0
  5 33  1  0
  6 34  1  0
 10 35  1  6
 11 36  1  6
 13 37  1  0
 13 38  1  0
 14 39  1  6
 15 40  1  6
 16 41  1  0
 17 42  1  0
 18 43  1  0
 22 44  1  0
 23 45  1  0
 27 46  1  6
 28 47  1  0
 28 48  1  0
 29 49  1  6
 30 50  1  0
 30 51  1  0
M  ISO  8  31  14  32  14  33  14  34  14  35  13  36  13  37  13  38  13
M  ISO  8  39  13  40  13  41   3  42   3  43   3  44  14  45  14  46  13
M  ISO  5  47  13  48  13  49  13  50   5  51   5
M  END
>  <minimizedAffinity>  (1) 
-6.57058525

>  <minimizedRMSD>  (1) 
2.07235408

$$$$
