
     RDKit          3D

 48 50  0  0  1  0  0  0  0  0999 V2000
   47.2810   32.5610   40.8160 C   0  0  1  0  0  0  0  0  0  0  0  0
   48.5540   32.1360   40.2020 C   0  0  2  0  0  0  0  0  0  0  0  0
   49.6320   32.2080   41.1430 O   0  0  0  0  0  0  0  0  0  0  0  0
   49.8530   33.5750   41.3360 C   0  0  0  0  0  0  0  0  0  0  0  0
   48.7190   34.1780   42.1380 C   0  0  1  0  0  0  0  0  0  0  0  0
   47.4920   33.3010   42.1240 C   0  0  1  0  0  0  0  0  0  0  0  0
   46.5180   33.3400   39.9230 O   0  0  0  0  0  0  0  0  0  0  0  0
   49.1890   34.2440   43.4630 O   0  0  0  0  0  0  0  0  0  0  0  0
   48.9750   32.8750   39.0630 O   0  0  0  0  0  0  0  0  0  0  0  0
   51.5900   31.1840   37.2930 C   0  0  0  0  0  0  0  0  0  0  0  0
   50.9520   30.6850   36.1490 C   0  0  0  0  0  0  0  0  0  0  0  0
   49.5890   30.9470   35.9980 C   0  0  0  0  0  0  0  0  0  0  0  0
   48.9570   31.6680   36.9640 N   0  0  0  0  0  0  0  0  0  0  0  0
   49.5810   32.1320   38.0420 C   0  0  0  0  0  0  0  0  0  0  0  0
   50.9070   31.8950   38.2190 N   0  0  0  0  0  0  0  0  0  0  0  0
   53.0540   30.8910   37.4480 C   0  0  0  0  0  0  0  0  0  0  0  0
   53.7570   32.0170   37.7510 F   0  0  0  0  0  0  0  0  0  0  0  0
   53.1960   29.9020   38.4100 F   0  0  0  0  0  0  0  0  0  0  0  0
   53.5190   30.3000   36.2510 F   0  0  0  0  0  0  0  0  0  0  0  0
   46.3780   34.1580   42.2990 O   0  0  0  0  0  0  0  0  0  0  0  0
   44.0930   34.0110   42.7060 C   0  0  1  0  0  0  0  0  0  0  0  0
   45.4680   33.6090   43.2330 C   0  0  2  0  0  0  0  0  0  0  0  0
   45.7360   34.2520   44.4190 O   0  0  0  0  0  0  0  0  0  0  0  0
   44.7760   35.1190   44.8680 C   0  0  0  0  0  0  0  0  0  0  0  0
   44.2870   36.1230   43.8710 C   0  0  2  0  0  0  0  0  0  0  0  0
   44.2140   35.5090   42.4960 C   0  0  2  0  0  0  0  0  0  0  0  0
   43.7950   33.3290   41.5510 O   0  0  0  0  0  0  0  0  0  0  0  0
   44.9850   37.3230   43.8780 O   0  0  0  0  0  0  0  0  0  0  0  0
   43.1630   36.0170   41.7440 O   0  0  0  0  0  0  0  0  0  0  0  0
   46.7196   31.6432   41.0450 H   0  0  0  0  0  0  0  0  0  0  0  0
   48.3314   31.1090   39.8770 H   0  0  0  0  0  0  0  0  0  0  0  0
   50.7987   33.7174   41.8795 H   0  0  0  0  0  0  0  0  0  0  0  0
   49.9053   34.0728   40.3565 H   0  0  0  0  0  0  0  0  0  0  0  0
   48.4371   35.1543   41.7168 H   0  0  0  0  0  0  0  0  0  0  0  0
   47.6133   32.5444   42.9132 H   0  0  0  0  0  0  0  0  0  0  0  0
   45.9255   33.9449   40.4360 H   0  0  0  0  0  0  0  0  0  0  0  0
   48.4290   34.1373   44.0884 H   0  0  0  0  0  0  0  0  0  0  0  0
   51.5066   30.1064   35.3955 H   0  0  0  0  0  0  0  0  0  0  0  0
   49.0390   30.5794   35.1192 H   0  0  0  0  0  0  0  0  0  0  0  0
   43.2679   33.7653   43.3907 H   0  0  0  0  0  0  0  0  0  0  0  0
   45.5291   32.5196   43.3724 H   0  0  0  0  0  0  0  0  0  0  0  0
   43.9122   34.5239   45.1992 H   0  0  0  0  0  0  0  0  0  0  0  0
   45.2518   35.7021   45.6703 H   0  0  0  0  0  0  0  0  0  0  0  0
   43.2700   36.4010   44.1848 H   0  0  0  0  0  0  0  0  0  0  0  0
   45.1150   35.7537   41.9143 H   0  0  0  0  0  0  0  0  0  0  0  0
   43.4093   32.4462   41.7792 H   0  0  0  0  0  0  0  0  0  0  0  0
   45.1486   37.6042   44.8130 H   0  0  0  0  0  0  0  0  0  0  0  0
   42.4581   36.3577   42.3499 H   0  0  0  0  0  0  0  0  0  0  0  0
  1  6  1  0
  2  1  1  0
  2  3  1  0
  3  4  1  0
  4  5  1  0
  5  8  1  0
  6  5  1  0
  6 20  1  0
  7  1  1  0
  9  2  1  0
 10 16  1  0
 10 15  2  0
 11 10  1  0
 12 11  2  0
 12 13  1  0
 13 14  2  0
 14 15  1  0
 14  9  1  0
 16 17  1  0
 16 18  1  0
 19 16  1  0
 21 27  1  0
 21 22  1  0
 22 20  1  0
 22 23  1  0
 23 24  1  0
 25 28  1  0
 25 24  1  0
 26 29  1  0
 26 21  1  0
 26 25  1  0
  1 30  1  1
  2 31  1  6
  4 32  1  0
  4 33  1  0
  5 34  1  6
  6 35  1  1
  7 36  1  0
  8 37  1  0
 11 38  1  0
 12 39  1  0
 21 40  1  1
 22 41  1  1
 24 42  1  0
 24 43  1  0
 25 44  1  1
 26 45  1  6
 27 46  1  0
 28 47  1  0
 29 48  1  0
M  ISO  8  30  13  31  13  32  13  33  13  34  13  35  13  36   3  37   3
M  ISO  8  38  14  39  14  40  13  41  13  42  13  43  13  44  13  45  13
M  ISO  3  46   3  47   3  48   3
M  END
>  <minimizedAffinity>  (1) 
-5.17680788

>  <minimizedRMSD>  (1) 
3.07242227

$$$$
