
     RDKit          3D

 31 32  0  0  1  0  0  0  0  0999 V2000
   44.6350   33.9850   41.0000 S   0  0  0  0  0  0  0  0  0  0  0  0
   45.7930   32.7910   43.2200 C   0  0  1  0  0  0  0  0  0  0  0  0
   46.0560   33.6560   42.0270 C   0  0  2  0  0  0  0  0  0  0  0  0
   46.7440   34.8200   42.3340 O   0  0  0  0  0  0  0  0  0  0  0  0
   48.0370   34.5820   42.7860 C   0  0  0  0  0  0  0  0  0  0  0  0
   48.2860   33.1880   43.2550 C   0  0  1  0  0  0  0  0  0  0  0  0
   47.0830   32.6680   44.0060 C   0  0  1  0  0  0  0  0  0  0  0  0
   44.8220   33.3190   44.0770 O   0  0  0  0  0  0  0  0  0  0  0  0
   48.7650   32.3240   42.2830 O   0  0  0  0  0  0  0  0  0  0  0  0
   47.0130   33.4210   45.1810 O   0  0  0  0  0  0  0  0  0  0  0  0
   43.6570   35.4150   41.5040 C   0  0  0  0  0  0  0  0  0  0  0  0
   40.0830   35.8140   40.6010 C   0  0  0  0  0  0  0  0  0  0  0  0
   40.0780   35.2550   39.3360 C   0  0  0  0  0  0  0  0  0  0  0  0
   41.2770   34.7460   38.7970 C   0  0  0  0  0  0  0  0  0  0  0  0
   42.4300   34.8180   39.5450 N   0  0  0  0  0  0  0  0  0  0  0  0
   42.3790   35.3760   40.7780 C   0  0  0  0  0  0  0  0  0  0  0  0
   41.2280   35.8610   41.2870 N   0  0  0  0  0  0  0  0  0  0  0  0
   45.4247   31.8229   42.8497 H   0  0  0  0  0  0  0  0  0  0  0  0
   46.7202   33.0337   41.4094 H   0  0  0  0  0  0  0  0  0  0  0  0
   48.7331   34.7957   41.9615 H   0  0  0  0  0  0  0  0  0  0  0  0
   48.1865   35.2350   43.6585 H   0  0  0  0  0  0  0  0  0  0  0  0
   49.1278   33.2332   43.9617 H   0  0  0  0  0  0  0  0  0  0  0  0
   47.2000   31.5918   44.2012 H   0  0  0  0  0  0  0  0  0  0  0  0
   45.0954   33.1704   45.0168 H   0  0  0  0  0  0  0  0  0  0  0  0
   49.1965   31.5457   42.7169 H   0  0  0  0  0  0  0  0  0  0  0  0
   47.0691   32.8173   45.9636 H   0  0  0  0  0  0  0  0  0  0  0  0
   43.4712   35.3760   42.5875 H   0  0  0  0  0  0  0  0  0  0  0  0
   44.1970   36.3452   41.2734 H   0  0  0  0  0  0  0  0  0  0  0  0
   39.1558   36.2148   41.0366 H   0  0  0  0  0  0  0  0  0  0  0  0
   39.1453   35.2079   38.7547 H   0  0  0  0  0  0  0  0  0  0  0  0
   41.2909   34.2976   37.7927 H   0  0  0  0  0  0  0  0  0  0  0  0
  1 11  1  0
  2  7  1  0
  2  8  1  0
  3  1  1  0
  3  4  1  0
  3  2  1  0
  4  5  1  0
  5  6  1  0
  6  9  1  0
  6  7  1  0
  7 10  1  0
 12 17  2  0
 13 12  1  0
 14 13  2  0
 14 15  1  0
 15 16  2  0
 16 17  1  0
 16 11  1  0
  2 18  1  6
  3 19  1  6
  5 20  1  0
  5 21  1  0
  6 22  1  1
  7 23  1  1
  8 24  1  0
  9 25  1  0
 10 26  1  0
 11 27  1  0
 11 28  1  0
 12 29  1  0
 13 30  1  0
 14 31  1  0
M  ISO  8  18  13  19  13  20  13  21  13  22  13  23  13  24   3  25   3
M  ISO  6  26   3  27   8  28   8  29  14  30  14  31  14
M  END
>  <minimizedAffinity>  (1) 
-4.62883902

>  <minimizedRMSD>  (1) 
6.34831953

$$$$
