
     RDKit          3D

 43 45  0  0  1  0  0  0  0  0999 V2000
   46.8280   34.5960   42.1830 N   0  0  0  0  0  0  0  0  0  0  0  0
   48.2690   34.4590   42.2620 C   0  0  0  0  0  0  0  0  0  0  0  0
   48.7890   35.2930   41.0740 C   0  0  0  0  0  0  0  0  0  0  0  0
   48.3850   34.5960   39.7960 C   0  0  0  0  0  0  0  0  0  0  0  0
   46.9870   34.0720   39.7960 C   0  0  0  0  0  0  0  0  0  0  0  0
   46.1330   34.5190   40.9440 C   0  0  1  0  0  0  0  0  0  0  0  0
   44.5060   36.0610   44.7270 C   0  0  0  0  0  0  0  0  0  0  0  0
   45.2260   35.9470   43.5250 C   0  0  0  0  0  0  0  0  0  0  0  0
   46.0510   34.8160   43.3630 C   0  0  0  0  0  0  0  0  0  0  0  0
   46.0900   33.9180   44.3780 N   0  0  0  0  0  0  0  0  0  0  0  0
   45.3800   34.0640   45.5200 C   0  0  0  0  0  0  0  0  0  0  0  0
   44.5790   35.1570   45.6850 N   0  0  0  0  0  0  0  0  0  0  0  0
   45.0680   33.6120   41.0680 O   0  0  0  0  0  0  0  0  0  0  0  0
   43.2640   34.2730   39.5820 C   0  0  2  0  0  0  0  0  0  0  0  0
   43.8310   34.1920   40.9550 C   0  0  1  0  0  0  0  0  0  0  0  0
   42.8700   33.7390   41.8290 O   0  0  0  0  0  0  0  0  0  0  0  0
   42.8400   32.3290   41.7140 C   0  0  0  0  0  0  0  0  0  0  0  0
   42.6080   31.9400   40.2800 C   0  0  1  0  0  0  0  0  0  0  0  0
   42.2580   33.1500   39.4290 C   0  0  2  0  0  0  0  0  0  0  0  0
   44.2040   34.1000   38.5750 O   0  0  0  0  0  0  0  0  0  0  0  0
   43.7520   31.3240   39.8010 O   0  0  0  0  0  0  0  0  0  0  0  0
   42.2200   32.7650   38.0920 O   0  0  0  0  0  0  0  0  0  0  0  0
   48.6479   34.8572   43.2148 H   0  0  0  0  0  0  0  0  0  0  0  0
   48.5974   33.4101   42.2187 H   0  0  0  0  0  0  0  0  0  0  0  0
   48.3478   36.3002   41.1045 H   0  0  0  0  0  0  0  0  0  0  0  0
   49.8837   35.3873   41.1259 H   0  0  0  0  0  0  0  0  0  0  0  0
   48.4842   35.3123   38.9671 H   0  0  0  0  0  0  0  0  0  0  0  0
   49.0475   33.7243   39.6903 H   0  0  0  0  0  0  0  0  0  0  0  0
   46.5019   34.3992   38.8645 H   0  0  0  0  0  0  0  0  0  0  0  0
   47.0728   32.9793   39.8894 H   0  0  0  0  0  0  0  0  0  0  0  0
   45.7890   35.5400   40.7222 H   0  0  0  0  0  0  0  0  0  0  0  0
   43.8573   36.9370   44.8743 H   0  0  0  0  0  0  0  0  0  0  0  0
   45.1482   36.7129   42.7393 H   0  0  0  0  0  0  0  0  0  0  0  0
   45.4478   33.3047   46.3130 H   0  0  0  0  0  0  0  0  0  0  0  0
   42.8327   35.2794   39.4763 H   0  0  0  0  0  0  0  0  0  0  0  0
   44.0915   35.2173   41.2564 H   0  0  0  0  0  0  0  0  0  0  0  0
   43.8004   31.9143   42.0541 H   0  0  0  0  0  0  0  0  0  0  0  0
   42.0239   31.9311   42.3350 H   0  0  0  0  0  0  0  0  0  0  0  0
   41.7555   31.2470   40.2256 H   0  0  0  0  0  0  0  0  0  0  0  0
   41.2804   33.5240   39.7672 H   0  0  0  0  0  0  0  0  0  0  0  0
   45.0932   33.9363   38.9782 H   0  0  0  0  0  0  0  0  0  0  0  0
   44.3089   31.0241   40.5626 H   0  0  0  0  0  0  0  0  0  0  0  0
   42.1229   31.7815   38.0344 H   0  0  0  0  0  0  0  0  0  0  0  0
  1  2  1  0
  1  9  1  0
  3  2  1  0
  4  3  1  0
  5  4  1  0
  5  6  1  0
  6 13  1  0
  6  1  1  0
  7 12  2  0
  8  7  1  0
  9  8  2  0
  9 10  1  0
 10 11  2  0
 11 12  1  0
 14 20  1  0
 14 15  1  0
 15 13  1  0
 15 16  1  0
 17 16  1  0
 18 21  1  0
 18 17  1  0
 19 22  1  0
 19 14  1  0
 19 18  1  0
  2 23  1  0
  2 24  1  0
  3 25  1  0
  3 26  1  0
  4 27  1  0
  4 28  1  0
  5 29  1  0
  5 30  1  0
  6 31  1  6
  7 32  1  0
  8 33  1  0
 11 34  1  0
 14 35  1  6
 15 36  1  1
 17 37  1  0
 17 38  1  0
 18 39  1  1
 19 40  1  1
 20 41  1  0
 21 42  1  0
 22 43  1  0
M  ISO  8  23  13  24  13  25  13  26  13  27  13  28  13  29  13  30  13
M  ISO  8  31  13  32  14  33  14  34  14  35  13  36  13  37  13  38  13
M  ISO  5  39  13  40  13  41   3  42   3  43   3
M  END
>  <minimizedAffinity>  (1) 
-5.69978142

>  <minimizedRMSD>  (1) 
0.645231128

$$$$
