
     RDKit          3D

 52 55  0  0  1  0  0  0  0  0999 V2000
   42.4390   34.2260   38.8670 C   0  0  1  0  0  0  0  0  0  0  0  0
   42.9360   35.0480   40.0590 C   0  0  1  0  0  0  0  0  0  0  0  0
   41.8270   35.5850   40.7390 O   0  0  0  0  0  0  0  0  0  0  0  0
   40.7670   35.9100   39.8940 C   0  0  0  0  0  0  0  0  0  0  0  0
   40.1200   34.6790   39.3030 C   0  0  2  0  0  0  0  0  0  0  0  0
   41.1670   33.5460   39.3620 C   0  0  1  0  0  0  0  0  0  0  0  0
   42.1480   35.0610   37.7910 O   0  0  0  0  0  0  0  0  0  0  0  0
   39.9180   34.8860   37.9320 O   0  0  0  0  0  0  0  0  0  0  0  0
   43.4820   34.1240   40.9590 O   0  0  0  0  0  0  0  0  0  0  0  0
   44.5850   34.3120   41.6880 C   0  0  0  0  0  0  0  0  0  0  0  0
   45.8370   34.4150   41.0870 C   0  0  0  0  0  0  0  0  0  0  0  0
   46.9470   34.6130   41.8960 C   0  0  0  0  0  0  0  0  0  0  0  0
   46.7900   34.7010   43.2670 N   0  0  0  0  0  0  0  0  0  0  0  0
   45.5630   34.5950   43.8080 C   0  0  0  0  0  0  0  0  0  0  0  0
   44.4690   34.4030   43.0330 N   0  0  0  0  0  0  0  0  0  0  0  0
   48.3230   34.7190   41.2870 C   0  0  0  0  0  0  0  0  0  0  0  0
   49.0680   36.0180   41.4850 C   0  0  0  0  0  0  0  0  0  0  0  0
   49.4840   34.6890   42.1400 C   0  0  0  0  0  0  0  0  0  0  0  0
   40.7740   32.4810   38.5870 O   0  0  0  0  0  0  0  0  0  0  0  0
   38.8580   31.1870   39.3210 C   0  0  1  0  0  0  0  0  0  0  0  0
   40.3210   31.4690   39.4340 C   0  0  2  0  0  0  0  0  0  0  0  0
   40.5780   31.7860   40.7690 O   0  0  0  0  0  0  0  0  0  0  0  0
   40.4040   30.6300   41.5180 C   0  0  0  0  0  0  0  0  0  0  0  0
   38.9140   30.4360   41.7160 C   0  0  1  0  0  0  0  0  0  0  0  0
   38.1500   31.1820   40.6680 C   0  0  1  0  0  0  0  0  0  0  0  0
   38.2360   32.1520   38.5160 O   0  0  0  0  0  0  0  0  0  0  0  0
   38.5910   29.0890   41.8030 O   0  0  0  0  0  0  0  0  0  0  0  0
   37.9030   32.4980   41.0760 O   0  0  0  0  0  0  0  0  0  0  0  0
   43.1917   33.5025   38.5206 H   0  0  0  0  0  0  0  0  0  0  0  0
   43.6314   35.8321   39.7251 H   0  0  0  0  0  0  0  0  0  0  0  0
   40.0124   36.4675   40.4683 H   0  0  0  0  0  0  0  0  0  0  0  0
   41.1639   36.5170   39.0670 H   0  0  0  0  0  0  0  0  0  0  0  0
   39.1843   34.4568   39.8370 H   0  0  0  0  0  0  0  0  0  0  0  0
   41.3072   33.1091   40.3617 H   0  0  0  0  0  0  0  0  0  0  0  0
   41.8417   35.9398   38.1287 H   0  0  0  0  0  0  0  0  0  0  0  0
   39.2326   35.5884   37.8018 H   0  0  0  0  0  0  0  0  0  0  0  0
   45.9438   34.3410   39.9947 H   0  0  0  0  0  0  0  0  0  0  0  0
   45.4460   34.6655   44.8995 H   0  0  0  0  0  0  0  0  0  0  0  0
   48.0230   34.1225   40.4128 H   0  0  0  0  0  0  0  0  0  0  0  0
   49.6651   36.4508   40.6688 H   0  0  0  0  0  0  0  0  0  0  0  0
   48.8235   37.0345   41.8269 H   0  0  0  0  0  0  0  0  0  0  0  0
   49.3634   34.5516   43.2247 H   0  0  0  0  0  0  0  0  0  0  0  0
   50.4101   34.0959   42.1646 H   0  0  0  0  0  0  0  0  0  0  0  0
   38.7773   30.1838   38.8770 H   0  0  0  0  0  0  0  0  0  0  0  0
   40.8728   30.5732   39.1130 H   0  0  0  0  0  0  0  0  0  0  0  0
   40.8271   29.7677   40.9818 H   0  0  0  0  0  0  0  0  0  0  0  0
   40.9160   30.7158   42.4878 H   0  0  0  0  0  0  0  0  0  0  0  0
   38.6127   30.8682   42.6816 H   0  0  0  0  0  0  0  0  0  0  0  0
   37.1953   30.6507   40.5405 H   0  0  0  0  0  0  0  0  0  0  0  0
   37.7993   32.8295   39.0908 H   0  0  0  0  0  0  0  0  0  0  0  0
   38.5278   28.8256   42.7552 H   0  0  0  0  0  0  0  0  0  0  0  0
   37.8950   32.5409   42.0650 H   0  0  0  0  0  0  0  0  0  0  0  0
  1  6  1  0
  1  2  1  0
  2  3  1  0
  2  9  1  0
  4  3  1  0
  5  6  1  0
  5  4  1  0
  7  1  1  0
  8  5  1  0
  9 10  1  0
 10 15  1  0
 11 10  2  0
 11 12  1  0
 12 13  2  0
 13 14  1  0
 15 14  2  0
 16 17  1  0
 16 12  1  0
 16 18  1  0
 17 18  1  0
 19  6  1  0
 20 26  1  0
 20 21  1  0
 20 25  1  0
 21 19  1  0
 21 22  1  0
 22 23  1  0
 23 24  1  0
 24 27  1  0
 25 28  1  0
 25 24  1  0
  1 29  1  6
  2 30  1  6
  4 31  1  0
  4 32  1  0
  5 33  1  1
  6 34  1  1
  7 35  1  0
  8 36  1  0
 11 37  1  0
 14 38  1  0
 16 39  1  0
 17 40  1  0
 17 41  1  0
 18 42  1  0
 18 43  1  0
 20 44  1  6
 21 45  1  6
 23 46  1  0
 23 47  1  0
 24 48  1  1
 25 49  1  6
 26 50  1  0
 27 51  1  0
 28 52  1  0
M  ISO  8  29  13  30  13  31  13  32  13  33  13  34  13  35   3  36   3
M  ISO  8  37  14  38  14  39  13  40  13  41  13  42  13  43  13  44  13
M  ISO  8  45  13  46  13  47  13  48  13  49  13  50   3  51   3  52   3
M  END
>  <minimizedAffinity>  (1) 
-7.04650259

>  <minimizedRMSD>  (1) 
1.67753589

$$$$
