
     RDKit          3D

 48 51  0  0  1  0  0  0  0  0999 V2000
   46.2000   34.0000   40.7250 C   0  0  0  0  0  0  0  0  0  0  0  0
   44.9760   33.3730   40.7160 C   0  0  0  0  0  0  0  0  0  0  0  0
   44.8800   32.7960   39.4870 N   0  0  0  0  0  0  0  0  0  0  0  0
   45.9980   33.0690   38.7950 C   0  0  0  0  0  0  0  0  0  0  0  0
   46.8210   33.8150   39.5590 N   0  0  0  0  0  0  0  0  0  0  0  0
   46.3720   32.6850   37.4900 N   0  0  0  0  0  0  0  0  0  0  0  0
   43.7910   32.0220   38.9570 C   0  0  0  0  0  0  0  0  0  0  0  0
   41.3810   32.0700   38.2910 C   0  0  1  0  0  0  0  0  0  0  0  0
   42.6740   32.7870   38.3480 C   0  0  1  0  0  0  0  0  0  0  0  0
   42.4880   33.9110   39.1860 O   0  0  0  0  0  0  0  0  0  0  0  0
   41.7900   34.8280   38.4160 C   0  0  0  0  0  0  0  0  0  0  0  0
   40.3720   34.3750   38.2940 C   0  0  2  0  0  0  0  0  0  0  0  0
   40.1980   32.9240   37.9540 C   0  0  2  0  0  0  0  0  0  0  0  0
   41.4460   31.0350   37.3520 O   0  0  0  0  0  0  0  0  0  0  0  0
   39.7940   35.1830   37.2870 O   0  0  0  0  0  0  0  0  0  0  0  0
   39.0680   32.4570   38.6390 O   0  0  0  0  0  0  0  0  0  0  0  0
   46.7990   34.7890   41.8560 C   0  0  0  0  0  0  0  0  0  0  0  0
   47.9460   35.3200   41.8360 O   0  0  0  0  0  0  0  0  0  0  0  0
   45.3790   36.1830   43.2760 C   0  0  0  0  0  0  0  0  0  0  0  0
   46.0620   34.9790   43.0510 C   0  0  0  0  0  0  0  0  0  0  0  0
   45.9410   34.0520   44.0760 C   0  0  0  0  0  0  0  0  0  0  0  0
   45.2380   34.2700   45.1850 N   0  0  0  0  0  0  0  0  0  0  0  0
   44.5910   35.4660   45.3490 C   0  0  0  0  0  0  0  0  0  0  0  0
   44.6700   36.4010   44.3970 N   0  0  0  0  0  0  0  0  0  0  0  0
   46.6080   32.7990   43.9280 C   0  0  0  0  0  0  0  0  0  0  0  0
   47.9020   32.4070   43.8310 C   0  0  0  0  0  0  0  0  0  0  0  0
   48.2580   31.1510   43.7000 C   0  0  0  0  0  0  0  0  0  0  0  0
   47.2410   30.2500   43.6650 C   0  0  0  0  0  0  0  0  0  0  0  0
   45.7240   31.2490   43.8280 S   0  0  0  0  0  0  0  0  0  0  0  0
   44.2341   33.3440   41.5276 H   0  0  0  0  0  0  0  0  0  0  0  0
   47.2791   32.9847   37.1050 H   0  0  0  0  0  0  0  0  0  0  0  0
   45.7379   32.1050   36.9222 H   0  0  0  0  0  0  0  0  0  0  0  0
   44.1997   31.3540   38.1845 H   0  0  0  0  0  0  0  0  0  0  0  0
   43.3528   31.5027   39.8220 H   0  0  0  0  0  0  0  0  0  0  0  0
   41.2257   31.6945   39.3132 H   0  0  0  0  0  0  0  0  0  0  0  0
   42.9474   33.0087   37.3059 H   0  0  0  0  0  0  0  0  0  0  0  0
   41.8221   35.8161   38.8984 H   0  0  0  0  0  0  0  0  0  0  0  0
   42.2459   34.9010   37.4176 H   0  0  0  0  0  0  0  0  0  0  0  0
   39.8856   34.4810   39.2749 H   0  0  0  0  0  0  0  0  0  0  0  0
   40.0823   32.8503   36.8626 H   0  0  0  0  0  0  0  0  0  0  0  0
   41.5006   30.1656   37.8224 H   0  0  0  0  0  0  0  0  0  0  0  0
   39.2726   35.9119   37.7076 H   0  0  0  0  0  0  0  0  0  0  0  0
   39.2235   32.5213   39.6146 H   0  0  0  0  0  0  0  0  0  0  0  0
   45.4249   36.9730   42.5119 H   0  0  0  0  0  0  0  0  0  0  0  0
   44.0078   35.6567   46.2620 H   0  0  0  0  0  0  0  0  0  0  0  0
   48.6881   33.1757   43.8635 H   0  0  0  0  0  0  0  0  0  0  0  0
   49.3123   30.8466   43.6234 H   0  0  0  0  0  0  0  0  0  0  0  0
   47.3164   29.1575   43.5611 H   0  0  0  0  0  0  0  0  0  0  0  0
  1 17  1  0
  2  1  2  0
  3  2  1  0
  4  3  1  0
  4  5  2  0
  5  1  1  0
  6  4  1  0
  7  3  1  0
  8 14  1  0
  8  9  1  0
  9  7  1  0
  9 10  1  0
 11 10  1  0
 12 15  1  0
 12 11  1  0
 13  8  1  0
 13 12  1  0
 13 16  1  0
 17 20  1  0
 18 17  2  0
 19 24  2  0
 20 19  1  0
 20 21  2  0
 21 22  1  0
 22 23  2  0
 24 23  1  0
 25 21  1  0
 26 25  2  0
 27 26  1  0
 28 27  2  0
 28 29  1  0
 29 25  1  0
  2 30  1  0
  6 31  1  0
  6 32  1  0
  7 33  1  0
  7 34  1  0
  8 35  1  1
  9 36  1  6
 11 37  1  0
 11 38  1  0
 12 39  1  1
 13 40  1  6
 14 41  1  0
 15 42  1  0
 16 43  1  0
 19 44  1  0
 23 45  1  0
 26 46  1  0
 27 47  1  0
 28 48  1  0
M  ISO  8  30  14  33   8  34   8  35  13  36  13  37  13  38  13  39  13
M  ISO  8  40  13  41   3  42   3  43   3  44  14  45  14  46  14  47  14
M  ISO  1  48  14
M  END
>  <minimizedAffinity>  (1) 
-5.65617371

>  <minimizedRMSD>  (1) 
1.34510577

$$$$
