
     RDKit          3D

 53 56  0  0  1  0  0  0  0  0999 V2000
   46.0820   35.2530   42.1740 C   0  0  0  0  0  0  0  0  0  0  0  0
   46.0900   33.4560   39.9250 F   0  0  0  0  0  0  0  0  0  0  0  0
   44.9650   34.0560   40.2960 C   0  0  0  0  0  0  0  0  0  0  0  0
   44.8920   34.9260   41.3710 C   0  0  0  0  0  0  0  0  0  0  0  0
   43.6860   35.4980   41.6990 C   0  0  0  0  0  0  0  0  0  0  0  0
   42.5840   35.1710   40.9290 C   0  0  0  0  0  0  0  0  0  0  0  0
   42.5970   34.3230   39.8630 C   0  0  0  0  0  0  0  0  0  0  0  0
   43.8290   33.7430   39.5320 C   0  0  0  0  0  0  0  0  0  0  0  0
   45.1030   33.0200   37.5210 C   0  0  1  0  0  0  0  0  0  0  0  0
   43.9270   32.8110   38.3860 C   0  0  1  0  0  0  0  0  0  0  0  0
   43.8540   31.4900   38.7950 O   0  0  0  0  0  0  0  0  0  0  0  0
   45.0540   30.8330   38.6760 C   0  0  0  0  0  0  0  0  0  0  0  0
   45.3400   30.5940   37.1910 C   0  0  1  0  0  0  0  0  0  0  0  0
   45.1770   31.9200   36.4830 C   0  0  1  0  0  0  0  0  0  0  0  0
   44.8450   34.1970   36.7690 O   0  0  0  0  0  0  0  0  0  0  0  0
   46.6320   30.0940   37.0060 O   0  0  0  0  0  0  0  0  0  0  0  0
   44.0090   31.8530   35.7270 O   0  0  0  0  0  0  0  0  0  0  0  0
   46.1720   34.4620   43.4280 C   0  0  0  0  0  0  0  0  0  0  0  0
   47.1160   33.4490   43.4750 C   0  0  0  0  0  0  0  0  0  0  0  0
   47.2010   32.7190   44.6780 C   0  0  0  0  0  0  0  0  0  0  0  0
   46.3760   33.0340   45.7070 N   0  0  0  0  0  0  0  0  0  0  0  0
   45.4800   34.0270   45.6050 C   0  0  0  0  0  0  0  0  0  0  0  0
   45.3890   34.7190   44.4840 N   0  0  0  0  0  0  0  0  0  0  0  0
   49.2070   34.0200   42.2400 C   0  0  2  0  0  0  0  0  0  0  0  0
   47.9810   33.0650   42.3250 C   0  0  1  0  0  0  0  0  0  0  0  0
   48.4150   31.7980   42.3050 O   0  0  0  0  0  0  0  0  0  0  0  0
   49.7680   31.7450   42.5160 C   0  0  0  0  0  0  0  0  0  0  0  0
   50.2830   32.9800   41.8400 C   0  0  1  0  0  0  0  0  0  0  0  0
   49.5370   34.6280   43.3800 O   0  0  0  0  0  0  0  0  0  0  0  0
   50.2610   32.7380   40.4820 O   0  0  0  0  0  0  0  0  0  0  0  0
   46.0459   36.3209   42.4352 H   0  0  0  0  0  0  0  0  0  0  0  0
   46.9659   35.0081   41.5667 H   0  0  0  0  0  0  0  0  0  0  0  0
   43.5997   36.1936   42.5467 H   0  0  0  0  0  0  0  0  0  0  0  0
   41.6222   35.6318   41.1987 H   0  0  0  0  0  0  0  0  0  0  0  0
   41.6842   34.1040   39.2895 H   0  0  0  0  0  0  0  0  0  0  0  0
   46.0139   33.0587   38.1364 H   0  0  0  0  0  0  0  0  0  0  0  0
   43.0516   33.0466   37.7629 H   0  0  0  0  0  0  0  0  0  0  0  0
   45.8561   31.4459   39.1131 H   0  0  0  0  0  0  0  0  0  0  0  0
   45.0079   29.8710   39.2075 H   0  0  0  0  0  0  0  0  0  0  0  0
   44.6434   29.8470   36.7825 H   0  0  0  0  0  0  0  0  0  0  0  0
   46.0259   32.1363   35.8177 H   0  0  0  0  0  0  0  0  0  0  0  0
   44.6792   34.9532   37.3861 H   0  0  0  0  0  0  0  0  0  0  0  0
   47.0523   29.9314   37.8875 H   0  0  0  0  0  0  0  0  0  0  0  0
   43.2265   31.8081   36.3318 H   0  0  0  0  0  0  0  0  0  0  0  0
   47.9298   31.9015   44.7810 H   0  0  0  0  0  0  0  0  0  0  0  0
   44.8220   34.2645   46.4539 H   0  0  0  0  0  0  0  0  0  0  0  0
   49.0476   34.8759   41.5676 H   0  0  0  0  0  0  0  0  0  0  0  0
   47.3202   33.1577   41.4505 H   0  0  0  0  0  0  0  0  0  0  0  0
   49.9980   31.7619   43.5916 H   0  0  0  0  0  0  0  0  0  0  0  0
   50.2242   30.8237   42.1247 H   0  0  0  0  0  0  0  0  0  0  0  0
   51.3022   33.2970   42.1061 H   0  0  0  0  0  0  0  0  0  0  0  0
   49.2380   34.0771   44.1463 H   0  0  0  0  0  0  0  0  0  0  0  0
   50.1726   31.7651   40.3216 H   0  0  0  0  0  0  0  0  0  0  0  0
  1 18  1  0
  2  3  1  0
  3  4  2  0
  4  5  1  0
  4  1  1  0
  6  5  2  0
  7  6  1  0
  8  7  2  0
  8  3  1  0
  9 15  1  0
  9 10  1  0
 10 11  1  0
 10  8  1  0
 12 11  1  0
 13 16  1  0
 13 12  1  0
 14 17  1  0
 14 13  1  0
 14  9  1  0
 18 19  1  0
 18 23  2  0
 19 20  2  0
 20 21  1  0
 22 21  2  0
 23 22  1  0
 24 25  1  0
 24 29  1  0
 25 19  1  0
 26 25  1  0
 26 27  1  0
 28 24  1  0
 28 27  1  0
 30 28  1  0
  1 31  1  0
  1 32  1  0
  5 33  1  0
  6 34  1  0
  7 35  1  0
  9 36  1  1
 10 37  1  6
 12 38  1  0
 12 39  1  0
 13 40  1  6
 14 41  1  6
 15 42  1  0
 16 43  1  0
 17 44  1  0
 20 45  1  0
 22 46  1  0
 24 47  1  6
 25 48  1  6
 27 49  1  0
 27 50  1  0
 28 51  1  1
 29 52  1  0
 30 53  1  0
M  ISO  8  31   8  32   8  33  14  34  14  35  14  36  13  37  13  38  13
M  ISO  8  39  13  40  13  41  13  42   3  43   3  44   3  45  14  46  14
M  ISO  7  47  13  48  13  49  13  50  13  51  13  52   3  53   3
M  END
>  <minimizedAffinity>  (1) 
-6.9513278

>  <minimizedRMSD>  (1) 
0.520544648

$$$$
