
     RDKit          3D

 59 62  0  0  1  0  0  0  0  0999 V2000
   50.3400   31.2110   42.7570 C   0  0  0  0  0  0  0  0  0  0  0  0
   51.4050   31.0340   41.9640 N   0  0  0  0  0  0  0  0  0  0  0  0
   51.9780   29.8350   42.2490 C   0  0  0  0  0  0  0  0  0  0  0  0
   51.2440   29.2810   43.2340 N   0  0  0  0  0  0  0  0  0  0  0  0
   50.2450   30.1050   43.5540 N   0  0  0  0  0  0  0  0  0  0  0  0
   47.6610   33.7300   42.8520 C   0  0  0  0  0  0  0  0  0  0  0  0
   48.3450   34.8490   42.3030 C   0  0  0  0  0  0  0  0  0  0  0  0
   49.6840   34.7160   41.9170 C   0  0  0  0  0  0  0  0  0  0  0  0
   50.2660   33.4860   42.0970 N   0  0  0  0  0  0  0  0  0  0  0  0
   49.5530   32.4340   42.6370 C   0  0  0  0  0  0  0  0  0  0  0  0
   48.2830   32.5550   43.0040 N   0  0  0  0  0  0  0  0  0  0  0  0
   46.2670   33.9920   43.2260 C   0  0  0  0  0  0  0  0  0  0  0  0
   45.6270   35.0530   42.4900 C   0  0  0  0  0  0  0  0  0  0  0  0
   45.3000   36.2480   43.2840 C   0  0  0  0  0  0  0  0  0  0  0  0
   44.4390   35.8790   44.4980 C   0  0  0  0  0  0  0  0  0  0  0  0
   44.8990   34.6530   45.2180 C   0  0  0  0  0  0  0  0  0  0  0  0
   46.2910   34.2350   44.7730 C   0  0  0  0  0  0  0  0  0  0  0  0
   51.4790   28.0200   43.8870 C   0  0  0  0  0  0  0  0  0  0  0  0
   51.7980   28.2440   45.2960 C   0  0  0  0  0  0  0  0  0  0  0  0
   51.0940   28.2050   46.4220 C   0  0  0  0  0  0  0  0  0  0  0  0
   51.6490   28.3860   47.8480 C   0  0  0  0  0  0  0  0  0  0  0  0
   52.2770   29.9160   49.6120 C   0  0  1  0  0  0  0  0  0  0  0  0
   51.4940   29.7980   48.3150 C   0  0  2  0  0  0  0  0  0  0  0  0
   50.2060   30.2580   48.3970 O   0  0  0  0  0  0  0  0  0  0  0  0
   49.4550   29.7660   49.4360 C   0  0  0  0  0  0  0  0  0  0  0  0
   50.0810   29.9620   50.7980 C   0  0  1  0  0  0  0  0  0  0  0  0
   51.4700   29.3690   50.7850 C   0  0  2  0  0  0  0  0  0  0  0  0
   53.3990   29.0740   49.5200 O   0  0  0  0  0  0  0  0  0  0  0  0
   50.1750   31.3040   51.1370 O   0  0  0  0  0  0  0  0  0  0  0  0
   52.1310   29.7200   51.9420 O   0  0  0  0  0  0  0  0  0  0  0  0
   52.8677   29.4013   41.7691 H   0  0  0  0  0  0  0  0  0  0  0  0
   47.8262   35.8115   42.1825 H   0  0  0  0  0  0  0  0  0  0  0  0
   50.2448   35.5597   41.4885 H   0  0  0  0  0  0  0  0  0  0  0  0
   45.6370   33.1311   42.9577 H   0  0  0  0  0  0  0  0  0  0  0  0
   46.3000   35.3578   41.6751 H   0  0  0  0  0  0  0  0  0  0  0  0
   44.6685   34.6471   42.1343 H   0  0  0  0  0  0  0  0  0  0  0  0
   46.2328   36.7152   43.6326 H   0  0  0  0  0  0  0  0  0  0  0  0
   44.7338   36.9469   42.6507 H   0  0  0  0  0  0  0  0  0  0  0  0
   44.4569   36.7222   45.2041 H   0  0  0  0  0  0  0  0  0  0  0  0
   43.4285   35.6659   44.1191 H   0  0  0  0  0  0  0  0  0  0  0  0
   44.9157   34.8582   46.2986 H   0  0  0  0  0  0  0  0  0  0  0  0
   44.2020   33.8343   44.9856 H   0  0  0  0  0  0  0  0  0  0  0  0
   46.5830   33.3087   45.2895 H   0  0  0  0  0  0  0  0  0  0  0  0
   47.0176   35.0233   45.0191 H   0  0  0  0  0  0  0  0  0  0  0  0
   50.5763   27.3959   43.8117 H   0  0  0  0  0  0  0  0  0  0  0  0
   52.3235   27.5105   43.3999 H   0  0  0  0  0  0  0  0  0  0  0  0
   52.8547   28.5019   45.4602 H   0  0  0  0  0  0  0  0  0  0  0  0
   50.0127   28.0266   46.3274 H   0  0  0  0  0  0  0  0  0  0  0  0
   51.1030   27.7200   48.5324 H   0  0  0  0  0  0  0  0  0  0  0  0
   52.7208   28.1388   47.8379 H   0  0  0  0  0  0  0  0  0  0  0  0
   52.5291   30.9757   49.7654 H   0  0  0  0  0  0  0  0  0  0  0  0
   51.9029   30.4741   47.5497 H   0  0  0  0  0  0  0  0  0  0  0  0
   48.4795   30.2743   49.4279 H   0  0  0  0  0  0  0  0  0  0  0  0
   49.3702   28.6805   49.2795 H   0  0  0  0  0  0  0  0  0  0  0  0
   49.4404   29.4648   51.5412 H   0  0  0  0  0  0  0  0  0  0  0  0
   51.3732   28.2766   50.6990 H   0  0  0  0  0  0  0  0  0  0  0  0
   53.7112   28.8397   50.4298 H   0  0  0  0  0  0  0  0  0  0  0  0
   50.1814   31.3957   52.1227 H   0  0  0  0  0  0  0  0  0  0  0  0
   51.5971   29.4365   52.7260 H   0  0  0  0  0  0  0  0  0  0  0  0
  1  5  2  0
  2  3  2  0
  2  1  1  0
  3  4  1  0
  4  5  1  0
  4 18  1  0
  6 11  1  0
  6 12  1  0
  7  6  2  0
  8  9  2  0
  8  7  1  0
  9 10  1  0
 10  1  1  0
 10 11  2  0
 12 17  1  0
 13 12  1  0
 13 14  1  0
 14 15  1  0
 15 16  1  0
 17 16  1  0
 18 19  1  0
 19 20  2  0
 20 21  1  0
 22 28  1  0
 22 27  1  0
 23 21  1  0
 23 24  1  0
 23 22  1  0
 24 25  1  0
 25 26  1  0
 26 29  1  0
 27 26  1  0
 27 30  1  0
  3 31  1  0
  7 32  1  0
  8 33  1  0
 12 34  1  0
 13 35  1  0
 13 36  1  0
 14 37  1  0
 14 38  1  0
 15 39  1  0
 15 40  1  0
 16 41  1  0
 16 42  1  0
 17 43  1  0
 17 44  1  0
 18 45  1  0
 18 46  1  0
 19 47  1  0
 20 48  1  0
 21 49  1  0
 21 50  1  0
 22 51  1  1
 23 52  1  6
 25 53  1  0
 25 54  1  0
 26 55  1  1
 27 56  1  6
 28 57  1  0
 29 58  1  0
 30 59  1  0
M  ISO  8  31  14  32  14  33  14  34  13  35  13  36  13  37  13  38  13
M  ISO  8  39  13  40  13  41  13  42  13  43  13  44  13  45   8  46   8
M  ISO  8  49   8  50   8  51  13  52  13  53  13  54  13  55  13  56  13
M  ISO  3  57   3  58   3  59   3
M  END
>  <minimizedAffinity>  (1) 
-5.06891727

>  <minimizedRMSD>  (1) 
3.91653061

$$$$
