
     RDKit          3D

 54 57  0  0  1  0  0  0  0  0999 V2000
   47.3350   32.6340   44.2240 C   0  0  0  0  0  0  0  0  0  0  0  0
   48.1670   33.0640   43.2950 C   0  0  0  0  0  0  0  0  0  0  0  0
   48.9860   32.0880   42.7490 C   0  0  0  0  0  0  0  0  0  0  0  0
   48.8430   30.7680   43.2390 N   0  0  0  0  0  0  0  0  0  0  0  0
   47.9930   30.4180   44.1680 C   0  0  0  0  0  0  0  0  0  0  0  0
   47.1650   31.3800   44.7250 N   0  0  0  0  0  0  0  0  0  0  0  0
   48.3980   34.4270   42.8800 C   0  0  1  0  0  0  0  0  0  0  0  0
   49.3280   34.8620   41.9990 C   0  0  0  0  0  0  0  0  0  0  0  0
   47.9740   34.7360   41.3660 C   0  0  1  0  0  0  0  0  0  0  0  0
   47.7250   33.5970   40.5650 N   0  0  0  0  0  0  0  0  0  0  0  0
   46.6830   32.8690   38.4380 C   0  0  1  0  0  0  0  0  0  0  0  0
   47.3040   33.9620   39.2370 C   0  0  2  0  0  0  0  0  0  0  0  0
   48.3560   34.5470   38.5610 O   0  0  0  0  0  0  0  0  0  0  0  0
   48.2820   34.5410   37.2000 C   0  0  0  0  0  0  0  0  0  0  0  0
   48.5150   33.1180   36.7330 C   0  0  2  0  0  0  0  0  0  0  0  0
   47.5630   32.1890   37.4470 C   0  0  1  0  0  0  0  0  0  0  0  0
   46.1000   31.8590   39.2280 O   0  0  0  0  0  0  0  0  0  0  0  0
   49.8150   32.7200   37.0310 O   0  0  0  0  0  0  0  0  0  0  0  0
   48.2030   31.0780   37.9820 O   0  0  0  0  0  0  0  0  0  0  0  0
   46.3040   33.4590   44.9140 C   0  0  0  0  0  0  0  0  0  0  0  0
   45.7380   33.9120   45.8630 O   0  0  0  0  0  0  0  0  0  0  0  0
   44.5090   31.7210   43.0820 Cl  0  0  0  0  0  0  0  0  0  0  0  0
   44.6080   33.4670   42.9350 C   0  0  0  0  0  0  0  0  0  0  0  0
   45.4620   34.1310   43.8510 C   0  0  0  0  0  0  0  0  0  0  0  0
   45.4400   35.4840   43.6330 C   0  0  0  0  0  0  0  0  0  0  0  0
   44.7810   36.2120   42.7490 C   0  0  0  0  0  0  0  0  0  0  0  0
   43.9660   35.5050   41.8850 C   0  0  0  0  0  0  0  0  0  0  0  0
   43.8740   34.1580   41.9690 C   0  0  0  0  0  0  0  0  0  0  0  0
   43.0340   33.5690   41.0590 O   0  0  0  0  0  0  0  0  0  0  0  0
   40.8120   32.9810   39.7990 O   0  0  0  0  0  0  0  0  0  0  0  0
   41.3760   33.2450   41.1700 P   0  0  0  0  0  0  0  0  0  0  0  0
   41.1430   31.9130   42.1960 O   0  0  0  0  0  0  0  0  0  0  0  0
   40.5360   34.5330   41.8940 O   0  0  0  0  0  0  0  0  0  0  0  0
   49.7188   32.3301   41.9651 H   0  0  0  0  0  0  0  0  0  0  0  0
   47.9353   29.3722   44.5040 H   0  0  0  0  0  0  0  0  0  0  0  0
   48.1919   34.7643   43.9065 H   0  0  0  0  0  0  0  0  0  0  0  0
   49.7532   35.8672   42.1362 H   0  0  0  0  0  0  0  0  0  0  0  0
   50.3061   34.4490   41.7114 H   0  0  0  0  0  0  0  0  0  0  0  0
   47.2787   35.3772   40.8044 H   0  0  0  0  0  0  0  0  0  0  0  0
   48.5885   33.0393   40.5000 H   0  0  0  0  0  0  0  0  0  0  0  0
   45.9199   33.4342   37.8828 H   0  0  0  0  0  0  0  0  0  0  0  0
   46.4859   34.6852   39.3704 H   0  0  0  0  0  0  0  0  0  0  0  0
   47.2877   34.8833   36.8772 H   0  0  0  0  0  0  0  0  0  0  0  0
   49.0362   35.2164   36.7698 H   0  0  0  0  0  0  0  0  0  0  0  0
   48.3515   33.0770   35.6460 H   0  0  0  0  0  0  0  0  0  0  0  0
   46.8843   31.8199   36.6640 H   0  0  0  0  0  0  0  0  0  0  0  0
   46.2251   32.0758   40.1858 H   0  0  0  0  0  0  0  0  0  0  0  0
   49.9321   32.6841   38.0134 H   0  0  0  0  0  0  0  0  0  0  0  0
   48.1756   31.1256   38.9705 H   0  0  0  0  0  0  0  0  0  0  0  0
   46.0823   36.0644   44.3117 H   0  0  0  0  0  0  0  0  0  0  0  0
   44.8746   37.3071   42.7037 H   0  0  0  0  0  0  0  0  0  0  0  0
   43.3860   36.0434   41.1210 H   0  0  0  0  0  0  0  0  0  0  0  0
   41.1949   32.2098   43.1390 H   0  0  0  0  0  0  0  0  0  0  0  0
   40.5901   34.4500   42.8790 H   0  0  0  0  0  0  0  0  0  0  0  0
  1  6  1  0
  1 20  1  0
  2  1  2  0
  3  4  2  0
  3  2  1  0
  4  5  1  0
  5  6  2  0
  7  2  1  0
  8  7  1  0
  9  8  1  0
  9  7  1  0
 10  9  1  0
 11 17  1  0
 11 12  1  0
 12 10  1  0
 13 12  1  0
 14 13  1  0
 15 18  1  0
 15 14  1  0
 15 16  1  0
 16 19  1  0
 16 11  1  0
 20 21  2  0
 23 22  1  0
 23 24  2  0
 24 20  1  0
 25 24  1  0
 26 25  2  0
 27 28  2  0
 27 26  1  0
 28 23  1  0
 29 31  1  0
 29 28  1  0
 30 31  2  0
 31 33  1  0
 31 32  1  0
  3 34  1  0
  5 35  1  0
  7 36  1  1
  8 37  1  0
  8 38  1  0
  9 39  1  1
 10 40  1  0
 11 41  1  6
 12 42  1  1
 14 43  1  0
 14 44  1  0
 15 45  1  6
 16 46  1  6
 17 47  1  0
 18 48  1  0
 19 49  1  0
 25 50  1  0
 26 51  1  0
 27 52  1  0
 32 53  1  0
 33 54  1  0
M  ISO  8  34  14  35  14  36  13  37  13  38  13  39  13  40   5  41  13
M  ISO  8  42  13  43  13  44  13  45  13  46  13  47   3  48   3  49   3
M  ISO  5  50  14  51  14  52  14  53   3  54   3
M  END
>  <minimizedAffinity>  (1) 
-6.56725597

>  <minimizedRMSD>  (1) 
0.818473697

$$$$
