
     RDKit          3D

 37 39  0  0  1  0  0  0  0  0999 V2000
   44.4590   35.7430   44.8910 C   0  0  0  0  0  0  0  0  0  0  0  0
   45.0730   35.6860   43.6100 C   0  0  0  0  0  0  0  0  0  0  0  0
   46.0270   34.6810   43.4140 C   0  0  0  0  0  0  0  0  0  0  0  0
   46.2990   33.8400   44.4470 N   0  0  0  0  0  0  0  0  0  0  0  0
   45.7020   33.9250   45.6340 C   0  0  0  0  0  0  0  0  0  0  0  0
   44.7690   34.8820   45.8760 N   0  0  0  0  0  0  0  0  0  0  0  0
   46.6500   34.6080   42.1440 N   0  0  0  0  0  0  0  0  0  0  0  0
   47.8720   35.1400   42.0020 C   0  0  0  0  0  0  0  0  0  0  0  0
   48.4910   35.0710   40.7540 C   0  0  0  0  0  0  0  0  0  0  0  0
   47.8090   34.4550   39.7250 C   0  0  0  0  0  0  0  0  0  0  0  0
   48.3840   34.3990   38.5910 O   0  0  0  0  0  0  0  0  0  0  0  0
   46.5780   33.9150   39.8530 N   0  0  0  0  0  0  0  0  0  0  0  0
   46.0460   34.0200   41.0870 C   0  0  0  0  0  0  0  0  0  0  0  0
   44.9120   33.5540   41.3110 O   0  0  0  0  0  0  0  0  0  0  0  0
   45.3230   31.6530   46.5530 C   0  0  2  0  0  0  0  0  0  0  0  0
   46.0380   32.9850   46.7160 C   0  0  1  0  0  0  0  0  0  0  0  0
   47.3970   32.6740   46.7950 O   0  0  0  0  0  0  0  0  0  0  0  0
   47.6800   32.3020   48.1280 C   0  0  0  0  0  0  0  0  0  0  0  0
   46.5320   31.5590   48.7550 C   0  0  1  0  0  0  0  0  0  0  0  0
   45.7780   30.7880   47.6940 C   0  0  1  0  0  0  0  0  0  0  0  0
   45.6230   31.0510   45.3330 O   0  0  0  0  0  0  0  0  0  0  0  0
   47.0640   30.5960   49.6420 O   0  0  0  0  0  0  0  0  0  0  0  0
   44.7520   30.0450   48.2470 O   0  0  0  0  0  0  0  0  0  0  0  0
   43.7035   36.5191   45.0831 H   0  0  0  0  0  0  0  0  0  0  0  0
   44.8112   36.3967   42.8123 H   0  0  0  0  0  0  0  0  0  0  0  0
   48.3766   35.6214   42.8527 H   0  0  0  0  0  0  0  0  0  0  0  0
   49.4934   35.4952   40.5949 H   0  0  0  0  0  0  0  0  0  0  0  0
   46.0856   33.4598   39.0712 H   0  0  0  0  0  0  0  0  0  0  0  0
   44.2327   31.7985   46.5630 H   0  0  0  0  0  0  0  0  0  0  0  0
   45.7202   33.5173   47.6247 H   0  0  0  0  0  0  0  0  0  0  0  0
   48.5699   31.6554   48.1362 H   0  0  0  0  0  0  0  0  0  0  0  0
   47.8531   33.2191   48.7101 H   0  0  0  0  0  0  0  0  0  0  0  0
   45.8708   32.2780   49.2608 H   0  0  0  0  0  0  0  0  0  0  0  0
   46.4887   30.0758   47.2495 H   0  0  0  0  0  0  0  0  0  0  0  0
   46.0586   30.1768   45.4947 H   0  0  0  0  0  0  0  0  0  0  0  0
   46.9049   30.8839   50.5758 H   0  0  0  0  0  0  0  0  0  0  0  0
   44.8095   30.0866   49.2345 H   0  0  0  0  0  0  0  0  0  0  0  0
  1  6  2  0
  2  1  1  0
  3  2  2  0
  3  4  1  0
  4  5  2  0
  5  6  1  0
  7  3  1  0
  8  7  1  0
  9  8  2  0
 10 12  1  0
 10  9  1  0
 11 10  2  0
 12 13  1  0
 13 14  2  0
 13  7  1  0
 15 21  1  0
 15 16  1  0
 15 20  1  0
 16  5  1  0
 16 17  1  0
 17 18  1  0
 18 19  1  0
 19 22  1  0
 20 23  1  0
 20 19  1  0
  1 24  1  0
  2 25  1  0
  8 26  1  0
  9 27  1  0
 12 28  1  0
 15 29  1  1
 16 30  1  1
 18 31  1  0
 18 32  1  0
 19 33  1  1
 20 34  1  6
 21 35  1  0
 22 36  1  0
 23 37  1  0
M  ISO  8  24  14  25  14  26  14  27  14  28   9  29  13  30  13  31  13
M  ISO  6  32  13  33  13  34  13  35   3  36   3  37   3
M  END
>  <minimizedAffinity>  (1) 
-7.05666065

>  <minimizedRMSD>  (1) 
0.656074107

$$$$
