
     RDKit          3D

 44 47  0  0  1  0  0  0  0  0999 V2000
   45.7780   33.6270   42.9320 C   0  0  0  0  0  0  0  0  0  0  0  0
   47.0540   33.1170   42.4940 C   0  0  0  0  0  0  0  0  0  0  0  0
   47.8850   32.6000   43.4540 C   0  0  0  0  0  0  0  0  0  0  0  0
   47.4810   32.5910   44.7470 N   0  0  0  0  0  0  0  0  0  0  0  0
   46.2750   33.0780   45.1300 C   0  0  0  0  0  0  0  0  0  0  0  0
   45.4390   33.5900   44.2100 N   0  0  0  0  0  0  0  0  0  0  0  0
   47.4570   33.1640   41.0680 C   0  0  1  0  0  0  0  0  0  0  0  0
   46.9200   34.1290   40.1590 C   0  0  0  0  0  0  0  0  0  0  0  0
   48.3050   34.3660   40.6060 C   0  0  1  0  0  0  0  0  0  0  0  0
   48.6880   35.4280   41.5650 C   0  0  0  0  0  0  0  0  0  0  0  0
   49.2920   36.5010   40.9320 F   0  0  0  0  0  0  0  0  0  0  0  0
   49.5470   34.9400   42.5530 F   0  0  0  0  0  0  0  0  0  0  0  0
   47.5350   35.8980   42.1420 F   0  0  0  0  0  0  0  0  0  0  0  0
   45.9180   33.0190   46.5800 C   0  0  2  0  0  0  0  0  0  0  0  0
   47.0560   32.5130   47.4510 C   0  0  0  0  0  0  0  0  0  0  0  0
   45.8170   31.7000   47.2680 C   0  0  2  0  0  0  0  0  0  0  0  0
   46.9880   29.5770   46.6120 C   0  0  1  0  0  0  0  0  0  0  0  0
   45.7590   30.4670   46.4340 C   0  0  1  0  0  0  0  0  0  0  0  0
   44.6520   29.7280   46.9130 O   0  0  0  0  0  0  0  0  0  0  0  0
   44.9740   29.0600   48.1120 C   0  0  0  0  0  0  0  0  0  0  0  0
   45.6420   27.7480   47.6800 C   0  0  2  0  0  0  0  0  0  0  0  0
   46.5080   28.1260   46.4890 C   0  0  1  0  0  0  0  0  0  0  0  0
   47.8960   29.7460   45.5720 O   0  0  0  0  0  0  0  0  0  0  0  0
   44.6270   26.8660   47.3520 O   0  0  0  0  0  0  0  0  0  0  0  0
   45.8250   27.9720   45.2900 O   0  0  0  0  0  0  0  0  0  0  0  0
   45.0795   34.0511   42.1956 H   0  0  0  0  0  0  0  0  0  0  0  0
   48.8701   32.1965   43.1771 H   0  0  0  0  0  0  0  0  0  0  0  0
   47.5320   32.0668   41.0474 H   0  0  0  0  0  0  0  0  0  0  0  0
   46.1213   34.8039   40.5003 H   0  0  0  0  0  0  0  0  0  0  0  0
   46.4523   34.0498   39.1665 H   0  0  0  0  0  0  0  0  0  0  0  0
   49.2673   34.5406   40.1025 H   0  0  0  0  0  0  0  0  0  0  0  0
   45.2416   33.8852   46.5327 H   0  0  0  0  0  0  0  0  0  0  0  0
   48.0013   32.1895   46.9909 H   0  0  0  0  0  0  0  0  0  0  0  0
   47.6135   32.9049   48.3145 H   0  0  0  0  0  0  0  0  0  0  0  0
   45.1330   31.2209   47.9840 H   0  0  0  0  0  0  0  0  0  0  0  0
   47.4612   29.8238   47.5739 H   0  0  0  0  0  0  0  0  0  0  0  0
   45.6956   30.7564   45.3746 H   0  0  0  0  0  0  0  0  0  0  0  0
   45.6673   29.6645   48.7153 H   0  0  0  0  0  0  0  0  0  0  0  0
   44.0836   28.8810   48.7327 H   0  0  0  0  0  0  0  0  0  0  0  0
   46.2640   27.2636   48.4471 H   0  0  0  0  0  0  0  0  0  0  0  0
   47.3737   27.4473   46.4889 H   0  0  0  0  0  0  0  0  0  0  0  0
   48.7975   29.9138   45.9450 H   0  0  0  0  0  0  0  0  0  0  0  0
   44.2180   26.5106   48.1806 H   0  0  0  0  0  0  0  0  0  0  0  0
   44.8764   27.7581   45.4757 H   0  0  0  0  0  0  0  0  0  0  0  0
  1  6  2  0
  2  1  1  0
  2  3  2  0
  3  4  1  0
  4  5  2  0
  5 14  1  0
  6  5  1  0
  7  2  1  0
  8  9  1  0
  8  7  1  0
  9  7  1  0
  9 10  1  0
 10 13  1  0
 10 12  1  0
 11 10  1  0
 14 16  1  0
 14 15  1  0
 16 15  1  0
 17 23  1  0
 18 17  1  0
 18 19  1  0
 18 16  1  0
 19 20  1  0
 21 24  1  0
 21 20  1  0
 22 25  1  0
 22 17  1  0
 22 21  1  0
  1 26  1  0
  3 27  1  0
  7 28  1  6
  8 29  1  0
  8 30  1  0
  9 31  1  6
 14 32  1  1
 15 33  1  0
 15 34  1  0
 16 35  1  1
 17 36  1  1
 18 37  1  6
 20 38  1  0
 20 39  1  0
 21 40  1  1
 22 41  1  6
 23 42  1  0
 24 43  1  0
 25 44  1  0
M  ISO  8  26  14  27  14  28  13  29  13  30  13  31  13  32  13  33  13
M  ISO  8  34  13  35  13  36  13  37  13  38  13  39  13  40  13  41  13
M  ISO  3  42   3  43   3  44   3
M  END
>  <minimizedAffinity>  (1) 
-5.78660583

>  <minimizedRMSD>  (1) 
0.826230943

$$$$
