
     RDKit          3D

 58 62  0  0  1  0  0  0  0  0999 V2000
   47.2280   31.6900   48.2400 C   0  0  1  0  0  0  0  0  0  0  0  0
   46.6980   30.8240   49.3320 C   0  0  0  0  0  0  0  0  0  0  0  0
   48.1160   31.1760   49.3010 C   0  0  1  0  0  0  0  0  0  0  0  0
   49.1640   30.1820   48.9140 C   0  0  2  0  0  0  0  0  0  0  0  0
   49.8540   29.5160   50.1310 C   0  0  0  0  0  0  0  0  0  0  0  0
   50.6040   30.4450   49.2760 C   0  0  2  0  0  0  0  0  0  0  0  0
   52.6060   31.6640   49.8540 C   0  0  2  0  0  0  0  0  0  0  0  0
   51.0740   31.7590   49.7680 C   0  0  2  0  0  0  0  0  0  0  0  0
   50.6810   32.0830   51.0650 O   0  0  0  0  0  0  0  0  0  0  0  0
   51.5210   32.9370   51.7270 C   0  0  0  0  0  0  0  0  0  0  0  0
   52.2770   33.8690   50.8050 C   0  0  1  0  0  0  0  0  0  0  0  0
   53.1370   33.0750   49.8410 C   0  0  1  0  0  0  0  0  0  0  0  0
   53.1230   30.9580   48.7680 O   0  0  0  0  0  0  0  0  0  0  0  0
   51.4350   34.7570   50.1560 O   0  0  0  0  0  0  0  0  0  0  0  0
   54.4860   33.0910   50.1810 O   0  0  0  0  0  0  0  0  0  0  0  0
   47.2350   31.0760   46.8860 C   0  0  0  0  0  0  0  0  0  0  0  0
   46.1310   33.0300   46.1600 C   0  0  0  0  0  0  0  0  0  0  0  0
   46.9430   32.1170   45.8280 C   0  0  0  0  0  0  0  0  0  0  0  0
   44.5560   35.8730   44.4190 C   0  0  0  0  0  0  0  0  0  0  0  0
   45.1870   35.8670   43.1790 C   0  0  0  0  0  0  0  0  0  0  0  0
   46.1200   34.8980   42.9810 C   0  0  0  0  0  0  0  0  0  0  0  0
   46.4010   33.9960   43.9640 N   0  0  0  0  0  0  0  0  0  0  0  0
   45.7660   34.0340   45.1570 C   0  0  0  0  0  0  0  0  0  0  0  0
   44.8600   34.9750   45.3510 N   0  0  0  0  0  0  0  0  0  0  0  0
   46.8590   34.7670   41.7330 C   0  0  0  0  0  0  0  0  0  0  0  0
   48.0580   35.3580   41.4690 C   0  0  0  0  0  0  0  0  0  0  0  0
   48.7450   35.2210   40.2780 C   0  0  0  0  0  0  0  0  0  0  0  0
   48.2150   34.4460   39.2710 C   0  0  0  0  0  0  0  0  0  0  0  0
   47.0110   33.8250   39.4760 C   0  0  0  0  0  0  0  0  0  0  0  0
   46.3670   33.9960   40.6860 C   0  0  0  0  0  0  0  0  0  0  0  0
   47.0400   32.6954   47.8351 H   0  0  0  0  0  0  0  0  0  0  0  0
   46.0417   31.2521   50.1040 H   0  0  0  0  0  0  0  0  0  0  0  0
   46.1309   29.8823   49.3722 H   0  0  0  0  0  0  0  0  0  0  0  0
   48.7963   31.6112   50.0479 H   0  0  0  0  0  0  0  0  0  0  0  0
   48.6574   29.8855   47.9837 H   0  0  0  0  0  0  0  0  0  0  0  0
   49.5740   29.8124   51.1526 H   0  0  0  0  0  0  0  0  0  0  0  0
   50.0011   28.4806   50.4722 H   0  0  0  0  0  0  0  0  0  0  0  0
   51.5506   30.3782   48.7197 H   0  0  0  0  0  0  0  0  0  0  0  0
   52.9029   31.1307   50.7691 H   0  0  0  0  0  0  0  0  0  0  0  0
   50.6578   32.5113   49.0818 H   0  0  0  0  0  0  0  0  0  0  0  0
   50.9237   33.5438   52.4235 H   0  0  0  0  0  0  0  0  0  0  0  0
   52.2671   32.3199   52.2490 H   0  0  0  0  0  0  0  0  0  0  0  0
   52.9476   34.4876   51.4195 H   0  0  0  0  0  0  0  0  0  0  0  0
   53.0804   33.5266   48.8396 H   0  0  0  0  0  0  0  0  0  0  0  0
   53.6747   30.2046   49.0967 H   0  0  0  0  0  0  0  0  0  0  0  0
   50.9335   35.2859   50.8260 H   0  0  0  0  0  0  0  0  0  0  0  0
   54.5779   33.0921   51.1667 H   0  0  0  0  0  0  0  0  0  0  0  0
   48.2238   30.6336   46.6947 H   0  0  0  0  0  0  0  0  0  0  0  0
   46.4565   30.3000   46.8444 H   0  0  0  0  0  0  0  0  0  0  0  0
   45.7102   33.0685   47.1756 H   0  0  0  0  0  0  0  0  0  0  0  0
   47.4075   32.0829   44.8315 H   0  0  0  0  0  0  0  0  0  0  0  0
   43.7916   36.6347   44.6321 H   0  0  0  0  0  0  0  0  0  0  0  0
   44.9443   36.6060   42.4012 H   0  0  0  0  0  0  0  0  0  0  0  0
   48.5076   35.9839   42.2539 H   0  0  0  0  0  0  0  0  0  0  0  0
   49.7104   35.7285   40.1351 H   0  0  0  0  0  0  0  0  0  0  0  0
   48.7497   34.3273   38.3170 H   0  0  0  0  0  0  0  0  0  0  0  0
   46.5640   33.1998   38.6890 H   0  0  0  0  0  0  0  0  0  0  0  0
   45.4016   33.4889   40.8306 H   0  0  0  0  0  0  0  0  0  0  0  0
  1  3  1  0
  1  2  1  0
  3  2  1  0
  4  6  1  0
  4  3  1  0
  4  5  1  0
  6  8  1  0
  6  5  1  0
  7 13  1  0
  8  7  1  0
  8  9  1  0
  9 10  1  0
 11 14  1  0
 11 10  1  0
 12  7  1  0
 12 15  1  0
 12 11  1  0
 16  1  1  0
 18 17  2  0
 18 16  1  0
 19 24  2  0
 20 19  1  0
 21 20  2  0
 21 22  1  0
 22 23  2  0
 23 24  1  0
 23 17  1  0
 25 21  1  0
 26 25  2  0
 27 26  1  0
 28 29  1  0
 28 27  2  0
 29 30  2  0
 30 25  1  0
  1 31  1  6
  2 32  1  0
  2 33  1  0
  3 34  1  1
  4 35  1  6
  5 36  1  0
  5 37  1  0
  6 38  1  6
  7 39  1  1
  8 40  1  6
 10 41  1  0
 10 42  1  0
 11 43  1  1
 12 44  1  6
 13 45  1  0
 14 46  1  0
 15 47  1  0
 16 48  1  0
 16 49  1  0
 17 50  1  0
 18 51  1  0
 19 52  1  0
 20 53  1  0
 26 54  1  0
 27 55  1  0
 28 56  1  0
 29 57  1  0
 30 58  1  0
M  ISO  8  31  13  32  13  33  13  34  13  35  13  36  13  37  13  38  13
M  ISO  8  39  13  40  13  41  13  42  13  43  13  44  13  45   3  46   3
M  ISO  8  47   3  48   8  49   8  52  14  53  14  54  14  55  14  56  14
M  ISO  2  57  14  58  14
M  END
>  <minimizedAffinity>  (1) 
-7.23354435

>  <minimizedRMSD>  (1) 
1.61072826

$$$$
