
     RDKit          3D

 51 53  0  0  1  0  0  0  0  0999 V2000
   40.9520   35.1500   41.5810 C   0  0  0  0  0  0  0  0  0  0  0  0
   40.6340   32.7400   41.4860 C   0  0  0  0  0  0  0  0  0  0  0  0
   40.1610   33.9930   41.0570 C   0  0  0  0  0  0  0  0  0  0  0  0
   39.0740   34.0320   40.2540 C   0  0  0  0  0  0  0  0  0  0  0  0
   38.5320   32.8700   39.9310 N   0  0  0  0  0  0  0  0  0  0  0  0
   38.9480   31.6760   40.3170 C   0  0  0  0  0  0  0  0  0  0  0  0
   40.0670   31.5680   41.1470 N   0  0  0  0  0  0  0  0  0  0  0  0
   37.1980   30.0450   40.8310 C   0  0  1  0  0  0  0  0  0  0  0  0
   38.2960   30.3940   39.9220 C   0  0  2  0  0  0  0  0  0  0  0  0
   39.2950   29.4810   39.7370 O   0  0  0  0  0  0  0  0  0  0  0  0
   39.0490   28.1960   40.1260 C   0  0  0  0  0  0  0  0  0  0  0  0
   38.8150   28.3030   41.6400 C   0  0  1  0  0  0  0  0  0  0  0  0
   37.4150   28.8670   41.7350 C   0  0  1  0  0  0  0  0  0  0  0  0
   36.7940   31.1130   41.6640 O   0  0  0  0  0  0  0  0  0  0  0  0
   38.8830   27.0310   42.1520 O   0  0  0  0  0  0  0  0  0  0  0  0
   37.1890   29.1520   43.0830 O   0  0  0  0  0  0  0  0  0  0  0  0
   42.0100   35.4900   40.8020 O   0  0  0  0  0  0  0  0  0  0  0  0
   43.3610   35.4480   41.1230 C   0  0  0  0  0  0  0  0  0  0  0  0
   43.6560   35.5120   42.4180 C   0  0  0  0  0  0  0  0  0  0  0  0
   45.0530   35.4800   43.0100 C   0  0  0  0  0  0  0  0  0  0  0  0
   44.9880   34.7340   44.1710 O   0  0  0  0  0  0  0  0  0  0  0  0
   45.7240   32.5630   42.8180 O   0  0  0  0  0  0  0  0  0  0  0  0
   45.9760   33.3710   44.0720 P   0  0  1  0  0  0  0  0  0  0  0  0
   47.6160   33.8370   44.0400 O   0  0  0  0  0  0  0  0  0  0  0  0
   45.7670   32.4020   45.4360 O   0  0  0  0  0  0  0  0  0  0  0  0
   46.1060   33.0560   46.6040 C   0  0  0  0  0  0  0  0  0  0  0  0
   47.0380   32.3840   47.5650 C   0  0  0  0  0  0  0  0  0  0  0  0
   45.5500   32.4570   47.8720 C   0  0  0  0  0  0  0  0  0  0  0  0
   40.2838   36.0205   41.6570 H   0  0  0  0  0  0  0  0  0  0  0  0
   41.3585   34.8437   42.5561 H   0  0  0  0  0  0  0  0  0  0  0  0
   41.5201   32.7168   42.1374 H   0  0  0  0  0  0  0  0  0  0  0  0
   38.6609   34.9834   39.8875 H   0  0  0  0  0  0  0  0  0  0  0  0
   36.4216   29.7784   40.0988 H   0  0  0  0  0  0  0  0  0  0  0  0
   37.7584   30.4537   38.9642 H   0  0  0  0  0  0  0  0  0  0  0  0
   38.1569   27.7985   39.6199 H   0  0  0  0  0  0  0  0  0  0  0  0
   39.8728   27.5125   39.8728 H   0  0  0  0  0  0  0  0  0  0  0  0
   39.5373   28.9250   42.1890 H   0  0  0  0  0  0  0  0  0  0  0  0
   36.6776   28.1333   41.3775 H   0  0  0  0  0  0  0  0  0  0  0  0
   36.8943   30.8478   42.6125 H   0  0  0  0  0  0  0  0  0  0  0  0
   38.8808   27.0729   43.1411 H   0  0  0  0  0  0  0  0  0  0  0  0
   37.6955   28.5133   43.6448 H   0  0  0  0  0  0  0  0  0  0  0  0
   44.1407   35.3666   40.3514 H   0  0  0  0  0  0  0  0  0  0  0  0
   42.8143   35.5954   43.1213 H   0  0  0  0  0  0  0  0  0  0  0  0
   45.7522   35.0131   42.3007 H   0  0  0  0  0  0  0  0  0  0  0  0
   45.4114   36.4986   43.2200 H   0  0  0  0  0  0  0  0  0  0  0  0
   47.9502   33.9320   44.9670 H   0  0  0  0  0  0  0  0  0  0  0  0
   46.0999   34.0468   46.1262 H   0  0  0  0  0  0  0  0  0  0  0  0
   47.4988   31.4205   47.3018 H   0  0  0  0  0  0  0  0  0  0  0  0
   47.9568   32.6790   48.0930 H   0  0  0  0  0  0  0  0  0  0  0  0
   45.1839   33.1110   48.6772 H   0  0  0  0  0  0  0  0  0  0  0  0
   44.7642   31.7258   48.1125 H   0  0  0  0  0  0  0  0  0  0  0  0
  3  2  2  0
  3  1  1  0
  4  3  1  0
  5  4  2  0
  5  6  1  0
  6  7  2  0
  7  2  1  0
  8 14  1  0
  8 13  1  0
  9  6  1  0
  9  8  1  0
 10  9  1  0
 10 11  1  0
 11 12  1  0
 12 13  1  0
 12 15  1  0
 13 16  1  0
 17 18  1  0
 17  1  1  0
 18 19  2  0
 19 20  1  0
 20 21  1  0
 23 22  2  0
 23 21  1  0
 23 25  1  0
 24 23  1  0
 25 26  1  0
 26 27  1  0
 26 28  1  0
 27 28  1  0
  1 29  1  0
  1 30  1  0
  2 31  1  0
  4 32  1  0
  8 33  1  6
  9 34  1  6
 11 35  1  0
 11 36  1  0
 12 37  1  1
 13 38  1  6
 14 39  1  0
 15 40  1  0
 16 41  1  0
 18 42  1  0
 19 43  1  0
 20 44  1  0
 20 45  1  0
 24 46  1  0
 26 47  1  0
 27 48  1  0
 27 49  1  0
 28 50  1  0
 28 51  1  0
M  ISO  8  29   8  30   8  31  14  32  14  33  13  34  13  35  13  36  13
M  ISO  8  37  13  38  13  39   3  40   3  41   3  44   8  45   8  46   3
M  ISO  5  47  13  48  13  49  13  50  13  51  13
M  END
>  <minimizedAffinity>  (1) 
-5.87764835

>  <minimizedRMSD>  (1) 
1.20169044

$$$$
