
     RDKit          3D

 53 56  0  0  1  0  0  0  0  0999 V2000
   39.1840   33.2730   40.7500 C   0  0  0  0  0  0  0  0  0  0  0  0
   39.5690   33.2930   41.9580 O   0  0  0  0  0  0  0  0  0  0  0  0
   39.1140   34.4080   39.9060 N   0  0  0  0  0  0  0  0  0  0  0  0
   38.7730   31.9850   40.1480 C   0  0  0  0  0  0  0  0  0  0  0  0
   38.9250   31.8020   38.7870 C   0  0  0  0  0  0  0  0  0  0  0  0
   38.5850   30.6560   38.0820 C   0  0  0  0  0  0  0  0  0  0  0  0
   38.0470   29.6300   38.8620 C   0  0  0  0  0  0  0  0  0  0  0  0
   37.9080   29.8430   40.2120 C   0  0  0  0  0  0  0  0  0  0  0  0
   38.2520   30.9740   40.8550 N   0  0  0  0  0  0  0  0  0  0  0  0
   36.3280   28.0440   40.0080 C   0  0  1  0  0  0  0  0  0  0  0  0
   37.3240   28.6780   40.9300 C   0  0  1  0  0  0  0  0  0  0  0  0
   38.2450   27.8670   41.5080 O   0  0  0  0  0  0  0  0  0  0  0  0
   38.4040   26.5930   41.1260 C   0  0  0  0  0  0  0  0  0  0  0  0
   37.3310   25.9110   40.3660 C   0  0  1  0  0  0  0  0  0  0  0  0
   36.0300   26.6620   40.5590 C   0  0  2  0  0  0  0  0  0  0  0  0
   35.1670   28.7890   39.9120 O   0  0  0  0  0  0  0  0  0  0  0  0
   37.6020   25.9540   38.9890 O   0  0  0  0  0  0  0  0  0  0  0  0
   34.9780   26.0970   39.8790 O   0  0  0  0  0  0  0  0  0  0  0  0
   39.6690   35.6440   40.4150 C   0  0  0  0  0  0  0  0  0  0  0  0
   40.9470   36.0510   39.6850 C   0  0  0  0  0  0  0  0  0  0  0  0
   43.8300   34.5890   41.6600 C   0  0  0  0  0  0  0  0  0  0  0  0
   42.7700   35.4540   41.2750 C   0  0  0  0  0  0  0  0  0  0  0  0
   42.0670   35.1820   40.1190 C   0  0  0  0  0  0  0  0  0  0  0  0
   42.4580   34.0660   39.4090 N   0  0  0  0  0  0  0  0  0  0  0  0
   43.4840   33.2720   39.8280 C   0  0  0  0  0  0  0  0  0  0  0  0
   44.1600   33.5350   40.9430 N   0  0  0  0  0  0  0  0  0  0  0  0
   44.5900   34.9020   42.9100 C   0  0  0  0  0  0  0  0  0  0  0  0
   46.0760   35.3240   42.5780 C   0  0  0  0  0  0  0  0  0  0  0  0
   45.0990   36.1610   43.2750 C   0  0  0  0  0  0  0  0  0  0  0  0
   38.6866   34.3562   38.9703 H   0  0  0  0  0  0  0  0  0  0  0  0
   39.3525   32.6370   38.2125 H   0  0  0  0  0  0  0  0  0  0  0  0
   38.7279   30.5631   36.9953 H   0  0  0  0  0  0  0  0  0  0  0  0
   37.7424   28.6759   38.4071 H   0  0  0  0  0  0  0  0  0  0  0  0
   36.7431   27.9867   38.9910 H   0  0  0  0  0  0  0  0  0  0  0  0
   36.7790   28.9971   41.8306 H   0  0  0  0  0  0  0  0  0  0  0  0
   39.3080   26.5590   40.5002 H   0  0  0  0  0  0  0  0  0  0  0  0
   38.4294   26.0434   42.0785 H   0  0  0  0  0  0  0  0  0  0  0  0
   37.2696   24.8727   40.7239 H   0  0  0  0  0  0  0  0  0  0  0  0
   35.7196   26.6579   41.6143 H   0  0  0  0  0  0  0  0  0  0  0  0
   34.8354   29.0018   40.8202 H   0  0  0  0  0  0  0  0  0  0  0  0
   38.5698   26.1076   38.8478 H   0  0  0  0  0  0  0  0  0  0  0  0
   34.3185   25.7428   40.5268 H   0  0  0  0  0  0  0  0  0  0  0  0
   38.9228   36.4430   40.2935 H   0  0  0  0  0  0  0  0  0  0  0  0
   39.9223   35.4875   41.4739 H   0  0  0  0  0  0  0  0  0  0  0  0
   41.1847   37.0990   39.9200 H   0  0  0  0  0  0  0  0  0  0  0  0
   40.7987   35.9408   38.6006 H   0  0  0  0  0  0  0  0  0  0  0  0
   42.5133   36.3289   41.8904 H   0  0  0  0  0  0  0  0  0  0  0  0
   43.7598   32.3916   39.2289 H   0  0  0  0  0  0  0  0  0  0  0  0
   43.9951   34.1882   43.4987 H   0  0  0  0  0  0  0  0  0  0  0  0
   46.9231   34.8770   43.1189 H   0  0  0  0  0  0  0  0  0  0  0  0
   46.7120   35.4009   41.6838 H   0  0  0  0  0  0  0  0  0  0  0  0
   44.7110   37.0570   42.7683 H   0  0  0  0  0  0  0  0  0  0  0  0
   45.1369   36.6875   44.2400 H   0  0  0  0  0  0  0  0  0  0  0  0
  1  2  2  0
  3 19  1  0
  3  1  1  0
  4  1  1  0
  4  9  1  0
  5  4  2  0
  6  5  1  0
  6  7  2  0
  7  8  1  0
  8  9  2  0
 10 16  1  0
 10 15  1  0
 10 11  1  0
 11  8  1  0
 11 12  1  0
 13 12  1  0
 14 17  1  0
 14 15  1  0
 14 13  1  0
 15 18  1  0
 20 23  1  0
 20 19  1  0
 21 27  1  0
 22 21  2  0
 23 22  1  0
 24 25  1  0
 24 23  2  0
 25 26  2  0
 26 21  1  0
 27 29  1  0
 28 27  1  0
 28 29  1  0
  3 30  1  0
  5 31  1  0
  6 32  1  0
  7 33  1  0
 10 34  1  6
 11 35  1  1
 13 36  1  0
 13 37  1  0
 14 38  1  1
 15 39  1  1
 16 40  1  0
 17 41  1  0
 18 42  1  0
 19 43  1  0
 19 44  1  0
 20 45  1  0
 20 46  1  0
 22 47  1  0
 25 48  1  0
 27 49  1  0
 28 50  1  0
 28 51  1  0
 29 52  1  0
 29 53  1  0
M  ISO  8  31  14  32  14  33  14  34  13  35  13  36  13  37  13  38  13
M  ISO  8  39  13  40   3  41   3  42   3  43   8  44   8  45   8  46   8
M  ISO  7  47  14  48  14  49  13  50  13  51  13  52  13  53  13
M  END
>  <minimizedAffinity>  (1) 
-5.77541447

>  <minimizedRMSD>  (1) 
1.05452037

$$$$
