
     RDKit          3D

 34 35  0  0  1  0  0  0  0  0999 V2000
   44.9390   35.3070   44.2320 C   0  0  0  0  0  0  0  0  0  0  0  0
   44.7470   34.6720   42.9670 C   0  0  0  0  0  0  0  0  0  0  0  0
   44.9800   33.2870   42.9180 C   0  0  0  0  0  0  0  0  0  0  0  0
   45.3700   32.6320   44.0530 N   0  0  0  0  0  0  0  0  0  0  0  0
   45.5400   33.2900   45.2380 C   0  0  0  0  0  0  0  0  0  0  0  0
   45.3180   34.6200   45.2990 N   0  0  0  0  0  0  0  0  0  0  0  0
   45.9120   31.0600   46.2110 C   0  0  2  0  0  0  0  0  0  0  0  0
   45.9600   32.5570   46.4440 C   0  0  1  0  0  0  0  0  0  0  0  0
   47.2650   32.8480   46.8400 O   0  0  0  0  0  0  0  0  0  0  0  0
   47.4150   32.3780   48.1440 C   0  0  0  0  0  0  0  0  0  0  0  0
   47.2300   30.8890   48.2670 C   0  0  2  0  0  0  0  0  0  0  0  0
   45.9630   30.4110   47.5880 C   0  0  2  0  0  0  0  0  0  0  0  0
   47.0130   30.5920   45.5000 O   0  0  0  0  0  0  0  0  0  0  0  0
   47.0800   30.6020   49.6330 O   0  0  0  0  0  0  0  0  0  0  0  0
   46.0310   29.0300   47.3980 O   0  0  0  0  0  0  0  0  0  0  0  0
   44.6980   36.7400   44.3010 C   0  0  0  0  0  0  0  0  0  0  0  0
   45.4350   37.5520   43.5750 C   0  0  0  0  0  0  0  0  0  0  0  0
   45.2720   39.0180   43.5640 C   0  0  0  0  0  0  0  0  0  0  0  0
   44.4331   35.2377   42.0774 H   0  0  0  0  0  0  0  0  0  0  0  0
   44.8498   32.7351   41.9754 H   0  0  0  0  0  0  0  0  0  0  0  0
   45.0069   30.8219   45.6330 H   0  0  0  0  0  0  0  0  0  0  0  0
   45.2565   32.8765   47.2269 H   0  0  0  0  0  0  0  0  0  0  0  0
   48.4264   32.6339   48.4928 H   0  0  0  0  0  0  0  0  0  0  0  0
   46.6326   32.8542   48.7532 H   0  0  0  0  0  0  0  0  0  0  0  0
   48.0946   30.3946   47.8000 H   0  0  0  0  0  0  0  0  0  0  0  0
   45.0845   30.6667   48.1986 H   0  0  0  0  0  0  0  0  0  0  0  0
   47.7129   30.2945   46.1338 H   0  0  0  0  0  0  0  0  0  0  0  0
   47.4654   31.3394   50.1694 H   0  0  0  0  0  0  0  0  0  0  0  0
   46.0533   28.5766   48.2778 H   0  0  0  0  0  0  0  0  0  0  0  0
   43.9078   37.1401   44.9534 H   0  0  0  0  0  0  0  0  0  0  0  0
   46.2180   37.1127   42.9394 H   0  0  0  0  0  0  0  0  0  0  0  0
   45.2306   39.3901   44.5983 H   0  0  0  0  0  0  0  0  0  0  0  0
   46.1246   39.4778   43.0427 H   0  0  0  0  0  0  0  0  0  0  0  0
   44.3393   39.2793   43.0427 H   0  0  0  0  0  0  0  0  0  0  0  0
  1 16  1  0
  1  6  2  0
  2  1  1  0
  3  2  2  0
  3  4  1  0
  4  5  2  0
  5  6  1  0
  7 13  1  0
  7  8  1  0
  7 12  1  0
  8  5  1  0
  8  9  1  0
  9 10  1  0
 10 11  1  0
 11 14  1  0
 12 15  1  0
 12 11  1  0
 17 16  2  0
 18 17  1  0
  2 19  1  0
  3 20  1  0
  7 21  1  6
  8 22  1  1
 10 23  1  0
 10 24  1  0
 11 25  1  6
 12 26  1  1
 13 27  1  0
 14 28  1  0
 15 29  1  0
 16 30  1  0
 17 31  1  0
 18 32  1  0
 18 33  1  0
 18 34  1  0
M  ISO  8  19  14  20  14  21  13  22  13  23  13  24  13  25  13  26  13
M  ISO  6  27   3  28   3  29   3  32   8  33   8  34   8
M  END
>  <minimizedAffinity>  (1) 
-4.53119373

>  <minimizedRMSD>  (1) 
2.46696663

$$$$
