
     RDKit          3D

 32 34  0  0  0  0  0  0  0  0999 V2000
   46.6440   34.7750   41.9810 C   0  0  0  0  0  0  0  0  0  0  0  0
   47.9290   35.2930   41.9180 C   0  0  0  0  0  0  0  0  0  0  0  0
   48.6530   35.1150   40.7600 C   0  0  0  0  0  0  0  0  0  0  0  0
   48.1030   34.4440   39.7140 C   0  0  0  0  0  0  0  0  0  0  0  0
   46.8420   33.9210   39.7390 C   0  0  0  0  0  0  0  0  0  0  0  0
   46.1080   34.1050   40.9240 C   0  0  0  0  0  0  0  0  0  0  0  0
   44.5180   36.2010   44.7530 C   0  0  0  0  0  0  0  0  0  0  0  0
   45.1690   36.1030   43.5030 C   0  0  0  0  0  0  0  0  0  0  0  0
   45.9220   34.9920   43.2360 C   0  0  0  0  0  0  0  0  0  0  0  0
   46.0010   34.0330   44.2060 N   0  0  0  0  0  0  0  0  0  0  0  0
   45.3800   34.1240   45.3990 C   0  0  0  0  0  0  0  0  0  0  0  0
   44.6290   35.2200   45.6770 N   0  0  0  0  0  0  0  0  0  0  0  0
   43.5000   34.1030   40.8580 C   0  0  0  0  0  0  0  0  0  0  0  0
   43.2270   35.2070   40.4160 O   0  0  0  0  0  0  0  0  0  0  0  0
   44.7960   33.6150   41.1040 N   0  0  0  0  0  0  0  0  0  0  0  0
   42.4320   33.2460   41.1490 O   0  0  0  0  0  0  0  0  0  0  0  0
   41.2300   33.4450   40.5320 C   0  0  0  0  0  0  0  0  0  0  0  0
   40.1460   33.9430   41.1980 C   0  0  0  0  0  0  0  0  0  0  0  0
   39.1080   34.0200   40.2980 C   0  0  0  0  0  0  0  0  0  0  0  0
   39.5700   33.5740   39.1160 N   0  0  0  0  0  0  0  0  0  0  0  0
   40.8600   33.2200   39.2380 N   0  0  0  0  0  0  0  0  0  0  0  0
   48.3601   35.8337   42.7734 H   0  0  0  0  0  0  0  0  0  0  0  0
   49.6746   35.5152   40.6819 H   0  0  0  0  0  0  0  0  0  0  0  0
   48.7038   34.3158   38.8015 H   0  0  0  0  0  0  0  0  0  0  0  0
   46.4219   33.3833   38.8763 H   0  0  0  0  0  0  0  0  0  0  0  0
   43.9108   37.0901   44.9783 H   0  0  0  0  0  0  0  0  0  0  0  0
   45.0723   36.9058   42.7573 H   0  0  0  0  0  0  0  0  0  0  0  0
   45.4809   33.3176   46.1403 H   0  0  0  0  0  0  0  0  0  0  0  0
   44.7855   32.6708   41.5154 H   0  0  0  0  0  0  0  0  0  0  0  0
   40.1097   34.2299   42.2593 H   0  0  0  0  0  0  0  0  0  0  0  0
   38.0895   34.3795   40.5064 H   0  0  0  0  0  0  0  0  0  0  0  0
   39.0180   33.5131   38.2485 H   0  0  0  0  0  0  0  0  0  0  0  0
  1  9  1  0
  2  1  2  0
  3  2  1  0
  4  5  1  0
  4  3  2  0
  5  6  2  0
  6 15  1  0
  6  1  1  0
  7 12  2  0
  8  7  1  0
  9  8  2  0
  9 10  1  0
 10 11  2  0
 11 12  1  0
 13 15  1  0
 13 16  1  0
 14 13  2  0
 17 16  1  0
 17 18  1  0
 19 18  2  0
 20 21  1  0
 20 19  1  0
 21 17  2  0
  2 22  1  0
  3 23  1  0
  4 24  1  0
  5 25  1  0
  7 26  1  0
  8 27  1  0
 11 28  1  0
 15 29  1  0
 18 30  1  0
 19 31  1  0
 20 32  1  0
M  ISO  8  22  14  23  14  24  14  25  14  26  14  27  14  28  14  30  14
M  ISO  2  31  14  32   9
M  END
>  <minimizedAffinity>  (1) 
-6.07883501

>  <minimizedRMSD>  (1) 
0.481770784

$$$$
