
     RDKit          3D

 18 19  0  0  0  0  0  0  0  0999 V2000
   44.5730   35.3660   45.5520 C   0  0  0  0  0  0  0  0  0  0  0  0
   44.7500   35.9310   44.2650 C   0  0  0  0  0  0  0  0  0  0  0  0
   45.5850   35.2800   43.3490 C   0  0  0  0  0  0  0  0  0  0  0  0
   46.1900   34.1310   43.7360 N   0  0  0  0  0  0  0  0  0  0  0  0
   46.0050   33.6040   44.9800 C   0  0  0  0  0  0  0  0  0  0  0  0
   45.2050   34.2240   45.8650 N   0  0  0  0  0  0  0  0  0  0  0  0
   46.9130   32.0970   45.2230 S   0  0  0  0  0  0  0  0  0  0  0  0
   46.6890   31.4770   46.8990 C   0  0  0  0  0  0  0  0  0  0  0  0
   47.4380   32.0520   47.9260 C   0  0  0  0  0  0  0  0  0  0  0  0
   47.0380   31.3640   49.0650 C   0  0  0  0  0  0  0  0  0  0  0  0
   46.1270   30.4640   48.7120 N   0  0  0  0  0  0  0  0  0  0  0  0
   45.9040   30.5180   47.4080 N   0  0  0  0  0  0  0  0  0  0  0  0
   43.9226   35.8594   46.2892 H   0  0  0  0  0  0  0  0  0  0  0  0
   44.2398   36.8659   43.9899 H   0  0  0  0  0  0  0  0  0  0  0  0
   45.7457   35.6906   42.3413 H   0  0  0  0  0  0  0  0  0  0  0  0
   48.1762   32.8641   47.8512 H   0  0  0  0  0  0  0  0  0  0  0  0
   47.4120   31.5354   50.0852 H   0  0  0  0  0  0  0  0  0  0  0  0
   45.6598   29.8153   49.3614 H   0  0  0  0  0  0  0  0  0  0  0  0
  1  6  2  0
  2  1  1  0
  3  4  1  0
  3  2  2  0
  4  5  2  0
  5  7  1  0
  5  6  1  0
  7  8  1  0
  8 12  2  0
  8  9  1  0
  9 10  2  0
 11 10  1  0
 12 11  1  0
  1 13  1  0
  2 14  1  0
  3 15  1  0
  9 16  1  0
 10 17  1  0
 11 18  1  0
M  ISO  6  13  14  14  14  15  14  16  14  17  14  18   9
M  END
>  <minimizedAffinity>  (1) 
-3.8844378

>  <minimizedRMSD>  (1) 
2.08309269

$$$$
