
     RDKit          3D

 31 34  0  0  0  0  0  0  0  0999 V2000
   46.9210   33.4240   39.1140 C   0  0  0  0  0  0  0  0  0  0  0  0
   48.2890   33.2240   39.2620 C   0  0  0  0  0  0  0  0  0  0  0  0
   48.8700   33.4880   40.5260 C   0  0  0  0  0  0  0  0  0  0  0  0
   48.0290   33.9230   41.5100 N   0  0  0  0  0  0  0  0  0  0  0  0
   46.7000   34.1030   41.3160 C   0  0  0  0  0  0  0  0  0  0  0  0
   46.1600   33.8520   40.1230 N   0  0  0  0  0  0  0  0  0  0  0  0
   45.9260   34.5620   42.4180 N   0  0  0  0  0  0  0  0  0  0  0  0
   44.9820   35.5360   42.3680 C   0  0  0  0  0  0  0  0  0  0  0  0
   44.4710   35.6880   43.6240 N   0  0  0  0  0  0  0  0  0  0  0  0
   45.1090   34.8130   44.4080 C   0  0  0  0  0  0  0  0  0  0  0  0
   45.0360   34.5010   45.7420 C   0  0  0  0  0  0  0  0  0  0  0  0
   45.7960   33.5650   46.3000 N   0  0  0  0  0  0  0  0  0  0  0  0
   46.7010   32.8530   45.5900 C   0  0  0  0  0  0  0  0  0  0  0  0
   46.7620   33.1730   44.2760 N   0  0  0  0  0  0  0  0  0  0  0  0
   46.0300   34.0930   43.6670 C   0  0  0  0  0  0  0  0  0  0  0  0
   44.1470   35.1510   46.6230 N   0  0  0  0  0  0  0  0  0  0  0  0
   46.2710   33.0680   37.4610 S   0  0  0  0  0  0  0  0  0  0  0  0
   47.6270   32.5150   36.4380 C   0  0  0  0  0  0  0  0  0  0  0  0
   47.8420   31.1480   36.2290 C   0  0  0  0  0  0  0  0  0  0  0  0
   48.9590   31.0030   35.3970 C   0  0  0  0  0  0  0  0  0  0  0  0
   49.3720   32.2790   35.1390 N   0  0  0  0  0  0  0  0  0  0  0  0
   48.5970   33.1780   35.7450 N   0  0  0  0  0  0  0  0  0  0  0  0
   48.9029   32.8705   38.4205 H   0  0  0  0  0  0  0  0  0  0  0  0
   49.9462   33.3495   40.7065 H   0  0  0  0  0  0  0  0  0  0  0  0
   44.6822   36.1022   41.4738 H   0  0  0  0  0  0  0  0  0  0  0  0
   47.3356   32.0773   46.0434 H   0  0  0  0  0  0  0  0  0  0  0  0
   44.1233   34.8869   47.6183 H   0  0  0  0  0  0  0  0  0  0  0  0
   43.5215   35.8898   46.2711 H   0  0  0  0  0  0  0  0  0  0  0  0
   47.2379   30.3289   36.6462 H   0  0  0  0  0  0  0  0  0  0  0  0
   49.4058   30.0667   35.0314 H   0  0  0  0  0  0  0  0  0  0  0  0
   50.1821   32.5170   34.5491 H   0  0  0  0  0  0  0  0  0  0  0  0
  1  2  2  0
  1  6  1  0
  2  3  1  0
  3  4  2  0
  5  4  1  0
  5  7  1  0
  6  5  2  0
  7 15  1  0
  8  7  1  0
  8  9  2  0
  9 10  1  0
 10 11  2  0
 11 12  1  0
 11 16  1  0
 13 12  2  0
 14 13  1  0
 15 14  2  0
 15 10  1  0
 17  1  1  0
 18 17  1  0
 19 18  1  0
 20 19  2  0
 21 20  1  0
 21 22  1  0
 22 18  2  0
  2 23  1  0
  3 24  1  0
  8 25  1  0
 13 26  1  0
 16 27  1  0
 16 28  1  0
 19 29  1  0
 20 30  1  0
 21 31  1  0
M  ISO  7  23  14  24  14  25  14  26  14  29  14  30  14  31   9
M  END
>  <minimizedAffinity>  (1) 
-5.98024797

>  <minimizedRMSD>  (1) 
1.33265781

$$$$
