
     RDKit          3D

 46 49  0  0  1  0  0  0  0  0999 V2000
   48.5310   33.4200   39.2240 N   0  0  0  0  0  0  0  0  0  0  0  0
   47.4490   34.4940   42.4400 N   0  0  0  0  0  0  0  0  0  0  0  0
   47.4220   34.6980   40.9900 C   0  0  0  0  0  0  0  0  0  0  0  0
   48.0700   33.4020   40.5770 C   0  0  2  0  0  0  0  0  0  0  0  0
   49.2780   33.3640   41.4770 C   0  0  0  0  0  0  0  0  0  0  0  0
   48.7610   33.9720   42.7520 C   0  0  0  0  0  0  0  0  0  0  0  0
   44.5860   35.8640   44.3760 C   0  0  0  0  0  0  0  0  0  0  0  0
   45.5050   35.7400   43.3400 C   0  0  0  0  0  0  0  0  0  0  0  0
   46.4700   34.7210   43.4190 C   0  0  0  0  0  0  0  0  0  0  0  0
   46.4450   33.9100   44.5160 N   0  0  0  0  0  0  0  0  0  0  0  0
   45.5540   34.0410   45.5080 C   0  0  0  0  0  0  0  0  0  0  0  0
   44.6240   35.0190   45.4340 N   0  0  0  0  0  0  0  0  0  0  0  0
   48.6120   32.2960   37.0000 C   0  0  0  0  0  0  0  0  0  0  0  0
   47.9390   33.0090   38.0120 C   0  0  0  0  0  0  0  0  0  0  0  0
   46.6370   33.2690   37.7070 C   0  0  0  0  0  0  0  0  0  0  0  0
   45.9710   32.9120   36.5590 C   0  0  0  0  0  0  0  0  0  0  0  0
   46.6760   32.2150   35.5990 C   0  0  0  0  0  0  0  0  0  0  0  0
   47.9930   31.9200   35.8420 C   0  0  0  0  0  0  0  0  0  0  0  0
   49.1430   31.8960   33.6820 C   0  0  0  0  0  0  0  0  0  0  0  0
   48.9830   33.1680   33.5850 O   0  0  0  0  0  0  0  0  0  0  0  0
   48.7070   31.1940   34.8290 N   0  0  0  0  0  0  0  0  0  0  0  0
   49.7720   31.0300   32.6640 C   0  0  0  0  0  0  0  0  0  0  0  0
   49.3360   30.0620   31.7990 C   0  0  0  0  0  0  0  0  0  0  0  0
   50.4250   29.6100   31.0850 C   0  0  0  0  0  0  0  0  0  0  0  0
   51.5090   30.3010   31.5170 N   0  0  0  0  0  0  0  0  0  0  0  0
   51.1160   31.1450   32.4560 N   0  0  0  0  0  0  0  0  0  0  0  0
   51.1260   31.7310   37.4320 N   0  0  0  0  0  0  0  0  0  0  0  0
   50.0120   31.9760   37.2470 C   0  0  0  0  0  0  0  0  0  0  0  0
   49.4786   33.8081   39.1130 H   0  0  0  0  0  0  0  0  0  0  0  0
   46.3968   34.7920   40.6026 H   0  0  0  0  0  0  0  0  0  0  0  0
   47.9072   35.6152   40.6250 H   0  0  0  0  0  0  0  0  0  0  0  0
   47.3747   32.5529   40.6523 H   0  0  0  0  0  0  0  0  0  0  0  0
   49.6186   32.3308   41.6400 H   0  0  0  0  0  0  0  0  0  0  0  0
   50.1477   33.8946   41.0622 H   0  0  0  0  0  0  0  0  0  0  0  0
   49.4255   34.7824   43.0861 H   0  0  0  0  0  0  0  0  0  0  0  0
   48.7177   33.2309   43.5637 H   0  0  0  0  0  0  0  0  0  0  0  0
   43.8221   36.6545   44.3361 H   0  0  0  0  0  0  0  0  0  0  0  0
   45.4775   36.4235   42.4785 H   0  0  0  0  0  0  0  0  0  0  0  0
   45.5791   33.3609   46.3722 H   0  0  0  0  0  0  0  0  0  0  0  0
   46.0571   33.8236   38.4595 H   0  0  0  0  0  0  0  0  0  0  0  0
   44.9127   33.1728   36.4105 H   0  0  0  0  0  0  0  0  0  0  0  0
   46.1930   31.9034   34.6611 H   0  0  0  0  0  0  0  0  0  0  0  0
   48.8966   30.1872   34.9356 H   0  0  0  0  0  0  0  0  0  0  0  0
   48.3000   29.7078   31.6928 H   0  0  0  0  0  0  0  0  0  0  0  0
   50.4164   28.8318   30.3076 H   0  0  0  0  0  0  0  0  0  0  0  0
   52.4731   30.1878   31.1727 H   0  0  0  0  0  0  0  0  0  0  0  0
  1  4  1  0
  2  6  1  0
  2  9  1  0
  3  2  1  0
  4  3  1  0
  4  5  1  0
  5  6  1  0
  7 12  2  0
  8  9  2  0
  8  7  1  0
  9 10  1  0
 10 11  2  0
 12 11  1  0
 13 28  1  0
 13 14  2  0
 14  1  1  0
 15 14  1  0
 16 15  2  0
 17 18  2  0
 17 16  1  0
 18 13  1  0
 19 21  1  0
 20 19  2  0
 21 18  1  0
 22 19  1  0
 23 22  1  0
 24 25  1  0
 24 23  2  0
 25 26  1  0
 26 22  2  0
 28 27  3  0
  1 29  1  0
  3 30  1  0
  3 31  1  0
  4 32  1  6
  5 33  1  0
  5 34  1  0
  6 35  1  0
  6 36  1  0
  7 37  1  0
  8 38  1  0
 11 39  1  0
 15 40  1  0
 16 41  1  0
 17 42  1  0
 21 43  1  0
 23 44  1  0
 24 45  1  0
 25 46  1  0
M  ISO  8  30  13  31  13  32  13  33  13  34  13  35  13  36  13  37  14
M  ISO  8  38  14  39  14  40  14  41  14  42  14  44  14  45  14  46   9
M  END
>  <minimizedAffinity>  (1) 
-5.72350883

>  <minimizedRMSD>  (1) 
0.285153627

$$$$
