
     RDKit          3D

 26 28  0  0  1  0  0  0  0  0999 V2000
   47.4490   34.3760   41.1820 C   0  0  1  0  0  0  0  0  0  0  0  0
   48.3280   35.6110   41.5690 C   0  0  0  0  0  0  0  0  0  0  0  0
   48.4800   34.2670   42.1860 C   0  0  2  0  0  0  0  0  0  0  0  0
   49.6480   33.4150   41.8350 C   0  0  0  0  0  0  0  0  0  0  0  0
   49.7160   32.3290   40.9810 C   0  0  0  0  0  0  0  0  0  0  0  0
   51.0180   31.8800   40.9910 C   0  0  0  0  0  0  0  0  0  0  0  0
   51.7090   32.6690   41.8230 N   0  0  0  0  0  0  0  0  0  0  0  0
   50.9120   33.5710   42.3210 N   0  0  0  0  0  0  0  0  0  0  0  0
   46.0170   34.5490   41.5780 C   0  0  0  0  0  0  0  0  0  0  0  0
   45.1800   34.4370   40.6720 O   0  0  0  0  0  0  0  0  0  0  0  0
   45.0730   36.0330   43.2710 C   0  0  0  0  0  0  0  0  0  0  0  0
   45.5780   34.8180   42.9020 C   0  0  0  0  0  0  0  0  0  0  0  0
   45.6490   33.8100   43.8800 C   0  0  0  0  0  0  0  0  0  0  0  0
   45.2240   34.0590   45.1350 N   0  0  0  0  0  0  0  0  0  0  0  0
   44.7210   35.2900   45.4760 C   0  0  0  0  0  0  0  0  0  0  0  0
   44.6580   36.2340   44.5490 N   0  0  0  0  0  0  0  0  0  0  0  0
   47.2151   33.7675   40.2960 H   0  0  0  0  0  0  0  0  0  0  0  0
   49.0881   35.9969   40.8738 H   0  0  0  0  0  0  0  0  0  0  0  0
   48.1512   36.6371   41.9239 H   0  0  0  0  0  0  0  0  0  0  0  0
   48.5046   33.9489   43.2387 H   0  0  0  0  0  0  0  0  0  0  0  0
   48.8841   31.9028   40.4011 H   0  0  0  0  0  0  0  0  0  0  0  0
   51.4171   31.0288   40.4198 H   0  0  0  0  0  0  0  0  0  0  0  0
   52.7126   32.5773   42.0358 H   0  0  0  0  0  0  0  0  0  0  0  0
   45.0026   36.8470   42.5345 H   0  0  0  0  0  0  0  0  0  0  0  0
   46.0509   32.8193   43.6213 H   0  0  0  0  0  0  0  0  0  0  0  0
   44.3762   35.4890   46.5014 H   0  0  0  0  0  0  0  0  0  0  0  0
  1  2  1  0
  1  9  1  0
  1  3  1  0
  2  3  1  0
  4  3  1  0
  4  8  2  0
  5  6  2  0
  5  4  1  0
  6  7  1  0
  7  8  1  0
  9 12  1  0
 10  9  2  0
 11 16  2  0
 12 11  1  0
 12 13  2  0
 13 14  1  0
 14 15  2  0
 16 15  1  0
  1 17  1  6
  2 18  1  0
  2 19  1  0
  3 20  1  1
  5 21  1  0
  6 22  1  0
  7 23  1  0
 11 24  1  0
 13 25  1  0
 15 26  1  0
M  ISO  8  17  13  18  13  19  13  20  13  21  14  22  14  23   9  24  14
M  ISO  2  25  14  26  14
M  END
>  <minimizedAffinity>  (1) 
-5.16216421

>  <minimizedRMSD>  (1) 
1.4009515

$$$$
