
     RDKit          3D

 27 29  0  0  1  0  0  0  0  0999 V2000
   46.7370   33.1180   43.3680 C   0  0  1  0  0  0  0  0  0  0  0  0
   46.1050   34.4700   43.4560 C   0  0  0  0  0  0  0  0  0  0  0  0
   47.6310   34.2710   43.2230 C   0  0  2  0  0  0  0  0  0  0  0  0
   46.0390   32.0240   46.9020 C   0  0  0  0  0  0  0  0  0  0  0  0
   45.9680   32.7920   45.7440 C   0  0  0  0  0  0  0  0  0  0  0  0
   46.7280   32.3660   44.6670 C   0  0  0  0  0  0  0  0  0  0  0  0
   47.4910   31.2390   44.7890 N   0  0  0  0  0  0  0  0  0  0  0  0
   47.5300   30.5240   45.9350 C   0  0  0  0  0  0  0  0  0  0  0  0
   46.7940   30.9250   46.9990 N   0  0  0  0  0  0  0  0  0  0  0  0
   45.2210   32.4490   48.0730 C   0  0  0  0  0  0  0  0  0  0  0  0
   46.0950   32.6550   49.1310 F   0  0  0  0  0  0  0  0  0  0  0  0
   44.3790   31.4250   48.4070 F   0  0  0  0  0  0  0  0  0  0  0  0
   44.5780   33.6360   47.8270 F   0  0  0  0  0  0  0  0  0  0  0  0
   48.0870   34.6400   41.8570 C   0  0  0  0  0  0  0  0  0  0  0  0
   48.8290   35.7260   41.4720 C   0  0  0  0  0  0  0  0  0  0  0  0
   49.0180   35.6740   40.1240 C   0  0  0  0  0  0  0  0  0  0  0  0
   48.3950   34.5590   39.6820 N   0  0  0  0  0  0  0  0  0  0  0  0
   47.8430   33.9520   40.7320 N   0  0  0  0  0  0  0  0  0  0  0  0
   46.6006   32.2212   42.7458 H   0  0  0  0  0  0  0  0  0  0  0  0
   45.4607   34.8377   42.6438 H   0  0  0  0  0  0  0  0  0  0  0  0
   45.4773   35.0059   44.1832 H   0  0  0  0  0  0  0  0  0  0  0  0
   48.5691   34.5709   43.7129 H   0  0  0  0  0  0  0  0  0  0  0  0
   45.3395   33.6929   45.6865 H   0  0  0  0  0  0  0  0  0  0  0  0
   48.1556   29.6218   46.0033 H   0  0  0  0  0  0  0  0  0  0  0  0
   49.2096   36.5111   42.1419 H   0  0  0  0  0  0  0  0  0  0  0  0
   49.5720   36.4009   39.5119 H   0  0  0  0  0  0  0  0  0  0  0  0
   48.3541   34.2353   38.7050 H   0  0  0  0  0  0  0  0  0  0  0  0
  1  2  1  0
  1  6  1  0
  3  1  1  0
  3  2  1  0
  4  9  2  0
  4 10  1  0
  5  4  1  0
  6  7  1  0
  6  5  2  0
  7  8  2  0
  8  9  1  0
 10 12  1  0
 10 11  1  0
 13 10  1  0
 14  3  1  0
 15 14  1  0
 16 15  2  0
 17 16  1  0
 17 18  1  0
 18 14  2  0
  1 19  1  6
  2 20  1  0
  2 21  1  0
  3 22  1  1
  5 23  1  0
  8 24  1  0
 15 25  1  0
 16 26  1  0
 17 27  1  0
M  ISO  8  19  13  20  13  21  13  22  13  23  14  24  14  25  14  26  14
M  ISO  1  27   9
M  END
>  <minimizedAffinity>  (1) 
-4.95077753

>  <minimizedRMSD>  (1) 
3.97821116

$$$$
