
     RDKit          3D

 31 33  0  0  0  0  0  0  0  0999 V2000
   45.3320   36.0240   43.3550 C   0  0  0  0  0  0  0  0  0  0  0  0
   46.1280   34.8860   43.1950 C   0  0  0  0  0  0  0  0  0  0  0  0
   46.1380   33.9600   44.2140 C   0  0  0  0  0  0  0  0  0  0  0  0
   45.3800   34.1840   45.3320 N   0  0  0  0  0  0  0  0  0  0  0  0
   44.6120   35.3080   45.4580 C   0  0  0  0  0  0  0  0  0  0  0  0
   44.6040   36.1950   44.4770 N   0  0  0  0  0  0  0  0  0  0  0  0
   46.8530   34.7890   41.9940 N   0  0  0  0  0  0  0  0  0  0  0  0
   48.1510   35.3420   41.9020 C   0  0  0  0  0  0  0  0  0  0  0  0
   48.6950   35.2980   40.5040 C   0  0  0  0  0  0  0  0  0  0  0  0
   48.5880   34.0300   39.9040 N   0  0  0  0  0  0  0  0  0  0  0  0
   47.3860   33.3280   40.1140 C   0  0  0  0  0  0  0  0  0  0  0  0
   46.3600   34.1730   40.7890 C   0  0  0  0  0  0  0  0  0  0  0  0
   46.8500   32.7040   44.2680 C   0  0  0  0  0  0  0  0  0  0  0  0
   46.7090   32.0110   45.4950 C   0  0  0  0  0  0  0  0  0  0  0  0
   47.4110   30.8230   45.5870 C   0  0  0  0  0  0  0  0  0  0  0  0
   47.9940   30.7970   44.3830 N   0  0  0  0  0  0  0  0  0  0  0  0
   47.6750   31.8280   43.6850 N   0  0  0  0  0  0  0  0  0  0  0  0
   45.2994   36.7845   42.5609 H   0  0  0  0  0  0  0  0  0  0  0  0
   44.0089   35.4724   46.3631 H   0  0  0  0  0  0  0  0  0  0  0  0
   48.1124   36.3903   42.2330 H   0  0  0  0  0  0  0  0  0  0  0  0
   48.8168   34.7417   42.5395 H   0  0  0  0  0  0  0  0  0  0  0  0
   48.1394   36.0224   39.8904 H   0  0  0  0  0  0  0  0  0  0  0  0
   49.7663   35.5403   40.5639 H   0  0  0  0  0  0  0  0  0  0  0  0
   49.3564   33.4478   40.2667 H   0  0  0  0  0  0  0  0  0  0  0  0
   46.9917   32.9987   39.1413 H   0  0  0  0  0  0  0  0  0  0  0  0
   47.6023   32.4684   40.7654 H   0  0  0  0  0  0  0  0  0  0  0  0
   46.0427   34.9641   40.0937 H   0  0  0  0  0  0  0  0  0  0  0  0
   45.5220   33.5179   41.0694 H   0  0  0  0  0  0  0  0  0  0  0  0
   46.0849   32.3910   46.3172 H   0  0  0  0  0  0  0  0  0  0  0  0
   47.4727   30.1027   46.4161 H   0  0  0  0  0  0  0  0  0  0  0  0
   48.6191   30.0461   44.0569 H   0  0  0  0  0  0  0  0  0  0  0  0
  1  6  2  0
  2  1  1  0
  2  3  2  0
  3 13  1  0
  3  4  1  0
  4  5  2  0
  6  5  1  0
  7  2  1  0
  8  7  1  0
  9  8  1  0
 10 11  1  0
 10  9  1  0
 11 12  1  0
 12  7  1  0
 13 14  1  0
 14 15  2  0
 16 15  1  0
 17 13  2  0
 17 16  1  0
  1 18  1  0
  5 19  1  0
  8 20  1  0
  8 21  1  0
  9 22  1  0
  9 23  1  0
 10 24  1  0
 11 25  1  0
 11 26  1  0
 12 27  1  0
 12 28  1  0
 14 29  1  0
 15 30  1  0
 16 31  1  0
M  ISO  8  18  14  19  14  20  13  21  13  22  13  23  13  24   5  25  13
M  ISO  6  26  13  27  13  28  13  29  14  30  14  31   9
M  END
>  <minimizedAffinity>  (1) 
-4.8045783

>  <minimizedRMSD>  (1) 
3.3237493

$$$$
