
     RDKit          3D

 20 21  0  0  0  0  0  0  0  0999 V2000
   47.1820   34.9250   41.9910 C   0  0  0  0  0  0  0  0  0  0  0  0
   44.5960   35.9760   44.4590 C   0  0  0  0  0  0  0  0  0  0  0  0
   45.4080   35.9830   43.3050 C   0  0  0  0  0  0  0  0  0  0  0  0
   46.3320   34.9320   43.1840 C   0  0  0  0  0  0  0  0  0  0  0  0
   46.3890   33.9880   44.1680 N   0  0  0  0  0  0  0  0  0  0  0  0
   45.5890   34.0280   45.2540 C   0  0  0  0  0  0  0  0  0  0  0  0
   44.6890   35.0340   45.3890 N   0  0  0  0  0  0  0  0  0  0  0  0
   46.5680   34.2930   40.8050 C   0  0  0  0  0  0  0  0  0  0  0  0
   47.3930   33.8830   39.7630 C   0  0  0  0  0  0  0  0  0  0  0  0
   46.6450   33.3160   38.7460 C   0  0  0  0  0  0  0  0  0  0  0  0
   45.3680   33.4040   39.2150 N   0  0  0  0  0  0  0  0  0  0  0  0
   45.3200   33.9790   40.4270 N   0  0  0  0  0  0  0  0  0  0  0  0
   47.4265   35.9670   41.7372 H   0  0  0  0  0  0  0  0  0  0  0  0
   48.0685   34.3241   42.2420 H   0  0  0  0  0  0  0  0  0  0  0  0
   43.8586   36.7812   44.5926 H   0  0  0  0  0  0  0  0  0  0  0  0
   45.3220   36.7696   42.5409 H   0  0  0  0  0  0  0  0  0  0  0  0
   45.6663   33.2485   46.0262 H   0  0  0  0  0  0  0  0  0  0  0  0
   48.4873   33.9939   39.7492 H   0  0  0  0  0  0  0  0  0  0  0  0
   46.9956   32.8964   37.7915 H   0  0  0  0  0  0  0  0  0  0  0  0
   44.5401   33.0697   38.7015 H   0  0  0  0  0  0  0  0  0  0  0  0
  1  4  1  0
  2  7  2  0
  3  2  1  0
  4  3  2  0
  4  5  1  0
  5  6  2  0
  6  7  1  0
  8  1  1  0
  9  8  1  0
 10 11  1  0
 10  9  2  0
 11 12  1  0
 12  8  2  0
  1 13  1  0
  1 14  1  0
  2 15  1  0
  3 16  1  0
  6 17  1  0
  9 18  1  0
 10 19  1  0
 11 20  1  0
M  ISO  8  13   8  14   8  15  14  16  14  17  14  18  14  19  14  20   9
M  END
>  <minimizedAffinity>  (1) 
-3.94781995

>  <minimizedRMSD>  (1) 
0.392166048

$$$$
