
     RDKit          3D

 23 24  0  0  0  0  0  0  0  0999 V2000
   45.9490   32.6610   45.5760 C   0  0  0  0  0  0  0  0  0  0  0  0
   45.6750   33.8920   44.8320 C   0  0  0  0  0  0  0  0  0  0  0  0
   46.2300   34.1350   43.5820 C   0  0  0  0  0  0  0  0  0  0  0  0
   45.9320   35.3370   42.9090 C   0  0  0  0  0  0  0  0  0  0  0  0
   45.1010   36.1950   43.5500 N   0  0  0  0  0  0  0  0  0  0  0  0
   44.5720   35.9360   44.7690 C   0  0  0  0  0  0  0  0  0  0  0  0
   44.8670   34.7930   45.3880 N   0  0  0  0  0  0  0  0  0  0  0  0
   46.9120   32.9920   46.7030 C   0  0  0  0  0  0  0  0  0  0  0  0
   46.4910   32.1530   47.8740 C   0  0  0  0  0  0  0  0  0  0  0  0
   45.1610   31.9880   48.2030 C   0  0  0  0  0  0  0  0  0  0  0  0
   45.0670   31.1660   49.3210 C   0  0  0  0  0  0  0  0  0  0  0  0
   46.3620   30.8910   49.5920 N   0  0  0  0  0  0  0  0  0  0  0  0
   47.2300   31.4540   48.7600 N   0  0  0  0  0  0  0  0  0  0  0  0
   46.4015   31.9143   44.9068 H   0  0  0  0  0  0  0  0  0  0  0  0
   45.0148   32.2475   45.9837 H   0  0  0  0  0  0  0  0  0  0  0  0
   46.8983   33.3935   43.1200 H   0  0  0  0  0  0  0  0  0  0  0  0
   46.3508   35.5663   41.9180 H   0  0  0  0  0  0  0  0  0  0  0  0
   43.9016   36.6657   45.2466 H   0  0  0  0  0  0  0  0  0  0  0  0
   47.9428   32.7456   46.4084 H   0  0  0  0  0  0  0  0  0  0  0  0
   46.8879   34.0639   46.9488 H   0  0  0  0  0  0  0  0  0  0  0  0
   44.3110   32.4351   47.6667 H   0  0  0  0  0  0  0  0  0  0  0  0
   44.1654   30.8254   49.8512 H   0  0  0  0  0  0  0  0  0  0  0  0
   46.6519   30.2936   50.3794 H   0  0  0  0  0  0  0  0  0  0  0  0
  1  8  1  0
  2  7  1  0
  2  1  1  0
  3  2  2  0
  4  5  2  0
  4  3  1  0
  5  6  1  0
  6  7  2  0
  8  9  1  0
  9 10  1  0
  9 13  2  0
 10 11  2  0
 11 12  1  0
 13 12  1  0
  1 14  1  0
  1 15  1  0
  3 16  1  0
  4 17  1  0
  6 18  1  0
  8 19  1  0
  8 20  1  0
 10 21  1  0
 11 22  1  0
 12 23  1  0
M  ISO  8  14   8  15   8  16  14  17  14  18  14  19   8  20   8  21  14
M  ISO  2  22  14  23   9
M  END
>  <minimizedAffinity>  (1) 
-4.58467197

>  <minimizedRMSD>  (1) 
6.2207613

$$$$
