
     RDKit          3D

 30 32  0  0  1  0  0  0  0  0999 V2000
   46.8220   33.0090   44.9010 C   0  0  2  0  0  0  0  0  0  0  0  0
   46.5720   31.7200   44.1830 C   0  0  0  0  0  0  0  0  0  0  0  0
   47.2520   30.7460   45.1500 C   0  0  0  0  0  0  0  0  0  0  0  0
   47.0990   31.3610   46.5150 C   0  0  1  0  0  0  0  0  0  0  0  0
   46.2990   32.6470   46.2990 C   0  0  0  0  0  0  0  0  0  0  0  0
   45.6710   35.8390   42.6880 C   0  0  0  0  0  0  0  0  0  0  0  0
   46.4070   34.7100   43.0890 C   0  0  0  0  0  0  0  0  0  0  0  0
   46.1530   34.1840   44.3470 C   0  0  0  0  0  0  0  0  0  0  0  0
   45.2060   34.7990   45.1160 N   0  0  0  0  0  0  0  0  0  0  0  0
   44.5150   35.8800   44.7090 C   0  0  0  0  0  0  0  0  0  0  0  0
   44.7420   36.4030   43.5000 N   0  0  0  0  0  0  0  0  0  0  0  0
   46.2860   30.5040   47.4220 C   0  0  0  0  0  0  0  0  0  0  0  0
   45.5780   29.3620   47.0480 C   0  0  0  0  0  0  0  0  0  0  0  0
   45.0000   28.9360   48.2330 C   0  0  0  0  0  0  0  0  0  0  0  0
   45.3740   29.8050   49.2140 N   0  0  0  0  0  0  0  0  0  0  0  0
   46.1530   30.7600   48.7370 N   0  0  0  0  0  0  0  0  0  0  0  0
   47.8733   33.3279   44.8451 H   0  0  0  0  0  0  0  0  0  0  0  0
   45.4970   31.5108   44.0805 H   0  0  0  0  0  0  0  0  0  0  0  0
   46.9443   31.6841   43.1485 H   0  0  0  0  0  0  0  0  0  0  0  0
   46.7602   29.7627   45.1142 H   0  0  0  0  0  0  0  0  0  0  0  0
   48.3090   30.5856   44.8911 H   0  0  0  0  0  0  0  0  0  0  0  0
   48.0916   31.5082   46.9657 H   0  0  0  0  0  0  0  0  0  0  0  0
   46.5435   33.4174   47.0452 H   0  0  0  0  0  0  0  0  0  0  0  0
   45.2070   32.5510   46.3902 H   0  0  0  0  0  0  0  0  0  0  0  0
   45.8524   36.2744   41.6943 H   0  0  0  0  0  0  0  0  0  0  0  0
   47.1600   34.2585   42.4263 H   0  0  0  0  0  0  0  0  0  0  0  0
   43.7631   36.3333   45.3717 H   0  0  0  0  0  0  0  0  0  0  0  0
   45.4976   28.9075   46.0495 H   0  0  0  0  0  0  0  0  0  0  0  0
   44.3547   28.0542   48.3594 H   0  0  0  0  0  0  0  0  0  0  0  0
   45.0866   29.7274   50.2000 H   0  0  0  0  0  0  0  0  0  0  0  0
  1  5  1  0
  2  1  1  0
  2  3  1  0
  3  4  1  0
  4 12  1  0
  5  4  1  0
  6  7  2  0
  6 11  1  0
  7  8  1  0
  8  1  1  0
  8  9  2  0
 10  9  1  0
 11 10  2  0
 12 16  2  0
 13 12  1  0
 13 14  2  0
 14 15  1  0
 16 15  1  0
  1 17  1  1
  2 18  1  0
  2 19  1  0
  3 20  1  0
  3 21  1  0
  4 22  1  1
  5 23  1  0
  5 24  1  0
  6 25  1  0
  7 26  1  0
 10 27  1  0
 13 28  1  0
 14 29  1  0
 15 30  1  0
M  ISO  8  17  13  18  13  19  13  20  13  21  13  22  13  23  13  24  13
M  ISO  6  25  14  26  14  27  14  28  14  29  14  30   9
M  END
>  <minimizedAffinity>  (1) 
-4.55164528

>  <minimizedRMSD>  (1) 
6.77500391

$$$$
