
     RDKit          3D

 25 27  0  0  0  0  0  0  0  0999 V2000
   45.6570   34.0520   45.3790 C   0  0  0  0  0  0  0  0  0  0  0  0
   44.7540   35.0550   45.6010 C   0  0  0  0  0  0  0  0  0  0  0  0
   44.4400   36.0040   44.6680 C   0  0  0  0  0  0  0  0  0  0  0  0
   45.0890   35.9060   43.4620 N   0  0  0  0  0  0  0  0  0  0  0  0
   45.9690   34.9220   43.2560 C   0  0  0  0  0  0  0  0  0  0  0  0
   46.2950   33.9730   44.1630 N   0  0  0  0  0  0  0  0  0  0  0  0
   45.4830   32.0830   48.4600 C   0  0  0  0  0  0  0  0  0  0  0  0
   46.5550   31.1980   48.2910 C   0  0  0  0  0  0  0  0  0  0  0  0
   47.3480   31.2610   47.1280 C   0  0  0  0  0  0  0  0  0  0  0  0
   47.0160   32.2110   46.2030 N   0  0  0  0  0  0  0  0  0  0  0  0
   45.9730   33.0510   46.3960 C   0  0  0  0  0  0  0  0  0  0  0  0
   45.2180   32.9900   47.5070 N   0  0  0  0  0  0  0  0  0  0  0  0
   46.6910   34.7690   41.9860 C   0  0  0  0  0  0  0  0  0  0  0  0
   47.9980   35.1750   41.8110 C   0  0  0  0  0  0  0  0  0  0  0  0
   48.3600   34.8820   40.5050 C   0  0  0  0  0  0  0  0  0  0  0  0
   47.2680   34.3080   39.9260 N   0  0  0  0  0  0  0  0  0  0  0  0
   46.2720   34.2440   40.8240 N   0  0  0  0  0  0  0  0  0  0  0  0
   44.2548   35.1006   46.5802 H   0  0  0  0  0  0  0  0  0  0  0  0
   43.7092   36.8005   44.8720 H   0  0  0  0  0  0  0  0  0  0  0  0
   44.8627   32.0351   49.3672 H   0  0  0  0  0  0  0  0  0  0  0  0
   46.7785   30.4520   49.0679 H   0  0  0  0  0  0  0  0  0  0  0  0
   48.1953   30.5771   46.9717 H   0  0  0  0  0  0  0  0  0  0  0  0
   48.6380   35.6466   42.5712 H   0  0  0  0  0  0  0  0  0  0  0  0
   49.3338   35.0744   40.0311 H   0  0  0  0  0  0  0  0  0  0  0  0
   47.2151   33.9756   38.9526 H   0  0  0  0  0  0  0  0  0  0  0  0
  1  2  2  0
  1 11  1  0
  3  2  1  0
  4  3  2  0
  5  4  1  0
  5  6  2  0
  6  1  1  0
  8  7  2  0
  9  8  1  0
 10 11  1  0
 10  9  2  0
 11 12  2  0
 12  7  1  0
 13  5  1  0
 14 13  1  0
 15 14  2  0
 16 15  1  0
 16 17  1  0
 17 13  2  0
  2 18  1  0
  3 19  1  0
  7 20  1  0
  8 21  1  0
  9 22  1  0
 14 23  1  0
 15 24  1  0
 16 25  1  0
M  ISO  8  18  14  19  14  20  14  21  14  22  14  23  14  24  14  25   9
M  END
>  <minimizedAffinity>  (1) 
-5.68506002

>  <minimizedRMSD>  (1) 
7.07204723

$$$$
