
     RDKit          3D

 25 27  0  0  0  0  0  0  0  0999 V2000
   45.3440   34.2750   44.9880 C   0  0  0  0  0  0  0  0  0  0  0  0
   45.1740   33.6570   43.7460 C   0  0  0  0  0  0  0  0  0  0  0  0
   45.6460   32.3690   43.5150 C   0  0  0  0  0  0  0  0  0  0  0  0
   46.2770   31.7450   44.5560 N   0  0  0  0  0  0  0  0  0  0  0  0
   46.4370   32.3500   45.7560 C   0  0  0  0  0  0  0  0  0  0  0  0
   45.9800   33.5970   45.9780 N   0  0  0  0  0  0  0  0  0  0  0  0
   47.1180   31.6480   46.8400 C   0  0  0  0  0  0  0  0  0  0  0  0
   47.3030   30.2950   46.8160 C   0  0  0  0  0  0  0  0  0  0  0  0
   47.9350   29.5980   47.8100 C   0  0  0  0  0  0  0  0  0  0  0  0
   48.3890   30.3340   48.8650 N   0  0  0  0  0  0  0  0  0  0  0  0
   48.2060   31.6740   48.8890 C   0  0  0  0  0  0  0  0  0  0  0  0
   47.5800   32.3750   47.9070 N   0  0  0  0  0  0  0  0  0  0  0  0
   44.4870   34.4050   42.6980 C   0  0  0  0  0  0  0  0  0  0  0  0
   44.3120   34.0030   41.3890 C   0  0  0  0  0  0  0  0  0  0  0  0
   43.6030   35.0630   40.8120 C   0  0  0  0  0  0  0  0  0  0  0  0
   43.3780   36.0320   41.7410 N   0  0  0  0  0  0  0  0  0  0  0  0
   43.9280   35.6110   42.8900 N   0  0  0  0  0  0  0  0  0  0  0  0
   44.9686   35.2944   45.1609 H   0  0  0  0  0  0  0  0  0  0  0  0
   45.5178   31.8752   42.5405 H   0  0  0  0  0  0  0  0  0  0  0  0
   46.9228   29.7342   45.9494 H   0  0  0  0  0  0  0  0  0  0  0  0
   48.0691   28.5073   47.7610 H   0  0  0  0  0  0  0  0  0  0  0  0
   48.5876   32.2311   49.7573 H   0  0  0  0  0  0  0  0  0  0  0  0
   44.6496   33.0708   40.9125 H   0  0  0  0  0  0  0  0  0  0  0  0
   43.2759   35.1065   39.7627 H   0  0  0  0  0  0  0  0  0  0  0  0
   42.8796   36.9207   41.5903 H   0  0  0  0  0  0  0  0  0  0  0  0
  1  6  2  0
  2  1  1  0
  3  2  2  0
  3  4  1  0
  4  5  2  0
  5  6  1  0
  5  7  1  0
  7 12  1  0
  8  7  2  0
  8  9  1  0
  9 10  2  0
 10 11  1  0
 12 11  2  0
 13 17  2  0
 13  2  1  0
 14 13  1  0
 15 14  2  0
 15 16  1  0
 16 17  1  0
  1 18  1  0
  3 19  1  0
  8 20  1  0
  9 21  1  0
 11 22  1  0
 14 23  1  0
 15 24  1  0
 16 25  1  0
M  ISO  8  18  14  19  14  20  14  21  14  22  14  23  14  24  14  25   9
M  END
>  <minimizedAffinity>  (1) 
-4.50324011

>  <minimizedRMSD>  (1) 
2.26527667

$$$$
