
     RDKit          3D

 30 32  0  0  0  0  0  0  0  0999 V2000
   45.1950   32.4970   40.4010 Cl  0  0  0  0  0  0  0  0  0  0  0  0
   46.5860   33.4780   40.0310 C   0  0  0  0  0  0  0  0  0  0  0  0
   47.2720   34.1350   41.0180 C   0  0  0  0  0  0  0  0  0  0  0  0
   48.3830   34.9240   40.7590 C   0  0  0  0  0  0  0  0  0  0  0  0
   48.7640   35.0100   39.4320 C   0  0  0  0  0  0  0  0  0  0  0  0
   48.0860   34.3580   38.4360 C   0  0  0  0  0  0  0  0  0  0  0  0
   47.0080   33.5980   38.7200 C   0  0  0  0  0  0  0  0  0  0  0  0
   46.8300   32.8680   44.4600 C   0  0  0  0  0  0  0  0  0  0  0  0
   45.9290   33.8020   45.0110 C   0  0  0  0  0  0  0  0  0  0  0  0
   45.4920   34.8360   44.2060 C   0  0  0  0  0  0  0  0  0  0  0  0
   45.9450   34.9090   42.9290 N   0  0  0  0  0  0  0  0  0  0  0  0
   46.8170   34.0010   42.4090 C   0  0  0  0  0  0  0  0  0  0  0  0
   47.2520   32.9850   43.1860 N   0  0  0  0  0  0  0  0  0  0  0  0
   44.5300   35.8930   44.6830 C   0  0  0  0  0  0  0  0  0  0  0  0
   45.0160   37.1500   44.4230 F   0  0  0  0  0  0  0  0  0  0  0  0
   43.3230   35.7270   44.0110 F   0  0  0  0  0  0  0  0  0  0  0  0
   44.3570   35.6940   46.0220 F   0  0  0  0  0  0  0  0  0  0  0  0
   46.2560   32.8860   37.6930 C   0  0  0  0  0  0  0  0  0  0  0  0
   46.5400   31.6080   37.2280 C   0  0  0  0  0  0  0  0  0  0  0  0
   45.6310   31.2540   36.2660 C   0  0  0  0  0  0  0  0  0  0  0  0
   44.7940   32.3110   36.1450 N   0  0  0  0  0  0  0  0  0  0  0  0
   45.1720   33.2580   36.9870 N   0  0  0  0  0  0  0  0  0  0  0  0
   48.9269   35.4483   41.5585 H   0  0  0  0  0  0  0  0  0  0  0  0
   49.6394   35.6215   39.1680 H   0  0  0  0  0  0  0  0  0  0  0  0
   48.4241   34.4551   37.3938 H   0  0  0  0  0  0  0  0  0  0  0  0
   47.1929   32.0335   45.0780 H   0  0  0  0  0  0  0  0  0  0  0  0
   45.5841   33.7100   46.0515 H   0  0  0  0  0  0  0  0  0  0  0  0
   47.3691   30.9761   37.5790 H   0  0  0  0  0  0  0  0  0  0  0  0
   45.5898   30.3071   35.7077 H   0  0  0  0  0  0  0  0  0  0  0  0
   43.9922   32.3684   35.5011 H   0  0  0  0  0  0  0  0  0  0  0  0
  2  1  1  0
  2  3  2  0
  3 12  1  0
  4  3  1  0
  5  4  2  0
  6  7  2  0
  6  5  1  0
  7  2  1  0
  8  9  2  0
 10 14  1  0
 10  9  1  0
 11 10  2  0
 12 11  1  0
 12 13  2  0
 13  8  1  0
 14 17  1  0
 15 14  1  0
 16 14  1  0
 18  7  1  0
 19 18  1  0
 20 19  2  0
 21 20  1  0
 21 22  1  0
 22 18  2  0
  4 23  1  0
  5 24  1  0
  6 25  1  0
  8 26  1  0
  9 27  1  0
 19 28  1  0
 20 29  1  0
 21 30  1  0
M  ISO  8  23  14  24  14  25  14  26  14  27  14  28  14  29  14  30   9
M  END
>  <minimizedAffinity>  (1) 
-5.62885857

>  <minimizedRMSD>  (1) 
1.33795273

$$$$
