
     RDKit          3D

 27 29  0  0  1  0  0  0  0  0999 V2000
   45.5690   33.4600   41.8410 C   0  0  1  0  0  0  0  0  0  0  0  0
   45.5070   34.2210   40.6160 C   0  0  0  0  0  0  0  0  0  0  0  0
   46.8560   33.8920   41.1330 C   0  0  1  0  0  0  0  0  0  0  0  0
   44.5760   35.3060   43.2370 C   0  0  0  0  0  0  0  0  0  0  0  0
   45.2740   34.0620   43.1670 C   0  0  0  0  0  0  0  0  0  0  0  0
   45.6690   33.4600   44.3480 C   0  0  0  0  0  0  0  0  0  0  0  0
   45.3610   34.1010   45.5140 N   0  0  0  0  0  0  0  0  0  0  0  0
   44.6970   35.2790   45.5540 C   0  0  0  0  0  0  0  0  0  0  0  0
   44.2900   35.9070   44.4120 N   0  0  0  0  0  0  0  0  0  0  0  0
   47.7160   34.9150   41.7640 C   0  0  0  0  0  0  0  0  0  0  0  0
   49.0610   34.2830   42.0090 C   0  0  0  0  0  0  0  0  0  0  0  0
   49.4670   33.0280   41.6090 C   0  0  0  0  0  0  0  0  0  0  0  0
   50.7660   32.8090   42.0200 C   0  0  0  0  0  0  0  0  0  0  0  0
   51.1130   33.9530   42.6650 N   0  0  0  0  0  0  0  0  0  0  0  0
   50.1110   34.8260   42.6620 N   0  0  0  0  0  0  0  0  0  0  0  0
   45.1041   32.5175   42.1659 H   0  0  0  0  0  0  0  0  0  0  0  0
   45.1562   35.2632   40.6435 H   0  0  0  0  0  0  0  0  0  0  0  0
   45.0054   34.0643   39.6496 H   0  0  0  0  0  0  0  0  0  0  0  0
   47.7524   33.4074   40.7187 H   0  0  0  0  0  0  0  0  0  0  0  0
   44.2605   35.7913   42.3016 H   0  0  0  0  0  0  0  0  0  0  0  0
   46.2101   32.5023   44.3481 H   0  0  0  0  0  0  0  0  0  0  0  0
   44.4802   35.7412   46.5283 H   0  0  0  0  0  0  0  0  0  0  0  0
   47.8237   35.7809   41.0942 H   0  0  0  0  0  0  0  0  0  0  0  0
   47.2737   35.2660   42.7081 H   0  0  0  0  0  0  0  0  0  0  0  0
   48.8499   32.3107   41.0480 H   0  0  0  0  0  0  0  0  0  0  0  0
   51.3813   31.9111   41.8612 H   0  0  0  0  0  0  0  0  0  0  0  0
   52.0317   34.1216   43.0992 H   0  0  0  0  0  0  0  0  0  0  0  0
  1  5  1  0
  2  3  1  0
  2  1  1  0
  3 10  1  0
  3  1  1  0
  4  9  2  0
  5  4  1  0
  5  6  2  0
  6  7  1  0
  7  8  2  0
  9  8  1  0
 10 11  1  0
 11 15  2  0
 12 11  1  0
 12 13  2  0
 13 14  1  0
 15 14  1  0
  1 16  1  6
  2 17  1  0
  2 18  1  0
  3 19  1  6
  4 20  1  0
  6 21  1  0
  8 22  1  0
 10 23  1  0
 10 24  1  0
 12 25  1  0
 13 26  1  0
 14 27  1  0
M  ISO  8  16  13  17  13  18  13  19  13  20  14  21  14  22  14  23   8
M  ISO  4  24   8  25  14  26  14  27   9
M  END
>  <minimizedAffinity>  (1) 
-4.76907015

>  <minimizedRMSD>  (1) 
2.14883208

$$$$
