
     RDKit          3D

 40 44  0  0  0  0  0  0  0  0999 V2000
   44.4380   35.6920   44.5940 C   0  0  0  0  0  0  0  0  0  0  0  0
   44.5960   35.2480   43.2950 C   0  0  0  0  0  0  0  0  0  0  0  0
   45.2610   34.0040   43.0990 C   0  0  0  0  0  0  0  0  0  0  0  0
   45.6910   33.3450   44.1870 N   0  0  0  0  0  0  0  0  0  0  0  0
   45.5260   33.7930   45.4330 C   0  0  0  0  0  0  0  0  0  0  0  0
   44.8850   34.9950   45.6340 N   0  0  0  0  0  0  0  0  0  0  0  0
   45.9680   33.1250   46.6400 C   0  0  0  0  0  0  0  0  0  0  0  0
   45.1190   32.9450   47.7380 C   0  0  0  0  0  0  0  0  0  0  0  0
   45.8250   32.2790   48.7320 C   0  0  0  0  0  0  0  0  0  0  0  0
   47.0710   32.0730   48.2180 N   0  0  0  0  0  0  0  0  0  0  0  0
   47.1290   32.5830   46.9790 N   0  0  0  0  0  0  0  0  0  0  0  0
   48.1880   31.4310   48.8230 C   0  0  0  0  0  0  0  0  0  0  0  0
   49.4060   31.7740   49.4200 C   0  0  0  0  0  0  0  0  0  0  0  0
   50.0210   30.6000   49.8030 C   0  0  0  0  0  0  0  0  0  0  0  0
   49.2140   29.5820   49.4540 N   0  0  0  0  0  0  0  0  0  0  0  0
   48.1320   30.0760   48.8760 N   0  0  0  0  0  0  0  0  0  0  0  0
   44.1640   35.9070   42.1550 O   0  0  0  0  0  0  0  0  0  0  0  0
   43.4110   35.3290   41.1440 C   0  0  0  0  0  0  0  0  0  0  0  0
   43.8830   34.5900   40.0790 C   0  0  0  0  0  0  0  0  0  0  0  0
   43.0010   34.0830   39.1580 C   0  0  0  0  0  0  0  0  0  0  0  0
   41.6300   34.2820   39.2470 C   0  0  0  0  0  0  0  0  0  0  0  0
   40.8340   33.7610   38.3170 N   0  0  0  0  0  0  0  0  0  0  0  0
   39.5000   33.9410   38.3800 C   0  0  0  0  0  0  0  0  0  0  0  0
   38.9840   34.6690   39.4200 C   0  0  0  0  0  0  0  0  0  0  0  0
   39.8190   35.2240   40.4120 C   0  0  0  0  0  0  0  0  0  0  0  0
   41.1850   35.0160   40.3080 C   0  0  0  0  0  0  0  0  0  0  0  0
   42.0360   35.5620   41.2850 C   0  0  0  0  0  0  0  0  0  0  0  0
   43.9276   36.6499   44.7727 H   0  0  0  0  0  0  0  0  0  0  0  0
   45.4173   33.5964   42.0893 H   0  0  0  0  0  0  0  0  0  0  0  0
   44.0715   33.2746   47.8029 H   0  0  0  0  0  0  0  0  0  0  0  0
   45.4565   31.9807   49.7246 H   0  0  0  0  0  0  0  0  0  0  0  0
   49.8003   32.7915   49.5584 H   0  0  0  0  0  0  0  0  0  0  0  0
   50.9964   30.5121   50.3039 H   0  0  0  0  0  0  0  0  0  0  0  0
   49.4070   28.5825   49.6111 H   0  0  0  0  0  0  0  0  0  0  0  0
   44.9622   34.4078   39.9685 H   0  0  0  0  0  0  0  0  0  0  0  0
   43.3960   33.4957   38.3159 H   0  0  0  0  0  0  0  0  0  0  0  0
   38.8389   33.5124   37.6124 H   0  0  0  0  0  0  0  0  0  0  0  0
   37.8967   34.8236   39.4824 H   0  0  0  0  0  0  0  0  0  0  0  0
   39.3976   35.8058   41.2450 H   0  0  0  0  0  0  0  0  0  0  0  0
   41.6386   36.1486   42.1264 H   0  0  0  0  0  0  0  0  0  0  0  0
  1  6  2  0
  2  1  1  0
  3  2  2  0
  3  4  1  0
  4  5  2  0
  5  6  1  0
  5  7  1  0
  7 11  2  0
  7  8  1  0
  8  9  2  0
 10  9  1  0
 10 12  1  0
 11 10  1  0
 12 16  2  0
 12 13  1  0
 13 14  2  0
 15 14  1  0
 16 15  1  0
 17  2  1  0
 18 27  1  0
 18 17  1  0
 19 18  2  0
 20 21  2  0
 20 19  1  0
 21 26  1  0
 22 23  2  0
 22 21  1  0
 23 24  1  0
 24 25  2  0
 26 25  1  0
 26 27  2  0
  1 28  1  0
  3 29  1  0
  8 30  1  0
  9 31  1  0
 13 32  1  0
 14 33  1  0
 15 34  1  0
 19 35  1  0
 20 36  1  0
 23 37  1  0
 24 38  1  0
 25 39  1  0
 27 40  1  0
M  END
>  <minimizedAffinity>  (1) 
-7.91762924

>  <minimizedRMSD>  (1) 
1.44794428

$$$$
