
     RDKit          3D

 21 22  0  0  0  0  0  0  0  0999 V2000
   43.0840   33.8620   40.9890 C   0  0  0  0  0  0  0  0  0  0  0  0
   41.9680   34.7890   40.6610 C   0  0  0  0  0  0  0  0  0  0  0  0
   41.1210   35.5520   41.4370 C   0  0  0  0  0  0  0  0  0  0  0  0
   40.2590   36.2340   40.6010 C   0  0  0  0  0  0  0  0  0  0  0  0
   40.5900   35.8820   39.3450 N   0  0  0  0  0  0  0  0  0  0  0  0
   41.5840   35.0420   39.3840 N   0  0  0  0  0  0  0  0  0  0  0  0
   44.4940   34.8460   41.5270 S   0  0  0  0  0  0  0  0  0  0  0  0
   44.4090   35.6030   44.2230 C   0  0  0  0  0  0  0  0  0  0  0  0
   44.7700   34.6380   43.2860 C   0  0  0  0  0  0  0  0  0  0  0  0
   45.3700   33.4570   43.7140 C   0  0  0  0  0  0  0  0  0  0  0  0
   45.5830   33.2950   45.0670 N   0  0  0  0  0  0  0  0  0  0  0  0
   45.2180   34.2540   45.9250 C   0  0  0  0  0  0  0  0  0  0  0  0
   44.6390   35.3980   45.5370 N   0  0  0  0  0  0  0  0  0  0  0  0
   43.3563   33.2772   40.0980 H   0  0  0  0  0  0  0  0  0  0  0  0
   42.7792   33.1676   41.7858 H   0  0  0  0  0  0  0  0  0  0  0  0
   41.1304   35.6079   42.5355 H   0  0  0  0  0  0  0  0  0  0  0  0
   39.4601   36.9276   40.9021 H   0  0  0  0  0  0  0  0  0  0  0  0
   40.1300   36.2230   38.4888 H   0  0  0  0  0  0  0  0  0  0  0  0
   43.9337   36.5376   43.8903 H   0  0  0  0  0  0  0  0  0  0  0  0
   45.6649   32.6777   42.9959 H   0  0  0  0  0  0  0  0  0  0  0  0
   45.4016   34.0961   46.9980 H   0  0  0  0  0  0  0  0  0  0  0  0
  1  7  1  0
  2  1  1  0
  2  3  1  0
  4  3  2  0
  5  6  1  0
  5  4  1  0
  6  2  2  0
  7  9  1  0
  8 13  2  0
  9 10  2  0
  9  8  1  0
 10 11  1  0
 11 12  2  0
 13 12  1  0
  1 14  1  0
  1 15  1  0
  3 16  1  0
  4 17  1  0
  5 18  1  0
  8 19  1  0
 10 20  1  0
 12 21  1  0
M  ISO  8  14   8  15   8  16  14  17  14  18   9  19  14  20  14  21  14
M  END
>  <minimizedAffinity>  (1) 
-3.90603137

>  <minimizedRMSD>  (1) 
2.07219553

$$$$
