
     RDKit          3D

 33 35  0  0  0  0  0  0  0  0999 V2000
   46.3150   32.0550   47.2920 C   0  0  0  0  0  0  0  0  0  0  0  0
   45.1980   32.3050   48.1010 C   0  0  0  0  0  0  0  0  0  0  0  0
   44.6450   31.3940   48.9570 C   0  0  0  0  0  0  0  0  0  0  0  0
   45.2110   30.1590   49.0280 C   0  0  0  0  0  0  0  0  0  0  0  0
   46.3020   29.9260   48.2360 C   0  0  0  0  0  0  0  0  0  0  0  0
   46.9070   30.8400   47.3460 C   0  0  0  0  0  0  0  0  0  0  0  0
   48.0740   30.1190   46.8290 C   0  0  0  0  0  0  0  0  0  0  0  0
   49.1220   29.5570   47.5310 C   0  0  0  0  0  0  0  0  0  0  0  0
   49.9860   28.9200   46.7440 N   0  0  0  0  0  0  0  0  0  0  0  0
   49.5360   29.0450   45.5100 C   0  0  0  0  0  0  0  0  0  0  0  0
   48.4280   29.7440   45.5970 N   0  0  0  0  0  0  0  0  0  0  0  0
   46.9140   32.9470   46.2960 C   0  0  0  0  0  0  0  0  0  0  0  0
   46.3450   32.7320   44.9300 C   0  0  0  0  0  0  0  0  0  0  0  0
   44.5050   35.9380   44.7390 C   0  0  0  0  0  0  0  0  0  0  0  0
   44.8990   36.4140   43.4690 C   0  0  0  0  0  0  0  0  0  0  0  0
   45.7700   35.6340   42.7380 C   0  0  0  0  0  0  0  0  0  0  0  0
   46.1960   34.4820   43.2560 N   0  0  0  0  0  0  0  0  0  0  0  0
   45.7870   34.0650   44.4860 C   0  0  0  0  0  0  0  0  0  0  0  0
   44.9620   34.7710   45.2180 N   0  0  0  0  0  0  0  0  0  0  0  0
   44.7353   33.3013   48.0431 H   0  0  0  0  0  0  0  0  0  0  0  0
   43.7687   31.6517   49.5700 H   0  0  0  0  0  0  0  0  0  0  0  0
   44.8088   29.3811   49.6936 H   0  0  0  0  0  0  0  0  0  0  0  0
   46.7537   28.9250   48.2990 H   0  0  0  0  0  0  0  0  0  0  0  0
   49.2311   29.6281   48.6233 H   0  0  0  0  0  0  0  0  0  0  0  0
   50.8396   28.4257   47.0405 H   0  0  0  0  0  0  0  0  0  0  0  0
   49.9958   28.6449   44.5943 H   0  0  0  0  0  0  0  0  0  0  0  0
   46.7291   33.9888   46.5968 H   0  0  0  0  0  0  0  0  0  0  0  0
   47.9911   32.7282   46.2513 H   0  0  0  0  0  0  0  0  0  0  0  0
   47.1325   32.3995   44.2377 H   0  0  0  0  0  0  0  0  0  0  0  0
   45.5650   31.9564   44.9402 H   0  0  0  0  0  0  0  0  0  0  0  0
   43.8100   36.5356   45.3472 H   0  0  0  0  0  0  0  0  0  0  0  0
   44.5249   37.3715   43.0775 H   0  0  0  0  0  0  0  0  0  0  0  0
   46.1082   35.9575   41.7425 H   0  0  0  0  0  0  0  0  0  0  0  0
  1  6  1  0
  1  2  2  0
  2  3  1  0
  3  4  2  0
  5  4  1  0
  6  5  2  0
  7  6  1  0
  7  8  2  0
  9  8  1  0
 10 11  2  0
 10  9  1  0
 11  7  1  0
 12  1  1  0
 13 12  1  0
 14 19  2  0
 15 14  1  0
 16 17  1  0
 16 15  2  0
 17 18  2  0
 18 13  1  0
 18 19  1  0
  2 20  1  0
  3 21  1  0
  4 22  1  0
  5 23  1  0
  8 24  1  0
  9 25  1  0
 10 26  1  0
 12 27  1  0
 12 28  1  0
 13 29  1  0
 13 30  1  0
 14 31  1  0
 15 32  1  0
 16 33  1  0
M  ISO  8  20  14  21  14  22  14  23  14  24  14  25   9  26  14  27   8
M  ISO  6  28   8  29   8  30   8  31  14  32  14  33  14
M  END
>  <minimizedAffinity>  (1) 
-4.74658489

>  <minimizedRMSD>  (1) 
1.78406847

$$$$
