
     RDKit          3D

 30 32  0  0  1  0  0  0  0  0999 V2000
   48.1430   34.8490   42.1530 C   0  0  2  0  0  0  0  0  0  0  0  0
   46.7680   34.1750   42.2370 C   0  0  1  0  0  0  0  0  0  0  0  0
   47.1760   32.8550   42.2900 O   0  0  0  0  0  0  0  0  0  0  0  0
   48.0430   32.7210   41.2110 C   0  0  0  0  0  0  0  0  0  0  0  0
   48.5990   34.0960   40.8890 C   0  0  1  0  0  0  0  0  0  0  0  0
   44.4910   35.9120   44.7320 C   0  0  0  0  0  0  0  0  0  0  0  0
   45.1440   35.7070   43.5110 C   0  0  0  0  0  0  0  0  0  0  0  0
   45.9920   34.6150   43.3960 C   0  0  0  0  0  0  0  0  0  0  0  0
   46.1440   33.7960   44.4860 N   0  0  0  0  0  0  0  0  0  0  0  0
   45.4990   34.0210   45.6520 C   0  0  0  0  0  0  0  0  0  0  0  0
   44.6760   35.0760   45.7720 N   0  0  0  0  0  0  0  0  0  0  0  0
   48.9570   34.4150   43.1580 O   0  0  0  0  0  0  0  0  0  0  0  0
   47.9220   34.6950   39.8200 O   0  0  0  0  0  0  0  0  0  0  0  0
   47.9670   34.2090   38.5170 C   0  0  0  0  0  0  0  0  0  0  0  0
   48.7700   34.2530   37.3930 C   0  0  0  0  0  0  0  0  0  0  0  0
   48.1850   33.5200   36.4270 N   0  0  0  0  0  0  0  0  0  0  0  0
   47.0370   33.0160   36.9140 C   0  0  0  0  0  0  0  0  0  0  0  0
   46.8920   33.4340   38.1980 N   0  0  0  0  0  0  0  0  0  0  0  0
   48.1464   35.9487   42.1787 H   0  0  0  0  0  0  0  0  0  0  0  0
   46.0699   34.4014   41.4176 H   0  0  0  0  0  0  0  0  0  0  0  0
   48.8639   32.0374   41.4733 H   0  0  0  0  0  0  0  0  0  0  0  0
   47.5122   32.3077   40.3407 H   0  0  0  0  0  0  0  0  0  0  0  0
   49.6698   34.0860   40.6375 H   0  0  0  0  0  0  0  0  0  0  0  0
   43.8141   36.7718   44.8444 H   0  0  0  0  0  0  0  0  0  0  0  0
   44.9890   36.3932   42.6654 H   0  0  0  0  0  0  0  0  0  0  0  0
   45.6479   33.3401   46.5030 H   0  0  0  0  0  0  0  0  0  0  0  0
   48.5471   34.6335   44.0323 H   0  0  0  0  0  0  0  0  0  0  0  0
   49.7235   34.7941   37.3031 H   0  0  0  0  0  0  0  0  0  0  0  0
   48.5537   33.3706   35.4769 H   0  0  0  0  0  0  0  0  0  0  0  0
   46.3336   32.3731   36.3645 H   0  0  0  0  0  0  0  0  0  0  0  0
  1  2  1  0
  1 12  1  0
  2  3  1  0
  2  8  1  0
  4  3  1  0
  5  4  1  0
  5  1  1  0
  6 11  2  0
  7  6  1  0
  8  7  2  0
  8  9  1  0
  9 10  2  0
 10 11  1  0
 13  5  1  0
 14 13  1  0
 15 14  2  0
 16 17  1  0
 16 15  1  0
 17 18  2  0
 18 14  1  0
  1 19  1  6
  2 20  1  6
  4 21  1  0
  4 22  1  0
  5 23  1  6
  6 24  1  0
  7 25  1  0
 10 26  1  0
 12 27  1  0
 15 28  1  0
 16 29  1  0
 17 30  1  0
M  ISO  8  19  13  20  13  21  13  22  13  23  13  24  14  25  14  26  14
M  ISO  4  27   3  28  14  29   9  30  14
M  END
>  <minimizedAffinity>  (1) 
-5.20268154

>  <minimizedRMSD>  (1) 
1.85944057

$$$$
