
     RDKit          3D

 23 24  0  0  0  0  0  0  0  0999 V2000
   47.9290   34.5340   42.4160 C   0  0  0  0  0  0  0  0  0  0  0  0
   48.0190   33.5230   43.4060 C   0  0  0  0  0  0  0  0  0  0  0  0
   46.9550   33.4180   44.3190 C   0  0  0  0  0  0  0  0  0  0  0  0
   45.9160   34.2800   44.2040 N   0  0  0  0  0  0  0  0  0  0  0  0
   45.8690   35.2280   43.2460 C   0  0  0  0  0  0  0  0  0  0  0  0
   46.8680   35.3490   42.3650 N   0  0  0  0  0  0  0  0  0  0  0  0
   47.0060   32.3910   45.3550 C   0  0  0  0  0  0  0  0  0  0  0  0
   46.7260   32.6360   46.6840 C   0  0  0  0  0  0  0  0  0  0  0  0
   46.8920   31.4320   47.2730 N   0  0  0  0  0  0  0  0  0  0  0  0
   47.2540   30.4990   46.3440 C   0  0  0  0  0  0  0  0  0  0  0  0
   47.3230   31.1210   45.1310 N   0  0  0  0  0  0  0  0  0  0  0  0
   49.0680   34.6250   41.4600 C   0  0  0  0  0  0  0  0  0  0  0  0
   49.1430   33.5140   40.6610 F   0  0  0  0  0  0  0  0  0  0  0  0
   48.9280   35.7830   40.7140 F   0  0  0  0  0  0  0  0  0  0  0  0
   50.2610   34.7910   42.1740 F   0  0  0  0  0  0  0  0  0  0  0  0
   44.7120   36.1560   43.1510 C   0  0  0  0  0  0  0  0  0  0  0  0
   44.0520   36.0190   41.9590 F   0  0  0  0  0  0  0  0  0  0  0  0
   45.1350   37.4810   43.3510 F   0  0  0  0  0  0  0  0  0  0  0  0
   43.7970   35.9330   44.1680 F   0  0  0  0  0  0  0  0  0  0  0  0
   48.8861   32.8482   43.4576 H   0  0  0  0  0  0  0  0  0  0  0  0
   46.4359   33.5877   47.1531 H   0  0  0  0  0  0  0  0  0  0  0  0
   46.7640   31.2446   48.2777 H   0  0  0  0  0  0  0  0  0  0  0  0
   47.4544   29.4351   46.5386 H   0  0  0  0  0  0  0  0  0  0  0  0
  1  2  2  0
  2  3  1  0
  3  7  1  0
  4  3  2  0
  5  4  1  0
  6  1  1  0
  6  5  2  0
  7  8  2  0
  8  9  1  0
 10  9  1  0
 11  7  1  0
 11 10  2  0
 12 15  1  0
 12  1  1  0
 13 12  1  0
 14 12  1  0
 16  5  1  0
 16 18  1  0
 16 19  1  0
 17 16  1  0
  2 20  1  0
  8 21  1  0
  9 22  1  0
 10 23  1  0
M  ISO  4  20  14  21  14  22   9  23  14
M  END
>  <minimizedAffinity>  (1) 
-5.59206676

>  <minimizedRMSD>  (1) 
1.07220805

$$$$
