
     RDKit          3D

 39 42  0  0  0  0  0  0  0  0999 V2000
   47.7520   31.0310   45.9880 C   0  0  0  0  0  0  0  0  0  0  0  0
   46.9940   32.0610   45.4640 C   0  0  0  0  0  0  0  0  0  0  0  0
   45.9450   32.5160   46.2180 C   0  0  0  0  0  0  0  0  0  0  0  0
   45.6230   31.9960   47.4530 C   0  0  0  0  0  0  0  0  0  0  0  0
   44.6910   32.2120   48.4120 N   0  0  0  0  0  0  0  0  0  0  0  0
   44.8790   31.3610   49.4490 C   0  0  0  0  0  0  0  0  0  0  0  0
   45.9460   30.6060   49.1280 N   0  0  0  0  0  0  0  0  0  0  0  0
   46.4190   30.9720   47.9190 C   0  0  0  0  0  0  0  0  0  0  0  0
   47.4710   30.4720   47.2280 C   0  0  0  0  0  0  0  0  0  0  0  0
   47.2620   34.4100   42.6820 C   0  0  0  0  0  0  0  0  0  0  0  0
   47.9190   33.6610   41.6970 C   0  0  0  0  0  0  0  0  0  0  0  0
   48.2560   32.3440   42.0320 C   0  0  0  0  0  0  0  0  0  0  0  0
   47.9430   31.8590   43.2570 N   0  0  0  0  0  0  0  0  0  0  0  0
   47.3080   32.6290   44.1660 C   0  0  0  0  0  0  0  0  0  0  0  0
   46.9640   33.8880   43.8980 N   0  0  0  0  0  0  0  0  0  0  0  0
   48.1950   34.3280   40.4050 C   0  0  0  0  0  0  0  0  0  0  0  0
   48.7560   35.5360   40.7220 F   0  0  0  0  0  0  0  0  0  0  0  0
   47.0080   34.4890   39.7460 F   0  0  0  0  0  0  0  0  0  0  0  0
   49.0630   33.4870   39.6870 F   0  0  0  0  0  0  0  0  0  0  0  0
   48.2290   29.4430   47.7520 O   0  0  0  0  0  0  0  0  0  0  0  0
   49.8200   28.2150   49.3920 O   0  0  0  0  0  0  0  0  0  0  0  0
   49.4450   29.6140   48.9090 P   0  0  2  0  0  0  0  0  0  0  0  0
   48.7600   30.4230   50.2450 O   0  0  0  0  0  0  0  0  0  0  0  0
   50.7920   30.4220   48.3560 O   0  0  0  0  0  0  0  0  0  0  0  0
   51.5960   31.1280   49.2410 C   0  0  0  0  0  0  0  0  0  0  0  0
   52.7350   31.8010   48.9080 C   0  0  0  0  0  0  0  0  0  0  0  0
   53.2890   32.3810   49.9680 N   0  0  0  0  0  0  0  0  0  0  0  0
   52.4880   32.0740   51.0130 C   0  0  0  0  0  0  0  0  0  0  0  0
   51.4650   31.3180   50.5770 N   0  0  0  0  0  0  0  0  0  0  0  0
   48.6015   30.6431   45.4068 H   0  0  0  0  0  0  0  0  0  0  0  0
   45.3300   33.3359   45.8186 H   0  0  0  0  0  0  0  0  0  0  0  0
   43.9462   32.9216   48.3601 H   0  0  0  0  0  0  0  0  0  0  0  0
   44.2796   31.2993   50.3693 H   0  0  0  0  0  0  0  0  0  0  0  0
   46.9799   35.4505   42.4631 H   0  0  0  0  0  0  0  0  0  0  0  0
   48.7738   31.7047   41.3018 H   0  0  0  0  0  0  0  0  0  0  0  0
   49.0999   30.0215   51.0837 H   0  0  0  0  0  0  0  0  0  0  0  0
   53.1443   31.8568   47.8885 H   0  0  0  0  0  0  0  0  0  0  0  0
   54.1495   32.9467   49.9889 H   0  0  0  0  0  0  0  0  0  0  0  0
   52.6477   32.3919   52.0539 H   0  0  0  0  0  0  0  0  0  0  0  0
  1  9  2  0
  2  1  1  0
  2  3  2  0
  3  4  1  0
  4  8  2  0
  4  5  1  0
  5  6  1  0
  7  6  2  0
  8  7  1  0
  9 20  1  0
  9  8  1  0
 10 15  2  0
 11 12  2  0
 11 10  1  0
 12 13  1  0
 13 14  2  0
 14  2  1  0
 15 14  1  0
 16 17  1  0
 16 11  1  0
 18 16  1  0
 19 16  1  0
 20 22  1  0
 22 21  2  0
 22 23  1  0
 24 22  1  0
 24 25  1  0
 25 29  1  0
 26 25  2  0
 26 27  1  0
 27 28  1  0
 29 28  2  0
  1 30  1  0
  3 31  1  0
  5 32  1  0
  6 33  1  0
 10 34  1  0
 12 35  1  0
 23 36  1  0
 26 37  1  0
 27 38  1  0
 28 39  1  0
M  ISO  8  30  14  31  14  32   9  33  14  34  14  35  14  36   3  37  14
M  ISO  2  38   9  39  14
M  END
>  <minimizedAffinity>  (1) 
-5.90114164

>  <minimizedRMSD>  (1) 
1.63913202

$$$$
