
     RDKit          3D

 26 27  0  0  0  0  0  0  0  0999 V2000
   45.3210   33.3020   47.0620 O   0  0  0  0  0  0  0  0  0  0  0  0
   45.4700   35.0960   43.9370 C   0  0  0  0  0  0  0  0  0  0  0  0
   46.5130   34.4310   43.2970 C   0  0  0  0  0  0  0  0  0  0  0  0
   47.1350   33.3720   43.9820 C   0  0  0  0  0  0  0  0  0  0  0  0
   46.6880   33.0620   45.2110 N   0  0  0  0  0  0  0  0  0  0  0  0
   45.6600   33.7450   45.7960 C   0  0  0  0  0  0  0  0  0  0  0  0
   45.0480   34.7670   45.1540 N   0  0  0  0  0  0  0  0  0  0  0  0
   44.8270   36.2210   43.1780 C   0  0  0  0  0  0  0  0  0  0  0  0
   45.4120   31.9290   49.2450 O   0  0  0  0  0  0  0  0  0  0  0  0
   45.7750   31.8310   47.7520 P   0  0  1  0  0  0  0  0  0  0  0  0
   44.9260   30.5180   47.1340 O   0  0  0  0  0  0  0  0  0  0  0  0
   47.4170   31.5690   47.5560 O   0  0  0  0  0  0  0  0  0  0  0  0
   48.2480   30.9600   48.4830 C   0  0  0  0  0  0  0  0  0  0  0  0
   48.4660   29.5920   48.2870 C   0  0  0  0  0  0  0  0  0  0  0  0
   49.2910   29.1810   49.2770 N   0  0  0  0  0  0  0  0  0  0  0  0
   49.5900   30.2310   50.0710 C   0  0  0  0  0  0  0  0  0  0  0  0
   48.9500   31.3060   49.5780 N   0  0  0  0  0  0  0  0  0  0  0  0
   46.8396   34.7246   42.2885 H   0  0  0  0  0  0  0  0  0  0  0  0
   47.9645   32.8128   43.5246 H   0  0  0  0  0  0  0  0  0  0  0  0
   44.4099   36.9508   43.8876 H   0  0  0  0  0  0  0  0  0  0  0  0
   45.5798   36.7138   42.5452 H   0  0  0  0  0  0  0  0  0  0  0  0
   44.0203   35.8225   42.5452 H   0  0  0  0  0  0  0  0  0  0  0  0
   44.5731   29.9722   47.8807 H   0  0  0  0  0  0  0  0  0  0  0  0
   48.0469   28.9700   47.4823 H   0  0  0  0  0  0  0  0  0  0  0  0
   49.6364   28.2191   49.4048 H   0  0  0  0  0  0  0  0  0  0  0  0
   50.2387   30.2109   50.9591 H   0  0  0  0  0  0  0  0  0  0  0  0
  1 10  1  0
  2  7  2  0
  3  2  1  0
  3  4  2  0
  4  5  1  0
  5  6  2  0
  6  1  1  0
  7  6  1  0
  8  2  1  0
 10  9  2  0
 11 10  1  0
 12 10  1  0
 12 13  1  0
 13 17  1  0
 14 13  2  0
 14 15  1  0
 15 16  1  0
 17 16  2  0
  3 18  1  0
  4 19  1  0
  8 20  1  0
  8 21  1  0
  8 22  1  0
 11 23  1  0
 14 24  1  0
 15 25  1  0
 16 26  1  0
M  ISO  8  18  14  19  14  20   8  21   8  22   8  23   3  24  14  25   9
M  ISO  1  26  14
M  END
>  <minimizedAffinity>  (1) 
-4.88426733

>  <minimizedRMSD>  (1) 
1.58762872

$$$$
