
     RDKit          3D

 43 46  0  0  1  0  0  0  0  0999 V2000
   44.5680   35.5720   44.6070 C   0  0  0  0  0  0  0  0  0  0  0  0
   45.2440   35.6000   43.3680 C   0  0  0  0  0  0  0  0  0  0  0  0
   46.3470   34.7100   43.1880 C   0  0  0  0  0  0  0  0  0  0  0  0
   46.6820   33.8880   44.2150 N   0  0  0  0  0  0  0  0  0  0  0  0
   46.0200   33.8870   45.3750 C   0  0  0  0  0  0  0  0  0  0  0  0
   44.9560   34.7300   45.5800 N   0  0  0  0  0  0  0  0  0  0  0  0
   46.4380   32.9640   46.4720 C   0  0  2  0  0  0  0  0  0  0  0  0
   46.9540   31.7340   45.7540 C   0  0  0  0  0  0  0  0  0  0  0  0
   46.0790   30.5550   45.7740 C   0  0  0  0  0  0  0  0  0  0  0  0
   45.8050   30.2880   47.2550 C   0  0  0  0  0  0  0  0  0  0  0  0
   45.0120   31.3600   47.8600 C   0  0  0  0  0  0  0  0  0  0  0  0
   45.3860   32.7260   47.4170 C   0  0  0  0  0  0  0  0  0  0  0  0
   44.6890   33.8680   47.9320 N   0  0  0  0  0  0  0  0  0  0  0  0
   47.0580   34.7150   41.9270 C   0  0  0  0  0  0  0  0  0  0  0  0
   48.1760   35.4610   41.8090 C   0  0  0  0  0  0  0  0  0  0  0  0
   48.8200   35.4240   40.5640 C   0  0  0  0  0  0  0  0  0  0  0  0
   48.2480   34.6310   39.5860 C   0  0  0  0  0  0  0  0  0  0  0  0
   47.1240   33.8840   39.7080 C   0  0  0  0  0  0  0  0  0  0  0  0
   46.5310   33.9500   40.9380 N   0  0  0  0  0  0  0  0  0  0  0  0
   46.6090   33.1140   38.6860 O   0  0  0  0  0  0  0  0  0  0  0  0
   47.1890   32.9480   37.4610 C   0  0  0  0  0  0  0  0  0  0  0  0
   46.2390   32.8210   36.4410 C   0  0  0  0  0  0  0  0  0  0  0  0
   46.8970   32.6580   35.2570 N   0  0  0  0  0  0  0  0  0  0  0  0
   48.2160   32.6900   35.5730 C   0  0  0  0  0  0  0  0  0  0  0  0
   48.4040   32.8630   36.8930 N   0  0  0  0  0  0  0  0  0  0  0  0
   43.7155   36.2458   44.7777 H   0  0  0  0  0  0  0  0  0  0  0  0
   44.9314   36.2854   42.5665 H   0  0  0  0  0  0  0  0  0  0  0  0
   47.2251   33.3850   47.1149 H   0  0  0  0  0  0  0  0  0  0  0  0
   47.9095   31.4503   46.2193 H   0  0  0  0  0  0  0  0  0  0  0  0
   47.0329   32.0232   44.6956 H   0  0  0  0  0  0  0  0  0  0  0  0
   45.1405   30.7613   45.2386 H   0  0  0  0  0  0  0  0  0  0  0  0
   46.5420   29.6894   45.2777 H   0  0  0  0  0  0  0  0  0  0  0  0
   45.2552   29.3401   47.3507 H   0  0  0  0  0  0  0  0  0  0  0  0
   46.7708   30.2377   47.7792 H   0  0  0  0  0  0  0  0  0  0  0  0
   44.2056   31.1685   48.5832 H   0  0  0  0  0  0  0  0  0  0  0  0
   43.9265   33.7421   48.6129 H   0  0  0  0  0  0  0  0  0  0  0  0
   44.9507   34.8144   47.6211 H   0  0  0  0  0  0  0  0  0  0  0  0
   48.5612   36.0651   42.6437 H   0  0  0  0  0  0  0  0  0  0  0  0
   49.7381   35.9993   40.3739 H   0  0  0  0  0  0  0  0  0  0  0  0
   48.7566   34.6039   38.6110 H   0  0  0  0  0  0  0  0  0  0  0  0
   45.1471   32.8480   36.5718 H   0  0  0  0  0  0  0  0  0  0  0  0
   46.4811   32.5366   34.3226 H   0  0  0  0  0  0  0  0  0  0  0  0
   49.0302   32.5872   34.8405 H   0  0  0  0  0  0  0  0  0  0  0  0
  1  6  2  0
  2  1  1  0
  3  2  2  0
  3  4  1  0
  4  5  2  0
  5  6  1  0
  5  7  1  0
  7 12  1  0
  8  9  1  0
  8  7  1  0
  9 10  1  0
 10 11  1  0
 12 11  2  0
 12 13  1  0
 14  3  1  0
 15 14  2  0
 16 15  1  0
 17 18  1  0
 17 16  2  0
 18 19  2  0
 19 14  1  0
 20 18  1  0
 21 20  1  0
 22 21  2  0
 23 24  1  0
 23 22  1  0
 24 25  2  0
 25 21  1  0
  1 26  1  0
  2 27  1  0
  7 28  1  1
  8 29  1  0
  8 30  1  0
  9 31  1  0
  9 32  1  0
 10 33  1  0
 10 34  1  0
 11 35  1  0
 13 36  1  0
 13 37  1  0
 15 38  1  0
 16 39  1  0
 17 40  1  0
 22 41  1  0
 23 42  1  0
 24 43  1  0
M  ISO  8  26  14  27  14  28  13  29  13  30  13  31  13  32  13  33  13
M  ISO  8  34  13  35  13  38  14  39  14  40  14  41  14  42   9  43  14
M  END
>  <minimizedAffinity>  (1) 
-7.34171104

>  <minimizedRMSD>  (1) 
0.142043278

$$$$
