
     RDKit          3D

 36 38  0  0  0  0  0  0  0  0999 V2000
   43.4750   34.9370   40.7330 S   0  0  0  0  0  0  0  0  0  0  0  0
   44.7580   34.6860   41.9600 C   0  0  0  0  0  0  0  0  0  0  0  0
   46.0710   34.5810   41.4830 C   0  0  0  0  0  0  0  0  0  0  0  0
   47.0990   34.3860   42.4040 C   0  0  0  0  0  0  0  0  0  0  0  0
   46.7730   34.3060   43.7120 N   0  0  0  0  0  0  0  0  0  0  0  0
   45.5200   34.4060   44.1580 C   0  0  0  0  0  0  0  0  0  0  0  0
   44.5330   34.5930   43.2820 N   0  0  0  0  0  0  0  0  0  0  0  0
   45.2590   34.3100   45.5810 C   0  0  0  0  0  0  0  0  0  0  0  0
   44.5320   35.1810   46.1230 O   0  0  0  0  0  0  0  0  0  0  0  0
   45.8270   33.2230   46.3770 C   0  0  0  0  0  0  0  0  0  0  0  0
   45.3260   32.7530   47.5730 C   0  0  0  0  0  0  0  0  0  0  0  0
   46.1530   31.7590   47.9490 N   0  0  0  0  0  0  0  0  0  0  0  0
   47.1520   31.5870   47.0370 C   0  0  0  0  0  0  0  0  0  0  0  0
   46.9260   32.5160   46.0620 N   0  0  0  0  0  0  0  0  0  0  0  0
   41.8510   35.0950   41.4690 C   0  0  0  0  0  0  0  0  0  0  0  0
   40.9360   36.0040   40.6980 C   0  0  0  0  0  0  0  0  0  0  0  0
   41.7780   36.2720   37.7910 Cl  0  0  0  0  0  0  0  0  0  0  0  0
   40.4470   35.2890   38.3430 C   0  0  0  0  0  0  0  0  0  0  0  0
   40.1450   35.2390   39.7140 C   0  0  0  0  0  0  0  0  0  0  0  0
   39.0750   34.4350   40.0620 C   0  0  0  0  0  0  0  0  0  0  0  0
   38.2910   33.6900   39.1850 C   0  0  0  0  0  0  0  0  0  0  0  0
   38.6100   33.7590   37.8490 C   0  0  0  0  0  0  0  0  0  0  0  0
   37.6610   32.8430   36.6890 Cl  0  0  0  0  0  0  0  0  0  0  0  0
   39.6680   34.5470   37.4570 C   0  0  0  0  0  0  0  0  0  0  0  0
   46.2858   34.6508   40.4064 H   0  0  0  0  0  0  0  0  0  0  0  0
   48.1451   34.2998   42.0750 H   0  0  0  0  0  0  0  0  0  0  0  0
   44.4359   33.1149   48.1084 H   0  0  0  0  0  0  0  0  0  0  0  0
   46.0454   31.2034   48.8096 H   0  0  0  0  0  0  0  0  0  0  0  0
   47.9699   30.8526   47.0781 H   0  0  0  0  0  0  0  0  0  0  0  0
   41.3913   34.0969   41.5186 H   0  0  0  0  0  0  0  0  0  0  0  0
   41.9866   35.5383   42.4665 H   0  0  0  0  0  0  0  0  0  0  0  0
   40.2523   36.5061   41.3983 H   0  0  0  0  0  0  0  0  0  0  0  0
   41.5458   36.7453   40.1607 H   0  0  0  0  0  0  0  0  0  0  0  0
   38.8196   34.3788   41.1305 H   0  0  0  0  0  0  0  0  0  0  0  0
   37.4538   33.0737   39.5447 H   0  0  0  0  0  0  0  0  0  0  0  0
   39.9122   34.5938   36.3855 H   0  0  0  0  0  0  0  0  0  0  0  0
  1 15  1  0
  1  2  1  0
  2  7  1  0
  3  2  2  0
  3  4  1  0
  4  5  2  0
  5  6  1  0
  6  8  1  0
  7  6  2  0
  8  9  2  0
  8 10  1  0
 10 11  2  0
 11 12  1  0
 13 12  1  0
 14 10  1  0
 14 13  2  0
 16 15  1  0
 17 18  1  0
 18 19  2  0
 19 20  1  0
 19 16  1  0
 21 20  2  0
 22 21  1  0
 23 22  1  0
 24 22  2  0
 24 18  1  0
  3 25  1  0
  4 26  1  0
 11 27  1  0
 12 28  1  0
 13 29  1  0
 15 30  1  0
 15 31  1  0
 16 32  1  0
 16 33  1  0
 20 34  1  0
 21 35  1  0
 24 36  1  0
M  ISO  8  25  14  26  14  27  14  28   9  29  14  30   8  31   8  32   8
M  ISO  4  33   8  34  14  35  14  36  14
M  END
>  <minimizedAffinity>  (1) 
-6.65769529

>  <minimizedRMSD>  (1) 
0.19641456

$$$$
