
     RDKit          3D

 27 29  0  0  0  0  0  0  0  0999 V2000
   45.9770   34.2280   41.0440 C   0  0  0  0  0  0  0  0  0  0  0  0
   46.5640   34.8180   42.1580 C   0  0  0  0  0  0  0  0  0  0  0  0
   47.9100   35.1580   42.0450 C   0  0  0  0  0  0  0  0  0  0  0  0
   48.5590   34.8970   40.8770 N   0  0  0  0  0  0  0  0  0  0  0  0
   47.9560   34.3280   39.8300 C   0  0  0  0  0  0  0  0  0  0  0  0
   46.6540   33.9890   39.9120 N   0  0  0  0  0  0  0  0  0  0  0  0
   45.7760   35.0500   43.3550 C   0  0  0  0  0  0  0  0  0  0  0  0
   45.1070   36.2450   43.5870 C   0  0  0  0  0  0  0  0  0  0  0  0
   44.5010   36.0410   44.8120 C   0  0  0  0  0  0  0  0  0  0  0  0
   44.7850   34.8000   45.2920 N   0  0  0  0  0  0  0  0  0  0  0  0
   45.5540   34.2310   44.3900 N   0  0  0  0  0  0  0  0  0  0  0  0
   44.6410   33.8730   41.1140 O   0  0  0  0  0  0  0  0  0  0  0  0
   43.5740   34.5480   40.5920 C   0  0  0  0  0  0  0  0  0  0  0  0
   43.1790   35.7290   40.9020 O   0  0  0  0  0  0  0  0  0  0  0  0
   42.6750   33.9770   39.5430 C   0  0  0  0  0  0  0  0  0  0  0  0
   41.9390   34.7080   38.6370 C   0  0  0  0  0  0  0  0  0  0  0  0
   41.2250   33.8860   37.8250 N   0  0  0  0  0  0  0  0  0  0  0  0
   41.5410   32.6530   38.2540 C   0  0  0  0  0  0  0  0  0  0  0  0
   42.4040   32.6920   39.2780 N   0  0  0  0  0  0  0  0  0  0  0  0
   48.4399   35.6297   42.8857 H   0  0  0  0  0  0  0  0  0  0  0  0
   48.5194   34.1368   38.9048 H   0  0  0  0  0  0  0  0  0  0  0  0
   45.0688   37.1398   42.9483 H   0  0  0  0  0  0  0  0  0  0  0  0
   43.8737   36.7819   45.3292 H   0  0  0  0  0  0  0  0  0  0  0  0
   44.4633   34.3900   46.1804 H   0  0  0  0  0  0  0  0  0  0  0  0
   41.9306   35.8064   38.5790 H   0  0  0  0  0  0  0  0  0  0  0  0
   40.5889   34.1475   37.0582 H   0  0  0  0  0  0  0  0  0  0  0  0
   41.1406   31.7257   37.8183 H   0  0  0  0  0  0  0  0  0  0  0  0
  1 12  1  0
  1  2  1  0
  2  7  1  0
  3  2  2  0
  4  3  1  0
  5  6  1  0
  5  4  2  0
  6  1  2  0
  7  8  1  0
  7 11  2  0
  8  9  2  0
  9 10  1  0
 11 10  1  0
 13 14  2  0
 13 12  1  0
 15 13  1  0
 16 15  2  0
 17 18  1  0
 17 16  1  0
 18 19  2  0
 19 15  1  0
  3 20  1  0
  5 21  1  0
  8 22  1  0
  9 23  1  0
 10 24  1  0
 16 25  1  0
 17 26  1  0
 18 27  1  0
M  ISO  8  20  14  21  14  22  14  23  14  24   9  25  14  26   9  27  14
M  END
>  <minimizedAffinity>  (1) 
-5.25279617

>  <minimizedRMSD>  (1) 
0.52030319

$$$$
