
     RDKit          3D

 37 41  0  0  0  0  0  0  0  0999 V2000
   47.2090   31.2170   45.2310 C   0  0  0  0  0  0  0  0  0  0  0  0
   46.9280   32.5640   45.1510 C   0  0  0  0  0  0  0  0  0  0  0  0
   46.3530   33.2690   46.1930 C   0  0  0  0  0  0  0  0  0  0  0  0
   46.0340   32.6220   47.3860 C   0  0  0  0  0  0  0  0  0  0  0  0
   45.4810   32.9780   48.5770 N   0  0  0  0  0  0  0  0  0  0  0  0
   45.4250   31.8750   49.3700 C   0  0  0  0  0  0  0  0  0  0  0  0
   45.9490   30.8490   48.6480 N   0  0  0  0  0  0  0  0  0  0  0  0
   46.3270   31.2760   47.4350 C   0  0  0  0  0  0  0  0  0  0  0  0
   46.8940   30.5500   46.4260 C   0  0  0  0  0  0  0  0  0  0  0  0
   46.7790   35.0010   42.4030 C   0  0  0  0  0  0  0  0  0  0  0  0
   47.8670   34.6090   41.6060 C   0  0  0  0  0  0  0  0  0  0  0  0
   48.6370   33.5250   42.0090 C   0  0  0  0  0  0  0  0  0  0  0  0
   48.2920   32.8900   43.1730 N   0  0  0  0  0  0  0  0  0  0  0  0
   47.2430   33.2790   43.9270 C   0  0  0  0  0  0  0  0  0  0  0  0
   46.4890   34.3290   43.5450 N   0  0  0  0  0  0  0  0  0  0  0  0
   47.1650   29.1170   46.5830 C   0  0  0  0  0  0  0  0  0  0  0  0
   48.1640   28.4340   45.9190 C   0  0  0  0  0  0  0  0  0  0  0  0
   48.0440   27.1250   46.3740 C   0  0  0  0  0  0  0  0  0  0  0  0
   47.0000   27.0850   47.2710 C   0  0  0  0  0  0  0  0  0  0  0  0
   46.5040   28.3090   47.3630 O   0  0  0  0  0  0  0  0  0  0  0  0
   46.5430   25.8950   47.9810 C   0  0  0  0  0  0  0  0  0  0  0  0
   45.3030   25.2950   47.8890 C   0  0  0  0  0  0  0  0  0  0  0  0
   45.2660   24.2200   48.6980 N   0  0  0  0  0  0  0  0  0  0  0  0
   46.4680   24.1300   49.3040 C   0  0  0  0  0  0  0  0  0  0  0  0
   47.2470   25.1600   48.8610 N   0  0  0  0  0  0  0  0  0  0  0  0
   47.6655   30.6814   44.3856 H   0  0  0  0  0  0  0  0  0  0  0  0
   46.1468   34.3436   46.0800 H   0  0  0  0  0  0  0  0  0  0  0  0
   45.1596   33.9222   48.8341 H   0  0  0  0  0  0  0  0  0  0  0  0
   45.0322   31.8229   50.3961 H   0  0  0  0  0  0  0  0  0  0  0  0
   46.1589   35.8574   42.0995 H   0  0  0  0  0  0  0  0  0  0  0  0
   48.1054   35.1508   40.6788 H   0  0  0  0  0  0  0  0  0  0  0  0
   49.4969   33.1871   41.4121 H   0  0  0  0  0  0  0  0  0  0  0  0
   48.8895   28.8337   45.1952 H   0  0  0  0  0  0  0  0  0  0  0  0
   48.6713   26.2736   46.0712 H   0  0  0  0  0  0  0  0  0  0  0  0
   44.4746   25.6415   47.2537 H   0  0  0  0  0  0  0  0  0  0  0  0
   44.4672   23.5833   48.8301 H   0  0  0  0  0  0  0  0  0  0  0  0
   46.7685   23.3598   50.0296 H   0  0  0  0  0  0  0  0  0  0  0  0
  1  9  2  0
  2  1  1  0
  2  3  2  0
  3  4  1  0
  4  8  2  0
  4  5  1  0
  5  6  1  0
  7  6  2  0
  8  7  1  0
  9 16  1  0
  9  8  1  0
 10 15  2  0
 11 12  2  0
 11 10  1  0
 12 13  1  0
 13 14  2  0
 14  2  1  0
 15 14  1  0
 16 20  1  0
 17 18  1  0
 17 16  2  0
 18 19  2  0
 19 20  1  0
 19 21  1  0
 21 25  1  0
 22 21  2  0
 22 23  1  0
 23 24  1  0
 25 24  2  0
  1 26  1  0
  3 27  1  0
  5 28  1  0
  6 29  1  0
 10 30  1  0
 11 31  1  0
 12 32  1  0
 17 33  1  0
 18 34  1  0
 22 35  1  0
 23 36  1  0
 24 37  1  0
M  ISO  8  26  14  27  14  28   9  29  14  30  14  31  14  32  14  33  14
M  ISO  4  34  14  35  14  36   9  37  14
M  END
>  <minimizedAffinity>  (1) 
-5.78861189

>  <minimizedRMSD>  (1) 
1.15482092

$$$$
