
     RDKit          3D

 43 47  0  0  1  0  0  0  0  0999 V2000
   47.3770   34.2700   42.9880 N   0  0  0  0  0  0  0  0  0  0  0  0
   48.7490   33.7990   42.8500 C   0  0  0  0  0  0  0  0  0  0  0  0
   49.2790   34.9690   42.0450 C   0  0  0  0  0  0  0  0  0  0  0  0
   48.2710   35.0080   40.9330 C   0  0  0  0  0  0  0  0  0  0  0  0
   46.9620   34.7690   41.6500 C   0  0  1  0  0  0  0  0  0  0  0  0
   46.1690   33.7020   41.0700 C   0  0  0  0  0  0  0  0  0  0  0  0
   46.7160   32.4880   40.8060 N   0  0  0  0  0  0  0  0  0  0  0  0
   46.0540   31.4490   40.2610 C   0  0  0  0  0  0  0  0  0  0  0  0
   44.7540   31.6130   39.9540 N   0  0  0  0  0  0  0  0  0  0  0  0
   44.1770   32.7730   40.1900 C   0  0  0  0  0  0  0  0  0  0  0  0
   42.8320   32.8900   39.8590 C   0  0  0  0  0  0  0  0  0  0  0  0
   42.2150   34.1200   40.1140 C   0  0  0  0  0  0  0  0  0  0  0  0
   42.8530   35.2270   40.6710 C   0  0  0  0  0  0  0  0  0  0  0  0
   44.1870   35.0210   40.9700 C   0  0  0  0  0  0  0  0  0  0  0  0
   44.8440   33.8620   40.7520 C   0  0  0  0  0  0  0  0  0  0  0  0
   44.6500   35.1250   45.3770 C   0  0  0  0  0  0  0  0  0  0  0  0
   45.4390   35.1860   44.2380 C   0  0  0  0  0  0  0  0  0  0  0  0
   46.5030   34.3100   44.0980 C   0  0  0  0  0  0  0  0  0  0  0  0
   46.7250   33.4210   45.1020 N   0  0  0  0  0  0  0  0  0  0  0  0
   45.9490   33.3670   46.2160 C   0  0  0  0  0  0  0  0  0  0  0  0
   44.9070   34.2280   46.3440 N   0  0  0  0  0  0  0  0  0  0  0  0
   46.3330   32.3440   47.1960 C   0  0  0  0  0  0  0  0  0  0  0  0
   45.7200   32.5220   48.4320 C   0  0  0  0  0  0  0  0  0  0  0  0
   46.1390   31.5300   49.2650 N   0  0  0  0  0  0  0  0  0  0  0  0
   46.9890   30.7790   48.5270 C   0  0  0  0  0  0  0  0  0  0  0  0
   47.1200   31.2620   47.2610 N   0  0  0  0  0  0  0  0  0  0  0  0
   49.2557   33.6947   43.8208 H   0  0  0  0  0  0  0  0  0  0  0  0
   48.8799   32.8015   42.4051 H   0  0  0  0  0  0  0  0  0  0  0  0
   49.2757   35.9004   42.6302 H   0  0  0  0  0  0  0  0  0  0  0  0
   50.3236   34.8661   41.7161 H   0  0  0  0  0  0  0  0  0  0  0  0
   48.4670   34.2170   40.1942 H   0  0  0  0  0  0  0  0  0  0  0  0
   48.2882   35.9505   40.3660 H   0  0  0  0  0  0  0  0  0  0  0  0
   46.3592   35.6888   41.6243 H   0  0  0  0  0  0  0  0  0  0  0  0
   46.5625   30.4921   40.0720 H   0  0  0  0  0  0  0  0  0  0  0  0
   42.2759   32.0510   39.4153 H   0  0  0  0  0  0  0  0  0  0  0  0
   41.1503   34.2203   39.8564 H   0  0  0  0  0  0  0  0  0  0  0  0
   42.3395   36.1819   40.8566 H   0  0  0  0  0  0  0  0  0  0  0  0
   44.7494   35.8555   41.4143 H   0  0  0  0  0  0  0  0  0  0  0  0
   43.8040   35.8189   45.4901 H   0  0  0  0  0  0  0  0  0  0  0  0
   45.2216   35.9242   43.4520 H   0  0  0  0  0  0  0  0  0  0  0  0
   45.0167   33.3269   48.6920 H   0  0  0  0  0  0  0  0  0  0  0  0
   45.8670   31.3826   50.2474 H   0  0  0  0  0  0  0  0  0  0  0  0
   47.5106   29.8869   48.9041 H   0  0  0  0  0  0  0  0  0  0  0  0
  1 18  1  0
  2  1  1  0
  3  2  1  0
  4  5  1  0
  4  3  1  0
  5  1  1  0
  6  5  1  0
  7  6  2  0
  8  7  1  0
  9 10  1  0
  9  8  2  0
 10 15  2  0
 11 12  2  0
 11 10  1  0
 12 13  1  0
 13 14  2  0
 15 14  1  0
 15  6  1  0
 16 21  2  0
 17 16  1  0
 18 17  2  0
 18 19  1  0
 19 20  2  0
 20 21  1  0
 20 22  1  0
 22 26  1  0
 22 23  2  0
 23 24  1  0
 25 24  1  0
 26 25  2  0
  2 27  1  0
  2 28  1  0
  3 29  1  0
  3 30  1  0
  4 31  1  0
  4 32  1  0
  5 33  1  1
  8 34  1  0
 11 35  1  0
 12 36  1  0
 13 37  1  0
 14 38  1  0
 16 39  1  0
 17 40  1  0
 23 41  1  0
 24 42  1  0
 25 43  1  0
M  ISO  8  27  13  28  13  29  13  30  13  31  13  32  13  33  13  34  14
M  ISO  8  35  14  36  14  37  14  38  14  39  14  40  14  41  14  42   9
M  ISO  1  43  14
M  END
>  <minimizedAffinity>  (1) 
-6.61229897

>  <minimizedRMSD>  (1) 
0.629654288

$$$$
