
     RDKit          3D

 23 24  0  0  0  0  0  0  0  0999 V2000
   44.5450   36.1210   44.3840 C   0  0  0  0  0  0  0  0  0  0  0  0
   45.2040   35.9840   43.1500 C   0  0  0  0  0  0  0  0  0  0  0  0
   46.0780   34.9220   42.9650 C   0  0  0  0  0  0  0  0  0  0  0  0
   46.2620   34.0440   44.0010 N   0  0  0  0  0  0  0  0  0  0  0  0
   45.6190   34.1960   45.1720 C   0  0  0  0  0  0  0  0  0  0  0  0
   44.7700   35.2150   45.3740 N   0  0  0  0  0  0  0  0  0  0  0  0
   45.8810   33.2090   46.2150 C   0  0  0  0  0  0  0  0  0  0  0  0
   46.9250   32.3080   46.0730 C   0  0  0  0  0  0  0  0  0  0  0  0
   46.9410   31.5210   47.1650 N   0  0  0  0  0  0  0  0  0  0  0  0
   45.9390   31.9000   47.9920 C   0  0  0  0  0  0  0  0  0  0  0  0
   45.2790   32.9430   47.4120 N   0  0  0  0  0  0  0  0  0  0  0  0
   46.7080   34.8220   41.7370 O   0  0  0  0  0  0  0  0  0  0  0  0
   48.7090   33.2500   41.0490 O   0  0  0  0  0  0  0  0  0  0  0  0
   48.4090   34.6080   41.6880 P   0  0  0  0  0  0  0  0  0  0  0  0
   49.0880   35.8710   40.8340 O   0  0  0  0  0  0  0  0  0  0  0  0
   48.9600   34.5590   43.2980 O   0  0  0  0  0  0  0  0  0  0  0  0
   43.8500   36.9575   44.5488 H   0  0  0  0  0  0  0  0  0  0  0  0
   45.0292   36.7091   42.3415 H   0  0  0  0  0  0  0  0  0  0  0  0
   47.6169   32.2471   45.2201 H   0  0  0  0  0  0  0  0  0  0  0  0
   47.6070   30.7555   47.3422 H   0  0  0  0  0  0  0  0  0  0  0  0
   45.6984   31.4452   48.9643 H   0  0  0  0  0  0  0  0  0  0  0  0
   49.4484   36.5414   41.4671 H   0  0  0  0  0  0  0  0  0  0  0  0
   48.1875   34.6277   43.9134 H   0  0  0  0  0  0  0  0  0  0  0  0
  1  6  2  0
  2  1  1  0
  3  2  2  0
  3  4  1  0
  4  5  2  0
  5  6  1  0
  5  7  1  0
  7 11  1  0
  8  7  2  0
  8  9  1  0
  9 10  1  0
 11 10  2  0
 12  3  1  0
 13 14  2  0
 14 12  1  0
 14 16  1  0
 15 14  1  0
  1 17  1  0
  2 18  1  0
  8 19  1  0
  9 20  1  0
 10 21  1  0
 15 22  1  0
 16 23  1  0
M  ISO  7  17  14  18  14  19  14  20   9  21  14  22   3  23   3
M  END
>  <minimizedAffinity>  (1) 
-5.36871719

>  <minimizedRMSD>  (1) 
0.349957675

$$$$
