
     RDKit          3D

 31 32  0  0  0  0  0  0  0  0999 V2000
   44.8420   37.2650   44.0950 N   0  0  0  0  0  0  0  0  0  0  0  0
   45.0400   36.1710   43.1260 C   0  0  0  0  0  0  0  0  0  0  0  0
   45.1990   34.6350   45.0360 C   0  0  0  0  0  0  0  0  0  0  0  0
   45.6650   35.0430   43.7920 C   0  0  0  0  0  0  0  0  0  0  0  0
   46.7290   34.3210   43.2510 C   0  0  0  0  0  0  0  0  0  0  0  0
   47.2670   33.2610   43.9480 N   0  0  0  0  0  0  0  0  0  0  0  0
   46.7690   32.9130   45.1580 C   0  0  0  0  0  0  0  0  0  0  0  0
   45.7340   33.5970   45.7090 N   0  0  0  0  0  0  0  0  0  0  0  0
   47.1940   34.7750   41.9440 C   0  0  0  0  0  0  0  0  0  0  0  0
   48.2000   33.9150   41.4990 F   0  0  0  0  0  0  0  0  0  0  0  0
   47.7760   35.9930   42.1190 F   0  0  0  0  0  0  0  0  0  0  0  0
   46.2030   34.7250   41.0110 F   0  0  0  0  0  0  0  0  0  0  0  0
   44.9940   38.4760   43.3550 C   0  0  0  0  0  0  0  0  0  0  0  0
   45.9670   39.4460   43.9930 C   0  0  0  0  0  0  0  0  0  0  0  0
   45.2370   40.3040   44.9620 C   0  0  0  0  0  0  0  0  0  0  0  0
   45.1150   40.0260   46.3270 C   0  0  0  0  0  0  0  0  0  0  0  0
   44.4050   40.9590   46.9790 N   0  0  0  0  0  0  0  0  0  0  0  0
   44.0700   41.8450   46.0100 C   0  0  0  0  0  0  0  0  0  0  0  0
   44.5570   41.4650   44.8170 N   0  0  0  0  0  0  0  0  0  0  0  0
   43.8993   37.2127   44.5066 H   0  0  0  0  0  0  0  0  0  0  0  0
   45.6876   36.5186   42.3076 H   0  0  0  0  0  0  0  0  0  0  0  0
   44.0666   35.8624   42.7170 H   0  0  0  0  0  0  0  0  0  0  0  0
   44.3592   35.1815   45.4900 H   0  0  0  0  0  0  0  0  0  0  0  0
   47.2092   32.0643   45.7020 H   0  0  0  0  0  0  0  0  0  0  0  0
   44.0117   38.9651   43.2790 H   0  0  0  0  0  0  0  0  0  0  0  0
   45.3990   38.2078   42.3680 H   0  0  0  0  0  0  0  0  0  0  0  0
   46.7542   38.8854   44.5183 H   0  0  0  0  0  0  0  0  0  0  0  0
   46.4257   40.0744   43.2154 H   0  0  0  0  0  0  0  0  0  0  0  0
   45.5524   39.1409   46.8121 H   0  0  0  0  0  0  0  0  0  0  0  0
   44.1697   40.9937   47.9812 H   0  0  0  0  0  0  0  0  0  0  0  0
   43.4770   42.7561   46.1782 H   0  0  0  0  0  0  0  0  0  0  0  0
  2  4  1  0
  2  1  1  0
  3  8  2  0
  4  3  1  0
  5  4  2  0
  5  6  1  0
  6  7  2  0
  7  8  1  0
  9 11  1  0
  9  5  1  0
 10  9  1  0
 12  9  1  0
 13 14  1  0
 13  1  1  0
 14 15  1  0
 15 16  2  0
 16 17  1  0
 18 17  1  0
 19 15  1  0
 19 18  2  0
  1 20  1  0
  2 21  1  0
  2 22  1  0
  3 23  1  0
  7 24  1  0
 13 25  1  0
 13 26  1  0
 14 27  1  0
 14 28  1  0
 16 29  1  0
 17 30  1  0
 18 31  1  0
M  ISO  8  20   5  21   8  22   8  23  14  24  14  25   8  26   8  27   8
M  ISO  4  28   8  29  14  30   9  31  14
M  END
>  <minimizedAffinity>  (1) 
-4.87089634

>  <minimizedRMSD>  (1) 
1.83777988

$$$$
