
     RDKit          3D

 34 36  0  0  1  0  0  0  0  0999 V2000
   45.3610   34.3790   41.9850 N   0  0  0  0  0  0  0  0  0  0  0  0
   46.6110   33.9850   41.3960 C   0  0  1  0  0  0  0  0  0  0  0  0
   46.6280   33.9360   39.9170 C   0  0  0  0  0  0  0  0  0  0  0  0
   45.4570   33.5010   39.2880 N   0  0  0  0  0  0  0  0  0  0  0  0
   44.2200   33.7510   39.9200 C   0  0  0  0  0  0  0  0  0  0  0  0
   44.3550   34.7560   41.0410 C   0  0  0  0  0  0  0  0  0  0  0  0
   44.6710   35.4720   43.9770 C   0  0  0  0  0  0  0  0  0  0  0  0
   45.2640   34.3530   43.3830 C   0  0  0  0  0  0  0  0  0  0  0  0
   45.7040   33.3190   44.2160 C   0  0  0  0  0  0  0  0  0  0  0  0
   45.5470   33.4220   45.5590 N   0  0  0  0  0  0  0  0  0  0  0  0
   44.9760   34.5080   46.0990 C   0  0  0  0  0  0  0  0  0  0  0  0
   44.5380   35.5270   45.3350 N   0  0  0  0  0  0  0  0  0  0  0  0
   47.6680   34.9740   41.8400 C   0  0  0  0  0  0  0  0  0  0  0  0
   48.9600   34.3010   42.1120 C   0  0  0  0  0  0  0  0  0  0  0  0
   50.1660   34.8090   42.5270 C   0  0  0  0  0  0  0  0  0  0  0  0
   51.0460   33.7730   42.6290 N   0  0  0  0  0  0  0  0  0  0  0  0
   50.3970   32.6370   42.2810 C   0  0  0  0  0  0  0  0  0  0  0  0
   49.1310   32.9550   41.9670 N   0  0  0  0  0  0  0  0  0  0  0  0
   46.7956   32.9556   41.7370 H   0  0  0  0  0  0  0  0  0  0  0  0
   46.8443   34.9511   39.5526 H   0  0  0  0  0  0  0  0  0  0  0  0
   47.3888   33.1835   39.6621 H   0  0  0  0  0  0  0  0  0  0  0  0
   45.4227   33.9531   38.3632 H   0  0  0  0  0  0  0  0  0  0  0  0
   43.5120   34.1422   39.1745 H   0  0  0  0  0  0  0  0  0  0  0  0
   43.8588   32.8053   40.3504 H   0  0  0  0  0  0  0  0  0  0  0  0
   44.6207   35.7330   40.6110 H   0  0  0  0  0  0  0  0  0  0  0  0
   43.3928   34.8013   41.5722 H   0  0  0  0  0  0  0  0  0  0  0  0
   44.3133   36.3042   43.3529 H   0  0  0  0  0  0  0  0  0  0  0  0
   46.1760   32.4248   43.7829 H   0  0  0  0  0  0  0  0  0  0  0  0
   44.8626   34.5683   47.1915 H   0  0  0  0  0  0  0  0  0  0  0  0
   47.8142   35.7215   41.0464 H   0  0  0  0  0  0  0  0  0  0  0  0
   47.3251   35.4523   42.7693 H   0  0  0  0  0  0  0  0  0  0  0  0
   50.3838   35.8660   42.7398 H   0  0  0  0  0  0  0  0  0  0  0  0
   52.0317   33.8423   42.9198 H   0  0  0  0  0  0  0  0  0  0  0  0
   50.8322   31.6270   42.2592 H   0  0  0  0  0  0  0  0  0  0  0  0
  1  8  1  0
  2 13  1  0
  2  1  1  0
  3  2  1  0
  4  3  1  0
  4  5  1  0
  5  6  1  0
  6  1  1  0
  7 12  2  0
  8  7  1  0
  8  9  2  0
  9 10  1  0
 10 11  2  0
 12 11  1  0
 13 14  1  0
 14 15  2  0
 15 16  1  0
 17 16  1  0
 18 14  1  0
 18 17  2  0
  2 19  1  1
  3 20  1  0
  3 21  1  0
  4 22  1  0
  5 23  1  0
  5 24  1  0
  6 25  1  0
  6 26  1  0
  7 27  1  0
  9 28  1  0
 11 29  1  0
 13 30  1  0
 13 31  1  0
 15 32  1  0
 16 33  1  0
 17 34  1  0
M  ISO  8  19  13  20  13  21  13  22   5  23  13  24  13  25  13  26  13
M  ISO  8  27  14  28  14  29  14  30   8  31   8  32  14  33   9  34  14
M  END
>  <minimizedAffinity>  (1) 
-5.12338257

>  <minimizedRMSD>  (1) 
1.00140977

$$$$
