
     RDKit          3D

 20 21  0  0  0  0  0  0  0  0999 V2000
   45.0470   33.9290   46.0790 C   0  0  0  0  0  0  0  0  0  0  0  0
   45.6450   33.9620   44.7910 C   0  0  0  0  0  0  0  0  0  0  0  0
   46.7930   33.1880   44.6580 C   0  0  0  0  0  0  0  0  0  0  0  0
   47.2490   32.4750   45.7390 N   0  0  0  0  0  0  0  0  0  0  0  0
   46.6330   32.4870   46.9370 C   0  0  0  0  0  0  0  0  0  0  0  0
   45.5220   33.2250   47.0990 N   0  0  0  0  0  0  0  0  0  0  0  0
   45.0210   34.7870   43.7670 C   0  0  0  0  0  0  0  0  0  0  0  0
   45.0750   36.1630   43.7440 C   0  0  0  0  0  0  0  0  0  0  0  0
   44.4140   36.6240   42.6910 N   0  0  0  0  0  0  0  0  0  0  0  0
   43.9220   35.5850   42.0100 C   0  0  0  0  0  0  0  0  0  0  0  0
   44.2990   34.4920   42.6750 N   0  0  0  0  0  0  0  0  0  0  0  0
   47.4280   33.2060   43.3450 C   0  0  0  0  0  0  0  0  0  0  0  0
   48.6130   32.4790   43.3800 F   0  0  0  0  0  0  0  0  0  0  0  0
   47.8370   34.5220   43.1320 F   0  0  0  0  0  0  0  0  0  0  0  0
   46.6560   32.7040   42.3550 F   0  0  0  0  0  0  0  0  0  0  0  0
   44.1352   34.5227   46.2409 H   0  0  0  0  0  0  0  0  0  0  0  0
   47.0357   31.8983   47.7744 H   0  0  0  0  0  0  0  0  0  0  0  0
   45.5902   36.7872   44.4889 H   0  0  0  0  0  0  0  0  0  0  0  0
   44.2991   37.6164   42.4401 H   0  0  0  0  0  0  0  0  0  0  0  0
   43.3258   35.6234   41.0864 H   0  0  0  0  0  0  0  0  0  0  0  0
  1  6  2  0
  2  1  1  0
  3  2  2  0
  3  4  1  0
  4  5  2  0
  5  6  1  0
  7  2  1  0
  8  7  2  0
  9  8  1  0
 10 11  2  0
 10  9  1  0
 11  7  1  0
 12 13  1  0
 12  3  1  0
 14 12  1  0
 15 12  1  0
  1 16  1  0
  5 17  1  0
  8 18  1  0
  9 19  1  0
 10 20  1  0
M  ISO  5  16  14  17  14  18  14  19   9  20  14
M  END
>  <minimizedAffinity>  (1) 
-3.93099236

>  <minimizedRMSD>  (1) 
2.53409767

$$$$
