
     RDKit          3D

 20 21  0  0  0  0  0  0  0  0999 V2000
   47.5460   34.9540   42.3440 C   0  0  0  0  0  0  0  0  0  0  0  0
   47.7750   33.9950   43.3500 C   0  0  0  0  0  0  0  0  0  0  0  0
   46.7140   33.6960   44.2070 C   0  0  0  0  0  0  0  0  0  0  0  0
   45.5390   34.3330   44.0290 N   0  0  0  0  0  0  0  0  0  0  0  0
   45.3510   35.2510   43.0510 C   0  0  0  0  0  0  0  0  0  0  0  0
   46.3440   35.5620   42.2150 N   0  0  0  0  0  0  0  0  0  0  0  0
   46.8860   32.7150   45.2660 C   0  0  0  0  0  0  0  0  0  0  0  0
   47.2220   31.3980   45.0760 C   0  0  0  0  0  0  0  0  0  0  0  0
   47.2850   30.8210   46.3060 N   0  0  0  0  0  0  0  0  0  0  0  0
   46.9880   31.7770   47.2330 C   0  0  0  0  0  0  0  0  0  0  0  0
   46.7460   32.9380   46.5740 N   0  0  0  0  0  0  0  0  0  0  0  0
   48.7010   35.2650   41.4300 C   0  0  0  0  0  0  0  0  0  0  0  0
   48.3330   35.1620   40.1020 F   0  0  0  0  0  0  0  0  0  0  0  0
   49.1780   36.5200   41.7420 F   0  0  0  0  0  0  0  0  0  0  0  0
   49.7430   34.3780   41.7000 F   0  0  0  0  0  0  0  0  0  0  0  0
   48.7519   33.5008   43.4563 H   0  0  0  0  0  0  0  0  0  0  0  0
   44.3732   35.7437   42.9449 H   0  0  0  0  0  0  0  0  0  0  0  0
   47.4057   30.9026   44.1112 H   0  0  0  0  0  0  0  0  0  0  0  0
   47.5160   29.8367   46.5028 H   0  0  0  0  0  0  0  0  0  0  0  0
   46.9512   31.6320   48.3228 H   0  0  0  0  0  0  0  0  0  0  0  0
  1  2  2  0
  2  3  1  0
  3  7  1  0
  4  3  2  0
  5  4  1  0
  6  1  1  0
  6  5  2  0
  7 11  1  0
  8  7  2  0
  8  9  1  0
  9 10  1  0
 11 10  2  0
 12 15  1  0
 12 14  1  0
 12  1  1  0
 13 12  1  0
  2 16  1  0
  5 17  1  0
  8 18  1  0
  9 19  1  0
 10 20  1  0
M  ISO  5  16  14  17  14  18  14  19   9  20  14
M  END
>  <minimizedAffinity>  (1) 
-4.75570297

>  <minimizedRMSD>  (1) 
0.333482981

$$$$
