
     RDKit          3D

 43 46  0  0  1  0  0  0  0  0999 V2000
   47.3060   33.4150   43.0470 C   0  0  0  0  0  0  0  0  0  0  0  0
   48.3180   33.1070   43.7320 O   0  0  0  0  0  0  0  0  0  0  0  0
   47.0630   32.9690   41.7020 N   0  0  0  0  0  0  0  0  0  0  0  0
   45.8540   32.4550   41.0730 C   0  0  0  0  0  0  0  0  0  0  0  0
   45.6020   33.2480   39.7740 C   0  0  0  0  0  0  0  0  0  0  0  0
   46.7350   32.9960   38.8060 C   0  0  0  0  0  0  0  0  0  0  0  0
   47.8810   32.3370   39.5200 C   0  0  0  0  0  0  0  0  0  0  0  0
   48.2040   33.0420   40.8150 C   0  0  2  0  0  0  0  0  0  0  0  0
   45.9510   35.4530   42.9780 C   0  0  0  0  0  0  0  0  0  0  0  0
   46.3220   34.2790   43.6580 C   0  0  0  0  0  0  0  0  0  0  0  0
   45.7380   33.9950   44.8730 C   0  0  0  0  0  0  0  0  0  0  0  0
   44.8270   34.8560   45.3700 N   0  0  0  0  0  0  0  0  0  0  0  0
   44.4630   35.9960   44.7170 C   0  0  0  0  0  0  0  0  0  0  0  0
   45.0330   36.2680   43.5350 N   0  0  0  0  0  0  0  0  0  0  0  0
   46.1320   32.7850   45.5660 C   0  0  0  0  0  0  0  0  0  0  0  0
   45.7270   31.5670   45.1070 C   0  0  0  0  0  0  0  0  0  0  0  0
   46.1120   30.4210   45.7800 C   0  0  0  0  0  0  0  0  0  0  0  0
   46.8970   30.4580   46.9080 C   0  0  0  0  0  0  0  0  0  0  0  0
   47.2880   31.7220   47.3410 C   0  0  0  0  0  0  0  0  0  0  0  0
   46.8920   32.8060   46.6580 N   0  0  0  0  0  0  0  0  0  0  0  0
   49.4670   32.5540   41.4070 C   0  0  0  0  0  0  0  0  0  0  0  0
   50.5880   33.2320   41.8700 C   0  0  0  0  0  0  0  0  0  0  0  0
   51.5240   32.3910   42.3360 N   0  0  0  0  0  0  0  0  0  0  0  0
   51.0180   31.1550   42.1820 C   0  0  0  0  0  0  0  0  0  0  0  0
   49.7970   31.2470   41.6300 N   0  0  0  0  0  0  0  0  0  0  0  0
   45.9833   31.3884   40.8372 H   0  0  0  0  0  0  0  0  0  0  0  0
   44.9980   32.5671   41.7547 H   0  0  0  0  0  0  0  0  0  0  0  0
   44.6536   32.9214   39.3224 H   0  0  0  0  0  0  0  0  0  0  0  0
   45.5461   34.3223   40.0036 H   0  0  0  0  0  0  0  0  0  0  0  0
   47.0718   33.9533   38.3816 H   0  0  0  0  0  0  0  0  0  0  0  0
   46.3825   32.3354   38.0002 H   0  0  0  0  0  0  0  0  0  0  0  0
   47.6131   31.2927   39.7386 H   0  0  0  0  0  0  0  0  0  0  0  0
   48.7670   32.3858   38.8699 H   0  0  0  0  0  0  0  0  0  0  0  0
   48.3899   34.1084   40.6192 H   0  0  0  0  0  0  0  0  0  0  0  0
   46.4030   35.7023   42.0066 H   0  0  0  0  0  0  0  0  0  0  0  0
   43.7172   36.6782   45.1511 H   0  0  0  0  0  0  0  0  0  0  0  0
   45.0981   31.4957   44.2073 H   0  0  0  0  0  0  0  0  0  0  0  0
   45.7778   29.4448   45.3986 H   0  0  0  0  0  0  0  0  0  0  0  0
   47.1986   29.5422   47.4376 H   0  0  0  0  0  0  0  0  0  0  0  0
   47.9171   31.8308   48.2368 H   0  0  0  0  0  0  0  0  0  0  0  0
   50.6953   34.3267   41.8562 H   0  0  0  0  0  0  0  0  0  0  0  0
   52.4419   32.6411   42.7307 H   0  0  0  0  0  0  0  0  0  0  0  0
   51.5228   30.2189   42.4629 H   0  0  0  0  0  0  0  0  0  0  0  0
  1 10  1  0
  1  2  2  0
  3  1  1  0
  4  3  1  0
  5  4  1  0
  6  7  1  0
  6  5  1  0
  7  8  1  0
  8 21  1  0
  8  3  1  0
  9 14  2  0
  9 10  1  0
 10 11  2  0
 11 12  1  0
 11 15  1  0
 13 12  2  0
 14 13  1  0
 15 20  1  0
 16 15  2  0
 16 17  1  0
 17 18  2  0
 18 19  1  0
 20 19  2  0
 21 25  1  0
 21 22  2  0
 22 23  1  0
 24 23  1  0
 25 24  2  0
  4 26  1  0
  4 27  1  0
  5 28  1  0
  5 29  1  0
  6 30  1  0
  6 31  1  0
  7 32  1  0
  7 33  1  0
  8 34  1  6
  9 35  1  0
 13 36  1  0
 16 37  1  0
 17 38  1  0
 18 39  1  0
 19 40  1  0
 22 41  1  0
 23 42  1  0
 24 43  1  0
M  ISO  8  26  13  27  13  28  13  29  13  30  13  31  13  32  13  33  13
M  ISO  8  34  13  35  14  36  14  37  14  38  14  39  14  40  14  41  14
M  ISO  2  42   9  43  14
M  END
>  <minimizedAffinity>  (1) 
-5.5705595

>  <minimizedRMSD>  (1) 
0.557253003

$$$$
