
     RDKit          3D

 28 30  0  0  0  0  0  0  0  0999 V2000
   46.0660   32.7140   46.9560 C   0  0  0  0  0  0  0  0  0  0  0  0
   47.2100   31.9630   47.1090 C   0  0  0  0  0  0  0  0  0  0  0  0
   47.3780   31.1360   48.2090 C   0  0  0  0  0  0  0  0  0  0  0  0
   46.4070   31.0400   49.1850 C   0  0  0  0  0  0  0  0  0  0  0  0
   45.2760   31.7730   49.0470 C   0  0  0  0  0  0  0  0  0  0  0  0
   45.1100   32.6000   47.9440 C   0  0  0  0  0  0  0  0  0  0  0  0
   44.7210   35.3740   44.8400 C   0  0  0  0  0  0  0  0  0  0  0  0
   45.4540   35.2830   43.6700 C   0  0  0  0  0  0  0  0  0  0  0  0
   46.4270   34.2910   43.6090 C   0  0  0  0  0  0  0  0  0  0  0  0
   46.6480   33.4390   44.6680 N   0  0  0  0  0  0  0  0  0  0  0  0
   45.8820   33.5850   45.7990 C   0  0  0  0  0  0  0  0  0  0  0  0
   44.9270   34.5470   45.8800 N   0  0  0  0  0  0  0  0  0  0  0  0
   48.8980   30.1940   48.3300 S   0  0  0  0  0  0  0  0  0  0  0  0
   49.7930   30.6370   49.8220 C   0  0  0  0  0  0  0  0  0  0  0  0
   50.1170   29.8740   50.9090 C   0  0  0  0  0  0  0  0  0  0  0  0
   50.8010   30.6470   51.7900 N   0  0  0  0  0  0  0  0  0  0  0  0
   50.9030   31.8890   51.2510 C   0  0  0  0  0  0  0  0  0  0  0  0
   50.2830   31.8870   50.0380 N   0  0  0  0  0  0  0  0  0  0  0  0
   48.0019   32.0200   46.3476 H   0  0  0  0  0  0  0  0  0  0  0  0
   46.5482   30.3828   50.0557 H   0  0  0  0  0  0  0  0  0  0  0  0
   44.4869   31.7128   49.8110 H   0  0  0  0  0  0  0  0  0  0  0  0
   44.1829   33.1853   47.8548 H   0  0  0  0  0  0  0  0  0  0  0  0
   43.9441   36.1484   44.9221 H   0  0  0  0  0  0  0  0  0  0  0  0
   45.2752   35.9649   42.8256 H   0  0  0  0  0  0  0  0  0  0  0  0
   47.0321   34.1849   42.6965 H   0  0  0  0  0  0  0  0  0  0  0  0
   49.8655   28.8120   51.0464 H   0  0  0  0  0  0  0  0  0  0  0  0
   51.1747   30.3463   52.7015 H   0  0  0  0  0  0  0  0  0  0  0  0
   51.4024   32.7519   51.7157 H   0  0  0  0  0  0  0  0  0  0  0  0
  1  2  2  0
  1  6  1  0
  2  3  1  0
  3 13  1  0
  3  4  2  0
  5  4  1  0
  6  5  2  0
  7 12  2  0
  8  7  1  0
  9  8  2  0
  9 10  1  0
 10 11  2  0
 11 12  1  0
 11  1  1  0
 13 14  1  0
 14 18  1  0
 14 15  2  0
 15 16  1  0
 17 16  1  0
 18 17  2  0
  2 19  1  0
  4 20  1  0
  5 21  1  0
  6 22  1  0
  7 23  1  0
  8 24  1  0
  9 25  1  0
 15 26  1  0
 16 27  1  0
 17 28  1  0
M  ISO  8  19  14  20  14  21  14  22  14  23  14  24  14  25  14  26  14
M  ISO  2  27   9  28  14
M  END
>  <minimizedAffinity>  (1) 
-5.8284235

>  <minimizedRMSD>  (1) 
1.33606052

$$$$
