
     RDKit          3D

 42 45  0  0  1  0  0  0  0  0999 V2000
   45.8150   31.6940   46.8010 N   0  0  0  0  0  0  0  0  0  0  0  0
   46.3040   32.5990   47.7660 C   0  0  0  0  0  0  0  0  0  0  0  0
   47.7090   32.2300   48.2510 C   0  0  0  0  0  0  0  0  0  0  0  0
   47.5600   30.9200   48.9920 C   0  0  0  0  0  0  0  0  0  0  0  0
   47.0960   29.9160   47.9530 C   0  0  0  0  0  0  0  0  0  0  0  0
   45.8800   30.3500   47.1980 C   0  0  2  0  0  0  0  0  0  0  0  0
   45.6690   29.3940   46.0890 C   0  0  0  0  0  0  0  0  0  0  0  0
   44.4460   28.9130   45.6070 C   0  0  0  0  0  0  0  0  0  0  0  0
   44.6570   28.0500   44.5800 N   0  0  0  0  0  0  0  0  0  0  0  0
   45.9910   27.9950   44.4210 C   0  0  0  0  0  0  0  0  0  0  0  0
   46.5960   28.7940   45.3190 N   0  0  0  0  0  0  0  0  0  0  0  0
   46.0710   32.0290   45.4380 C   0  0  0  0  0  0  0  0  0  0  0  0
   46.5300   34.1740   44.0210 C   0  0  1  0  0  0  0  0  0  0  0  0
   45.1690   34.1960   44.4080 C   0  0  0  0  0  0  0  0  0  0  0  0
   46.1030   33.5110   45.3460 C   0  0  1  0  0  0  0  0  0  0  0  0
   46.2460   32.7560   41.9880 C   0  0  0  0  0  0  0  0  0  0  0  0
   47.1180   33.2810   42.9850 C   0  0  0  0  0  0  0  0  0  0  0  0
   48.4480   32.9440   42.9530 C   0  0  0  0  0  0  0  0  0  0  0  0
   48.8710   32.1130   41.9550 N   0  0  0  0  0  0  0  0  0  0  0  0
   48.0180   31.6220   41.0090 C   0  0  0  0  0  0  0  0  0  0  0  0
   46.6850   31.9350   41.0090 N   0  0  0  0  0  0  0  0  0  0  0  0
   46.3359   33.6053   47.3229 H   0  0  0  0  0  0  0  0  0  0  0  0
   45.6286   32.5627   48.6335 H   0  0  0  0  0  0  0  0  0  0  0  0
   48.3902   32.1106   47.3956 H   0  0  0  0  0  0  0  0  0  0  0  0
   48.1326   33.0136   48.8964 H   0  0  0  0  0  0  0  0  0  0  0  0
   48.5237   30.6101   49.4223 H   0  0  0  0  0  0  0  0  0  0  0  0
   46.8477   31.0021   49.8262 H   0  0  0  0  0  0  0  0  0  0  0  0
   47.9132   29.7578   47.2338 H   0  0  0  0  0  0  0  0  0  0  0  0
   46.8277   28.9958   48.4927 H   0  0  0  0  0  0  0  0  0  0  0  0
   45.0405   30.3210   47.9082 H   0  0  0  0  0  0  0  0  0  0  0  0
   43.4585   29.1931   46.0023 H   0  0  0  0  0  0  0  0  0  0  0  0
   43.9439   27.5433   44.0363 H   0  0  0  0  0  0  0  0  0  0  0  0
   46.5116   27.3860   43.6672 H   0  0  0  0  0  0  0  0  0  0  0  0
   47.0386   31.6113   45.1230 H   0  0  0  0  0  0  0  0  0  0  0  0
   45.2911   31.6148   44.7821 H   0  0  0  0  0  0  0  0  0  0  0  0
   47.1978   34.9768   43.6752 H   0  0  0  0  0  0  0  0  0  0  0  0
   44.7094   35.1498   44.7065 H   0  0  0  0  0  0  0  0  0  0  0  0
   44.2391   33.8847   43.9097 H   0  0  0  0  0  0  0  0  0  0  0  0
   46.3793   33.5916   46.4077 H   0  0  0  0  0  0  0  0  0  0  0  0
   45.1805   33.0280   42.0163 H   0  0  0  0  0  0  0  0  0  0  0  0
   49.1502   33.3304   43.7063 H   0  0  0  0  0  0  0  0  0  0  0  0
   48.4120   30.9573   40.2260 H   0  0  0  0  0  0  0  0  0  0  0  0
  1  6  1  0
  1  2  1  0
  2  3  1  0
  3  4  1  0
  5  4  1  0
  6  5  1  0
  7  6  1  0
  8  7  2  0
  9  8  1  0
 10  9  1  0
 10 11  2  0
 11  7  1  0
 12  1  1  0
 13 14  1  0
 13 15  1  0
 14 15  1  0
 15 12  1  0
 16 17  2  0
 17 13  1  0
 18 17  1  0
 19 18  2  0
 20 19  1  0
 21 20  2  0
 21 16  1  0
  2 22  1  0
  2 23  1  0
  3 24  1  0
  3 25  1  0
  4 26  1  0
  4 27  1  0
  5 28  1  0
  5 29  1  0
  6 30  1  1
  8 31  1  0
  9 32  1  0
 10 33  1  0
 12 34  1  0
 12 35  1  0
 13 36  1  1
 14 37  1  0
 14 38  1  0
 15 39  1  1
 16 40  1  0
 18 41  1  0
 20 42  1  0
M  ISO  8  22  13  23  13  24  13  25  13  26  13  27  13  28  13  29  13
M  ISO  8  30  13  31  14  32   9  33  14  34   8  35   8  36  13  37  13
M  ISO  5  38  13  39  13  40  14  41  14  42  14
M  END
>  <minimizedAffinity>  (1) 
-3.87984467

>  <minimizedRMSD>  (1) 
1.28979433

$$$$
