
     RDKit          3D

 30 32  0  0  1  0  0  0  0  0999 V2000
   47.1460   33.9110   42.5040 C   0  0  2  0  0  0  0  0  0  0  0  0
   45.5510   35.6470   43.2220 C   0  0  0  0  0  0  0  0  0  0  0  0
   46.2190   34.4370   43.5250 C   0  0  0  0  0  0  0  0  0  0  0  0
   45.9640   33.8430   44.7710 C   0  0  0  0  0  0  0  0  0  0  0  0
   45.0980   34.4870   45.5740 N   0  0  0  0  0  0  0  0  0  0  0  0
   44.4910   35.6200   45.2600 C   0  0  0  0  0  0  0  0  0  0  0  0
   44.7070   36.2210   44.0760 N   0  0  0  0  0  0  0  0  0  0  0  0
   46.3220   33.4350   41.3520 C   0  0  0  0  0  0  0  0  0  0  0  0
   46.4190   33.7270   40.0110 C   0  0  0  0  0  0  0  0  0  0  0  0
   45.4640   33.0580   39.3300 N   0  0  0  0  0  0  0  0  0  0  0  0
   44.7610   32.3400   40.2530 C   0  0  0  0  0  0  0  0  0  0  0  0
   45.2950   32.5830   41.4620 N   0  0  0  0  0  0  0  0  0  0  0  0
   47.8780   32.7640   43.1110 C   0  0  0  0  0  0  0  0  0  0  0  0
   49.2580   32.6660   42.5560 C   0  0  0  0  0  0  0  0  0  0  0  0
   50.0360   33.8060   42.7090 C   0  0  0  0  0  0  0  0  0  0  0  0
   51.2580   33.6350   42.1790 N   0  0  0  0  0  0  0  0  0  0  0  0
   51.2160   32.3840   41.7050 C   0  0  0  0  0  0  0  0  0  0  0  0
   50.0520   31.7940   41.9140 N   0  0  0  0  0  0  0  0  0  0  0  0
   47.8622   34.6728   42.1625 H   0  0  0  0  0  0  0  0  0  0  0  0
   45.7351   36.1283   42.2502 H   0  0  0  0  0  0  0  0  0  0  0  0
   46.4462   32.9020   45.0743 H   0  0  0  0  0  0  0  0  0  0  0  0
   43.7973   36.0787   45.9800 H   0  0  0  0  0  0  0  0  0  0  0  0
   47.1617   34.4028   39.5619 H   0  0  0  0  0  0  0  0  0  0  0  0
   45.2987   33.0845   38.3137 H   0  0  0  0  0  0  0  0  0  0  0  0
   43.9073   31.6785   40.0442 H   0  0  0  0  0  0  0  0  0  0  0  0
   47.9362   32.9085   44.1999 H   0  0  0  0  0  0  0  0  0  0  0  0
   47.3363   31.8356   42.8774 H   0  0  0  0  0  0  0  0  0  0  0  0
   49.6955   34.7293   43.2005 H   0  0  0  0  0  0  0  0  0  0  0  0
   52.0394   34.3052   42.1454 H   0  0  0  0  0  0  0  0  0  0  0  0
   52.0611   31.8982   41.1953 H   0  0  0  0  0  0  0  0  0  0  0  0
  1 13  1  0
  1  3  1  0
  2  3  2  0
  2  7  1  0
  3  4  1  0
  4  5  2  0
  6  5  1  0
  7  6  2  0
  8 12  1  0
  8  1  1  0
  9  8  2  0
 10  9  1  0
 10 11  1  0
 11 12  2  0
 14 15  2  0
 14 13  1  0
 16 15  1  0
 17 18  2  0
 17 16  1  0
 18 14  1  0
  1 19  1  6
  2 20  1  0
  4 21  1  0
  6 22  1  0
  9 23  1  0
 10 24  1  0
 11 25  1  0
 13 26  1  0
 13 27  1  0
 15 28  1  0
 16 29  1  0
 17 30  1  0
M  ISO  8  19   8  20  14  21  14  22  14  23  14  24   9  25  14  26   8
M  ISO  4  27   8  28  14  29   9  30  14
M  END
>  <minimizedAffinity>  (1) 
-4.42028427

>  <minimizedRMSD>  (1) 
3.1933558

$$$$
