
     RDKit          3D

 44 48  0  0  0  0  0  0  0  0999 V2000
   45.3100   30.1410   48.5190 C   0  0  0  0  0  0  0  0  0  0  0  0
   45.3050   27.6090   48.1370 C   0  0  0  0  0  0  0  0  0  0  0  0
   44.9740   28.9030   47.8350 C   0  0  0  0  0  0  0  0  0  0  0  0
   44.1890   29.0830   46.6930 C   0  0  0  0  0  0  0  0  0  0  0  0
   43.7670   28.0320   45.9090 C   0  0  0  0  0  0  0  0  0  0  0  0
   43.0350   27.9050   44.7980 N   0  0  0  0  0  0  0  0  0  0  0  0
   42.9130   26.6260   44.4260 C   0  0  0  0  0  0  0  0  0  0  0  0
   43.6040   25.8370   45.3400 C   0  0  0  0  0  0  0  0  0  0  0  0
   44.1190   26.7420   46.2400 C   0  0  0  0  0  0  0  0  0  0  0  0
   44.8880   26.5500   47.3580 C   0  0  0  0  0  0  0  0  0  0  0  0
   45.2810   25.1990   47.7440 C   0  0  0  0  0  0  0  0  0  0  0  0
   45.2060   24.6340   49.0010 C   0  0  0  0  0  0  0  0  0  0  0  0
   45.6480   23.3640   49.0280 N   0  0  0  0  0  0  0  0  0  0  0  0
   46.0190   23.1110   47.7400 C   0  0  0  0  0  0  0  0  0  0  0  0
   45.7980   24.2060   46.9830 N   0  0  0  0  0  0  0  0  0  0  0  0
   46.6680   30.6970   48.2900 C   0  0  0  0  0  0  0  0  0  0  0  0
   46.3410   32.8770   45.4700 C   0  0  0  0  0  0  0  0  0  0  0  0
   47.1850   31.8650   44.9610 C   0  0  0  0  0  0  0  0  0  0  0  0
   47.4020   30.9520   45.9330 C   0  0  0  0  0  0  0  0  0  0  0  0
   46.7270   31.3670   47.0030 N   0  0  0  0  0  0  0  0  0  0  0  0
   46.0950   32.5130   46.7270 N   0  0  0  0  0  0  0  0  0  0  0  0
   44.5230   35.9020   44.5560 C   0  0  0  0  0  0  0  0  0  0  0  0
   45.0230   36.2110   43.2930 C   0  0  0  0  0  0  0  0  0  0  0  0
   45.9890   35.3650   42.7650 C   0  0  0  0  0  0  0  0  0  0  0  0
   46.3810   34.3020   43.5090 N   0  0  0  0  0  0  0  0  0  0  0  0
   45.8910   34.0250   44.7140 C   0  0  0  0  0  0  0  0  0  0  0  0
   44.9490   34.8360   45.2440 N   0  0  0  0  0  0  0  0  0  0  0  0
   44.5828   30.9026   48.2008 H   0  0  0  0  0  0  0  0  0  0  0  0
   45.2840   29.8891   49.5894 H   0  0  0  0  0  0  0  0  0  0  0  0
   45.9209   27.4085   49.0261 H   0  0  0  0  0  0  0  0  0  0  0  0
   43.8965   30.1046   46.4089 H   0  0  0  0  0  0  0  0  0  0  0  0
   42.6155   28.6965   44.2896 H   0  0  0  0  0  0  0  0  0  0  0  0
   42.3608   26.2606   43.5477 H   0  0  0  0  0  0  0  0  0  0  0  0
   43.7135   24.7425   45.3427 H   0  0  0  0  0  0  0  0  0  0  0  0
   44.8255   25.1654   49.8858 H   0  0  0  0  0  0  0  0  0  0  0  0
   45.6955   22.7278   49.8366 H   0  0  0  0  0  0  0  0  0  0  0  0
   46.4345   22.1603   47.3745 H   0  0  0  0  0  0  0  0  0  0  0  0
   46.9038   31.4186   49.0861 H   0  0  0  0  0  0  0  0  0  0  0  0
   47.3981   29.8743   48.2993 H   0  0  0  0  0  0  0  0  0  0  0  0
   47.5973   31.8266   43.9419 H   0  0  0  0  0  0  0  0  0  0  0  0
   48.0166   30.0430   45.8555 H   0  0  0  0  0  0  0  0  0  0  0  0
   43.7559   36.5530   45.0007 H   0  0  0  0  0  0  0  0  0  0  0  0
   44.6667   37.0902   42.7362 H   0  0  0  0  0  0  0  0  0  0  0  0
   46.4235   35.5520   41.7719 H   0  0  0  0  0  0  0  0  0  0  0  0
  3  2  2  0
  3  1  1  0
  4  3  1  0
  5  9  1  0
  5  4  2  0
  6  5  1  0
  7  6  1  0
  7  8  2  0
  8  9  1  0
  9 10  2  0
 10 11  1  0
 10  2  1  0
 11 12  2  0
 12 13  1  0
 14 13  1  0
 15 14  2  0
 15 11  1  0
 16  1  1  0
 17 21  2  0
 18 17  1  0
 18 19  2  0
 19 20  1  0
 20 16  1  0
 21 20  1  0
 22 27  2  0
 23 22  1  0
 24 23  2  0
 24 25  1  0
 25 26  2  0
 26 27  1  0
 26 17  1  0
  1 28  1  0
  1 29  1  0
  2 30  1  0
  4 31  1  0
  6 32  1  0
  7 33  1  0
  8 34  1  0
 12 35  1  0
 13 36  1  0
 14 37  1  0
 16 38  1  0
 16 39  1  0
 18 40  1  0
 19 41  1  0
 22 42  1  0
 23 43  1  0
 24 44  1  0
M  ISO  8  28   8  29   8  30  14  31  14  32   9  33  14  34  14  35  14
M  ISO  8  36   9  37  14  38   8  39   8  40  14  41  14  42  14  43  14
M  ISO  1  44  14
M  END
>  <minimizedAffinity>  (1) 
-5.56335926

>  <minimizedRMSD>  (1) 
1.04168713

$$$$
