
     RDKit          3D

 46 49  0  0  0  0  0  0  0  0999 V2000
   41.8680   32.5870   41.5340 C   0  0  0  0  0  0  0  0  0  0  0  0
   40.8530   32.2250   40.7370 N   0  0  0  0  0  0  0  0  0  0  0  0
   40.6310   30.9410   40.1530 C   0  0  0  0  0  0  0  0  0  0  0  0
   39.4920   30.4640   41.0480 C   0  0  0  0  0  0  0  0  0  0  0  0
   38.3140   31.3140   41.0120 C   0  0  0  0  0  0  0  0  0  0  0  0
   38.4630   32.7030   40.6350 C   0  0  0  0  0  0  0  0  0  0  0  0
   39.8500   33.2840   40.4770 C   0  0  0  0  0  0  0  0  0  0  0  0
   40.1860   34.9210   40.0770 S   0  0  0  0  0  0  0  0  0  0  0  0
   41.3760   35.2830   38.8530 C   0  0  0  0  0  0  0  0  0  0  0  0
   42.6170   35.1330   38.3080 C   0  0  0  0  0  0  0  0  0  0  0  0
   42.7100   35.9000   37.2190 N   0  0  0  0  0  0  0  0  0  0  0  0
   41.5510   36.5480   37.0450 C   0  0  0  0  0  0  0  0  0  0  0  0
   40.7080   36.1760   38.0550 N   0  0  0  0  0  0  0  0  0  0  0  0
   43.1900   32.5720   40.8560 C   0  0  0  0  0  0  0  0  0  0  0  0
   44.0360   33.6120   41.4650 C   0  0  0  0  0  0  0  0  0  0  0  0
   43.4750   34.7730   41.9450 C   0  0  0  0  0  0  0  0  0  0  0  0
   44.3130   35.7310   42.5010 C   0  0  0  0  0  0  0  0  0  0  0  0
   45.6550   35.4670   42.5440 N   0  0  0  0  0  0  0  0  0  0  0  0
   46.1590   34.3320   42.0720 C   0  0  0  0  0  0  0  0  0  0  0  0
   45.3350   33.4250   41.5400 N   0  0  0  0  0  0  0  0  0  0  0  0
   47.6000   34.1240   42.1850 C   0  0  0  0  0  0  0  0  0  0  0  0
   48.1280   32.8370   42.2450 C   0  0  0  0  0  0  0  0  0  0  0  0
   49.4870   32.6550   42.3610 C   0  0  0  0  0  0  0  0  0  0  0  0
   50.2220   33.8140   42.4090 C   0  0  0  0  0  0  0  0  0  0  0  0
   49.7460   35.1180   42.3530 C   0  0  0  0  0  0  0  0  0  0  0  0
   48.3950   35.2020   42.2390 N   0  0  0  0  0  0  0  0  0  0  0  0
   41.6763   33.6064   41.9002 H   0  0  0  0  0  0  0  0  0  0  0  0
   41.9155   31.8516   42.3507 H   0  0  0  0  0  0  0  0  0  0  0  0
   40.3240   31.0149   39.0993 H   0  0  0  0  0  0  0  0  0  0  0  0
   41.5101   30.2809   40.1147 H   0  0  0  0  0  0  0  0  0  0  0  0
   39.1992   29.4538   40.7258 H   0  0  0  0  0  0  0  0  0  0  0  0
   39.8689   30.4875   42.0811 H   0  0  0  0  0  0  0  0  0  0  0  0
   37.6105   30.8600   40.2986 H   0  0  0  0  0  0  0  0  0  0  0  0
   37.9886   31.3588   42.0618 H   0  0  0  0  0  0  0  0  0  0  0  0
   37.5756   33.3304   40.4649 H   0  0  0  0  0  0  0  0  0  0  0  0
   43.4133   34.4845   38.7021 H   0  0  0  0  0  0  0  0  0  0  0  0
   43.5381   35.9802   36.6118 H   0  0  0  0  0  0  0  0  0  0  0  0
   41.3187   37.2538   36.2339 H   0  0  0  0  0  0  0  0  0  0  0  0
   43.0600   32.7796   39.7836 H   0  0  0  0  0  0  0  0  0  0  0  0
   43.6625   31.5853   40.9704 H   0  0  0  0  0  0  0  0  0  0  0  0
   42.3889   34.9385   41.8897 H   0  0  0  0  0  0  0  0  0  0  0  0
   43.9094   36.6751   42.8956 H   0  0  0  0  0  0  0  0  0  0  0  0
   47.4585   31.9654   42.1997 H   0  0  0  0  0  0  0  0  0  0  0  0
   49.9490   31.6580   42.4114 H   0  0  0  0  0  0  0  0  0  0  0  0
   51.3117   33.6965   42.5024 H   0  0  0  0  0  0  0  0  0  0  0  0
   50.4018   36.0000   42.3969 H   0  0  0  0  0  0  0  0  0  0  0  0
  2  1  1  0
  3  2  1  0
  3  4  1  0
  5  4  1  0
  6  5  1  0
  7  6  2  0
  7  2  1  0
  8  7  1  0
  9  8  1  0
 10  9  2  0
 11 10  1  0
 12 11  1  0
 12 13  2  0
 13  9  1  0
 14 15  1  0
 14  1  1  0
 15 20  1  0
 15 16  2  0
 16 17  1  0
 17 18  2  0
 19 21  1  0
 19 18  1  0
 20 19  2  0
 21 26  1  0
 21 22  2  0
 22 23  1  0
 23 24  2  0
 25 24  1  0
 26 25  2  0
  1 27  1  0
  1 28  1  0
  3 29  1  0
  3 30  1  0
  4 31  1  0
  4 32  1  0
  5 33  1  0
  5 34  1  0
  6 35  1  0
 10 36  1  0
 11 37  1  0
 12 38  1  0
 14 39  1  0
 14 40  1  0
 16 41  1  0
 17 42  1  0
 22 43  1  0
 23 44  1  0
 24 45  1  0
 25 46  1  0
M  ISO  8  27   8  28   8  29  13  30  13  31  13  32  13  33  13  34  13
M  ISO  8  35  13  36  14  37   9  38  14  39   8  40   8  41  14  42  14
M  ISO  4  43  14  44  14  45  14  46  14
M  END
>  <minimizedAffinity>  (1) 
-5.51429176

>  <minimizedRMSD>  (1) 
1.6858865

$$$$
