
     RDKit          3D

 25 27  0  0  0  0  0  0  0  0999 V2000
   45.3680   33.9990   45.7270 C   0  0  0  0  0  0  0  0  0  0  0  0
   45.6940   33.8900   44.3730 C   0  0  0  0  0  0  0  0  0  0  0  0
   46.6550   32.9840   43.9400 C   0  0  0  0  0  0  0  0  0  0  0  0
   47.2550   32.2150   44.8970 N   0  0  0  0  0  0  0  0  0  0  0  0
   46.9310   32.3310   46.2030 C   0  0  0  0  0  0  0  0  0  0  0  0
   46.0030   33.2060   46.6210 N   0  0  0  0  0  0  0  0  0  0  0  0
   47.6020   31.4860   47.1900 C   0  0  0  0  0  0  0  0  0  0  0  0
   47.8620   30.1710   46.9670 C   0  0  0  0  0  0  0  0  0  0  0  0
   48.4870   29.3540   47.8690 C   0  0  0  0  0  0  0  0  0  0  0  0
   48.8570   29.9340   49.0590 N   0  0  0  0  0  0  0  0  0  0  0  0
   48.5980   31.2320   49.2750 C   0  0  0  0  0  0  0  0  0  0  0  0
   47.9780   32.0480   48.3860 N   0  0  0  0  0  0  0  0  0  0  0  0
   44.9950   34.7560   43.4270 C   0  0  0  0  0  0  0  0  0  0  0  0
   44.9420   36.1350   43.4770 C   0  0  0  0  0  0  0  0  0  0  0  0
   44.1860   36.4900   42.3990 N   0  0  0  0  0  0  0  0  0  0  0  0
   43.7950   35.3800   41.7230 C   0  0  0  0  0  0  0  0  0  0  0  0
   44.3060   34.3010   42.3740 N   0  0  0  0  0  0  0  0  0  0  0  0
   44.6064   34.7188   46.0615 H   0  0  0  0  0  0  0  0  0  0  0  0
   46.9202   32.8904   42.8766 H   0  0  0  0  0  0  0  0  0  0  0  0
   47.5517   29.7379   46.0046 H   0  0  0  0  0  0  0  0  0  0  0  0
   48.6824   28.2930   47.6541 H   0  0  0  0  0  0  0  0  0  0  0  0
   48.9091   31.6640   50.2376 H   0  0  0  0  0  0  0  0  0  0  0  0
   45.4063   36.7992   44.2208 H   0  0  0  0  0  0  0  0  0  0  0  0
   43.9472   37.4570   42.1367 H   0  0  0  0  0  0  0  0  0  0  0  0
   43.1768   35.3573   40.8134 H   0  0  0  0  0  0  0  0  0  0  0  0
  1  6  2  0
  2  1  1  0
  3  2  2  0
  3  4  1  0
  4  5  2  0
  5  6  1  0
  5  7  1  0
  7 12  1  0
  8  7  2  0
  8  9  1  0
  9 10  2  0
 10 11  1  0
 12 11  2  0
 13 14  2  0
 13  2  1  0
 15 14  1  0
 16 17  2  0
 16 15  1  0
 17 13  1  0
  1 18  1  0
  3 19  1  0
  8 20  1  0
  9 21  1  0
 11 22  1  0
 14 23  1  0
 15 24  1  0
 16 25  1  0
M  ISO  8  18  14  19  14  20  14  21  14  22  14  23  14  24   9  25  14
M  END
>  <minimizedAffinity>  (1) 
-4.58377409

>  <minimizedRMSD>  (1) 
2.39920259

$$$$
