
     RDKit          3D

 24 26  0  0  0  0  0  0  0  0999 V2000
   48.2210   34.7740   41.7150 C   0  0  0  0  0  0  0  0  0  0  0  0
   49.0670   35.9950   41.6770 C   0  0  0  0  0  0  0  0  0  0  0  0
   49.6420   34.7260   42.1530 C   0  0  0  0  0  0  0  0  0  0  0  0
   46.0450   35.5540   42.7100 C   0  0  0  0  0  0  0  0  0  0  0  0
   47.1480   34.6990   42.7430 C   0  0  0  0  0  0  0  0  0  0  0  0
   47.1970   33.7590   43.7960 C   0  0  0  0  0  0  0  0  0  0  0  0
   46.1860   33.7300   44.7120 N   0  0  0  0  0  0  0  0  0  0  0  0
   45.1440   34.5740   44.6380 C   0  0  0  0  0  0  0  0  0  0  0  0
   45.0850   35.4730   43.6410 N   0  0  0  0  0  0  0  0  0  0  0  0
   47.9370   34.0250   40.4610 C   0  0  0  0  0  0  0  0  0  0  0  0
   47.4470   32.7650   40.2740 C   0  0  0  0  0  0  0  0  0  0  0  0
   47.3560   32.5090   38.9570 N   0  0  0  0  0  0  0  0  0  0  0  0
   47.7910   33.6110   38.2860 C   0  0  0  0  0  0  0  0  0  0  0  0
   48.1340   34.5060   39.2020 N   0  0  0  0  0  0  0  0  0  0  0  0
   49.3844   36.4131   40.7103 H   0  0  0  0  0  0  0  0  0  0  0  0
   48.9815   37.0109   42.0900 H   0  0  0  0  0  0  0  0  0  0  0  0
   49.8844   34.5982   43.2183 H   0  0  0  0  0  0  0  0  0  0  0  0
   50.5185   34.1201   41.8798 H   0  0  0  0  0  0  0  0  0  0  0  0
   45.9630   36.3038   41.9094 H   0  0  0  0  0  0  0  0  0  0  0  0
   48.0408   33.0580   43.8768 H   0  0  0  0  0  0  0  0  0  0  0  0
   44.3425   34.5296   45.3901 H   0  0  0  0  0  0  0  0  0  0  0  0
   47.1693   32.0664   41.0770 H   0  0  0  0  0  0  0  0  0  0  0  0
   47.0173   31.6344   38.5313 H   0  0  0  0  0  0  0  0  0  0  0  0
   47.8470   33.7348   37.1944 H   0  0  0  0  0  0  0  0  0  0  0  0
  1  3  1  0
  1  5  1  0
  2  1  1  0
  2  3  1  0
  4  5  2  0
  4  9  1  0
  5  6  1  0
  6  7  2  0
  8  7  1  0
  9  8  2  0
 10  1  1  0
 11 10  2  0
 12 11  1  0
 13 12  1  0
 13 14  2  0
 14 10  1  0
  2 15  1  0
  2 16  1  0
  3 17  1  0
  3 18  1  0
  4 19  1  0
  6 20  1  0
  8 21  1  0
 11 22  1  0
 12 23  1  0
 13 24  1  0
M  ISO  8  15  13  16  13  17  13  18  13  19  14  20  14  21  14  22  14
M  ISO  2  23   9  24  14
M  END
>  <minimizedAffinity>  (1) 
-4.49000931

>  <minimizedRMSD>  (1) 
1.2092309

$$$$
