
     RDKit          3D

 51 54  0  0  0  0  0  0  0  0999 V2000
   45.4540   30.2980   47.1830 C   0  0  0  0  0  0  0  0  0  0  0  0
   46.2370   31.3130   46.7500 C   0  0  0  0  0  0  0  0  0  0  0  0
   46.4900   32.3610   47.6150 C   0  0  0  0  0  0  0  0  0  0  0  0
   45.9800   32.4130   48.8900 C   0  0  0  0  0  0  0  0  0  0  0  0
   45.1850   31.3740   49.3200 C   0  0  0  0  0  0  0  0  0  0  0  0
   44.9270   30.3190   48.4570 C   0  0  0  0  0  0  0  0  0  0  0  0
   45.0870   29.0610   46.0080 S   0  0  0  0  0  0  0  0  0  0  0  0
   44.9030   29.5590   44.6350 O   0  0  0  0  0  0  0  0  0  0  0  0
   43.6990   28.5140   46.4180 O   0  0  0  0  0  0  0  0  0  0  0  0
   46.5100   26.8080   45.1780 C   0  0  0  0  0  0  0  0  0  0  0  0
   46.0810   27.6350   46.1930 C   0  0  0  0  0  0  0  0  0  0  0  0
   46.5300   27.2330   47.4570 C   0  0  0  0  0  0  0  0  0  0  0  0
   47.3190   26.1410   47.7460 C   0  0  0  0  0  0  0  0  0  0  0  0
   47.7860   25.6930   48.9170 N   0  0  0  0  0  0  0  0  0  0  0  0
   48.5010   24.5870   48.5940 C   0  0  0  0  0  0  0  0  0  0  0  0
   48.4740   24.3560   47.2270 C   0  0  0  0  0  0  0  0  0  0  0  0
   47.7070   25.3640   46.6800 C   0  0  0  0  0  0  0  0  0  0  0  0
   47.3010   25.7010   45.4120 C   0  0  0  0  0  0  0  0  0  0  0  0
   46.8480   31.4470   45.5050 O   0  0  0  0  0  0  0  0  0  0  0  0
   45.4540   34.2030   43.7950 C   0  0  0  0  0  0  0  0  0  0  0  0
   46.5620   34.7190   43.1000 C   0  0  0  0  0  0  0  0  0  0  0  0
   47.7810   34.1100   43.2290 C   0  0  0  0  0  0  0  0  0  0  0  0
   47.8230   33.0350   44.0340 N   0  0  0  0  0  0  0  0  0  0  0  0
   46.7840   32.5500   44.6860 C   0  0  0  0  0  0  0  0  0  0  0  0
   45.5960   33.1350   44.5680 N   0  0  0  0  0  0  0  0  0  0  0  0
   48.9980   34.5430   42.5280 C   0  0  0  0  0  0  0  0  0  0  0  0
   48.7520   35.6980   41.6040 C   0  0  0  0  0  0  0  0  0  0  0  0
   48.6100   35.3060   40.2010 C   0  0  0  0  0  0  0  0  0  0  0  0
   48.0880   34.3570   39.4350 C   0  0  0  0  0  0  0  0  0  0  0  0
   48.2440   34.2190   37.9300 C   0  0  0  0  0  0  0  0  0  0  0  0
   47.1265   33.1884   47.2681 H   0  0  0  0  0  0  0  0  0  0  0  0
   46.2014   33.2639   49.5511 H   0  0  0  0  0  0  0  0  0  0  0  0
   44.7601   31.3806   50.3346 H   0  0  0  0  0  0  0  0  0  0  0  0
   44.2922   29.4863   48.7942 H   0  0  0  0  0  0  0  0  0  0  0  0
   46.2117   27.0379   44.1445 H   0  0  0  0  0  0  0  0  0  0  0  0
   46.2199   27.8550   48.3096 H   0  0  0  0  0  0  0  0  0  0  0  0
   47.6362   26.0970   49.8526 H   0  0  0  0  0  0  0  0  0  0  0  0
   49.0328   23.9558   49.3212 H   0  0  0  0  0  0  0  0  0  0  0  0
   48.9657   23.5336   46.6868 H   0  0  0  0  0  0  0  0  0  0  0  0
   47.6132   25.0745   44.5634 H   0  0  0  0  0  0  0  0  0  0  0  0
   44.4700   34.6850   43.6975 H   0  0  0  0  0  0  0  0  0  0  0  0
   46.4501   35.6050   42.4578 H   0  0  0  0  0  0  0  0  0  0  0  0
   49.7470   34.8434   43.2755 H   0  0  0  0  0  0  0  0  0  0  0  0
   49.3494   33.6977   41.9180 H   0  0  0  0  0  0  0  0  0  0  0  0
   47.8277   36.2045   41.9188 H   0  0  0  0  0  0  0  0  0  0  0  0
   49.6317   36.3552   41.6679 H   0  0  0  0  0  0  0  0  0  0  0  0
   49.1053   36.0537   39.5642 H   0  0  0  0  0  0  0  0  0  0  0  0
   47.4804   33.5922   39.9409 H   0  0  0  0  0  0  0  0  0  0  0  0
   49.0511   33.5050   37.7090 H   0  0  0  0  0  0  0  0  0  0  0  0
   47.3018   33.8533   37.4957 H   0  0  0  0  0  0  0  0  0  0  0  0
   48.4920   35.1987   37.4957 H   0  0  0  0  0  0  0  0  0  0  0  0
  1  6  2  0
  2  1  1  0
  2  3  2  0
  3  4  1  0
  4  5  2  0
  6  5  1  0
  7 11  1  0
  7  9  2  0
  7  1  1  0
  8  7  2  0
 10 18  2  0
 10 11  1  0
 11 12  2  0
 12 13  1  0
 13 14  1  0
 15 14  1  0
 16 15  2  0
 17 16  1  0
 17 13  2  0
 18 17  1  0
 19  2  1  0
 20 25  2  0
 21 22  2  0
 21 20  1  0
 22 23  1  0
 23 24  2  0
 24 19  1  0
 25 24  1  0
 26 22  1  0
 27 26  1  0
 28 27  1  0
 29 28  2  0
 30 29  1  0
  3 31  1  0
  4 32  1  0
  5 33  1  0
  6 34  1  0
 10 35  1  0
 12 36  1  0
 14 37  1  0
 15 38  1  0
 16 39  1  0
 18 40  1  0
 20 41  1  0
 21 42  1  0
 26 43  1  0
 26 44  1  0
 27 45  1  0
 27 46  1  0
 28 47  1  0
 29 48  1  0
 30 49  1  0
 30 50  1  0
 30 51  1  0
M  ISO  8  31  14  32  14  33  14  34  14  35  14  36  14  37   9  38  14
M  ISO  8  39  14  40  14  41  14  42  14  43   8  44   8  45   8  46   8
M  ISO  3  49   8  50   8  51   8
M  END
>  <minimizedAffinity>  (1) 
-6.05719423

>  <minimizedRMSD>  (1) 
2.66968226

$$$$
