
     RDKit          3D

 37 40  0  0  0  0  0  0  0  0999 V2000
   45.5530   30.1460   44.1230 Br  0  0  0  0  0  0  0  0  0  0  0  0
   45.8110   30.7850   45.9240 C   0  0  0  0  0  0  0  0  0  0  0  0
   46.5350   31.9600   46.0560 C   0  0  0  0  0  0  0  0  0  0  0  0
   46.6930   32.3770   47.3720 C   0  0  0  0  0  0  0  0  0  0  0  0
   46.1920   31.7110   48.4720 C   0  0  0  0  0  0  0  0  0  0  0  0
   45.4860   30.5550   48.2550 C   0  0  0  0  0  0  0  0  0  0  0  0
   45.2810   30.0660   46.9640 C   0  0  0  0  0  0  0  0  0  0  0  0
   44.9470   27.8020   47.6010 C   0  0  0  0  0  0  0  0  0  0  0  0
   44.5320   28.8470   46.8000 C   0  0  0  0  0  0  0  0  0  0  0  0
   43.4750   28.6100   45.9570 C   0  0  0  0  0  0  0  0  0  0  0  0
   42.8310   27.4080   45.8800 C   0  0  0  0  0  0  0  0  0  0  0  0
   41.8020   27.0570   45.1100 N   0  0  0  0  0  0  0  0  0  0  0  0
   41.5110   25.7820   45.3780 C   0  0  0  0  0  0  0  0  0  0  0  0
   42.3900   25.3230   46.3490 C   0  0  0  0  0  0  0  0  0  0  0  0
   43.2400   26.3590   46.6780 C   0  0  0  0  0  0  0  0  0  0  0  0
   44.3020   26.5820   47.5300 C   0  0  0  0  0  0  0  0  0  0  0  0
   47.1110   32.7460   44.9730 C   0  0  0  0  0  0  0  0  0  0  0  0
   44.5560   35.4820   44.9510 C   0  0  0  0  0  0  0  0  0  0  0  0
   44.7790   36.0640   43.6970 C   0  0  0  0  0  0  0  0  0  0  0  0
   45.7750   35.5280   42.8980 C   0  0  0  0  0  0  0  0  0  0  0  0
   46.4990   34.4600   43.3500 N   0  0  0  0  0  0  0  0  0  0  0  0
   46.2570   33.9120   44.5800 C   0  0  0  0  0  0  0  0  0  0  0  0
   45.2820   34.4440   45.3530 N   0  0  0  0  0  0  0  0  0  0  0  0
   47.2577   33.3041   47.5497 H   0  0  0  0  0  0  0  0  0  0  0  0
   46.3536   32.0948   49.4901 H   0  0  0  0  0  0  0  0  0  0  0  0
   45.0743   30.0039   49.1134 H   0  0  0  0  0  0  0  0  0  0  0  0
   45.7896   27.9403   48.2945 H   0  0  0  0  0  0  0  0  0  0  0  0
   43.1290   29.4299   45.3105 H   0  0  0  0  0  0  0  0  0  0  0  0
   41.3180   27.6608   44.4302 H   0  0  0  0  0  0  0  0  0  0  0  0
   40.7090   25.1938   44.9080 H   0  0  0  0  0  0  0  0  0  0  0  0
   42.4062   24.3113   46.7804 H   0  0  0  0  0  0  0  0  0  0  0  0
   44.6471   25.7604   48.1749 H   0  0  0  0  0  0  0  0  0  0  0  0
   48.0923   33.1232   45.2967 H   0  0  0  0  0  0  0  0  0  0  0  0
   47.1941   32.0876   44.0957 H   0  0  0  0  0  0  0  0  0  0  0  0
   43.7732   35.8875   45.6089 H   0  0  0  0  0  0  0  0  0  0  0  0
   44.1805   36.9219   43.3566 H   0  0  0  0  0  0  0  0  0  0  0  0
   45.9821   35.9583   41.9071 H   0  0  0  0  0  0  0  0  0  0  0  0
  1  2  1  0
  2  3  2  0
  2  7  1  0
  3  4  1  0
  4  5  2  0
  6  5  1  0
  7  6  2  0
  9  7  1  0
  9  8  2  0
 10  9  1  0
 11 10  2  0
 11 15  1  0
 12 13  1  0
 12 11  1  0
 13 14  2  0
 14 15  1  0
 15 16  2  0
 16  8  1  0
 17  3  1  0
 18 23  2  0
 19 18  1  0
 20 21  1  0
 20 19  2  0
 21 22  2  0
 22 17  1  0
 22 23  1  0
  4 24  1  0
  5 25  1  0
  6 26  1  0
  8 27  1  0
 10 28  1  0
 12 29  1  0
 13 30  1  0
 14 31  1  0
 16 32  1  0
 17 33  1  0
 17 34  1  0
 18 35  1  0
 19 36  1  0
 20 37  1  0
M  ISO  8  24  14  25  14  26  14  27  14  28  14  29   9  30  14  31  14
M  ISO  6  32  14  33   8  34   8  35  14  36  14  37  14
M  END
>  <minimizedAffinity>  (1) 
-5.9162097

>  <minimizedRMSD>  (1) 
1.09020984

$$$$
