
     RDKit          3D

 51 55  0  0  1  0  0  0  0  0999 V2000
   47.8240   32.8780   41.7940 C   0  0  1  0  0  0  0  0  0  0  0  0
   47.5100   32.2750   40.4990 C   0  0  0  0  0  0  0  0  0  0  0  0
   48.5530   32.8210   39.5210 C   0  0  0  0  0  0  0  0  0  0  0  0
   48.2100   34.2890   39.3170 C   0  0  0  0  0  0  0  0  0  0  0  0
   48.1510   35.0770   40.5900 C   0  0  0  0  0  0  0  0  0  0  0  0
   47.6270   34.3980   41.7830 C   0  0  1  0  0  0  0  0  0  0  0  0
   45.3680   30.9040   43.8800 C   0  0  0  0  0  0  0  0  0  0  0  0
   46.0630   31.4780   42.8130 C   0  0  0  0  0  0  0  0  0  0  0  0
   47.1680   32.3210   42.9580 C   0  0  0  0  0  0  0  0  0  0  0  0
   47.5400   32.5600   44.2150 N   0  0  0  0  0  0  0  0  0  0  0  0
   46.8820   32.0160   45.2730 C   0  0  0  0  0  0  0  0  0  0  0  0
   45.8300   31.2120   45.1240 N   0  0  0  0  0  0  0  0  0  0  0  0
   46.2440   34.7680   42.0870 C   0  0  0  0  0  0  0  0  0  0  0  0
   45.7940   35.3270   43.2940 C   0  0  0  0  0  0  0  0  0  0  0  0
   44.4340   35.6130   43.3550 C   0  0  0  0  0  0  0  0  0  0  0  0
   43.6530   35.3350   42.2510 C   0  0  0  0  0  0  0  0  0  0  0  0
   44.1170   34.7840   41.0660 C   0  0  0  0  0  0  0  0  0  0  0  0
   45.4570   34.5050   41.0180 N   0  0  0  0  0  0  0  0  0  0  0  0
   43.2150   34.5310   39.9480 C   0  0  0  0  0  0  0  0  0  0  0  0
   42.2630   35.3470   39.7770 O   0  0  0  0  0  0  0  0  0  0  0  0
   44.4580   33.1540   38.3710 C   0  0  0  0  0  0  0  0  0  0  0  0
   43.2530   33.4470   38.9740 C   0  0  0  0  0  0  0  0  0  0  0  0
   42.1560   32.6930   38.6140 C   0  0  0  0  0  0  0  0  0  0  0  0
   42.1840   31.6660   37.6920 C   0  0  0  0  0  0  0  0  0  0  0  0
   41.2790   30.8100   37.1860 N   0  0  0  0  0  0  0  0  0  0  0  0
   41.9010   29.9980   36.2870 C   0  0  0  0  0  0  0  0  0  0  0  0
   43.2520   30.3430   36.2100 C   0  0  0  0  0  0  0  0  0  0  0  0
   43.4080   31.3990   37.1060 C   0  0  0  0  0  0  0  0  0  0  0  0
   44.5380   32.1200   37.4280 C   0  0  0  0  0  0  0  0  0  0  0  0
   48.8864   32.6184   41.9120 H   0  0  0  0  0  0  0  0  0  0  0  0
   47.5790   31.1789   40.5600 H   0  0  0  0  0  0  0  0  0  0  0  0
   46.4866   32.5178   40.1768 H   0  0  0  0  0  0  0  0  0  0  0  0
   49.5633   32.7200   39.9442 H   0  0  0  0  0  0  0  0  0  0  0  0
   48.5407   32.2688   38.5697 H   0  0  0  0  0  0  0  0  0  0  0  0
   48.9755   34.7372   38.6665 H   0  0  0  0  0  0  0  0  0  0  0  0
   47.2055   34.3250   38.8702 H   0  0  0  0  0  0  0  0  0  0  0  0
   49.1745   35.4070   40.8213 H   0  0  0  0  0  0  0  0  0  0  0  0
   47.4316   35.8842   40.3876 H   0  0  0  0  0  0  0  0  0  0  0  0
   48.2570   34.7772   42.6011 H   0  0  0  0  0  0  0  0  0  0  0  0
   44.5015   30.2443   43.7254 H   0  0  0  0  0  0  0  0  0  0  0  0
   45.7184   31.2519   41.7931 H   0  0  0  0  0  0  0  0  0  0  0  0
   47.2311   32.2483   46.2899 H   0  0  0  0  0  0  0  0  0  0  0  0
   46.4728   35.5258   44.1365 H   0  0  0  0  0  0  0  0  0  0  0  0
   43.9911   36.0505   44.2619 H   0  0  0  0  0  0  0  0  0  0  0  0
   42.5801   35.5685   42.3164 H   0  0  0  0  0  0  0  0  0  0  0  0
   45.3572   33.7322   38.6302 H   0  0  0  0  0  0  0  0  0  0  0  0
   41.1939   32.9255   39.0938 H   0  0  0  0  0  0  0  0  0  0  0  0
   40.2806   30.7743   37.4368 H   0  0  0  0  0  0  0  0  0  0  0  0
   41.4154   29.1960   35.7117 H   0  0  0  0  0  0  0  0  0  0  0  0
   44.0256   29.8812   35.5788 H   0  0  0  0  0  0  0  0  0  0  0  0
   45.4988   31.8848   36.9468 H   0  0  0  0  0  0  0  0  0  0  0  0
  1  9  1  0
  2  1  1  0
  3  2  1  0
  4  3  1  0
  4  5  1  0
  5  6  1  0
  6  1  1  0
  6 13  1  0
  7 12  2  0
  8  9  2  0
  8  7  1  0
  9 10  1  0
 10 11  2  0
 12 11  1  0
 13 14  2  0
 14 15  1  0
 16 15  2  0
 17 16  1  0
 18 17  2  0
 18 13  1  0
 19 17  1  0
 20 19  2  0
 21 22  2  0
 22 19  1  0
 23 22  1  0
 24 23  2  0
 25 24  1  0
 26 25  1  0
 27 26  2  0
 27 28  1  0
 28 29  2  0
 28 24  1  0
 29 21  1  0
  1 30  1  1
  2 31  1  0
  2 32  1  0
  3 33  1  0
  3 34  1  0
  4 35  1  0
  4 36  1  0
  5 37  1  0
  5 38  1  0
  6 39  1  1
  7 40  1  0
  8 41  1  0
 11 42  1  0
 14 43  1  0
 15 44  1  0
 16 45  1  0
 21 46  1  0
 23 47  1  0
 25 48  1  0
 26 49  1  0
 27 50  1  0
 29 51  1  0
M  ISO  8  30  13  31  13  32  13  33  13  34  13  35  13  36  13  37  13
M  ISO  8  38  13  39  13  40  14  41  14  42  14  43  14  44  14  45  14
M  ISO  6  46  14  47  14  48   9  49  14  50  14  51  14
M  END
>  <minimizedAffinity>  (1) 
-5.86533308

>  <minimizedRMSD>  (1) 
0.564929664

$$$$
