
     RDKit          3D

 35 38  0  0  1  0  0  0  0  0999 V2000
   46.7870   34.7920   43.0700 C   0  0  0  0  0  0  0  0  0  0  0  0
   45.6730   35.6910   43.1600 C   0  0  0  0  0  0  0  0  0  0  0  0
   44.7430   35.4310   44.1880 C   0  0  0  0  0  0  0  0  0  0  0  0
   44.9600   34.3740   45.0060 N   0  0  0  0  0  0  0  0  0  0  0  0
   46.0490   33.5680   44.8480 C   0  0  0  0  0  0  0  0  0  0  0  0
   46.9590   33.7490   43.9110 N   0  0  0  0  0  0  0  0  0  0  0  0
   46.2130   32.4240   45.8070 C   0  0  1  0  0  0  0  0  0  0  0  0
   46.9780   32.6510   47.0920 C   0  0  0  0  0  0  0  0  0  0  0  0
   45.4730   32.5620   47.0790 C   0  0  1  0  0  0  0  0  0  0  0  0
   44.8540   33.8580   47.4100 N   0  0  0  0  0  0  0  0  0  0  0  0
   47.6780   35.1510   42.0060 C   0  0  0  0  0  0  0  0  0  0  0  0
   48.6480   35.9790   42.1300 O   0  0  0  0  0  0  0  0  0  0  0  0
   46.1940   33.7050   40.4420 C   0  0  0  0  0  0  0  0  0  0  0  0
   47.3020   34.4390   40.7940 C   0  0  0  0  0  0  0  0  0  0  0  0
   48.2910   34.6160   39.8140 C   0  0  0  0  0  0  0  0  0  0  0  0
   48.1840   34.0920   38.5430 C   0  0  0  0  0  0  0  0  0  0  0  0
   48.9870   34.1360   37.4380 N   0  0  0  0  0  0  0  0  0  0  0  0
   48.3950   33.4540   36.4420 C   0  0  0  0  0  0  0  0  0  0  0  0
   47.1700   32.9440   36.8860 C   0  0  0  0  0  0  0  0  0  0  0  0
   47.0670   33.3590   38.2020 C   0  0  0  0  0  0  0  0  0  0  0  0
   46.0890   33.1850   39.1800 C   0  0  0  0  0  0  0  0  0  0  0  0
   45.5508   36.5358   42.4662 H   0  0  0  0  0  0  0  0  0  0  0  0
   43.8601   36.0733   44.3224 H   0  0  0  0  0  0  0  0  0  0  0  0
   46.2908   31.6733   45.0068 H   0  0  0  0  0  0  0  0  0  0  0  0
   47.5770   31.8394   47.5307 H   0  0  0  0  0  0  0  0  0  0  0  0
   47.7190   33.3824   47.4468 H   0  0  0  0  0  0  0  0  0  0  0  0
   44.6856   31.9453   47.5369 H   0  0  0  0  0  0  0  0  0  0  0  0
   44.8038   33.9631   48.4334 H   0  0  0  0  0  0  0  0  0  0  0  0
   45.4217   34.6207   47.0140 H   0  0  0  0  0  0  0  0  0  0  0  0
   45.3914   33.5355   41.1749 H   0  0  0  0  0  0  0  0  0  0  0  0
   49.1891   35.1971   40.0706 H   0  0  0  0  0  0  0  0  0  0  0  0
   49.8975   34.6138   37.3780 H   0  0  0  0  0  0  0  0  0  0  0  0
   48.8102   33.3178   35.4325 H   0  0  0  0  0  0  0  0  0  0  0  0
   46.4469   32.3442   36.3139 H   0  0  0  0  0  0  0  0  0  0  0  0
   45.1910   32.6027   38.9258 H   0  0  0  0  0  0  0  0  0  0  0  0
  1  2  2  0
  1  6  1  0
  2  3  1  0
  3  4  2  0
  5  4  1  0
  5  7  1  0
  6  5  2  0
  7  9  1  0
  7  8  1  0
  9  8  1  0
  9 10  1  0
 11 12  2  0
 11  1  1  0
 13 14  2  0
 14 11  1  0
 15 14  1  0
 16 15  2  0
 17 16  1  0
 18 19  2  0
 18 17  1  0
 19 20  1  0
 20 16  1  0
 20 21  2  0
 21 13  1  0
  2 22  1  0
  3 23  1  0
  7 24  1  6
  8 25  1  0
  8 26  1  0
  9 27  1  1
 10 28  1  0
 10 29  1  0
 13 30  1  0
 15 31  1  0
 17 32  1  0
 18 33  1  0
 19 34  1  0
 21 35  1  0
M  ISO  8  22  14  23  14  24  13  25  13  26  13  27  13  28   5  29   5
M  ISO  6  30  14  31  14  32   9  33  14  34  14  35  14
M  END
>  <minimizedAffinity>  (1) 
-6.46809816

>  <minimizedRMSD>  (1) 
2.45929122

$$$$
