
     RDKit          3D

 53 57  0  0  1  0  0  0  0  0999 V2000
   45.1160   37.0300   42.8800 C   0  0  0  0  0  0  0  0  0  0  0  0
   45.4580   35.8040   43.6950 C   0  0  0  0  0  0  0  0  0  0  0  0
   46.4810   34.9640   43.2290 C   0  0  0  0  0  0  0  0  0  0  0  0
   46.8210   33.8200   43.9780 C   0  0  0  0  0  0  0  0  0  0  0  0
   46.1500   33.5970   45.0920 N   0  0  0  0  0  0  0  0  0  0  0  0
   45.1660   34.4160   45.5280 C   0  0  0  0  0  0  0  0  0  0  0  0
   44.8180   35.5230   44.8270 N   0  0  0  0  0  0  0  0  0  0  0  0
   48.9320   33.7160   42.6630 C   0  0  2  0  0  0  0  0  0  0  0  0
   47.8920   33.0030   43.4240 C   0  0  2  0  0  0  0  0  0  0  0  0
   47.4390   32.0360   42.4560 O   0  0  0  0  0  0  0  0  0  0  0  0
   48.6580   31.4820   42.0740 C   0  0  0  0  0  0  0  0  0  0  0  0
   49.7440   32.4860   42.1950 C   0  0  1  0  0  0  0  0  0  0  0  0
   49.6510   34.6280   43.3530 O   0  0  0  0  0  0  0  0  0  0  0  0
   50.3690   32.7960   40.9830 O   0  0  0  0  0  0  0  0  0  0  0  0
   45.3590   39.3770   43.9520 C   0  0  0  0  0  0  0  0  0  0  0  0
   46.2040   39.6750   43.0740 O   0  0  0  0  0  0  0  0  0  0  0  0
   44.7850   38.0760   43.8330 N   0  0  0  0  0  0  0  0  0  0  0  0
   44.9450   40.2560   45.0510 C   0  0  0  0  0  0  0  0  0  0  0  0
   45.5580   40.1690   46.2560 C   0  0  0  0  0  0  0  0  0  0  0  0
   45.0940   41.0490   47.2400 C   0  0  0  0  0  0  0  0  0  0  0  0
   44.0640   41.9740   47.0310 C   0  0  0  0  0  0  0  0  0  0  0  0
   43.5130   41.9820   45.7860 C   0  0  0  0  0  0  0  0  0  0  0  0
   43.9360   41.1560   44.8300 N   0  0  0  0  0  0  0  0  0  0  0  0
   42.5630   43.6760   44.2850 C   0  0  0  0  0  0  0  0  0  0  0  0
   42.4330   42.8870   45.4090 C   0  0  0  0  0  0  0  0  0  0  0  0
   41.2530   43.0180   46.1130 C   0  0  0  0  0  0  0  0  0  0  0  0
   40.2560   43.8800   45.7300 C   0  0  0  0  0  0  0  0  0  0  0  0
   39.0400   44.1800   46.2430 N   0  0  0  0  0  0  0  0  0  0  0  0
   38.4240   45.1220   45.4700 C   0  0  0  0  0  0  0  0  0  0  0  0
   39.2720   45.4540   44.4080 C   0  0  0  0  0  0  0  0  0  0  0  0
   40.3860   44.6670   44.6080 C   0  0  0  0  0  0  0  0  0  0  0  0
   41.5530   44.5590   43.8830 C   0  0  0  0  0  0  0  0  0  0  0  0
   45.9781   37.3323   42.2673 H   0  0  0  0  0  0  0  0  0  0  0  0
   44.2773   36.8333   42.1960 H   0  0  0  0  0  0  0  0  0  0  0  0
   47.0098   35.1953   42.2926 H   0  0  0  0  0  0  0  0  0  0  0  0
   44.6403   34.1805   46.4651 H   0  0  0  0  0  0  0  0  0  0  0  0
   48.5484   34.3762   41.8712 H   0  0  0  0  0  0  0  0  0  0  0  0
   48.2879   32.5718   44.3553 H   0  0  0  0  0  0  0  0  0  0  0  0
   48.5911   31.1448   41.0291 H   0  0  0  0  0  0  0  0  0  0  0  0
   48.8846   30.6306   42.7326 H   0  0  0  0  0  0  0  0  0  0  0  0
   50.5612   32.1425   42.8463 H   0  0  0  0  0  0  0  0  0  0  0  0
   49.5315   34.4764   44.3240 H   0  0  0  0  0  0  0  0  0  0  0  0
   51.2412   33.2286   41.1626 H   0  0  0  0  0  0  0  0  0  0  0  0
   44.0413   37.8494   44.5086 H   0  0  0  0  0  0  0  0  0  0  0  0
   46.3694   39.4517   46.4487 H   0  0  0  0  0  0  0  0  0  0  0  0
   45.5649   41.0120   48.2334 H   0  0  0  0  0  0  0  0  0  0  0  0
   43.7206   42.6535   47.8250 H   0  0  0  0  0  0  0  0  0  0  0  0
   43.4848   43.6099   43.6884 H   0  0  0  0  0  0  0  0  0  0  0  0
   41.1059   42.4077   47.0163 H   0  0  0  0  0  0  0  0  0  0  0  0
   38.6379   43.7590   47.0927 H   0  0  0  0  0  0  0  0  0  0  0  0
   37.4267   45.5489   45.6520 H   0  0  0  0  0  0  0  0  0  0  0  0
   39.0913   46.1771   43.5990 H   0  0  0  0  0  0  0  0  0  0  0  0
   41.6925   45.1719   42.9803 H   0  0  0  0  0  0  0  0  0  0  0  0
  1  2  1  0
  1 17  1  0
  2  7  1  0
  3  2  2  0
  3  4  1  0
  4  5  2  0
  5  6  1  0
  7  6  2  0
  8 13  1  0
  8  9  1  0
  9  4  1  0
 10  9  1  0
 11 12  1  0
 11 10  1  0
 12  8  1  0
 14 12  1  0
 15 18  1  0
 16 15  2  0
 17 15  1  0
 18 19  2  0
 19 20  1  0
 21 20  2  0
 22 21  1  0
 23 18  1  0
 23 22  2  0
 24 25  2  0
 25 22  1  0
 25 26  1  0
 27 26  2  0
 27 28  1  0
 29 28  1  0
 30 31  1  0
 30 29  2  0
 31 27  1  0
 32 24  1  0
 32 31  2  0
  1 33  1  0
  1 34  1  0
  3 35  1  0
  6 36  1  0
  8 37  1  6
  9 38  1  1
 11 39  1  0
 11 40  1  0
 12 41  1  1
 13 42  1  0
 14 43  1  0
 17 44  1  0
 19 45  1  0
 20 46  1  0
 21 47  1  0
 24 48  1  0
 26 49  1  0
 28 50  1  0
 29 51  1  0
 30 52  1  0
 32 53  1  0
M  ISO  8  33   8  34   8  35  14  36  14  37  13  38  13  39  13  40  13
M  ISO  8  41  13  42   3  43   3  45  14  46  14  47  14  48  14  49  14
M  ISO  4  50   9  51  14  52  14  53  14
M  END
>  <minimizedAffinity>  (1) 
-4.32025146

>  <minimizedRMSD>  (1) 
1.59318197

$$$$
