
     RDKit          3D

 42 46  0  0  0  0  0  0  0  0999 V2000
   47.3680   33.2990   38.6980 C   0  0  0  0  0  0  0  0  0  0  0  0
   48.0690   32.1190   38.4240 C   0  0  0  0  0  0  0  0  0  0  0  0
   47.2690   31.4790   36.9240 S   0  0  0  0  0  0  0  0  0  0  0  0
   46.0590   32.9660   36.8980 C   0  0  0  0  0  0  0  0  0  0  0  0
   46.4290   33.5000   37.8080 N   0  0  0  0  0  0  0  0  0  0  0  0
   45.0360   33.1910   35.9310 N   0  0  0  0  0  0  0  0  0  0  0  0
   49.0360   30.4960   40.0750 C   0  0  0  0  0  0  0  0  0  0  0  0
   49.1740   31.4880   39.1170 C   0  0  0  0  0  0  0  0  0  0  0  0
   50.4810   31.8850   38.8210 C   0  0  0  0  0  0  0  0  0  0  0  0
   51.5790   31.3310   39.4420 C   0  0  0  0  0  0  0  0  0  0  0  0
   52.9120   31.5070   39.3660 N   0  0  0  0  0  0  0  0  0  0  0  0
   53.5370   30.6690   40.2300 C   0  0  0  0  0  0  0  0  0  0  0  0
   52.5980   29.9000   40.9120 C   0  0  0  0  0  0  0  0  0  0  0  0
   51.3790   30.3470   40.3890 C   0  0  0  0  0  0  0  0  0  0  0  0
   50.1110   29.9170   40.7170 C   0  0  0  0  0  0  0  0  0  0  0  0
   45.6480   32.9570   41.0460 Cl  0  0  0  0  0  0  0  0  0  0  0  0
   46.9540   34.1090   41.0180 C   0  0  0  0  0  0  0  0  0  0  0  0
   47.2550   34.9180   42.0810 C   0  0  0  0  0  0  0  0  0  0  0  0
   48.3020   35.7790   41.9340 C   0  0  0  0  0  0  0  0  0  0  0  0
   49.0340   35.8600   40.8070 C   0  0  0  0  0  0  0  0  0  0  0  0
   48.7520   35.0630   39.7370 C   0  0  0  0  0  0  0  0  0  0  0  0
   47.6860   34.1700   39.8530 C   0  0  0  0  0  0  0  0  0  0  0  0
   44.5630   35.4920   44.6930 C   0  0  0  0  0  0  0  0  0  0  0  0
   45.3390   35.6340   43.5430 C   0  0  0  0  0  0  0  0  0  0  0  0
   46.4320   34.7900   43.2720 C   0  0  0  0  0  0  0  0  0  0  0  0
   46.6600   33.8430   44.2120 N   0  0  0  0  0  0  0  0  0  0  0  0
   45.9010   33.7190   45.3180 C   0  0  0  0  0  0  0  0  0  0  0  0
   44.8660   34.5360   45.5520 N   0  0  0  0  0  0  0  0  0  0  0  0
   44.4337   34.0235   36.0026 H   0  0  0  0  0  0  0  0  0  0  0  0
   44.8991   32.5211   35.1607 H   0  0  0  0  0  0  0  0  0  0  0  0
   48.0232   30.1548   40.3353 H   0  0  0  0  0  0  0  0  0  0  0  0
   50.6387   32.6682   38.0648 H   0  0  0  0  0  0  0  0  0  0  0  0
   53.3860   32.1778   38.7445 H   0  0  0  0  0  0  0  0  0  0  0  0
   54.6261   30.6061   40.3712 H   0  0  0  0  0  0  0  0  0  0  0  0
   52.7719   29.1283   41.6764 H   0  0  0  0  0  0  0  0  0  0  0  0
   49.9601   29.1315   41.4721 H   0  0  0  0  0  0  0  0  0  0  0  0
   48.5607   36.4383   42.7757 H   0  0  0  0  0  0  0  0  0  0  0  0
   49.8673   36.5757   40.7487 H   0  0  0  0  0  0  0  0  0  0  0  0
   49.3454   35.1221   38.8127 H   0  0  0  0  0  0  0  0  0  0  0  0
   43.7133   36.1647   44.8812 H   0  0  0  0  0  0  0  0  0  0  0  0
   45.0892   36.4299   42.8260 H   0  0  0  0  0  0  0  0  0  0  0  0
   46.1368   32.9285   46.0457 H   0  0  0  0  0  0  0  0  0  0  0  0
  1 22  1  0
  2  1  2  0
  2  8  1  0
  3  2  1  0
  4  3  1  0
  4  5  2  0
  5  1  1  0
  6  4  1  0
  7 15  2  0
  8  7  1  0
  9  8  2  0
  9 10  1  0
 10 14  2  0
 11 10  1  0
 11 12  1  0
 12 13  2  0
 14 15  1  0
 14 13  1  0
 17 16  1  0
 17 18  2  0
 18 25  1  0
 19 18  1  0
 20 19  2  0
 21 22  2  0
 21 20  1  0
 22 17  1  0
 23 28  2  0
 24 23  1  0
 25 24  2  0
 25 26  1  0
 26 27  2  0
 27 28  1  0
  6 29  1  0
  6 30  1  0
  7 31  1  0
  9 32  1  0
 11 33  1  0
 12 34  1  0
 13 35  1  0
 15 36  1  0
 19 37  1  0
 20 38  1  0
 21 39  1  0
 23 40  1  0
 24 41  1  0
 27 42  1  0
M  ISO  8  31  14  32  14  33   9  34  14  35  14  36  14  37  14  38  14
M  ISO  4  39  14  40  14  41  14  42  14
M  END
>  <minimizedAffinity>  (1) 
-6.52289057

>  <minimizedRMSD>  (1) 
2.38128185

$$$$
