
     RDKit          3D

 41 45  0  0  1  0  0  0  0  0999 V2000
   47.4480   33.7290   39.6630 C   0  0  0  0  0  0  0  0  0  0  0  0
   48.2940   34.3550   38.7500 C   0  0  0  0  0  0  0  0  0  0  0  0
   47.7620   34.2130   37.4740 C   0  0  0  0  0  0  0  0  0  0  0  0
   46.6090   33.5010   37.6810 C   0  0  0  0  0  0  0  0  0  0  0  0
   46.4470   33.2320   38.9490 O   0  0  0  0  0  0  0  0  0  0  0  0
   45.6710   33.0920   36.6280 C   0  0  2  0  0  0  0  0  0  0  0  0
   44.9320   31.8210   36.7410 C   0  0  0  0  0  0  0  0  0  0  0  0
   46.1100   31.8220   35.8610 C   0  0  2  0  0  0  0  0  0  0  0  0
   47.6280   30.3650   37.2710 C   0  0  0  0  0  0  0  0  0  0  0  0
   47.3920   31.2140   36.2110 C   0  0  0  0  0  0  0  0  0  0  0  0
   48.5280   31.4740   35.4600 C   0  0  0  0  0  0  0  0  0  0  0  0
   49.7630   30.9370   35.7520 C   0  0  0  0  0  0  0  0  0  0  0  0
   50.9620   31.0730   35.1470 N   0  0  0  0  0  0  0  0  0  0  0  0
   51.8800   30.3540   35.7940 C   0  0  0  0  0  0  0  0  0  0  0  0
   51.2660   29.7250   36.8580 C   0  0  0  0  0  0  0  0  0  0  0  0
   49.9380   30.0930   36.8270 C   0  0  0  0  0  0  0  0  0  0  0  0
   48.8400   29.8010   37.6070 C   0  0  0  0  0  0  0  0  0  0  0  0
   47.5320   33.5910   41.0570 O   0  0  0  0  0  0  0  0  0  0  0  0
   47.5510   34.7410   41.8760 C   0  0  0  0  0  0  0  0  0  0  0  0
   48.3660   35.6250   41.5530 O   0  0  0  0  0  0  0  0  0  0  0  0
   46.6380   34.7440   42.9700 C   0  0  0  0  0  0  0  0  0  0  0  0
   45.6770   35.7170   42.9130 C   0  0  0  0  0  0  0  0  0  0  0  0
   44.7460   35.7820   43.9500 C   0  0  0  0  0  0  0  0  0  0  0  0
   44.8440   34.8820   44.9570 N   0  0  0  0  0  0  0  0  0  0  0  0
   45.7940   33.9490   44.9780 C   0  0  0  0  0  0  0  0  0  0  0  0
   46.6810   33.8960   43.9780 N   0  0  0  0  0  0  0  0  0  0  0  0
   49.2301   34.8765   38.9985 H   0  0  0  0  0  0  0  0  0  0  0  0
   48.1699   34.5844   36.5223 H   0  0  0  0  0  0  0  0  0  0  0  0
   45.3612   34.1245   36.4089 H   0  0  0  0  0  0  0  0  0  0  0  0
   44.9641   31.2594   37.6863 H   0  0  0  0  0  0  0  0  0  0  0  0
   43.8779   31.5423   36.5951 H   0  0  0  0  0  0  0  0  0  0  0  0
   46.2721   31.5065   34.8198 H   0  0  0  0  0  0  0  0  0  0  0  0
   46.7678   30.1139   37.9090 H   0  0  0  0  0  0  0  0  0  0  0  0
   48.4392   32.1407   34.5896 H   0  0  0  0  0  0  0  0  0  0  0  0
   51.1411   31.6466   34.3104 H   0  0  0  0  0  0  0  0  0  0  0  0
   52.9439   30.2757   35.5257 H   0  0  0  0  0  0  0  0  0  0  0  0
   51.7445   29.0580   37.5902 H   0  0  0  0  0  0  0  0  0  0  0  0
   48.9287   29.1337   38.4770 H   0  0  0  0  0  0  0  0  0  0  0  0
   45.6398   36.4272   42.0738 H   0  0  0  0  0  0  0  0  0  0  0  0
   43.9531   36.5444   43.9496 H   0  0  0  0  0  0  0  0  0  0  0  0
   45.8488   33.2298   45.8085 H   0  0  0  0  0  0  0  0  0  0  0  0
  1 18  1  0
  2  1  2  0
  3  4  2  0
  3  2  1  0
  4  5  1  0
  5  1  1  0
  6  7  1  0
  6  4  1  0
  8 10  1  0
  8  6  1  0
  8  7  1  0
  9 17  2  0
 10  9  1  0
 11 12  1  0
 11 10  2  0
 12 16  2  0
 13 12  1  0
 13 14  1  0
 14 15  2  0
 16 15  1  0
 16 17  1  0
 18 19  1  0
 19 21  1  0
 20 19  2  0
 21 26  1  0
 22 21  2  0
 22 23  1  0
 23 24  2  0
 24 25  1  0
 26 25  2  0
  2 27  1  0
  3 28  1  0
  6 29  1  6
  7 30  1  0
  7 31  1  0
  8 32  1  6
  9 33  1  0
 11 34  1  0
 13 35  1  0
 14 36  1  0
 15 37  1  0
 17 38  1  0
 22 39  1  0
 23 40  1  0
 25 41  1  0
M  ISO  8  27  14  28  14  29  13  30  13  31  13  32  13  33  14  34  14
M  ISO  7  35   9  36  14  37  14  38  14  39  14  40  14  41  14
M  END
>  <minimizedAffinity>  (1) 
-5.07819939

>  <minimizedRMSD>  (1) 
1.50548744

$$$$
