
     RDKit          3D

 38 41  0  0  0  0  0  0  0  0999 V2000
   45.1160   36.0440   43.5100 C   0  0  0  0  0  0  0  0  0  0  0  0
   45.9210   34.9360   43.2960 C   0  0  0  0  0  0  0  0  0  0  0  0
   46.0170   34.0300   44.3300 C   0  0  0  0  0  0  0  0  0  0  0  0
   45.3270   34.2550   45.4960 N   0  0  0  0  0  0  0  0  0  0  0  0
   44.5520   35.3450   45.6690 C   0  0  0  0  0  0  0  0  0  0  0  0
   44.4490   36.2280   44.6870 N   0  0  0  0  0  0  0  0  0  0  0  0
   46.5510   34.7770   42.0540 N   0  0  0  0  0  0  0  0  0  0  0  0
   47.8640   35.1730   41.8190 C   0  0  0  0  0  0  0  0  0  0  0  0
   48.5510   34.5940   40.6080 C   0  0  0  0  0  0  0  0  0  0  0  0
   48.1370   33.3430   40.1570 N   0  0  0  0  0  0  0  0  0  0  0  0
   46.7660   33.0630   40.2920 C   0  0  0  0  0  0  0  0  0  0  0  0
   45.9580   34.2040   40.8820 C   0  0  0  0  0  0  0  0  0  0  0  0
   47.4780   31.9910   43.6230 C   0  0  0  0  0  0  0  0  0  0  0  0
   46.7330   32.8130   44.4460 C   0  0  0  0  0  0  0  0  0  0  0  0
   46.6650   32.2400   45.7370 C   0  0  0  0  0  0  0  0  0  0  0  0
   47.2360   31.0530   46.1450 C   0  0  0  0  0  0  0  0  0  0  0  0
   47.2740   30.3740   47.3000 N   0  0  0  0  0  0  0  0  0  0  0  0
   47.9930   29.2550   47.1110 C   0  0  0  0  0  0  0  0  0  0  0  0
   48.4300   29.2030   45.8180 C   0  0  0  0  0  0  0  0  0  0  0  0
   47.9510   30.3350   45.2220 C   0  0  0  0  0  0  0  0  0  0  0  0
   48.0800   30.8020   43.9400 C   0  0  0  0  0  0  0  0  0  0  0  0
   45.0120   36.7936   42.7117 H   0  0  0  0  0  0  0  0  0  0  0  0
   44.0116   35.4990   46.6147 H   0  0  0  0  0  0  0  0  0  0  0  0
   47.8651   36.2674   41.7086 H   0  0  0  0  0  0  0  0  0  0  0  0
   48.4341   34.7910   42.6787 H   0  0  0  0  0  0  0  0  0  0  0  0
   48.4079   35.3040   39.7801 H   0  0  0  0  0  0  0  0  0  0  0  0
   49.5914   34.4394   40.9301 H   0  0  0  0  0  0  0  0  0  0  0  0
   48.6582   32.6289   40.6855 H   0  0  0  0  0  0  0  0  0  0  0  0
   46.3607   32.8310   39.2961 H   0  0  0  0  0  0  0  0  0  0  0  0
   46.6812   32.2182   40.9913 H   0  0  0  0  0  0  0  0  0  0  0  0
   45.8601   34.9917   40.1205 H   0  0  0  0  0  0  0  0  0  0  0  0
   44.9837   33.7902   41.1812 H   0  0  0  0  0  0  0  0  0  0  0  0
   47.6033   32.3333   42.5852 H   0  0  0  0  0  0  0  0  0  0  0  0
   46.0973   32.7996   46.4950 H   0  0  0  0  0  0  0  0  0  0  0  0
   46.8277   30.6614   48.1827 H   0  0  0  0  0  0  0  0  0  0  0  0
   48.1985   28.4962   47.8804 H   0  0  0  0  0  0  0  0  0  0  0  0
   49.0402   28.4143   45.3536 H   0  0  0  0  0  0  0  0  0  0  0  0
   48.6505   30.2383   43.1872 H   0  0  0  0  0  0  0  0  0  0  0  0
  1  6  2  0
  2  1  1  0
  2  3  2  0
  3 14  1  0
  3  4  1  0
  4  5  2  0
  6  5  1  0
  7  2  1  0
  8  7  1  0
  9  8  1  0
 10 11  1  0
 10  9  1  0
 11 12  1  0
 12  7  1  0
 13 21  2  0
 13 14  1  0
 14 15  2  0
 15 16  1  0
 16 17  1  0
 18 17  1  0
 19 18  2  0
 20 19  1  0
 20 16  2  0
 21 20  1  0
  1 22  1  0
  5 23  1  0
  8 24  1  0
  8 25  1  0
  9 26  1  0
  9 27  1  0
 10 28  1  0
 11 29  1  0
 11 30  1  0
 12 31  1  0
 12 32  1  0
 13 33  1  0
 15 34  1  0
 17 35  1  0
 18 36  1  0
 19 37  1  0
 21 38  1  0
M  ISO  8  22  14  23  14  24  13  25  13  26  13  27  13  28   5  29  13
M  ISO  8  30  13  31  13  32  13  33  14  34  14  35   9  36  14  37  14
M  ISO  1  38  14
M  END
>  <minimizedAffinity>  (1) 
-5.28356361

>  <minimizedRMSD>  (1) 
3.73750567

$$$$
