
     RDKit          3D

 51 54  0  0  0  0  0  0  0  0999 V2000
   42.7180   31.5300   42.5700 N   0  0  0  0  0  0  0  0  0  0  0  0
   43.0830   32.5540   41.6240 C   0  0  0  0  0  0  0  0  0  0  0  0
   43.6570   34.9730   41.8780 C   0  0  0  0  0  0  0  0  0  0  0  0
   43.9310   33.6370   42.1810 C   0  0  0  0  0  0  0  0  0  0  0  0
   44.9970   33.3610   42.9990 C   0  0  0  0  0  0  0  0  0  0  0  0
   45.7630   34.3760   43.5000 C   0  0  0  0  0  0  0  0  0  0  0  0
   45.5210   35.6860   43.2220 C   0  0  0  0  0  0  0  0  0  0  0  0
   44.4400   35.9310   42.3940 C   0  0  0  0  0  0  0  0  0  0  0  0
   40.2310   35.7900   40.5240 C   0  0  0  0  0  0  0  0  0  0  0  0
   41.2540   35.5860   41.4610 C   0  0  0  0  0  0  0  0  0  0  0  0
   42.5180   35.2120   41.0050 C   0  0  0  0  0  0  0  0  0  0  0  0
   42.6790   35.0670   39.6590 N   0  0  0  0  0  0  0  0  0  0  0  0
   41.6720   35.2700   38.7730 C   0  0  0  0  0  0  0  0  0  0  0  0
   40.4530   35.6320   39.2230 N   0  0  0  0  0  0  0  0  0  0  0  0
   41.0470   31.1820   42.5630 S   0  0  0  0  0  0  0  0  0  0  0  0
   40.2280   32.4420   42.5080 O   0  0  0  0  0  0  0  0  0  0  0  0
   40.6560   30.3600   43.7370 O   0  0  0  0  0  0  0  0  0  0  0  0
   40.7320   30.2930   41.1740 O   0  0  0  0  0  0  0  0  0  0  0  0
   39.7180   29.4030   41.4300 C   0  0  0  0  0  0  0  0  0  0  0  0
   38.3930   29.9880   40.8940 C   0  0  0  0  0  0  0  0  0  0  0  0
   36.3400   28.9490   39.8270 C   0  0  0  0  0  0  0  0  0  0  0  0
   37.4980   28.8180   40.5900 C   0  0  0  0  0  0  0  0  0  0  0  0
   37.8630   27.5820   41.1020 C   0  0  0  0  0  0  0  0  0  0  0  0
   37.0680   26.4780   40.8470 C   0  0  0  0  0  0  0  0  0  0  0  0
   37.2680   25.2040   41.2620 N   0  0  0  0  0  0  0  0  0  0  0  0
   36.2490   24.4410   40.7880 C   0  0  0  0  0  0  0  0  0  0  0  0
   35.4120   25.2970   40.0640 C   0  0  0  0  0  0  0  0  0  0  0  0
   35.9150   26.5820   40.0920 C   0  0  0  0  0  0  0  0  0  0  0  0
   35.5730   27.8240   39.5950 C   0  0  0  0  0  0  0  0  0  0  0  0
   43.2337   30.6692   42.3375 H   0  0  0  0  0  0  0  0  0  0  0  0
   42.1590   33.0073   41.2358 H   0  0  0  0  0  0  0  0  0  0  0  0
   43.6817   32.0592   40.8451 H   0  0  0  0  0  0  0  0  0  0  0  0
   45.2365   32.3178   43.2529 H   0  0  0  0  0  0  0  0  0  0  0  0
   46.6100   34.1236   44.1549 H   0  0  0  0  0  0  0  0  0  0  0  0
   46.1437   36.4965   43.6287 H   0  0  0  0  0  0  0  0  0  0  0  0
   44.2087   36.9768   42.1435 H   0  0  0  0  0  0  0  0  0  0  0  0
   39.2297   36.0852   40.8708 H   0  0  0  0  0  0  0  0  0  0  0  0
   41.0632   35.7185   42.5362 H   0  0  0  0  0  0  0  0  0  0  0  0
   41.8483   35.1403   37.6950 H   0  0  0  0  0  0  0  0  0  0  0  0
   40.0297   32.7471   43.4287 H   0  0  0  0  0  0  0  0  0  0  0  0
   40.8860   30.8435   44.5697 H   0  0  0  0  0  0  0  0  0  0  0  0
   39.9297   28.4474   40.9280 H   0  0  0  0  0  0  0  0  0  0  0  0
   39.6382   29.2299   42.5134 H   0  0  0  0  0  0  0  0  0  0  0  0
   37.9285   30.6338   41.6537 H   0  0  0  0  0  0  0  0  0  0  0  0
   38.5643   30.6000   39.9962 H   0  0  0  0  0  0  0  0  0  0  0  0
   36.0431   29.9262   39.4185 H   0  0  0  0  0  0  0  0  0  0  0  0
   38.7768   27.4798   41.7058 H   0  0  0  0  0  0  0  0  0  0  0  0
   38.0555   24.8718   41.8368 H   0  0  0  0  0  0  0  0  0  0  0  0
   36.1092   23.3610   40.9431 H   0  0  0  0  0  0  0  0  0  0  0  0
   34.4895   24.9911   39.5487 H   0  0  0  0  0  0  0  0  0  0  0  0
   34.6574   27.9209   38.9931 H   0  0  0  0  0  0  0  0  0  0  0  0
  2  4  1  0
  2  1  1  0
  3  4  1  0
  3  8  2  0
  4  5  2  0
  5  6  1  0
  7  6  2  0
  8  7  1  0
  9 10  2  0
 11 10  1  0
 11  3  1  0
 12 11  2  0
 13 14  2  0
 13 12  1  0
 14  9  1  0
 15  1  1  0
 15 17  1  0
 16 15  1  0
 18 19  1  0
 18 15  1  0
 20 19  1  0
 21 22  2  0
 22 20  1  0
 22 23  1  0
 24 23  2  0
 24 25  1  0
 26 25  1  0
 27 28  1  0
 27 26  2  0
 28 24  1  0
 29 21  1  0
 29 28  2  0
  1 30  1  0
  2 31  1  0
  2 32  1  0
  5 33  1  0
  6 34  1  0
  7 35  1  0
  8 36  1  0
  9 37  1  0
 10 38  1  0
 13 39  1  0
 16 40  1  0
 17 41  1  0
 19 42  1  0
 19 43  1  0
 20 44  1  0
 20 45  1  0
 21 46  1  0
 23 47  1  0
 25 48  1  0
 26 49  1  0
 27 50  1  0
 29 51  1  0
M  ISO  8  30   5  31   8  32   8  33  14  34  14  35  14  36  14  37  14
M  ISO  8  38  14  39  14  40   3  41   3  42   8  43   8  44   8  45   8
M  ISO  6  46  14  47  14  48   9  49  14  50  14  51  14
M  END
>  <minimizedAffinity>  (1) 
-5.81934977

>  <minimizedRMSD>  (1) 
2.43813825

$$$$
