
     RDKit          3D

 36 39  0  0  1  0  0  0  0  0999 V2000
   46.5250   35.0090   41.9050 C   0  0  1  0  0  0  0  0  0  0  0  0
   48.0380   35.3610   41.8970 C   0  0  0  0  0  0  0  0  0  0  0  0
   47.3900   34.0560   41.3410 C   0  0  2  0  0  0  0  0  0  0  0  0
   44.6570   35.4230   45.1330 C   0  0  0  0  0  0  0  0  0  0  0  0
   45.1050   35.6990   43.8130 C   0  0  0  0  0  0  0  0  0  0  0  0
   46.0300   34.8360   43.3230 C   0  0  0  0  0  0  0  0  0  0  0  0
   46.5060   33.7650   44.0520 N   0  0  0  0  0  0  0  0  0  0  0  0
   46.0530   33.5370   45.3100 C   0  0  0  0  0  0  0  0  0  0  0  0
   45.1220   34.3750   45.8490 N   0  0  0  0  0  0  0  0  0  0  0  0
   44.6430   36.8040   43.0810 N   0  0  0  0  0  0  0  0  0  0  0  0
   47.4320   33.8110   39.8510 C   0  0  0  0  0  0  0  0  0  0  0  0
   49.3440   32.2560   40.4300 C   0  0  0  0  0  0  0  0  0  0  0  0
   48.5760   32.9450   39.5260 C   0  0  0  0  0  0  0  0  0  0  0  0
   48.8940   32.8240   38.1770 C   0  0  0  0  0  0  0  0  0  0  0  0
   49.9430   32.0430   37.7330 C   0  0  0  0  0  0  0  0  0  0  0  0
   50.4510   31.7590   36.5220 N   0  0  0  0  0  0  0  0  0  0  0  0
   51.5000   30.9260   36.6270 C   0  0  0  0  0  0  0  0  0  0  0  0
   51.7010   30.6420   37.9630 C   0  0  0  0  0  0  0  0  0  0  0  0
   50.7140   31.3520   38.6370 C   0  0  0  0  0  0  0  0  0  0  0  0
   50.3950   31.4750   39.9780 C   0  0  0  0  0  0  0  0  0  0  0  0
   45.5881   35.4292   41.5105 H   0  0  0  0  0  0  0  0  0  0  0  0
   48.4376   36.1290   41.2183 H   0  0  0  0  0  0  0  0  0  0  0  0
   48.8125   35.6367   42.6278 H   0  0  0  0  0  0  0  0  0  0  0  0
   47.5270   32.9798   41.5228 H   0  0  0  0  0  0  0  0  0  0  0  0
   43.9057   36.0852   45.5880 H   0  0  0  0  0  0  0  0  0  0  0  0
   46.4333   32.6835   45.8904 H   0  0  0  0  0  0  0  0  0  0  0  0
   44.9912   36.9713   42.1262 H   0  0  0  0  0  0  0  0  0  0  0  0
   43.9558   37.4476   43.4987 H   0  0  0  0  0  0  0  0  0  0  0  0
   46.4998   33.3206   39.5341 H   0  0  0  0  0  0  0  0  0  0  0  0
   47.5395   34.7713   39.3255 H   0  0  0  0  0  0  0  0  0  0  0  0
   49.1268   32.3232   41.5062 H   0  0  0  0  0  0  0  0  0  0  0  0
   48.2887   33.3695   37.4381 H   0  0  0  0  0  0  0  0  0  0  0  0
   50.0856   32.1298   35.6332 H   0  0  0  0  0  0  0  0  0  0  0  0
   52.0977   30.5362   35.7899 H   0  0  0  0  0  0  0  0  0  0  0  0
   52.4750   29.9939   38.3998 H   0  0  0  0  0  0  0  0  0  0  0  0
   51.0015   30.9296   40.7160 H   0  0  0  0  0  0  0  0  0  0  0  0
  1  6  1  0
  2  1  1  0
  3  2  1  0
  3  1  1  0
  4  9  2  0
  5  4  1  0
  6  5  2  0
  6  7  1  0
  7  8  2  0
  8  9  1  0
 10  5  1  0
 11  3  1  0
 13 11  1  0
 13 12  2  0
 14 13  1  0
 15 14  2  0
 15 19  1  0
 16 17  1  0
 16 15  1  0
 17 18  2  0
 18 19  1  0
 19 20  2  0
 20 12  1  0
  1 21  1  6
  2 22  1  0
  2 23  1  0
  3 24  1  1
  4 25  1  0
  8 26  1  0
 10 27  1  0
 10 28  1  0
 11 29  1  0
 11 30  1  0
 12 31  1  0
 14 32  1  0
 16 33  1  0
 17 34  1  0
 18 35  1  0
 20 36  1  0
M  ISO  8  21  13  22  13  23  13  24  13  25  14  26  14  29   8  30   8
M  ISO  6  31  14  32  14  33   9  34  14  35  14  36  14
M  END
>  <minimizedAffinity>  (1) 
-5.48479605

>  <minimizedRMSD>  (1) 
0.51070708

$$$$
