
     RDKit          3D

 55 59  0  0  1  0  0  0  0  0999 V2000
   46.9530   32.7960   45.5110 C   0  0  0  0  0  0  0  0  0  0  0  0
   45.8590   33.4760   46.0390 C   0  0  0  0  0  0  0  0  0  0  0  0
   45.1710   34.4120   45.2350 C   0  0  0  0  0  0  0  0  0  0  0  0
   45.6510   34.5930   43.9410 N   0  0  0  0  0  0  0  0  0  0  0  0
   46.7200   33.9000   43.4950 C   0  0  0  0  0  0  0  0  0  0  0  0
   47.3500   33.0260   44.2660 N   0  0  0  0  0  0  0  0  0  0  0  0
   47.6120   31.8280   46.3640 C   0  0  2  0  0  0  0  0  0  0  0  0
   47.4040   30.3720   45.8420 C   0  0  0  0  0  0  0  0  0  0  0  0
   48.2310   29.4370   46.6540 C   0  0  0  0  0  0  0  0  0  0  0  0
   48.2000   29.6460   48.1290 C   0  0  0  0  0  0  0  0  0  0  0  0
   48.1600   31.0270   48.5360 C   0  0  0  0  0  0  0  0  0  0  0  0
   47.1540   31.8860   47.7380 C   0  0  2  0  0  0  0  0  0  0  0  0
   45.8290   31.2720   47.8510 N   0  0  0  0  0  0  0  0  0  0  0  0
   45.1550   30.7030   48.9460 C   0  0  0  0  0  0  0  0  0  0  0  0
   44.5950   31.4040   49.8640 O   0  0  0  0  0  0  0  0  0  0  0  0
   45.1330   29.2740   48.9580 N   0  0  0  0  0  0  0  0  0  0  0  0
   47.1840   34.1620   42.1320 C   0  0  0  0  0  0  0  0  0  0  0  0
   48.2250   35.0310   41.8870 C   0  0  0  0  0  0  0  0  0  0  0  0
   48.7170   35.3320   40.6420 C   0  0  0  0  0  0  0  0  0  0  0  0
   48.0660   34.6730   39.6020 C   0  0  0  0  0  0  0  0  0  0  0  0
   47.0260   33.8030   39.8230 C   0  0  0  0  0  0  0  0  0  0  0  0
   46.5860   33.5500   41.1010 N   0  0  0  0  0  0  0  0  0  0  0  0
   45.3030   32.2230   38.9140 C   0  0  0  0  0  0  0  0  0  0  0  0
   46.3420   33.1120   38.7370 C   0  0  0  0  0  0  0  0  0  0  0  0
   46.6990   33.3050   37.4190 C   0  0  0  0  0  0  0  0  0  0  0  0
   46.0980   32.6860   36.3410 C   0  0  0  0  0  0  0  0  0  0  0  0
   46.3360   32.7760   35.0200 N   0  0  0  0  0  0  0  0  0  0  0  0
   45.4460   31.9510   34.4230 C   0  0  0  0  0  0  0  0  0  0  0  0
   44.6310   31.3240   35.3590 C   0  0  0  0  0  0  0  0  0  0  0  0
   45.0630   31.8080   36.5760 C   0  0  0  0  0  0  0  0  0  0  0  0
   44.6660   31.5780   37.8740 C   0  0  0  0  0  0  0  0  0  0  0  0
   45.5333   33.2863   47.0724 H   0  0  0  0  0  0  0  0  0  0  0  0
   44.3007   34.9691   45.6122 H   0  0  0  0  0  0  0  0  0  0  0  0
   48.6791   32.0933   46.3349 H   0  0  0  0  0  0  0  0  0  0  0  0
   46.3427   30.0972   45.9320 H   0  0  0  0  0  0  0  0  0  0  0  0
   47.7072   30.3114   44.7863 H   0  0  0  0  0  0  0  0  0  0  0  0
   47.8786   28.4147   46.4520 H   0  0  0  0  0  0  0  0  0  0  0  0
   49.2718   29.6241   46.3510 H   0  0  0  0  0  0  0  0  0  0  0  0
   47.3063   29.1441   48.5284 H   0  0  0  0  0  0  0  0  0  0  0  0
   49.1391   29.2307   48.5235 H   0  0  0  0  0  0  0  0  0  0  0  0
   47.8821   31.0667   49.5996 H   0  0  0  0  0  0  0  0  0  0  0  0
   49.1592   31.4453   48.3447 H   0  0  0  0  0  0  0  0  0  0  0  0
   47.0901   32.9228   48.0998 H   0  0  0  0  0  0  0  0  0  0  0  0
   45.2952   31.2538   46.9703 H   0  0  0  0  0  0  0  0  0  0  0  0
   44.6606   28.7726   49.7237 H   0  0  0  0  0  0  0  0  0  0  0  0
   45.5895   28.7455   48.2009 H   0  0  0  0  0  0  0  0  0  0  0  0
   48.6961   35.5191   42.7529 H   0  0  0  0  0  0  0  0  0  0  0  0
   49.5507   36.0310   40.4799 H   0  0  0  0  0  0  0  0  0  0  0  0
   48.3957   34.8553   38.5685 H   0  0  0  0  0  0  0  0  0  0  0  0
   44.9637   32.0169   39.9399 H   0  0  0  0  0  0  0  0  0  0  0  0
   47.5231   34.0034   37.2113 H   0  0  0  0  0  0  0  0  0  0  0  0
   47.0508   33.3555   34.5573 H   0  0  0  0  0  0  0  0  0  0  0  0
   45.3759   31.7959   33.3363 H   0  0  0  0  0  0  0  0  0  0  0  0
   43.8221   30.6028   35.1707 H   0  0  0  0  0  0  0  0  0  0  0  0
   43.8413   30.8803   38.0818 H   0  0  0  0  0  0  0  0  0  0  0  0
  1  2  2  0
  1  7  1  0
  3  2  1  0
  4  3  2  0
  5  4  1  0
  5  6  2  0
  6  1  1  0
  7 12  1  0
  8  7  1  0
  8  9  1  0
  9 10  1  0
 10 11  1  0
 12 13  1  0
 12 11  1  0
 13 14  1  0
 14 16  1  0
 14 15  2  0
 17  5  1  0
 18 17  2  0
 19 18  1  0
 20 21  1  0
 20 19  2  0
 21 22  2  0
 22 17  1  0
 24 23  2  0
 24 21  1  0
 25 24  1  0
 26 30  1  0
 26 25  2  0
 27 26  1  0
 28 27  1  0
 28 29  2  0
 29 30  1  0
 30 31  2  0
 31 23  1  0
  2 32  1  0
  3 33  1  0
  7 34  1  1
  8 35  1  0
  8 36  1  0
  9 37  1  0
  9 38  1  0
 10 39  1  0
 10 40  1  0
 11 41  1  0
 11 42  1  0
 12 43  1  1
 13 44  1  0
 16 45  1  0
 16 46  1  0
 18 47  1  0
 19 48  1  0
 20 49  1  0
 23 50  1  0
 25 51  1  0
 27 52  1  0
 28 53  1  0
 29 54  1  0
 31 55  1  0
M  ISO  8  32  14  33  14  34  13  35  13  36  13  37  13  38  13  39  13
M  ISO  8  40  13  41  13  42  13  43  13  47  14  48  14  49  14  50  14
M  ISO  5  51  14  52   9  53  14  54  14  55  14
M  END
>  <minimizedAffinity>  (1) 
-7.15769958

>  <minimizedRMSD>  (1) 
0.268052578

$$$$
