
     RDKit          3D

 48 52  0  0  1  0  0  0  0  0999 V2000
   46.8740   33.0040   38.7610 N   0  0  0  0  0  0  0  0  0  0  0  0
   45.9350   33.3070   37.6740 C   0  0  0  0  0  0  0  0  0  0  0  0
   45.1750   32.0660   37.2460 C   0  0  0  0  0  0  0  0  0  0  0  0
   46.0600   31.0540   36.7040 N   0  0  0  0  0  0  0  0  0  0  0  0
   47.4120   31.3840   37.1060 C   0  0  0  0  0  0  0  0  0  0  0  0
   47.3980   31.6590   38.6270 C   0  0  1  0  0  0  0  0  0  0  0  0
   49.3230   30.9830   40.2210 C   0  0  0  0  0  0  0  0  0  0  0  0
   48.7930   31.4670   39.0550 C   0  0  0  0  0  0  0  0  0  0  0  0
   49.7740   31.8210   38.1210 C   0  0  0  0  0  0  0  0  0  0  0  0
   51.1330   31.7100   38.3140 C   0  0  0  0  0  0  0  0  0  0  0  0
   52.2070   31.9880   37.5630 N   0  0  0  0  0  0  0  0  0  0  0  0
   53.3100   31.6790   38.2580 C   0  0  0  0  0  0  0  0  0  0  0  0
   52.9700   31.1870   39.4930 C   0  0  0  0  0  0  0  0  0  0  0  0
   51.5930   31.2180   39.5010 C   0  0  0  0  0  0  0  0  0  0  0  0
   50.6730   30.8520   40.4600 C   0  0  0  0  0  0  0  0  0  0  0  0
   44.9910   32.8560   41.2720 Br  0  0  0  0  0  0  0  0  0  0  0  0
   46.5600   33.9340   41.0360 C   0  0  0  0  0  0  0  0  0  0  0  0
   46.9640   34.7600   42.0460 C   0  0  0  0  0  0  0  0  0  0  0  0
   48.0970   35.5670   41.8890 C   0  0  0  0  0  0  0  0  0  0  0  0
   48.7740   35.4960   40.6960 C   0  0  0  0  0  0  0  0  0  0  0  0
   48.3270   34.6480   39.7070 C   0  0  0  0  0  0  0  0  0  0  0  0
   47.2420   33.8650   39.8390 C   0  0  0  0  0  0  0  0  0  0  0  0
   45.7470   33.9270   45.3810 C   0  0  0  0  0  0  0  0  0  0  0  0
   44.7500   34.9130   45.6310 C   0  0  0  0  0  0  0  0  0  0  0  0
   44.5300   35.8420   44.6270 C   0  0  0  0  0  0  0  0  0  0  0  0
   45.2540   35.7680   43.4920 N   0  0  0  0  0  0  0  0  0  0  0  0
   46.2110   34.7990   43.2850 C   0  0  0  0  0  0  0  0  0  0  0  0
   46.4370   33.8930   44.2450 N   0  0  0  0  0  0  0  0  0  0  0  0
   45.2178   34.0658   38.0201 H   0  0  0  0  0  0  0  0  0  0  0  0
   46.5075   33.6802   36.8121 H   0  0  0  0  0  0  0  0  0  0  0  0
   44.6510   31.6503   38.1193 H   0  0  0  0  0  0  0  0  0  0  0  0
   44.4630   32.3551   36.4590 H   0  0  0  0  0  0  0  0  0  0  0  0
   45.9929   31.0444   35.6762 H   0  0  0  0  0  0  0  0  0  0  0  0
   48.0845   30.5423   36.8839 H   0  0  0  0  0  0  0  0  0  0  0  0
   47.7710   32.2680   36.5587 H   0  0  0  0  0  0  0  0  0  0  0  0
   46.7733   31.0091   39.2573 H   0  0  0  0  0  0  0  0  0  0  0  0
   48.6268   30.6797   41.0168 H   0  0  0  0  0  0  0  0  0  0  0  0
   49.4316   32.2201   37.1548 H   0  0  0  0  0  0  0  0  0  0  0  0
   52.1879   32.3754   36.6088 H   0  0  0  0  0  0  0  0  0  0  0  0
   54.3398   31.8020   37.8914 H   0  0  0  0  0  0  0  0  0  0  0  0
   53.6431   30.8459   40.2934 H   0  0  0  0  0  0  0  0  0  0  0  0
   51.0199   30.4520   41.4242 H   0  0  0  0  0  0  0  0  0  0  0  0
   48.4340   36.2360   42.6945 H   0  0  0  0  0  0  0  0  0  0  0  0
   49.6692   36.1136   40.5312 H   0  0  0  0  0  0  0  0  0  0  0  0
   48.8864   34.6094   38.7606 H   0  0  0  0  0  0  0  0  0  0  0  0
   45.9526   33.1698   46.1520 H   0  0  0  0  0  0  0  0  0  0  0  0
   44.1834   34.9357   46.5735 H   0  0  0  0  0  0  0  0  0  0  0  0
   43.7737   36.6305   44.7543 H   0  0  0  0  0  0  0  0  0  0  0  0
  1 22  1  0
  2  1  1  0
  3  2  1  0
  4  5  1  0
  4  3  1  0
  5  6  1  0
  6  1  1  0
  6  8  1  0
  7 15  2  0
  8  7  1  0
  9 10  1  0
  9  8  2  0
 10 14  2  0
 11 12  1  0
 11 10  1  0
 12 13  2  0
 13 14  1  0
 14 15  1  0
 17 16  1  0
 17 18  2  0
 18 27  1  0
 19 18  1  0
 20 19  2  0
 21 22  2  0
 21 20  1  0
 22 17  1  0
 23 24  2  0
 25 24  1  0
 26 25  2  0
 27 26  1  0
 27 28  2  0
 28 23  1  0
  2 29  1  0
  2 30  1  0
  3 31  1  0
  3 32  1  0
  4 33  1  0
  5 34  1  0
  5 35  1  0
  6 36  1  1
  7 37  1  0
  9 38  1  0
 11 39  1  0
 12 40  1  0
 13 41  1  0
 15 42  1  0
 19 43  1  0
 20 44  1  0
 21 45  1  0
 23 46  1  0
 24 47  1  0
 25 48  1  0
M  ISO  8  29  13  30  13  31  13  32  13  33   5  34  13  35  13  36  13
M  ISO  8  37  14  38  14  39   9  40  14  41  14  42  14  43  14  44  14
M  ISO  4  45  14  46  14  47  14  48  14
M  END
>  <minimizedAffinity>  (1) 
-6.71976185

>  <minimizedRMSD>  (1) 
0.412011176

$$$$
