
     RDKit          3D

 44 48  0  0  0  0  0  0  0  0999 V2000
   48.8230   33.2600   37.5850 Cl  0  0  0  0  0  0  0  0  0  0  0  0
   47.0810   33.0560   37.6290 C   0  0  0  0  0  0  0  0  0  0  0  0
   46.4070   33.3270   38.7720 C   0  0  0  0  0  0  0  0  0  0  0  0
   45.0610   33.0130   38.7350 C   0  0  0  0  0  0  0  0  0  0  0  0
   44.3960   32.4700   37.6570 C   0  0  0  0  0  0  0  0  0  0  0  0
   45.1240   32.2140   36.5060 C   0  0  0  0  0  0  0  0  0  0  0  0
   46.4800   32.5150   36.5050 C   0  0  0  0  0  0  0  0  0  0  0  0
   48.4260   32.8510   35.0490 C   0  0  0  0  0  0  0  0  0  0  0  0
   47.2150   32.2320   35.2770 C   0  0  0  0  0  0  0  0  0  0  0  0
   46.7070   31.3510   34.3430 C   0  0  0  0  0  0  0  0  0  0  0  0
   47.4660   31.1400   33.2090 C   0  0  0  0  0  0  0  0  0  0  0  0
   47.2420   30.3460   32.1250 N   0  0  0  0  0  0  0  0  0  0  0  0
   48.2540   30.4450   31.2410 C   0  0  0  0  0  0  0  0  0  0  0  0
   49.1880   31.3290   31.7410 C   0  0  0  0  0  0  0  0  0  0  0  0
   48.6810   31.7450   32.9550 C   0  0  0  0  0  0  0  0  0  0  0  0
   49.1730   32.6220   33.8980 C   0  0  0  0  0  0  0  0  0  0  0  0
   48.7910   35.2490   40.9090 C   0  0  0  0  0  0  0  0  0  0  0  0
   48.1570   34.7480   39.7620 C   0  0  0  0  0  0  0  0  0  0  0  0
   47.0590   33.9100   39.9120 C   0  0  0  0  0  0  0  0  0  0  0  0
   46.6590   33.6320   41.1750 N   0  0  0  0  0  0  0  0  0  0  0  0
   47.2660   34.1200   42.2700 C   0  0  0  0  0  0  0  0  0  0  0  0
   48.3360   34.9250   42.1410 N   0  0  0  0  0  0  0  0  0  0  0  0
   45.0490   35.9680   43.2780 Cl  0  0  0  0  0  0  0  0  0  0  0  0
   45.7440   34.6270   44.1600 C   0  0  0  0  0  0  0  0  0  0  0  0
   46.7540   33.8470   43.5980 C   0  0  0  0  0  0  0  0  0  0  0  0
   47.2110   32.8330   44.3690 C   0  0  0  0  0  0  0  0  0  0  0  0
   46.7380   32.5460   45.6430 C   0  0  0  0  0  0  0  0  0  0  0  0
   45.7450   33.3280   46.1700 C   0  0  0  0  0  0  0  0  0  0  0  0
   45.2330   32.8650   47.7810 Cl  0  0  0  0  0  0  0  0  0  0  0  0
   45.2490   34.3620   45.4380 C   0  0  0  0  0  0  0  0  0  0  0  0
   44.4716   33.2134   39.6419 H   0  0  0  0  0  0  0  0  0  0  0  0
   43.3202   32.2466   37.7086 H   0  0  0  0  0  0  0  0  0  0  0  0
   44.6407   31.7837   35.6165 H   0  0  0  0  0  0  0  0  0  0  0  0
   48.8150   33.5504   35.8037 H   0  0  0  0  0  0  0  0  0  0  0  0
   45.7439   30.8417   34.4950 H   0  0  0  0  0  0  0  0  0  0  0  0
   46.4113   29.7504   31.9983 H   0  0  0  0  0  0  0  0  0  0  0  0
   48.3239   29.9109   30.2819 H   0  0  0  0  0  0  0  0  0  0  0  0
   50.1344   31.6364   31.2721 H   0  0  0  0  0  0  0  0  0  0  0  0
   50.1363   33.1302   33.7435 H   0  0  0  0  0  0  0  0  0  0  0  0
   49.6642   35.9099   40.8057 H   0  0  0  0  0  0  0  0  0  0  0  0
   48.5235   35.0145   38.7597 H   0  0  0  0  0  0  0  0  0  0  0  0
   48.0085   32.1950   43.9604 H   0  0  0  0  0  0  0  0  0  0  0  0
   47.1536   31.7056   46.2183 H   0  0  0  0  0  0  0  0  0  0  0  0
   44.4518   34.9940   45.8564 H   0  0  0  0  0  0  0  0  0  0  0  0
  1  2  1  0
  2  3  2  0
  3 19  1  0
  4  3  1  0
  5  4  2  0
  6  5  1  0
  7  6  2  0
  7  2  1  0
  8  9  2  0
  9  7  1  0
 10  9  1  0
 11 10  2  0
 12 11  1  0
 13 14  2  0
 13 12  1  0
 14 15  1  0
 15 11  1  0
 15 16  2  0
 16  8  1  0
 17 22  2  0
 18 19  2  0
 18 17  1  0
 19 20  1  0
 20 21  2  0
 21 25  1  0
 22 21  1  0
 23 24  1  0
 24 30  2  0
 25 24  1  0
 25 26  2  0
 26 27  1  0
 27 28  2  0
 28 29  1  0
 30 28  1  0
  4 31  1  0
  5 32  1  0
  6 33  1  0
  8 34  1  0
 10 35  1  0
 12 36  1  0
 13 37  1  0
 14 38  1  0
 16 39  1  0
 17 40  1  0
 18 41  1  0
 26 42  1  0
 27 43  1  0
 30 44  1  0
M  END
>  <minimizedAffinity>  (1) 
-7.39575768

>  <minimizedRMSD>  (1) 
0.87320596

$$$$
