
     RDKit          3D

 35 37  0  0  0  0  0  0  0  0999 V2000
   42.2650   35.3520   40.7060 C   0  0  0  0  0  0  0  0  0  0  0  0
   40.9880   35.7970   40.7080 C   0  0  0  0  0  0  0  0  0  0  0  0
   39.9960   35.6660   39.6060 C   0  0  0  0  0  0  0  0  0  0  0  0
   39.6480   33.5660   38.2440 C   0  0  0  0  0  0  0  0  0  0  0  0
   39.5150   34.2880   39.4320 C   0  0  0  0  0  0  0  0  0  0  0  0
   38.8920   33.6640   40.5090 C   0  0  0  0  0  0  0  0  0  0  0  0
   38.4050   32.3760   40.4540 C   0  0  0  0  0  0  0  0  0  0  0  0
   37.7790   31.5440   41.3030 N   0  0  0  0  0  0  0  0  0  0  0  0
   37.5180   30.3650   40.7250 C   0  0  0  0  0  0  0  0  0  0  0  0
   37.9900   30.4150   39.4350 C   0  0  0  0  0  0  0  0  0  0  0  0
   38.5420   31.6760   39.2770 C   0  0  0  0  0  0  0  0  0  0  0  0
   39.1510   32.2850   38.2220 C   0  0  0  0  0  0  0  0  0  0  0  0
   43.0520   35.5620   41.8260 O   0  0  0  0  0  0  0  0  0  0  0  0
   44.3870   35.2970   42.0000 C   0  0  0  0  0  0  0  0  0  0  0  0
   44.4130   35.5720   44.3620 C   0  0  0  0  0  0  0  0  0  0  0  0
   44.7690   34.7450   43.2870 C   0  0  0  0  0  0  0  0  0  0  0  0
   45.4110   33.5810   43.6100 C   0  0  0  0  0  0  0  0  0  0  0  0
   45.6460   33.3210   44.9040 N   0  0  0  0  0  0  0  0  0  0  0  0
   45.3030   34.1130   45.9140 C   0  0  0  0  0  0  0  0  0  0  0  0
   44.6500   35.3120   45.6830 N   0  0  0  0  0  0  0  0  0  0  0  0
   42.6728   34.8307   39.8274 H   0  0  0  0  0  0  0  0  0  0  0  0
   40.6466   36.3095   41.6195 H   0  0  0  0  0  0  0  0  0  0  0  0
   39.1350   36.3130   39.8297 H   0  0  0  0  0  0  0  0  0  0  0  0
   40.4976   35.9615   38.6727 H   0  0  0  0  0  0  0  0  0  0  0  0
   40.1321   34.0059   37.3596 H   0  0  0  0  0  0  0  0  0  0  0  0
   38.7832   34.2256   41.4486 H   0  0  0  0  0  0  0  0  0  0  0  0
   37.5316   31.7826   42.2740 H   0  0  0  0  0  0  0  0  0  0  0  0
   37.0153   29.5086   41.1982 H   0  0  0  0  0  0  0  0  0  0  0  0
   37.9397   29.6158   38.6809 H   0  0  0  0  0  0  0  0  0  0  0  0
   39.2520   31.7123   37.2883 H   0  0  0  0  0  0  0  0  0  0  0  0
   44.6905   34.5792   41.2237 H   0  0  0  0  0  0  0  0  0  0  0  0
   44.8911   36.2727   41.9372 H   0  0  0  0  0  0  0  0  0  0  0  0
   43.8974   36.5133   44.1210 H   0  0  0  0  0  0  0  0  0  0  0  0
   45.7267   32.8756   42.8272 H   0  0  0  0  0  0  0  0  0  0  0  0
   45.5404   33.8129   46.9453 H   0  0  0  0  0  0  0  0  0  0  0  0
  1  2  2  0
  1 13  1  0
  3  2  1  0
  4  5  2  0
  5  3  1  0
  5  6  1  0
  7  6  2  0
  7  8  1  0
  9  8  1  0
 10  9  2  0
 11 10  1  0
 11  7  1  0
 12  4  1  0
 12 11  2  0
 13 14  1  0
 14 16  1  0
 15 20  2  0
 16 17  2  0
 16 15  1  0
 17 18  1  0
 18 19  2  0
 20 19  1  0
  1 21  1  0
  2 22  1  0
  3 23  1  0
  3 24  1  0
  4 25  1  0
  6 26  1  0
  8 27  1  0
  9 28  1  0
 10 29  1  0
 12 30  1  0
 14 31  1  0
 14 32  1  0
 15 33  1  0
 17 34  1  0
 19 35  1  0
M  ISO  8  23   8  24   8  25  14  26  14  27   9  28  14  29  14  30  14
M  ISO  5  31   8  32   8  33  14  34  14  35  14
M  END
>  <minimizedAffinity>  (1) 
-5.82671404

>  <minimizedRMSD>  (1) 
1.94534731

$$$$
