
     RDKit          3D

 52 57  0  0  0  0  0  0  0  0999 V2000
   49.8840   30.3620   49.6950 C   0  0  0  0  0  0  0  0  0  0  0  0
   50.0740   31.6310   50.1640 N   0  0  0  0  0  0  0  0  0  0  0  0
   50.7960   31.9240   51.2410 C   0  0  0  0  0  0  0  0  0  0  0  0
   51.3650   30.9060   51.8950 N   0  0  0  0  0  0  0  0  0  0  0  0
   51.2310   29.6360   51.5050 C   0  0  0  0  0  0  0  0  0  0  0  0
   51.8240   28.5720   52.1720 C   0  0  0  0  0  0  0  0  0  0  0  0
   51.6810   27.2930   51.7580 C   0  0  0  0  0  0  0  0  0  0  0  0
   50.9350   27.0160   50.6540 C   0  0  0  0  0  0  0  0  0  0  0  0
   50.3120   28.0460   49.9390 C   0  0  0  0  0  0  0  0  0  0  0  0
   50.4690   29.3290   50.3700 C   0  0  0  0  0  0  0  0  0  0  0  0
   49.5010   27.6250   48.7750 C   0  0  0  0  0  0  0  0  0  0  0  0
   50.4190   25.3540   48.0620 C   0  0  0  0  0  0  0  0  0  0  0  0
   49.4460   26.1060   48.7100 C   0  0  0  0  0  0  0  0  0  0  0  0
   48.4240   25.3410   49.2860 C   0  0  0  0  0  0  0  0  0  0  0  0
   48.3970   23.9670   49.2100 C   0  0  0  0  0  0  0  0  0  0  0  0
   47.4870   23.1050   49.7100 N   0  0  0  0  0  0  0  0  0  0  0  0
   47.9040   21.8650   49.3720 C   0  0  0  0  0  0  0  0  0  0  0  0
   49.0900   21.9690   48.6500 C   0  0  0  0  0  0  0  0  0  0  0  0
   49.4080   23.3050   48.5450 C   0  0  0  0  0  0  0  0  0  0  0  0
   50.4470   23.9820   47.9520 C   0  0  0  0  0  0  0  0  0  0  0  0
   48.9760   30.0540   48.2650 S   0  0  0  0  0  0  0  0  0  0  0  0
   46.1470   32.5870   47.0130 C   0  0  0  0  0  0  0  0  0  0  0  0
   47.2880   31.8180   47.1160 C   0  0  0  0  0  0  0  0  0  0  0  0
   47.4930   30.9840   48.1850 C   0  0  0  0  0  0  0  0  0  0  0  0
   46.5520   30.8950   49.1850 C   0  0  0  0  0  0  0  0  0  0  0  0
   45.4070   31.6330   49.1330 C   0  0  0  0  0  0  0  0  0  0  0  0
   45.2230   32.4630   48.0520 C   0  0  0  0  0  0  0  0  0  0  0  0
   44.7410   35.2760   44.9780 C   0  0  0  0  0  0  0  0  0  0  0  0
   45.4760   35.1900   43.7770 C   0  0  0  0  0  0  0  0  0  0  0  0
   46.4540   34.2080   43.6690 C   0  0  0  0  0  0  0  0  0  0  0  0
   46.6880   33.3490   44.7150 N   0  0  0  0  0  0  0  0  0  0  0  0
   45.9450   33.4720   45.8650 C   0  0  0  0  0  0  0  0  0  0  0  0
   44.9780   34.4260   46.0010 N   0  0  0  0  0  0  0  0  0  0  0  0
   50.9204   32.9628   51.5807 H   0  0  0  0  0  0  0  0  0  0  0  0
   52.4301   28.7767   53.0668 H   0  0  0  0  0  0  0  0  0  0  0  0
   52.1671   26.4771   52.3129 H   0  0  0  0  0  0  0  0  0  0  0  0
   50.8205   25.9740   50.3206 H   0  0  0  0  0  0  0  0  0  0  0  0
   48.4809   28.0237   48.8769 H   0  0  0  0  0  0  0  0  0  0  0  0
   49.9590   28.0125   47.8530 H   0  0  0  0  0  0  0  0  0  0  0  0
   51.2453   25.9079   47.5924 H   0  0  0  0  0  0  0  0  0  0  0  0
   47.6124   25.8577   49.8192 H   0  0  0  0  0  0  0  0  0  0  0  0
   46.6401   23.3453   50.2447 H   0  0  0  0  0  0  0  0  0  0  0  0
   47.3901   20.9261   49.6259 H   0  0  0  0  0  0  0  0  0  0  0  0
   49.6708   21.1315   48.2362 H   0  0  0  0  0  0  0  0  0  0  0  0
   51.2545   23.4576   47.4201 H   0  0  0  0  0  0  0  0  0  0  0  0
   48.0492   31.8752   46.3239 H   0  0  0  0  0  0  0  0  0  0  0  0
   46.7257   30.2204   50.0364 H   0  0  0  0  0  0  0  0  0  0  0  0
   44.6532   31.5666   49.9314 H   0  0  0  0  0  0  0  0  0  0  0  0
   44.3003   33.0599   48.0036 H   0  0  0  0  0  0  0  0  0  0  0  0
   43.9632   36.0467   45.0831 H   0  0  0  0  0  0  0  0  0  0  0  0
   45.2799   35.8834   42.9459 H   0  0  0  0  0  0  0  0  0  0  0  0
   47.0419   34.1186   42.7436 H   0  0  0  0  0  0  0  0  0  0  0  0
  1  2  2  0
  1 10  1  0
  2  3  1  0
  3  4  2  0
  5  4  1  0
  5  6  2  0
  7  6  1  0
  8  7  2  0
  9 10  2  0
  9  8  1  0
 10  5  1  0
 11  9  1  0
 12 13  2  0
 13 11  1  0
 13 14  1  0
 15 14  2  0
 15 16  1  0
 17 16  1  0
 18 17  2  0
 19 18  1  0
 19 15  1  0
 20 12  1  0
 20 19  2  0
 21  1  1  0
 22 23  2  0
 22 27  1  0
 23 24  1  0
 24 21  1  0
 24 25  2  0
 26 25  1  0
 27 26  2  0
 28 33  2  0
 29 28  1  0
 30 29  2  0
 30 31  1  0
 31 32  2  0
 32 33  1  0
 32 22  1  0
  3 34  1  0
  6 35  1  0
  7 36  1  0
  8 37  1  0
 11 38  1  0
 11 39  1  0
 12 40  1  0
 14 41  1  0
 16 42  1  0
 17 43  1  0
 18 44  1  0
 20 45  1  0
 23 46  1  0
 25 47  1  0
 26 48  1  0
 27 49  1  0
 28 50  1  0
 29 51  1  0
 30 52  1  0
M  ISO  8  34  14  35  14  36  14  37  14  38   8  39   8  40  14  41  14
M  ISO  8  42   9  43  14  44  14  45  14  46  14  47  14  48  14  49  14
M  ISO  3  50  14  51  14  52  14
M  END
>  <minimizedAffinity>  (1) 
-6.95576334

>  <minimizedRMSD>  (1) 
0.469677776

$$$$
