
     RDKit          3D

 40 44  0  0  0  0  0  0  0  0999 V2000
   46.1980   32.6850   47.0240 C   0  0  0  0  0  0  0  0  0  0  0  0
   45.0740   32.4780   47.8140 C   0  0  0  0  0  0  0  0  0  0  0  0
   45.1870   31.6780   48.9500 C   0  0  0  0  0  0  0  0  0  0  0  0
   46.4180   31.1280   49.2370 C   0  0  0  0  0  0  0  0  0  0  0  0
   47.5000   31.3740   48.4090 C   0  0  0  0  0  0  0  0  0  0  0  0
   47.3860   32.1520   47.3040 N   0  0  0  0  0  0  0  0  0  0  0  0
   49.4490   29.8560   47.9270 C   0  0  0  0  0  0  0  0  0  0  0  0
   48.8060   30.7970   48.7020 C   0  0  0  0  0  0  0  0  0  0  0  0
   49.5200   31.1690   49.8230 C   0  0  0  0  0  0  0  0  0  0  0  0
   50.7580   30.6890   50.1940 C   0  0  0  0  0  0  0  0  0  0  0  0
   51.5610   30.9460   51.2290 N   0  0  0  0  0  0  0  0  0  0  0  0
   52.6570   30.1810   51.0820 C   0  0  0  0  0  0  0  0  0  0  0  0
   52.5670   29.4130   49.9320 C   0  0  0  0  0  0  0  0  0  0  0  0
   51.3480   29.7500   49.3780 C   0  0  0  0  0  0  0  0  0  0  0  0
   50.6860   29.3380   48.2440 C   0  0  0  0  0  0  0  0  0  0  0  0
   44.9220   35.1290   44.5770 C   0  0  0  0  0  0  0  0  0  0  0  0
   45.8190   35.0230   43.5140 C   0  0  0  0  0  0  0  0  0  0  0  0
   46.8490   34.1160   43.6680 C   0  0  0  0  0  0  0  0  0  0  0  0
   46.9570   33.3700   44.8240 N   0  0  0  0  0  0  0  0  0  0  0  0
   46.0500   33.5090   45.8390 C   0  0  0  0  0  0  0  0  0  0  0  0
   45.0500   34.3870   45.6960 N   0  0  0  0  0  0  0  0  0  0  0  0
   47.8550   33.8970   42.5800 C   0  0  0  0  0  0  0  0  0  0  0  0
   48.0760   35.1370   41.7140 C   0  0  0  0  0  0  0  0  0  0  0  0
   49.1470   34.5240   42.6760 C   0  0  0  0  0  0  0  0  0  0  0  0
   44.1109   32.9378   47.5475 H   0  0  0  0  0  0  0  0  0  0  0  0
   44.3187   31.4910   49.5989 H   0  0  0  0  0  0  0  0  0  0  0  0
   46.5410   30.4921   50.1261 H   0  0  0  0  0  0  0  0  0  0  0  0
   48.9513   29.5017   47.0122 H   0  0  0  0  0  0  0  0  0  0  0  0
   49.0580   31.9187   50.4822 H   0  0  0  0  0  0  0  0  0  0  0  0
   51.3756   31.6070   51.9969 H   0  0  0  0  0  0  0  0  0  0  0  0
   53.5080   30.1668   51.7788 H   0  0  0  0  0  0  0  0  0  0  0  0
   53.3041   28.6936   49.5457 H   0  0  0  0  0  0  0  0  0  0  0  0
   51.1484   28.5886   47.5848 H   0  0  0  0  0  0  0  0  0  0  0  0
   44.0853   35.8389   44.5003 H   0  0  0  0  0  0  0  0  0  0  0  0
   45.7117   35.6291   42.6023 H   0  0  0  0  0  0  0  0  0  0  0  0
   47.5756   32.8469   42.4093 H   0  0  0  0  0  0  0  0  0  0  0  0
   48.1842   35.0487   40.6229 H   0  0  0  0  0  0  0  0  0  0  0  0
   47.5904   36.1134   41.5698 H   0  0  0  0  0  0  0  0  0  0  0  0
   49.4282   35.0600   43.5945 H   0  0  0  0  0  0  0  0  0  0  0  0
   50.1840   34.1773   42.5560 H   0  0  0  0  0  0  0  0  0  0  0  0
  1  6  1  0
  1  2  2  0
  2  3  1  0
  3  4  2  0
  5  8  1  0
  5  4  1  0
  6  5  2  0
  7 15  2  0
  7  8  1  0
  8  9  2  0
  9 10  1  0
 10 11  1  0
 12 11  1  0
 13 12  2  0
 14 13  1  0
 14 10  2  0
 15 14  1  0
 16 21  2  0
 17 18  2  0
 17 16  1  0
 18 19  1  0
 19 20  2  0
 20  1  1  0
 21 20  1  0
 22 24  1  0
 22 18  1  0
 23 22  1  0
 23 24  1  0
  2 25  1  0
  3 26  1  0
  4 27  1  0
  7 28  1  0
  9 29  1  0
 11 30  1  0
 12 31  1  0
 13 32  1  0
 15 33  1  0
 16 34  1  0
 17 35  1  0
 22 36  1  0
 23 37  1  0
 23 38  1  0
 24 39  1  0
 24 40  1  0
M  ISO  8  25  14  26  14  27  14  28  14  29  14  30   9  31  14  32  14
M  ISO  8  33  14  34  14  35  14  36  13  37  13  38  13  39  13  40  13
M  END
>  <minimizedAffinity>  (1) 
-6.6743722

>  <minimizedRMSD>  (1) 
1.79773247

$$$$
