
     RDKit          3D

 46 49  0  0  1  0  0  0  0  0999 V2000
   48.2700   31.2710   48.4430 C   0  0  0  0  0  0  0  0  0  0  0  0
   48.8890   32.0750   49.2120 O   0  0  0  0  0  0  0  0  0  0  0  0
   49.1660   30.2340   48.8180 N   0  0  0  0  0  0  0  0  0  0  0  0
   49.3080   29.3110   47.7090 C   0  0  0  0  0  0  0  0  0  0  0  0
   50.1870   28.1810   48.2140 C   0  0  0  0  0  0  0  0  0  0  0  0
   49.7730   27.7950   49.5690 N   0  0  0  0  0  0  0  0  0  0  0  0
   50.3560   28.7840   50.4320 C   0  0  0  0  0  0  0  0  0  0  0  0
   49.8300   30.1200   50.1090 C   0  0  1  0  0  0  0  0  0  0  0  0
   51.9280   31.2350   49.2510 C   0  0  0  0  0  0  0  0  0  0  0  0
   50.9330   31.1110   50.2260 C   0  0  0  0  0  0  0  0  0  0  0  0
   51.0190   31.9700   51.3280 C   0  0  0  0  0  0  0  0  0  0  0  0
   52.0300   32.8970   51.4620 C   0  0  0  0  0  0  0  0  0  0  0  0
   52.2240   33.7800   52.4760 N   0  0  0  0  0  0  0  0  0  0  0  0
   53.3470   34.4680   52.1450 C   0  0  0  0  0  0  0  0  0  0  0  0
   53.8520   34.0120   50.9250 C   0  0  0  0  0  0  0  0  0  0  0  0
   53.0080   33.0140   50.4980 C   0  0  0  0  0  0  0  0  0  0  0  0
   52.9300   32.1720   49.4080 C   0  0  0  0  0  0  0  0  0  0  0  0
   47.2200   31.8420   47.7860 O   0  0  0  0  0  0  0  0  0  0  0  0
   44.7880   30.8260   47.6690 O   0  0  0  0  0  0  0  0  0  0  0  0
   45.6350   32.0010   48.2170 P   0  0  1  0  0  0  0  0  0  0  0  0
   45.4280   31.9480   49.8880 O   0  0  0  0  0  0  0  0  0  0  0  0
   44.9890   33.4260   47.5830 O   0  0  0  0  0  0  0  0  0  0  0  0
   46.6380   33.5510   44.3550 C   0  0  0  0  0  0  0  0  0  0  0  0
   46.2620   33.1630   45.6680 C   0  0  0  0  0  0  0  0  0  0  0  0
   45.2910   33.8660   46.3220 C   0  0  0  0  0  0  0  0  0  0  0  0
   44.7020   34.9250   45.6960 N   0  0  0  0  0  0  0  0  0  0  0  0
   45.0690   35.2790   44.4520 C   0  0  0  0  0  0  0  0  0  0  0  0
   46.0240   34.6100   43.7770 N   0  0  0  0  0  0  0  0  0  0  0  0
   49.7841   29.8122   46.8533 H   0  0  0  0  0  0  0  0  0  0  0  0
   48.3309   28.9390   47.3672 H   0  0  0  0  0  0  0  0  0  0  0  0
   50.0904   27.3153   47.5423 H   0  0  0  0  0  0  0  0  0  0  0  0
   51.2338   28.5181   48.2367 H   0  0  0  0  0  0  0  0  0  0  0  0
   48.7462   27.8038   49.6501 H   0  0  0  0  0  0  0  0  0  0  0  0
   50.1132   28.5417   51.4771 H   0  0  0  0  0  0  0  0  0  0  0  0
   51.4466   28.7852   50.2882 H   0  0  0  0  0  0  0  0  0  0  0  0
   49.0324   30.3225   50.8389 H   0  0  0  0  0  0  0  0  0  0  0  0
   51.9124   30.5879   48.3616 H   0  0  0  0  0  0  0  0  0  0  0  0
   50.2529   31.9027   52.1145 H   0  0  0  0  0  0  0  0  0  0  0  0
   51.6426   33.9018   53.3174 H   0  0  0  0  0  0  0  0  0  0  0  0
   53.7948   35.2695   52.7508 H   0  0  0  0  0  0  0  0  0  0  0  0
   54.7499   34.3797   50.4068 H   0  0  0  0  0  0  0  0  0  0  0  0
   53.7016   32.2507   48.6280 H   0  0  0  0  0  0  0  0  0  0  0  0
   46.2844   32.1673   50.3337 H   0  0  0  0  0  0  0  0  0  0  0  0
   47.4193   32.9974   43.8136 H   0  0  0  0  0  0  0  0  0  0  0  0
   46.7483   32.3042   46.1538 H   0  0  0  0  0  0  0  0  0  0  0  0
   44.5764   36.1377   43.9725 H   0  0  0  0  0  0  0  0  0  0  0  0
  1  3  1  0
  1  2  2  0
  3  8  1  0
  4  5  1  0
  4  3  1  0
  5  6  1  0
  6  7  1  0
  8 10  1  0
  8  7  1  0
  9 17  2  0
  9 10  1  0
 10 11  2  0
 11 12  1  0
 12 13  1  0
 14 13  1  0
 15 14  2  0
 16 15  1  0
 16 12  2  0
 17 16  1  0
 18 20  1  0
 18  1  1  0
 20 19  2  0
 20 21  1  0
 22 20  1  0
 23 24  2  0
 24 25  1  0
 25 22  1  0
 26 25  2  0
 27 26  1  0
 28 23  1  0
 28 27  2  0
  4 29  1  0
  4 30  1  0
  5 31  1  0
  5 32  1  0
  6 33  1  0
  7 34  1  0
  7 35  1  0
  8 36  1  1
  9 37  1  0
 11 38  1  0
 13 39  1  0
 14 40  1  0
 15 41  1  0
 17 42  1  0
 21 43  1  0
 23 44  1  0
 24 45  1  0
 27 46  1  0
M  ISO  8  29  13  30  13  31  13  32  13  33   5  34  13  35  13  36  13
M  ISO  8  37  14  38  14  39   9  40  14  41  14  42  14  43   3  44  14
M  ISO  2  45  14  46  14
M  END
>  <minimizedAffinity>  (1) 
-6.50073195

>  <minimizedRMSD>  (1) 
1.65484297

$$$$
