
     RDKit          3D

 51 54  0  0  1  0  0  0  0  0999 V2000
   46.5890   34.6010   43.5800 N   0  0  0  0  0  0  0  0  0  0  0  0
   46.0890   35.5910   42.6940 C   0  0  0  0  0  0  0  0  0  0  0  0
   44.5890   35.7510   42.6870 C   0  0  0  0  0  0  0  0  0  0  0  0
   43.9240   35.4790   44.0110 C   0  0  0  0  0  0  0  0  0  0  0  0
   44.9420   35.2250   45.0980 C   0  0  0  0  0  0  0  0  0  0  0  0
   45.7730   34.0160   44.5340 C   0  0  2  0  0  0  0  0  0  0  0  0
   47.6940   33.8500   43.0600 C   0  0  0  0  0  0  0  0  0  0  0  0
   47.1680   32.7550   42.1890 C   0  0  0  0  0  0  0  0  0  0  0  0
   49.1790   32.0390   39.0930 C   0  0  0  0  0  0  0  0  0  0  0  0
   48.6160   31.9250   40.3790 C   0  0  0  0  0  0  0  0  0  0  0  0
   47.7530   32.8930   40.8290 C   0  0  0  0  0  0  0  0  0  0  0  0
   47.4830   33.9180   40.0080 N   0  0  0  0  0  0  0  0  0  0  0  0
   48.0230   34.0250   38.7770 C   0  0  0  0  0  0  0  0  0  0  0  0
   48.8680   33.0970   38.3110 N   0  0  0  0  0  0  0  0  0  0  0  0
   46.4890   33.6200   45.6540 O   0  0  0  0  0  0  0  0  0  0  0  0
   45.5680   31.2260   44.9490 O   0  0  0  0  0  0  0  0  0  0  0  0
   46.1640   32.0360   46.1100 P   0  0  2  0  0  0  0  0  0  0  0  0
   44.9040   32.1230   47.2650 O   0  0  0  0  0  0  0  0  0  0  0  0
   47.4670   31.2870   46.8160 O   0  0  0  0  0  0  0  0  0  0  0  0
   48.8990   29.4320   47.0470 C   0  0  0  0  0  0  0  0  0  0  0  0
   47.6090   29.9580   47.1020 C   0  0  0  0  0  0  0  0  0  0  0  0
   46.6010   29.0700   47.4460 C   0  0  0  0  0  0  0  0  0  0  0  0
   46.8200   27.7500   47.7190 C   0  0  0  0  0  0  0  0  0  0  0  0
   46.0140   26.7420   48.0630 N   0  0  0  0  0  0  0  0  0  0  0  0
   46.7570   25.6370   48.2150 C   0  0  0  0  0  0  0  0  0  0  0  0
   48.0930   25.8950   47.9720 C   0  0  0  0  0  0  0  0  0  0  0  0
   48.1060   27.2440   47.6600 C   0  0  0  0  0  0  0  0  0  0  0  0
   49.1340   28.1110   47.3190 C   0  0  0  0  0  0  0  0  0  0  0  0
   46.5325   36.5567   42.9782 H   0  0  0  0  0  0  0  0  0  0  0  0
   46.3645   35.2605   41.6816 H   0  0  0  0  0  0  0  0  0  0  0  0
   44.3554   36.7845   42.3914 H   0  0  0  0  0  0  0  0  0  0  0  0
   44.1985   35.0024   41.9820 H   0  0  0  0  0  0  0  0  0  0  0  0
   43.3126   36.3499   44.2899 H   0  0  0  0  0  0  0  0  0  0  0  0
   43.2987   34.5802   43.9058 H   0  0  0  0  0  0  0  0  0  0  0  0
   45.5822   36.1060   45.2529 H   0  0  0  0  0  0  0  0  0  0  0  0
   44.4858   35.0164   46.0770 H   0  0  0  0  0  0  0  0  0  0  0  0
   45.2333   33.1680   44.0871 H   0  0  0  0  0  0  0  0  0  0  0  0
   48.3446   34.5115   42.4692 H   0  0  0  0  0  0  0  0  0  0  0  0
   48.2755   33.4201   43.8889 H   0  0  0  0  0  0  0  0  0  0  0  0
   47.4482   31.7797   42.6135 H   0  0  0  0  0  0  0  0  0  0  0  0
   46.0716   32.8222   42.1299 H   0  0  0  0  0  0  0  0  0  0  0  0
   49.8714   31.2675   38.7251 H   0  0  0  0  0  0  0  0  0  0  0  0
   48.8662   31.0658   41.0186 H   0  0  0  0  0  0  0  0  0  0  0  0
   47.7652   34.8882   38.1459 H   0  0  0  0  0  0  0  0  0  0  0  0
   45.2895   32.0964   48.1765 H   0  0  0  0  0  0  0  0  0  0  0  0
   49.7407   30.0883   46.7810 H   0  0  0  0  0  0  0  0  0  0  0  0
   45.5699   29.4491   47.5020 H   0  0  0  0  0  0  0  0  0  0  0  0
   44.9937   26.8035   48.1900 H   0  0  0  0  0  0  0  0  0  0  0  0
   46.3556   24.6523   48.4966 H   0  0  0  0  0  0  0  0  0  0  0  0
   48.9417   25.1966   48.0159 H   0  0  0  0  0  0  0  0  0  0  0  0
   50.1636   27.7274   47.2659 H   0  0  0  0  0  0  0  0  0  0  0  0
  1  6  1  0
  2  1  1  0
  3  2  1  0
  3  4  1  0
  4  5  1  0
  6  5  1  0
  6 15  1  0
  7  1  1  0
  8  7  1  0
  9 10  2  0
 10 11  1  0
 11  8  1  0
 12 11  2  0
 13 12  1  0
 14 13  2  0
 14  9  1  0
 15 17  1  0
 17 16  2  0
 17 19  1  0
 17 18  1  0
 19 21  1  0
 20 21  2  0
 20 28  1  0
 21 22  1  0
 22 23  2  0
 23 24  1  0
 24 25  1  0
 26 25  2  0
 27 23  1  0
 27 26  1  0
 28 27  2  0
  2 29  1  0
  2 30  1  0
  3 31  1  0
  3 32  1  0
  4 33  1  0
  4 34  1  0
  5 35  1  0
  5 36  1  0
  6 37  1  6
  7 38  1  0
  7 39  1  0
  8 40  1  0
  8 41  1  0
  9 42  1  0
 10 43  1  0
 13 44  1  0
 18 45  1  0
 20 46  1  0
 22 47  1  0
 24 48  1  0
 25 49  1  0
 26 50  1  0
 28 51  1  0
M  ISO  8  29  13  30  13  31  13  32  13  33  13  34  13  35  13  36  13
M  ISO  8  37  13  38   8  39   8  40   8  41   8  42  14  43  14  44  14
M  ISO  7  45   3  46  14  47  14  48   9  49  14  50  14  51  14
M  END
>  <minimizedAffinity>  (1) 
-4.74140787

>  <minimizedRMSD>  (1) 
1.58364499

$$$$
