
     RDKit          3D

 24 26  0  0  0  0  0  0  0  0999 V2000
   46.9070   33.8230   43.2810 C   0  0  0  0  0  0  0  0  0  0  0  0
   45.8680   34.5210   43.9450 C   0  0  0  0  0  0  0  0  0  0  0  0
   45.4990   34.1320   45.1830 C   0  0  0  0  0  0  0  0  0  0  0  0
   46.1640   33.0360   45.7800 C   0  0  0  0  0  0  0  0  0  0  0  0
   47.3650   32.5590   44.4950 S   0  0  0  0  0  0  0  0  0  0  0  0
   48.6160   35.2750   40.3250 C   0  0  0  0  0  0  0  0  0  0  0  0
   48.0620   34.4600   39.3030 C   0  0  0  0  0  0  0  0  0  0  0  0
   47.1400   33.4630   39.6790 C   0  0  0  0  0  0  0  0  0  0  0  0
   46.8330   33.3410   41.0090 N   0  0  0  0  0  0  0  0  0  0  0  0
   47.3940   34.1480   41.9410 C   0  0  0  0  0  0  0  0  0  0  0  0
   48.2850   35.1150   41.6010 N   0  0  0  0  0  0  0  0  0  0  0  0
   46.0380   32.4080   46.9780 C   0  0  0  0  0  0  0  0  0  0  0  0
   45.1340   32.4980   47.9720 C   0  0  0  0  0  0  0  0  0  0  0  0
   45.2090   31.7510   49.1100 C   0  0  0  0  0  0  0  0  0  0  0  0
   46.3720   30.8090   49.1910 C   0  0  0  0  0  0  0  0  0  0  0  0
   47.2480   31.1210   47.5650 S   0  0  0  0  0  0  0  0  0  0  0  0
   45.3679   35.3704   43.4567 H   0  0  0  0  0  0  0  0  0  0  0  0
   44.6950   34.6581   45.7186 H   0  0  0  0  0  0  0  0  0  0  0  0
   49.3379   36.0591   40.0529 H   0  0  0  0  0  0  0  0  0  0  0  0
   48.3440   34.6026   38.2494 H   0  0  0  0  0  0  0  0  0  0  0  0
   46.6809   32.8031   38.9282 H   0  0  0  0  0  0  0  0  0  0  0  0
   44.2987   33.2050   47.8609 H   0  0  0  0  0  0  0  0  0  0  0  0
   44.4649   31.8342   49.9158 H   0  0  0  0  0  0  0  0  0  0  0  0
   46.6420   30.1127   49.9986 H   0  0  0  0  0  0  0  0  0  0  0  0
  1  2  2  0
  1  5  1  0
  2  3  1  0
  3  4  2  0
  4 12  1  0
  5  4  1  0
  6 11  2  0
  7  8  2  0
  7  6  1  0
  8  9  1  0
  9 10  2  0
 10  1  1  0
 11 10  1  0
 12 16  1  0
 12 13  2  0
 13 14  1  0
 14 15  2  0
 16 15  1  0
  2 17  1  0
  3 18  1  0
  6 19  1  0
  7 20  1  0
  8 21  1  0
 13 22  1  0
 14 23  1  0
 15 24  1  0
M  ISO  8  17  14  18  14  19  14  20  14  21  14  22  14  23  14  24  14
M  END
>  <minimizedAffinity>  (1) 
-4.54852581

>  <minimizedRMSD>  (1) 
4.24686766

$$$$
