
     RDKit          3D

 20 21  0  0  0  0  0  0  0  0999 V2000
   46.4550   32.9850   45.4780 C   0  0  0  0  0  0  0  0  0  0  0  0
   47.0150   31.7280   45.7520 C   0  0  0  0  0  0  0  0  0  0  0  0
   46.6460   31.0780   46.9400 C   0  0  0  0  0  0  0  0  0  0  0  0
   45.7600   31.7120   47.7560 N   0  0  0  0  0  0  0  0  0  0  0  0
   45.2350   32.9290   47.4640 C   0  0  0  0  0  0  0  0  0  0  0  0
   45.5900   33.5630   46.3130 N   0  0  0  0  0  0  0  0  0  0  0  0
   46.8680   33.6460   44.2110 C   0  0  0  0  0  0  0  0  0  0  0  0
   45.7970   34.1420   43.4180 C   0  0  0  0  0  0  0  0  0  0  0  0
   45.4300   35.4990   43.1300 C   0  0  0  0  0  0  0  0  0  0  0  0
   44.3460   35.7310   42.3330 C   0  0  0  0  0  0  0  0  0  0  0  0
   43.6410   34.5260   41.8330 C   0  0  0  0  0  0  0  0  0  0  0  0
   44.6500   33.1190   42.5920 S   0  0  0  0  0  0  0  0  0  0  0  0
   47.7258   31.2633   45.0529 H   0  0  0  0  0  0  0  0  0  0  0  0
   47.0578   30.0922   47.2021 H   0  0  0  0  0  0  0  0  0  0  0  0
   44.5235   33.4024   48.1566 H   0  0  0  0  0  0  0  0  0  0  0  0
   47.5251   34.4909   44.4647 H   0  0  0  0  0  0  0  0  0  0  0  0
   47.3663   32.8728   43.6078 H   0  0  0  0  0  0  0  0  0  0  0  0
   46.0110   36.3365   43.5435 H   0  0  0  0  0  0  0  0  0  0  0  0
   44.0160   36.7488   42.0776 H   0  0  0  0  0  0  0  0  0  0  0  0
   42.7547   34.4660   41.1843 H   0  0  0  0  0  0  0  0  0  0  0  0
  1  2  2  0
  1  6  1  0
  2  3  1  0
  3  4  2  0
  5  4  1  0
  6  5  2  0
  7  1  1  0
  8  7  1  0
  9  8  2  0
 10  9  1  0
 11 10  2  0
 11 12  1  0
 12  8  1  0
  2 13  1  0
  3 14  1  0
  5 15  1  0
  7 16  1  0
  7 17  1  0
  9 18  1  0
 10 19  1  0
 11 20  1  0
M  ISO  8  13  14  14  14  15  14  16   8  17   8  18  14  19  14  20  14
M  END
>  <minimizedAffinity>  (1) 
-3.40485358

>  <minimizedRMSD>  (1) 
3.74688745

$$$$
