
     RDKit          3D

 34 36  0  0  0  0  0  0  0  0999 V2000
   43.7770   35.2950   40.7960 O   0  0  0  0  0  0  0  0  0  0  0  0
   43.4460   32.9910   39.0010 Cl  0  0  0  0  0  0  0  0  0  0  0  0
   42.1670   33.9500   39.7150 C   0  0  0  0  0  0  0  0  0  0  0  0
   42.4400   35.0200   40.5430 C   0  0  0  0  0  0  0  0  0  0  0  0
   41.4200   35.7550   41.0770 C   0  0  0  0  0  0  0  0  0  0  0  0
   40.0810   35.4800   40.8250 C   0  0  0  0  0  0  0  0  0  0  0  0
   39.7920   34.3940   39.9830 C   0  0  0  0  0  0  0  0  0  0  0  0
   38.1200   34.0330   39.6280 Cl  0  0  0  0  0  0  0  0  0  0  0  0
   40.8370   33.6800   39.4680 C   0  0  0  0  0  0  0  0  0  0  0  0
   40.6270   32.5130   38.5680 C   0  0  0  0  0  0  0  0  0  0  0  0
   41.4780   31.6250   38.1930 C   0  0  0  0  0  0  0  0  0  0  0  0
   41.2360   30.5860   37.3660 C   0  0  0  0  0  0  0  0  0  0  0  0
   39.8400   30.5690   36.9150 C   0  0  0  0  0  0  0  0  0  0  0  0
   39.1410   32.0840   37.7890 S   0  0  0  0  0  0  0  0  0  0  0  0
   44.3990   34.7030   41.9120 C   0  0  0  0  0  0  0  0  0  0  0  0
   44.2170   33.4980   42.3100 O   0  0  0  0  0  0  0  0  0  0  0  0
   45.3220   35.4300   42.7230 N   0  0  0  0  0  0  0  0  0  0  0  0
   45.7630   34.5650   43.8090 C   0  0  0  0  0  0  0  0  0  0  0  0
   45.2270   34.5660   45.0670 C   0  0  0  0  0  0  0  0  0  0  0  0
   45.7760   33.6710   45.9600 C   0  0  0  0  0  0  0  0  0  0  0  0
   46.7790   32.8770   45.5430 N   0  0  0  0  0  0  0  0  0  0  0  0
   47.2750   32.9090   44.2970 C   0  0  0  0  0  0  0  0  0  0  0  0
   46.7590   33.7770   43.3910 N   0  0  0  0  0  0  0  0  0  0  0  0
   44.1750   35.4690   45.3280 N   0  0  0  0  0  0  0  0  0  0  0  0
   41.6689   36.6009   41.7347 H   0  0  0  0  0  0  0  0  0  0  0  0
   39.2792   36.0892   41.2678 H   0  0  0  0  0  0  0  0  0  0  0  0
   42.5017   31.7213   38.5837 H   0  0  0  0  0  0  0  0  0  0  0  0
   41.9915   29.8443   37.0674 H   0  0  0  0  0  0  0  0  0  0  0  0
   39.3349   29.8589   36.2437 H   0  0  0  0  0  0  0  0  0  0  0  0
   45.6249   36.4019   42.5667 H   0  0  0  0  0  0  0  0  0  0  0  0
   45.4018   33.6072   46.9924 H   0  0  0  0  0  0  0  0  0  0  0  0
   48.0959   32.2349   44.0113 H   0  0  0  0  0  0  0  0  0  0  0  0
   43.7439   35.5012   46.2629 H   0  0  0  0  0  0  0  0  0  0  0  0
   43.8380   36.0961   44.5837 H   0  0  0  0  0  0  0  0  0  0  0  0
  1 15  1  0
  2  3  1  0
  3  4  2  0
  4  1  1  0
  4  5  1  0
  6  5  2  0
  7  6  1  0
  8  7  1  0
  9  3  1  0
  9  7  2  0
 10  9  1  0
 11 10  2  0
 12 11  1  0
 13 12  2  0
 13 14  1  0
 14 10  1  0
 15 16  2  0
 15 17  1  0
 17 18  1  0
 18 19  2  0
 19 24  1  0
 19 20  1  0
 21 20  2  0
 22 21  1  0
 23 18  1  0
 23 22  2  0
  5 25  1  0
  6 26  1  0
 11 27  1  0
 12 28  1  0
 13 29  1  0
 17 30  1  0
 20 31  1  0
 22 32  1  0
 24 33  1  0
 24 34  1  0
M  ISO  7  25  14  26  14  27  14  28  14  29  14  31  14  32  14
M  END
>  <minimizedAffinity>  (1) 
-6.07796049

>  <minimizedRMSD>  (1) 
0.610396802

$$$$
