
     RDKit          3D

 39 42  0  0  0  0  0  0  0  0999 V2000
   44.2020   34.7710   42.7020 C   0  0  0  0  0  0  0  0  0  0  0  0
   44.7220   33.4900   42.8830 C   0  0  0  0  0  0  0  0  0  0  0  0
   45.3450   33.1750   44.0760 C   0  0  0  0  0  0  0  0  0  0  0  0
   45.4150   34.1490   45.0430 N   0  0  0  0  0  0  0  0  0  0  0  0
   44.9060   35.3730   44.8460 C   0  0  0  0  0  0  0  0  0  0  0  0
   44.3080   35.6700   43.6790 N   0  0  0  0  0  0  0  0  0  0  0  0
   45.9140   31.9070   44.3860 C   0  0  0  0  0  0  0  0  0  0  0  0
   45.8450   30.7800   43.5830 C   0  0  0  0  0  0  0  0  0  0  0  0
   46.3200   29.5440   43.9540 C   0  0  0  0  0  0  0  0  0  0  0  0
   46.9040   29.3720   45.1920 C   0  0  0  0  0  0  0  0  0  0  0  0
   46.9830   30.5180   46.0250 C   0  0  0  0  0  0  0  0  0  0  0  0
   47.5590   30.3570   47.2560 C   0  0  0  0  0  0  0  0  0  0  0  0
   47.6780   31.4290   48.1220 C   0  0  0  0  0  0  0  0  0  0  0  0
   47.2060   32.6830   47.7260 C   0  0  0  0  0  0  0  0  0  0  0  0
   46.6170   32.8150   46.4550 C   0  0  0  0  0  0  0  0  0  0  0  0
   46.5050   31.7240   45.6180 C   0  0  0  0  0  0  0  0  0  0  0  0
   44.5680   32.6090   41.8530 O   0  0  0  0  0  0  0  0  0  0  0  0
   45.0170   31.6410   39.4450 O   0  0  0  0  0  0  0  0  0  0  0  0
   45.4270   32.7240   40.3850 P   0  0  1  0  0  0  0  0  0  0  0  0
   45.1040   34.1990   39.6170 O   0  0  0  0  0  0  0  0  0  0  0  0
   47.0670   32.6440   40.7080 O   0  0  0  0  0  0  0  0  0  0  0  0
   47.8790   33.6050   41.1790 C   0  0  0  0  0  0  0  0  0  0  0  0
   48.1230   34.9060   40.7440 C   0  0  0  0  0  0  0  0  0  0  0  0
   49.0260   35.6730   41.4380 C   0  0  0  0  0  0  0  0  0  0  0  0
   49.6690   35.1750   42.5250 C   0  0  0  0  0  0  0  0  0  0  0  0
   48.9820   33.4110   42.6680 S   0  0  0  0  0  0  0  0  0  0  0  0
   43.7066   35.0379   41.7568 H   0  0  0  0  0  0  0  0  0  0  0  0
   44.9773   36.1333   45.6377 H   0  0  0  0  0  0  0  0  0  0  0  0
   45.3828   30.8799   42.5898 H   0  0  0  0  0  0  0  0  0  0  0  0
   46.2343   28.6921   43.2634 H   0  0  0  0  0  0  0  0  0  0  0  0
   47.2895   28.3945   45.5174 H   0  0  0  0  0  0  0  0  0  0  0  0
   47.9304   29.3670   47.5592 H   0  0  0  0  0  0  0  0  0  0  0  0
   48.1392   31.2957   49.1117 H   0  0  0  0  0  0  0  0  0  0  0  0
   47.2933   33.5513   48.3957 H   0  0  0  0  0  0  0  0  0  0  0  0
   46.2429   33.7958   46.1261 H   0  0  0  0  0  0  0  0  0  0  0  0
   44.9506   34.8997   40.2993 H   0  0  0  0  0  0  0  0  0  0  0  0
   47.6030   35.3102   39.8629 H   0  0  0  0  0  0  0  0  0  0  0  0
   49.2307   36.7026   41.1095 H   0  0  0  0  0  0  0  0  0  0  0  0
   50.4095   35.6734   43.1679 H   0  0  0  0  0  0  0  0  0  0  0  0
  1  2  2  0
  1  6  1  0
  2  3  1  0
  3  7  1  0
  3  4  2  0
  5  4  1  0
  6  5  2  0
  7 16  2  0
  8  9  2  0
  8  7  1  0
  9 10  1  0
 10 11  2  0
 11 12  1  0
 12 13  2  0
 14 13  1  0
 15 14  2  0
 16 11  1  0
 16 15  1  0
 17  2  1  0
 19 18  2  0
 19 21  1  0
 19 17  1  0
 20 19  1  0
 21 22  1  0
 22 26  1  0
 23 22  2  0
 23 24  1  0
 24 25  2  0
 25 26  1  0
  1 27  1  0
  5 28  1  0
  8 29  1  0
  9 30  1  0
 10 31  1  0
 12 32  1  0
 13 33  1  0
 14 34  1  0
 15 35  1  0
 20 36  1  0
 23 37  1  0
 24 38  1  0
 25 39  1  0
M  ISO  8  27  14  28  14  29  14  30  14  31  14  32  14  33  14  34  14
M  ISO  5  35  14  36   3  37  14  38  14  39  14
M  END
>  <minimizedAffinity>  (1) 
-5.79905891

>  <minimizedRMSD>  (1) 
2.93146658

$$$$
