
     RDKit          3D

 23 24  0  0  1  0  0  0  0  0999 V2000
   45.8280   33.5780   43.3420 C   0  0  1  0  0  0  0  0  0  0  0  0
   48.2540   33.4000   43.1950 C   0  0  0  0  0  0  0  0  0  0  0  0
   47.0930   34.1010   42.8800 C   0  0  0  0  0  0  0  0  0  0  0  0
   47.2430   35.2760   42.1310 C   0  0  0  0  0  0  0  0  0  0  0  0
   48.5070   35.6410   41.7690 N   0  0  0  0  0  0  0  0  0  0  0  0
   49.6040   34.9500   42.0840 C   0  0  0  0  0  0  0  0  0  0  0  0
   49.4800   33.8120   42.8080 N   0  0  0  0  0  0  0  0  0  0  0  0
   45.9260   32.7660   44.5060 C   0  0  0  0  0  0  0  0  0  0  0  0
   45.7940   31.3020   44.4200 C   0  0  0  0  0  0  0  0  0  0  0  0
   45.8810   30.5540   45.5350 C   0  0  0  0  0  0  0  0  0  0  0  0
   46.1190   31.3080   46.8590 C   0  0  0  0  0  0  0  0  0  0  0  0
   46.1810   33.1110   46.2090 S   0  0  0  0  0  0  0  0  0  0  0  0
   44.8880   34.7840   43.5490 C   0  0  0  0  0  0  0  0  0  0  0  0
   45.4257   32.8908   42.5831 H   0  0  0  0  0  0  0  0  0  0  0  0
   48.1689   32.4739   43.7824 H   0  0  0  0  0  0  0  0  0  0  0  0
   46.3716   35.8832   41.8447 H   0  0  0  0  0  0  0  0  0  0  0  0
   50.5954   35.2997   41.7602 H   0  0  0  0  0  0  0  0  0  0  0  0
   45.6245   30.8205   43.4456 H   0  0  0  0  0  0  0  0  0  0  0  0
   45.7870   29.4585   45.5037 H   0  0  0  0  0  0  0  0  0  0  0  0
   46.2234   30.9218   47.8837 H   0  0  0  0  0  0  0  0  0  0  0  0
   44.7502   34.9608   44.6259 H   0  0  0  0  0  0  0  0  0  0  0  0
   45.3302   35.6776   43.0843 H   0  0  0  0  0  0  0  0  0  0  0  0
   43.9135   34.5733   43.0843 H   0  0  0  0  0  0  0  0  0  0  0  0
  1 13  1  0
  1  8  1  0
  3  2  2  0
  3  1  1  0
  4  3  1  0
  5  6  1  0
  5  4  2  0
  6  7  2  0
  7  2  1  0
  8 12  1  0
  9  8  2  0
  9 10  1  0
 10 11  2  0
 12 11  1  0
  1 14  1  6
  2 15  1  0
  4 16  1  0
  6 17  1  0
  9 18  1  0
 10 19  1  0
 11 20  1  0
 13 21  1  0
 13 22  1  0
 13 23  1  0
M  ISO  8  14   8  15  14  16  14  17  14  18  14  19  14  20  14  21   8
M  ISO  2  22   8  23   8
M  END
>  <minimizedAffinity>  (1) 
-3.35286999

>  <minimizedRMSD>  (1) 
5.45275164

$$$$
