
     RDKit          3D

 34 36  0  0  0  0  0  0  0  0999 V2000
   44.3260   35.3980   42.2950 C   0  0  0  0  0  0  0  0  0  0  0  0
   43.3270   35.0270   41.5410 C   0  0  0  0  0  0  0  0  0  0  0  0
   44.5560   35.3960   44.8010 C   0  0  0  0  0  0  0  0  0  0  0  0
   44.7340   34.7620   43.5430 C   0  0  0  0  0  0  0  0  0  0  0  0
   45.3160   33.4890   43.5140 C   0  0  0  0  0  0  0  0  0  0  0  0
   45.6750   32.9510   44.7210 N   0  0  0  0  0  0  0  0  0  0  0  0
   45.4940   33.5770   45.8870 C   0  0  0  0  0  0  0  0  0  0  0  0
   44.9400   34.7880   45.9200 N   0  0  0  0  0  0  0  0  0  0  0  0
   45.9720   32.7550   46.9790 C   0  0  0  0  0  0  0  0  0  0  0  0
   47.2910   32.5350   47.3680 C   0  0  0  0  0  0  0  0  0  0  0  0
   47.5820   31.7350   48.4140 C   0  0  0  0  0  0  0  0  0  0  0  0
   46.5420   31.0970   49.1460 C   0  0  0  0  0  0  0  0  0  0  0  0
   45.0120   31.7160   48.2280 S   0  0  0  0  0  0  0  0  0  0  0  0
   42.9670   35.7290   40.2730 C   0  0  0  0  0  0  0  0  0  0  0  0
   42.3310   35.8320   37.5580 F   0  0  0  0  0  0  0  0  0  0  0  0
   41.3950   35.3570   38.4040 C   0  0  0  0  0  0  0  0  0  0  0  0
   41.6720   35.2870   39.7830 C   0  0  0  0  0  0  0  0  0  0  0  0
   40.6380   34.7890   40.5170 C   0  0  0  0  0  0  0  0  0  0  0  0
   39.4030   34.3630   40.0760 C   0  0  0  0  0  0  0  0  0  0  0  0
   39.2210   34.4710   38.6840 C   0  0  0  0  0  0  0  0  0  0  0  0
   40.1860   34.9580   37.8280 C   0  0  0  0  0  0  0  0  0  0  0  0
   44.9118   36.2667   41.9599 H   0  0  0  0  0  0  0  0  0  0  0  0
   42.7250   34.1608   41.8528 H   0  0  0  0  0  0  0  0  0  0  0  0
   44.0982   36.3950   44.8504 H   0  0  0  0  0  0  0  0  0  0  0  0
   45.4767   32.9484   42.5696 H   0  0  0  0  0  0  0  0  0  0  0  0
   48.1076   33.0210   46.8139 H   0  0  0  0  0  0  0  0  0  0  0  0
   48.6311   31.5746   48.7034 H   0  0  0  0  0  0  0  0  0  0  0  0
   46.6107   30.4241   50.0135 H   0  0  0  0  0  0  0  0  0  0  0  0
   42.9305   36.8125   40.4595 H   0  0  0  0  0  0  0  0  0  0  0  0
   43.7278   35.4942   39.5140 H   0  0  0  0  0  0  0  0  0  0  0  0
   40.8106   34.7175   41.6010 H   0  0  0  0  0  0  0  0  0  0  0  0
   38.6280   33.9730   40.7523 H   0  0  0  0  0  0  0  0  0  0  0  0
   38.2592   34.1503   38.2573 H   0  0  0  0  0  0  0  0  0  0  0  0
   40.0125   35.0290   36.7441 H   0  0  0  0  0  0  0  0  0  0  0  0
  1  4  1  0
  2  1  2  0
  3  8  2  0
  4  3  1  0
  5  4  2  0
  5  6  1  0
  6  7  2  0
  7  8  1  0
  7  9  1  0
  9 10  2  0
  9 13  1  0
 10 11  1  0
 11 12  2  0
 13 12  1  0
 14  2  1  0
 15 16  1  0
 16 17  2  0
 17 14  1  0
 17 18  1  0
 19 18  2  0
 20 19  1  0
 21 16  1  0
 21 20  2  0
  1 22  1  0
  2 23  1  0
  3 24  1  0
  5 25  1  0
 10 26  1  0
 11 27  1  0
 12 28  1  0
 14 29  1  0
 14 30  1  0
 18 31  1  0
 19 32  1  0
 20 33  1  0
 21 34  1  0
M  ISO  8  24  14  25  14  26  14  27  14  28  14  29   8  30   8  31  14
M  ISO  3  32  14  33  14  34  14
M  END
>  <minimizedAffinity>  (1) 
-6.35234785

>  <minimizedRMSD>  (1) 
1.3852241

$$$$
