
     RDKit          3D

 24 25  0  0  0  0  0  0  0  0999 V2000
   44.6320   35.2540   45.1720 C   0  0  0  0  0  0  0  0  0  0  0  0
   45.3490   34.9920   44.0060 C   0  0  0  0  0  0  0  0  0  0  0  0
   46.2780   33.9330   44.0320 C   0  0  0  0  0  0  0  0  0  0  0  0
   46.4300   33.2270   45.1760 N   0  0  0  0  0  0  0  0  0  0  0  0
   45.7190   33.5120   46.2750 C   0  0  0  0  0  0  0  0  0  0  0  0
   44.8200   34.5170   46.2950 N   0  0  0  0  0  0  0  0  0  0  0  0
   45.0750   35.8560   42.8100 C   0  0  0  0  0  0  0  0  0  0  0  0
   45.2860   37.1380   43.2240 F   0  0  0  0  0  0  0  0  0  0  0  0
   43.7300   35.6690   42.5020 F   0  0  0  0  0  0  0  0  0  0  0  0
   45.8740   35.4310   41.7840 F   0  0  0  0  0  0  0  0  0  0  0  0
   45.8440   32.8140   47.4620 O   0  0  0  0  0  0  0  0  0  0  0  0
   47.0180   32.1050   47.8000 C   0  0  0  0  0  0  0  0  0  0  0  0
   46.6860   30.6600   47.6750 C   0  0  0  0  0  0  0  0  0  0  0  0
   47.4560   29.6070   47.3900 C   0  0  0  0  0  0  0  0  0  0  0  0
   46.9430   28.3400   47.3220 C   0  0  0  0  0  0  0  0  0  0  0  0
   45.5160   28.2780   47.5850 C   0  0  0  0  0  0  0  0  0  0  0  0
   45.0810   30.0760   47.9020 S   0  0  0  0  0  0  0  0  0  0  0  0
   43.8994   36.0745   45.1817 H   0  0  0  0  0  0  0  0  0  0  0  0
   46.8691   33.6847   43.1382 H   0  0  0  0  0  0  0  0  0  0  0  0
   47.8337   32.3690   47.1109 H   0  0  0  0  0  0  0  0  0  0  0  0
   47.3533   32.3507   48.8184 H   0  0  0  0  0  0  0  0  0  0  0  0
   48.5293   29.7617   47.2053 H   0  0  0  0  0  0  0  0  0  0  0  0
   47.5526   27.4541   47.0905 H   0  0  0  0  0  0  0  0  0  0  0  0
   44.8559   27.3981   47.5957 H   0  0  0  0  0  0  0  0  0  0  0  0
  1  6  2  0
  2  3  2  0
  2  1  1  0
  3  4  1  0
  4  5  2  0
  5  6  1  0
  5 11  1  0
  7  8  1  0
  7  2  1  0
  9  7  1  0
 10  7  1  0
 11 12  1  0
 13 12  1  0
 13 17  1  0
 14 13  2  0
 15 14  1  0
 15 16  2  0
 16 17  1  0
  1 18  1  0
  3 19  1  0
 12 20  1  0
 12 21  1  0
 14 22  1  0
 15 23  1  0
 16 24  1  0
M  ISO  7  18  14  19  14  20   8  21   8  22  14  23  14  24  14
M  END
>  <minimizedAffinity>  (1) 
-4.50828648

>  <minimizedRMSD>  (1) 
2.38268089

$$$$
