
     RDKit          3D

 23 24  0  0  0  0  0  0  0  0999 V2000
   45.6530   34.6200   41.4720 C   0  0  0  0  0  0  0  0  0  0  0  0
   44.5200   35.8450   44.8560 C   0  0  0  0  0  0  0  0  0  0  0  0
   44.7540   35.7800   43.4560 C   0  0  0  0  0  0  0  0  0  0  0  0
   45.4130   34.6790   42.9320 C   0  0  0  0  0  0  0  0  0  0  0  0
   45.8000   33.7140   43.8010 N   0  0  0  0  0  0  0  0  0  0  0  0
   45.5730   33.7880   45.1200 C   0  0  0  0  0  0  0  0  0  0  0  0
   44.9390   34.8440   45.6380 N   0  0  0  0  0  0  0  0  0  0  0  0
   47.0510   34.1040   41.2250 C   0  0  0  0  0  0  0  0  0  0  0  0
   47.3280   33.9980   39.7870 C   0  0  0  0  0  0  0  0  0  0  0  0
   48.3050   34.5880   39.0200 C   0  0  0  0  0  0  0  0  0  0  0  0
   48.3620   34.3380   37.6870 C   0  0  0  0  0  0  0  0  0  0  0  0
   47.3370   33.4290   37.1840 C   0  0  0  0  0  0  0  0  0  0  0  0
   46.3690   33.0160   38.7210 S   0  0  0  0  0  0  0  0  0  0  0  0
   44.9221   33.9435   41.0049 H   0  0  0  0  0  0  0  0  0  0  0  0
   45.5446   35.6242   41.0362 H   0  0  0  0  0  0  0  0  0  0  0  0
   43.9993   36.7101   45.2925 H   0  0  0  0  0  0  0  0  0  0  0  0
   44.4165   36.5931   42.7965 H   0  0  0  0  0  0  0  0  0  0  0  0
   45.9105   32.9749   45.7796 H   0  0  0  0  0  0  0  0  0  0  0  0
   47.7751   34.7955   41.6805 H   0  0  0  0  0  0  0  0  0  0  0  0
   47.1386   33.1031   41.6728 H   0  0  0  0  0  0  0  0  0  0  0  0
   49.0393   35.2616   39.4860 H   0  0  0  0  0  0  0  0  0  0  0  0
   49.1246   34.7875   37.0340 H   0  0  0  0  0  0  0  0  0  0  0  0
   47.1762   33.0760   36.1547 H   0  0  0  0  0  0  0  0  0  0  0  0
  1  4  1  0
  2  7  2  0
  3  2  1  0
  4  3  2  0
  4  5  1  0
  5  6  2  0
  6  7  1  0
  8  1  1  0
  9  8  1  0
 10  9  2  0
 11 10  1  0
 12 11  2  0
 12 13  1  0
 13  9  1  0
  1 14  1  0
  1 15  1  0
  2 16  1  0
  3 17  1  0
  6 18  1  0
  8 19  1  0
  8 20  1  0
 10 21  1  0
 11 22  1  0
 12 23  1  0
M  ISO  8  14   8  15   8  16  14  17  14  18  14  19   8  20   8  21  14
M  ISO  2  22  14  23  14
M  END
>  <minimizedAffinity>  (1) 
-3.95542026

>  <minimizedRMSD>  (1) 
1.76855862

$$$$
