
     RDKit          3D

 29 31  0  0  1  0  0  0  0  0999 V2000
   46.5820   35.0750   41.9140 C   0  0  1  0  0  0  0  0  0  0  0  0
   48.1150   35.3480   41.9180 C   0  0  0  0  0  0  0  0  0  0  0  0
   47.3940   34.1080   41.2960 C   0  0  2  0  0  0  0  0  0  0  0  0
   44.6900   35.3340   45.1450 C   0  0  0  0  0  0  0  0  0  0  0  0
   45.1380   35.6670   43.8290 C   0  0  0  0  0  0  0  0  0  0  0  0
   46.0840   34.8470   43.3130 C   0  0  0  0  0  0  0  0  0  0  0  0
   46.5780   33.7660   44.0210 N   0  0  0  0  0  0  0  0  0  0  0  0
   46.1240   33.4880   45.2690 C   0  0  0  0  0  0  0  0  0  0  0  0
   45.1790   34.2760   45.8300 N   0  0  0  0  0  0  0  0  0  0  0  0
   44.6420   36.7850   43.1200 N   0  0  0  0  0  0  0  0  0  0  0  0
   47.4300   33.9460   39.7940 C   0  0  0  0  0  0  0  0  0  0  0  0
   48.5140   33.0150   39.4340 C   0  0  0  0  0  0  0  0  0  0  0  0
   49.3770   32.2060   40.1170 C   0  0  0  0  0  0  0  0  0  0  0  0
   50.2760   31.4660   39.3900 C   0  0  0  0  0  0  0  0  0  0  0  0
   50.2640   31.5750   38.0260 C   0  0  0  0  0  0  0  0  0  0  0  0
   48.8810   32.8130   37.7480 S   0  0  0  0  0  0  0  0  0  0  0  0
   45.6693   35.5677   41.5475 H   0  0  0  0  0  0  0  0  0  0  0  0
   48.5536   36.1285   41.2789 H   0  0  0  0  0  0  0  0  0  0  0  0
   48.9048   35.5433   42.6584 H   0  0  0  0  0  0  0  0  0  0  0  0
   47.4675   33.0175   41.4202 H   0  0  0  0  0  0  0  0  0  0  0  0
   43.9196   35.9612   45.6173 H   0  0  0  0  0  0  0  0  0  0  0  0
   46.5230   32.6251   45.8223 H   0  0  0  0  0  0  0  0  0  0  0  0
   44.9911   36.9906   42.1730 H   0  0  0  0  0  0  0  0  0  0  0  0
   43.9315   37.3940   43.5504 H   0  0  0  0  0  0  0  0  0  0  0  0
   46.4679   33.5437   39.4440 H   0  0  0  0  0  0  0  0  0  0  0  0
   47.6087   34.9227   39.3207 H   0  0  0  0  0  0  0  0  0  0  0  0
   49.3524   32.1493   41.2153 H   0  0  0  0  0  0  0  0  0  0  0  0
   50.9913   30.7991   39.8935 H   0  0  0  0  0  0  0  0  0  0  0  0
   50.8998   31.0685   37.2849 H   0  0  0  0  0  0  0  0  0  0  0  0
  1  2  1  0
  1  6  1  0
  3  1  1  0
  3  2  1  0
  4  9  2  0
  5  4  1  0
  6  5  2  0
  6  7  1  0
  7  8  2  0
  8  9  1  0
 10  5  1  0
 11  3  1  0
 12 11  1  0
 12 13  2  0
 14 13  1  0
 15 14  2  0
 16 15  1  0
 16 12  1  0
  1 17  1  6
  2 18  1  0
  2 19  1  0
  3 20  1  1
  4 21  1  0
  8 22  1  0
 10 23  1  0
 10 24  1  0
 11 25  1  0
 11 26  1  0
 13 27  1  0
 14 28  1  0
 15 29  1  0
M  ISO  8  17  13  18  13  19  13  20  13  21  14  22  14  25   8  26   8
M  ISO  3  27  14  28  14  29  14
M  END
>  <minimizedAffinity>  (1) 
-4.72411394

>  <minimizedRMSD>  (1) 
0.370835334

$$$$
