
     RDKit          3D

 29 31  0  0  0  0  0  0  0  0999 V2000
   45.2200   33.4690   41.1130 F   0  0  0  0  0  0  0  0  0  0  0  0
   46.4010   34.0850   40.9970 C   0  0  0  0  0  0  0  0  0  0  0  0
   46.8880   34.8050   42.0670 C   0  0  0  0  0  0  0  0  0  0  0  0
   48.0940   35.4670   42.0280 C   0  0  0  0  0  0  0  0  0  0  0  0
   48.8760   35.4250   40.8740 C   0  0  0  0  0  0  0  0  0  0  0  0
   48.3350   34.6890   39.8380 C   0  0  0  0  0  0  0  0  0  0  0  0
   47.1370   34.0130   39.8330 C   0  0  0  0  0  0  0  0  0  0  0  0
   45.4840   33.9980   45.3790 C   0  0  0  0  0  0  0  0  0  0  0  0
   44.6360   35.1020   45.6000 C   0  0  0  0  0  0  0  0  0  0  0  0
   44.5440   36.1150   44.6250 C   0  0  0  0  0  0  0  0  0  0  0  0
   45.3070   35.9510   43.5000 N   0  0  0  0  0  0  0  0  0  0  0  0
   46.1090   34.8860   43.3140 C   0  0  0  0  0  0  0  0  0  0  0  0
   46.1840   33.9430   44.2400 N   0  0  0  0  0  0  0  0  0  0  0  0
   45.5700   32.9890   46.3590 N   0  0  0  0  0  0  0  0  0  0  0  0
   46.7240   33.2980   38.6750 C   0  0  0  0  0  0  0  0  0  0  0  0
   45.7350   32.3480   38.5090 C   0  0  0  0  0  0  0  0  0  0  0  0
   45.5160   31.7950   37.3040 C   0  0  0  0  0  0  0  0  0  0  0  0
   46.3530   32.2450   36.2350 C   0  0  0  0  0  0  0  0  0  0  0  0
   47.4560   33.5070   37.1140 S   0  0  0  0  0  0  0  0  0  0  0  0
   48.4412   36.0294   42.9073 H   0  0  0  0  0  0  0  0  0  0  0  0
   49.8463   35.9372   40.7952 H   0  0  0  0  0  0  0  0  0  0  0  0
   48.9286   34.6377   38.9134 H   0  0  0  0  0  0  0  0  0  0  0  0
   44.0496   35.1723   46.5280 H   0  0  0  0  0  0  0  0  0  0  0  0
   43.8934   36.9915   44.7605 H   0  0  0  0  0  0  0  0  0  0  0  0
   46.1860   32.1771   46.2096 H   0  0  0  0  0  0  0  0  0  0  0  0
   45.0169   33.0634   47.2247 H   0  0  0  0  0  0  0  0  0  0  0  0
   45.1221   32.0419   39.3696 H   0  0  0  0  0  0  0  0  0  0  0  0
   44.7346   31.0366   37.1480 H   0  0  0  0  0  0  0  0  0  0  0  0
   46.3551   31.9380   35.1787 H   0  0  0  0  0  0  0  0  0  0  0  0
  2  1  1  0
  2  3  2  0
  3 12  1  0
  4  3  1  0
  5  4  2  0
  6  5  1  0
  7  6  2  0
  7  2  1  0
  8  9  2  0
  8 14  1  0
 10  9  1  0
 11 10  2  0
 12 11  1  0
 12 13  2  0
 13  8  1  0
 15  7  1  0
 16 15  2  0
 17 16  1  0
 18 19  1  0
 18 17  2  0
 19 15  1  0
  4 20  1  0
  5 21  1  0
  6 22  1  0
  9 23  1  0
 10 24  1  0
 14 25  1  0
 14 26  1  0
 16 27  1  0
 17 28  1  0
 18 29  1  0
M  ISO  8  20  14  21  14  22  14  23  14  24  14  27  14  28  14  29  14
M  END
>  <minimizedAffinity>  (1) 
-5.93137217

>  <minimizedRMSD>  (1) 
0.254800797

$$$$
