
     RDKit          3D

 34 37  0  0  0  0  0  0  0  0999 V2000
   45.9750   33.1880   41.6780 C   0  0  0  0  0  0  0  0  0  0  0  0
   47.1260   33.8860   41.3350 C   0  0  0  0  0  0  0  0  0  0  0  0
   48.1180   33.9630   42.3230 C   0  0  0  0  0  0  0  0  0  0  0  0
   47.8760   33.3590   43.5170 N   0  0  0  0  0  0  0  0  0  0  0  0
   46.7550   32.6950   43.8110 C   0  0  0  0  0  0  0  0  0  0  0  0
   45.7900   32.6070   42.8820 N   0  0  0  0  0  0  0  0  0  0  0  0
   46.9340   30.7780   45.3280 C   0  0  0  0  0  0  0  0  0  0  0  0
   46.6000   32.0910   45.1140 C   0  0  0  0  0  0  0  0  0  0  0  0
   46.0930   32.9160   46.1310 C   0  0  0  0  0  0  0  0  0  0  0  0
   45.9180   32.3940   47.4150 C   0  0  0  0  0  0  0  0  0  0  0  0
   45.4680   32.8730   48.6090 N   0  0  0  0  0  0  0  0  0  0  0  0
   45.5470   31.8250   49.5160 C   0  0  0  0  0  0  0  0  0  0  0  0
   46.0340   30.7520   48.8610 N   0  0  0  0  0  0  0  0  0  0  0  0
   46.2640   31.0800   47.5830 C   0  0  0  0  0  0  0  0  0  0  0  0
   46.7670   30.2410   46.6010 C   0  0  0  0  0  0  0  0  0  0  0  0
   49.3760   34.6950   42.0360 C   0  0  0  0  0  0  0  0  0  0  0  0
   49.1040   35.8280   41.2470 F   0  0  0  0  0  0  0  0  0  0  0  0
   49.9190   35.1830   43.2030 F   0  0  0  0  0  0  0  0  0  0  0  0
   50.2250   33.8540   41.3810 F   0  0  0  0  0  0  0  0  0  0  0  0
   47.2680   34.4520   40.1190 O   0  0  0  0  0  0  0  0  0  0  0  0
   47.5010   33.8400   38.9750 C   0  0  0  0  0  0  0  0  0  0  0  0
   48.3840   34.4150   38.1370 C   0  0  0  0  0  0  0  0  0  0  0  0
   48.6620   33.8200   36.9390 C   0  0  0  0  0  0  0  0  0  0  0  0
   48.0250   32.6400   36.6190 C   0  0  0  0  0  0  0  0  0  0  0  0
   46.9670   32.3060   38.0510 S   0  0  0  0  0  0  0  0  0  0  0  0
   45.1730   33.1045   40.9297 H   0  0  0  0  0  0  0  0  0  0  0  0
   47.3272   30.1600   44.5074 H   0  0  0  0  0  0  0  0  0  0  0  0
   45.8359   33.9642   45.9185 H   0  0  0  0  0  0  0  0  0  0  0  0
   45.1338   33.8281   48.8013 H   0  0  0  0  0  0  0  0  0  0  0  0
   45.2633   31.8632   50.5781 H   0  0  0  0  0  0  0  0  0  0  0  0
   47.0236   29.1938   46.8189 H   0  0  0  0  0  0  0  0  0  0  0  0
   48.8783   35.3575   38.4150 H   0  0  0  0  0  0  0  0  0  0  0  0
   49.3815   34.2745   36.2420 H   0  0  0  0  0  0  0  0  0  0  0  0
   48.1341   32.0392   35.7041 H   0  0  0  0  0  0  0  0  0  0  0  0
  1  6  2  0
  2  1  1  0
  2  3  2  0
  3  4  1  0
  4  5  2  0
  5  8  1  0
  6  5  1  0
  7 15  2  0
  8  7  1  0
  8  9  2  0
  9 10  1  0
 10 14  2  0
 10 11  1  0
 11 12  1  0
 13 12  2  0
 14 13  1  0
 15 14  1  0
 16  3  1  0
 16 18  1  0
 17 16  1  0
 19 16  1  0
 20  2  1  0
 21 20  1  0
 22 21  2  0
 23 22  1  0
 24 23  2  0
 24 25  1  0
 25 21  1  0
  1 26  1  0
  7 27  1  0
  9 28  1  0
 11 29  1  0
 12 30  1  0
 15 31  1  0
 22 32  1  0
 23 33  1  0
 24 34  1  0
M  ISO  8  26  14  27  14  28  14  29   9  30  14  31  14  32  14  33  14
M  ISO  1  34  14
M  END
>  <minimizedAffinity>  (1) 
-6.16326094

>  <minimizedRMSD>  (1) 
1.29417276

$$$$
