
     RDKit          3D

 30 32  0  0  1  0  0  0  0  0999 V2000
   47.0120   34.2700   42.3070 C   0  0  2  0  0  0  0  0  0  0  0  0
   47.9850   35.3390   41.9470 C   0  0  0  0  0  0  0  0  0  0  0  0
   48.4260   34.8640   40.5690 C   0  0  0  0  0  0  0  0  0  0  0  0
   47.2440   34.1460   39.9950 C   0  0  0  0  0  0  0  0  0  0  0  0
   46.1430   34.2320   41.0420 C   0  0  1  0  0  0  0  0  0  0  0  0
   45.3920   34.1040   45.7070 C   0  0  0  0  0  0  0  0  0  0  0  0
   46.2050   33.7270   44.6420 C   0  0  0  0  0  0  0  0  0  0  0  0
   46.1980   34.5420   43.5020 C   0  0  0  0  0  0  0  0  0  0  0  0
   45.3980   35.6450   43.5090 N   0  0  0  0  0  0  0  0  0  0  0  0
   44.6170   35.9860   44.5580 C   0  0  0  0  0  0  0  0  0  0  0  0
   44.6110   35.2200   45.6580 N   0  0  0  0  0  0  0  0  0  0  0  0
   45.3390   33.0020   41.1250 C   0  0  0  0  0  0  0  0  0  0  0  0
   45.3690   31.6470   41.2300 C   0  0  0  0  0  0  0  0  0  0  0  0
   44.1910   30.9550   41.2650 C   0  0  0  0  0  0  0  0  0  0  0  0
   42.9760   31.5840   41.1970 C   0  0  0  0  0  0  0  0  0  0  0  0
   43.4980   33.4240   41.0620 S   0  0  0  0  0  0  0  0  0  0  0  0
   47.5119   33.3286   42.5788 H   0  0  0  0  0  0  0  0  0  0  0  0
   47.5035   36.3269   41.9007 H   0  0  0  0  0  0  0  0  0  0  0  0
   48.8045   35.4734   42.6684 H   0  0  0  0  0  0  0  0  0  0  0  0
   48.6993   35.7213   39.9363 H   0  0  0  0  0  0  0  0  0  0  0  0
   49.3105   34.2125   40.6261 H   0  0  0  0  0  0  0  0  0  0  0  0
   46.9207   34.6299   39.0616 H   0  0  0  0  0  0  0  0  0  0  0  0
   47.4883   33.1004   39.7563 H   0  0  0  0  0  0  0  0  0  0  0  0
   45.4372   35.0557   40.8593 H   0  0  0  0  0  0  0  0  0  0  0  0
   45.3794   33.4830   46.6149 H   0  0  0  0  0  0  0  0  0  0  0  0
   46.8297   32.8231   44.6932 H   0  0  0  0  0  0  0  0  0  0  0  0
   43.9892   36.8879   44.5093 H   0  0  0  0  0  0  0  0  0  0  0  0
   46.3296   31.1141   41.2861 H   0  0  0  0  0  0  0  0  0  0  0  0
   44.2194   29.8587   41.3504 H   0  0  0  0  0  0  0  0  0  0  0  0
   41.9662   31.1480   41.2151 H   0  0  0  0  0  0  0  0  0  0  0  0
  1  8  1  0
  2  1  1  0
  3  2  1  0
  4  3  1  0
  4  5  1  0
  5 12  1  0
  5  1  1  0
  7  6  2  0
  8  9  2  0
  8  7  1  0
  9 10  1  0
 10 11  2  0
 11  6  1  0
 12 13  2  0
 13 14  1  0
 15 14  2  0
 16 12  1  0
 16 15  1  0
  1 17  1  1
  2 18  1  0
  2 19  1  0
  3 20  1  0
  3 21  1  0
  4 22  1  0
  4 23  1  0
  5 24  1  6
  6 25  1  0
  7 26  1  0
 10 27  1  0
 13 28  1  0
 14 29  1  0
 15 30  1  0
M  ISO  8  17  13  18  13  19  13  20  13  21  13  22  13  23  13  24  13
M  ISO  6  25  14  26  14  27  14  28  14  29  14  30  14
M  END
>  <minimizedAffinity>  (1) 
-4.72383881

>  <minimizedRMSD>  (1) 
4.76578283

$$$$
