
     RDKit          3D

 42 46  0  0  0  0  0  0  0  0999 V2000
   44.7840   35.9620   43.3490 Cl  0  0  0  0  0  0  0  0  0  0  0  0
   45.5380   34.7180   44.2820 C   0  0  0  0  0  0  0  0  0  0  0  0
   46.6320   34.0340   43.7930 C   0  0  0  0  0  0  0  0  0  0  0  0
   47.1570   33.0650   44.6120 C   0  0  0  0  0  0  0  0  0  0  0  0
   46.6740   32.7370   45.8620 C   0  0  0  0  0  0  0  0  0  0  0  0
   45.5810   33.4410   46.3200 C   0  0  0  0  0  0  0  0  0  0  0  0
   44.9930   33.0000   47.9120 Cl  0  0  0  0  0  0  0  0  0  0  0  0
   45.0190   34.4170   45.5440 C   0  0  0  0  0  0  0  0  0  0  0  0
   47.3700   31.6720   46.5850 C   0  0  0  0  0  0  0  0  0  0  0  0
   47.4820   30.3920   46.1000 C   0  0  0  0  0  0  0  0  0  0  0  0
   48.1320   29.3710   46.7620 C   0  0  0  0  0  0  0  0  0  0  0  0
   48.7100   29.6250   47.9820 C   0  0  0  0  0  0  0  0  0  0  0  0
   49.3360   28.6300   48.6140 N   0  0  0  0  0  0  0  0  0  0  0  0
   49.9310   28.7940   49.8150 C   0  0  0  0  0  0  0  0  0  0  0  0
   49.8610   30.0730   50.3770 C   0  0  0  0  0  0  0  0  0  0  0  0
   49.2220   31.0950   49.7380 C   0  0  0  0  0  0  0  0  0  0  0  0
   48.6230   30.8940   48.5080 C   0  0  0  0  0  0  0  0  0  0  0  0
   47.9630   31.9110   47.8250 C   0  0  0  0  0  0  0  0  0  0  0  0
   48.7940   35.4380   41.2280 C   0  0  0  0  0  0  0  0  0  0  0  0
   48.3010   34.9040   40.0280 C   0  0  0  0  0  0  0  0  0  0  0  0
   47.1960   34.0390   40.1300 C   0  0  0  0  0  0  0  0  0  0  0  0
   46.6870   33.7820   41.3480 N   0  0  0  0  0  0  0  0  0  0  0  0
   47.1950   34.3220   42.4870 C   0  0  0  0  0  0  0  0  0  0  0  0
   48.2440   35.1450   42.4090 N   0  0  0  0  0  0  0  0  0  0  0  0
   46.6500   33.4610   38.9250 C   0  0  0  0  0  0  0  0  0  0  0  0
   45.5110   32.8320   38.6590 C   0  0  0  0  0  0  0  0  0  0  0  0
   45.2120   32.3660   37.4090 C   0  0  0  0  0  0  0  0  0  0  0  0
   46.2560   32.6240   36.4150 C   0  0  0  0  0  0  0  0  0  0  0  0
   47.5480   33.5170   37.4190 S   0  0  0  0  0  0  0  0  0  0  0  0
   48.0302   32.5071   44.2429 H   0  0  0  0  0  0  0  0  0  0  0  0
   44.1466   34.9726   45.9184 H   0  0  0  0  0  0  0  0  0  0  0  0
   47.0258   30.1673   45.1246 H   0  0  0  0  0  0  0  0  0  0  0  0
   48.1868   28.3659   46.3184 H   0  0  0  0  0  0  0  0  0  0  0  0
   50.4439   27.9651   50.3248 H   0  0  0  0  0  0  0  0  0  0  0  0
   50.3308   30.2585   51.3542 H   0  0  0  0  0  0  0  0  0  0  0  0
   49.1828   32.0896   50.2062 H   0  0  0  0  0  0  0  0  0  0  0  0
   47.9081   32.9162   48.2684 H   0  0  0  0  0  0  0  0  0  0  0  0
   49.6584   36.1175   41.1951 H   0  0  0  0  0  0  0  0  0  0  0  0
   48.7553   35.1491   39.0566 H   0  0  0  0  0  0  0  0  0  0  0  0
   44.7844   32.6810   39.4710 H   0  0  0  0  0  0  0  0  0  0  0  0
   44.2729   31.8448   37.1715 H   0  0  0  0  0  0  0  0  0  0  0  0
   46.2734   32.3584   35.3477 H   0  0  0  0  0  0  0  0  0  0  0  0
  1  2  1  0
  2  8  2  0
  3  2  1  0
  3  4  2  0
  4  5  1  0
  5  6  2  0
  5  9  1  0
  6  7  1  0
  8  6  1  0
  9 18  1  0
 10  9  2  0
 10 11  1  0
 11 12  2  0
 12 17  1  0
 12 13  1  0
 13 14  2  0
 14 15  1  0
 16 15  2  0
 17 16  1  0
 18 17  2  0
 19 24  2  0
 20 21  2  0
 20 19  1  0
 21 22  1  0
 22 23  2  0
 23  3  1  0
 24 23  1  0
 25 21  1  0
 26 25  2  0
 27 26  1  0
 28 27  2  0
 28 29  1  0
 29 25  1  0
  4 30  1  0
  8 31  1  0
 10 32  1  0
 11 33  1  0
 14 34  1  0
 15 35  1  0
 16 36  1  0
 18 37  1  0
 19 38  1  0
 20 39  1  0
 26 40  1  0
 27 41  1  0
 28 42  1  0
M  ISO  8  30  14  31  14  32  14  33  14  34  14  35  14  36  14  37  14
M  ISO  5  38  14  39  14  40  14  41  14  42  14
M  END
>  <minimizedAffinity>  (1) 
-7.08926058

>  <minimizedRMSD>  (1) 
0.475056291

$$$$
