
     RDKit          3D

 20 21  0  0  0  0  0  0  0  0999 V2000
   45.4180   34.5800   45.0040 C   0  0  0  0  0  0  0  0  0  0  0  0
   44.7480   35.4790   44.1760 C   0  0  0  0  0  0  0  0  0  0  0  0
   45.2940   35.7570   42.9190 C   0  0  0  0  0  0  0  0  0  0  0  0
   46.4430   35.1350   42.5810 N   0  0  0  0  0  0  0  0  0  0  0  0
   47.0740   34.2650   43.4050 C   0  0  0  0  0  0  0  0  0  0  0  0
   46.5470   33.9890   44.6330 N   0  0  0  0  0  0  0  0  0  0  0  0
   48.2870   33.6600   42.9510 C   0  0  0  0  0  0  0  0  0  0  0  0
   48.6120   32.3400   42.7550 C   0  0  0  0  0  0  0  0  0  0  0  0
   49.8770   32.0480   42.3020 C   0  0  0  0  0  0  0  0  0  0  0  0
   50.7390   33.0630   42.0700 C   0  0  0  0  0  0  0  0  0  0  0  0
   49.7600   34.5530   42.5010 S   0  0  0  0  0  0  0  0  0  0  0  0
   44.8270   34.2900   46.3430 C   0  0  0  0  0  0  0  0  0  0  0  0
   43.8132   35.9578   44.5031 H   0  0  0  0  0  0  0  0  0  0  0  0
   44.8034   36.4591   42.2288 H   0  0  0  0  0  0  0  0  0  0  0  0
   47.8827   31.5410   42.9543 H   0  0  0  0  0  0  0  0  0  0  0  0
   50.1826   31.0052   42.1312 H   0  0  0  0  0  0  0  0  0  0  0  0
   51.7769   33.0086   41.7097 H   0  0  0  0  0  0  0  0  0  0  0  0
   45.5173   34.6287   47.1296 H   0  0  0  0  0  0  0  0  0  0  0  0
   43.8684   34.8200   46.4433 H   0  0  0  0  0  0  0  0  0  0  0  0
   44.6597   33.2074   46.4433 H   0  0  0  0  0  0  0  0  0  0  0  0
  1 12  1  0
  2  1  2  0
  3  2  1  0
  4  3  2  0
  4  5  1  0
  5  6  2  0
  6  1  1  0
  7  5  1  0
  8  7  2  0
  9  8  1  0
 10  9  2  0
 10 11  1  0
 11  7  1  0
  2 13  1  0
  3 14  1  0
  8 15  1  0
  9 16  1  0
 10 17  1  0
 12 18  1  0
 12 19  1  0
 12 20  1  0
M  ISO  8  13  14  14  14  15  14  16  14  17  14  18   8  19   8  20   8
M  END
>  <minimizedAffinity>  (1) 
-3.6771152

>  <minimizedRMSD>  (1) 
5.63538265

$$$$
