
     RDKit          3D

 36 39  0  0  0  0  0  0  0  0999 V2000
   45.9440   32.7140   46.5970 C   0  0  0  0  0  0  0  0  0  0  0  0
   45.4300   32.8730   47.9110 C   0  0  0  0  0  0  0  0  0  0  0  0
   45.6930   32.0060   48.9450 C   0  0  0  0  0  0  0  0  0  0  0  0
   46.4800   30.9270   48.7450 C   0  0  0  0  0  0  0  0  0  0  0  0
   47.0150   30.7140   47.4730 C   0  0  0  0  0  0  0  0  0  0  0  0
   47.7980   29.6150   47.3290 C   0  0  0  0  0  0  0  0  0  0  0  0
   48.3560   29.3450   46.0930 C   0  0  0  0  0  0  0  0  0  0  0  0
   48.0630   30.2360   45.0660 C   0  0  0  0  0  0  0  0  0  0  0  0
   47.2740   31.3010   45.3020 C   0  0  0  0  0  0  0  0  0  0  0  0
   46.7240   31.6050   46.4680 C   0  0  0  0  0  0  0  0  0  0  0  0
   44.4430   35.6710   45.2080 C   0  0  0  0  0  0  0  0  0  0  0  0
   45.0840   35.7690   43.9320 C   0  0  0  0  0  0  0  0  0  0  0  0
   46.0400   34.7900   43.5310 C   0  0  0  0  0  0  0  0  0  0  0  0
   46.2880   33.8040   44.3980 N   0  0  0  0  0  0  0  0  0  0  0  0
   45.7130   33.6970   45.5650 C   0  0  0  0  0  0  0  0  0  0  0  0
   44.7920   34.6340   45.9640 N   0  0  0  0  0  0  0  0  0  0  0  0
   44.7130   36.8750   43.1260 N   0  0  0  0  0  0  0  0  0  0  0  0
   47.1510   31.9770   44.1270 O   0  0  0  0  0  0  0  0  0  0  0  0
   47.8950   31.6080   42.9320 C   0  0  0  0  0  0  0  0  0  0  0  0
   48.8860   32.4490   42.7690 C   0  0  0  0  0  0  0  0  0  0  0  0
   49.7380   32.3400   41.7230 C   0  0  0  0  0  0  0  0  0  0  0  0
   49.5250   31.3020   40.8230 C   0  0  0  0  0  0  0  0  0  0  0  0
   48.0110   30.5400   41.6400 S   0  0  0  0  0  0  0  0  0  0  0  0
   44.7840   33.7400   48.1133 H   0  0  0  0  0  0  0  0  0  0  0  0
   45.2606   32.1919   49.9392 H   0  0  0  0  0  0  0  0  0  0  0  0
   46.6953   30.2296   49.5680 H   0  0  0  0  0  0  0  0  0  0  0  0
   47.9861   28.9484   48.1835 H   0  0  0  0  0  0  0  0  0  0  0  0
   49.0002   28.4684   45.9299 H   0  0  0  0  0  0  0  0  0  0  0  0
   48.4763   30.0704   44.0601 H   0  0  0  0  0  0  0  0  0  0  0  0
   43.7030   36.4120   45.5446 H   0  0  0  0  0  0  0  0  0  0  0  0
   46.5479   34.8438   42.5567 H   0  0  0  0  0  0  0  0  0  0  0  0
   45.1392   37.0010   42.1968 H   0  0  0  0  0  0  0  0  0  0  0  0
   44.0173   37.5524   43.4697 H   0  0  0  0  0  0  0  0  0  0  0  0
   49.0287   33.2608   43.4975 H   0  0  0  0  0  0  0  0  0  0  0  0
   50.5695   33.0477   41.5897 H   0  0  0  0  0  0  0  0  0  0  0  0
   50.0728   31.0147   39.9134 H   0  0  0  0  0  0  0  0  0  0  0  0
  1  2  2  0
  2  3  1  0
  4  3  2  0
  5  4  1  0
  6  5  2  0
  7  6  1  0
  8  9  1  0
  8  7  2  0
  9 10  2  0
 10  1  1  0
 10  5  1  0
 11 16  2  0
 12 11  1  0
 13 12  2  0
 13 14  1  0
 14 15  2  0
 15 16  1  0
 15  1  1  0
 17 12  1  0
 18  9  1  0
 19 18  1  0
 20 19  2  0
 21 20  1  0
 22 23  1  0
 22 21  2  0
 23 19  1  0
  2 24  1  0
  3 25  1  0
  4 26  1  0
  6 27  1  0
  7 28  1  0
  8 29  1  0
 11 30  1  0
 13 31  1  0
 17 32  1  0
 17 33  1  0
 20 34  1  0
 21 35  1  0
 22 36  1  0
M  ISO  8  24  14  25  14  26  14  27  14  28  14  29  14  30  14  31  14
M  ISO  3  34  14  35  14  36  14
M  END
>  <minimizedAffinity>  (1) 
-5.85826778

>  <minimizedRMSD>  (1) 
0.44184193

$$$$
