
     RDKit          3D

 42 45  0  0  1  0  0  0  0  0999 V2000
   46.6910   33.2950   44.8730 F   0  0  0  0  0  0  0  0  0  0  0  0
   47.3280   32.0990   44.6820 C   0  0  0  0  0  0  0  0  0  0  0  0
   48.1630   31.9850   43.6090 C   0  0  0  0  0  0  0  0  0  0  0  0
   48.8020   30.7890   43.4140 C   0  0  0  0  0  0  0  0  0  0  0  0
   48.5860   29.7470   44.2950 C   0  0  0  0  0  0  0  0  0  0  0  0
   47.7540   29.8550   45.3680 C   0  0  0  0  0  0  0  0  0  0  0  0
   47.1030   31.0880   45.5590 C   0  0  0  0  0  0  0  0  0  0  0  0
   46.2420   31.1560   46.6910 N   0  0  0  0  0  0  0  0  0  0  0  0
   45.1110   30.3530   47.0680 C   0  0  0  0  0  0  0  0  0  0  0  0
   45.4280   29.9980   48.5350 C   0  0  0  0  0  0  0  0  0  0  0  0
   46.3640   31.1020   48.9720 C   0  0  0  0  0  0  0  0  0  0  0  0
   46.2600   32.0800   47.8220 C   0  0  2  0  0  0  0  0  0  0  0  0
   45.0740   32.9780   47.8810 C   0  0  0  0  0  0  0  0  0  0  0  0
   49.1670   35.2460   42.2860 C   0  0  0  0  0  0  0  0  0  0  0  0
   48.7250   35.2300   40.9630 C   0  0  0  0  0  0  0  0  0  0  0  0
   48.0820   34.0630   40.5700 C   0  0  0  0  0  0  0  0  0  0  0  0
   47.9240   33.0530   41.4430 N   0  0  0  0  0  0  0  0  0  0  0  0
   48.3600   33.1040   42.7050 C   0  0  0  0  0  0  0  0  0  0  0  0
   48.9790   34.2070   43.1080 N   0  0  0  0  0  0  0  0  0  0  0  0
   47.5360   33.7890   39.2760 C   0  0  0  0  0  0  0  0  0  0  0  0
   48.1570   34.1880   38.1560 C   0  0  0  0  0  0  0  0  0  0  0  0
   47.7580   34.0000   36.8730 C   0  0  0  0  0  0  0  0  0  0  0  0
   46.4610   33.2460   36.8390 C   0  0  0  0  0  0  0  0  0  0  0  0
   46.0750   32.9580   38.6940 S   0  0  0  0  0  0  0  0  0  0  0  0
   49.4835   30.6590   42.5604 H   0  0  0  0  0  0  0  0  0  0  0  0
   49.1061   28.7931   44.1233 H   0  0  0  0  0  0  0  0  0  0  0  0
   47.5972   29.0124   46.0575 H   0  0  0  0  0  0  0  0  0  0  0  0
   44.1743   30.9245   46.9908 H   0  0  0  0  0  0  0  0  0  0  0  0
   44.9647   29.4723   46.4254 H   0  0  0  0  0  0  0  0  0  0  0  0
   44.5127   29.9943   49.1451 H   0  0  0  0  0  0  0  0  0  0  0  0
   45.8665   28.9955   48.6477 H   0  0  0  0  0  0  0  0  0  0  0  0
   46.0301   31.5583   49.9156 H   0  0  0  0  0  0  0  0  0  0  0  0
   47.3904   30.7594   49.1700 H   0  0  0  0  0  0  0  0  0  0  0  0
   47.0721   32.8214   47.7943 H   0  0  0  0  0  0  0  0  0  0  0  0
   44.8147   33.1744   48.9318 H   0  0  0  0  0  0  0  0  0  0  0  0
   45.3077   33.9276   47.3774 H   0  0  0  0  0  0  0  0  0  0  0  0
   44.2234   32.4955   47.3774 H   0  0  0  0  0  0  0  0  0  0  0  0
   49.6854   36.1392   42.6647 H   0  0  0  0  0  0  0  0  0  0  0  0
   48.8747   36.0796   40.2806 H   0  0  0  0  0  0  0  0  0  0  0  0
   49.1026   34.7326   38.2943 H   0  0  0  0  0  0  0  0  0  0  0  0
   48.3061   34.3498   35.9857 H   0  0  0  0  0  0  0  0  0  0  0  0
   45.8743   32.9343   35.9623 H   0  0  0  0  0  0  0  0  0  0  0  0
  2  1  1  0
  2  7  2  0
  3  2  1  0
  4  3  2  0
  4  5  1  0
  5  6  2  0
  6  7  1  0
  7  8  1  0
  8  9  1  0
  8 12  1  0
  9 10  1  0
 10 11  1  0
 12 13  1  0
 12 11  1  0
 14 19  2  0
 15 14  1  0
 16 15  2  0
 16 17  1  0
 17 18  2  0
 18 19  1  0
 18  3  1  0
 20 16  1  0
 21 20  2  0
 22 21  1  0
 23 22  2  0
 23 24  1  0
 24 20  1  0
  4 25  1  0
  5 26  1  0
  6 27  1  0
  9 28  1  0
  9 29  1  0
 10 30  1  0
 10 31  1  0
 11 32  1  0
 11 33  1  0
 12 34  1  6
 13 35  1  0
 13 36  1  0
 13 37  1  0
 14 38  1  0
 15 39  1  0
 21 40  1  0
 22 41  1  0
 23 42  1  0
M  ISO  8  25  14  26  14  27  14  28  13  29  13  30  13  31  13  32  13
M  ISO  8  33  13  34  13  35   8  36   8  37   8  38  14  39  14  40  14
M  ISO  2  41  14  42  14
M  END
>  <minimizedAffinity>  (1) 
-5.53275061

>  <minimizedRMSD>  (1) 
0.804284573

$$$$
