
     RDKit          3D

 45 48  0  0  1  0  0  0  0  0999 V2000
   46.4630   33.1750   44.6320 C   0  0  0  0  0  0  0  0  0  0  0  0
   45.9330   32.3650   45.6650 N   0  0  0  0  0  0  0  0  0  0  0  0
   45.9810   32.8490   46.9770 C   0  0  0  0  0  0  0  0  0  0  0  0
   47.2710   32.4080   47.6910 C   0  0  0  0  0  0  0  0  0  0  0  0
   47.1680   30.9160   47.8700 C   0  0  0  0  0  0  0  0  0  0  0  0
   47.1040   30.3330   46.4700 C   0  0  0  0  0  0  0  0  0  0  0  0
   46.0630   30.9710   45.5880 C   0  0  2  0  0  0  0  0  0  0  0  0
   46.3560   30.5060   44.1660 C   0  0  0  0  0  0  0  0  0  0  0  0
   45.6940   35.4350   43.5420 C   0  0  1  0  0  0  0  0  0  0  0  0
   44.5990   34.8760   44.2050 C   0  0  0  0  0  0  0  0  0  0  0  0
   45.9060   34.5360   44.7950 C   0  0  1  0  0  0  0  0  0  0  0  0
   45.4580   34.2450   41.3590 C   0  0  0  0  0  0  0  0  0  0  0  0
   46.3160   34.9450   42.2700 C   0  0  0  0  0  0  0  0  0  0  0  0
   47.6290   35.1310   41.9670 C   0  0  0  0  0  0  0  0  0  0  0  0
   48.0840   34.6230   40.7690 N   0  0  0  0  0  0  0  0  0  0  0  0
   47.2570   33.9660   39.9250 C   0  0  0  0  0  0  0  0  0  0  0  0
   45.9300   33.7550   40.1850 N   0  0  0  0  0  0  0  0  0  0  0  0
   47.9700   33.5130   38.7050 C   0  0  0  0  0  0  0  0  0  0  0  0
   47.9880   34.0780   37.4640 C   0  0  0  0  0  0  0  0  0  0  0  0
   48.7160   33.4980   36.4670 C   0  0  0  0  0  0  0  0  0  0  0  0
   49.4150   32.3160   36.8110 C   0  0  0  0  0  0  0  0  0  0  0  0
   48.9520   32.1190   38.6370 S   0  0  0  0  0  0  0  0  0  0  0  0
   46.1750   32.7675   43.6517 H   0  0  0  0  0  0  0  0  0  0  0  0
   47.5613   33.1996   44.6877 H   0  0  0  0  0  0  0  0  0  0  0  0
   45.9420   33.9481   46.9547 H   0  0  0  0  0  0  0  0  0  0  0  0
   45.1223   32.4392   47.5289 H   0  0  0  0  0  0  0  0  0  0  0  0
   48.1497   32.6581   47.0783 H   0  0  0  0  0  0  0  0  0  0  0  0
   47.3866   32.9190   48.6582 H   0  0  0  0  0  0  0  0  0  0  0  0
   48.0500   30.5328   48.4042 H   0  0  0  0  0  0  0  0  0  0  0  0
   46.2837   30.6403   48.4633 H   0  0  0  0  0  0  0  0  0  0  0  0
   48.0875   30.4646   45.9952 H   0  0  0  0  0  0  0  0  0  0  0  0
   46.8243   29.2747   46.5783 H   0  0  0  0  0  0  0  0  0  0  0  0
   45.0789   30.6404   45.9518 H   0  0  0  0  0  0  0  0  0  0  0  0
   46.9422   29.5757   44.1979 H   0  0  0  0  0  0  0  0  0  0  0  0
   45.4087   30.3246   43.6370 H   0  0  0  0  0  0  0  0  0  0  0  0
   46.9285   31.2822   43.6370 H   0  0  0  0  0  0  0  0  0  0  0  0
   45.8776   36.4649   43.2021 H   0  0  0  0  0  0  0  0  0  0  0  0
   43.9178   35.5366   44.7614 H   0  0  0  0  0  0  0  0  0  0  0  0
   43.7565   34.2590   43.8592 H   0  0  0  0  0  0  0  0  0  0  0  0
   46.3898   34.6195   45.7793 H   0  0  0  0  0  0  0  0  0  0  0  0
   44.3981   34.1027   41.6165 H   0  0  0  0  0  0  0  0  0  0  0  0
   48.3024   35.6667   42.6522 H   0  0  0  0  0  0  0  0  0  0  0  0
   47.4176   34.9979   37.2678 H   0  0  0  0  0  0  0  0  0  0  0  0
   48.7576   33.9242   35.4538 H   0  0  0  0  0  0  0  0  0  0  0  0
   50.0571   31.6802   36.1838 H   0  0  0  0  0  0  0  0  0  0  0  0
  1 11  1  0
  1  2  1  0
  2  3  1  0
  3  4  1  0
  4  5  1  0
  6  5  1  0
  7  2  1  0
  7  6  1  0
  8  7  1  0
  9 10  1  0
  9 11  1  0
 10 11  1  0
 12 13  2  0
 13  9  1  0
 14 13  1  0
 15 14  2  0
 16 17  2  0
 16 15  1  0
 17 12  1  0
 18 16  1  0
 19 18  2  0
 20 21  2  0
 20 19  1  0
 21 22  1  0
 22 18  1  0
  1 23  1  0
  1 24  1  0
  3 25  1  0
  3 26  1  0
  4 27  1  0
  4 28  1  0
  5 29  1  0
  5 30  1  0
  6 31  1  0
  6 32  1  0
  7 33  1  1
  8 34  1  0
  8 35  1  0
  8 36  1  0
  9 37  1  1
 10 38  1  0
 10 39  1  0
 11 40  1  1
 12 41  1  0
 14 42  1  0
 19 43  1  0
 20 44  1  0
 21 45  1  0
M  ISO  8  23   8  24   8  25  13  26  13  27  13  28  13  29  13  30  13
M  ISO  8  31  13  32  13  33  13  34   8  35   8  36   8  37  13  38  13
M  ISO  7  39  13  40  13  41  14  42  14  43  14  44  14  45  14
M  END
>  <minimizedAffinity>  (1) 
-4.92579079

>  <minimizedRMSD>  (1) 
2.69786859

$$$$
