
     RDKit          3D

 37 40  0  0  0  0  0  0  0  0999 V2000
   45.5880   32.4140   40.4450 Cl  0  0  0  0  0  0  0  0  0  0  0  0
   46.8760   33.5470   40.1430 C   0  0  0  0  0  0  0  0  0  0  0  0
   47.4170   34.2740   41.1690 C   0  0  0  0  0  0  0  0  0  0  0  0
   48.4540   35.1900   40.9550 C   0  0  0  0  0  0  0  0  0  0  0  0
   48.8940   35.3160   39.6570 C   0  0  0  0  0  0  0  0  0  0  0  0
   48.3450   34.5820   38.6270 C   0  0  0  0  0  0  0  0  0  0  0  0
   47.3570   33.7120   38.8480 C   0  0  0  0  0  0  0  0  0  0  0  0
   46.8830   32.8800   44.5330 C   0  0  0  0  0  0  0  0  0  0  0  0
   45.9420   33.7810   45.0900 C   0  0  0  0  0  0  0  0  0  0  0  0
   45.5100   34.8500   44.2980 C   0  0  0  0  0  0  0  0  0  0  0  0
   46.0140   34.9720   43.0310 N   0  0  0  0  0  0  0  0  0  0  0  0
   46.9080   34.0970   42.5330 C   0  0  0  0  0  0  0  0  0  0  0  0
   47.3340   33.0600   43.2870 N   0  0  0  0  0  0  0  0  0  0  0  0
   44.5210   35.8670   44.7700 C   0  0  0  0  0  0  0  0  0  0  0  0
   44.9710   37.1320   44.5500 F   0  0  0  0  0  0  0  0  0  0  0  0
   43.3360   35.6880   44.0640 F   0  0  0  0  0  0  0  0  0  0  0  0
   44.3050   35.6170   46.1020 F   0  0  0  0  0  0  0  0  0  0  0  0
   46.7550   32.9180   37.7800 C   0  0  0  0  0  0  0  0  0  0  0  0
   45.5950   33.2580   37.1100 C   0  0  0  0  0  0  0  0  0  0  0  0
   45.2980   32.3100   36.1720 C   0  0  0  0  0  0  0  0  0  0  0  0
   46.3230   31.4090   36.3180 C   0  0  0  0  0  0  0  0  0  0  0  0
   47.1590   31.7910   37.2660 O   0  0  0  0  0  0  0  0  0  0  0  0
   46.7440   30.1230   35.6990 C   0  0  0  0  0  0  0  0  0  0  0  0
   47.7780   30.1990   34.8550 C   0  0  0  0  0  0  0  0  0  0  0  0
   48.3990   29.2310   34.1370 C   0  0  0  0  0  0  0  0  0  0  0  0
   47.6840   27.9690   34.4690 C   0  0  0  0  0  0  0  0  0  0  0  0
   46.3080   28.4760   35.7200 S   0  0  0  0  0  0  0  0  0  0  0  0
   48.8919   35.7753   41.7770 H   0  0  0  0  0  0  0  0  0  0  0  0
   49.7072   36.0227   39.4349 H   0  0  0  0  0  0  0  0  0  0  0  0
   48.7281   34.7158   37.6046 H   0  0  0  0  0  0  0  0  0  0  0  0
   47.2443   32.0285   45.1283 H   0  0  0  0  0  0  0  0  0  0  0  0
   45.5629   33.6441   46.1135 H   0  0  0  0  0  0  0  0  0  0  0  0
   44.9975   34.1610   37.3038 H   0  0  0  0  0  0  0  0  0  0  0  0
   44.4488   32.2771   35.4736 H   0  0  0  0  0  0  0  0  0  0  0  0
   48.1915   31.2096   34.7216 H   0  0  0  0  0  0  0  0  0  0  0  0
   49.2518   29.3529   33.4530 H   0  0  0  0  0  0  0  0  0  0  0  0
   47.8957   26.9611   34.0827 H   0  0  0  0  0  0  0  0  0  0  0  0
  2  1  1  0
  2  3  2  0
  3 12  1  0
  4  3  1  0
  5  4  2  0
  6  7  2  0
  6  5  1  0
  7  2  1  0
  8  9  2  0
 10 14  1  0
 10  9  1  0
 11 10  2  0
 12 11  1  0
 12 13  2  0
 13  8  1  0
 14 17  1  0
 15 14  1  0
 16 14  1  0
 18  7  1  0
 19 18  2  0
 20 21  2  0
 20 19  1  0
 21 22  1  0
 22 18  1  0
 23 27  1  0
 23 21  1  0
 24 23  2  0
 25 26  2  0
 25 24  1  0
 26 27  1  0
  4 28  1  0
  5 29  1  0
  6 30  1  0
  8 31  1  0
  9 32  1  0
 19 33  1  0
 20 34  1  0
 24 35  1  0
 25 36  1  0
 26 37  1  0
M  ISO  8  28  14  29  14  30  14  31  14  32  14  33  14  34  14  35  14
M  ISO  2  36  14  37  14
M  END
>  <minimizedAffinity>  (1) 
-5.64453268

>  <minimizedRMSD>  (1) 
0.592575073

$$$$
