
     RDKit          3D

 33 35  0  0  1  0  0  0  0  0999 V2000
   45.9340   33.4860   41.4430 C   0  0  2  0  0  0  0  0  0  0  0  0
   46.5480   34.3140   42.5000 C   0  0  0  0  0  0  0  0  0  0  0  0
   47.4440   35.3970   41.9800 C   0  0  0  0  0  0  0  0  0  0  0  0
   48.5180   34.8780   41.0530 C   0  0  0  0  0  0  0  0  0  0  0  0
   48.0410   33.7690   40.1350 C   0  0  0  0  0  0  0  0  0  0  0  0
   46.5280   33.7570   40.0720 C   0  0  1  0  0  0  0  0  0  0  0  0
   44.4780   33.6900   41.3430 C   0  0  0  0  0  0  0  0  0  0  0  0
   44.0570   35.0160   41.1320 C   0  0  0  0  0  0  0  0  0  0  0  0
   42.6930   35.3180   41.0290 C   0  0  0  0  0  0  0  0  0  0  0  0
   41.8300   34.2440   41.1480 N   0  0  0  0  0  0  0  0  0  0  0  0
   42.2640   32.9990   41.3490 C   0  0  0  0  0  0  0  0  0  0  0  0
   43.5840   32.7110   41.4480 N   0  0  0  0  0  0  0  0  0  0  0  0
   46.0040   32.9130   39.0240 C   0  0  0  0  0  0  0  0  0  0  0  0
   45.3510   33.1340   37.8780 C   0  0  0  0  0  0  0  0  0  0  0  0
   44.9540   32.1470   37.0570 C   0  0  0  0  0  0  0  0  0  0  0  0
   45.2780   30.8370   37.4900 C   0  0  0  0  0  0  0  0  0  0  0  0
   46.1760   31.0820   39.1260 S   0  0  0  0  0  0  0  0  0  0  0  0
   46.1477   32.4497   41.7438 H   0  0  0  0  0  0  0  0  0  0  0  0
   45.7425   34.7821   43.0849 H   0  0  0  0  0  0  0  0  0  0  0  0
   47.1757   33.6440   43.1059 H   0  0  0  0  0  0  0  0  0  0  0  0
   46.8303   36.1271   41.4320 H   0  0  0  0  0  0  0  0  0  0  0  0
   47.9474   35.8524   42.8456 H   0  0  0  0  0  0  0  0  0  0  0  0
   48.8762   35.7131   40.4331 H   0  0  0  0  0  0  0  0  0  0  0  0
   49.3137   34.4556   41.6842 H   0  0  0  0  0  0  0  0  0  0  0  0
   48.4454   33.9338   39.1254 H   0  0  0  0  0  0  0  0  0  0  0  0
   48.3917   32.8028   40.5268 H   0  0  0  0  0  0  0  0  0  0  0  0
   46.2006   34.7657   39.7798 H   0  0  0  0  0  0  0  0  0  0  0  0
   44.8031   35.8199   41.0475 H   0  0  0  0  0  0  0  0  0  0  0  0
   42.3315   36.3437   40.8640 H   0  0  0  0  0  0  0  0  0  0  0  0
   41.5304   32.1841   41.4368 H   0  0  0  0  0  0  0  0  0  0  0  0
   45.1283   34.1731   37.5939 H   0  0  0  0  0  0  0  0  0  0  0  0
   44.4166   32.3417   36.1172 H   0  0  0  0  0  0  0  0  0  0  0  0
   45.0542   29.8872   36.9823 H   0  0  0  0  0  0  0  0  0  0  0  0
  1  2  1  0
  3  2  1  0
  4  3  1  0
  5  4  1  0
  6  5  1  0
  6  1  1  0
  7  1  1  0
  7 12  1  0
  8  7  2  0
  9  8  1  0
  9 10  2  0
 10 11  1  0
 11 12  2  0
 13 17  1  0
 13  6  1  0
 14 13  2  0
 15 16  2  0
 15 14  1  0
 16 17  1  0
  1 18  1  1
  2 19  1  0
  2 20  1  0
  3 21  1  0
  3 22  1  0
  4 23  1  0
  4 24  1  0
  5 25  1  0
  5 26  1  0
  6 27  1  6
  8 28  1  0
  9 29  1  0
 11 30  1  0
 14 31  1  0
 15 32  1  0
 16 33  1  0
M  ISO  8  18  13  19  13  20  13  21  13  22  13  23  13  24  13  25  13
M  ISO  8  26  13  27  13  28  14  29  14  30  14  31  14  32  14  33  14
M  END
>  <minimizedAffinity>  (1) 
-3.90786767

>  <minimizedRMSD>  (1) 
6.6250062

$$$$
