
     RDKit          3D

 38 40  0  0  0  0  0  0  0  0999 V2000
   43.8300   35.0420   40.9790 S   0  0  0  0  0  0  0  0  0  0  0  0
   44.9820   34.5690   42.2690 C   0  0  0  0  0  0  0  0  0  0  0  0
   46.2580   34.1570   41.8550 C   0  0  0  0  0  0  0  0  0  0  0  0
   47.1700   33.7850   42.8310 C   0  0  0  0  0  0  0  0  0  0  0  0
   46.8050   33.8330   44.1210 N   0  0  0  0  0  0  0  0  0  0  0  0
   45.5650   34.2340   44.5160 C   0  0  0  0  0  0  0  0  0  0  0  0
   44.6880   34.5920   43.5710 N   0  0  0  0  0  0  0  0  0  0  0  0
   48.4430   33.3760   42.3930 C   0  0  0  0  0  0  0  0  0  0  0  0
   49.6530   33.8530   42.6970 C   0  0  0  0  0  0  0  0  0  0  0  0
   50.8350   33.4280   42.2520 C   0  0  0  0  0  0  0  0  0  0  0  0
   50.6850   32.2980   41.3260 C   0  0  0  0  0  0  0  0  0  0  0  0
   48.7790   32.0490   41.2660 S   0  0  0  0  0  0  0  0  0  0  0  0
   45.2890   34.2440   45.9280 C   0  0  0  0  0  0  0  0  0  0  0  0
   44.3970   35.0250   46.3420 O   0  0  0  0  0  0  0  0  0  0  0  0
   46.0470   33.3630   46.7600 N   0  0  0  0  0  0  0  0  0  0  0  0
   42.1200   34.9190   41.4860 C   0  0  0  0  0  0  0  0  0  0  0  0
   41.2170   35.8930   40.8040 C   0  0  0  0  0  0  0  0  0  0  0  0
   42.0300   36.0990   37.8870 Cl  0  0  0  0  0  0  0  0  0  0  0  0
   40.6330   35.2350   38.4490 C   0  0  0  0  0  0  0  0  0  0  0  0
   40.3500   35.2040   39.8160 C   0  0  0  0  0  0  0  0  0  0  0  0
   39.2280   34.5010   40.1820 C   0  0  0  0  0  0  0  0  0  0  0  0
   38.3530   33.8240   39.3340 C   0  0  0  0  0  0  0  0  0  0  0  0
   38.6720   33.8810   37.9890 C   0  0  0  0  0  0  0  0  0  0  0  0
   37.6210   33.0520   36.8420 Cl  0  0  0  0  0  0  0  0  0  0  0  0
   39.7840   34.5720   37.5700 C   0  0  0  0  0  0  0  0  0  0  0  0
   46.5265   34.1300   40.7886 H   0  0  0  0  0  0  0  0  0  0  0  0
   49.6767   34.6990   43.3997 H   0  0  0  0  0  0  0  0  0  0  0  0
   51.8008   33.8678   42.5416 H   0  0  0  0  0  0  0  0  0  0  0  0
   51.4682   31.7342   40.7980 H   0  0  0  0  0  0  0  0  0  0  0  0
   45.8782   33.3416   47.7758 H   0  0  0  0  0  0  0  0  0  0  0  0
   46.7621   32.7496   46.3437 H   0  0  0  0  0  0  0  0  0  0  0  0
   41.7646   33.9021   41.2632 H   0  0  0  0  0  0  0  0  0  0  0  0
   42.0874   35.1507   42.5608 H   0  0  0  0  0  0  0  0  0  0  0  0
   40.5846   36.3867   41.5566 H   0  0  0  0  0  0  0  0  0  0  0  0
   41.8332   36.6354   40.2757 H   0  0  0  0  0  0  0  0  0  0  0  0
   38.9957   34.4690   41.2567 H   0  0  0  0  0  0  0  0  0  0  0  0
   37.4713   33.2828   39.7077 H   0  0  0  0  0  0  0  0  0  0  0  0
   40.0117   34.6016   36.4942 H   0  0  0  0  0  0  0  0  0  0  0  0
  1 16  1  0
  1  2  1  0
  2  7  1  0
  3  2  2  0
  3  4  1  0
  4  5  2  0
  5  6  1  0
  6 13  1  0
  7  6  2  0
  8  9  2  0
  8  4  1  0
 10  9  1  0
 11 10  2  0
 12 11  1  0
 12  8  1  0
 13 14  2  0
 13 15  1  0
 17 16  1  0
 18 19  1  0
 19 20  2  0
 20 21  1  0
 20 17  1  0
 22 21  2  0
 23 22  1  0
 24 23  1  0
 25 23  2  0
 25 19  1  0
  3 26  1  0
  9 27  1  0
 10 28  1  0
 11 29  1  0
 15 30  1  0
 15 31  1  0
 16 32  1  0
 16 33  1  0
 17 34  1  0
 17 35  1  0
 21 36  1  0
 22 37  1  0
 25 38  1  0
M  ISO  8  26  14  27  14  28  14  29  14  32   8  33   8  34   8  35   8
M  ISO  3  36  14  37  14  38  14
M  END
>  <minimizedAffinity>  (1) 
-6.9049592

>  <minimizedRMSD>  (1) 
0.662044644

$$$$
