
     RDKit          3D

 25 26  0  0  0  0  0  0  0  0999 V2000
   45.6650   30.6580   47.6850 O   0  0  0  0  0  0  0  0  0  0  0  0
   45.9640   32.0100   48.3880 P   0  0  2  0  0  0  0  0  0  0  0  0
   45.3520   31.8400   49.9430 O   0  0  0  0  0  0  0  0  0  0  0  0
   45.1300   33.2140   47.5530 O   0  0  0  0  0  0  0  0  0  0  0  0
   46.9710   33.2610   44.4200 C   0  0  0  0  0  0  0  0  0  0  0  0
   46.5470   32.8960   45.7130 C   0  0  0  0  0  0  0  0  0  0  0  0
   45.5160   33.6020   46.2880 C   0  0  0  0  0  0  0  0  0  0  0  0
   44.9660   34.6090   45.5760 N   0  0  0  0  0  0  0  0  0  0  0  0
   45.3620   34.9600   44.3510 C   0  0  0  0  0  0  0  0  0  0  0  0
   46.3680   34.2880   43.7660 N   0  0  0  0  0  0  0  0  0  0  0  0
   47.5980   32.2590   48.3710 O   0  0  0  0  0  0  0  0  0  0  0  0
   48.6330   31.5890   48.8820 C   0  0  0  0  0  0  0  0  0  0  0  0
   49.5890   32.3440   49.3580 O   0  0  0  0  0  0  0  0  0  0  0  0
   49.2370   30.1480   49.1720 C   0  0  0  0  0  0  0  0  0  0  0  0
   49.1880   29.0750   48.4220 C   0  0  0  0  0  0  0  0  0  0  0  0
   49.7580   27.9310   48.7890 C   0  0  0  0  0  0  0  0  0  0  0  0
   50.4190   28.0250   50.0850 C   0  0  0  0  0  0  0  0  0  0  0  0
   50.0690   29.8570   50.5510 S   0  0  0  0  0  0  0  0  0  0  0  0
   46.0643   32.0379   50.6014 H   0  0  0  0  0  0  0  0  0  0  0  0
   47.7936   32.7123   43.9380 H   0  0  0  0  0  0  0  0  0  0  0  0
   47.0291   32.0659   46.2501 H   0  0  0  0  0  0  0  0  0  0  0  0
   44.8697   35.7914   43.8251 H   0  0  0  0  0  0  0  0  0  0  0  0
   48.6589   29.1218   47.4587 H   0  0  0  0  0  0  0  0  0  0  0  0
   49.7335   27.0144   48.1814 H   0  0  0  0  0  0  0  0  0  0  0  0
   50.9697   27.2551   50.6453 H   0  0  0  0  0  0  0  0  0  0  0  0
  2  1  2  0
  2  3  1  0
  4  2  1  0
  5  6  2  0
  6  7  1  0
  7  4  1  0
  8  7  2  0
  9  8  1  0
 10  9  2  0
 10  5  1  0
 11  2  1  0
 11 12  1  0
 12 14  1  0
 12 13  2  0
 14 18  1  0
 15 16  1  0
 15 14  2  0
 16 17  2  0
 17 18  1  0
  3 19  1  0
  5 20  1  0
  6 21  1  0
  9 22  1  0
 15 23  1  0
 16 24  1  0
 17 25  1  0
M  ISO  7  19   3  20  14  21  14  22  14  23  14  24  14  25  14
M  END
>  <minimizedAffinity>  (1) 
-4.75266075

>  <minimizedRMSD>  (1) 
0.880571961

$$$$
