
     RDKit          3D

 40 42  0  0  1  0  0  0  0  0999 V2000
   45.6960   34.3500   42.3750 C   0  0  0  0  0  0  0  0  0  0  0  0
   46.7190   35.1700   41.8100 C   0  0  0  0  0  0  0  0  0  0  0  0
   48.0290   34.9120   42.2460 C   0  0  0  0  0  0  0  0  0  0  0  0
   48.2140   33.9310   43.1440 N   0  0  0  0  0  0  0  0  0  0  0  0
   47.2080   33.1790   43.6500 C   0  0  0  0  0  0  0  0  0  0  0  0
   45.9390   33.4010   43.2530 N   0  0  0  0  0  0  0  0  0  0  0  0
   44.0860   34.0440   40.6950 C   0  0  0  0  0  0  0  0  0  0  0  0
   45.0520   33.5250   40.0410 O   0  0  0  0  0  0  0  0  0  0  0  0
   44.3370   34.5600   41.9730 N   0  0  0  0  0  0  0  0  0  0  0  0
   42.8140   34.0580   40.0690 N   0  0  0  0  0  0  0  0  0  0  0  0
   42.7140   33.7950   38.6200 C   0  0  0  0  0  0  0  0  0  0  0  0
   41.5270   34.6170   38.2290 C   0  0  0  0  0  0  0  0  0  0  0  0
   40.9800   35.1960   39.5020 C   0  0  0  0  0  0  0  0  0  0  0  0
   41.4900   34.2690   40.5790 C   0  0  1  0  0  0  0  0  0  0  0  0
   39.3820   32.8490   40.9610 C   0  0  0  0  0  0  0  0  0  0  0  0
   38.8000   33.9430   40.8180 O   0  0  0  0  0  0  0  0  0  0  0  0
   40.7970   32.9920   40.6730 N   0  0  0  0  0  0  0  0  0  0  0  0
   39.0030   31.5750   41.3190 C   0  0  0  0  0  0  0  0  0  0  0  0
   37.6150   30.9920   41.0830 C   0  0  0  0  0  0  0  0  0  0  0  0
   37.4260   29.7180   41.5040 C   0  0  0  0  0  0  0  0  0  0  0  0
   38.4480   28.9550   42.1310 C   0  0  0  0  0  0  0  0  0  0  0  0
   39.8710   30.1140   42.1610 S   0  0  0  0  0  0  0  0  0  0  0  0
   49.0540   35.7620   41.6560 C   0  0  0  0  0  0  0  0  0  0  0  0
   50.3010   35.3000   42.0640 F   0  0  0  0  0  0  0  0  0  0  0  0
   48.9270   37.0250   42.2340 F   0  0  0  0  0  0  0  0  0  0  0  0
   49.0270   35.7970   40.2870 F   0  0  0  0  0  0  0  0  0  0  0  0
   46.4944   35.9579   41.0760 H   0  0  0  0  0  0  0  0  0  0  0  0
   47.4258   32.3887   44.3834 H   0  0  0  0  0  0  0  0  0  0  0  0
   43.6299   35.0332   42.5535 H   0  0  0  0  0  0  0  0  0  0  0  0
   43.6199   34.1265   38.0913 H   0  0  0  0  0  0  0  0  0  0  0  0
   42.6127   32.7282   38.3715 H   0  0  0  0  0  0  0  0  0  0  0  0
   41.8299   35.4220   37.5433 H   0  0  0  0  0  0  0  0  0  0  0  0
   40.7724   34.0088   37.7088 H   0  0  0  0  0  0  0  0  0  0  0  0
   41.3541   36.2186   39.6580 H   0  0  0  0  0  0  0  0  0  0  0  0
   39.8825   35.2697   39.4942 H   0  0  0  0  0  0  0  0  0  0  0  0
   41.3798   34.6828   41.5922 H   0  0  0  0  0  0  0  0  0  0  0  0
   41.3472   32.1339   40.5254 H   0  0  0  0  0  0  0  0  0  0  0  0
   36.8142   31.5709   40.5997 H   0  0  0  0  0  0  0  0  0  0  0  0
   36.4397   29.2547   41.3541 H   0  0  0  0  0  0  0  0  0  0  0  0
   38.3984   27.9223   42.5065 H   0  0  0  0  0  0  0  0  0  0  0  0
  1  6  2  0
  2  3  2  0
  2  1  1  0
  3  4  1  0
  4  5  2  0
  6  5  1  0
  7  9  1  0
  8  7  2  0
  9  1  1  0
 10 14  1  0
 10  7  1  0
 11 10  1  0
 12 11  1  0
 12 13  1  0
 13 14  1  0
 14 17  1  0
 15 18  1  0
 16 15  2  0
 17 15  1  0
 18 22  1  0
 19 18  2  0
 19 20  1  0
 20 21  2  0
 21 22  1  0
 23 24  1  0
 23 25  1  0
 23  3  1  0
 26 23  1  0
  2 27  1  0
  5 28  1  0
  9 29  1  0
 11 30  1  0
 11 31  1  0
 12 32  1  0
 12 33  1  0
 13 34  1  0
 13 35  1  0
 14 36  1  1
 17 37  1  0
 19 38  1  0
 20 39  1  0
 21 40  1  0
M  ISO  8  27  14  28  14  30  13  31  13  32  13  33  13  34  13  35  13
M  ISO  4  36  13  38  14  39  14  40  14
M  END
>  <minimizedAffinity>  (1) 
-6.66999054

>  <minimizedRMSD>  (1) 
0.870847821

$$$$
