
     RDKit          3D

 27 29  0  0  0  0  0  0  0  0999 V2000
   45.8590   34.2470   41.0440 C   0  0  0  0  0  0  0  0  0  0  0  0
   46.4850   34.8050   42.1590 C   0  0  0  0  0  0  0  0  0  0  0  0
   47.8450   35.0780   42.0390 C   0  0  0  0  0  0  0  0  0  0  0  0
   48.4700   34.7890   40.8540 N   0  0  0  0  0  0  0  0  0  0  0  0
   47.8340   34.2560   39.8170 C   0  0  0  0  0  0  0  0  0  0  0  0
   46.5140   33.9800   39.9040 N   0  0  0  0  0  0  0  0  0  0  0  0
   45.7180   35.0660   43.3620 C   0  0  0  0  0  0  0  0  0  0  0  0
   45.1230   36.2940   43.6210 C   0  0  0  0  0  0  0  0  0  0  0  0
   44.5130   36.0830   44.8520 C   0  0  0  0  0  0  0  0  0  0  0  0
   44.7280   34.8150   45.2980 N   0  0  0  0  0  0  0  0  0  0  0  0
   45.4560   34.2250   44.3800 N   0  0  0  0  0  0  0  0  0  0  0  0
   44.5130   33.9620   41.1250 O   0  0  0  0  0  0  0  0  0  0  0  0
   43.4740   34.7290   40.6810 C   0  0  0  0  0  0  0  0  0  0  0  0
   43.2050   35.9390   40.9960 O   0  0  0  0  0  0  0  0  0  0  0  0
   42.4220   34.2310   39.6900 C   0  0  0  0  0  0  0  0  0  0  0  0
   41.5350   34.9160   38.9630 C   0  0  0  0  0  0  0  0  0  0  0  0
   40.6780   34.2740   38.1310 C   0  0  0  0  0  0  0  0  0  0  0  0
   40.8120   32.8440   38.1040 C   0  0  0  0  0  0  0  0  0  0  0  0
   42.2130   32.5530   39.3310 S   0  0  0  0  0  0  0  0  0  0  0  0
   48.4060   35.5164   42.8775 H   0  0  0  0  0  0  0  0  0  0  0  0
   48.3814   34.0393   38.8878 H   0  0  0  0  0  0  0  0  0  0  0  0
   45.1322   37.2057   43.0057 H   0  0  0  0  0  0  0  0  0  0  0  0
   43.9317   36.8424   45.3955 H   0  0  0  0  0  0  0  0  0  0  0  0
   44.3879   34.4023   46.1783 H   0  0  0  0  0  0  0  0  0  0  0  0
   41.4994   36.0127   39.0401 H   0  0  0  0  0  0  0  0  0  0  0  0
   39.9348   34.8089   37.5215 H   0  0  0  0  0  0  0  0  0  0  0  0
   40.2429   32.1076   37.5176 H   0  0  0  0  0  0  0  0  0  0  0  0
  1 12  1  0
  1  2  1  0
  2  7  1  0
  3  2  2  0
  4  3  1  0
  5  6  1  0
  5  4  2  0
  6  1  2  0
  7  8  1  0
  7 11  2  0
  8  9  2  0
  9 10  1  0
 11 10  1  0
 13 14  2  0
 13 12  1  0
 15 13  1  0
 16 15  2  0
 17 16  1  0
 18 17  2  0
 18 19  1  0
 19 15  1  0
  3 20  1  0
  5 21  1  0
  8 22  1  0
  9 23  1  0
 10 24  1  0
 16 25  1  0
 17 26  1  0
 18 27  1  0
M  ISO  8  20  14  21  14  22  14  23  14  24   9  25  14  26  14  27  14
M  END
>  <minimizedAffinity>  (1) 
-5.21708202

>  <minimizedRMSD>  (1) 
0.775799692

$$$$
