
     RDKit          3D

 19 20  0  0  0  0  0  0  0  0999 V2000
   44.6400   35.9360   44.4000 C   0  0  0  0  0  0  0  0  0  0  0  0
   45.4270   35.7470   43.2570 C   0  0  0  0  0  0  0  0  0  0  0  0
   46.2980   34.6430   43.2710 C   0  0  0  0  0  0  0  0  0  0  0  0
   46.3410   33.8200   44.3720 N   0  0  0  0  0  0  0  0  0  0  0  0
   45.5610   34.0590   45.4310 C   0  0  0  0  0  0  0  0  0  0  0  0
   44.7150   35.1040   45.4560 N   0  0  0  0  0  0  0  0  0  0  0  0
   45.5560   33.2350   46.6200 C   0  0  0  0  0  0  0  0  0  0  0  0
   44.8400   33.4080   47.6280 O   0  0  0  0  0  0  0  0  0  0  0  0
   46.4130   32.0800   46.7680 C   0  0  0  0  0  0  0  0  0  0  0  0
   46.6210   30.9250   46.1060 C   0  0  0  0  0  0  0  0  0  0  0  0
   47.5610   30.0600   46.5910 C   0  0  0  0  0  0  0  0  0  0  0  0
   48.2500   30.3760   47.7050 C   0  0  0  0  0  0  0  0  0  0  0  0
   47.6240   32.0100   48.2280 S   0  0  0  0  0  0  0  0  0  0  0  0
   43.9427   36.7860   44.4359 H   0  0  0  0  0  0  0  0  0  0  0  0
   45.3670   36.4263   42.3939 H   0  0  0  0  0  0  0  0  0  0  0  0
   46.9431   34.4383   42.4038 H   0  0  0  0  0  0  0  0  0  0  0  0
   46.0485   30.6845   45.1980 H   0  0  0  0  0  0  0  0  0  0  0  0
   47.7546   29.1087   46.0737 H   0  0  0  0  0  0  0  0  0  0  0  0
   49.0283   29.7744   48.1974 H   0  0  0  0  0  0  0  0  0  0  0  0
  1  6  2  0
  2  3  2  0
  2  1  1  0
  3  4  1  0
  4  5  2  0
  5  6  1  0
  5  7  1  0
  7  9  1  0
  7  8  2  0
  9 13  1  0
 10 11  1  0
 10  9  2  0
 11 12  2  0
 12 13  1  0
  1 14  1  0
  2 15  1  0
  3 16  1  0
 10 17  1  0
 11 18  1  0
 12 19  1  0
M  ISO  6  14  14  15  14  16  14  17  14  18  14  19  14
M  END
>  <minimizedAffinity>  (1) 
-4.09855175

>  <minimizedRMSD>  (1) 
0.732581794

$$$$
