
     RDKit          3D

 41 44  0  0  1  0  0  0  0  0999 V2000
   44.2220   34.3650   41.5340 C   0  0  0  0  0  0  0  0  0  0  0  0
   45.0960   34.2520   40.6160 O   0  0  0  0  0  0  0  0  0  0  0  0
   42.0170   33.2960   41.1100 C   0  0  0  0  0  0  0  0  0  0  0  0
   42.7750   34.4160   41.3070 C   0  0  0  0  0  0  0  0  0  0  0  0
   42.1250   35.6650   41.2880 C   0  0  0  0  0  0  0  0  0  0  0  0
   40.7800   35.8170   41.0840 C   0  0  0  0  0  0  0  0  0  0  0  0
   40.0210   34.6920   40.8870 C   0  0  0  0  0  0  0  0  0  0  0  0
   40.6410   33.4770   40.9040 C   0  0  0  0  0  0  0  0  0  0  0  0
   42.6980   31.7320   41.1880 S   0  0  0  0  0  0  0  0  0  0  0  0
   41.5490   30.9150   40.5090 O   0  0  0  0  0  0  0  0  0  0  0  0
   42.7960   31.2440   42.5880 O   0  0  0  0  0  0  0  0  0  0  0  0
   43.7440   31.0220   40.1670 C   0  0  0  0  0  0  0  0  0  0  0  0
   44.7960   30.0580   40.0080 C   0  0  0  0  0  0  0  0  0  0  0  0
   45.3850   29.8900   38.8350 C   0  0  0  0  0  0  0  0  0  0  0  0
   45.0210   30.6250   37.7330 C   0  0  0  0  0  0  0  0  0  0  0  0
   43.7310   31.6670   38.3470 S   0  0  0  0  0  0  0  0  0  0  0  0
   44.5720   34.4570   42.9260 C   0  0  0  0  0  0  0  0  0  0  0  0
   44.3000   35.7190   43.5570 C   0  0  0  0  0  0  0  0  0  0  0  0
   44.6290   35.8220   44.8970 C   0  0  0  0  0  0  0  0  0  0  0  0
   45.1770   34.7460   45.5220 N   0  0  0  0  0  0  0  0  0  0  0  0
   45.4160   33.5630   44.8710 C   0  0  0  0  0  0  0  0  0  0  0  0
   45.1140   33.4610   43.6260 N   0  0  0  0  0  0  0  0  0  0  0  0
   46.0090   32.4470   45.6290 C   0  0  1  0  0  0  0  0  0  0  0  0
   46.9660   32.7490   46.7590 C   0  0  0  0  0  0  0  0  0  0  0  0
   45.5440   32.3450   47.0390 C   0  0  1  0  0  0  0  0  0  0  0  0
   44.7650   33.4090   47.6290 N   0  0  0  0  0  0  0  0  0  0  0  0
   42.7318   36.5688   41.4459 H   0  0  0  0  0  0  0  0  0  0  0  0
   40.3197   36.8161   41.0782 H   0  0  0  0  0  0  0  0  0  0  0  0
   38.9365   34.7676   40.7190 H   0  0  0  0  0  0  0  0  0  0  0  0
   40.0222   32.5814   40.7460 H   0  0  0  0  0  0  0  0  0  0  0  0
   45.1155   29.4533   40.8695 H   0  0  0  0  0  0  0  0  0  0  0  0
   46.1866   29.1427   38.7399 H   0  0  0  0  0  0  0  0  0  0  0  0
   45.4328   30.5769   36.7141 H   0  0  0  0  0  0  0  0  0  0  0  0
   43.8538   36.5587   43.0040 H   0  0  0  0  0  0  0  0  0  0  0  0
   44.4504   36.7578   45.4469 H   0  0  0  0  0  0  0  0  0  0  0  0
   46.0697   31.7866   44.7514 H   0  0  0  0  0  0  0  0  0  0  0  0
   47.7912   32.0573   46.9837 H   0  0  0  0  0  0  0  0  0  0  0  0
   47.6074   33.5987   47.0357 H   0  0  0  0  0  0  0  0  0  0  0  0
   45.0106   31.5478   47.5775 H   0  0  0  0  0  0  0  0  0  0  0  0
   44.8142   33.3419   48.6556 H   0  0  0  0  0  0  0  0  0  0  0  0
   45.1413   34.3187   47.3260 H   0  0  0  0  0  0  0  0  0  0  0  0
  1 17  1  0
  2  1  2  0
  3  9  1  0
  3  4  1  0
  4  1  1  0
  5  4  2  0
  6  5  1  0
  7  8  1  0
  7  6  2  0
  8  3  2  0
  9 11  2  0
 10  9  2  0
 12  9  1  0
 13 12  2  0
 14 13  1  0
 15 16  1  0
 15 14  2  0
 16 12  1  0
 17 18  2  0
 17 22  1  0
 18 19  1  0
 19 20  2  0
 21 20  1  0
 21 23  1  0
 22 21  2  0
 23 24  1  0
 23 25  1  0
 24 25  1  0
 25 26  1  0
  5 27  1  0
  6 28  1  0
  7 29  1  0
  8 30  1  0
 13 31  1  0
 14 32  1  0
 15 33  1  0
 18 34  1  0
 19 35  1  0
 23 36  1  6
 24 37  1  0
 24 38  1  0
 25 39  1  1
 26 40  1  0
 26 41  1  0
M  ISO  8  27  14  28  14  29  14  30  14  31  14  32  14  33  14  34  14
M  ISO  7  35  14  36  13  37  13  38  13  39  13  40   5  41   5
M  END
>  <minimizedAffinity>  (1) 
-5.75647926

>  <minimizedRMSD>  (1) 
1.24288845

$$$$
