
     RDKit          3D

 50 54  0  0  1  0  0  0  0  0999 V2000
   42.6860   33.2210   41.1240 C   0  0  0  0  0  0  0  0  0  0  0  0
   43.2840   34.4070   41.4280 C   0  0  0  0  0  0  0  0  0  0  0  0
   42.5230   35.5870   41.3510 C   0  0  0  0  0  0  0  0  0  0  0  0
   41.2020   35.6020   40.9840 C   0  0  0  0  0  0  0  0  0  0  0  0
   40.5970   34.4110   40.6780 C   0  0  0  0  0  0  0  0  0  0  0  0
   41.3360   33.2710   40.7530 C   0  0  0  0  0  0  0  0  0  0  0  0
   43.4460   31.7280   41.2960 S   0  0  0  0  0  0  0  0  0  0  0  0
   42.5010   30.8610   40.3980 O   0  0  0  0  0  0  0  0  0  0  0  0
   43.3250   31.1560   42.6460 O   0  0  0  0  0  0  0  0  0  0  0  0
   44.7310   31.0630   40.4150 C   0  0  0  0  0  0  0  0  0  0  0  0
   45.6500   30.0410   40.7620 C   0  0  0  0  0  0  0  0  0  0  0  0
   46.7640   29.5250   40.1240 C   0  0  0  0  0  0  0  0  0  0  0  0
   46.9420   30.1770   38.9550 C   0  0  0  0  0  0  0  0  0  0  0  0
   46.1510   31.1880   38.4680 C   0  0  0  0  0  0  0  0  0  0  0  0
   46.5590   31.6930   37.2300 C   0  0  0  0  0  0  0  0  0  0  0  0
   45.8370   32.7090   36.6500 C   0  0  0  0  0  0  0  0  0  0  0  0
   44.7320   33.1870   37.3180 C   0  0  0  0  0  0  0  0  0  0  0  0
   44.4060   32.6310   38.5290 C   0  0  0  0  0  0  0  0  0  0  0  0
   45.0680   31.6190   39.1850 C   0  0  0  0  0  0  0  0  0  0  0  0
   44.6880   34.4900   41.8240 C   0  0  0  0  0  0  0  0  0  0  0  0
   45.6600   34.5770   41.0150 O   0  0  0  0  0  0  0  0  0  0  0  0
   44.8780   34.4690   43.2490 C   0  0  0  0  0  0  0  0  0  0  0  0
   44.4170   35.6330   43.9590 C   0  0  0  0  0  0  0  0  0  0  0  0
   44.5730   35.6300   45.3360 C   0  0  0  0  0  0  0  0  0  0  0  0
   45.1420   34.5430   45.9210 N   0  0  0  0  0  0  0  0  0  0  0  0
   45.5620   33.4590   45.1940 C   0  0  0  0  0  0  0  0  0  0  0  0
   45.4220   33.4570   43.9160 N   0  0  0  0  0  0  0  0  0  0  0  0
   46.1590   32.3120   45.9180 C   0  0  1  0  0  0  0  0  0  0  0  0
   47.0400   32.5780   47.1180 C   0  0  0  0  0  0  0  0  0  0  0  0
   45.6350   32.0940   47.2850 C   0  0  1  0  0  0  0  0  0  0  0  0
   44.7810   33.1020   47.9050 N   0  0  0  0  0  0  0  0  0  0  0  0
   43.0101   36.5422   41.5966 H   0  0  0  0  0  0  0  0  0  0  0  0
   40.6413   36.5472   40.9363 H   0  0  0  0  0  0  0  0  0  0  0  0
   39.5390   34.3775   40.3788 H   0  0  0  0  0  0  0  0  0  0  0  0
   40.8384   32.3219   40.5049 H   0  0  0  0  0  0  0  0  0  0  0  0
   45.4350   29.5640   41.7296 H   0  0  0  0  0  0  0  0  0  0  0  0
   47.4016   28.7146   40.5071 H   0  0  0  0  0  0  0  0  0  0  0  0
   47.7985   29.8703   38.3367 H   0  0  0  0  0  0  0  0  0  0  0  0
   47.4466   31.2826   36.7263 H   0  0  0  0  0  0  0  0  0  0  0  0
   46.1343   33.1290   35.6778 H   0  0  0  0  0  0  0  0  0  0  0  0
   44.1237   33.9973   36.8898 H   0  0  0  0  0  0  0  0  0  0  0  0
   43.5167   33.0396   39.0312 H   0  0  0  0  0  0  0  0  0  0  0  0
   43.9620   36.4853   43.4331 H   0  0  0  0  0  0  0  0  0  0  0  0
   44.2440   36.4874   45.9415 H   0  0  0  0  0  0  0  0  0  0  0  0
   46.2887   31.7146   45.0035 H   0  0  0  0  0  0  0  0  0  0  0  0
   47.8850   31.9105   47.3423 H   0  0  0  0  0  0  0  0  0  0  0  0
   47.6234   33.4341   47.4878 H   0  0  0  0  0  0  0  0  0  0  0  0
   45.1125   31.2371   47.7353 H   0  0  0  0  0  0  0  0  0  0  0  0
   44.8468   33.0244   48.9300 H   0  0  0  0  0  0  0  0  0  0  0  0
   45.0884   34.0402   47.6113 H   0  0  0  0  0  0  0  0  0  0  0  0
  1  7  1  0
  1  2  1  0
  2 20  1  0
  3  2  2  0
  4  3  1  0
  5  6  1  0
  5  4  2  0
  6  1  2  0
  7  9  2  0
  8  7  2  0
 10 11  2  0
 10  7  1  0
 12 11  1  0
 13 12  2  0
 14 13  1  0
 14 19  2  0
 15 14  1  0
 16 15  2  0
 16 17  1  0
 17 18  2  0
 18 19  1  0
 19 10  1  0
 20 22  1  0
 21 20  2  0
 22 27  1  0
 22 23  2  0
 23 24  1  0
 24 25  2  0
 26 28  1  0
 26 25  1  0
 27 26  2  0
 28 29  1  0
 28 30  1  0
 29 30  1  0
 30 31  1  0
  3 32  1  0
  4 33  1  0
  5 34  1  0
  6 35  1  0
 11 36  1  0
 12 37  1  0
 13 38  1  0
 15 39  1  0
 16 40  1  0
 17 41  1  0
 18 42  1  0
 23 43  1  0
 24 44  1  0
 28 45  1  6
 29 46  1  0
 29 47  1  0
 30 48  1  6
 31 49  1  0
 31 50  1  0
M  ISO  8  32  14  33  14  34  14  35  14  36  14  37  14  38  14  39  14
M  ISO  8  40  14  41  14  42  14  43  14  44  14  45  13  46  13  47  13
M  ISO  3  48  13  49   5  50   5
M  END
>  <minimizedAffinity>  (1) 
-6.15376472

>  <minimizedRMSD>  (1) 
1.62163019

$$$$
