
     RDKit          3D

 37 39  0  0  0  0  0  0  0  0999 V2000
   47.9390   32.6170   41.3450 O   0  0  0  0  0  0  0  0  0  0  0  0
   46.8720   33.7380   41.2320 P   0  0  2  0  0  0  0  0  0  0  0  0
   45.4900   33.2700   42.1380 O   0  0  0  0  0  0  0  0  0  0  0  0
   44.3950   35.8260   44.4900 C   0  0  0  0  0  0  0  0  0  0  0  0
   44.6420   35.1520   43.2710 C   0  0  0  0  0  0  0  0  0  0  0  0
   45.2630   33.8960   43.3440 C   0  0  0  0  0  0  0  0  0  0  0  0
   45.5860   33.4040   44.5550 N   0  0  0  0  0  0  0  0  0  0  0  0
   45.3370   34.0720   45.7030 C   0  0  0  0  0  0  0  0  0  0  0  0
   44.7450   35.2770   45.6820 N   0  0  0  0  0  0  0  0  0  0  0  0
   46.4330   33.9090   39.6410 O   0  0  0  0  0  0  0  0  0  0  0  0
   45.5330   33.2120   38.9010 C   0  0  0  0  0  0  0  0  0  0  0  0
   46.0150   32.4540   37.8850 O   0  0  0  0  0  0  0  0  0  0  0  0
   44.1010   32.8810   38.7150 C   0  0  0  0  0  0  0  0  0  0  0  0
   43.7190   31.7990   37.8890 C   0  0  0  0  0  0  0  0  0  0  0  0
   42.4960   31.3800   37.4370 C   0  0  0  0  0  0  0  0  0  0  0  0
   41.5000   32.2010   37.9070 C   0  0  0  0  0  0  0  0  0  0  0  0
   41.7780   33.2740   38.7170 C   0  0  0  0  0  0  0  0  0  0  0  0
   40.7560   34.0570   39.2090 C   0  0  0  0  0  0  0  0  0  0  0  0
   40.8650   35.1370   40.0600 C   0  0  0  0  0  0  0  0  0  0  0  0
   42.1800   35.4360   40.4420 C   0  0  0  0  0  0  0  0  0  0  0  0
   43.2180   34.6740   39.9670 C   0  0  0  0  0  0  0  0  0  0  0  0
   43.0670   33.6130   39.1210 C   0  0  0  0  0  0  0  0  0  0  0  0
   47.5270   35.0950   41.9220 O   0  0  0  0  0  0  0  0  0  0  0  0
   48.7640   35.4210   41.3840 C   0  0  0  0  0  0  0  0  0  0  0  0
   49.1650   36.7020   41.7170 F   0  0  0  0  0  0  0  0  0  0  0  0
   49.6870   34.4770   41.7010 F   0  0  0  0  0  0  0  0  0  0  0  0
   48.5980   35.4130   40.0010 F   0  0  0  0  0  0  0  0  0  0  0  0
   43.9103   36.8133   44.4721 H   0  0  0  0  0  0  0  0  0  0  0  0
   44.3586   35.5948   42.3048 H   0  0  0  0  0  0  0  0  0  0  0  0
   45.6226   33.6234   46.6659 H   0  0  0  0  0  0  0  0  0  0  0  0
   44.5601   31.1787   37.5457 H   0  0  0  0  0  0  0  0  0  0  0  0
   42.3338   30.5071   36.7876 H   0  0  0  0  0  0  0  0  0  0  0  0
   40.4563   31.9941   37.6281 H   0  0  0  0  0  0  0  0  0  0  0  0
   39.7386   33.7905   38.8866 H   0  0  0  0  0  0  0  0  0  0  0  0
   39.9955   35.7135   40.4086 H   0  0  0  0  0  0  0  0  0  0  0  0
   42.3795   36.2787   41.1203 H   0  0  0  0  0  0  0  0  0  0  0  0
   44.2371   34.9348   40.2886 H   0  0  0  0  0  0  0  0  0  0  0  0
  2  1  2  0
  2 23  1  0
  2  3  1  0
  3  6  1  0
  4  9  2  0
  5  6  2  0
  5  4  1  0
  6  7  1  0
  7  8  2  0
  9  8  1  0
 10  2  1  0
 11 10  1  0
 12 11  2  0
 13 11  1  0
 13 22  1  0
 14 13  2  0
 15 14  1  0
 15 16  2  0
 16 17  1  0
 17 22  2  0
 17 18  1  0
 18 19  2  0
 19 20  1  0
 21 20  2  0
 22 21  1  0
 24 26  1  0
 24 25  1  0
 24 23  1  0
 27 24  1  0
  4 28  1  0
  5 29  1  0
  8 30  1  0
 14 31  1  0
 15 32  1  0
 16 33  1  0
 18 34  1  0
 19 35  1  0
 20 36  1  0
 21 37  1  0
M  ISO  8  28  14  29  14  30  14  31  14  32  14  33  14  34  14  35  14
M  ISO  2  36  14  37  14
M  END
>  <minimizedAffinity>  (1) 
-6.07534313

>  <minimizedRMSD>  (1) 
3.2821393

$$$$
