
     RDKit          3D

 32 34  0  0  0  0  0  0  0  0999 V2000
   46.6700   32.6840   45.2670 C   0  0  0  0  0  0  0  0  0  0  0  0
   46.0810   31.5670   45.4790 O   0  0  0  0  0  0  0  0  0  0  0  0
   47.0950   33.3130   46.4760 N   0  0  0  0  0  0  0  0  0  0  0  0
   46.9150   33.3050   43.9680 C   0  0  0  0  0  0  0  0  0  0  0  0
   48.1360   32.9650   43.3810 C   0  0  0  0  0  0  0  0  0  0  0  0
   48.4620   33.5100   42.1360 C   0  0  0  0  0  0  0  0  0  0  0  0
   47.5630   34.3680   41.5230 C   0  0  0  0  0  0  0  0  0  0  0  0
   46.3500   34.7090   42.1030 C   0  0  0  0  0  0  0  0  0  0  0  0
   45.4320   35.5640   41.5150 C   0  0  0  0  0  0  0  0  0  0  0  0
   44.2420   35.8560   42.1530 C   0  0  0  0  0  0  0  0  0  0  0  0
   43.9370   35.3090   43.3820 C   0  0  0  0  0  0  0  0  0  0  0  0
   44.8490   34.4430   43.9940 C   0  0  0  0  0  0  0  0  0  0  0  0
   46.0330   34.1620   43.3440 C   0  0  0  0  0  0  0  0  0  0  0  0
   46.7700   32.4510   47.5870 C   0  0  0  0  0  0  0  0  0  0  0  0
   45.5690   32.4350   48.2840 C   0  0  0  0  0  0  0  0  0  0  0  0
   45.4380   31.5370   49.3230 C   0  0  0  0  0  0  0  0  0  0  0  0
   46.4900   30.7360   49.5880 N   0  0  0  0  0  0  0  0  0  0  0  0
   47.6460   30.7630   48.9040 C   0  0  0  0  0  0  0  0  0  0  0  0
   47.8100   31.6300   47.8800 N   0  0  0  0  0  0  0  0  0  0  0  0
   44.5770   33.3630   47.8470 N   0  0  0  0  0  0  0  0  0  0  0  0
   47.5574   34.2308   46.5442 H   0  0  0  0  0  0  0  0  0  0  0  0
   48.8295   32.2796   43.8902 H   0  0  0  0  0  0  0  0  0  0  0  0
   49.4173   33.2617   41.6503 H   0  0  0  0  0  0  0  0  0  0  0  0
   47.8203   34.7937   40.5419 H   0  0  0  0  0  0  0  0  0  0  0  0
   45.6518   36.0127   40.5350 H   0  0  0  0  0  0  0  0  0  0  0  0
   43.5245   36.5372   41.6721 H   0  0  0  0  0  0  0  0  0  0  0  0
   42.9848   35.5517   43.8764 H   0  0  0  0  0  0  0  0  0  0  0  0
   44.6267   33.9950   44.9738 H   0  0  0  0  0  0  0  0  0  0  0  0
   44.5113   31.4767   49.9125 H   0  0  0  0  0  0  0  0  0  0  0  0
   48.4615   30.0775   49.1781 H   0  0  0  0  0  0  0  0  0  0  0  0
   43.6638   33.4022   48.3217 H   0  0  0  0  0  0  0  0  0  0  0  0
   44.7742   33.9936   47.0569 H   0  0  0  0  0  0  0  0  0  0  0  0
  1  2  2  0
  1  3  1  0
  3 14  1  0
  4  1  1  0
  5  4  2  0
  6  5  1  0
  7  8  1  0
  7  6  2  0
  8 13  2  0
  9  8  1  0
  9 10  2  0
 10 11  1  0
 11 12  2  0
 13  4  1  0
 13 12  1  0
 14 19  1  0
 14 15  2  0
 15 16  1  0
 16 17  2  0
 18 17  1  0
 19 18  2  0
 20 15  1  0
  3 21  1  0
  5 22  1  0
  6 23  1  0
  7 24  1  0
  9 25  1  0
 10 26  1  0
 11 27  1  0
 12 28  1  0
 16 29  1  0
 18 30  1  0
 20 31  1  0
 20 32  1  0
M  ISO  8  22  14  23  14  24  14  25  14  26  14  27  14  28  14  29  14
M  ISO  1  30  14
M  END
>  <minimizedAffinity>  (1) 
-5.68712473

>  <minimizedRMSD>  (1) 
4.84999752

$$$$
