
     RDKit          3D

 53 56  0  0  0  0  0  0  0  0999 V2000
   45.4030   30.2850   47.1740 C   0  0  0  0  0  0  0  0  0  0  0  0
   46.2010   31.2960   46.7380 C   0  0  0  0  0  0  0  0  0  0  0  0
   46.4990   32.3330   47.5970 C   0  0  0  0  0  0  0  0  0  0  0  0
   46.0220   32.3900   48.8920 C   0  0  0  0  0  0  0  0  0  0  0  0
   45.2110   31.3620   49.3410 C   0  0  0  0  0  0  0  0  0  0  0  0
   44.9120   30.3180   48.4730 C   0  0  0  0  0  0  0  0  0  0  0  0
   44.9970   29.0570   46.0250 S   0  0  0  0  0  0  0  0  0  0  0  0
   44.9190   29.5980   44.6230 O   0  0  0  0  0  0  0  0  0  0  0  0
   43.5610   28.6230   46.3670 O   0  0  0  0  0  0  0  0  0  0  0  0
   45.9020   27.5930   46.1240 C   0  0  0  0  0  0  0  0  0  0  0  0
   46.8490   27.2140   45.1640 C   0  0  0  0  0  0  0  0  0  0  0  0
   47.5720   26.0420   45.1240 C   0  0  0  0  0  0  0  0  0  0  0  0
   47.3400   25.1380   46.1390 C   0  0  0  0  0  0  0  0  0  0  0  0
   46.4280   25.4160   47.1360 C   0  0  0  0  0  0  0  0  0  0  0  0
   46.2540   24.5030   48.1550 C   0  0  0  0  0  0  0  0  0  0  0  0
   45.3720   24.7700   49.1990 C   0  0  0  0  0  0  0  0  0  0  0  0
   44.6540   25.9730   49.2170 C   0  0  0  0  0  0  0  0  0  0  0  0
   44.8740   26.8290   48.1770 C   0  0  0  0  0  0  0  0  0  0  0  0
   45.7460   26.6160   47.1000 C   0  0  0  0  0  0  0  0  0  0  0  0
   46.7890   31.4330   45.4940 O   0  0  0  0  0  0  0  0  0  0  0  0
   45.4400   34.2380   43.8150 C   0  0  0  0  0  0  0  0  0  0  0  0
   46.5550   34.7330   43.1210 C   0  0  0  0  0  0  0  0  0  0  0  0
   47.7580   34.0940   43.2400 C   0  0  0  0  0  0  0  0  0  0  0  0
   47.7780   33.0180   44.0290 N   0  0  0  0  0  0  0  0  0  0  0  0
   46.7530   32.5410   44.6850 C   0  0  0  0  0  0  0  0  0  0  0  0
   45.5590   33.1600   44.5780 N   0  0  0  0  0  0  0  0  0  0  0  0
   48.9730   34.5350   42.5490 C   0  0  0  0  0  0  0  0  0  0  0  0
   48.7590   35.6930   41.6210 C   0  0  0  0  0  0  0  0  0  0  0  0
   48.6090   35.3010   40.2160 C   0  0  0  0  0  0  0  0  0  0  0  0
   48.0860   34.3550   39.4500 C   0  0  0  0  0  0  0  0  0  0  0  0
   48.2420   34.2260   37.9440 C   0  0  0  0  0  0  0  0  0  0  0  0
   47.1431   33.1483   47.2359 H   0  0  0  0  0  0  0  0  0  0  0  0
   46.2804   33.2322   49.5508 H   0  0  0  0  0  0  0  0  0  0  0  0
   44.8106   31.3710   50.3655 H   0  0  0  0  0  0  0  0  0  0  0  0
   44.2699   29.4967   48.8240 H   0  0  0  0  0  0  0  0  0  0  0  0
   47.0362   27.9319   44.3519 H   0  0  0  0  0  0  0  0  0  0  0  0
   48.2976   25.8377   44.3229 H   0  0  0  0  0  0  0  0  0  0  0  0
   47.8883   24.1845   46.1539 H   0  0  0  0  0  0  0  0  0  0  0  0
   46.8158   23.5574   48.1429 H   0  0  0  0  0  0  0  0  0  0  0  0
   45.2391   24.0373   50.0086 H   0  0  0  0  0  0  0  0  0  0  0  0
   43.9499   26.2149   50.0268 H   0  0  0  0  0  0  0  0  0  0  0  0
   44.3141   27.7758   48.1845 H   0  0  0  0  0  0  0  0  0  0  0  0
   44.4675   34.7442   43.7260 H   0  0  0  0  0  0  0  0  0  0  0  0
   46.4619   35.6271   42.4870 H   0  0  0  0  0  0  0  0  0  0  0  0
   49.7140   34.8307   43.3063 H   0  0  0  0  0  0  0  0  0  0  0  0
   49.3131   33.6904   41.9318 H   0  0  0  0  0  0  0  0  0  0  0  0
   47.8477   36.2243   41.9327 H   0  0  0  0  0  0  0  0  0  0  0  0
   49.6560   36.3266   41.6845 H   0  0  0  0  0  0  0  0  0  0  0  0
   49.0999   36.0508   39.5782 H   0  0  0  0  0  0  0  0  0  0  0  0
   47.4794   33.5878   39.9535 H   0  0  0  0  0  0  0  0  0  0  0  0
   49.0717   33.5399   37.7188 H   0  0  0  0  0  0  0  0  0  0  0  0
   47.3112   33.8302   37.5115 H   0  0  0  0  0  0  0  0  0  0  0  0
   48.4559   35.2145   37.5115 H   0  0  0  0  0  0  0  0  0  0  0  0
  1  6  2  0
  2  1  1  0
  2  3  2  0
  3  4  1  0
  4  5  2  0
  6  5  1  0
  7 10  1  0
  7  9  2  0
  7  1  1  0
  8  7  2  0
 10 19  1  0
 11 10  2  0
 12 11  1  0
 12 13  2  0
 13 14  1  0
 14 15  1  0
 15 16  2  0
 16 17  1  0
 18 17  2  0
 19 14  2  0
 19 18  1  0
 20  2  1  0
 21 26  2  0
 22 23  2  0
 22 21  1  0
 23 24  1  0
 24 25  2  0
 25 20  1  0
 26 25  1  0
 27 23  1  0
 28 27  1  0
 29 28  1  0
 30 29  2  0
 31 30  1  0
  3 32  1  0
  4 33  1  0
  5 34  1  0
  6 35  1  0
 11 36  1  0
 12 37  1  0
 13 38  1  0
 15 39  1  0
 16 40  1  0
 17 41  1  0
 18 42  1  0
 21 43  1  0
 22 44  1  0
 27 45  1  0
 27 46  1  0
 28 47  1  0
 28 48  1  0
 29 49  1  0
 30 50  1  0
 31 51  1  0
 31 52  1  0
 31 53  1  0
M  ISO  8  32  14  33  14  34  14  35  14  36  14  37  14  38  14  39  14
M  ISO  8  40  14  41  14  42  14  43  14  44  14  45   8  46   8  47   8
M  ISO  4  48   8  51   8  52   8  53   8
M  END
>  <minimizedAffinity>  (1) 
-6.27421188

>  <minimizedRMSD>  (1) 
3.22204328

$$$$
