
     RDKit          3D

 33 35  0  0  0  0  0  0  0  0999 V2000
   45.1640   34.6950   42.9270 C   0  0  0  0  0  0  0  0  0  0  0  0
   46.2010   35.1480   42.0950 C   0  0  0  0  0  0  0  0  0  0  0  0
   47.5020   34.6910   42.3970 C   0  0  0  0  0  0  0  0  0  0  0  0
   47.6580   33.8640   43.4460 N   0  0  0  0  0  0  0  0  0  0  0  0
   46.6310   33.4520   44.2210 C   0  0  0  0  0  0  0  0  0  0  0  0
   45.3840   33.8780   43.9510 N   0  0  0  0  0  0  0  0  0  0  0  0
   43.2500   34.4030   41.5820 C   0  0  0  0  0  0  0  0  0  0  0  0
   43.9860   33.5690   40.9610 O   0  0  0  0  0  0  0  0  0  0  0  0
   43.8230   35.1090   42.6900 N   0  0  0  0  0  0  0  0  0  0  0  0
   41.8940   34.5740   41.1250 C   0  0  0  0  0  0  0  0  0  0  0  0
   41.5340   35.8120   40.6070 C   0  0  0  0  0  0  0  0  0  0  0  0
   40.2510   36.0430   40.1530 C   0  0  0  0  0  0  0  0  0  0  0  0
   39.2760   35.0440   40.1980 C   0  0  0  0  0  0  0  0  0  0  0  0
   39.6160   33.8050   40.7110 C   0  0  0  0  0  0  0  0  0  0  0  0
   38.6750   32.7740   40.7780 C   0  0  0  0  0  0  0  0  0  0  0  0
   39.0430   31.5490   41.2940 C   0  0  0  0  0  0  0  0  0  0  0  0
   40.3370   31.3240   41.7490 C   0  0  0  0  0  0  0  0  0  0  0  0
   41.2390   32.3700   41.6650 C   0  0  0  0  0  0  0  0  0  0  0  0
   40.9080   33.6090   41.1560 C   0  0  0  0  0  0  0  0  0  0  0  0
   48.5520   35.1860   41.5070 C   0  0  0  0  0  0  0  0  0  0  0  0
   49.6990   34.4160   41.6990 F   0  0  0  0  0  0  0  0  0  0  0  0
   48.8930   36.4550   41.9410 F   0  0  0  0  0  0  0  0  0  0  0  0
   48.2280   35.1470   40.1820 F   0  0  0  0  0  0  0  0  0  0  0  0
   46.0088   35.8254   41.2499 H   0  0  0  0  0  0  0  0  0  0  0  0
   46.8133   32.7729   45.0669 H   0  0  0  0  0  0  0  0  0  0  0  0
   43.3284   35.8234   43.2431 H   0  0  0  0  0  0  0  0  0  0  0  0
   42.2808   36.6182   40.5581 H   0  0  0  0  0  0  0  0  0  0  0  0
   39.9917   37.0324   39.7482 H   0  0  0  0  0  0  0  0  0  0  0  0
   38.2570   35.2387   39.8324 H   0  0  0  0  0  0  0  0  0  0  0  0
   37.6474   32.9384   40.4215 H   0  0  0  0  0  0  0  0  0  0  0  0
   38.3015   30.7381   41.3462 H   0  0  0  0  0  0  0  0  0  0  0  0
   40.6337   30.3484   42.1615 H   0  0  0  0  0  0  0  0  0  0  0  0
   42.2671   32.2062   42.0203 H   0  0  0  0  0  0  0  0  0  0  0  0
  1  6  2  0
  2  3  2  0
  2  1  1  0
  3  4  1  0
  4  5  2  0
  6  5  1  0
  7  9  1  0
  8  7  2  0
  9  1  1  0
 10 19  1  0
 10  7  1  0
 11 10  2  0
 12 13  2  0
 12 11  1  0
 13 14  1  0
 14 15  1  0
 14 19  2  0
 15 16  2  0
 16 17  1  0
 18 17  2  0
 19 18  1  0
 20 21  1  0
 20 22  1  0
 20  3  1  0
 23 20  1  0
  2 24  1  0
  5 25  1  0
  9 26  1  0
 11 27  1  0
 12 28  1  0
 13 29  1  0
 15 30  1  0
 16 31  1  0
 17 32  1  0
 18 33  1  0
M  ISO  8  24  14  25  14  27  14  28  14  29  14  30  14  31  14  32  14
M  ISO  1  33  14
M  END
>  <minimizedAffinity>  (1) 
-7.39637756

>  <minimizedRMSD>  (1) 
1.11653507

$$$$
