
     RDKit          3D

 52 56  0  0  1  0  0  0  0  0999 V2000
   49.0960   32.1930   40.5850 C   0  0  2  0  0  0  0  0  0  0  0  0
   49.9380   31.6620   41.6480 C   0  0  0  0  0  0  0  0  0  0  0  0
   50.4830   31.8580   40.2690 C   0  0  1  0  0  0  0  0  0  0  0  0
   47.0770   34.8310   41.9790 C   0  0  2  0  0  0  0  0  0  0  0  0
   46.3080   34.2250   40.8020 C   0  0  0  0  0  0  0  0  0  0  0  0
   47.5100   34.0250   39.8540 C   0  0  0  0  0  0  0  0  0  0  0  0
   48.6420   33.6250   40.7510 C   0  0  1  0  0  0  0  0  0  0  0  0
   48.1290   33.7710   42.1520 C   0  0  0  0  0  0  0  0  0  0  0  0
   44.5360   36.0100   44.4930 C   0  0  0  0  0  0  0  0  0  0  0  0
   45.2780   35.9910   43.3200 C   0  0  0  0  0  0  0  0  0  0  0  0
   46.2010   34.9550   43.1760 C   0  0  0  0  0  0  0  0  0  0  0  0
   46.3510   33.9950   44.1850 N   0  0  0  0  0  0  0  0  0  0  0  0
   45.5940   34.0710   45.3110 C   0  0  0  0  0  0  0  0  0  0  0  0
   44.6910   35.0760   45.4610 N   0  0  0  0  0  0  0  0  0  0  0  0
   50.7090   30.6950   39.4900 O   0  0  0  0  0  0  0  0  0  0  0  0
   51.9730   30.0100   37.3140 O   0  0  0  0  0  0  0  0  0  0  0  0
   51.9840   31.0100   38.4420 P   0  0  1  0  0  0  0  0  0  0  0  0
   51.8070   32.5710   37.7540 O   0  0  0  0  0  0  0  0  0  0  0  0
   53.4830   30.9730   39.1640 O   0  0  0  0  0  0  0  0  0  0  0  0
   54.5840   30.5730   38.4220 C   0  0  0  0  0  0  0  0  0  0  0  0
   54.9500   31.0280   37.1730 C   0  0  0  0  0  0  0  0  0  0  0  0
   56.0730   30.5530   36.5300 C   0  0  0  0  0  0  0  0  0  0  0  0
   56.8860   29.5860   37.1260 C   0  0  0  0  0  0  0  0  0  0  0  0
   56.5350   29.1200   38.3760 C   0  0  0  0  0  0  0  0  0  0  0  0
   57.3310   28.1580   38.9860 C   0  0  0  0  0  0  0  0  0  0  0  0
   57.0100   27.6610   40.2490 C   0  0  0  0  0  0  0  0  0  0  0  0
   55.8730   28.1440   40.8930 C   0  0  0  0  0  0  0  0  0  0  0  0
   55.1260   29.0930   40.2430 C   0  0  0  0  0  0  0  0  0  0  0  0
   55.4010   29.6140   38.9990 C   0  0  0  0  0  0  0  0  0  0  0  0
   48.1462   31.9192   40.1023 H   0  0  0  0  0  0  0  0  0  0  0  0
   50.2673   32.3152   42.4695 H   0  0  0  0  0  0  0  0  0  0  0  0
   49.8717   30.8174   42.3496 H   0  0  0  0  0  0  0  0  0  0  0  0
   51.3389   32.3935   39.8323 H   0  0  0  0  0  0  0  0  0  0  0  0
   47.4679   35.8481   41.8286 H   0  0  0  0  0  0  0  0  0  0  0  0
   45.8205   33.2748   41.0656 H   0  0  0  0  0  0  0  0  0  0  0  0
   45.4718   34.8215   40.4083 H   0  0  0  0  0  0  0  0  0  0  0  0
   47.7463   34.9602   39.3252 H   0  0  0  0  0  0  0  0  0  0  0  0
   47.3072   33.2707   39.0795 H   0  0  0  0  0  0  0  0  0  0  0  0
   49.5074   34.2581   40.5054 H   0  0  0  0  0  0  0  0  0  0  0  0
   48.9229   34.1014   42.8379 H   0  0  0  0  0  0  0  0  0  0  0  0
   47.7536   32.8350   42.5912 H   0  0  0  0  0  0  0  0  0  0  0  0
   43.7969   36.8111   44.6412 H   0  0  0  0  0  0  0  0  0  0  0  0
   45.1445   36.7563   42.5412 H   0  0  0  0  0  0  0  0  0  0  0  0
   45.7123   33.3172   46.1033 H   0  0  0  0  0  0  0  0  0  0  0  0
   51.7308   33.2434   38.4766 H   0  0  0  0  0  0  0  0  0  0  0  0
   54.3301   31.7894   36.6770 H   0  0  0  0  0  0  0  0  0  0  0  0
   56.3325   30.9408   35.5339 H   0  0  0  0  0  0  0  0  0  0  0  0
   57.7817   29.2065   36.6125 H   0  0  0  0  0  0  0  0  0  0  0  0
   58.2254   27.7839   38.4663 H   0  0  0  0  0  0  0  0  0  0  0  0
   57.6439   26.9005   40.7285 H   0  0  0  0  0  0  0  0  0  0  0  0
   55.5842   27.7768   41.8889 H   0  0  0  0  0  0  0  0  0  0  0  0
   54.2310   29.4698   40.7598 H   0  0  0  0  0  0  0  0  0  0  0  0
  1  7  1  0
  1  2  1  0
  3  1  1  0
  3  2  1  0
  4  8  1  0
  4 11  1  0
  5  4  1  0
  6  7  1  0
  6  5  1  0
  7  8  1  0
  9 14  2  0
 10  9  1  0
 11 10  2  0
 11 12  1  0
 12 13  2  0
 13 14  1  0
 15  3  1  0
 17 16  2  0
 17 19  1  0
 17 15  1  0
 18 17  1  0
 20 29  1  0
 20 19  1  0
 21 20  2  0
 22 23  2  0
 22 21  1  0
 23 24  1  0
 24 25  1  0
 24 29  2  0
 25 26  2  0
 26 27  1  0
 28 27  2  0
 29 28  1  0
  1 30  1  6
  2 31  1  0
  2 32  1  0
  3 33  1  1
  4 34  1  6
  5 35  1  0
  5 36  1  0
  6 37  1  0
  6 38  1  0
  7 39  1  1
  8 40  1  0
  8 41  1  0
  9 42  1  0
 10 43  1  0
 13 44  1  0
 18 45  1  0
 21 46  1  0
 22 47  1  0
 23 48  1  0
 25 49  1  0
 26 50  1  0
 27 51  1  0
 28 52  1  0
M  ISO  8  30  13  31  13  32  13  33  13  34  13  35  13  36  13  37  13
M  ISO  8  38  13  39  13  40  13  41  13  42  14  43  14  44  14  45   3
M  ISO  7  46  14  47  14  48  14  49  14  50  14  51  14  52  14
M  END
>  <minimizedAffinity>  (1) 
-5.77912951

>  <minimizedRMSD>  (1) 
2.31225038

$$$$
