
     RDKit          3D

 53 56  0  0  1  0  0  0  0  0999 V2000
   46.5430   34.4620   43.7210 N   0  0  0  0  0  0  0  0  0  0  0  0
   46.1880   35.2840   42.6210 C   0  0  0  0  0  0  0  0  0  0  0  0
   44.6990   35.4680   42.4160 C   0  0  0  0  0  0  0  0  0  0  0  0
   43.8900   35.4700   43.6910 C   0  0  0  0  0  0  0  0  0  0  0  0
   44.7760   35.3960   44.9100 C   0  0  0  0  0  0  0  0  0  0  0  0
   45.6110   34.0850   44.6710 C   0  0  2  0  0  0  0  0  0  0  0  0
   47.6620   33.6030   43.4700 C   0  0  0  0  0  0  0  0  0  0  0  0
   47.5100   32.9890   42.1190 C   0  0  0  0  0  0  0  0  0  0  0  0
   51.2290   32.5240   41.8710 C   0  0  0  0  0  0  0  0  0  0  0  0
   49.9610   32.8970   42.3530 C   0  0  0  0  0  0  0  0  0  0  0  0
   48.8480   32.5930   41.6060 C   0  0  0  0  0  0  0  0  0  0  0  0
   49.0320   31.9480   40.4450 N   0  0  0  0  0  0  0  0  0  0  0  0
   50.2580   31.5980   40.0000 C   0  0  0  0  0  0  0  0  0  0  0  0
   51.3610   31.8820   40.7070 N   0  0  0  0  0  0  0  0  0  0  0  0
   46.1890   33.8920   45.9170 O   0  0  0  0  0  0  0  0  0  0  0  0
   45.7090   31.3530   45.2900 O   0  0  0  0  0  0  0  0  0  0  0  0
   46.1220   32.2910   46.4270 P   0  0  2  0  0  0  0  0  0  0  0  0
   44.8260   32.2060   47.5440 O   0  0  0  0  0  0  0  0  0  0  0  0
   47.5000   31.8130   47.2090 O   0  0  0  0  0  0  0  0  0  0  0  0
   47.9710   30.5540   47.4350 C   0  0  0  0  0  0  0  0  0  0  0  0
   47.6570   29.3910   46.7470 C   0  0  0  0  0  0  0  0  0  0  0  0
   48.2470   28.1950   47.1300 C   0  0  0  0  0  0  0  0  0  0  0  0
   49.1290   28.1520   48.1710 C   0  0  0  0  0  0  0  0  0  0  0  0
   49.4590   29.2790   48.8690 C   0  0  0  0  0  0  0  0  0  0  0  0
   50.3500   29.1850   49.9080 C   0  0  0  0  0  0  0  0  0  0  0  0
   50.6980   30.3070   50.6250 C   0  0  0  0  0  0  0  0  0  0  0  0
   50.1390   31.5230   50.2850 C   0  0  0  0  0  0  0  0  0  0  0  0
   49.2580   31.5820   49.2480 C   0  0  0  0  0  0  0  0  0  0  0  0
   48.8710   30.4840   48.4910 C   0  0  0  0  0  0  0  0  0  0  0  0
   46.6364   36.2762   42.7773 H   0  0  0  0  0  0  0  0  0  0  0  0
   46.5622   34.7734   41.7214 H   0  0  0  0  0  0  0  0  0  0  0  0
   44.5381   36.4286   41.9048 H   0  0  0  0  0  0  0  0  0  0  0  0
   44.3541   34.6058   41.8264 H   0  0  0  0  0  0  0  0  0  0  0  0
   43.2969   36.3953   43.7362 H   0  0  0  0  0  0  0  0  0  0  0  0
   43.2367   34.5850   43.6858 H   0  0  0  0  0  0  0  0  0  0  0  0
   45.4333   36.2758   44.9735 H   0  0  0  0  0  0  0  0  0  0  0  0
   44.2102   35.3801   45.8532 H   0  0  0  0  0  0  0  0  0  0  0  0
   45.0871   33.1796   44.3307 H   0  0  0  0  0  0  0  0  0  0  0  0
   48.5922   34.1891   43.5061 H   0  0  0  0  0  0  0  0  0  0  0  0
   47.7028   32.8132   44.2345 H   0  0  0  0  0  0  0  0  0  0  0  0
   46.8658   32.1002   42.1897 H   0  0  0  0  0  0  0  0  0  0  0  0
   47.0528   33.7170   41.4327 H   0  0  0  0  0  0  0  0  0  0  0  0
   52.1253   32.7647   42.4616 H   0  0  0  0  0  0  0  0  0  0  0  0
   49.8618   33.4241   43.3134 H   0  0  0  0  0  0  0  0  0  0  0  0
   50.3534   31.0701   39.0397 H   0  0  0  0  0  0  0  0  0  0  0  0
   45.1837   32.2295   48.4668 H   0  0  0  0  0  0  0  0  0  0  0  0
   46.9477   29.4167   45.9066 H   0  0  0  0  0  0  0  0  0  0  0  0
   48.0009   27.2699   46.5880 H   0  0  0  0  0  0  0  0  0  0  0  0
   49.5831   27.1907   48.4534 H   0  0  0  0  0  0  0  0  0  0  0  0
   50.7875   28.2100   50.1687 H   0  0  0  0  0  0  0  0  0  0  0  0
   51.4124   30.2360   51.4584 H   0  0  0  0  0  0  0  0  0  0  0  0
   50.4020   32.4327   50.8447 H   0  0  0  0  0  0  0  0  0  0  0  0
   48.8258   32.5611   48.9941 H   0  0  0  0  0  0  0  0  0  0  0  0
  1  6  1  0
  2  1  1  0
  3  2  1  0
  3  4  1  0
  4  5  1  0
  6  5  1  0
  6 15  1  0
  7  1  1  0
  8  7  1  0
  9 10  2  0
 11  8  1  0
 11 10  1  0
 12 11  2  0
 13 12  1  0
 13 14  2  0
 14  9  1  0
 15 17  1  0
 17 16  2  0
 17 19  1  0
 17 18  1  0
 19 20  1  0
 20 29  2  0
 21 22  2  0
 21 20  1  0
 22 23  1  0
 23 24  2  0
 24 25  1  0
 25 26  2  0
 27 26  1  0
 28 27  2  0
 29 24  1  0
 29 28  1  0
  2 30  1  0
  2 31  1  0
  3 32  1  0
  3 33  1  0
  4 34  1  0
  4 35  1  0
  5 36  1  0
  5 37  1  0
  6 38  1  6
  7 39  1  0
  7 40  1  0
  8 41  1  0
  8 42  1  0
  9 43  1  0
 10 44  1  0
 13 45  1  0
 18 46  1  0
 21 47  1  0
 22 48  1  0
 23 49  1  0
 25 50  1  0
 26 51  1  0
 27 52  1  0
 28 53  1  0
M  ISO  8  30  13  31  13  32  13  33  13  34  13  35  13  36  13  37  13
M  ISO  8  38  13  39   8  40   8  41   8  42   8  43  14  44  14  45  14
M  ISO  8  46   3  47  14  48  14  49  14  50  14  51  14  52  14  53  14
M  END
>  <minimizedAffinity>  (1) 
-5.76032686

>  <minimizedRMSD>  (1) 
3.03007412

$$$$
