
     RDKit          3D

 55 59  0  0  1  0  0  0  0  0999 V2000
   46.7350   32.4310   37.1630 C   0  0  0  0  0  0  0  0  0  0  0  0
   45.9420   32.6450   38.3070 C   0  0  0  0  0  0  0  0  0  0  0  0
   44.9670   31.6980   38.4830 C   0  0  0  0  0  0  0  0  0  0  0  0
   44.7310   30.6250   37.6690 C   0  0  0  0  0  0  0  0  0  0  0  0
   45.5390   30.4570   36.5570 C   0  0  0  0  0  0  0  0  0  0  0  0
   46.5290   31.3670   36.3260 C   0  0  0  0  0  0  0  0  0  0  0  0
   46.9060   31.7030   33.9240 C   0  0  0  0  0  0  0  0  0  0  0  0
   45.7810   32.2850   33.8440 O   0  0  0  0  0  0  0  0  0  0  0  0
   47.3320   31.1480   35.1740 N   0  0  0  0  0  0  0  0  0  0  0  0
   47.9190   31.4880   32.8670 C   0  0  0  0  0  0  0  0  0  0  0  0
   49.0200   32.2960   32.7030 C   0  0  0  0  0  0  0  0  0  0  0  0
   49.9150   32.0230   31.6860 C   0  0  0  0  0  0  0  0  0  0  0  0
   49.7610   30.9620   30.8110 C   0  0  0  0  0  0  0  0  0  0  0  0
   48.6550   30.1500   30.9750 C   0  0  0  0  0  0  0  0  0  0  0  0
   48.4880   29.0840   30.1050 C   0  0  0  0  0  0  0  0  0  0  0  0
   47.3920   28.2510   30.2430 C   0  0  0  0  0  0  0  0  0  0  0  0
   46.4660   28.4880   31.2510 C   0  0  0  0  0  0  0  0  0  0  0  0
   46.6880   29.5760   32.0940 C   0  0  0  0  0  0  0  0  0  0  0  0
   47.7510   30.4150   31.9930 C   0  0  0  0  0  0  0  0  0  0  0  0
   46.1160   33.7180   39.2030 N   0  0  0  0  0  0  0  0  0  0  0  0
   46.1170   34.7280   42.6130 N   0  0  0  0  0  0  0  0  0  0  0  0
   45.3570   34.5600   41.3730 C   0  0  0  0  0  0  0  0  0  0  0  0
   46.3590   33.7630   40.6080 C   0  0  2  0  0  0  0  0  0  0  0  0
   47.6360   34.5710   40.8220 C   0  0  0  0  0  0  0  0  0  0  0  0
   47.4660   35.0650   42.2310 C   0  0  0  0  0  0  0  0  0  0  0  0
   44.4550   35.2330   45.9200 C   0  0  0  0  0  0  0  0  0  0  0  0
   44.7910   35.4440   44.5920 C   0  0  0  0  0  0  0  0  0  0  0  0
   45.7050   34.6070   43.9540 C   0  0  0  0  0  0  0  0  0  0  0  0
   46.2310   33.5930   44.7020 N   0  0  0  0  0  0  0  0  0  0  0  0
   45.9090   33.3830   45.9840 C   0  0  0  0  0  0  0  0  0  0  0  0
   45.0170   34.2110   46.5870 N   0  0  0  0  0  0  0  0  0  0  0  0
   48.6440   34.1520   36.7040 N   0  0  0  0  0  0  0  0  0  0  0  0
   47.7980   33.3990   36.9100 C   0  0  0  0  0  0  0  0  0  0  0  0
   44.3136   31.8117   39.3606 H   0  0  0  0  0  0  0  0  0  0  0  0
   43.9212   29.9145   37.8914 H   0  0  0  0  0  0  0  0  0  0  0  0
   45.3859   29.6080   35.8745 H   0  0  0  0  0  0  0  0  0  0  0  0
   48.2027   30.6013   35.2366 H   0  0  0  0  0  0  0  0  0  0  0  0
   49.1865   33.1510   33.3747 H   0  0  0  0  0  0  0  0  0  0  0  0
   50.7898   32.6791   31.5666 H   0  0  0  0  0  0  0  0  0  0  0  0
   50.4935   30.7716   30.0127 H   0  0  0  0  0  0  0  0  0  0  0  0
   49.2238   28.9010   29.3081 H   0  0  0  0  0  0  0  0  0  0  0  0
   47.2542   27.4030   29.5561 H   0  0  0  0  0  0  0  0  0  0  0  0
   45.5872   27.8391   31.3797 H   0  0  0  0  0  0  0  0  0  0  0  0
   45.9553   29.7670   32.8919 H   0  0  0  0  0  0  0  0  0  0  0  0
   46.0565   34.6458   38.7597 H   0  0  0  0  0  0  0  0  0  0  0  0
   44.4204   34.0056   41.5325 H   0  0  0  0  0  0  0  0  0  0  0  0
   45.0158   35.4883   40.8916 H   0  0  0  0  0  0  0  0  0  0  0  0
   46.3645   32.7158   40.9446 H   0  0  0  0  0  0  0  0  0  0  0  0
   48.5299   33.9371   40.7266 H   0  0  0  0  0  0  0  0  0  0  0  0
   47.7781   35.3759   40.0858 H   0  0  0  0  0  0  0  0  0  0  0  0
   48.1867   34.5701   42.8986 H   0  0  0  0  0  0  0  0  0  0  0  0
   47.6449   36.1481   42.3014 H   0  0  0  0  0  0  0  0  0  0  0  0
   43.7353   35.8957   46.4229 H   0  0  0  0  0  0  0  0  0  0  0  0
   44.3336   36.2771   44.0381 H   0  0  0  0  0  0  0  0  0  0  0  0
   46.3612   32.5501   46.5424 H   0  0  0  0  0  0  0  0  0  0  0  0
  1  2  2  0
  2  3  1  0
  2 20  1  0
  4  3  2  0
  5  4  1  0
  6  5  2  0
  6  1  1  0
  7  9  1  0
  8  7  2  0
  9  6  1  0
 10  7  1  0
 11 10  2  0
 12 11  1  0
 13 14  1  0
 13 12  2  0
 14 19  2  0
 15 16  2  0
 15 14  1  0
 16 17  1  0
 17 18  2  0
 19 18  1  0
 19 10  1  0
 20 23  1  0
 21 28  1  0
 22 21  1  0
 23 24  1  0
 23 22  1  0
 24 25  1  0
 25 21  1  0
 26 31  2  0
 27 26  1  0
 28 27  2  0
 28 29  1  0
 29 30  2  0
 30 31  1  0
 32 33  3  0
 33  1  1  0
  3 34  1  0
  4 35  1  0
  5 36  1  0
  9 37  1  0
 11 38  1  0
 12 39  1  0
 13 40  1  0
 15 41  1  0
 16 42  1  0
 17 43  1  0
 18 44  1  0
 20 45  1  0
 22 46  1  0
 22 47  1  0
 23 48  1  1
 24 49  1  0
 24 50  1  0
 25 51  1  0
 25 52  1  0
 26 53  1  0
 27 54  1  0
 30 55  1  0
M  ISO  8  34  14  35  14  36  14  38  14  39  14  40  14  41  14  42  14
M  ISO  8  43  14  44  14  46  13  47  13  48  13  49  13  50  13  51  13
M  ISO  4  52  13  53  14  54  14  55  14
M  END
>  <minimizedAffinity>  (1) 
-6.52526522

>  <minimizedRMSD>  (1) 
2.6311121

$$$$
