
     RDKit          3D

 46 49  0  0  1  0  0  0  0  0999 V2000
   47.1990   31.7260   47.2720 C   0  0  1  0  0  0  0  0  0  0  0  0
   47.8550   32.2720   48.5480 C   0  0  0  0  0  0  0  0  0  0  0  0
   49.0660   31.4590   48.8850 C   0  0  0  0  0  0  0  0  0  0  0  0
   48.7180   30.0160   48.9580 C   0  0  0  0  0  0  0  0  0  0  0  0
   48.0330   29.5180   47.7340 C   0  0  0  0  0  0  0  0  0  0  0  0
   46.7130   30.3270   47.5920 C   0  0  2  0  0  0  0  0  0  0  0  0
   45.8560   29.6640   46.6360 C   0  0  0  0  0  0  0  0  0  0  0  0
   45.7940   30.1130   45.3080 C   0  0  0  0  0  0  0  0  0  0  0  0
   45.0610   29.5290   44.2950 C   0  0  0  0  0  0  0  0  0  0  0  0
   44.3190   28.4120   44.5870 C   0  0  0  0  0  0  0  0  0  0  0  0
   44.3210   27.9120   45.8530 C   0  0  0  0  0  0  0  0  0  0  0  0
   43.5710   26.7890   46.1470 C   0  0  0  0  0  0  0  0  0  0  0  0
   43.5450   26.2510   47.4270 C   0  0  0  0  0  0  0  0  0  0  0  0
   44.3130   26.8960   48.4020 C   0  0  0  0  0  0  0  0  0  0  0  0
   45.0400   27.9990   48.0760 C   0  0  0  0  0  0  0  0  0  0  0  0
   45.0750   28.5410   46.8220 C   0  0  0  0  0  0  0  0  0  0  0  0
   46.0830   32.6380   46.9140 C   0  0  0  0  0  0  0  0  0  0  0  0
   45.1810   32.6240   47.7920 O   0  0  0  0  0  0  0  0  0  0  0  0
   44.9130   35.0440   44.4860 C   0  0  0  0  0  0  0  0  0  0  0  0
   45.8580   34.9580   43.4490 C   0  0  0  0  0  0  0  0  0  0  0  0
   46.9160   34.0680   43.5910 C   0  0  0  0  0  0  0  0  0  0  0  0
   46.9360   33.3540   44.7380 N   0  0  0  0  0  0  0  0  0  0  0  0
   46.0550   33.4280   45.7140 C   0  0  0  0  0  0  0  0  0  0  0  0
   45.0110   34.2900   45.6020 N   0  0  0  0  0  0  0  0  0  0  0  0
   43.8210   35.9490   44.3610 N   0  0  0  0  0  0  0  0  0  0  0  0
   47.8880   31.6764   46.4159 H   0  0  0  0  0  0  0  0  0  0  0  0
   48.1516   33.3189   48.3866 H   0  0  0  0  0  0  0  0  0  0  0  0
   47.1363   32.2136   49.3787 H   0  0  0  0  0  0  0  0  0  0  0  0
   49.8305   31.6085   48.1083 H   0  0  0  0  0  0  0  0  0  0  0  0
   49.4520   31.7826   49.8629 H   0  0  0  0  0  0  0  0  0  0  0  0
   49.6439   29.4393   49.1002 H   0  0  0  0  0  0  0  0  0  0  0  0
   48.0204   29.8889   49.7990 H   0  0  0  0  0  0  0  0  0  0  0  0
   48.6710   29.6779   46.8523 H   0  0  0  0  0  0  0  0  0  0  0  0
   47.8270   28.4401   47.8100 H   0  0  0  0  0  0  0  0  0  0  0  0
   46.0609   30.3902   48.4756 H   0  0  0  0  0  0  0  0  0  0  0  0
   46.3804   31.0079   45.0523 H   0  0  0  0  0  0  0  0  0  0  0  0
   45.0712   29.9486   43.2782 H   0  0  0  0  0  0  0  0  0  0  0  0
   43.7250   27.9227   43.8010 H   0  0  0  0  0  0  0  0  0  0  0  0
   42.9821   26.3112   45.3502 H   0  0  0  0  0  0  0  0  0  0  0  0
   42.9476   25.3581   47.6634 H   0  0  0  0  0  0  0  0  0  0  0  0
   44.3292   26.5115   49.4325 H   0  0  0  0  0  0  0  0  0  0  0  0
   45.6332   28.4818   48.8666 H   0  0  0  0  0  0  0  0  0  0  0  0
   45.7625   35.5801   42.5469 H   0  0  0  0  0  0  0  0  0  0  0  0
   47.6894   33.9520   42.8174 H   0  0  0  0  0  0  0  0  0  0  0  0
   43.7296   36.5323   43.5170 H   0  0  0  0  0  0  0  0  0  0  0  0
   43.1224   36.0204   45.1145 H   0  0  0  0  0  0  0  0  0  0  0  0
  1  6  1  0
  1  2  1  0
  2  3  1  0
  3  4  1  0
  5  4  1  0
  6  5  1  0
  7 16  1  0
  7  6  1  0
  8  7  2  0
  9 10  2  0
  9  8  1  0
 10 11  1  0
 11 12  1  0
 11 16  2  0
 12 13  2  0
 13 14  1  0
 15 14  2  0
 16 15  1  0
 17  1  1  0
 17 18  2  0
 19 24  2  0
 20 21  2  0
 20 19  1  0
 21 22  1  0
 22 23  2  0
 23 17  1  0
 24 23  1  0
 25 19  1  0
  1 26  1  6
  2 27  1  0
  2 28  1  0
  3 29  1  0
  3 30  1  0
  4 31  1  0
  4 32  1  0
  5 33  1  0
  5 34  1  0
  6 35  1  1
  8 36  1  0
  9 37  1  0
 10 38  1  0
 12 39  1  0
 13 40  1  0
 14 41  1  0
 15 42  1  0
 20 43  1  0
 21 44  1  0
 25 45  1  0
 25 46  1  0
M  ISO  8  26  13  27  13  28  13  29  13  30  13  31  13  32  13  33  13
M  ISO  8  34  13  35  13  36  14  37  14  38  14  39  14  40  14  41  14
M  ISO  3  42  14  43  14  44  14
M  END
>  <minimizedAffinity>  (1) 
-6.48936224

>  <minimizedRMSD>  (1) 
2.42242479

$$$$
