
     RDKit          3D

 35 38  0  0  1  0  0  0  0  0999 V2000
   46.5620   35.1200   41.9540 C   0  0  1  0  0  0  0  0  0  0  0  0
   48.1140   35.1390   41.9160 C   0  0  0  0  0  0  0  0  0  0  0  0
   47.2020   34.0710   41.2460 C   0  0  2  0  0  0  0  0  0  0  0  0
   47.2600   33.9480   39.7690 C   0  0  0  0  0  0  0  0  0  0  0  0
   48.3370   34.5430   39.1430 C   0  0  0  0  0  0  0  0  0  0  0  0
   48.3900   34.4270   37.7630 C   0  0  0  0  0  0  0  0  0  0  0  0
   47.4410   33.7660   37.0530 C   0  0  0  0  0  0  0  0  0  0  0  0
   46.3670   33.1720   37.6930 C   0  0  0  0  0  0  0  0  0  0  0  0
   45.3740   32.4870   37.0000 C   0  0  0  0  0  0  0  0  0  0  0  0
   44.3360   31.9260   37.7240 C   0  0  0  0  0  0  0  0  0  0  0  0
   44.2200   32.0000   39.0770 C   0  0  0  0  0  0  0  0  0  0  0  0
   45.2160   32.6870   39.7600 C   0  0  0  0  0  0  0  0  0  0  0  0
   46.2670   33.2600   39.0680 C   0  0  0  0  0  0  0  0  0  0  0  0
   44.6800   35.3350   45.2050 C   0  0  0  0  0  0  0  0  0  0  0  0
   45.1340   35.6780   43.8950 C   0  0  0  0  0  0  0  0  0  0  0  0
   46.0860   34.8500   43.3650 C   0  0  0  0  0  0  0  0  0  0  0  0
   46.5650   33.7570   44.0700 N   0  0  0  0  0  0  0  0  0  0  0  0
   46.1130   33.4690   45.2980 C   0  0  0  0  0  0  0  0  0  0  0  0
   45.1700   34.2550   45.8700 N   0  0  0  0  0  0  0  0  0  0  0  0
   44.6420   36.8210   43.2000 N   0  0  0  0  0  0  0  0  0  0  0  0
   45.7340   35.7801   41.6562 H   0  0  0  0  0  0  0  0  0  0  0  0
   48.6554   35.8803   41.3099 H   0  0  0  0  0  0  0  0  0  0  0  0
   48.9416   35.1577   42.6404 H   0  0  0  0  0  0  0  0  0  0  0  0
   47.0609   32.9814   41.2995 H   0  0  0  0  0  0  0  0  0  0  0  0
   49.1118   35.0805   39.7094 H   0  0  0  0  0  0  0  0  0  0  0  0
   49.2313   34.8871   37.2240 H   0  0  0  0  0  0  0  0  0  0  0  0
   47.5261   33.7016   35.9582 H   0  0  0  0  0  0  0  0  0  0  0  0
   45.4127   32.3936   35.9047 H   0  0  0  0  0  0  0  0  0  0  0  0
   43.5548   31.3856   37.1693 H   0  0  0  0  0  0  0  0  0  0  0  0
   43.3750   31.5364   39.6072 H   0  0  0  0  0  0  0  0  0  0  0  0
   45.1682   32.7754   40.8554 H   0  0  0  0  0  0  0  0  0  0  0  0
   43.9147   35.9603   45.6881 H   0  0  0  0  0  0  0  0  0  0  0  0
   46.5067   32.5966   45.8401 H   0  0  0  0  0  0  0  0  0  0  0  0
   44.9911   37.0394   42.2559 H   0  0  0  0  0  0  0  0  0  0  0  0
   43.9373   37.4286   43.6419 H   0  0  0  0  0  0  0  0  0  0  0  0
  1 16  1  0
  2  1  1  0
  3  2  1  0
  3  1  1  0
  4  3  1  0
  5  4  2  0
  6  5  1  0
  7  8  1  0
  7  6  2  0
  8 13  2  0
  9  8  1  0
  9 10  2  0
 10 11  1  0
 11 12  2  0
 13 12  1  0
 13  4  1  0
 14 19  2  0
 15 14  1  0
 16 15  2  0
 16 17  1  0
 17 18  2  0
 18 19  1  0
 20 15  1  0
  1 21  1  6
  2 22  1  0
  2 23  1  0
  3 24  1  1
  5 25  1  0
  6 26  1  0
  7 27  1  0
  9 28  1  0
 10 29  1  0
 11 30  1  0
 12 31  1  0
 14 32  1  0
 18 33  1  0
 20 34  1  0
 20 35  1  0
M  ISO  8  21  13  22  13  23  13  24  13  25  14  26  14  27  14  28  14
M  ISO  5  29  14  30  14  31  14  32  14  33  14
M  END
>  <minimizedAffinity>  (1) 
-5.97817945

>  <minimizedRMSD>  (1) 
1.07639635

$$$$
