
     RDKit          3D

 50 53  0  0  0  0  0  0  0  0999 V2000
   45.8440   34.9800   42.9390 C   0  0  0  0  0  0  0  0  0  0  0  0
   44.0920   33.4390   42.2430 C   0  0  0  0  0  0  0  0  0  0  0  0
   44.5530   34.7720   42.2120 C   0  0  0  0  0  0  0  0  0  0  0  0
   43.8030   35.6790   41.5450 C   0  0  0  0  0  0  0  0  0  0  0  0
   42.6780   35.2270   40.9660 N   0  0  0  0  0  0  0  0  0  0  0  0
   42.2420   33.9920   40.9900 C   0  0  0  0  0  0  0  0  0  0  0  0
   42.9690   33.0460   41.6520 N   0  0  0  0  0  0  0  0  0  0  0  0
   40.9980   33.7870   40.2750 C   0  0  0  0  0  0  0  0  0  0  0  0
   39.9370   34.5930   40.5220 C   0  0  0  0  0  0  0  0  0  0  0  0
   38.6960   34.4910   39.8960 C   0  0  0  0  0  0  0  0  0  0  0  0
   38.4840   33.5120   38.9520 C   0  0  0  0  0  0  0  0  0  0  0  0
   39.5310   32.6640   38.6630 C   0  0  0  0  0  0  0  0  0  0  0  0
   39.3440   31.6790   37.7220 C   0  0  0  0  0  0  0  0  0  0  0  0
   40.3560   30.7920   37.3850 C   0  0  0  0  0  0  0  0  0  0  0  0
   41.5590   30.9560   38.0460 C   0  0  0  0  0  0  0  0  0  0  0  0
   41.7130   31.9520   38.9820 C   0  0  0  0  0  0  0  0  0  0  0  0
   40.7220   32.8370   39.3260 C   0  0  0  0  0  0  0  0  0  0  0  0
   46.8810   35.3000   42.1080 O   0  0  0  0  0  0  0  0  0  0  0  0
   47.7340   34.4480   41.4260 C   0  0  0  0  0  0  0  0  0  0  0  0
   47.4930   34.3020   40.1270 C   0  0  0  0  0  0  0  0  0  0  0  0
   48.2770   33.4350   39.1640 C   0  0  0  0  0  0  0  0  0  0  0  0
   47.3690   32.5880   38.5480 O   0  0  0  0  0  0  0  0  0  0  0  0
   45.4170   33.3720   36.9320 O   0  0  0  0  0  0  0  0  0  0  0  0
   46.9120   33.1890   37.0400 P   0  0  1  0  0  0  0  0  0  0  0  0
   47.6190   34.7110   36.7640 O   0  0  0  0  0  0  0  0  0  0  0  0
   47.4610   32.1480   35.8300 O   0  0  0  0  0  0  0  0  0  0  0  0
   48.6410   32.5860   35.2620 C   0  0  0  0  0  0  0  0  0  0  0  0
   48.7380   32.7400   33.7780 C   0  0  0  0  0  0  0  0  0  0  0  0
   49.3880   31.5450   34.4580 C   0  0  0  0  0  0  0  0  0  0  0  0
   45.7105   35.7972   43.6631 H   0  0  0  0  0  0  0  0  0  0  0  0
   46.0996   34.0307   43.4324 H   0  0  0  0  0  0  0  0  0  0  0  0
   44.6906   32.6898   42.7819 H   0  0  0  0  0  0  0  0  0  0  0  0
   44.1000   36.7361   41.4798 H   0  0  0  0  0  0  0  0  0  0  0  0
   40.0648   35.3870   41.2725 H   0  0  0  0  0  0  0  0  0  0  0  0
   37.8881   35.1910   40.1556 H   0  0  0  0  0  0  0  0  0  0  0  0
   37.5127   33.4101   38.4459 H   0  0  0  0  0  0  0  0  0  0  0  0
   38.3672   31.5921   37.2238 H   0  0  0  0  0  0  0  0  0  0  0  0
   40.2094   30.0021   36.6336 H   0  0  0  0  0  0  0  0  0  0  0  0
   42.4005   30.2841   37.8214 H   0  0  0  0  0  0  0  0  0  0  0  0
   42.6873   32.0446   39.4842 H   0  0  0  0  0  0  0  0  0  0  0  0
   48.5604   33.9242   41.9287 H   0  0  0  0  0  0  0  0  0  0  0  0
   46.6435   34.8643   39.7120 H   0  0  0  0  0  0  0  0  0  0  0  0
   48.7774   34.0630   38.4123 H   0  0  0  0  0  0  0  0  0  0  0  0
   49.0510   32.8609   39.6945 H   0  0  0  0  0  0  0  0  0  0  0  0
   47.8200   35.1437   37.6315 H   0  0  0  0  0  0  0  0  0  0  0  0
   48.8634   33.2645   36.0987 H   0  0  0  0  0  0  0  0  0  0  0  0
   49.3645   33.5353   33.3479 H   0  0  0  0  0  0  0  0  0  0  0  0
   48.0123   32.8691   32.9615 H   0  0  0  0  0  0  0  0  0  0  0  0
   48.9646   30.5380   34.3289 H   0  0  0  0  0  0  0  0  0  0  0  0
   50.3991   31.1126   34.4835 H   0  0  0  0  0  0  0  0  0  0  0  0
  3  2  2  0
  3  1  1  0
  4  3  1  0
  5  6  1  0
  5  4  2  0
  6  7  2  0
  7  2  1  0
  8  9  2  0
  8  6  1  0
 10  9  1  0
 11 10  2  0
 12 11  1  0
 12 17  2  0
 13 12  1  0
 14 13  2  0
 14 15  1  0
 15 16  2  0
 16 17  1  0
 17  8  1  0
 18  1  1  0
 19 18  1  0
 20 19  2  0
 21 20  1  0
 22 21  1  0
 24 23  2  0
 24 22  1  0
 25 24  1  0
 26 24  1  0
 27 26  1  0
 28 29  1  0
 28 27  1  0
 29 27  1  0
  1 30  1  0
  1 31  1  0
  2 32  1  0
  4 33  1  0
  9 34  1  0
 10 35  1  0
 11 36  1  0
 13 37  1  0
 14 38  1  0
 15 39  1  0
 16 40  1  0
 19 41  1  0
 20 42  1  0
 21 43  1  0
 21 44  1  0
 25 45  1  0
 27 46  1  0
 28 47  1  0
 28 48  1  0
 29 49  1  0
 29 50  1  0
M  ISO  8  30   8  31   8  32  14  33  14  34  14  35  14  36  14  37  14
M  ISO  8  38  14  39  14  40  14  43   8  44   8  45   3  46  13  47  13
M  ISO  3  48  13  49  13  50  13
M  END
>  <minimizedAffinity>  (1) 
-5.72647333

>  <minimizedRMSD>  (1) 
6.43520546

$$$$
