
     RDKit          3D

 51 56  0  0  1  0  0  0  0  0999 V2000
   47.2320   32.9370   44.3120 C   0  0  0  0  0  0  0  0  0  0  0  0
   47.1900   32.1400   45.4520 C   0  0  0  0  0  0  0  0  0  0  0  0
   46.3230   32.3670   46.5120 C   0  0  0  0  0  0  0  0  0  0  0  0
   45.4380   33.4340   46.4690 C   0  0  0  0  0  0  0  0  0  0  0  0
   45.4560   34.2300   45.3660 C   0  0  0  0  0  0  0  0  0  0  0  0
   44.5810   35.2930   45.3090 C   0  0  0  0  0  0  0  0  0  0  0  0
   44.5360   36.1480   44.2160 C   0  0  0  0  0  0  0  0  0  0  0  0
   45.4210   35.8830   43.1750 C   0  0  0  0  0  0  0  0  0  0  0  0
   46.2880   34.8040   43.2670 C   0  0  0  0  0  0  0  0  0  0  0  0
   46.3280   33.9700   44.3410 C   0  0  0  0  0  0  0  0  0  0  0  0
   47.0450   34.7770   42.0290 C   0  0  0  0  0  0  0  0  0  0  0  0
   48.2160   35.3950   41.6360 C   0  0  0  0  0  0  0  0  0  0  0  0
   48.7450   35.2680   40.3750 C   0  0  0  0  0  0  0  0  0  0  0  0
   48.1290   34.5050   39.4060 C   0  0  0  0  0  0  0  0  0  0  0  0
   46.9570   33.8730   39.7620 C   0  0  0  0  0  0  0  0  0  0  0  0
   46.3730   33.1210   38.7650 C   0  0  0  0  0  0  0  0  0  0  0  0
   45.1990   32.4550   39.0370 C   0  0  0  0  0  0  0  0  0  0  0  0
   44.6210   32.5450   40.2860 C   0  0  0  0  0  0  0  0  0  0  0  0
   45.2560   33.3140   41.2370 C   0  0  0  0  0  0  0  0  0  0  0  0
   46.4320   34.0040   41.0300 C   0  0  0  0  0  0  0  0  0  0  0  0
   48.1490   32.6340   43.2940 N   0  0  0  0  0  0  0  0  0  0  0  0
   49.9480   31.0530   42.4150 C   0  0  1  0  0  0  0  0  0  0  0  0
   48.6200   30.6230   41.8330 C   0  0  0  0  0  0  0  0  0  0  0  0
   48.7420   31.3310   43.1800 C   0  0  2  0  0  0  0  0  0  0  0  0
   52.9440   28.8680   42.6750 C   0  0  0  0  0  0  0  0  0  0  0  0
   52.5680   28.0100   43.7490 C   0  0  0  0  0  0  0  0  0  0  0  0
   51.3010   28.2120   44.3590 C   0  0  0  0  0  0  0  0  0  0  0  0
   50.5050   29.1900   43.9140 N   0  0  0  0  0  0  0  0  0  0  0  0
   50.8950   29.9920   42.8870 C   0  0  0  0  0  0  0  0  0  0  0  0
   52.1110   29.8350   42.2650 N   0  0  0  0  0  0  0  0  0  0  0  0
   47.8798   31.2856   45.5165 H   0  0  0  0  0  0  0  0  0  0  0  0
   46.3379   31.7002   47.3867 H   0  0  0  0  0  0  0  0  0  0  0  0
   44.7442   33.6302   47.2997 H   0  0  0  0  0  0  0  0  0  0  0  0
   43.8987   35.4692   46.1536 H   0  0  0  0  0  0  0  0  0  0  0  0
   43.8345   36.9943   44.1748 H   0  0  0  0  0  0  0  0  0  0  0  0
   45.4329   36.5265   42.2830 H   0  0  0  0  0  0  0  0  0  0  0  0
   48.7503   36.0186   42.3678 H   0  0  0  0  0  0  0  0  0  0  0  0
   49.6834   35.7879   40.1321 H   0  0  0  0  0  0  0  0  0  0  0  0
   48.5530   34.4052   38.3959 H   0  0  0  0  0  0  0  0  0  0  0  0
   46.8367   33.0542   37.7698 H   0  0  0  0  0  0  0  0  0  0  0  0
   44.7198   31.8483   38.2545 H   0  0  0  0  0  0  0  0  0  0  0  0
   43.6825   32.0194   40.5159 H   0  0  0  0  0  0  0  0  0  0  0  0
   44.7919   33.3823   42.2320 H   0  0  0  0  0  0  0  0  0  0  0  0
   48.4028   33.3633   42.6124 H   0  0  0  0  0  0  0  0  0  0  0  0
   50.7830   31.6754   42.0609 H   0  0  0  0  0  0  0  0  0  0  0  0
   48.1961   31.1474   40.9639 H   0  0  0  0  0  0  0  0  0  0  0  0
   48.1806   29.6833   41.4670 H   0  0  0  0  0  0  0  0  0  0  0  0
   48.4768   31.1317   44.2288 H   0  0  0  0  0  0  0  0  0  0  0  0
   53.9186   28.7367   42.1820 H   0  0  0  0  0  0  0  0  0  0  0  0
   53.2411   27.2124   44.0965 H   0  0  0  0  0  0  0  0  0  0  0  0
   50.9773   27.5690   45.1908 H   0  0  0  0  0  0  0  0  0  0  0  0
  1 10  1  0
  1  2  2  0
  2  3  1  0
  4  3  2  0
  5  4  1  0
  6  5  2  0
  7  6  1  0
  8  9  1  0
  8  7  2  0
  9 10  2  0
 10  5  1  0
 11  9  1  0
 12 11  2  0
 13 12  1  0
 14 15  1  0
 14 13  2  0
 15 20  2  0
 16 17  2  0
 16 15  1  0
 17 18  1  0
 18 19  2  0
 20 19  1  0
 20 11  1  0
 21  1  1  0
 22 29  1  0
 22 24  1  0
 23 22  1  0
 23 24  1  0
 24 21  1  0
 25 26  2  0
 26 27  1  0
 28 27  2  0
 29 28  1  0
 30 25  1  0
 30 29  2  0
  2 31  1  0
  3 32  1  0
  4 33  1  0
  6 34  1  0
  7 35  1  0
  8 36  1  0
 12 37  1  0
 13 38  1  0
 14 39  1  0
 16 40  1  0
 17 41  1  0
 18 42  1  0
 19 43  1  0
 21 44  1  0
 22 45  1  6
 23 46  1  0
 23 47  1  0
 24 48  1  1
 25 49  1  0
 26 50  1  0
 27 51  1  0
M  ISO  8  31  14  32  14  33  14  34  14  35  14  36  14  37  14  38  14
M  ISO  8  39  14  40  14  41  14  42  14  43  14  45  13  46  13  47  13
M  ISO  4  48  13  49  14  50  14  51  14
M  END
>  <minimizedAffinity>  (1) 
-6.68205214

>  <minimizedRMSD>  (1) 
2.72312474

$$$$
