
     RDKit          3D

 39 42  0  0  0  0  0  0  0  0999 V2000
   44.8380   35.6050   43.3660 C   0  0  0  0  0  0  0  0  0  0  0  0
   44.3990   34.8030   42.3080 C   0  0  0  0  0  0  0  0  0  0  0  0
   44.4660   33.4440   42.5010 C   0  0  0  0  0  0  0  0  0  0  0  0
   44.9420   32.9750   43.6840 N   0  0  0  0  0  0  0  0  0  0  0  0
   45.3500   33.7820   44.6730 C   0  0  0  0  0  0  0  0  0  0  0  0
   45.3080   35.0930   44.5370 N   0  0  0  0  0  0  0  0  0  0  0  0
   45.8030   32.9580   45.8090 C   0  0  0  0  0  0  0  0  0  0  0  0
   45.3810   33.1430   47.0870 C   0  0  0  0  0  0  0  0  0  0  0  0
   45.7810   32.3950   48.1730 C   0  0  0  0  0  0  0  0  0  0  0  0
   46.6750   31.3670   47.9970 C   0  0  0  0  0  0  0  0  0  0  0  0
   47.1410   31.1280   46.7230 C   0  0  0  0  0  0  0  0  0  0  0  0
   48.0320   30.0950   46.5860 C   0  0  0  0  0  0  0  0  0  0  0  0
   48.5470   29.7870   45.3490 C   0  0  0  0  0  0  0  0  0  0  0  0
   48.1290   30.5540   44.2780 C   0  0  0  0  0  0  0  0  0  0  0  0
   47.2320   31.5780   44.4780 C   0  0  0  0  0  0  0  0  0  0  0  0
   46.6950   31.9180   45.6940 C   0  0  0  0  0  0  0  0  0  0  0  0
   43.9020   35.5030   41.1220 C   0  0  0  0  0  0  0  0  0  0  0  0
   42.5300   35.0600   40.8610 N   0  0  0  0  0  0  0  0  0  0  0  0
   41.5510   35.3970   41.6980 C   0  0  0  0  0  0  0  0  0  0  0  0
   40.2650   34.9430   41.3930 C   0  0  0  0  0  0  0  0  0  0  0  0
   40.0250   34.1750   40.2680 C   0  0  0  0  0  0  0  0  0  0  0  0
   38.8540   33.7850   40.0300 O   0  0  0  0  0  0  0  0  0  0  0  0
   41.0580   33.8560   39.4440 N   0  0  0  0  0  0  0  0  0  0  0  0
   42.3170   34.2980   39.7350 C   0  0  0  0  0  0  0  0  0  0  0  0
   43.2170   33.9660   38.9350 O   0  0  0  0  0  0  0  0  0  0  0  0
   44.8021   36.6980   43.2471 H   0  0  0  0  0  0  0  0  0  0  0  0
   44.1405   32.7492   41.7128 H   0  0  0  0  0  0  0  0  0  0  0  0
   44.6621   33.9553   47.2696 H   0  0  0  0  0  0  0  0  0  0  0  0
   45.3867   32.6198   49.1750 H   0  0  0  0  0  0  0  0  0  0  0  0
   47.0084   30.7537   48.8471 H   0  0  0  0  0  0  0  0  0  0  0  0
   48.3355   29.5114   47.4677 H   0  0  0  0  0  0  0  0  0  0  0  0
   49.2634   28.9627   45.2170 H   0  0  0  0  0  0  0  0  0  0  0  0
   48.5125   30.3463   43.2681 H   0  0  0  0  0  0  0  0  0  0  0  0
   46.9235   32.1657   43.6008 H   0  0  0  0  0  0  0  0  0  0  0  0
   43.9139   36.5885   41.2997 H   0  0  0  0  0  0  0  0  0  0  0  0
   44.5417   35.2778   40.2560 H   0  0  0  0  0  0  0  0  0  0  0  0
   41.7462   36.0072   42.5922 H   0  0  0  0  0  0  0  0  0  0  0  0
   39.4288   35.2010   42.0595 H   0  0  0  0  0  0  0  0  0  0  0  0
   40.8919   33.2835   38.6040 H   0  0  0  0  0  0  0  0  0  0  0  0
  1  6  2  0
  2  3  2  0
  2  1  1  0
  3  4  1  0
  4  5  2  0
  5  7  1  0
  6  5  1  0
  7  8  2  0
  8  9  1  0
 10  9  2  0
 11 10  1  0
 12 11  2  0
 13 12  1  0
 14 15  1  0
 14 13  2  0
 15 16  2  0
 16  7  1  0
 16 11  1  0
 17  2  1  0
 18 17  1  0
 18 19  1  0
 20 19  2  0
 21 20  1  0
 22 21  2  0
 23 24  1  0
 23 21  1  0
 24 18  1  0
 25 24  2  0
  1 26  1  0
  3 27  1  0
  8 28  1  0
  9 29  1  0
 10 30  1  0
 12 31  1  0
 13 32  1  0
 14 33  1  0
 15 34  1  0
 17 35  1  0
 17 36  1  0
 19 37  1  0
 20 38  1  0
 23 39  1  0
M  ISO  8  26  14  27  14  28  14  29  14  30  14  31  14  32  14  33  14
M  ISO  6  34  14  35   8  36   8  37  14  38  14  39   9
M  END
>  <minimizedAffinity>  (1) 
-6.0281601

>  <minimizedRMSD>  (1) 
1.35562718

$$$$
