
     RDKit          3D

 52 56  0  0  1  0  0  0  0  0999 V2000
   49.4910   31.8460   41.6640 C   0  0  0  0  0  0  0  0  0  0  0  0
   50.8580   32.0580   41.9750 C   0  0  0  0  0  0  0  0  0  0  0  0
   51.8380   31.8930   41.0070 C   0  0  0  0  0  0  0  0  0  0  0  0
   51.4050   31.5260   39.7830 N   0  0  0  0  0  0  0  0  0  0  0  0
   50.1040   31.3240   39.4870 C   0  0  0  0  0  0  0  0  0  0  0  0
   49.1780   31.4830   40.4130 N   0  0  0  0  0  0  0  0  0  0  0  0
   49.6730   30.9330   38.0910 C   0  0  2  0  0  0  0  0  0  0  0  0
   50.3920   31.4350   36.9190 C   0  0  0  0  0  0  0  0  0  0  0  0
   49.0750   31.9780   37.2050 C   0  0  1  0  0  0  0  0  0  0  0  0
   47.8690   31.9160   36.4210 C   0  0  0  0  0  0  0  0  0  0  0  0
   46.8450   32.7070   36.9670 C   0  0  0  0  0  0  0  0  0  0  0  0
   45.6120   32.8780   36.4120 C   0  0  0  0  0  0  0  0  0  0  0  0
   45.3000   32.2340   35.2140 C   0  0  0  0  0  0  0  0  0  0  0  0
   46.2790   31.4460   34.6480 C   0  0  0  0  0  0  0  0  0  0  0  0
   46.0770   30.7400   33.4510 C   0  0  0  0  0  0  0  0  0  0  0  0
   47.1070   29.9680   32.9680 C   0  0  0  0  0  0  0  0  0  0  0  0
   48.3440   29.8150   33.5560 C   0  0  0  0  0  0  0  0  0  0  0  0
   48.5350   30.5110   34.7270 C   0  0  0  0  0  0  0  0  0  0  0  0
   47.5230   31.2950   35.2370 C   0  0  0  0  0  0  0  0  0  0  0  0
   48.5180   32.0320   42.7220 C   0  0  0  0  0  0  0  0  0  0  0  0
   48.1750   33.2730   43.0400 C   0  0  0  0  0  0  0  0  0  0  0  0
   47.1960   33.5860   44.0990 C   0  0  0  0  0  0  0  0  0  0  0  0
   44.8250   36.1710   43.2740 C   0  0  1  0  0  0  0  0  0  0  0  0
   46.0840   35.4210   42.8160 C   0  0  0  0  0  0  0  0  0  0  0  0
   45.8930   34.1330   43.5260 C   0  0  2  0  0  0  0  0  0  0  0  0
   44.9330   34.2880   44.4930 O   0  0  0  0  0  0  0  0  0  0  0  0
   44.6580   35.6150   44.6630 C   0  0  0  0  0  0  0  0  0  0  0  0
   45.0740   37.5440   43.2680 O   0  0  0  0  0  0  0  0  0  0  0  0
   51.1444   32.3564   42.9943 H   0  0  0  0  0  0  0  0  0  0  0  0
   52.9045   32.0519   41.2244 H   0  0  0  0  0  0  0  0  0  0  0  0
   49.3843   29.9348   38.4520 H   0  0  0  0  0  0  0  0  0  0  0  0
   50.5346   30.7817   36.0456 H   0  0  0  0  0  0  0  0  0  0  0  0
   51.3867   31.8768   36.7594 H   0  0  0  0  0  0  0  0  0  0  0  0
   48.6521   32.9846   37.3391 H   0  0  0  0  0  0  0  0  0  0  0  0
   47.0537   33.2275   37.9133 H   0  0  0  0  0  0  0  0  0  0  0  0
   44.8673   33.5198   36.9054 H   0  0  0  0  0  0  0  0  0  0  0  0
   44.3137   32.3504   34.7410 H   0  0  0  0  0  0  0  0  0  0  0  0
   45.1193   30.8030   32.9136 H   0  0  0  0  0  0  0  0  0  0  0  0
   46.9279   29.4241   32.0288 H   0  0  0  0  0  0  0  0  0  0  0  0
   49.1268   29.1784   33.1179 H   0  0  0  0  0  0  0  0  0  0  0  0
   49.4965   30.4417   35.2568 H   0  0  0  0  0  0  0  0  0  0  0  0
   48.0776   31.1704   43.2451 H   0  0  0  0  0  0  0  0  0  0  0  0
   48.6402   34.1048   42.4908 H   0  0  0  0  0  0  0  0  0  0  0  0
   46.9780   32.6679   44.6643 H   0  0  0  0  0  0  0  0  0  0  0  0
   47.6328   34.3582   44.7493 H   0  0  0  0  0  0  0  0  0  0  0  0
   43.9293   36.0437   42.6482 H   0  0  0  0  0  0  0  0  0  0  0  0
   46.1036   35.2859   41.7245 H   0  0  0  0  0  0  0  0  0  0  0  0
   47.0324   35.9333   43.0353 H   0  0  0  0  0  0  0  0  0  0  0  0
   45.5511   33.3814   42.7993 H   0  0  0  0  0  0  0  0  0  0  0  0
   45.3671   36.0799   45.3638 H   0  0  0  0  0  0  0  0  0  0  0  0
   43.6616   35.8020   45.0900 H   0  0  0  0  0  0  0  0  0  0  0  0
   45.1336   37.8726   44.2000 H   0  0  0  0  0  0  0  0  0  0  0  0
  1  2  2  0
  1 20  1  0
  3  2  1  0
  4  3  2  0
  5  4  1  0
  5  6  2  0
  6  1  1  0
  7  5  1  0
  8  9  1  0
  8  7  1  0
  9  7  1  0
 10 11  2  0
 10  9  1  0
 12 11  1  0
 13 12  2  0
 14 13  1  0
 14 19  2  0
 15 14  1  0
 16 15  2  0
 16 17  1  0
 17 18  2  0
 18 19  1  0
 19 10  1  0
 20 21  2  0
 21 22  1  0
 23 27  1  0
 24 23  1  0
 24 25  1  0
 25 22  1  0
 25 26  1  0
 26 27  1  0
 28 23  1  0
  2 29  1  0
  3 30  1  0
  7 31  1  1
  8 32  1  0
  8 33  1  0
  9 34  1  1
 11 35  1  0
 12 36  1  0
 13 37  1  0
 15 38  1  0
 16 39  1  0
 17 40  1  0
 18 41  1  0
 20 42  1  0
 21 43  1  0
 22 44  1  0
 22 45  1  0
 23 46  1  6
 24 47  1  0
 24 48  1  0
 25 49  1  6
 27 50  1  0
 27 51  1  0
 28 52  1  0
M  ISO  8  29  14  30  14  31  13  32  13  33  13  34  13  35  14  36  14
M  ISO  8  37  14  38  14  39  14  40  14  41  14  44   8  45   8  46  13
M  ISO  6  47  13  48  13  49  13  50  13  51  13  52   3
M  END
>  <minimizedAffinity>  (1) 
-5.50317383

>  <minimizedRMSD>  (1) 
1.40858674

$$$$
