
     RDKit          3D

 36 39  0  0  0  0  0  0  0  0999 V2000
   44.4690   36.0750   44.7860 C   0  0  0  0  0  0  0  0  0  0  0  0
   45.1080   35.9780   43.5110 C   0  0  0  0  0  0  0  0  0  0  0  0
   45.9160   34.8740   43.3370 C   0  0  0  0  0  0  0  0  0  0  0  0
   46.0200   34.0160   44.3690 N   0  0  0  0  0  0  0  0  0  0  0  0
   45.4310   34.1020   45.5480 C   0  0  0  0  0  0  0  0  0  0  0  0
   44.6380   35.1570   45.7580 N   0  0  0  0  0  0  0  0  0  0  0  0
   46.5840   34.7120   42.0890 N   0  0  0  0  0  0  0  0  0  0  0  0
   47.8440   35.1710   41.9830 C   0  0  0  0  0  0  0  0  0  0  0  0
   48.4920   35.0330   40.7530 C   0  0  0  0  0  0  0  0  0  0  0  0
   47.8150   34.4400   39.7280 C   0  0  0  0  0  0  0  0  0  0  0  0
   48.3920   34.3120   38.6040 O   0  0  0  0  0  0  0  0  0  0  0  0
   46.5610   33.9780   39.8200 N   0  0  0  0  0  0  0  0  0  0  0  0
   45.9670   34.1320   41.0310 C   0  0  0  0  0  0  0  0  0  0  0  0
   44.8010   33.7380   41.2320 O   0  0  0  0  0  0  0  0  0  0  0  0
   45.7810   32.9840   46.4150 C   0  0  0  0  0  0  0  0  0  0  0  0
   45.3230   32.8850   47.7090 C   0  0  0  0  0  0  0  0  0  0  0  0
   45.6250   31.8500   48.5660 C   0  0  0  0  0  0  0  0  0  0  0  0
   46.4350   30.8220   48.1460 C   0  0  0  0  0  0  0  0  0  0  0  0
   46.9150   30.8770   46.8630 C   0  0  0  0  0  0  0  0  0  0  0  0
   47.7240   29.8360   46.4670 C   0  0  0  0  0  0  0  0  0  0  0  0
   48.2530   29.8000   45.2020 C   0  0  0  0  0  0  0  0  0  0  0  0
   47.9270   30.8660   44.3570 C   0  0  0  0  0  0  0  0  0  0  0  0
   47.1120   31.8790   44.8120 C   0  0  0  0  0  0  0  0  0  0  0  0
   46.5850   31.9250   46.0600 C   0  0  0  0  0  0  0  0  0  0  0  0
   43.8118   36.9350   44.9820 H   0  0  0  0  0  0  0  0  0  0  0  0
   44.9651   36.7320   42.7229 H   0  0  0  0  0  0  0  0  0  0  0  0
   48.3493   35.6412   42.8395 H   0  0  0  0  0  0  0  0  0  0  0  0
   49.5220   35.3934   40.6147 H   0  0  0  0  0  0  0  0  0  0  0  0
   46.0793   33.5352   39.0245 H   0  0  0  0  0  0  0  0  0  0  0  0
   44.6711   33.6875   48.0845 H   0  0  0  0  0  0  0  0  0  0  0  0
   45.2175   31.8461   49.5877 H   0  0  0  0  0  0  0  0  0  0  0  0
   46.6887   29.9861   48.8146 H   0  0  0  0  0  0  0  0  0  0  0  0
   47.9489   29.0234   47.1734 H   0  0  0  0  0  0  0  0  0  0  0  0
   48.9003   28.9753   44.8691 H   0  0  0  0  0  0  0  0  0  0  0  0
   48.3210   30.8953   43.3304 H   0  0  0  0  0  0  0  0  0  0  0  0
   46.8743   32.7007   44.1204 H   0  0  0  0  0  0  0  0  0  0  0  0
  1  6  2  0
  2  1  1  0
  3  2  2  0
  3  4  1  0
  4  5  2  0
  5  6  1  0
  5 15  1  0
  7  3  1  0
  8  7  1  0
  9  8  2  0
 10 12  1  0
 10  9  1  0
 11 10  2  0
 12 13  1  0
 13 14  2  0
 13  7  1  0
 15 16  2  0
 16 17  1  0
 18 17  2  0
 19 18  1  0
 20 19  2  0
 21 20  1  0
 22 23  1  0
 22 21  2  0
 23 24  2  0
 24 15  1  0
 24 19  1  0
  1 25  1  0
  2 26  1  0
  8 27  1  0
  9 28  1  0
 12 29  1  0
 16 30  1  0
 17 31  1  0
 18 32  1  0
 20 33  1  0
 21 34  1  0
 22 35  1  0
 23 36  1  0
M  ISO  8  25  14  26  14  27  14  28  14  29   9  30  14  31  14  32  14
M  ISO  4  33  14  34  14  35  14  36  14
M  END
>  <minimizedAffinity>  (1) 
-7.35048676

>  <minimizedRMSD>  (1) 
0.71961838

$$$$
