
     RDKit          3D

 39 42  0  0  0  0  0  0  0  0999 V2000
   45.2290   32.1860   39.7280 Cl  0  0  0  0  0  0  0  0  0  0  0  0
   46.4900   33.1300   38.9810 C   0  0  0  0  0  0  0  0  0  0  0  0
   47.3220   33.9060   39.7400 C   0  0  0  0  0  0  0  0  0  0  0  0
   48.3450   34.6750   39.1680 C   0  0  0  0  0  0  0  0  0  0  0  0
   48.4580   34.6000   37.7930 C   0  0  0  0  0  0  0  0  0  0  0  0
   47.6290   33.8260   37.0350 C   0  0  0  0  0  0  0  0  0  0  0  0
   46.6390   33.0830   37.6120 C   0  0  0  0  0  0  0  0  0  0  0  0
   45.7520   32.2550   36.7930 C   0  0  0  0  0  0  0  0  0  0  0  0
   44.4330   32.1110   37.1810 C   0  0  0  0  0  0  0  0  0  0  0  0
   43.5940   31.3270   36.4040 C   0  0  0  0  0  0  0  0  0  0  0  0
   44.0830   30.7070   35.2680 C   0  0  0  0  0  0  0  0  0  0  0  0
   45.4090   30.8950   34.9430 C   0  0  0  0  0  0  0  0  0  0  0  0
   45.8470   30.2550   33.8020 C   0  0  0  0  0  0  0  0  0  0  0  0
   47.1670   30.4040   33.4220 C   0  0  0  0  0  0  0  0  0  0  0  0
   48.0330   31.1800   34.1730 C   0  0  0  0  0  0  0  0  0  0  0  0
   47.6150   31.8370   35.3310 C   0  0  0  0  0  0  0  0  0  0  0  0
   46.2970   31.6590   35.6680 C   0  0  0  0  0  0  0  0  0  0  0  0
   47.7230   33.1900   43.3370 C   0  0  0  0  0  0  0  0  0  0  0  0
   46.7810   34.0570   43.9230 C   0  0  0  0  0  0  0  0  0  0  0  0
   46.0250   34.8690   43.0790 C   0  0  0  0  0  0  0  0  0  0  0  0
   46.2200   34.8000   41.7400 N   0  0  0  0  0  0  0  0  0  0  0  0
   47.1480   33.9440   41.2010 C   0  0  0  0  0  0  0  0  0  0  0  0
   47.8840   33.1540   41.9950 N   0  0  0  0  0  0  0  0  0  0  0  0
   44.9870   35.8350   43.5910 C   0  0  0  0  0  0  0  0  0  0  0  0
   45.2960   37.1200   43.2330 F   0  0  0  0  0  0  0  0  0  0  0  0
   43.7550   35.4990   43.0310 F   0  0  0  0  0  0  0  0  0  0  0  0
   44.9430   35.6830   44.9550 F   0  0  0  0  0  0  0  0  0  0  0  0
   49.0161   35.2994   39.7761 H   0  0  0  0  0  0  0  0  0  0  0  0
   49.2437   35.1847   37.2922 H   0  0  0  0  0  0  0  0  0  0  0  0
   47.7598   33.7999   35.9431 H   0  0  0  0  0  0  0  0  0  0  0  0
   44.0569   32.6081   38.0873 H   0  0  0  0  0  0  0  0  0  0  0  0
   42.5399   31.1980   36.6907 H   0  0  0  0  0  0  0  0  0  0  0  0
   43.4310   30.0809   34.6411 H   0  0  0  0  0  0  0  0  0  0  0  0
   45.1585   29.6379   33.2061 H   0  0  0  0  0  0  0  0  0  0  0  0
   47.5330   29.9015   32.5145 H   0  0  0  0  0  0  0  0  0  0  0  0
   49.0790   31.2815   33.8482 H   0  0  0  0  0  0  0  0  0  0  0  0
   48.2964   32.4560   35.9331 H   0  0  0  0  0  0  0  0  0  0  0  0
   48.3336   32.5359   43.9768 H   0  0  0  0  0  0  0  0  0  0  0  0
   46.6457   34.0925   45.0141 H   0  0  0  0  0  0  0  0  0  0  0  0
  2  1  1  0
  2  3  2  0
  3 22  1  0
  4  3  1  0
  5  4  2  0
  6  7  2  0
  6  5  1  0
  7  2  1  0
  8  9  2  0
  8  7  1  0
 10  9  1  0
 11 10  2  0
 12 11  1  0
 12 17  2  0
 13 12  1  0
 14 13  2  0
 14 15  1  0
 15 16  2  0
 16 17  1  0
 17  8  1  0
 18 19  2  0
 20 24  1  0
 20 19  1  0
 21 20  2  0
 22 21  1  0
 22 23  2  0
 23 18  1  0
 24 27  1  0
 25 24  1  0
 26 24  1  0
  4 28  1  0
  5 29  1  0
  6 30  1  0
  9 31  1  0
 10 32  1  0
 11 33  1  0
 13 34  1  0
 14 35  1  0
 15 36  1  0
 16 37  1  0
 18 38  1  0
 19 39  1  0
M  ISO  8  28  14  29  14  30  14  31  14  32  14  33  14  34  14  35  14
M  ISO  4  36  14  37  14  38  14  39  14
M  END
>  <minimizedAffinity>  (1) 
-6.10674334

>  <minimizedRMSD>  (1) 
0.145683587

$$$$
