
     RDKit          3D

 43 47  0  0  0  0  0  0  0  0999 V2000
   44.6080   31.8590   41.0500 F   0  0  0  0  0  0  0  0  0  0  0  0
   44.1400   33.1230   40.9990 C   0  0  0  0  0  0  0  0  0  0  0  0
   44.6000   34.0550   41.9140 C   0  0  0  0  0  0  0  0  0  0  0  0
   44.1320   35.3580   41.8780 C   0  0  0  0  0  0  0  0  0  0  0  0
   43.2090   35.7740   40.9540 C   0  0  0  0  0  0  0  0  0  0  0  0
   42.7640   34.8480   40.0590 C   0  0  0  0  0  0  0  0  0  0  0  0
   43.2020   33.5430   40.0590 C   0  0  0  0  0  0  0  0  0  0  0  0
   42.7700   32.4900   39.1310 C   0  0  0  0  0  0  0  0  0  0  0  0
   41.6370   31.7350   39.3580 C   0  0  0  0  0  0  0  0  0  0  0  0
   41.3590   30.7850   38.3970 C   0  0  0  0  0  0  0  0  0  0  0  0
   42.1340   30.5730   37.2760 C   0  0  0  0  0  0  0  0  0  0  0  0
   43.2690   31.3550   37.0800 C   0  0  0  0  0  0  0  0  0  0  0  0
   44.0410   31.1410   35.9580 C   0  0  0  0  0  0  0  0  0  0  0  0
   45.1780   31.9070   35.7390 C   0  0  0  0  0  0  0  0  0  0  0  0
   45.4820   32.8720   36.6910 C   0  0  0  0  0  0  0  0  0  0  0  0
   44.7020   33.0760   37.8110 C   0  0  0  0  0  0  0  0  0  0  0  0
   43.5710   32.3100   38.0210 C   0  0  0  0  0  0  0  0  0  0  0  0
   46.2450   33.0290   44.8540 C   0  0  0  0  0  0  0  0  0  0  0  0
   47.3140   33.5220   44.1150 C   0  0  0  0  0  0  0  0  0  0  0  0
   46.8570   33.9750   42.9180 C   0  0  0  0  0  0  0  0  0  0  0  0
   45.5410   33.7690   42.9100 N   0  0  0  0  0  0  0  0  0  0  0  0
   45.1830   33.2020   44.0740 N   0  0  0  0  0  0  0  0  0  0  0  0
   47.3420   30.9940   47.6940 C   0  0  0  0  0  0  0  0  0  0  0  0
   46.4800   31.4140   48.7160 C   0  0  0  0  0  0  0  0  0  0  0  0
   45.5310   32.3930   48.4190 C   0  0  0  0  0  0  0  0  0  0  0  0
   45.5200   32.8610   47.1560 N   0  0  0  0  0  0  0  0  0  0  0  0
   46.3390   32.4640   46.1780 C   0  0  0  0  0  0  0  0  0  0  0  0
   47.2760   31.5120   46.4310 N   0  0  0  0  0  0  0  0  0  0  0  0
   44.5129   36.0815   42.6138 H   0  0  0  0  0  0  0  0  0  0  0  0
   42.8431   36.8112   40.9358 H   0  0  0  0  0  0  0  0  0  0  0  0
   42.0242   35.1560   39.3054 H   0  0  0  0  0  0  0  0  0  0  0  0
   41.0003   31.8806   40.2431 H   0  0  0  0  0  0  0  0  0  0  0  0
   40.4650   30.1586   38.5331 H   0  0  0  0  0  0  0  0  0  0  0  0
   41.8591   29.7967   36.5468 H   0  0  0  0  0  0  0  0  0  0  0  0
   43.7557   30.3623   35.2353 H   0  0  0  0  0  0  0  0  0  0  0  0
   45.8099   31.7565   34.8513 H   0  0  0  0  0  0  0  0  0  0  0  0
   46.3765   33.4958   36.5469 H   0  0  0  0  0  0  0  0  0  0  0  0
   44.9816   33.8513   38.5395 H   0  0  0  0  0  0  0  0  0  0  0  0
   48.3627   33.5423   44.4462 H   0  0  0  0  0  0  0  0  0  0  0  0
   47.4569   34.4242   42.1128 H   0  0  0  0  0  0  0  0  0  0  0  0
   48.0952   30.2234   47.9152 H   0  0  0  0  0  0  0  0  0  0  0  0
   46.5496   30.9833   49.7258 H   0  0  0  0  0  0  0  0  0  0  0  0
   44.8270   32.7640   49.1784 H   0  0  0  0  0  0  0  0  0  0  0  0
  2  1  1  0
  2  3  2  0
  3 21  1  0
  4  3  1  0
  5  4  2  0
  6  5  1  0
  7  6  2  0
  7  2  1  0
  8  9  2  0
  8  7  1  0
 10  9  1  0
 11 10  2  0
 12 11  1  0
 12 17  2  0
 13 12  1  0
 14 13  2  0
 14 15  1  0
 15 16  2  0
 16 17  1  0
 17  8  1  0
 18 27  1  0
 19 18  1  0
 20 19  2  0
 21 20  1  0
 21 22  1  0
 22 18  2  0
 23 24  2  0
 25 24  1  0
 26 25  2  0
 27 28  2  0
 27 26  1  0
 28 23  1  0
  4 29  1  0
  5 30  1  0
  6 31  1  0
  9 32  1  0
 10 33  1  0
 11 34  1  0
 13 35  1  0
 14 36  1  0
 15 37  1  0
 16 38  1  0
 19 39  1  0
 20 40  1  0
 23 41  1  0
 24 42  1  0
 25 43  1  0
M  ISO  8  29  14  30  14  31  14  32  14  33  14  34  14  35  14  36  14
M  ISO  7  37  14  38  14  39  14  40  14  41  14  42  14  43  14
M  END
>  <minimizedAffinity>  (1) 
-5.72903538

>  <minimizedRMSD>  (1) 
1.38615489

$$$$
