
     RDKit          3D

 44 47  0  0  0  0  0  0  0  0999 V2000
   44.8050   35.1440   44.9350 C   0  0  0  0  0  0  0  0  0  0  0  0
   45.6970   34.7560   43.9300 C   0  0  0  0  0  0  0  0  0  0  0  0
   46.5990   33.7150   44.2330 C   0  0  0  0  0  0  0  0  0  0  0  0
   46.5580   33.1580   45.4520 N   0  0  0  0  0  0  0  0  0  0  0  0
   45.6890   33.5570   46.3860 C   0  0  0  0  0  0  0  0  0  0  0  0
   44.8130   34.5480   46.1370 N   0  0  0  0  0  0  0  0  0  0  0  0
   47.5490   33.3690   43.1760 C   0  0  0  0  0  0  0  0  0  0  0  0
   48.7350   34.1170   43.1380 C   0  0  0  0  0  0  0  0  0  0  0  0
   49.6850   33.8930   42.1680 C   0  0  0  0  0  0  0  0  0  0  0  0
   49.4240   32.9070   41.2390 C   0  0  0  0  0  0  0  0  0  0  0  0
   48.2560   32.1240   41.2240 C   0  0  0  0  0  0  0  0  0  0  0  0
   48.0410   31.1420   40.2870 C   0  0  0  0  0  0  0  0  0  0  0  0
   46.8520   30.4070   40.3660 C   0  0  0  0  0  0  0  0  0  0  0  0
   45.9160   30.6610   41.3570 C   0  0  0  0  0  0  0  0  0  0  0  0
   46.1320   31.6560   42.3060 C   0  0  0  0  0  0  0  0  0  0  0  0
   47.3230   32.3940   42.2340 C   0  0  0  0  0  0  0  0  0  0  0  0
   45.6520   35.4650   42.6210 C   0  0  0  0  0  0  0  0  0  0  0  0
   44.8350   36.5640   42.8560 F   0  0  0  0  0  0  0  0  0  0  0  0
   45.0480   34.6040   41.7300 F   0  0  0  0  0  0  0  0  0  0  0  0
   46.9030   35.8380   42.2700 F   0  0  0  0  0  0  0  0  0  0  0  0
   45.6160   32.9990   47.6550 O   0  0  0  0  0  0  0  0  0  0  0  0
   45.0490   31.7210   47.8530 C   0  0  0  0  0  0  0  0  0  0  0  0
   46.1300   30.7330   47.8370 C   0  0  0  0  0  0  0  0  0  0  0  0
   46.2020   29.4750   47.2610 C   0  0  0  0  0  0  0  0  0  0  0  0
   47.3640   28.7710   47.4150 C   0  0  0  0  0  0  0  0  0  0  0  0
   48.4080   29.2360   48.0830 N   0  0  0  0  0  0  0  0  0  0  0  0
   48.3350   30.4590   48.6430 C   0  0  0  0  0  0  0  0  0  0  0  0
   47.1900   31.2170   48.5230 N   0  0  0  0  0  0  0  0  0  0  0  0
   49.5480   30.9100   49.3820 C   0  0  0  0  0  0  0  0  0  0  0  0
   49.6570   32.2690   49.3780 F   0  0  0  0  0  0  0  0  0  0  0  0
   50.6880   30.3600   48.7710 F   0  0  0  0  0  0  0  0  0  0  0  0
   49.5290   30.4810   50.6980 F   0  0  0  0  0  0  0  0  0  0  0  0
   44.0848   35.9514   44.7366 H   0  0  0  0  0  0  0  0  0  0  0  0
   48.9085   34.8952   43.8958 H   0  0  0  0  0  0  0  0  0  0  0  0
   50.6163   34.4774   42.1346 H   0  0  0  0  0  0  0  0  0  0  0  0
   50.1780   32.7214   40.4599 H   0  0  0  0  0  0  0  0  0  0  0  0
   48.7809   30.9395   39.4986 H   0  0  0  0  0  0  0  0  0  0  0  0
   46.6569   29.6141   39.6290 H   0  0  0  0  0  0  0  0  0  0  0  0
   44.9902   30.0681   41.3937 H   0  0  0  0  0  0  0  0  0  0  0  0
   45.3888   31.8583   43.0914 H   0  0  0  0  0  0  0  0  0  0  0  0
   44.5305   31.6899   48.8226 H   0  0  0  0  0  0  0  0  0  0  0  0
   44.3215   31.5009   47.0579 H   0  0  0  0  0  0  0  0  0  0  0  0
   45.3537   29.0570   46.6992 H   0  0  0  0  0  0  0  0  0  0  0  0
   47.4346   27.7709   46.9624 H   0  0  0  0  0  0  0  0  0  0  0  0
  1  6  2  0
  2  3  2  0
  2  1  1  0
  3  4  1  0
  4  5  2  0
  5 21  1  0
  6  5  1  0
  7  3  1  0
  8  7  2  0
  9  8  1  0
 10  9  2  0
 11 10  1  0
 11 16  2  0
 12 13  2  0
 12 11  1  0
 13 14  1  0
 14 15  2  0
 16 15  1  0
 16  7  1  0
 17 18  1  0
 17  2  1  0
 19 17  1  0
 20 17  1  0
 21 22  1  0
 23 22  1  0
 23 28  2  0
 24 25  2  0
 24 23  1  0
 25 26  1  0
 26 27  2  0
 27 29  1  0
 28 27  1  0
 29 32  1  0
 30 29  1  0
 31 29  1  0
  1 33  1  0
  8 34  1  0
  9 35  1  0
 10 36  1  0
 12 37  1  0
 13 38  1  0
 14 39  1  0
 15 40  1  0
 22 41  1  0
 22 42  1  0
 24 43  1  0
 25 44  1  0
M  ISO  8  33  14  34  14  35  14  36  14  37  14  38  14  39  14  40  14
M  ISO  4  41   8  42   8  43  14  44  14
M  END
>  <minimizedAffinity>  (1) 
-6.50523281

>  <minimizedRMSD>  (1) 
0.918079853

$$$$
