
     RDKit          3D

 46 50  0  0  0  0  0  0  0  0999 V2000
   45.5810   32.5370   39.9520 Cl  0  0  0  0  0  0  0  0  0  0  0  0
   46.9090   33.6490   39.8310 C   0  0  0  0  0  0  0  0  0  0  0  0
   47.3950   34.2730   40.9430 C   0  0  0  0  0  0  0  0  0  0  0  0
   48.4530   35.1650   40.8830 C   0  0  0  0  0  0  0  0  0  0  0  0
   48.9910   35.3880   39.6300 C   0  0  0  0  0  0  0  0  0  0  0  0
   48.5020   34.7610   38.5010 C   0  0  0  0  0  0  0  0  0  0  0  0
   47.4760   33.9010   38.5900 C   0  0  0  0  0  0  0  0  0  0  0  0
   46.4480   32.5670   44.0680 C   0  0  0  0  0  0  0  0  0  0  0  0
   45.6030   33.5260   44.7000 C   0  0  0  0  0  0  0  0  0  0  0  0
   45.3810   34.7270   44.0410 C   0  0  0  0  0  0  0  0  0  0  0  0
   45.9780   34.9360   42.8260 N   0  0  0  0  0  0  0  0  0  0  0  0
   46.7780   33.9960   42.2530 C   0  0  0  0  0  0  0  0  0  0  0  0
   47.0000   32.8330   42.8800 N   0  0  0  0  0  0  0  0  0  0  0  0
   44.5110   35.8200   44.6020 C   0  0  0  0  0  0  0  0  0  0  0  0
   45.0590   37.0520   44.3490 F   0  0  0  0  0  0  0  0  0  0  0  0
   43.2670   35.7390   44.0050 F   0  0  0  0  0  0  0  0  0  0  0  0
   44.4150   35.5800   45.9430 F   0  0  0  0  0  0  0  0  0  0  0  0
   46.9350   33.2250   37.4130 C   0  0  0  0  0  0  0  0  0  0  0  0
   45.6230   33.2560   36.9880 C   0  0  0  0  0  0  0  0  0  0  0  0
   45.5070   32.5020   35.8520 C   0  0  0  0  0  0  0  0  0  0  0  0
   46.7800   32.0200   35.6100 C   0  0  0  0  0  0  0  0  0  0  0  0
   47.5500   32.4810   36.5550 O   0  0  0  0  0  0  0  0  0  0  0  0
   46.9930   31.1660   34.4490 C   0  0  0  0  0  0  0  0  0  0  0  0
   46.4720   29.8790   34.3510 C   0  0  0  0  0  0  0  0  0  0  0  0
   46.6590   29.0550   33.2700 C   0  0  0  0  0  0  0  0  0  0  0  0
   47.3980   29.4810   32.1970 C   0  0  0  0  0  0  0  0  0  0  0  0
   47.9400   30.7470   32.2400 C   0  0  0  0  0  0  0  0  0  0  0  0
   48.6790   31.1540   31.1500 C   0  0  0  0  0  0  0  0  0  0  0  0
   49.2520   32.4080   31.1230 C   0  0  0  0  0  0  0  0  0  0  0  0
   49.0590   33.2460   32.2280 C   0  0  0  0  0  0  0  0  0  0  0  0
   48.3060   32.7620   33.2760 C   0  0  0  0  0  0  0  0  0  0  0  0
   47.7170   31.5260   33.3520 C   0  0  0  0  0  0  0  0  0  0  0  0
   48.8424   35.6669   41.7810 H   0  0  0  0  0  0  0  0  0  0  0  0
   49.8348   36.0864   39.5287 H   0  0  0  0  0  0  0  0  0  0  0  0
   48.9571   34.9682   37.5212 H   0  0  0  0  0  0  0  0  0  0  0  0
   46.6466   31.6036   44.5604 H   0  0  0  0  0  0  0  0  0  0  0  0
   45.1423   33.3207   45.6776 H   0  0  0  0  0  0  0  0  0  0  0  0
   44.8034   33.7985   37.4819 H   0  0  0  0  0  0  0  0  0  0  0  0
   44.5982   32.3191   35.2599 H   0  0  0  0  0  0  0  0  0  0  0  0
   45.8734   29.4991   35.1921 H   0  0  0  0  0  0  0  0  0  0  0  0
   46.2143   28.0489   33.2644 H   0  0  0  0  0  0  0  0  0  0  0  0
   47.5542   28.8294   31.3247 H   0  0  0  0  0  0  0  0  0  0  0  0
   48.8126   30.4739   30.2958 H   0  0  0  0  0  0  0  0  0  0  0  0
   49.8441   32.7406   30.2577 H   0  0  0  0  0  0  0  0  0  0  0  0
   49.4935   34.2561   32.2586 H   0  0  0  0  0  0  0  0  0  0  0  0
   48.1635   33.4331   34.1359 H   0  0  0  0  0  0  0  0  0  0  0  0
  2  1  1  0
  2  3  2  0
  3 12  1  0
  4  3  1  0
  5  4  2  0
  6  7  2  0
  6  5  1  0
  7  2  1  0
  8  9  2  0
 10 14  1  0
 10  9  1  0
 11 10  2  0
 12 11  1  0
 12 13  2  0
 13  8  1  0
 14 17  1  0
 15 14  1  0
 16 14  1  0
 18  7  1  0
 19 18  2  0
 20 19  1  0
 21 20  2  0
 21 22  1  0
 22 18  1  0
 23 21  1  0
 24 23  2  0
 25 24  1  0
 26 27  1  0
 26 25  2  0
 27 32  2  0
 28 27  1  0
 29 28  2  0
 29 30  1  0
 30 31  2  0
 31 32  1  0
 32 23  1  0
  4 33  1  0
  5 34  1  0
  6 35  1  0
  8 36  1  0
  9 37  1  0
 19 38  1  0
 20 39  1  0
 24 40  1  0
 25 41  1  0
 26 42  1  0
 28 43  1  0
 29 44  1  0
 30 45  1  0
 31 46  1  0
M  END
>  <minimizedAffinity>  (1) 
-7.40762949

>  <minimizedRMSD>  (1) 
2.84095168

$$$$
