
     RDKit          3D

 41 44  0  0  1  0  0  0  0  0999 V2000
   48.2340   34.6430   41.3090 C   0  0  1  0  0  0  0  0  0  0  0  0
   48.8420   36.0030   41.8360 C   0  0  0  0  0  0  0  0  0  0  0  0
   49.1330   34.7040   42.4560 C   0  0  2  0  0  0  0  0  0  0  0  0
   46.7590   34.5870   41.5080 C   0  0  0  0  0  0  0  0  0  0  0  0
   46.0670   34.3250   40.5290 O   0  0  0  0  0  0  0  0  0  0  0  0
   45.3730   35.9220   43.0250 C   0  0  0  0  0  0  0  0  0  0  0  0
   46.1020   34.8130   42.7540 C   0  0  0  0  0  0  0  0  0  0  0  0
   46.1990   33.8340   43.7810 C   0  0  0  0  0  0  0  0  0  0  0  0
   45.5830   34.0220   44.9720 N   0  0  0  0  0  0  0  0  0  0  0  0
   44.8610   35.1600   45.1920 C   0  0  0  0  0  0  0  0  0  0  0  0
   44.7660   36.0740   44.2400 N   0  0  0  0  0  0  0  0  0  0  0  0
   50.4630   34.3110   42.3310 O   0  0  0  0  0  0  0  0  0  0  0  0
   49.6110   31.9500   42.9370 O   0  0  0  0  0  0  0  0  0  0  0  0
   50.4390   32.6700   41.8880 P   0  0  2  0  0  0  0  0  0  0  0  0
   51.9530   32.0020   41.7220 O   0  0  0  0  0  0  0  0  0  0  0  0
   49.5210   32.5260   40.4320 O   0  0  0  0  0  0  0  0  0  0  0  0
   49.8310   31.6490   39.4290 C   0  0  0  0  0  0  0  0  0  0  0  0
   50.4810   30.4490   39.4990 C   0  0  0  0  0  0  0  0  0  0  0  0
   50.7280   29.6610   38.3950 C   0  0  0  0  0  0  0  0  0  0  0  0
   50.3110   30.0740   37.1460 C   0  0  0  0  0  0  0  0  0  0  0  0
   49.6490   31.2910   37.0550 C   0  0  0  0  0  0  0  0  0  0  0  0
   49.2480   31.6690   35.7810 C   0  0  0  0  0  0  0  0  0  0  0  0
   48.5830   32.8700   35.6190 C   0  0  0  0  0  0  0  0  0  0  0  0
   48.3270   33.6710   36.7090 C   0  0  0  0  0  0  0  0  0  0  0  0
   48.7510   33.2370   37.9370 C   0  0  0  0  0  0  0  0  0  0  0  0
   49.4140   32.0620   38.1750 C   0  0  0  0  0  0  0  0  0  0  0  0
   48.2262   34.0183   40.4036 H   0  0  0  0  0  0  0  0  0  0  0  0
   49.6143   36.5305   41.2570 H   0  0  0  0  0  0  0  0  0  0  0  0
   48.4469   36.9732   42.1715 H   0  0  0  0  0  0  0  0  0  0  0  0
   49.0241   34.2701   43.4609 H   0  0  0  0  0  0  0  0  0  0  0  0
   45.2687   36.7065   42.2610 H   0  0  0  0  0  0  0  0  0  0  0  0
   46.7795   32.9161   43.6063 H   0  0  0  0  0  0  0  0  0  0  0  0
   44.3595   35.3165   46.1585 H   0  0  0  0  0  0  0  0  0  0  0  0
   52.3386   31.8318   42.6178 H   0  0  0  0  0  0  0  0  0  0  0  0
   50.8233   30.0951   40.4826 H   0  0  0  0  0  0  0  0  0  0  0  0
   51.2572   28.7035   38.5097 H   0  0  0  0  0  0  0  0  0  0  0  0
   50.4968   29.4597   36.2526 H   0  0  0  0  0  0  0  0  0  0  0  0
   49.4559   31.0237   34.9148 H   0  0  0  0  0  0  0  0  0  0  0  0
   48.2577   33.1864   34.6170 H   0  0  0  0  0  0  0  0  0  0  0  0
   47.7986   34.6293   36.5973 H   0  0  0  0  0  0  0  0  0  0  0  0
   48.5424   33.8840   38.8018 H   0  0  0  0  0  0  0  0  0  0  0  0
  1  4  1  0
  1  2  1  0
  1  3  1  0
  2  3  1  0
  4  7  1  0
  5  4  2  0
  6 11  2  0
  7  6  1  0
  7  8  2  0
  8  9  1  0
  9 10  2  0
 11 10  1  0
 12  3  1  0
 14 12  1  0
 14 13  2  0
 15 14  1  0
 16 14  1  0
 17 18  2  0
 17 16  1  0
 19 18  1  0
 20 19  2  0
 21 20  1  0
 21 26  2  0
 22 21  1  0
 23 22  2  0
 23 24  1  0
 24 25  2  0
 25 26  1  0
 26 17  1  0
  1 27  1  6
  2 28  1  0
  2 29  1  0
  3 30  1  1
  6 31  1  0
  8 32  1  0
 10 33  1  0
 15 34  1  0
 18 35  1  0
 19 36  1  0
 20 37  1  0
 22 38  1  0
 23 39  1  0
 24 40  1  0
 25 41  1  0
M  ISO  8  27  13  28  13  29  13  30  13  31  14  32  14  33  14  34   3
M  ISO  7  35  14  36  14  37  14  38  14  39  14  40  14  41  14
M  END
>  <minimizedAffinity>  (1) 
-5.68233776

>  <minimizedRMSD>  (1) 
1.30685973

$$$$
