
     RDKit          3D

 40 43  0  0  0  0  0  0  0  0999 V2000
   45.4160   32.8730   41.4670 F   0  0  0  0  0  0  0  0  0  0  0  0
   46.4800   33.6850   41.2030 C   0  0  0  0  0  0  0  0  0  0  0  0
   46.8620   34.6670   42.0810 C   0  0  0  0  0  0  0  0  0  0  0  0
   47.9390   35.4340   41.7360 C   0  0  0  0  0  0  0  0  0  0  0  0
   48.6560   35.2740   40.5630 C   0  0  0  0  0  0  0  0  0  0  0  0
   48.2290   34.2820   39.7290 C   0  0  0  0  0  0  0  0  0  0  0  0
   47.1550   33.4830   40.0240 C   0  0  0  0  0  0  0  0  0  0  0  0
   44.4740   35.9490   44.7330 C   0  0  0  0  0  0  0  0  0  0  0  0
   45.1840   35.8430   43.5320 C   0  0  0  0  0  0  0  0  0  0  0  0
   46.0950   34.8240   43.3160 C   0  0  0  0  0  0  0  0  0  0  0  0
   46.2420   33.9410   44.3580 N   0  0  0  0  0  0  0  0  0  0  0  0
   45.5490   34.0590   45.5070 C   0  0  0  0  0  0  0  0  0  0  0  0
   44.6760   35.0480   45.6970 N   0  0  0  0  0  0  0  0  0  0  0  0
   46.7170   32.4250   39.1130 C   0  0  0  0  0  0  0  0  0  0  0  0
   46.9660   31.0680   39.2420 C   0  0  0  0  0  0  0  0  0  0  0  0
   46.3670   30.4210   38.1550 C   0  0  0  0  0  0  0  0  0  0  0  0
   45.7970   31.3870   37.4320 N   0  0  0  0  0  0  0  0  0  0  0  0
   45.9910   32.5820   37.9820 N   0  0  0  0  0  0  0  0  0  0  0  0
   45.6400   30.8650   34.9750 C   0  0  0  0  0  0  0  0  0  0  0  0
   45.1000   31.0290   36.2440 C   0  0  0  0  0  0  0  0  0  0  0  0
   43.7320   30.8280   36.4060 C   0  0  0  0  0  0  0  0  0  0  0  0
   42.9060   30.4740   35.3410 C   0  0  0  0  0  0  0  0  0  0  0  0
   43.4720   30.3150   34.0740 C   0  0  0  0  0  0  0  0  0  0  0  0
   44.8260   30.5130   33.9190 C   0  0  0  0  0  0  0  0  0  0  0  0
   47.3620   31.1310   34.8420 S   0  0  0  0  0  0  0  0  0  0  0  0
   47.7040   32.5940   34.9360 O   0  0  0  0  0  0  0  0  0  0  0  0
   47.7720   30.6170   33.4810 O   0  0  0  0  0  0  0  0  0  0  0  0
   48.2548   36.2254   42.4317 H   0  0  0  0  0  0  0  0  0  0  0  0
   49.5197   35.9094   40.3174 H   0  0  0  0  0  0  0  0  0  0  0  0
   48.7672   34.1172   38.7839 H   0  0  0  0  0  0  0  0  0  0  0  0
   43.7551   36.7682   44.8816 H   0  0  0  0  0  0  0  0  0  0  0  0
   45.0139   36.5876   42.7404 H   0  0  0  0  0  0  0  0  0  0  0  0
   45.7074   33.3215   46.3076 H   0  0  0  0  0  0  0  0  0  0  0  0
   47.5323   30.5861   40.0526 H   0  0  0  0  0  0  0  0  0  0  0  0
   46.3662   29.3419   37.9414 H   0  0  0  0  0  0  0  0  0  0  0  0
   43.2895   30.9524   37.4054 H   0  0  0  0  0  0  0  0  0  0  0  0
   41.8275   30.3225   35.4954 H   0  0  0  0  0  0  0  0  0  0  0  0
   42.8461   30.0360   33.2135 H   0  0  0  0  0  0  0  0  0  0  0  0
   45.2722   30.3864   32.9216 H   0  0  0  0  0  0  0  0  0  0  0  0
   48.0138   30.4891   35.8618 H   0  0  0  0  0  0  0  0  0  0  0  0
  2  1  1  0
  2  3  2  0
  3 10  1  0
  4  3  1  0
  5  4  2  0
  6  7  2  0
  6  5  1  0
  7  2  1  0
  8 13  2  0
  9  8  1  0
 10  9  2  0
 10 11  1  0
 11 12  2  0
 12 13  1  0
 14 15  1  0
 14  7  1  0
 16 15  2  0
 17 18  1  0
 17 16  1  0
 18 14  2  0
 19 20  2  0
 20 21  1  0
 20 17  1  0
 22 21  2  0
 23 22  1  0
 24 23  2  0
 24 19  1  0
 25 26  2  0
 25 19  1  0
 27 25  2  0
  4 28  1  0
  5 29  1  0
  6 30  1  0
  8 31  1  0
  9 32  1  0
 12 33  1  0
 15 34  1  0
 16 35  1  0
 21 36  1  0
 22 37  1  0
 23 38  1  0
 24 39  1  0
 25 40  1  0
M  ISO  8  28  14  29  14  30  14  31  14  32  14  33  14  34  14  35  14
M  ISO  5  36  14  37  14  38  14  39  14  40  11
M  END
>  <minimizedAffinity>  (1) 
-5.9857707

>  <minimizedRMSD>  (1) 
1.39889014

$$$$
