
     RDKit          3D

 35 37  0  0  0  0  0  0  0  0999 V2000
   45.3320   33.2020   41.1190 F   0  0  0  0  0  0  0  0  0  0  0  0
   46.4490   33.9050   40.9500 C   0  0  0  0  0  0  0  0  0  0  0  0
   46.8950   34.7590   41.9480 C   0  0  0  0  0  0  0  0  0  0  0  0
   48.0390   35.5100   41.8310 C   0  0  0  0  0  0  0  0  0  0  0  0
   48.8070   35.4330   40.6700 C   0  0  0  0  0  0  0  0  0  0  0  0
   48.3230   34.5650   39.6940 C   0  0  0  0  0  0  0  0  0  0  0  0
   47.1810   33.8030   39.7890 C   0  0  0  0  0  0  0  0  0  0  0  0
   45.4940   34.0210   45.2710 C   0  0  0  0  0  0  0  0  0  0  0  0
   44.6650   35.1320   45.4910 C   0  0  0  0  0  0  0  0  0  0  0  0
   44.5850   36.1420   44.4950 C   0  0  0  0  0  0  0  0  0  0  0  0
   45.3390   35.9530   43.3680 N   0  0  0  0  0  0  0  0  0  0  0  0
   46.1200   34.8760   43.1920 C   0  0  0  0  0  0  0  0  0  0  0  0
   46.1900   33.9280   44.1380 N   0  0  0  0  0  0  0  0  0  0  0  0
   45.5600   33.0310   46.2690 N   0  0  0  0  0  0  0  0  0  0  0  0
   47.1730   31.6130   38.5650 C   0  0  0  0  0  0  0  0  0  0  0  0
   46.7870   32.9300   38.6870 C   0  0  0  0  0  0  0  0  0  0  0  0
   45.9640   33.4630   37.6900 C   0  0  0  0  0  0  0  0  0  0  0  0
   45.5620   32.6810   36.6250 C   0  0  0  0  0  0  0  0  0  0  0  0
   45.9540   31.3570   36.5080 C   0  0  0  0  0  0  0  0  0  0  0  0
   46.7670   30.8530   37.5040 C   0  0  0  0  0  0  0  0  0  0  0  0
   48.1990   30.9680   39.8160 S   0  0  0  0  0  0  0  0  0  0  0  0
   48.0370   29.4690   39.8130 O   0  0  0  0  0  0  0  0  0  0  0  0
   49.6250   31.2410   39.3760 O   0  0  0  0  0  0  0  0  0  0  0  0
   48.3491   36.1719   42.6530 H   0  0  0  0  0  0  0  0  0  0  0  0
   49.7297   36.0163   40.5343 H   0  0  0  0  0  0  0  0  0  0  0  0
   48.9054   34.4812   38.7646 H   0  0  0  0  0  0  0  0  0  0  0  0
   44.0852   35.2195   46.4217 H   0  0  0  0  0  0  0  0  0  0  0  0
   43.9495   37.0307   44.6229 H   0  0  0  0  0  0  0  0  0  0  0  0
   46.1598   32.2044   46.1355 H   0  0  0  0  0  0  0  0  0  0  0  0
   45.0085   33.1331   47.1329 H   0  0  0  0  0  0  0  0  0  0  0  0
   45.6350   34.5107   37.7543 H   0  0  0  0  0  0  0  0  0  0  0  0
   44.9151   33.1197   35.8510 H   0  0  0  0  0  0  0  0  0  0  0  0
   45.6319   30.7353   35.6596 H   0  0  0  0  0  0  0  0  0  0  0  0
   47.0986   29.8060   37.4415 H   0  0  0  0  0  0  0  0  0  0  0  0
   47.9039   31.5062   41.0408 H   0  0  0  0  0  0  0  0  0  0  0  0
  2  1  1  0
  2  3  2  0
  3 12  1  0
  4  3  1  0
  5  4  2  0
  6  7  2  0
  6  5  1  0
  7  2  1  0
  8  9  2  0
  8 14  1  0
 10  9  1  0
 11 10  2  0
 12 11  1  0
 12 13  2  0
 13  8  1  0
 15 16  2  0
 15 21  1  0
 16  7  1  0
 17 16  1  0
 18 17  2  0
 19 18  1  0
 19 20  2  0
 20 15  1  0
 22 21  2  0
 23 21  2  0
  4 24  1  0
  5 25  1  0
  6 26  1  0
  9 27  1  0
 10 28  1  0
 14 29  1  0
 14 30  1  0
 17 31  1  0
 18 32  1  0
 19 33  1  0
 20 34  1  0
 21 35  1  0
M  ISO  8  24  14  25  14  26  14  27  14  28  14  31  14  32  14  33  14
M  ISO  2  34  14  35  11
M  END
>  <minimizedAffinity>  (1) 
-5.73734856

>  <minimizedRMSD>  (1) 
1.55613947

$$$$
