
     RDKit          3D

 54 57  0  0  1  0  0  0  0  0999 V2000
   45.3690   30.1990   47.1660 C   0  0  0  0  0  0  0  0  0  0  0  0
   44.9850   34.8150   44.9600 C   0  0  0  0  0  0  0  0  0  0  0  0
   45.8400   34.6510   43.8340 C   0  0  0  0  0  0  0  0  0  0  0  0
   46.8700   33.7240   43.9200 C   0  0  0  0  0  0  0  0  0  0  0  0
   47.0030   33.0240   45.0770 N   0  0  0  0  0  0  0  0  0  0  0  0
   46.2060   33.1760   46.1270 C   0  0  0  0  0  0  0  0  0  0  0  0
   45.2180   34.0720   46.0310 N   0  0  0  0  0  0  0  0  0  0  0  0
   46.4150   32.4190   47.2690 N   0  0  0  0  0  0  0  0  0  0  0  0
   47.6880   32.4720   47.9550 C   0  0  0  0  0  0  0  0  0  0  0  0
   47.9050   31.3400   48.8970 C   0  0  0  0  0  0  0  0  0  0  0  0
   46.7580   30.8000   49.5470 N   0  0  0  0  0  0  0  0  0  0  0  0
   45.5550   31.5390   49.2610 C   0  0  0  0  0  0  0  0  0  0  0  0
   45.3260   31.5600   47.7800 C   0  0  2  0  0  0  0  0  0  0  0  0
   44.8680   29.2300   48.1980 C   0  0  0  0  0  0  0  0  0  0  0  0
   45.0370   27.9190   48.0570 C   0  0  0  0  0  0  0  0  0  0  0  0
   44.5930   26.8740   49.0050 C   0  0  0  0  0  0  0  0  0  0  0  0
   43.7780   25.8330   48.2520 C   0  0  2  0  0  0  0  0  0  0  0  0
   44.5570   24.6910   47.6430 C   0  0  0  0  0  0  0  0  0  0  0  0
   43.8910   25.7400   46.7880 C   0  0  1  0  0  0  0  0  0  0  0  0
   42.7600   25.0470   44.7010 C   0  0  0  0  0  0  0  0  0  0  0  0
   42.6500   25.3960   46.0530 C   0  0  0  0  0  0  0  0  0  0  0  0
   41.3790   25.3910   46.5880 C   0  0  0  0  0  0  0  0  0  0  0  0
   40.2520   25.0660   45.8750 C   0  0  0  0  0  0  0  0  0  0  0  0
   40.3580   24.7260   44.5610 C   0  0  0  0  0  0  0  0  0  0  0  0
   41.6100   24.7190   43.9840 C   0  0  0  0  0  0  0  0  0  0  0  0
   44.3450   25.0370   43.9660 S   0  0  0  0  0  0  0  0  0  0  0  0
   44.4200   23.8280   43.0760 O   0  0  0  0  0  0  0  0  0  0  0  0
   44.4760   26.2740   43.1060 O   0  0  0  0  0  0  0  0  0  0  0  0
   44.7248   30.1671   46.2749 H   0  0  0  0  0  0  0  0  0  0  0  0
   46.3926   29.9433   46.8548 H   0  0  0  0  0  0  0  0  0  0  0  0
   44.1556   35.5373   44.9411 H   0  0  0  0  0  0  0  0  0  0  0  0
   45.6887   35.2433   42.9195 H   0  0  0  0  0  0  0  0  0  0  0  0
   47.5576   33.5612   43.0770 H   0  0  0  0  0  0  0  0  0  0  0  0
   48.4897   32.4563   47.2020 H   0  0  0  0  0  0  0  0  0  0  0  0
   47.6938   33.3951   48.5532 H   0  0  0  0  0  0  0  0  0  0  0  0
   48.3776   30.5245   48.3298 H   0  0  0  0  0  0  0  0  0  0  0  0
   48.5161   31.7620   49.7085 H   0  0  0  0  0  0  0  0  0  0  0  0
   46.6293   29.8274   49.2333 H   0  0  0  0  0  0  0  0  0  0  0  0
   44.7005   31.0564   49.7580 H   0  0  0  0  0  0  0  0  0  0  0  0
   45.6588   32.5693   49.6322 H   0  0  0  0  0  0  0  0  0  0  0  0
   44.3234   31.9356   47.5274 H   0  0  0  0  0  0  0  0  0  0  0  0
   44.3501   29.6132   49.0896 H   0  0  0  0  0  0  0  0  0  0  0  0
   45.5564   27.5790   47.1489 H   0  0  0  0  0  0  0  0  0  0  0  0
   45.4710   26.3943   49.4623 H   0  0  0  0  0  0  0  0  0  0  0  0
   43.9760   27.3277   49.7946 H   0  0  0  0  0  0  0  0  0  0  0  0
   42.9230   25.9353   48.9365 H   0  0  0  0  0  0  0  0  0  0  0  0
   45.6532   24.6595   47.7287 H   0  0  0  0  0  0  0  0  0  0  0  0
   44.5267   23.5934   47.7092 H   0  0  0  0  0  0  0  0  0  0  0  0
   44.2489   26.3950   45.9800 H   0  0  0  0  0  0  0  0  0  0  0  0
   41.2615   25.6632   47.6473 H   0  0  0  0  0  0  0  0  0  0  0  0
   39.2666   25.0802   46.3636 H   0  0  0  0  0  0  0  0  0  0  0  0
   39.4659   24.4631   43.9737 H   0  0  0  0  0  0  0  0  0  0  0  0
   41.7049   24.4456   42.9228 H   0  0  0  0  0  0  0  0  0  0  0  0
   45.3330   25.0122   44.9148 H   0  0  0  0  0  0  0  0  0  0  0  0
  1 13  1  0
  1 14  1  0
  2  7  2  0
  3  4  2  0
  3  2  1  0
  4  5  1  0
  5  6  2  0
  6  8  1  0
  7  6  1  0
  8 13  1  0
  8  9  1  0
  9 10  1  0
 10 11  1  0
 12 11  1  0
 13 12  1  0
 15 14  2  0
 15 16  1  0
 17 16  1  0
 18 17  1  0
 19 18  1  0
 19 17  1  0
 20 21  2  0
 21 22  1  0
 21 19  1  0
 23 22  2  0
 24 23  1  0
 25 24  2  0
 25 20  1  0
 26 20  1  0
 27 26  2  0
 28 26  2  0
  1 29  1  0
  1 30  1  0
  2 31  1  0
  3 32  1  0
  4 33  1  0
  9 34  1  0
  9 35  1  0
 10 36  1  0
 10 37  1  0
 11 38  1  0
 12 39  1  0
 12 40  1  0
 13 41  1  1
 14 42  1  0
 15 43  1  0
 16 44  1  0
 16 45  1  0
 17 46  1  6
 18 47  1  0
 18 48  1  0
 19 49  1  6
 22 50  1  0
 23 51  1  0
 24 52  1  0
 25 53  1  0
 26 54  1  0
M  ISO  8  29   8  30   8  31  14  32  14  33  14  34  13  35  13  36  13
M  ISO  8  37  13  38   5  39  13  40  13  41  13  44   8  45   8  46  13
M  ISO  8  47  13  48  13  49  13  50  14  51  14  52  14  53  14  54  11
M  END
>  <minimizedAffinity>  (1) 
-5.84397793

>  <minimizedRMSD>  (1) 
1.12786579

$$$$
