
     RDKit          3D

 39 42  0  0  0  0  0  0  0  0999 V2000
   45.3610   33.2180   41.0690 Cl  0  0  0  0  0  0  0  0  0  0  0  0
   46.7840   34.1860   41.0260 C   0  0  0  0  0  0  0  0  0  0  0  0
   47.1540   34.9220   42.1290 C   0  0  0  0  0  0  0  0  0  0  0  0
   48.2930   35.7210   42.1370 C   0  0  0  0  0  0  0  0  0  0  0  0
   49.0220   35.7290   40.9760 C   0  0  0  0  0  0  0  0  0  0  0  0
   48.6650   35.0090   39.8850 C   0  0  0  0  0  0  0  0  0  0  0  0
   47.5210   34.2110   39.8900 C   0  0  0  0  0  0  0  0  0  0  0  0
   45.7660   33.8320   45.3800 C   0  0  0  0  0  0  0  0  0  0  0  0
   44.7580   34.7580   45.6040 C   0  0  0  0  0  0  0  0  0  0  0  0
   44.5570   35.7390   44.6600 C   0  0  0  0  0  0  0  0  0  0  0  0
   45.3420   35.7710   43.5500 N   0  0  0  0  0  0  0  0  0  0  0  0
   46.3230   34.8610   43.3390 C   0  0  0  0  0  0  0  0  0  0  0  0
   46.5160   33.9050   44.2630 N   0  0  0  0  0  0  0  0  0  0  0  0
   47.2820   33.5000   38.6290 C   0  0  0  0  0  0  0  0  0  0  0  0
   46.0190   33.0200   38.3560 C   0  0  0  0  0  0  0  0  0  0  0  0
   46.2250   32.2290   36.6990 S   0  0  0  0  0  0  0  0  0  0  0  0
   48.0690   32.7210   36.6880 C   0  0  0  0  0  0  0  0  0  0  0  0
   48.1120   33.2330   37.6700 N   0  0  0  0  0  0  0  0  0  0  0  0
   49.8080   31.3690   35.5260 C   0  0  0  0  0  0  0  0  0  0  0  0
   48.8160   32.2940   35.4510 C   0  0  0  0  0  0  0  0  0  0  0  0
   48.5450   32.7930   34.2140 C   0  0  0  0  0  0  0  0  0  0  0  0
   49.1990   32.4260   33.0630 C   0  0  0  0  0  0  0  0  0  0  0  0
   50.1990   31.4870   33.1720 C   0  0  0  0  0  0  0  0  0  0  0  0
   50.5010   30.9600   34.4060 C   0  0  0  0  0  0  0  0  0  0  0  0
   50.1820   30.7160   37.0930 S   0  0  0  0  0  0  0  0  0  0  0  0
   51.2230   31.5340   37.7580 O   0  0  0  0  0  0  0  0  0  0  0  0
   50.8190   29.3490   36.8600 O   0  0  0  0  0  0  0  0  0  0  0  0
   48.5896   36.3086   43.0184 H   0  0  0  0  0  0  0  0  0  0  0  0
   49.9327   36.3442   40.9282 H   0  0  0  0  0  0  0  0  0  0  0  0
   49.2882   35.0546   38.9797 H   0  0  0  0  0  0  0  0  0  0  0  0
   45.9536   33.0362   46.1159 H   0  0  0  0  0  0  0  0  0  0  0  0
   44.1368   34.7096   46.5105 H   0  0  0  0  0  0  0  0  0  0  0  0
   43.7674   36.4915   44.8022 H   0  0  0  0  0  0  0  0  0  0  0  0
   45.1112   33.0906   38.9732 H   0  0  0  0  0  0  0  0  0  0  0  0
   47.7453   33.5436   34.1299 H   0  0  0  0  0  0  0  0  0  0  0  0
   48.9332   32.8663   32.0906 H   0  0  0  0  0  0  0  0  0  0  0  0
   50.7525   31.1604   32.2792 H   0  0  0  0  0  0  0  0  0  0  0  0
   51.2990   30.2088   34.5000 H   0  0  0  0  0  0  0  0  0  0  0  0
   49.0437   30.6758   37.8544 H   0  0  0  0  0  0  0  0  0  0  0  0
  2  1  1  0
  2  3  2  0
  3  4  1  0
  3 12  1  0
  5  4  2  0
  6  7  2  0
  6  5  1  0
  7  2  1  0
  8  9  2  0
 10  9  1  0
 11 10  2  0
 12 11  1  0
 12 13  2  0
 13  8  1  0
 14  7  1  0
 15 14  2  0
 16 15  1  0
 17 16  1  0
 17 18  2  0
 18 14  1  0
 19 25  1  0
 20 19  2  0
 20 17  1  0
 21 20  1  0
 22 23  1  0
 22 21  2  0
 23 24  2  0
 24 19  1  0
 25 26  2  0
 27 25  2  0
  4 28  1  0
  5 29  1  0
  6 30  1  0
  8 31  1  0
  9 32  1  0
 10 33  1  0
 15 34  1  0
 21 35  1  0
 22 36  1  0
 23 37  1  0
 24 38  1  0
 25 39  1  0
M  ISO  8  28  14  29  14  30  14  31  14  32  14  33  14  34  14  35  14
M  ISO  4  36  14  37  14  38  14  39  11
M  END
>  <minimizedAffinity>  (1) 
-6.2650733

>  <minimizedRMSD>  (1) 
4.3299799

$$$$
